1y26_lig
 OpenBabel02141814133D
libRbt.so/2013.1/901 2013/11/27
 10 11  0  0  0  0  0  0  0  0999 V2000
   19.4978  -17.1417    2.7422 N   0  0  0  0  0  0  0  0  0  0  0  0
   18.7840  -18.2397    2.4814 C   0  0  0  0  0  0  0  0  0  0  0  0
   18.4495  -19.2248    3.3124 N   0  0  0  0  0  0  0  0  0  0  0  0
   18.9148  -18.9825    4.5586 C   0  0  0  0  0  0  0  0  0  0  0  0
   19.6511  -17.8912    4.9748 C   0  0  0  0  0  0  0  0  0  0  0  0
   19.9486  -16.9370    3.9972 C   0  0  0  0  0  0  0  0  0  0  0  0
   20.6622  -15.8591    4.2800 N   0  0  0  0  0  0  0  0  0  0  0  0
   19.9754  -17.9572    6.3099 N   0  0  0  0  0  0  0  0  0  0  0  0
   19.3998  -19.0814    6.6951 C   0  0  0  0  0  0  0  0  0  0  0  0
   18.7540  -19.7529    5.6794 N   0  0  0  0  0  0  0  0  0  0  0  0
  1  2  2  0  0  0  0
  2  3  1  0  0  0  0
  3  4  2  0  0  0  0
  5  4  1  0  0  0  0
  5  6  2  0  0  0  0
  6  1  1  0  0  0  0
  6  7  1  0  0  0  0
  8  5  1  0  0  0  0
  9  8  1  0  0  0  0
 10  4  1  0  0  0  0
 10  9  2  0  0  0  0
M  END
>  <CHROM.1>
19.40379983,-18.10617412,4.50149821,1.36232317,-1.00142017,-1.14638711

>  <Name>
1y26_lig

>  <RI>
0

>  <Rbt.Current_Directory>
/home/afrankz/demos/rdock_decoys_rna/rnas/1y26

>  <Rbt.Executable>
rbdock ($Id: //depot/dev/client3/rdock/2013.1/src/exe/rbdock.cxx#4 $)

>  <Rbt.Library>
libRbt.so (2013.1, Build901 2013/11/27)

>  <Rbt.Parameter_File>
/export/apps/rDock/src/rDock_2013.1_src/data/scripts/dock_solv.prm

>  <Rbt.Receptor>
prm/pocket_docking_8.prm

>  <SCORE>
-26.4476

>  <SCORE.INTER>
-26.4476

>  <SCORE.INTER.CONST>
1

>  <SCORE.INTER.POLAR>
-2.0198

>  <SCORE.INTER.ROT>
0

>  <SCORE.INTER.SOLV>
12.5599

>  <SCORE.INTER.VDW>
-18.6857

>  <SCORE.INTER.norm>
-2.64476

>  <SCORE.INTRA>
0

>  <SCORE.INTRA.DIHEDRAL>
0

>  <SCORE.INTRA.DIHEDRAL.0>
0

>  <SCORE.INTRA.POLAR>
0

>  <SCORE.INTRA.POLAR.0>
0

>  <SCORE.INTRA.REPUL>
0

>  <SCORE.INTRA.REPUL.0>
0

>  <SCORE.INTRA.SOLV>
0

>  <SCORE.INTRA.SOLV.lig_0>
-16.9472

>  <SCORE.INTRA.VDW>
0

>  <SCORE.INTRA.VDW.0>
0

>  <SCORE.INTRA.norm>
0

>  <SCORE.RESTR>
0

>  <SCORE.RESTR.CAVITY>
0

>  <SCORE.RESTR.norm>
0

>  <SCORE.SYSTEM>
0

>  <SCORE.SYSTEM.CONST>
0

>  <SCORE.SYSTEM.DIHEDRAL>
0

>  <SCORE.SYSTEM.SOLV>
0

>  <SCORE.SYSTEM.norm>
0

>  <SCORE.heavy>
10

>  <SCORE.norm>
-2.64476

>  <RMSD>
0.459

$$$$
1y26_lig
 OpenBabel02141814133D
libRbt.so/2013.1/901 2013/11/27
 10 11  0  0  0  0  0  0  0  0999 V2000
   19.4874  -17.0842    2.7766 N   0  0  0  0  0  0  0  0  0  0  0  0
   18.8196  -18.2072    2.5009 C   0  0  0  0  0  0  0  0  0  0  0  0
   18.5171  -19.2115    3.3211 N   0  0  0  0  0  0  0  0  0  0  0  0
   18.9619  -18.9613    4.5732 C   0  0  0  0  0  0  0  0  0  0  0  0
   19.6510  -17.8453    5.0045 C   0  0  0  0  0  0  0  0  0  0  0  0
   19.9190  -16.8722    4.0371 C   0  0  0  0  0  0  0  0  0  0  0  0
   20.5872  -15.7695    4.3347 N   0  0  0  0  0  0  0  0  0  0  0  0
   19.9662  -17.9096    6.3419 N   0  0  0  0  0  0  0  0  0  0  0  0
   19.4320  -19.0586    6.7130 C   0  0  0  0  0  0  0  0  0  0  0  0
   18.8219  -19.7466    5.6864 N   0  0  0  0  0  0  0  0  0  0  0  0
  1  2  2  0  0  0  0
  2  3  1  0  0  0  0
  3  4  2  0  0  0  0
  5  4  1  0  0  0  0
  5  6  2  0  0  0  0
  6  1  1  0  0  0  0
  6  7  1  0  0  0  0
  8  5  1  0  0  0  0
  9  8  1  0  0  0  0
 10  4  1  0  0  0  0
 10  9  2  0  0  0  0
M  END
>  <CHROM.1>
19.41639334,-18.06600583,4.52734843,1.37899668,-1.04078436,-1.12410998

>  <Name>
1y26_lig

>  <RI>
0

>  <Rbt.Current_Directory>
/home/afrankz/demos/rdock_decoys_rna/rnas/1y26

>  <Rbt.Executable>
rbdock ($Id: //depot/dev/client3/rdock/2013.1/src/exe/rbdock.cxx#4 $)

>  <Rbt.Library>
libRbt.so (2013.1, Build901 2013/11/27)

>  <Rbt.Parameter_File>
/export/apps/rDock/src/rDock_2013.1_src/data/scripts/dock_solv.prm

>  <Rbt.Receptor>
prm/blind_docking_40.prm

>  <SCORE>
-26.5449

>  <SCORE.INTER>
-26.5449

>  <SCORE.INTER.CONST>
1

>  <SCORE.INTER.POLAR>
-2.0198

>  <SCORE.INTER.ROT>
0

>  <SCORE.INTER.SOLV>
12.6942

>  <SCORE.INTER.VDW>
-18.7953

>  <SCORE.INTER.norm>
-2.65449

>  <SCORE.INTRA>
0

>  <SCORE.INTRA.DIHEDRAL>
0

>  <SCORE.INTRA.DIHEDRAL.0>
0

>  <SCORE.INTRA.POLAR>
0

>  <SCORE.INTRA.POLAR.0>
0

>  <SCORE.INTRA.REPUL>
0

>  <SCORE.INTRA.REPUL.0>
0

>  <SCORE.INTRA.SOLV>
0

>  <SCORE.INTRA.SOLV.lig_0>
-16.9472

>  <SCORE.INTRA.VDW>
0

>  <SCORE.INTRA.VDW.0>
0

>  <SCORE.INTRA.norm>
0

>  <SCORE.RESTR>
0

>  <SCORE.RESTR.CAVITY>
0

>  <SCORE.RESTR.norm>
0

>  <SCORE.SYSTEM>
0

>  <SCORE.SYSTEM.CONST>
0

>  <SCORE.SYSTEM.DIHEDRAL>
0

>  <SCORE.SYSTEM.SOLV>
0

>  <SCORE.SYSTEM.norm>
0

>  <SCORE.heavy>
10

>  <SCORE.norm>
-2.65449

>  <RMSD>
0.488

$$$$
1y26_lig
 OpenBabel02141814133D
libRbt.so/2013.1/901 2013/11/27
 10 11  0  0  0  0  0  0  0  0999 V2000
   19.4900  -17.1114    2.8093 N   0  0  0  0  0  0  0  0  0  0  0  0
   18.8187  -18.2306    2.5271 C   0  0  0  0  0  0  0  0  0  0  0  0
   18.5017  -19.2328    3.3444 N   0  0  0  0  0  0  0  0  0  0  0  0
   18.9349  -18.9847    4.6010 C   0  0  0  0  0  0  0  0  0  0  0  0
   19.6260  -17.8726    5.0390 C   0  0  0  0  0  0  0  0  0  0  0  0
   19.9097  -16.9014    4.0742 C   0  0  0  0  0  0  0  0  0  0  0  0
   20.5812  -15.8024    4.3783 N   0  0  0  0  0  0  0  0  0  0  0  0
   19.9269  -17.9380    6.3797 N   0  0  0  0  0  0  0  0  0  0  0  0
   19.3822  -19.0838    6.7457 C   0  0  0  0  0  0  0  0  0  0  0  0
   18.7788  -19.7687    5.7130 N   0  0  0  0  0  0  0  0  0  0  0  0
  1  2  2  0  0  0  0
  2  3  1  0  0  0  0
  3  4  2  0  0  0  0
  5  4  1  0  0  0  0
  5  6  2  0  0  0  0
  6  1  1  0  0  0  0
  6  7  1  0  0  0  0
  8  5  1  0  0  0  0
  9  8  1  0  0  0  0
 10  4  1  0  0  0  0
 10  9  2  0  0  0  0
M  END
>  <CHROM.1>
19.39509539,-18.09205293,4.55960094,1.35546221,-1.03991524,-1.14481398

>  <Name>
1y26_lig

>  <RI>
0

>  <Rbt.Current_Directory>
/home/afrankz/demos/rdock_decoys_rna/rnas/1y26

>  <Rbt.Executable>
rbdock ($Id: //depot/dev/client3/rdock/2013.1/src/exe/rbdock.cxx#4 $)

>  <Rbt.Library>
libRbt.so (2013.1, Build901 2013/11/27)

>  <Rbt.Parameter_File>
/export/apps/rDock/src/rDock_2013.1_src/data/scripts/dock_solv.prm

>  <Rbt.Receptor>
prm/pocket_docking_4.prm

>  <SCORE>
-26.5528

>  <SCORE.INTER>
-26.5528

>  <SCORE.INTER.CONST>
1

>  <SCORE.INTER.POLAR>
-2.0198

>  <SCORE.INTER.ROT>
0

>  <SCORE.INTER.SOLV>
12.6607

>  <SCORE.INTER.VDW>
-18.7895

>  <SCORE.INTER.norm>
-2.65528

>  <SCORE.INTRA>
0

>  <SCORE.INTRA.DIHEDRAL>
0

>  <SCORE.INTRA.DIHEDRAL.0>
0

>  <SCORE.INTRA.POLAR>
0

>  <SCORE.INTRA.POLAR.0>
0

>  <SCORE.INTRA.REPUL>
0

>  <SCORE.INTRA.REPUL.0>
0

>  <SCORE.INTRA.SOLV>
0

>  <SCORE.INTRA.SOLV.lig_0>
-16.9472

>  <SCORE.INTRA.VDW>
0

>  <SCORE.INTRA.VDW.0>
0

>  <SCORE.INTRA.norm>
0

>  <SCORE.RESTR>
0

>  <SCORE.RESTR.CAVITY>
0

>  <SCORE.RESTR.norm>
0

>  <SCORE.SYSTEM>
0

>  <SCORE.SYSTEM.CONST>
0

>  <SCORE.SYSTEM.DIHEDRAL>
0

>  <SCORE.SYSTEM.SOLV>
0

>  <SCORE.SYSTEM.norm>
0

>  <SCORE.heavy>
10

>  <SCORE.norm>
-2.65528

>  <RMSD>
0.519

$$$$
1y26_lig
 OpenBabel02141814133D
libRbt.so/2013.1/901 2013/11/27
 10 11  0  0  0  0  0  0  0  0999 V2000
   19.4681  -17.0372    2.8874 N   0  0  0  0  0  0  0  0  0  0  0  0
   18.8168  -18.1638    2.5876 C   0  0  0  0  0  0  0  0  0  0  0  0
   18.5349  -19.1927    3.3844 N   0  0  0  0  0  0  0  0  0  0  0  0
   18.9826  -18.9662    4.6400 C   0  0  0  0  0  0  0  0  0  0  0  0
   19.6562  -17.8501    5.0950 C   0  0  0  0  0  0  0  0  0  0  0  0
   19.9032  -16.8493    4.1506 C   0  0  0  0  0  0  0  0  0  0  0  0
   20.5553  -15.7436    4.4718 N   0  0  0  0  0  0  0  0  0  0  0  0
   19.9798  -17.9420    6.4288 N   0  0  0  0  0  0  0  0  0  0  0  0
   19.4661  -19.1083    6.7743 C   0  0  0  0  0  0  0  0  0  0  0  0
   18.8615  -19.7807    5.7342 N   0  0  0  0  0  0  0  0  0  0  0  0
  1  2  2  0  0  0  0
  2  3  1  0  0  0  0
  3  4  2  0  0  0  0
  5  4  1  0  0  0  0
  5  6  2  0  0  0  0
  6  1  1  0  0  0  0
  6  7  1  0  0  0  0
  8  5  1  0  0  0  0
  9  8  1  0  0  0  0
 10  4  1  0  0  0  0
 10  9  2  0  0  0  0
M  END
>  <CHROM.1>
19.42250856,-18.06276013,4.61383479,1.40305234,-1.05269337,-1.07870114

>  <Name>
1y26_lig

>  <RI>
224

>  <Rbt.Current_Directory>
/home/afrankz/demos/rdock_decoys_rna/rnas/1y26

>  <Rbt.Executable>
rbdock ($Id: //depot/dev/client3/rdock/2013.1/src/exe/rbdock.cxx#4 $)

>  <Rbt.Library>
libRbt.so (2013.1, Build901 2013/11/27)

>  <Rbt.Parameter_File>
/export/apps/rDock/src/rDock_2013.1_src/data/scripts/dock_solv.prm

>  <Rbt.Receptor>
prm/pocket_docking_7.prm

>  <SCORE>
-26.6501

>  <SCORE.INTER>
-26.6501

>  <SCORE.INTER.CONST>
1

>  <SCORE.INTER.POLAR>
-2.0198

>  <SCORE.INTER.ROT>
0

>  <SCORE.INTER.SOLV>
12.8127

>  <SCORE.INTER.VDW>
-18.905

>  <SCORE.INTER.norm>
-2.66501

>  <SCORE.INTRA>
0

>  <SCORE.INTRA.DIHEDRAL>
0

>  <SCORE.INTRA.DIHEDRAL.0>
0

>  <SCORE.INTRA.POLAR>
0

>  <SCORE.INTRA.POLAR.0>
0

>  <SCORE.INTRA.REPUL>
0

>  <SCORE.INTRA.REPUL.0>
0

>  <SCORE.INTRA.SOLV>
0

>  <SCORE.INTRA.SOLV.lig_0>
-16.9472

>  <SCORE.INTRA.VDW>
0

>  <SCORE.INTRA.VDW.0>
0

>  <SCORE.INTRA.norm>
0

>  <SCORE.RESTR>
0

>  <SCORE.RESTR.CAVITY>
0

>  <SCORE.RESTR.norm>
0

>  <SCORE.SYSTEM>
0

>  <SCORE.SYSTEM.CONST>
0

>  <SCORE.SYSTEM.DIHEDRAL>
0

>  <SCORE.SYSTEM.SOLV>
0

>  <SCORE.SYSTEM.norm>
0

>  <SCORE.heavy>
10

>  <SCORE.norm>
-2.66501

>  <RMSD>
0.580

$$$$
1y26_lig
 OpenBabel02141814133D
libRbt.so/2013.1/901 2013/11/27
 10 11  0  0  0  0  0  0  0  0999 V2000
   19.4819  -17.0558    2.8944 N   0  0  0  0  0  0  0  0  0  0  0  0
   18.8003  -18.1676    2.6076 C   0  0  0  0  0  0  0  0  0  0  0  0
   18.4961  -19.1821    3.4146 N   0  0  0  0  0  0  0  0  0  0  0  0
   18.9561  -18.9566    4.6659 C   0  0  0  0  0  0  0  0  0  0  0  0
   19.6606  -17.8545    5.1079 C   0  0  0  0  0  0  0  0  0  0  0  0
   19.9284  -16.8685    4.1537 C   0  0  0  0  0  0  0  0  0  0  0  0
   20.6105  -15.7773    4.4621 N   0  0  0  0  0  0  0  0  0  0  0  0
   19.9887  -17.9434    6.4409 N   0  0  0  0  0  0  0  0  0  0  0  0
   19.4470  -19.0931    6.7989 C   0  0  0  0  0  0  0  0  0  0  0  0
   18.8197  -19.7584    5.7677 N   0  0  0  0  0  0  0  0  0  0  0  0
  1  2  2  0  0  0  0
  2  3  1  0  0  0  0
  3  4  2  0  0  0  0
  5  4  1  0  0  0  0
  5  6  2  0  0  0  0
  6  1  1  0  0  0  0
  6  7  1  0  0  0  0
  8  5  1  0  0  0  0
  9  8  1  0  0  0  0
 10  4  1  0  0  0  0
 10  9  2  0  0  0  0
M  END
>  <CHROM.1>
19.41898724,-18.06510798,4.62978727,1.38843314,-1.02743757,-1.09986175

>  <Name>
1y26_lig

>  <RI>
224

>  <Rbt.Current_Directory>
/home/afrankz/demos/rdock_decoys_rna/rnas/1y26

>  <Rbt.Executable>
rbdock ($Id: //depot/dev/client3/rdock/2013.1/src/exe/rbdock.cxx#4 $)

>  <Rbt.Library>
libRbt.so (2013.1, Build901 2013/11/27)

>  <Rbt.Parameter_File>
/export/apps/rDock/src/rDock_2013.1_src/data/scripts/dock_solv.prm

>  <Rbt.Receptor>
prm/pocket_docking_7.prm

>  <SCORE>
-26.5903

>  <SCORE.INTER>
-26.5903

>  <SCORE.INTER.CONST>
1

>  <SCORE.INTER.POLAR>
-2.0198

>  <SCORE.INTER.ROT>
0

>  <SCORE.INTER.SOLV>
12.6989

>  <SCORE.INTER.VDW>
-18.8272

>  <SCORE.INTER.norm>
-2.65903

>  <SCORE.INTRA>
0

>  <SCORE.INTRA.DIHEDRAL>
0

>  <SCORE.INTRA.DIHEDRAL.0>
0

>  <SCORE.INTRA.POLAR>
0

>  <SCORE.INTRA.POLAR.0>
0

>  <SCORE.INTRA.REPUL>
0

>  <SCORE.INTRA.REPUL.0>
0

>  <SCORE.INTRA.SOLV>
0

>  <SCORE.INTRA.SOLV.lig_0>
-16.9472

>  <SCORE.INTRA.VDW>
0

>  <SCORE.INTRA.VDW.0>
0

>  <SCORE.INTRA.norm>
0

>  <SCORE.RESTR>
0

>  <SCORE.RESTR.CAVITY>
0

>  <SCORE.RESTR.norm>
0

>  <SCORE.SYSTEM>
0

>  <SCORE.SYSTEM.CONST>
0

>  <SCORE.SYSTEM.DIHEDRAL>
0

>  <SCORE.SYSTEM.SOLV>
0

>  <SCORE.SYSTEM.norm>
0

>  <SCORE.heavy>
10

>  <SCORE.norm>
-2.65903

>  <RMSD>
0.583

$$$$
1y26_lig
 OpenBabel02141814133D
libRbt.so/2013.1/901 2013/11/27
 10 11  0  0  0  0  0  0  0  0999 V2000
   19.4324  -17.0632    2.8950 N   0  0  0  0  0  0  0  0  0  0  0  0
   18.7655  -18.1851    2.6125 C   0  0  0  0  0  0  0  0  0  0  0  0
   18.4809  -19.2036    3.4216 N   0  0  0  0  0  0  0  0  0  0  0  0
   18.9447  -18.9708    4.6702 C   0  0  0  0  0  0  0  0  0  0  0  0
   19.6355  -17.8583    5.1077 C   0  0  0  0  0  0  0  0  0  0  0  0
   19.8833  -16.8689    4.1516 C   0  0  0  0  0  0  0  0  0  0  0  0
   20.5511  -15.7677    4.4557 N   0  0  0  0  0  0  0  0  0  0  0  0
   19.9727  -17.9419    6.4388 N   0  0  0  0  0  0  0  0  0  0  0  0
   19.4499  -19.0992    6.8003 C   0  0  0  0  0  0  0  0  0  0  0  0
   18.8265  -19.7741    5.7730 N   0  0  0  0  0  0  0  0  0  0  0  0
  1  2  2  0  0  0  0
  2  3  1  0  0  0  0
  3  4  2  0  0  0  0
  5  4  1  0  0  0  0
  5  6  2  0  0  0  0
  6  1  1  0  0  0  0
  6  7  1  0  0  0  0
  8  5  1  0  0  0  0
  9  8  1  0  0  0  0
 10  4  1  0  0  0  0
 10  9  2  0  0  0  0
M  END
>  <CHROM.1>
19.39431406,-18.07264980,4.63105846,1.41165516,-1.03775735,-1.08029176

>  <Name>
1y26_lig

>  <RI>
0

>  <Rbt.Current_Directory>
/home/afrankz/demos/rdock_decoys_rna/rnas/1y26

>  <Rbt.Executable>
rbdock ($Id: //depot/dev/client3/rdock/2013.1/src/exe/rbdock.cxx#4 $)

>  <Rbt.Library>
libRbt.so (2013.1, Build901 2013/11/27)

>  <Rbt.Parameter_File>
/export/apps/rDock/src/rDock_2013.1_src/data/scripts/dock_solv.prm

>  <Rbt.Receptor>
prm/blind_docking_40.prm

>  <SCORE>
-26.6723

>  <SCORE.INTER>
-26.6723

>  <SCORE.INTER.CONST>
1

>  <SCORE.INTER.POLAR>
-2.0198

>  <SCORE.INTER.ROT>
0

>  <SCORE.INTER.SOLV>
12.808

>  <SCORE.INTER.VDW>
-18.9182

>  <SCORE.INTER.norm>
-2.66723

>  <SCORE.INTRA>
0

>  <SCORE.INTRA.DIHEDRAL>
0

>  <SCORE.INTRA.DIHEDRAL.0>
0

>  <SCORE.INTRA.POLAR>
0

>  <SCORE.INTRA.POLAR.0>
0

>  <SCORE.INTRA.REPUL>
0

>  <SCORE.INTRA.REPUL.0>
0

>  <SCORE.INTRA.SOLV>
0

>  <SCORE.INTRA.SOLV.lig_0>
-16.9472

>  <SCORE.INTRA.VDW>
0

>  <SCORE.INTRA.VDW.0>
0

>  <SCORE.INTRA.norm>
0

>  <SCORE.RESTR>
0

>  <SCORE.RESTR.CAVITY>
0

>  <SCORE.RESTR.norm>
0

>  <SCORE.SYSTEM>
0

>  <SCORE.SYSTEM.CONST>
0

>  <SCORE.SYSTEM.DIHEDRAL>
0

>  <SCORE.SYSTEM.SOLV>
0

>  <SCORE.SYSTEM.norm>
0

>  <SCORE.heavy>
10

>  <SCORE.norm>
-2.66723

>  <RMSD>
0.586

$$$$
1y26_lig
 OpenBabel02141814133D
libRbt.so/2013.1/901 2013/11/27
 10 11  0  0  0  0  0  0  0  0999 V2000
   19.5162  -17.0530    2.8955 N   0  0  0  0  0  0  0  0  0  0  0  0
   18.8396  -18.1660    2.6012 C   0  0  0  0  0  0  0  0  0  0  0  0
   18.5282  -19.1810    3.4048 N   0  0  0  0  0  0  0  0  0  0  0  0
   18.9739  -18.9547    4.6611 C   0  0  0  0  0  0  0  0  0  0  0  0
   19.6717  -17.8514    5.1109 C   0  0  0  0  0  0  0  0  0  0  0  0
   19.9484  -16.8650    4.1596 C   0  0  0  0  0  0  0  0  0  0  0  0
   20.6252  -15.7726    4.4755 N   0  0  0  0  0  0  0  0  0  0  0  0
   19.9852  -17.9398    6.4474 N   0  0  0  0  0  0  0  0  0  0  0  0
   19.4415  -19.0904    6.7995 C   0  0  0  0  0  0  0  0  0  0  0  0
   18.8267  -19.7567    5.7614 N   0  0  0  0  0  0  0  0  0  0  0  0
  1  2  2  0  0  0  0
  2  3  1  0  0  0  0
  3  4  2  0  0  0  0
  5  4  1  0  0  0  0
  5  6  2  0  0  0  0
  6  1  1  0  0  0  0
  6  7  1  0  0  0  0
  8  5  1  0  0  0  0
  9  8  1  0  0  0  0
 10  4  1  0  0  0  0
 10  9  2  0  0  0  0
M  END
>  <CHROM.1>
19.43572654,-18.06243148,4.63010365,1.37065010,-1.03384816,-1.11512593

>  <Name>
1y26_lig

>  <RI>
0

>  <Rbt.Current_Directory>
/home/afrankz/demos/rdock_decoys_rna/rnas/1y26

>  <Rbt.Executable>
rbdock ($Id: //depot/dev/client3/rdock/2013.1/src/exe/rbdock.cxx#4 $)

>  <Rbt.Library>
libRbt.so (2013.1, Build901 2013/11/27)

>  <Rbt.Parameter_File>
/export/apps/rDock/src/rDock_2013.1_src/data/scripts/dock_solv.prm

>  <Rbt.Receptor>
prm/blind_docking_100.prm

>  <SCORE>
-26.6117

>  <SCORE.INTER>
-26.6117

>  <SCORE.INTER.CONST>
1

>  <SCORE.INTER.POLAR>
-2.0198

>  <SCORE.INTER.ROT>
0

>  <SCORE.INTER.SOLV>
12.6589

>  <SCORE.INTER.VDW>
-18.8281

>  <SCORE.INTER.norm>
-2.66117

>  <SCORE.INTRA>
0

>  <SCORE.INTRA.DIHEDRAL>
0

>  <SCORE.INTRA.DIHEDRAL.0>
0

>  <SCORE.INTRA.POLAR>
0

>  <SCORE.INTRA.POLAR.0>
0

>  <SCORE.INTRA.REPUL>
0

>  <SCORE.INTRA.REPUL.0>
0

>  <SCORE.INTRA.SOLV>
0

>  <SCORE.INTRA.SOLV.lig_0>
-16.9472

>  <SCORE.INTRA.VDW>
0

>  <SCORE.INTRA.VDW.0>
0

>  <SCORE.INTRA.norm>
0

>  <SCORE.RESTR>
0

>  <SCORE.RESTR.CAVITY>
0

>  <SCORE.RESTR.norm>
0

>  <SCORE.SYSTEM>
0

>  <SCORE.SYSTEM.CONST>
0

>  <SCORE.SYSTEM.DIHEDRAL>
0

>  <SCORE.SYSTEM.SOLV>
0

>  <SCORE.SYSTEM.norm>
0

>  <SCORE.heavy>
10

>  <SCORE.norm>
-2.66117

>  <RMSD>
0.587

$$$$
1y26_lig
 OpenBabel02141814133D
libRbt.so/2013.1/901 2013/11/27
 10 11  0  0  0  0  0  0  0  0999 V2000
   19.4212  -17.0633    2.8956 N   0  0  0  0  0  0  0  0  0  0  0  0
   18.7551  -18.1856    2.6128 C   0  0  0  0  0  0  0  0  0  0  0  0
   18.4824  -19.2102    3.4182 N   0  0  0  0  0  0  0  0  0  0  0  0
   18.9584  -18.9840    4.6633 C   0  0  0  0  0  0  0  0  0  0  0  0
   19.6501  -17.8720    5.1009 C   0  0  0  0  0  0  0  0  0  0  0  0
   19.8846  -16.8756    4.1487 C   0  0  0  0  0  0  0  0  0  0  0  0
   20.5518  -15.7741    4.4529 N   0  0  0  0  0  0  0  0  0  0  0  0
   20.0014  -17.9630    6.4278 N   0  0  0  0  0  0  0  0  0  0  0  0
   19.4863  -19.1244    6.7872 C   0  0  0  0  0  0  0  0  0  0  0  0
   18.8544  -19.7947    5.7621 N   0  0  0  0  0  0  0  0  0  0  0  0
  1  2  2  0  0  0  0
  2  3  1  0  0  0  0
  3  4  2  0  0  0  0
  5  4  1  0  0  0  0
  5  6  2  0  0  0  0
  6  1  1  0  0  0  0
  6  7  1  0  0  0  0
  8  5  1  0  0  0  0
  9  8  1  0  0  0  0
 10  4  1  0  0  0  0
 10  9  2  0  0  0  0
M  END
>  <CHROM.1>
19.40457895,-18.08404846,4.62537301,1.43280708,-1.03566281,-1.05560307

>  <Name>
1y26_lig

>  <RI>
224

>  <Rbt.Current_Directory>
/home/afrankz/demos/rdock_decoys_rna/rnas/1y26

>  <Rbt.Executable>
rbdock ($Id: //depot/dev/client3/rdock/2013.1/src/exe/rbdock.cxx#4 $)

>  <Rbt.Library>
libRbt.so (2013.1, Build901 2013/11/27)

>  <Rbt.Parameter_File>
/export/apps/rDock/src/rDock_2013.1_src/data/scripts/dock_solv.prm

>  <Rbt.Receptor>
prm/pocket_docking_6.prm

>  <SCORE>
-26.6916

>  <SCORE.INTER>
-26.6916

>  <SCORE.INTER.CONST>
1

>  <SCORE.INTER.POLAR>
-2.0198

>  <SCORE.INTER.ROT>
0

>  <SCORE.INTER.SOLV>
12.8286

>  <SCORE.INTER.VDW>
-18.9379

>  <SCORE.INTER.norm>
-2.66916

>  <SCORE.INTRA>
0

>  <SCORE.INTRA.DIHEDRAL>
0

>  <SCORE.INTRA.DIHEDRAL.0>
0

>  <SCORE.INTRA.POLAR>
0

>  <SCORE.INTRA.POLAR.0>
0

>  <SCORE.INTRA.REPUL>
0

>  <SCORE.INTRA.REPUL.0>
0

>  <SCORE.INTRA.SOLV>
0

>  <SCORE.INTRA.SOLV.lig_0>
-16.9472

>  <SCORE.INTRA.VDW>
0

>  <SCORE.INTRA.VDW.0>
0

>  <SCORE.INTRA.norm>
0

>  <SCORE.RESTR>
0

>  <SCORE.RESTR.CAVITY>
0

>  <SCORE.RESTR.norm>
0

>  <SCORE.SYSTEM>
0

>  <SCORE.SYSTEM.CONST>
0

>  <SCORE.SYSTEM.DIHEDRAL>
0

>  <SCORE.SYSTEM.SOLV>
0

>  <SCORE.SYSTEM.norm>
0

>  <SCORE.heavy>
10

>  <SCORE.norm>
-2.66916

>  <RMSD>
0.587

$$$$
1y26_lig
 OpenBabel02141814133D
libRbt.so/2013.1/901 2013/11/27
 10 11  0  0  0  0  0  0  0  0999 V2000
   19.4375  -17.0627    2.8996 N   0  0  0  0  0  0  0  0  0  0  0  0
   18.7688  -18.1808    2.6067 C   0  0  0  0  0  0  0  0  0  0  0  0
   18.4857  -19.2079    3.4054 N   0  0  0  0  0  0  0  0  0  0  0  0
   18.9534  -18.9893    4.6551 C   0  0  0  0  0  0  0  0  0  0  0  0
   19.6465  -17.8823    5.1028 C   0  0  0  0  0  0  0  0  0  0  0  0
   19.8923  -16.8826    4.1569 C   0  0  0  0  0  0  0  0  0  0  0  0
   20.5620  -15.7854    4.4711 N   0  0  0  0  0  0  0  0  0  0  0  0
   19.9874  -17.9808    6.4318 N   0  0  0  0  0  0  0  0  0  0  0  0
   19.4647  -19.1416    6.7822 C   0  0  0  0  0  0  0  0  0  0  0  0
   18.8377  -19.8046    5.7493 N   0  0  0  0  0  0  0  0  0  0  0  0
  1  2  2  0  0  0  0
  2  3  1  0  0  0  0
  3  4  2  0  0  0  0
  5  4  1  0  0  0  0
  5  6  2  0  0  0  0
  6  1  1  0  0  0  0
  6  7  1  0  0  0  0
  8  5  1  0  0  0  0
  9  8  1  0  0  0  0
 10  4  1  0  0  0  0
 10  9  2  0  0  0  0
M  END
>  <CHROM.1>
19.40364542,-18.09116778,4.62451491,1.41591985,-1.03558995,-1.06562115

>  <Name>
1y26_lig

>  <RI>
224

>  <Rbt.Current_Directory>
/home/afrankz/demos/rdock_decoys_rna/rnas/1y26

>  <Rbt.Executable>
rbdock ($Id: //depot/dev/client3/rdock/2013.1/src/exe/rbdock.cxx#4 $)

>  <Rbt.Library>
libRbt.so (2013.1, Build901 2013/11/27)

>  <Rbt.Parameter_File>
/export/apps/rDock/src/rDock_2013.1_src/data/scripts/dock_solv.prm

>  <Rbt.Receptor>
prm/pocket_docking_3.prm

>  <SCORE>
-26.73

>  <SCORE.INTER>
-26.73

>  <SCORE.INTER.CONST>
1

>  <SCORE.INTER.POLAR>
-2.0198

>  <SCORE.INTER.ROT>
0

>  <SCORE.INTER.SOLV>
12.8087

>  <SCORE.INTER.VDW>
-18.9569

>  <SCORE.INTER.norm>
-2.673

>  <SCORE.INTRA>
0

>  <SCORE.INTRA.DIHEDRAL>
0

>  <SCORE.INTRA.DIHEDRAL.0>
0

>  <SCORE.INTRA.POLAR>
0

>  <SCORE.INTRA.POLAR.0>
0

>  <SCORE.INTRA.REPUL>
0

>  <SCORE.INTRA.REPUL.0>
0

>  <SCORE.INTRA.SOLV>
0

>  <SCORE.INTRA.SOLV.lig_0>
-16.9472

>  <SCORE.INTRA.VDW>
0

>  <SCORE.INTRA.VDW.0>
0

>  <SCORE.INTRA.norm>
0

>  <SCORE.RESTR>
0

>  <SCORE.RESTR.CAVITY>
0

>  <SCORE.RESTR.norm>
0

>  <SCORE.SYSTEM>
0

>  <SCORE.SYSTEM.CONST>
0

>  <SCORE.SYSTEM.DIHEDRAL>
0

>  <SCORE.SYSTEM.SOLV>
0

>  <SCORE.SYSTEM.norm>
0

>  <SCORE.heavy>
10

>  <SCORE.norm>
-2.673

>  <RMSD>
0.589

$$$$
1y26_lig
 OpenBabel02141814133D
libRbt.so/2013.1/901 2013/11/27
 10 11  0  0  0  0  0  0  0  0999 V2000
   19.4340  -17.0627    2.8949 N   0  0  0  0  0  0  0  0  0  0  0  0
   18.7695  -18.1864    2.6145 C   0  0  0  0  0  0  0  0  0  0  0  0
   18.4943  -19.2077    3.4233 N   0  0  0  0  0  0  0  0  0  0  0  0
   18.9657  -18.9759    4.6692 C   0  0  0  0  0  0  0  0  0  0  0  0
   19.6552  -17.8618    5.1045 C   0  0  0  0  0  0  0  0  0  0  0  0
   19.8928  -16.8693    4.1488 C   0  0  0  0  0  0  0  0  0  0  0  0
   20.5585  -15.7663    4.4508 N   0  0  0  0  0  0  0  0  0  0  0  0
   20.0017  -17.9469    6.4330 N   0  0  0  0  0  0  0  0  0  0  0  0
   19.4858  -19.1070    6.7956 C   0  0  0  0  0  0  0  0  0  0  0  0
   18.8580  -19.7820    5.7710 N   0  0  0  0  0  0  0  0  0  0  0  0
  1  2  2  0  0  0  0
  2  3  1  0  0  0  0
  3  4  2  0  0  0  0
  5  4  1  0  0  0  0
  5  6  2  0  0  0  0
  6  1  1  0  0  0  0
  6  7  1  0  0  0  0
  8  5  1  0  0  0  0
  9  8  1  0  0  0  0
 10  4  1  0  0  0  0
 10  9  2  0  0  0  0
M  END
>  <CHROM.1>
19.41157791,-18.07598396,4.62895643,1.42698680,-1.03782691,-1.06491499

>  <Name>
1y26_lig

>  <RI>
0

>  <Rbt.Current_Directory>
/home/afrankz/demos/rdock_decoys_rna/rnas/1y26

>  <Rbt.Executable>
rbdock ($Id: //depot/dev/client3/rdock/2013.1/src/exe/rbdock.cxx#4 $)

>  <Rbt.Library>
libRbt.so (2013.1, Build901 2013/11/27)

>  <Rbt.Parameter_File>
/export/apps/rDock/src/rDock_2013.1_src/data/scripts/dock_solv.prm

>  <Rbt.Receptor>
prm/pocket_docking_4.prm

>  <SCORE>
-26.6617

>  <SCORE.INTER>
-26.6617

>  <SCORE.INTER.CONST>
1

>  <SCORE.INTER.POLAR>
-2.0198

>  <SCORE.INTER.ROT>
0

>  <SCORE.INTER.SOLV>
12.8076

>  <SCORE.INTER.VDW>
-18.911

>  <SCORE.INTER.norm>
-2.66617

>  <SCORE.INTRA>
0

>  <SCORE.INTRA.DIHEDRAL>
0

>  <SCORE.INTRA.DIHEDRAL.0>
0

>  <SCORE.INTRA.POLAR>
0

>  <SCORE.INTRA.POLAR.0>
0

>  <SCORE.INTRA.REPUL>
0

>  <SCORE.INTRA.REPUL.0>
0

>  <SCORE.INTRA.SOLV>
0

>  <SCORE.INTRA.SOLV.lig_0>
-16.9472

>  <SCORE.INTRA.VDW>
0

>  <SCORE.INTRA.VDW.0>
0

>  <SCORE.INTRA.norm>
0

>  <SCORE.RESTR>
0

>  <SCORE.RESTR.CAVITY>
0

>  <SCORE.RESTR.norm>
0

>  <SCORE.SYSTEM>
0

>  <SCORE.SYSTEM.CONST>
0

>  <SCORE.SYSTEM.DIHEDRAL>
0

>  <SCORE.SYSTEM.SOLV>
0

>  <SCORE.SYSTEM.norm>
0

>  <SCORE.heavy>
10

>  <SCORE.norm>
-2.66617

>  <RMSD>
0.589

$$$$
1y26_lig
 OpenBabel02141814133D
libRbt.so/2013.1/901 2013/11/27
 10 11  0  0  0  0  0  0  0  0999 V2000
   19.4237  -17.0608    2.9002 N   0  0  0  0  0  0  0  0  0  0  0  0
   18.7621  -18.1837    2.6092 C   0  0  0  0  0  0  0  0  0  0  0  0
   18.4869  -19.2119    3.4092 N   0  0  0  0  0  0  0  0  0  0  0  0
   18.9548  -18.9889    4.6581 C   0  0  0  0  0  0  0  0  0  0  0  0
   19.6410  -17.8769    5.1039 C   0  0  0  0  0  0  0  0  0  0  0  0
   19.8789  -16.8765    4.1568 C   0  0  0  0  0  0  0  0  0  0  0  0
   20.5416  -15.7745    4.4690 N   0  0  0  0  0  0  0  0  0  0  0  0
   19.9843  -17.9718    6.4326 N   0  0  0  0  0  0  0  0  0  0  0  0
   19.4698  -19.1357    6.7847 C   0  0  0  0  0  0  0  0  0  0  0  0
   18.8459  -19.8039    5.7533 N   0  0  0  0  0  0  0  0  0  0  0  0
  1  2  2  0  0  0  0
  2  3  1  0  0  0  0
  3  4  2  0  0  0  0
  5  4  1  0  0  0  0
  5  6  2  0  0  0  0
  6  1  1  0  0  0  0
  6  7  1  0  0  0  0
  8  5  1  0  0  0  0
  9  8  1  0  0  0  0
 10  4  1  0  0  0  0
 10  9  2  0  0  0  0
M  END
>  <CHROM.1>
19.39894205,-18.08781026,4.62613709,1.42456192,-1.04080554,-1.05912959

>  <Name>
1y26_lig

>  <RI>
0

>  <Rbt.Current_Directory>
/home/afrankz/demos/rdock_decoys_rna/rnas/1y26

>  <Rbt.Executable>
rbdock ($Id: //depot/dev/client3/rdock/2013.1/src/exe/rbdock.cxx#4 $)

>  <Rbt.Library>
libRbt.so (2013.1, Build901 2013/11/27)

>  <Rbt.Parameter_File>
/export/apps/rDock/src/rDock_2013.1_src/data/scripts/dock_solv.prm

>  <Rbt.Receptor>
prm/blind_docking_60.prm

>  <SCORE>
-26.7527

>  <SCORE.INTER>
-26.7527

>  <SCORE.INTER.CONST>
1

>  <SCORE.INTER.POLAR>
-2.0198

>  <SCORE.INTER.ROT>
0

>  <SCORE.INTER.SOLV>
12.8498

>  <SCORE.INTER.VDW>
-18.9857

>  <SCORE.INTER.norm>
-2.67527

>  <SCORE.INTRA>
0

>  <SCORE.INTRA.DIHEDRAL>
0

>  <SCORE.INTRA.DIHEDRAL.0>
0

>  <SCORE.INTRA.POLAR>
0

>  <SCORE.INTRA.POLAR.0>
0

>  <SCORE.INTRA.REPUL>
0

>  <SCORE.INTRA.REPUL.0>
0

>  <SCORE.INTRA.SOLV>
0

>  <SCORE.INTRA.SOLV.lig_0>
-16.9472

>  <SCORE.INTRA.VDW>
0

>  <SCORE.INTRA.VDW.0>
0

>  <SCORE.INTRA.norm>
0

>  <SCORE.RESTR>
0

>  <SCORE.RESTR.CAVITY>
0

>  <SCORE.RESTR.norm>
0

>  <SCORE.SYSTEM>
0

>  <SCORE.SYSTEM.CONST>
0

>  <SCORE.SYSTEM.DIHEDRAL>
0

>  <SCORE.SYSTEM.SOLV>
0

>  <SCORE.SYSTEM.norm>
0

>  <SCORE.heavy>
10

>  <SCORE.norm>
-2.67527

>  <RMSD>
0.591

$$$$
1y26_lig
 OpenBabel02141814133D
libRbt.so/2013.1/901 2013/11/27
 10 11  0  0  0  0  0  0  0  0999 V2000
   19.4346  -17.0666    2.9028 N   0  0  0  0  0  0  0  0  0  0  0  0
   18.7583  -18.1816    2.6153 C   0  0  0  0  0  0  0  0  0  0  0  0
   18.4723  -19.2050    3.4176 N   0  0  0  0  0  0  0  0  0  0  0  0
   18.9460  -18.9860    4.6649 C   0  0  0  0  0  0  0  0  0  0  0  0
   19.6472  -17.8819    5.1073 C   0  0  0  0  0  0  0  0  0  0  0  0
   19.8952  -16.8861    4.1579 C   0  0  0  0  0  0  0  0  0  0  0  0
   20.5724  -15.7919    4.4668 N   0  0  0  0  0  0  0  0  0  0  0  0
   19.9927  -17.9791    6.4352 N   0  0  0  0  0  0  0  0  0  0  0  0
   19.4646  -19.1360    6.7905 C   0  0  0  0  0  0  0  0  0  0  0  0
   18.8298  -19.7979    5.7617 N   0  0  0  0  0  0  0  0  0  0  0  0
  1  2  2  0  0  0  0
  2  3  1  0  0  0  0
  3  4  2  0  0  0  0
  5  4  1  0  0  0  0
  5  6  2  0  0  0  0
  6  1  1  0  0  0  0
  6  7  1  0  0  0  0
  8  5  1  0  0  0  0
  9  8  1  0  0  0  0
 10  4  1  0  0  0  0
 10  9  2  0  0  0  0
M  END
>  <CHROM.1>
19.40134028,-18.09057934,4.63042292,1.41699002,-1.02865339,-1.06718763

>  <Name>
1y26_lig

>  <RI>
224

>  <Rbt.Current_Directory>
/home/afrankz/demos/rdock_decoys_rna/rnas/1y26

>  <Rbt.Executable>
rbdock ($Id: //depot/dev/client3/rdock/2013.1/src/exe/rbdock.cxx#4 $)

>  <Rbt.Library>
libRbt.so (2013.1, Build901 2013/11/27)

>  <Rbt.Parameter_File>
/export/apps/rDock/src/rDock_2013.1_src/data/scripts/dock_solv.prm

>  <Rbt.Receptor>
prm/blind_docking_80.prm

>  <SCORE>
-26.6957

>  <SCORE.INTER>
-26.6957

>  <SCORE.INTER.CONST>
1

>  <SCORE.INTER.POLAR>
-2.0198

>  <SCORE.INTER.ROT>
0

>  <SCORE.INTER.SOLV>
12.791

>  <SCORE.INTER.VDW>
-18.9281

>  <SCORE.INTER.norm>
-2.66957

>  <SCORE.INTRA>
0

>  <SCORE.INTRA.DIHEDRAL>
0

>  <SCORE.INTRA.DIHEDRAL.0>
0

>  <SCORE.INTRA.POLAR>
0

>  <SCORE.INTRA.POLAR.0>
0

>  <SCORE.INTRA.REPUL>
0

>  <SCORE.INTRA.REPUL.0>
0

>  <SCORE.INTRA.SOLV>
0

>  <SCORE.INTRA.SOLV.lig_0>
-16.9472

>  <SCORE.INTRA.VDW>
0

>  <SCORE.INTRA.VDW.0>
0

>  <SCORE.INTRA.norm>
0

>  <SCORE.RESTR>
0

>  <SCORE.RESTR.CAVITY>
0

>  <SCORE.RESTR.norm>
0

>  <SCORE.SYSTEM>
0

>  <SCORE.SYSTEM.CONST>
0

>  <SCORE.SYSTEM.DIHEDRAL>
0

>  <SCORE.SYSTEM.SOLV>
0

>  <SCORE.SYSTEM.norm>
0

>  <SCORE.heavy>
10

>  <SCORE.norm>
-2.66957

>  <RMSD>
0.591

$$$$
1y26_lig
 OpenBabel02141814133D
libRbt.so/2013.1/901 2013/11/27
 10 11  0  0  0  0  0  0  0  0999 V2000
   19.4444  -17.0642    2.9015 N   0  0  0  0  0  0  0  0  0  0  0  0
   18.7731  -18.1809    2.6091 C   0  0  0  0  0  0  0  0  0  0  0  0
   18.4861  -19.2062    3.4087 N   0  0  0  0  0  0  0  0  0  0  0  0
   18.9527  -18.9873    4.6588 C   0  0  0  0  0  0  0  0  0  0  0  0
   19.6482  -17.8816    5.1061 C   0  0  0  0  0  0  0  0  0  0  0  0
   19.8980  -16.8838    4.1592 C   0  0  0  0  0  0  0  0  0  0  0  0
   20.5702  -15.7879    4.4730 N   0  0  0  0  0  0  0  0  0  0  0  0
   19.9871  -17.9793    6.4357 N   0  0  0  0  0  0  0  0  0  0  0  0
   19.4608  -19.1383    6.7868 C   0  0  0  0  0  0  0  0  0  0  0  0
   18.8334  -19.8009    5.7539 N   0  0  0  0  0  0  0  0  0  0  0  0
  1  2  2  0  0  0  0
  2  3  1  0  0  0  0
  3  4  2  0  0  0  0
  5  4  1  0  0  0  0
  5  6  2  0  0  0  0
  6  1  1  0  0  0  0
  6  7  1  0  0  0  0
  8  5  1  0  0  0  0
  9  8  1  0  0  0  0
 10  4  1  0  0  0  0
 10  9  2  0  0  0  0
M  END
>  <CHROM.1>
19.40545678,-18.09040362,4.62769856,1.41108172,-1.03386150,-1.07102760

>  <Name>
1y26_lig

>  <RI>
0

>  <Rbt.Current_Directory>
/home/afrankz/demos/rdock_decoys_rna/rnas/1y26

>  <Rbt.Executable>
rbdock ($Id: //depot/dev/client3/rdock/2013.1/src/exe/rbdock.cxx#4 $)

>  <Rbt.Library>
libRbt.so (2013.1, Build901 2013/11/27)

>  <Rbt.Parameter_File>
/export/apps/rDock/src/rDock_2013.1_src/data/scripts/dock_solv.prm

>  <Rbt.Receptor>
prm/pocket_docking_4.prm

>  <SCORE>
-26.736

>  <SCORE.INTER>
-26.736

>  <SCORE.INTER.CONST>
1

>  <SCORE.INTER.POLAR>
-2.0198

>  <SCORE.INTER.ROT>
0

>  <SCORE.INTER.SOLV>
12.7911

>  <SCORE.INTER.VDW>
-18.955

>  <SCORE.INTER.norm>
-2.6736

>  <SCORE.INTRA>
0

>  <SCORE.INTRA.DIHEDRAL>
0

>  <SCORE.INTRA.DIHEDRAL.0>
0

>  <SCORE.INTRA.POLAR>
0

>  <SCORE.INTRA.POLAR.0>
0

>  <SCORE.INTRA.REPUL>
0

>  <SCORE.INTRA.REPUL.0>
0

>  <SCORE.INTRA.SOLV>
0

>  <SCORE.INTRA.SOLV.lig_0>
-16.9472

>  <SCORE.INTRA.VDW>
0

>  <SCORE.INTRA.VDW.0>
0

>  <SCORE.INTRA.norm>
0

>  <SCORE.RESTR>
0

>  <SCORE.RESTR.CAVITY>
0

>  <SCORE.RESTR.norm>
0

>  <SCORE.SYSTEM>
0

>  <SCORE.SYSTEM.CONST>
0

>  <SCORE.SYSTEM.DIHEDRAL>
0

>  <SCORE.SYSTEM.SOLV>
0

>  <SCORE.SYSTEM.norm>
0

>  <SCORE.heavy>
10

>  <SCORE.norm>
-2.6736

>  <RMSD>
0.591

$$$$
1y26_lig
 OpenBabel02141814133D
libRbt.so/2013.1/901 2013/11/27
 10 11  0  0  0  0  0  0  0  0999 V2000
   19.4125  -17.0665    2.8995 N   0  0  0  0  0  0  0  0  0  0  0  0
   18.7472  -18.1884    2.6134 C   0  0  0  0  0  0  0  0  0  0  0  0
   18.4757  -19.2158    3.4157 N   0  0  0  0  0  0  0  0  0  0  0  0
   18.9520  -18.9930    4.6614 C   0  0  0  0  0  0  0  0  0  0  0  0
   19.6429  -17.8818    5.1022 C   0  0  0  0  0  0  0  0  0  0  0  0
   19.8762  -16.8822    4.1529 C   0  0  0  0  0  0  0  0  0  0  0  0
   20.5426  -15.7811    4.4603 N   0  0  0  0  0  0  0  0  0  0  0  0
   19.9947  -17.9766    6.4286 N   0  0  0  0  0  0  0  0  0  0  0  0
   19.4807  -19.1395    6.7847 C   0  0  0  0  0  0  0  0  0  0  0  0
   18.8491  -19.8072    5.7577 N   0  0  0  0  0  0  0  0  0  0  0  0
  1  2  2  0  0  0  0
  2  3  1  0  0  0  0
  3  4  2  0  0  0  0
  5  4  1  0  0  0  0
  5  6  2  0  0  0  0
  6  1  1  0  0  0  0
  6  7  1  0  0  0  0
  8  5  1  0  0  0  0
  9  8  1  0  0  0  0
 10  4  1  0  0  0  0
 10  9  2  0  0  0  0
M  END
>  <CHROM.1>
19.39738274,-18.09257516,4.62606953,1.43424798,-1.03622563,-1.05128402

>  <Name>
1y26_lig

>  <RI>
224

>  <Rbt.Current_Directory>
/home/afrankz/demos/rdock_decoys_rna/rnas/1y26

>  <Rbt.Executable>
rbdock ($Id: //depot/dev/client3/rdock/2013.1/src/exe/rbdock.cxx#4 $)

>  <Rbt.Library>
libRbt.so (2013.1, Build901 2013/11/27)

>  <Rbt.Parameter_File>
/export/apps/rDock/src/rDock_2013.1_src/data/scripts/dock_solv.prm

>  <Rbt.Receptor>
prm/pocket_docking_6.prm

>  <SCORE>
-26.7491

>  <SCORE.INTER>
-26.7491

>  <SCORE.INTER.CONST>
1

>  <SCORE.INTER.POLAR>
-2.0198

>  <SCORE.INTER.ROT>
0

>  <SCORE.INTER.SOLV>
12.8505

>  <SCORE.INTER.VDW>
-18.9835

>  <SCORE.INTER.norm>
-2.67491

>  <SCORE.INTRA>
0

>  <SCORE.INTRA.DIHEDRAL>
0

>  <SCORE.INTRA.DIHEDRAL.0>
0

>  <SCORE.INTRA.POLAR>
0

>  <SCORE.INTRA.POLAR.0>
0

>  <SCORE.INTRA.REPUL>
0

>  <SCORE.INTRA.REPUL.0>
0

>  <SCORE.INTRA.SOLV>
0

>  <SCORE.INTRA.SOLV.lig_0>
-16.9472

>  <SCORE.INTRA.VDW>
0

>  <SCORE.INTRA.VDW.0>
0

>  <SCORE.INTRA.norm>
0

>  <SCORE.RESTR>
0

>  <SCORE.RESTR.CAVITY>
0

>  <SCORE.RESTR.norm>
0

>  <SCORE.SYSTEM>
0

>  <SCORE.SYSTEM.CONST>
0

>  <SCORE.SYSTEM.DIHEDRAL>
0

>  <SCORE.SYSTEM.SOLV>
0

>  <SCORE.SYSTEM.norm>
0

>  <SCORE.heavy>
10

>  <SCORE.norm>
-2.67491

>  <RMSD>
0.591

$$$$
1y26_lig
 OpenBabel02141814133D
libRbt.so/2013.1/901 2013/11/27
 10 11  0  0  0  0  0  0  0  0999 V2000
   19.4318  -17.0658    2.9010 N   0  0  0  0  0  0  0  0  0  0  0  0
   18.7633  -18.1849    2.6114 C   0  0  0  0  0  0  0  0  0  0  0  0
   18.4827  -19.2109    3.4124 N   0  0  0  0  0  0  0  0  0  0  0  0
   18.9528  -18.9898    4.6608 C   0  0  0  0  0  0  0  0  0  0  0  0
   19.6459  -17.8814    5.1052 C   0  0  0  0  0  0  0  0  0  0  0  0
   19.8890  -16.8832    4.1571 C   0  0  0  0  0  0  0  0  0  0  0  0
   20.5584  -15.7849    4.4680 N   0  0  0  0  0  0  0  0  0  0  0  0
   19.9897  -17.9774    6.4337 N   0  0  0  0  0  0  0  0  0  0  0  0
   19.4686  -19.1380    6.7871 C   0  0  0  0  0  0  0  0  0  0  0  0
   18.8400  -19.8032    5.7567 N   0  0  0  0  0  0  0  0  0  0  0  0
  1  2  2  0  0  0  0
  2  3  1  0  0  0  0
  3  4  2  0  0  0  0
  5  4  1  0  0  0  0
  5  6  2  0  0  0  0
  6  1  1  0  0  0  0
  6  7  1  0  0  0  0
  8  5  1  0  0  0  0
  9  8  1  0  0  0  0
 10  4  1  0  0  0  0
 10  9  2  0  0  0  0
M  END
>  <CHROM.1>
19.40225650,-18.09130552,4.62776981,1.42023777,-1.03528348,-1.06362115

>  <Name>
1y26_lig

>  <RI>
0

>  <Rbt.Current_Directory>
/home/afrankz/demos/rdock_decoys_rna/rnas/1y26

>  <Rbt.Executable>
rbdock ($Id: //depot/dev/client3/rdock/2013.1/src/exe/rbdock.cxx#4 $)

>  <Rbt.Library>
libRbt.so (2013.1, Build901 2013/11/27)

>  <Rbt.Parameter_File>
/export/apps/rDock/src/rDock_2013.1_src/data/scripts/dock_solv.prm

>  <Rbt.Receptor>
prm/pocket_docking_8.prm

>  <SCORE>
-26.7292

>  <SCORE.INTER>
-26.7292

>  <SCORE.INTER.CONST>
1

>  <SCORE.INTER.POLAR>
-2.0198

>  <SCORE.INTER.ROT>
0

>  <SCORE.INTER.SOLV>
12.8137

>  <SCORE.INTER.VDW>
-18.9581

>  <SCORE.INTER.norm>
-2.67292

>  <SCORE.INTRA>
0

>  <SCORE.INTRA.DIHEDRAL>
0

>  <SCORE.INTRA.DIHEDRAL.0>
0

>  <SCORE.INTRA.POLAR>
0

>  <SCORE.INTRA.POLAR.0>
0

>  <SCORE.INTRA.REPUL>
0

>  <SCORE.INTRA.REPUL.0>
0

>  <SCORE.INTRA.SOLV>
0

>  <SCORE.INTRA.SOLV.lig_0>
-16.9472

>  <SCORE.INTRA.VDW>
0

>  <SCORE.INTRA.VDW.0>
0

>  <SCORE.INTRA.norm>
0

>  <SCORE.RESTR>
0

>  <SCORE.RESTR.CAVITY>
0

>  <SCORE.RESTR.norm>
0

>  <SCORE.SYSTEM>
0

>  <SCORE.SYSTEM.CONST>
0

>  <SCORE.SYSTEM.DIHEDRAL>
0

>  <SCORE.SYSTEM.SOLV>
0

>  <SCORE.SYSTEM.norm>
0

>  <SCORE.heavy>
10

>  <SCORE.norm>
-2.67292

>  <RMSD>
0.591

$$$$
1y26_lig
 OpenBabel02141814133D
libRbt.so/2013.1/901 2013/11/27
 10 11  0  0  0  0  0  0  0  0999 V2000
   19.4422  -17.0668    2.9030 N   0  0  0  0  0  0  0  0  0  0  0  0
   18.7699  -18.1827    2.6101 C   0  0  0  0  0  0  0  0  0  0  0  0
   18.4812  -19.2077    3.4095 N   0  0  0  0  0  0  0  0  0  0  0  0
   18.9470  -18.9893    4.6599 C   0  0  0  0  0  0  0  0  0  0  0  0
   19.6433  -17.8843    5.1078 C   0  0  0  0  0  0  0  0  0  0  0  0
   19.8950  -16.8868    4.1611 C   0  0  0  0  0  0  0  0  0  0  0  0
   20.5681  -15.7917    4.4754 N   0  0  0  0  0  0  0  0  0  0  0  0
   19.9810  -17.9824    6.4376 N   0  0  0  0  0  0  0  0  0  0  0  0
   19.4531  -19.1408    6.7883 C   0  0  0  0  0  0  0  0  0  0  0  0
   18.8258  -19.8027    5.7549 N   0  0  0  0  0  0  0  0  0  0  0  0
  1  2  2  0  0  0  0
  2  3  1  0  0  0  0
  3  4  2  0  0  0  0
  5  4  1  0  0  0  0
  5  6  2  0  0  0  0
  6  1  1  0  0  0  0
  6  7  1  0  0  0  0
  8  5  1  0  0  0  0
  9  8  1  0  0  0  0
 10  4  1  0  0  0  0
 10  9  2  0  0  0  0
M  END
>  <CHROM.1>
19.40069738,-18.09288780,4.62919995,1.40862324,-1.03329216,-1.07315470

>  <Name>
1y26_lig

>  <RI>
0

>  <Rbt.Current_Directory>
/home/afrankz/demos/rdock_decoys_rna/rnas/1y26

>  <Rbt.Executable>
rbdock ($Id: //depot/dev/client3/rdock/2013.1/src/exe/rbdock.cxx#4 $)

>  <Rbt.Library>
libRbt.so (2013.1, Build901 2013/11/27)

>  <Rbt.Parameter_File>
/export/apps/rDock/src/rDock_2013.1_src/data/scripts/dock_solv.prm

>  <Rbt.Receptor>
prm/blind_docking_100.prm

>  <SCORE>
-26.7336

>  <SCORE.INTER>
-26.7336

>  <SCORE.INTER.CONST>
1

>  <SCORE.INTER.POLAR>
-2.0198

>  <SCORE.INTER.ROT>
0

>  <SCORE.INTER.SOLV>
12.793

>  <SCORE.INTER.VDW>
-18.954

>  <SCORE.INTER.norm>
-2.67336

>  <SCORE.INTRA>
0

>  <SCORE.INTRA.DIHEDRAL>
0

>  <SCORE.INTRA.DIHEDRAL.0>
0

>  <SCORE.INTRA.POLAR>
0

>  <SCORE.INTRA.POLAR.0>
0

>  <SCORE.INTRA.REPUL>
0

>  <SCORE.INTRA.REPUL.0>
0

>  <SCORE.INTRA.SOLV>
0

>  <SCORE.INTRA.SOLV.lig_0>
-16.9472

>  <SCORE.INTRA.VDW>
0

>  <SCORE.INTRA.VDW.0>
0

>  <SCORE.INTRA.norm>
0

>  <SCORE.RESTR>
0

>  <SCORE.RESTR.CAVITY>
0

>  <SCORE.RESTR.norm>
0

>  <SCORE.SYSTEM>
0

>  <SCORE.SYSTEM.CONST>
0

>  <SCORE.SYSTEM.DIHEDRAL>
0

>  <SCORE.SYSTEM.SOLV>
0

>  <SCORE.SYSTEM.norm>
0

>  <SCORE.heavy>
10

>  <SCORE.norm>
-2.67336

>  <RMSD>
0.592

$$$$
1y26_lig
 OpenBabel02141814133D
libRbt.so/2013.1/901 2013/11/27
 10 11  0  0  0  0  0  0  0  0999 V2000
   19.4130  -17.0642    2.9013 N   0  0  0  0  0  0  0  0  0  0  0  0
   18.7481  -18.1864    2.6158 C   0  0  0  0  0  0  0  0  0  0  0  0
   18.4779  -19.2141    3.4182 N   0  0  0  0  0  0  0  0  0  0  0  0
   18.9555  -18.9912    4.6634 C   0  0  0  0  0  0  0  0  0  0  0  0
   19.6462  -17.8797    5.1036 C   0  0  0  0  0  0  0  0  0  0  0  0
   19.8780  -16.8799    4.1543 C   0  0  0  0  0  0  0  0  0  0  0  0
   20.5442  -15.7785    4.4612 N   0  0  0  0  0  0  0  0  0  0  0  0
   19.9996  -17.9746    6.4296 N   0  0  0  0  0  0  0  0  0  0  0  0
   19.4866  -19.1379    6.7861 C   0  0  0  0  0  0  0  0  0  0  0  0
   18.8542  -19.8057    5.7597 N   0  0  0  0  0  0  0  0  0  0  0  0
  1  2  2  0  0  0  0
  2  3  1  0  0  0  0
  3  4  2  0  0  0  0
  5  4  1  0  0  0  0
  5  6  2  0  0  0  0
  6  1  1  0  0  0  0
  6  7  1  0  0  0  0
  8  5  1  0  0  0  0
  9  8  1  0  0  0  0
 10  4  1  0  0  0  0
 10  9  2  0  0  0  0
M  END
>  <CHROM.1>
19.40035791,-18.09058339,4.62773793,1.43665053,-1.03614541,-1.04903038

>  <Name>
1y26_lig

>  <RI>
224

>  <Rbt.Current_Directory>
/home/afrankz/demos/rdock_decoys_rna/rnas/1y26

>  <Rbt.Executable>
rbdock ($Id: //depot/dev/client3/rdock/2013.1/src/exe/rbdock.cxx#4 $)

>  <Rbt.Library>
libRbt.so (2013.1, Build901 2013/11/27)

>  <Rbt.Parameter_File>
/export/apps/rDock/src/rDock_2013.1_src/data/scripts/dock_solv.prm

>  <Rbt.Receptor>
prm/pocket_docking_3.prm

>  <SCORE>
-26.7467

>  <SCORE.INTER>
-26.7467

>  <SCORE.INTER.CONST>
1

>  <SCORE.INTER.POLAR>
-2.0198

>  <SCORE.INTER.ROT>
0

>  <SCORE.INTER.SOLV>
12.8517

>  <SCORE.INTER.VDW>
-18.9823

>  <SCORE.INTER.norm>
-2.67467

>  <SCORE.INTRA>
0

>  <SCORE.INTRA.DIHEDRAL>
0

>  <SCORE.INTRA.DIHEDRAL.0>
0

>  <SCORE.INTRA.POLAR>
0

>  <SCORE.INTRA.POLAR.0>
0

>  <SCORE.INTRA.REPUL>
0

>  <SCORE.INTRA.REPUL.0>
0

>  <SCORE.INTRA.SOLV>
0

>  <SCORE.INTRA.SOLV.lig_0>
-16.9472

>  <SCORE.INTRA.VDW>
0

>  <SCORE.INTRA.VDW.0>
0

>  <SCORE.INTRA.norm>
0

>  <SCORE.RESTR>
0

>  <SCORE.RESTR.CAVITY>
0

>  <SCORE.RESTR.norm>
0

>  <SCORE.SYSTEM>
0

>  <SCORE.SYSTEM.CONST>
0

>  <SCORE.SYSTEM.DIHEDRAL>
0

>  <SCORE.SYSTEM.SOLV>
0

>  <SCORE.SYSTEM.norm>
0

>  <SCORE.heavy>
10

>  <SCORE.norm>
-2.67467

>  <RMSD>
0.592

$$$$
1y26_lig
 OpenBabel02141814133D
libRbt.so/2013.1/901 2013/11/27
 10 11  0  0  0  0  0  0  0  0999 V2000
   19.4306  -17.0567    2.9019 N   0  0  0  0  0  0  0  0  0  0  0  0
   18.7729  -18.1807    2.6067 C   0  0  0  0  0  0  0  0  0  0  0  0
   18.4954  -19.2099    3.4046 N   0  0  0  0  0  0  0  0  0  0  0  0
   18.9559  -18.9868    4.6561 C   0  0  0  0  0  0  0  0  0  0  0  0
   19.6374  -17.8736    5.1064 C   0  0  0  0  0  0  0  0  0  0  0  0
   19.8785  -16.8721    4.1611 C   0  0  0  0  0  0  0  0  0  0  0  0
   20.5372  -15.7689    4.4777 N   0  0  0  0  0  0  0  0  0  0  0  0
   19.9737  -17.9686    6.4368 N   0  0  0  0  0  0  0  0  0  0  0  0
   19.4597  -19.1339    6.7855 C   0  0  0  0  0  0  0  0  0  0  0  0
   18.8428  -19.8026    5.7502 N   0  0  0  0  0  0  0  0  0  0  0  0
  1  2  2  0  0  0  0
  2  3  1  0  0  0  0
  3  4  2  0  0  0  0
  5  4  1  0  0  0  0
  5  6  2  0  0  0  0
  6  1  1  0  0  0  0
  6  7  1  0  0  0  0
  8  5  1  0  0  0  0
  9  8  1  0  0  0  0
 10  4  1  0  0  0  0
 10  9  2  0  0  0  0
M  END
>  <CHROM.1>
19.39843837,-18.08473985,4.62712532,1.41706308,-1.04528198,-1.06499707

>  <Name>
1y26_lig

>  <RI>
224

>  <Rbt.Current_Directory>
/home/afrankz/demos/rdock_decoys_rna/rnas/1y26

>  <Rbt.Executable>
rbdock ($Id: //depot/dev/client3/rdock/2013.1/src/exe/rbdock.cxx#4 $)

>  <Rbt.Library>
libRbt.so (2013.1, Build901 2013/11/27)

>  <Rbt.Parameter_File>
/export/apps/rDock/src/rDock_2013.1_src/data/scripts/dock_solv.prm

>  <Rbt.Receptor>
prm/pocket_docking_3.prm

>  <SCORE>
-26.7104

>  <SCORE.INTER>
-26.7104

>  <SCORE.INTER.CONST>
1

>  <SCORE.INTER.POLAR>
-2.0198

>  <SCORE.INTER.ROT>
0

>  <SCORE.INTER.SOLV>
12.8565

>  <SCORE.INTER.VDW>
-18.9598

>  <SCORE.INTER.norm>
-2.67104

>  <SCORE.INTRA>
0

>  <SCORE.INTRA.DIHEDRAL>
0

>  <SCORE.INTRA.DIHEDRAL.0>
0

>  <SCORE.INTRA.POLAR>
0

>  <SCORE.INTRA.POLAR.0>
0

>  <SCORE.INTRA.REPUL>
0

>  <SCORE.INTRA.REPUL.0>
0

>  <SCORE.INTRA.SOLV>
0

>  <SCORE.INTRA.SOLV.lig_0>
-16.9472

>  <SCORE.INTRA.VDW>
0

>  <SCORE.INTRA.VDW.0>
0

>  <SCORE.INTRA.norm>
0

>  <SCORE.RESTR>
0

>  <SCORE.RESTR.CAVITY>
0

>  <SCORE.RESTR.norm>
0

>  <SCORE.SYSTEM>
0

>  <SCORE.SYSTEM.CONST>
0

>  <SCORE.SYSTEM.DIHEDRAL>
0

>  <SCORE.SYSTEM.SOLV>
0

>  <SCORE.SYSTEM.norm>
0

>  <SCORE.heavy>
10

>  <SCORE.norm>
-2.67104

>  <RMSD>
0.592

$$$$
1y26_lig
 OpenBabel02141814133D
libRbt.so/2013.1/901 2013/11/27
 10 11  0  0  0  0  0  0  0  0999 V2000
   19.4333  -17.0648    2.8985 N   0  0  0  0  0  0  0  0  0  0  0  0
   18.7664  -18.1883    2.6227 C   0  0  0  0  0  0  0  0  0  0  0  0
   18.4891  -19.2057    3.4357 N   0  0  0  0  0  0  0  0  0  0  0  0
   18.9611  -18.9697    4.6806 C   0  0  0  0  0  0  0  0  0  0  0  0
   19.6530  -17.8552    5.1113 C   0  0  0  0  0  0  0  0  0  0  0  0
   19.8925  -16.8672    4.1516 C   0  0  0  0  0  0  0  0  0  0  0  0
   20.5606  -15.7643    4.4489 N   0  0  0  0  0  0  0  0  0  0  0  0
   19.9995  -17.9356    6.4401 N   0  0  0  0  0  0  0  0  0  0  0  0
   19.4812  -19.0931    6.8075 C   0  0  0  0  0  0  0  0  0  0  0  0
   18.8519  -19.7710    5.7858 N   0  0  0  0  0  0  0  0  0  0  0  0
  1  2  2  0  0  0  0
  2  3  1  0  0  0  0
  3  4  2  0  0  0  0
  5  4  1  0  0  0  0
  5  6  2  0  0  0  0
  6  1  1  0  0  0  0
  6  7  1  0  0  0  0
  8  5  1  0  0  0  0
  9  8  1  0  0  0  0
 10  4  1  0  0  0  0
 10  9  2  0  0  0  0
M  END
>  <CHROM.1>
19.40888689,-18.07086321,4.63668635,1.42517138,-1.03596430,-1.07059912

>  <Name>
1y26_lig

>  <RI>
224

>  <Rbt.Current_Directory>
/home/afrankz/demos/rdock_decoys_rna/rnas/1y26

>  <Rbt.Executable>
rbdock ($Id: //depot/dev/client3/rdock/2013.1/src/exe/rbdock.cxx#4 $)

>  <Rbt.Library>
libRbt.so (2013.1, Build901 2013/11/27)

>  <Rbt.Parameter_File>
/export/apps/rDock/src/rDock_2013.1_src/data/scripts/dock_solv.prm

>  <Rbt.Receptor>
prm/pocket_docking_6.prm

>  <SCORE>
-26.6996

>  <SCORE.INTER>
-26.6996

>  <SCORE.INTER.CONST>
1

>  <SCORE.INTER.POLAR>
-2.0198

>  <SCORE.INTER.ROT>
0

>  <SCORE.INTER.SOLV>
12.7981

>  <SCORE.INTER.VDW>
-18.9331

>  <SCORE.INTER.norm>
-2.66996

>  <SCORE.INTRA>
0

>  <SCORE.INTRA.DIHEDRAL>
0

>  <SCORE.INTRA.DIHEDRAL.0>
0

>  <SCORE.INTRA.POLAR>
0

>  <SCORE.INTRA.POLAR.0>
0

>  <SCORE.INTRA.REPUL>
0

>  <SCORE.INTRA.REPUL.0>
0

>  <SCORE.INTRA.SOLV>
0

>  <SCORE.INTRA.SOLV.lig_0>
-16.9472

>  <SCORE.INTRA.VDW>
0

>  <SCORE.INTRA.VDW.0>
0

>  <SCORE.INTRA.norm>
0

>  <SCORE.RESTR>
0

>  <SCORE.RESTR.CAVITY>
0

>  <SCORE.RESTR.norm>
0

>  <SCORE.SYSTEM>
0

>  <SCORE.SYSTEM.CONST>
0

>  <SCORE.SYSTEM.DIHEDRAL>
0

>  <SCORE.SYSTEM.SOLV>
0

>  <SCORE.SYSTEM.norm>
0

>  <SCORE.heavy>
10

>  <SCORE.norm>
-2.66996

>  <RMSD>
0.592

$$$$
1y26_lig
 OpenBabel02141814133D
libRbt.so/2013.1/901 2013/11/27
 10 11  0  0  0  0  0  0  0  0999 V2000
   19.4344  -17.0650    2.8992 N   0  0  0  0  0  0  0  0  0  0  0  0
   18.7684  -18.1886    2.6218 C   0  0  0  0  0  0  0  0  0  0  0  0
   18.4903  -19.2065    3.4339 N   0  0  0  0  0  0  0  0  0  0  0  0
   18.9602  -18.9709    4.6797 C   0  0  0  0  0  0  0  0  0  0  0  0
   19.6509  -17.8563    5.1120 C   0  0  0  0  0  0  0  0  0  0  0  0
   19.8915  -16.8678    4.1531 C   0  0  0  0  0  0  0  0  0  0  0  0
   20.5586  -15.7647    4.4520 N   0  0  0  0  0  0  0  0  0  0  0  0
   19.9952  -17.9371    6.4413 N   0  0  0  0  0  0  0  0  0  0  0  0
   19.4768  -19.0951    6.8074 C   0  0  0  0  0  0  0  0  0  0  0  0
   18.8494  -19.7728    5.7843 N   0  0  0  0  0  0  0  0  0  0  0  0
  1  2  2  0  0  0  0
  2  3  1  0  0  0  0
  3  4  2  0  0  0  0
  5  4  1  0  0  0  0
  5  6  2  0  0  0  0
  6  1  1  0  0  0  0
  6  7  1  0  0  0  0
  8  5  1  0  0  0  0
  9  8  1  0  0  0  0
 10  4  1  0  0  0  0
 10  9  2  0  0  0  0
M  END
>  <CHROM.1>
19.40761828,-18.07185820,4.63688873,1.42274530,-1.03713287,-1.07223831

>  <Name>
1y26_lig

>  <RI>
0

>  <Rbt.Current_Directory>
/home/afrankz/demos/rdock_decoys_rna/rnas/1y26

>  <Rbt.Executable>
rbdock ($Id: //depot/dev/client3/rdock/2013.1/src/exe/rbdock.cxx#4 $)

>  <Rbt.Library>
libRbt.so (2013.1, Build901 2013/11/27)

>  <Rbt.Parameter_File>
/export/apps/rDock/src/rDock_2013.1_src/data/scripts/dock_solv.prm

>  <Rbt.Receptor>
prm/blind_docking_40.prm

>  <SCORE>
-26.7014

>  <SCORE.INTER>
-26.7014

>  <SCORE.INTER.CONST>
1

>  <SCORE.INTER.POLAR>
-2.0198

>  <SCORE.INTER.ROT>
0

>  <SCORE.INTER.SOLV>
12.8

>  <SCORE.INTER.VDW>
-18.9349

>  <SCORE.INTER.norm>
-2.67014

>  <SCORE.INTRA>
0

>  <SCORE.INTRA.DIHEDRAL>
0

>  <SCORE.INTRA.DIHEDRAL.0>
0

>  <SCORE.INTRA.POLAR>
0

>  <SCORE.INTRA.POLAR.0>
0

>  <SCORE.INTRA.REPUL>
0

>  <SCORE.INTRA.REPUL.0>
0

>  <SCORE.INTRA.SOLV>
0

>  <SCORE.INTRA.SOLV.lig_0>
-16.9472

>  <SCORE.INTRA.VDW>
0

>  <SCORE.INTRA.VDW.0>
0

>  <SCORE.INTRA.norm>
0

>  <SCORE.RESTR>
0

>  <SCORE.RESTR.CAVITY>
0

>  <SCORE.RESTR.norm>
0

>  <SCORE.SYSTEM>
0

>  <SCORE.SYSTEM.CONST>
0

>  <SCORE.SYSTEM.DIHEDRAL>
0

>  <SCORE.SYSTEM.SOLV>
0

>  <SCORE.SYSTEM.norm>
0

>  <SCORE.heavy>
10

>  <SCORE.norm>
-2.67014

>  <RMSD>
0.593

$$$$
1y26_lig
 OpenBabel02141814133D
libRbt.so/2013.1/901 2013/11/27
 10 11  0  0  0  0  0  0  0  0999 V2000
   19.4289  -17.0614    2.9024 N   0  0  0  0  0  0  0  0  0  0  0  0
   18.7699  -18.1851    2.6088 C   0  0  0  0  0  0  0  0  0  0  0  0
   18.4915  -19.2130    3.4081 N   0  0  0  0  0  0  0  0  0  0  0  0
   18.9526  -18.9888    4.6592 C   0  0  0  0  0  0  0  0  0  0  0  0
   19.6355  -17.8758    5.1078 C   0  0  0  0  0  0  0  0  0  0  0  0
   19.8774  -16.8758    4.1612 C   0  0  0  0  0  0  0  0  0  0  0  0
   20.5375  -15.7730    4.4762 N   0  0  0  0  0  0  0  0  0  0  0  0
   19.9720  -17.9695    6.4383 N   0  0  0  0  0  0  0  0  0  0  0  0
   19.4568  -19.1337    6.7886 C   0  0  0  0  0  0  0  0  0  0  0  0
   18.8389  -19.8031    5.7544 N   0  0  0  0  0  0  0  0  0  0  0  0
  1  2  2  0  0  0  0
  2  3  1  0  0  0  0
  3  4  2  0  0  0  0
  5  4  1  0  0  0  0
  5  6  2  0  0  0  0
  6  1  1  0  0  0  0
  6  7  1  0  0  0  0
  8  5  1  0  0  0  0
  9  8  1  0  0  0  0
 10  4  1  0  0  0  0
 10  9  2  0  0  0  0
M  END
>  <CHROM.1>
19.39613861,-18.08727087,4.62890795,1.41647422,-1.04413322,-1.06678199

>  <Name>
1y26_lig

>  <RI>
0

>  <Rbt.Current_Directory>
/home/afrankz/demos/rdock_decoys_rna/rnas/1y26

>  <Rbt.Executable>
rbdock ($Id: //depot/dev/client3/rdock/2013.1/src/exe/rbdock.cxx#4 $)

>  <Rbt.Library>
libRbt.so (2013.1, Build901 2013/11/27)

>  <Rbt.Parameter_File>
/export/apps/rDock/src/rDock_2013.1_src/data/scripts/dock_solv.prm

>  <Rbt.Receptor>
prm/pocket_docking_4.prm

>  <SCORE>
-26.7133

>  <SCORE.INTER>
-26.7133

>  <SCORE.INTER.CONST>
1

>  <SCORE.INTER.POLAR>
-2.0198

>  <SCORE.INTER.ROT>
0

>  <SCORE.INTER.SOLV>
12.8512

>  <SCORE.INTER.VDW>
-18.9599

>  <SCORE.INTER.norm>
-2.67133

>  <SCORE.INTRA>
0

>  <SCORE.INTRA.DIHEDRAL>
0

>  <SCORE.INTRA.DIHEDRAL.0>
0

>  <SCORE.INTRA.POLAR>
0

>  <SCORE.INTRA.POLAR.0>
0

>  <SCORE.INTRA.REPUL>
0

>  <SCORE.INTRA.REPUL.0>
0

>  <SCORE.INTRA.SOLV>
0

>  <SCORE.INTRA.SOLV.lig_0>
-16.9472

>  <SCORE.INTRA.VDW>
0

>  <SCORE.INTRA.VDW.0>
0

>  <SCORE.INTRA.norm>
0

>  <SCORE.RESTR>
0

>  <SCORE.RESTR.CAVITY>
0

>  <SCORE.RESTR.norm>
0

>  <SCORE.SYSTEM>
0

>  <SCORE.SYSTEM.CONST>
0

>  <SCORE.SYSTEM.DIHEDRAL>
0

>  <SCORE.SYSTEM.SOLV>
0

>  <SCORE.SYSTEM.norm>
0

>  <SCORE.heavy>
10

>  <SCORE.norm>
-2.67133

>  <RMSD>
0.593

$$$$
1y26_lig
 OpenBabel02141814133D
libRbt.so/2013.1/901 2013/11/27
 10 11  0  0  0  0  0  0  0  0999 V2000
   19.4353  -17.0637    2.8990 N   0  0  0  0  0  0  0  0  0  0  0  0
   18.7708  -18.1880    2.6208 C   0  0  0  0  0  0  0  0  0  0  0  0
   18.4935  -19.2067    3.4323 N   0  0  0  0  0  0  0  0  0  0  0  0
   18.9627  -18.9712    4.6784 C   0  0  0  0  0  0  0  0  0  0  0  0
   19.6520  -17.8560    5.1115 C   0  0  0  0  0  0  0  0  0  0  0  0
   19.8918  -16.8667    4.1532 C   0  0  0  0  0  0  0  0  0  0  0  0
   20.5575  -15.7630    4.4529 N   0  0  0  0  0  0  0  0  0  0  0  0
   19.9960  -17.9372    6.4409 N   0  0  0  0  0  0  0  0  0  0  0  0
   19.4788  -19.0959    6.8061 C   0  0  0  0  0  0  0  0  0  0  0  0
   18.8526  -19.7738    5.7825 N   0  0  0  0  0  0  0  0  0  0  0  0
  1  2  2  0  0  0  0
  2  3  1  0  0  0  0
  3  4  2  0  0  0  0
  5  4  1  0  0  0  0
  5  6  2  0  0  0  0
  6  1  1  0  0  0  0
  6  7  1  0  0  0  0
  8  5  1  0  0  0  0
  9  8  1  0  0  0  0
 10  4  1  0  0  0  0
 10  9  2  0  0  0  0
M  END
>  <CHROM.1>
19.40913613,-18.07158310,4.63618249,1.42328950,-1.03831169,-1.07122947

>  <Name>
1y26_lig

>  <RI>
224

>  <Rbt.Current_Directory>
/home/afrankz/demos/rdock_decoys_rna/rnas/1y26

>  <Rbt.Executable>
rbdock ($Id: //depot/dev/client3/rdock/2013.1/src/exe/rbdock.cxx#4 $)

>  <Rbt.Library>
libRbt.so (2013.1, Build901 2013/11/27)

>  <Rbt.Parameter_File>
/export/apps/rDock/src/rDock_2013.1_src/data/scripts/dock_solv.prm

>  <Rbt.Receptor>
prm/pocket_docking_7.prm

>  <SCORE>
-26.6996

>  <SCORE.INTER>
-26.6996

>  <SCORE.INTER.CONST>
1

>  <SCORE.INTER.POLAR>
-2.0198

>  <SCORE.INTER.ROT>
0

>  <SCORE.INTER.SOLV>
12.8039

>  <SCORE.INTER.VDW>
-18.935

>  <SCORE.INTER.norm>
-2.66996

>  <SCORE.INTRA>
0

>  <SCORE.INTRA.DIHEDRAL>
0

>  <SCORE.INTRA.DIHEDRAL.0>
0

>  <SCORE.INTRA.POLAR>
0

>  <SCORE.INTRA.POLAR.0>
0

>  <SCORE.INTRA.REPUL>
0

>  <SCORE.INTRA.REPUL.0>
0

>  <SCORE.INTRA.SOLV>
0

>  <SCORE.INTRA.SOLV.lig_0>
-16.9472

>  <SCORE.INTRA.VDW>
0

>  <SCORE.INTRA.VDW.0>
0

>  <SCORE.INTRA.norm>
0

>  <SCORE.RESTR>
0

>  <SCORE.RESTR.CAVITY>
0

>  <SCORE.RESTR.norm>
0

>  <SCORE.SYSTEM>
0

>  <SCORE.SYSTEM.CONST>
0

>  <SCORE.SYSTEM.DIHEDRAL>
0

>  <SCORE.SYSTEM.SOLV>
0

>  <SCORE.SYSTEM.norm>
0

>  <SCORE.heavy>
10

>  <SCORE.norm>
-2.66996

>  <RMSD>
0.593

$$$$
1y26_lig
 OpenBabel02141814133D
libRbt.so/2013.1/901 2013/11/27
 10 11  0  0  0  0  0  0  0  0999 V2000
   19.4328  -17.0683    2.9045 N   0  0  0  0  0  0  0  0  0  0  0  0
   18.7548  -18.1828    2.6194 C   0  0  0  0  0  0  0  0  0  0  0  0
   18.4682  -19.2046    3.4237 N   0  0  0  0  0  0  0  0  0  0  0  0
   18.9433  -18.9841    4.6702 C   0  0  0  0  0  0  0  0  0  0  0  0
   19.6462  -17.8802    5.1101 C   0  0  0  0  0  0  0  0  0  0  0  0
   19.8947  -16.8862    4.1589 C   0  0  0  0  0  0  0  0  0  0  0  0
   20.5736  -15.7924    4.4654 N   0  0  0  0  0  0  0  0  0  0  0  0
   19.9927  -17.9755    6.4380 N   0  0  0  0  0  0  0  0  0  0  0  0
   19.4635  -19.1312    6.7956 C   0  0  0  0  0  0  0  0  0  0  0  0
   18.8270  -19.7940    5.7684 N   0  0  0  0  0  0  0  0  0  0  0  0
  1  2  2  0  0  0  0
  2  3  1  0  0  0  0
  3  4  2  0  0  0  0
  5  4  1  0  0  0  0
  5  6  2  0  0  0  0
  6  1  1  0  0  0  0
  6  7  1  0  0  0  0
  8  5  1  0  0  0  0
  9  8  1  0  0  0  0
 10  4  1  0  0  0  0
 10  9  2  0  0  0  0
M  END
>  <CHROM.1>
19.39972217,-18.08928215,4.63384107,1.41722799,-1.02715199,-1.06866467

>  <Name>
1y26_lig

>  <RI>
0

>  <Rbt.Current_Directory>
/home/afrankz/demos/rdock_decoys_rna/rnas/1y26

>  <Rbt.Executable>
rbdock ($Id: //depot/dev/client3/rdock/2013.1/src/exe/rbdock.cxx#4 $)

>  <Rbt.Library>
libRbt.so (2013.1, Build901 2013/11/27)

>  <Rbt.Parameter_File>
/export/apps/rDock/src/rDock_2013.1_src/data/scripts/dock_solv.prm

>  <Rbt.Receptor>
prm/pocket_docking_8.prm

>  <SCORE>
-26.6966

>  <SCORE.INTER>
-26.6966

>  <SCORE.INTER.CONST>
1

>  <SCORE.INTER.POLAR>
-2.0198

>  <SCORE.INTER.ROT>
0

>  <SCORE.INTER.SOLV>
12.7873

>  <SCORE.INTER.VDW>
-18.9275

>  <SCORE.INTER.norm>
-2.66966

>  <SCORE.INTRA>
0

>  <SCORE.INTRA.DIHEDRAL>
0

>  <SCORE.INTRA.DIHEDRAL.0>
0

>  <SCORE.INTRA.POLAR>
0

>  <SCORE.INTRA.POLAR.0>
0

>  <SCORE.INTRA.REPUL>
0

>  <SCORE.INTRA.REPUL.0>
0

>  <SCORE.INTRA.SOLV>
0

>  <SCORE.INTRA.SOLV.lig_0>
-16.9472

>  <SCORE.INTRA.VDW>
0

>  <SCORE.INTRA.VDW.0>
0

>  <SCORE.INTRA.norm>
0

>  <SCORE.RESTR>
0

>  <SCORE.RESTR.CAVITY>
0

>  <SCORE.RESTR.norm>
0

>  <SCORE.SYSTEM>
0

>  <SCORE.SYSTEM.CONST>
0

>  <SCORE.SYSTEM.DIHEDRAL>
0

>  <SCORE.SYSTEM.SOLV>
0

>  <SCORE.SYSTEM.norm>
0

>  <SCORE.heavy>
10

>  <SCORE.norm>
-2.66966

>  <RMSD>
0.593

$$$$
1y26_lig
 OpenBabel02141814133D
libRbt.so/2013.1/901 2013/11/27
 10 11  0  0  0  0  0  0  0  0999 V2000
   19.4360  -17.0644    2.9007 N   0  0  0  0  0  0  0  0  0  0  0  0
   18.7714  -18.1885    2.6217 C   0  0  0  0  0  0  0  0  0  0  0  0
   18.4923  -19.2068    3.4329 N   0  0  0  0  0  0  0  0  0  0  0  0
   18.9593  -18.9711    4.6798 C   0  0  0  0  0  0  0  0  0  0  0  0
   19.6482  -17.8561    5.1138 C   0  0  0  0  0  0  0  0  0  0  0  0
   19.8902  -16.8672    4.1557 C   0  0  0  0  0  0  0  0  0  0  0  0
   20.5558  -15.7637    4.4564 N   0  0  0  0  0  0  0  0  0  0  0  0
   19.9897  -17.9371    6.4439 N   0  0  0  0  0  0  0  0  0  0  0  0
   19.4714  -19.0954    6.8085 C   0  0  0  0  0  0  0  0  0  0  0  0
   18.8468  -19.7734    5.7839 N   0  0  0  0  0  0  0  0  0  0  0  0
  1  2  2  0  0  0  0
  2  3  1  0  0  0  0
  3  4  2  0  0  0  0
  5  4  1  0  0  0  0
  5  6  2  0  0  0  0
  6  1  1  0  0  0  0
  6  7  1  0  0  0  0
  8  5  1  0  0  0  0
  9  8  1  0  0  0  0
 10  4  1  0  0  0  0
 10  9  2  0  0  0  0
M  END
>  <CHROM.1>
19.40615619,-18.07173426,4.63814899,1.41970734,-1.03881392,-1.07459847

>  <Name>
1y26_lig

>  <RI>
0

>  <Rbt.Current_Directory>
/home/afrankz/demos/rdock_decoys_rna/rnas/1y26

>  <Rbt.Executable>
rbdock ($Id: //depot/dev/client3/rdock/2013.1/src/exe/rbdock.cxx#4 $)

>  <Rbt.Library>
libRbt.so (2013.1, Build901 2013/11/27)

>  <Rbt.Parameter_File>
/export/apps/rDock/src/rDock_2013.1_src/data/scripts/dock_solv.prm

>  <Rbt.Receptor>
prm/blind_docking_100.prm

>  <SCORE>
-26.7011

>  <SCORE.INTER>
-26.7011

>  <SCORE.INTER.CONST>
1

>  <SCORE.INTER.POLAR>
-2.0198

>  <SCORE.INTER.ROT>
0

>  <SCORE.INTER.SOLV>
12.8036

>  <SCORE.INTER.VDW>
-18.9359

>  <SCORE.INTER.norm>
-2.67011

>  <SCORE.INTRA>
0

>  <SCORE.INTRA.DIHEDRAL>
0

>  <SCORE.INTRA.DIHEDRAL.0>
0

>  <SCORE.INTRA.POLAR>
0

>  <SCORE.INTRA.POLAR.0>
0

>  <SCORE.INTRA.REPUL>
0

>  <SCORE.INTRA.REPUL.0>
0

>  <SCORE.INTRA.SOLV>
0

>  <SCORE.INTRA.SOLV.lig_0>
-16.9472

>  <SCORE.INTRA.VDW>
0

>  <SCORE.INTRA.VDW.0>
0

>  <SCORE.INTRA.norm>
0

>  <SCORE.RESTR>
0

>  <SCORE.RESTR.CAVITY>
0

>  <SCORE.RESTR.norm>
0

>  <SCORE.SYSTEM>
0

>  <SCORE.SYSTEM.CONST>
0

>  <SCORE.SYSTEM.DIHEDRAL>
0

>  <SCORE.SYSTEM.SOLV>
0

>  <SCORE.SYSTEM.norm>
0

>  <SCORE.heavy>
10

>  <SCORE.norm>
-2.67011

>  <RMSD>
0.594

$$$$
1y26_lig
 OpenBabel02141814133D
libRbt.so/2013.1/901 2013/11/27
 10 11  0  0  0  0  0  0  0  0999 V2000
   19.4242  -17.0683    2.9024 N   0  0  0  0  0  0  0  0  0  0  0  0
   18.7601  -18.1911    2.6171 C   0  0  0  0  0  0  0  0  0  0  0  0
   18.4812  -19.2140    3.4227 N   0  0  0  0  0  0  0  0  0  0  0  0
   18.9480  -18.9850    4.6709 C   0  0  0  0  0  0  0  0  0  0  0  0
   19.6365  -17.8721    5.1111 C   0  0  0  0  0  0  0  0  0  0  0  0
   19.8782  -16.8778    4.1585 C   0  0  0  0  0  0  0  0  0  0  0  0
   20.5433  -15.7757    4.4653 N   0  0  0  0  0  0  0  0  0  0  0  0
   19.9778  -17.9603    6.4408 N   0  0  0  0  0  0  0  0  0  0  0  0
   19.4599  -19.1209    6.7990 C   0  0  0  0  0  0  0  0  0  0  0  0
   18.8357  -19.7934    5.7706 N   0  0  0  0  0  0  0  0  0  0  0  0
  1  2  2  0  0  0  0
  2  3  1  0  0  0  0
  3  4  2  0  0  0  0
  5  4  1  0  0  0  0
  5  6  2  0  0  0  0
  6  1  1  0  0  0  0
  6  7  1  0  0  0  0
  8  5  1  0  0  0  0
  9  8  1  0  0  0  0
 10  4  1  0  0  0  0
 10  9  2  0  0  0  0
M  END
>  <CHROM.1>
19.39451522,-18.08522884,4.63426368,1.41987809,-1.03922537,-1.06893224

>  <Name>
1y26_lig

>  <RI>
0

>  <Rbt.Current_Directory>
/home/afrankz/demos/rdock_decoys_rna/rnas/1y26

>  <Rbt.Executable>
rbdock ($Id: //depot/dev/client3/rdock/2013.1/src/exe/rbdock.cxx#4 $)

>  <Rbt.Library>
libRbt.so (2013.1, Build901 2013/11/27)

>  <Rbt.Parameter_File>
/export/apps/rDock/src/rDock_2013.1_src/data/scripts/dock_solv.prm

>  <Rbt.Receptor>
prm/pocket_docking_4.prm

>  <SCORE>
-26.6847

>  <SCORE.INTER>
-26.6847

>  <SCORE.INTER.CONST>
1

>  <SCORE.INTER.POLAR>
-2.0198

>  <SCORE.INTER.ROT>
0

>  <SCORE.INTER.SOLV>
12.8329

>  <SCORE.INTER.VDW>
-18.9348

>  <SCORE.INTER.norm>
-2.66847

>  <SCORE.INTRA>
0

>  <SCORE.INTRA.DIHEDRAL>
0

>  <SCORE.INTRA.DIHEDRAL.0>
0

>  <SCORE.INTRA.POLAR>
0

>  <SCORE.INTRA.POLAR.0>
0

>  <SCORE.INTRA.REPUL>
0

>  <SCORE.INTRA.REPUL.0>
0

>  <SCORE.INTRA.SOLV>
0

>  <SCORE.INTRA.SOLV.lig_0>
-16.9472

>  <SCORE.INTRA.VDW>
0

>  <SCORE.INTRA.VDW.0>
0

>  <SCORE.INTRA.norm>
0

>  <SCORE.RESTR>
0

>  <SCORE.RESTR.CAVITY>
0

>  <SCORE.RESTR.norm>
0

>  <SCORE.SYSTEM>
0

>  <SCORE.SYSTEM.CONST>
0

>  <SCORE.SYSTEM.DIHEDRAL>
0

>  <SCORE.SYSTEM.SOLV>
0

>  <SCORE.SYSTEM.norm>
0

>  <SCORE.heavy>
10

>  <SCORE.norm>
-2.66847

>  <RMSD>
0.594

$$$$
1y26_lig
 OpenBabel02141814133D
libRbt.so/2013.1/901 2013/11/27
 10 11  0  0  0  0  0  0  0  0999 V2000
   19.4377  -17.0660    2.9017 N   0  0  0  0  0  0  0  0  0  0  0  0
   18.7736  -18.1904    2.6229 C   0  0  0  0  0  0  0  0  0  0  0  0
   18.4936  -19.2080    3.4347 N   0  0  0  0  0  0  0  0  0  0  0  0
   18.9591  -18.9712    4.6818 C   0  0  0  0  0  0  0  0  0  0  0  0
   19.6474  -17.8558    5.1157 C   0  0  0  0  0  0  0  0  0  0  0  0
   19.8905  -16.8676    4.1571 C   0  0  0  0  0  0  0  0  0  0  0  0
   20.5556  -15.7638    4.4575 N   0  0  0  0  0  0  0  0  0  0  0  0
   19.9874  -17.9355    6.4463 N   0  0  0  0  0  0  0  0  0  0  0  0
   19.4687  -19.0936    6.8113 C   0  0  0  0  0  0  0  0  0  0  0  0
   18.8453  -19.7725    5.7866 N   0  0  0  0  0  0  0  0  0  0  0  0
  1  2  2  0  0  0  0
  2  3  1  0  0  0  0
  3  4  2  0  0  0  0
  5  4  1  0  0  0  0
  5  6  2  0  0  0  0
  6  1  1  0  0  0  0
  6  7  1  0  0  0  0
  8  5  1  0  0  0  0
  9  8  1  0  0  0  0
 10  4  1  0  0  0  0
 10  9  2  0  0  0  0
M  END
>  <CHROM.1>
19.40592381,-18.07180863,4.63998077,1.41774134,-1.03944586,-1.07716729

>  <Name>
1y26_lig

>  <RI>
0

>  <Rbt.Current_Directory>
/home/afrankz/demos/rdock_decoys_rna/rnas/1y26

>  <Rbt.Executable>
rbdock ($Id: //depot/dev/client3/rdock/2013.1/src/exe/rbdock.cxx#4 $)

>  <Rbt.Library>
libRbt.so (2013.1, Build901 2013/11/27)

>  <Rbt.Parameter_File>
/export/apps/rDock/src/rDock_2013.1_src/data/scripts/dock_solv.prm

>  <Rbt.Receptor>
prm/pocket_docking_8.prm

>  <SCORE>
-26.7018

>  <SCORE.INTER>
-26.7018

>  <SCORE.INTER.CONST>
1

>  <SCORE.INTER.POLAR>
-2.0198

>  <SCORE.INTER.ROT>
0

>  <SCORE.INTER.SOLV>
12.8003

>  <SCORE.INTER.VDW>
-18.9353

>  <SCORE.INTER.norm>
-2.67018

>  <SCORE.INTRA>
0

>  <SCORE.INTRA.DIHEDRAL>
0

>  <SCORE.INTRA.DIHEDRAL.0>
0

>  <SCORE.INTRA.POLAR>
0

>  <SCORE.INTRA.POLAR.0>
0

>  <SCORE.INTRA.REPUL>
0

>  <SCORE.INTRA.REPUL.0>
0

>  <SCORE.INTRA.SOLV>
0

>  <SCORE.INTRA.SOLV.lig_0>
-16.9472

>  <SCORE.INTRA.VDW>
0

>  <SCORE.INTRA.VDW.0>
0

>  <SCORE.INTRA.norm>
0

>  <SCORE.RESTR>
0

>  <SCORE.RESTR.CAVITY>
0

>  <SCORE.RESTR.norm>
0

>  <SCORE.SYSTEM>
0

>  <SCORE.SYSTEM.CONST>
0

>  <SCORE.SYSTEM.DIHEDRAL>
0

>  <SCORE.SYSTEM.SOLV>
0

>  <SCORE.SYSTEM.norm>
0

>  <SCORE.heavy>
10

>  <SCORE.norm>
-2.67018

>  <RMSD>
0.595

$$$$
1y26_lig
 OpenBabel02141814133D
libRbt.so/2013.1/901 2013/11/27
 10 11  0  0  0  0  0  0  0  0999 V2000
   19.4356  -17.0634    2.9032 N   0  0  0  0  0  0  0  0  0  0  0  0
   18.7726  -18.1879    2.6218 C   0  0  0  0  0  0  0  0  0  0  0  0
   18.4928  -19.2072    3.4314 N   0  0  0  0  0  0  0  0  0  0  0  0
   18.9572  -18.9724    4.6794 C   0  0  0  0  0  0  0  0  0  0  0  0
   19.6443  -17.8572    5.1159 C   0  0  0  0  0  0  0  0  0  0  0  0
   19.8872  -16.8671    4.1593 C   0  0  0  0  0  0  0  0  0  0  0  0
   20.5512  -15.7632    4.4623 N   0  0  0  0  0  0  0  0  0  0  0  0
   19.9832  -17.9391    6.4466 N   0  0  0  0  0  0  0  0  0  0  0  0
   19.4653  -19.0984    6.8090 C   0  0  0  0  0  0  0  0  0  0  0  0
   18.8433  -19.7758    5.7826 N   0  0  0  0  0  0  0  0  0  0  0  0
  1  2  2  0  0  0  0
  2  3  1  0  0  0  0
  3  4  2  0  0  0  0
  5  4  1  0  0  0  0
  5  6  2  0  0  0  0
  6  1  1  0  0  0  0
  6  7  1  0  0  0  0
  8  5  1  0  0  0  0
  9  8  1  0  0  0  0
 10  4  1  0  0  0  0
 10  9  2  0  0  0  0
M  END
>  <CHROM.1>
19.40330517,-18.07254923,4.63957412,1.41719699,-1.04055762,-1.07576482

>  <Name>
1y26_lig

>  <RI>
0

>  <Rbt.Current_Directory>
/home/afrankz/demos/rdock_decoys_rna/rnas/1y26

>  <Rbt.Executable>
rbdock ($Id: //depot/dev/client3/rdock/2013.1/src/exe/rbdock.cxx#4 $)

>  <Rbt.Library>
libRbt.so (2013.1, Build901 2013/11/27)

>  <Rbt.Parameter_File>
/export/apps/rDock/src/rDock_2013.1_src/data/scripts/dock_solv.prm

>  <Rbt.Receptor>
prm/pocket_docking_5.prm

>  <SCORE>
-26.6983

>  <SCORE.INTER>
-26.6983

>  <SCORE.INTER.CONST>
1

>  <SCORE.INTER.POLAR>
-2.0198

>  <SCORE.INTER.ROT>
0

>  <SCORE.INTER.SOLV>
12.8128

>  <SCORE.INTER.VDW>
-18.9371

>  <SCORE.INTER.norm>
-2.66983

>  <SCORE.INTRA>
0

>  <SCORE.INTRA.DIHEDRAL>
0

>  <SCORE.INTRA.DIHEDRAL.0>
0

>  <SCORE.INTRA.POLAR>
0

>  <SCORE.INTRA.POLAR.0>
0

>  <SCORE.INTRA.REPUL>
0

>  <SCORE.INTRA.REPUL.0>
0

>  <SCORE.INTRA.SOLV>
0

>  <SCORE.INTRA.SOLV.lig_0>
-16.9472

>  <SCORE.INTRA.VDW>
0

>  <SCORE.INTRA.VDW.0>
0

>  <SCORE.INTRA.norm>
0

>  <SCORE.RESTR>
0

>  <SCORE.RESTR.CAVITY>
0

>  <SCORE.RESTR.norm>
0

>  <SCORE.SYSTEM>
0

>  <SCORE.SYSTEM.CONST>
0

>  <SCORE.SYSTEM.DIHEDRAL>
0

>  <SCORE.SYSTEM.SOLV>
0

>  <SCORE.SYSTEM.norm>
0

>  <SCORE.heavy>
10

>  <SCORE.norm>
-2.66983

>  <RMSD>
0.596

$$$$
1y26_lig
 OpenBabel02141814133D
libRbt.so/2013.1/901 2013/11/27
 10 11  0  0  0  0  0  0  0  0999 V2000
   19.4350  -17.0666    2.9021 N   0  0  0  0  0  0  0  0  0  0  0  0
   18.7703  -18.1909    2.6243 C   0  0  0  0  0  0  0  0  0  0  0  0
   18.4908  -19.2081    3.4369 N   0  0  0  0  0  0  0  0  0  0  0  0
   18.9576  -18.9709    4.6835 C   0  0  0  0  0  0  0  0  0  0  0  0
   19.6466  -17.8554    5.1162 C   0  0  0  0  0  0  0  0  0  0  0  0
   19.8890  -16.8678    4.1569 C   0  0  0  0  0  0  0  0  0  0  0  0
   20.5546  -15.7640    4.4562 N   0  0  0  0  0  0  0  0  0  0  0  0
   19.9878  -17.9347    6.4465 N   0  0  0  0  0  0  0  0  0  0  0  0
   19.4692  -19.0925    6.8125 C   0  0  0  0  0  0  0  0  0  0  0  0
   18.8447  -19.7716    5.7887 N   0  0  0  0  0  0  0  0  0  0  0  0
  1  2  2  0  0  0  0
  2  3  1  0  0  0  0
  3  4  2  0  0  0  0
  5  4  1  0  0  0  0
  5  6  2  0  0  0  0
  6  1  1  0  0  0  0
  6  7  1  0  0  0  0
  8  5  1  0  0  0  0
  9  8  1  0  0  0  0
 10  4  1  0  0  0  0
 10  9  2  0  0  0  0
M  END
>  <CHROM.1>
19.40459042,-18.07161740,4.64079217,1.41918832,-1.03878026,-1.07635949

>  <Name>
1y26_lig

>  <RI>
224

>  <Rbt.Current_Directory>
/home/afrankz/demos/rdock_decoys_rna/rnas/1y26

>  <Rbt.Executable>
rbdock ($Id: //depot/dev/client3/rdock/2013.1/src/exe/rbdock.cxx#4 $)

>  <Rbt.Library>
libRbt.so (2013.1, Build901 2013/11/27)

>  <Rbt.Parameter_File>
/export/apps/rDock/src/rDock_2013.1_src/data/scripts/dock_solv.prm

>  <Rbt.Receptor>
prm/pocket_docking_7.prm

>  <SCORE>
-26.7003

>  <SCORE.INTER>
-26.7003

>  <SCORE.INTER.CONST>
1

>  <SCORE.INTER.POLAR>
-2.0198

>  <SCORE.INTER.ROT>
0

>  <SCORE.INTER.SOLV>
12.8028

>  <SCORE.INTER.VDW>
-18.9351

>  <SCORE.INTER.norm>
-2.67003

>  <SCORE.INTRA>
0

>  <SCORE.INTRA.DIHEDRAL>
0

>  <SCORE.INTRA.DIHEDRAL.0>
0

>  <SCORE.INTRA.POLAR>
0

>  <SCORE.INTRA.POLAR.0>
0

>  <SCORE.INTRA.REPUL>
0

>  <SCORE.INTRA.REPUL.0>
0

>  <SCORE.INTRA.SOLV>
0

>  <SCORE.INTRA.SOLV.lig_0>
-16.9472

>  <SCORE.INTRA.VDW>
0

>  <SCORE.INTRA.VDW.0>
0

>  <SCORE.INTRA.norm>
0

>  <SCORE.RESTR>
0

>  <SCORE.RESTR.CAVITY>
0

>  <SCORE.RESTR.norm>
0

>  <SCORE.SYSTEM>
0

>  <SCORE.SYSTEM.CONST>
0

>  <SCORE.SYSTEM.DIHEDRAL>
0

>  <SCORE.SYSTEM.SOLV>
0

>  <SCORE.SYSTEM.norm>
0

>  <SCORE.heavy>
10

>  <SCORE.norm>
-2.67003

>  <RMSD>
0.596

$$$$
1y26_lig
 OpenBabel02141814133D
libRbt.so/2013.1/901 2013/11/27
 10 11  0  0  0  0  0  0  0  0999 V2000
   19.4493  -17.0623    2.9076 N   0  0  0  0  0  0  0  0  0  0  0  0
   18.7753  -18.1796    2.6236 C   0  0  0  0  0  0  0  0  0  0  0  0
   18.4879  -19.1992    3.4303 N   0  0  0  0  0  0  0  0  0  0  0  0
   18.9572  -18.9731    4.6781 C   0  0  0  0  0  0  0  0  0  0  0  0
   19.6555  -17.8659    5.1170 C   0  0  0  0  0  0  0  0  0  0  0  0
   19.9055  -16.8746    4.1633 C   0  0  0  0  0  0  0  0  0  0  0  0
   20.5803  -15.7781    4.4687 N   0  0  0  0  0  0  0  0  0  0  0  0
   19.9967  -17.9557    6.4466 N   0  0  0  0  0  0  0  0  0  0  0  0
   19.4688  -19.1113    6.8061 C   0  0  0  0  0  0  0  0  0  0  0  0
   18.8382  -19.7794    5.7786 N   0  0  0  0  0  0  0  0  0  0  0  0
  1  2  2  0  0  0  0
  2  3  1  0  0  0  0
  3  4  2  0  0  0  0
  5  4  1  0  0  0  0
  5  6  2  0  0  0  0
  6  1  1  0  0  0  0
  6  7  1  0  0  0  0
  8  5  1  0  0  0  0
  9  8  1  0  0  0  0
 10  4  1  0  0  0  0
 10  9  2  0  0  0  0
M  END
>  <CHROM.1>
19.41150756,-18.07727410,4.64039155,1.41243145,-1.03133318,-1.07631190

>  <Name>
1y26_lig

>  <RI>
224

>  <Rbt.Current_Directory>
/home/afrankz/demos/rdock_decoys_rna/rnas/1y26

>  <Rbt.Executable>
rbdock ($Id: //depot/dev/client3/rdock/2013.1/src/exe/rbdock.cxx#4 $)

>  <Rbt.Library>
libRbt.so (2013.1, Build901 2013/11/27)

>  <Rbt.Parameter_File>
/export/apps/rDock/src/rDock_2013.1_src/data/scripts/dock_solv.prm

>  <Rbt.Receptor>
prm/pocket_docking_3.prm

>  <SCORE>
-26.6384

>  <SCORE.INTER>
-26.6384

>  <SCORE.INTER.CONST>
1

>  <SCORE.INTER.POLAR>
-2.0198

>  <SCORE.INTER.ROT>
0

>  <SCORE.INTER.SOLV>
12.7697

>  <SCORE.INTER.VDW>
-18.8828

>  <SCORE.INTER.norm>
-2.66384

>  <SCORE.INTRA>
0

>  <SCORE.INTRA.DIHEDRAL>
0

>  <SCORE.INTRA.DIHEDRAL.0>
0

>  <SCORE.INTRA.POLAR>
0

>  <SCORE.INTRA.POLAR.0>
0

>  <SCORE.INTRA.REPUL>
0

>  <SCORE.INTRA.REPUL.0>
0

>  <SCORE.INTRA.SOLV>
0

>  <SCORE.INTRA.SOLV.lig_0>
-16.9472

>  <SCORE.INTRA.VDW>
0

>  <SCORE.INTRA.VDW.0>
0

>  <SCORE.INTRA.norm>
0

>  <SCORE.RESTR>
0

>  <SCORE.RESTR.CAVITY>
0

>  <SCORE.RESTR.norm>
0

>  <SCORE.SYSTEM>
0

>  <SCORE.SYSTEM.CONST>
0

>  <SCORE.SYSTEM.DIHEDRAL>
0

>  <SCORE.SYSTEM.SOLV>
0

>  <SCORE.SYSTEM.norm>
0

>  <SCORE.heavy>
10

>  <SCORE.norm>
-2.66384

>  <RMSD>
0.597

$$$$
1y26_lig
 OpenBabel02141814133D
libRbt.so/2013.1/901 2013/11/27
 10 11  0  0  0  0  0  0  0  0999 V2000
   19.4385  -17.0683    2.9055 N   0  0  0  0  0  0  0  0  0  0  0  0
   18.7711  -18.1878    2.6146 C   0  0  0  0  0  0  0  0  0  0  0  0
   18.4898  -19.2140    3.4150 N   0  0  0  0  0  0  0  0  0  0  0  0
   18.9578  -18.9929    4.6641 C   0  0  0  0  0  0  0  0  0  0  0  0
   19.6497  -17.8843    5.1098 C   0  0  0  0  0  0  0  0  0  0  0  0
   19.8937  -16.8857    4.1623 C   0  0  0  0  0  0  0  0  0  0  0  0
   20.5622  -15.7872    4.4745 N   0  0  0  0  0  0  0  0  0  0  0  0
   19.9915  -17.9803    6.4388 N   0  0  0  0  0  0  0  0  0  0  0  0
   19.4704  -19.1413    6.7912 C   0  0  0  0  0  0  0  0  0  0  0  0
   18.8437  -19.8066    5.7597 N   0  0  0  0  0  0  0  0  0  0  0  0
  1  2  2  0  0  0  0
  2  3  1  0  0  0  0
  3  4  2  0  0  0  0
  5  4  1  0  0  0  0
  5  6  2  0  0  0  0
  6  1  1  0  0  0  0
  6  7  1  0  0  0  0
  8  5  1  0  0  0  0
  9  8  1  0  0  0  0
 10  4  1  0  0  0  0
 10  9  2  0  0  0  0
M  END
>  <CHROM.1>
19.40688419,-18.09420908,4.63199842,1.41805819,-1.03646843,-1.06528973

>  <Name>
1y26_lig

>  <RI>
0

>  <Rbt.Current_Directory>
/home/afrankz/demos/rdock_decoys_rna/rnas/1y26

>  <Rbt.Executable>
rbdock ($Id: //depot/dev/client3/rdock/2013.1/src/exe/rbdock.cxx#4 $)

>  <Rbt.Library>
libRbt.so (2013.1, Build901 2013/11/27)

>  <Rbt.Parameter_File>
/export/apps/rDock/src/rDock_2013.1_src/data/scripts/dock_solv.prm

>  <Rbt.Receptor>
prm/pocket_docking_4.prm

>  <SCORE>
-26.6932

>  <SCORE.INTER>
-26.6932

>  <SCORE.INTER.CONST>
1

>  <SCORE.INTER.POLAR>
-2.0198

>  <SCORE.INTER.ROT>
0

>  <SCORE.INTER.SOLV>
12.8066

>  <SCORE.INTER.VDW>
-18.9316

>  <SCORE.INTER.norm>
-2.66932

>  <SCORE.INTRA>
0

>  <SCORE.INTRA.DIHEDRAL>
0

>  <SCORE.INTRA.DIHEDRAL.0>
0

>  <SCORE.INTRA.POLAR>
0

>  <SCORE.INTRA.POLAR.0>
0

>  <SCORE.INTRA.REPUL>
0

>  <SCORE.INTRA.REPUL.0>
0

>  <SCORE.INTRA.SOLV>
0

>  <SCORE.INTRA.SOLV.lig_0>
-16.9472

>  <SCORE.INTRA.VDW>
0

>  <SCORE.INTRA.VDW.0>
0

>  <SCORE.INTRA.norm>
0

>  <SCORE.RESTR>
0

>  <SCORE.RESTR.CAVITY>
0

>  <SCORE.RESTR.norm>
0

>  <SCORE.SYSTEM>
0

>  <SCORE.SYSTEM.CONST>
0

>  <SCORE.SYSTEM.DIHEDRAL>
0

>  <SCORE.SYSTEM.SOLV>
0

>  <SCORE.SYSTEM.norm>
0

>  <SCORE.heavy>
10

>  <SCORE.norm>
-2.66932

>  <RMSD>
0.597

$$$$
1y26_lig
 OpenBabel02141814133D
libRbt.so/2013.1/901 2013/11/27
 10 11  0  0  0  0  0  0  0  0999 V2000
   19.4176  -17.0699    2.9043 N   0  0  0  0  0  0  0  0  0  0  0  0
   18.7488  -18.1922    2.6283 C   0  0  0  0  0  0  0  0  0  0  0  0
   18.4737  -19.2114    3.4397 N   0  0  0  0  0  0  0  0  0  0  0  0
   18.9505  -18.9789    4.6835 C   0  0  0  0  0  0  0  0  0  0  0  0
   19.6448  -17.8660    5.1144 C   0  0  0  0  0  0  0  0  0  0  0  0
   19.8816  -16.8758    4.1562 C   0  0  0  0  0  0  0  0  0  0  0  0
   20.5516  -15.7741    4.4539 N   0  0  0  0  0  0  0  0  0  0  0  0
   19.9961  -17.9500    6.4417 N   0  0  0  0  0  0  0  0  0  0  0  0
   19.4782  -19.1080    6.8081 C   0  0  0  0  0  0  0  0  0  0  0  0
   18.8446  -19.7828    5.7870 N   0  0  0  0  0  0  0  0  0  0  0  0
  1  2  2  0  0  0  0
  2  3  1  0  0  0  0
  3  4  2  0  0  0  0
  5  4  1  0  0  0  0
  5  6  2  0  0  0  0
  6  1  1  0  0  0  0
  6  7  1  0  0  0  0
  8  5  1  0  0  0  0
  9  8  1  0  0  0  0
 10  4  1  0  0  0  0
 10  9  2  0  0  0  0
M  END
>  <CHROM.1>
19.39878557,-18.08027322,4.64013253,1.43071521,-1.03350267,-1.06334250

>  <Name>
1y26_lig

>  <RI>
224

>  <Rbt.Current_Directory>
/home/afrankz/demos/rdock_decoys_rna/rnas/1y26

>  <Rbt.Executable>
rbdock ($Id: //depot/dev/client3/rdock/2013.1/src/exe/rbdock.cxx#4 $)

>  <Rbt.Library>
libRbt.so (2013.1, Build901 2013/11/27)

>  <Rbt.Parameter_File>
/export/apps/rDock/src/rDock_2013.1_src/data/scripts/dock_solv.prm

>  <Rbt.Receptor>
prm/pocket_docking_6.prm

>  <SCORE>
-26.6564

>  <SCORE.INTER>
-26.6564

>  <SCORE.INTER.CONST>
1

>  <SCORE.INTER.POLAR>
-2.0198

>  <SCORE.INTER.ROT>
0

>  <SCORE.INTER.SOLV>
12.8202

>  <SCORE.INTER.VDW>
-18.9117

>  <SCORE.INTER.norm>
-2.66564

>  <SCORE.INTRA>
0

>  <SCORE.INTRA.DIHEDRAL>
0

>  <SCORE.INTRA.DIHEDRAL.0>
0

>  <SCORE.INTRA.POLAR>
0

>  <SCORE.INTRA.POLAR.0>
0

>  <SCORE.INTRA.REPUL>
0

>  <SCORE.INTRA.REPUL.0>
0

>  <SCORE.INTRA.SOLV>
0

>  <SCORE.INTRA.SOLV.lig_0>
-16.9472

>  <SCORE.INTRA.VDW>
0

>  <SCORE.INTRA.VDW.0>
0

>  <SCORE.INTRA.norm>
0

>  <SCORE.RESTR>
0

>  <SCORE.RESTR.CAVITY>
0

>  <SCORE.RESTR.norm>
0

>  <SCORE.SYSTEM>
0

>  <SCORE.SYSTEM.CONST>
0

>  <SCORE.SYSTEM.DIHEDRAL>
0

>  <SCORE.SYSTEM.SOLV>
0

>  <SCORE.SYSTEM.norm>
0

>  <SCORE.heavy>
10

>  <SCORE.norm>
-2.66564

>  <RMSD>
0.597

$$$$
1y26_lig
 OpenBabel02141814133D
libRbt.so/2013.1/901 2013/11/27
 10 11  0  0  0  0  0  0  0  0999 V2000
   19.4230  -17.0648    2.9061 N   0  0  0  0  0  0  0  0  0  0  0  0
   18.7640  -18.1892    2.6153 C   0  0  0  0  0  0  0  0  0  0  0  0
   18.4908  -19.2177    3.4156 N   0  0  0  0  0  0  0  0  0  0  0  0
   18.9576  -18.9933    4.6646 C   0  0  0  0  0  0  0  0  0  0  0  0
   19.6411  -17.8795    5.1103 C   0  0  0  0  0  0  0  0  0  0  0  0
   19.8772  -16.8789    4.1628 C   0  0  0  0  0  0  0  0  0  0  0  0
   20.5373  -15.7753    4.4750 N   0  0  0  0  0  0  0  0  0  0  0  0
   19.9841  -17.9731    6.4391 N   0  0  0  0  0  0  0  0  0  0  0  0
   19.4720  -19.1381    6.7915 C   0  0  0  0  0  0  0  0  0  0  0  0
   18.8501  -19.8080    5.7600 N   0  0  0  0  0  0  0  0  0  0  0  0
  1  2  2  0  0  0  0
  2  3  1  0  0  0  0
  3  4  2  0  0  0  0
  5  4  1  0  0  0  0
  5  6  2  0  0  0  0
  6  1  1  0  0  0  0
  6  7  1  0  0  0  0
  8  5  1  0  0  0  0
  9  8  1  0  0  0  0
 10  4  1  0  0  0  0
 10  9  2  0  0  0  0
M  END
>  <CHROM.1>
19.39974570,-18.09115653,4.63245706,1.42599255,-1.04298700,-1.05827665

>  <Name>
1y26_lig

>  <RI>
0

>  <Rbt.Current_Directory>
/home/afrankz/demos/rdock_decoys_rna/rnas/1y26

>  <Rbt.Executable>
rbdock ($Id: //depot/dev/client3/rdock/2013.1/src/exe/rbdock.cxx#4 $)

>  <Rbt.Library>
libRbt.so (2013.1, Build901 2013/11/27)

>  <Rbt.Parameter_File>
/export/apps/rDock/src/rDock_2013.1_src/data/scripts/dock_solv.prm

>  <Rbt.Receptor>
prm/blind_docking_40.prm

>  <SCORE>
-26.711

>  <SCORE.INTER>
-26.711

>  <SCORE.INTER.CONST>
1

>  <SCORE.INTER.POLAR>
-2.0198

>  <SCORE.INTER.ROT>
0

>  <SCORE.INTER.SOLV>
12.8574

>  <SCORE.INTER.VDW>
-18.9604

>  <SCORE.INTER.norm>
-2.6711

>  <SCORE.INTRA>
0

>  <SCORE.INTRA.DIHEDRAL>
0

>  <SCORE.INTRA.DIHEDRAL.0>
0

>  <SCORE.INTRA.POLAR>
0

>  <SCORE.INTRA.POLAR.0>
0

>  <SCORE.INTRA.REPUL>
0

>  <SCORE.INTRA.REPUL.0>
0

>  <SCORE.INTRA.SOLV>
0

>  <SCORE.INTRA.SOLV.lig_0>
-16.9472

>  <SCORE.INTRA.VDW>
0

>  <SCORE.INTRA.VDW.0>
0

>  <SCORE.INTRA.norm>
0

>  <SCORE.RESTR>
0

>  <SCORE.RESTR.CAVITY>
0

>  <SCORE.RESTR.norm>
0

>  <SCORE.SYSTEM>
0

>  <SCORE.SYSTEM.CONST>
0

>  <SCORE.SYSTEM.DIHEDRAL>
0

>  <SCORE.SYSTEM.SOLV>
0

>  <SCORE.SYSTEM.norm>
0

>  <SCORE.heavy>
10

>  <SCORE.norm>
-2.6711

>  <RMSD>
0.598

$$$$
1y26_lig
 OpenBabel02141814133D
libRbt.so/2013.1/901 2013/11/27
 10 11  0  0  0  0  0  0  0  0999 V2000
   19.4284  -17.0668    2.9063 N   0  0  0  0  0  0  0  0  0  0  0  0
   18.7617  -18.1908    2.6316 C   0  0  0  0  0  0  0  0  0  0  0  0
   18.4841  -19.2071    3.4459 N   0  0  0  0  0  0  0  0  0  0  0  0
   18.9552  -18.9693    4.6907 C   0  0  0  0  0  0  0  0  0  0  0  0
   19.6467  -17.8542    5.1203 C   0  0  0  0  0  0  0  0  0  0  0  0
   19.8867  -16.8675    4.1594 C   0  0  0  0  0  0  0  0  0  0  0  0
   20.5544  -15.7640    4.4557 N   0  0  0  0  0  0  0  0  0  0  0  0
   19.9923  -17.9327    6.4495 N   0  0  0  0  0  0  0  0  0  0  0  0
   19.4739  -19.0898    6.8182 C   0  0  0  0  0  0  0  0  0  0  0  0
   18.8453  -19.7692    5.7969 N   0  0  0  0  0  0  0  0  0  0  0  0
  1  2  2  0  0  0  0
  2  3  1  0  0  0  0
  3  4  2  0  0  0  0
  5  4  1  0  0  0  0
  5  6  2  0  0  0  0
  6  1  1  0  0  0  0
  6  7  1  0  0  0  0
  8  5  1  0  0  0  0
  9  8  1  0  0  0  0
 10  4  1  0  0  0  0
 10  9  2  0  0  0  0
M  END
>  <CHROM.1>
19.40290037,-18.07050864,4.64587374,1.42412498,-1.03639171,-1.07287058

>  <Name>
1y26_lig

>  <RI>
0

>  <Rbt.Current_Directory>
/home/afrankz/demos/rdock_decoys_rna/rnas/1y26

>  <Rbt.Executable>
rbdock ($Id: //depot/dev/client3/rdock/2013.1/src/exe/rbdock.cxx#4 $)

>  <Rbt.Library>
libRbt.so (2013.1, Build901 2013/11/27)

>  <Rbt.Parameter_File>
/export/apps/rDock/src/rDock_2013.1_src/data/scripts/dock_solv.prm

>  <Rbt.Receptor>
prm/blind_docking_40.prm

>  <SCORE>
-26.6936

>  <SCORE.INTER>
-26.6936

>  <SCORE.INTER.CONST>
1

>  <SCORE.INTER.POLAR>
-2.0198

>  <SCORE.INTER.ROT>
0

>  <SCORE.INTER.SOLV>
12.8084

>  <SCORE.INTER.VDW>
-18.9325

>  <SCORE.INTER.norm>
-2.66936

>  <SCORE.INTRA>
0

>  <SCORE.INTRA.DIHEDRAL>
0

>  <SCORE.INTRA.DIHEDRAL.0>
0

>  <SCORE.INTRA.POLAR>
0

>  <SCORE.INTRA.POLAR.0>
0

>  <SCORE.INTRA.REPUL>
0

>  <SCORE.INTRA.REPUL.0>
0

>  <SCORE.INTRA.SOLV>
0

>  <SCORE.INTRA.SOLV.lig_0>
-16.9472

>  <SCORE.INTRA.VDW>
0

>  <SCORE.INTRA.VDW.0>
0

>  <SCORE.INTRA.norm>
0

>  <SCORE.RESTR>
0

>  <SCORE.RESTR.CAVITY>
0

>  <SCORE.RESTR.norm>
0

>  <SCORE.SYSTEM>
0

>  <SCORE.SYSTEM.CONST>
0

>  <SCORE.SYSTEM.DIHEDRAL>
0

>  <SCORE.SYSTEM.SOLV>
0

>  <SCORE.SYSTEM.norm>
0

>  <SCORE.heavy>
10

>  <SCORE.norm>
-2.66936

>  <RMSD>
0.599

$$$$
1y26_lig
 OpenBabel02141814133D
libRbt.so/2013.1/901 2013/11/27
 10 11  0  0  0  0  0  0  0  0999 V2000
   19.4402  -17.0683    2.9083 N   0  0  0  0  0  0  0  0  0  0  0  0
   18.7746  -18.1886    2.6166 C   0  0  0  0  0  0  0  0  0  0  0  0
   18.4948  -19.2158    3.4163 N   0  0  0  0  0  0  0  0  0  0  0  0
   18.9623  -18.9947    4.6656 C   0  0  0  0  0  0  0  0  0  0  0  0
   19.6524  -17.8853    5.1121 C   0  0  0  0  0  0  0  0  0  0  0  0
   19.8950  -16.8858    4.1653 C   0  0  0  0  0  0  0  0  0  0  0  0
   20.5616  -15.7863    4.4783 N   0  0  0  0  0  0  0  0  0  0  0  0
   19.9942  -17.9817    6.4411 N   0  0  0  0  0  0  0  0  0  0  0  0
   19.4749  -19.1437    6.7927 C   0  0  0  0  0  0  0  0  0  0  0  0
   18.8494  -19.8094    5.7606 N   0  0  0  0  0  0  0  0  0  0  0  0
  1  2  2  0  0  0  0
  2  3  1  0  0  0  0
  3  4  2  0  0  0  0
  5  4  1  0  0  0  0
  5  6  2  0  0  0  0
  6  1  1  0  0  0  0
  6  7  1  0  0  0  0
  8  5  1  0  0  0  0
  9  8  1  0  0  0  0
 10  4  1  0  0  0  0
 10  9  2  0  0  0  0
M  END
>  <CHROM.1>
19.40997745,-18.09530455,4.63411560,1.41936606,-1.03792441,-1.06352246

>  <Name>
1y26_lig

>  <RI>
0

>  <Rbt.Current_Directory>
/home/afrankz/demos/rdock_decoys_rna/rnas/1y26

>  <Rbt.Executable>
rbdock ($Id: //depot/dev/client3/rdock/2013.1/src/exe/rbdock.cxx#4 $)

>  <Rbt.Library>
libRbt.so (2013.1, Build901 2013/11/27)

>  <Rbt.Parameter_File>
/export/apps/rDock/src/rDock_2013.1_src/data/scripts/dock_solv.prm

>  <Rbt.Receptor>
prm/blind_docking_40.prm

>  <SCORE>
-26.6904

>  <SCORE.INTER>
-26.6904

>  <SCORE.INTER.CONST>
1

>  <SCORE.INTER.POLAR>
-2.0198

>  <SCORE.INTER.ROT>
0

>  <SCORE.INTER.SOLV>
12.8097

>  <SCORE.INTER.VDW>
-18.9308

>  <SCORE.INTER.norm>
-2.66904

>  <SCORE.INTRA>
0

>  <SCORE.INTRA.DIHEDRAL>
0

>  <SCORE.INTRA.DIHEDRAL.0>
0

>  <SCORE.INTRA.POLAR>
0

>  <SCORE.INTRA.POLAR.0>
0

>  <SCORE.INTRA.REPUL>
0

>  <SCORE.INTRA.REPUL.0>
0

>  <SCORE.INTRA.SOLV>
0

>  <SCORE.INTRA.SOLV.lig_0>
-16.9472

>  <SCORE.INTRA.VDW>
0

>  <SCORE.INTRA.VDW.0>
0

>  <SCORE.INTRA.norm>
0

>  <SCORE.RESTR>
0

>  <SCORE.RESTR.CAVITY>
0

>  <SCORE.RESTR.norm>
0

>  <SCORE.SYSTEM>
0

>  <SCORE.SYSTEM.CONST>
0

>  <SCORE.SYSTEM.DIHEDRAL>
0

>  <SCORE.SYSTEM.SOLV>
0

>  <SCORE.SYSTEM.norm>
0

>  <SCORE.heavy>
10

>  <SCORE.norm>
-2.66904

>  <RMSD>
0.600

$$$$
1y26_lig
 OpenBabel02141814133D
libRbt.so/2013.1/901 2013/11/27
 10 11  0  0  0  0  0  0  0  0999 V2000
   19.4308  -17.0592    2.9096 N   0  0  0  0  0  0  0  0  0  0  0  0
   18.7760  -18.1845    2.6129 C   0  0  0  0  0  0  0  0  0  0  0  0
   18.4978  -19.2138    3.4105 N   0  0  0  0  0  0  0  0  0  0  0  0
   18.9539  -18.9892    4.6634 C   0  0  0  0  0  0  0  0  0  0  0  0
   19.6320  -17.8745    5.1151 C   0  0  0  0  0  0  0  0  0  0  0  0
   19.8744  -16.8732    4.1701 C   0  0  0  0  0  0  0  0  0  0  0  0
   20.5302  -15.7687    4.4881 N   0  0  0  0  0  0  0  0  0  0  0  0
   19.9642  -17.9682    6.4467 N   0  0  0  0  0  0  0  0  0  0  0  0
   19.4511  -19.1341    6.7944 C   0  0  0  0  0  0  0  0  0  0  0  0
   18.8387  -19.8046    5.7576 N   0  0  0  0  0  0  0  0  0  0  0  0
  1  2  2  0  0  0  0
  2  3  1  0  0  0  0
  3  4  2  0  0  0  0
  5  4  1  0  0  0  0
  5  6  2  0  0  0  0
  6  1  1  0  0  0  0
  6  7  1  0  0  0  0
  8  5  1  0  0  0  0
  9  8  1  0  0  0  0
 10  4  1  0  0  0  0
 10  9  2  0  0  0  0
M  END
>  <CHROM.1>
19.39495568,-18.08635819,4.63527533,1.41313449,-1.04831195,-1.06897001

>  <Name>
1y26_lig

>  <RI>
224

>  <Rbt.Current_Directory>
/home/afrankz/demos/rdock_decoys_rna/rnas/1y26

>  <Rbt.Executable>
rbdock ($Id: //depot/dev/client3/rdock/2013.1/src/exe/rbdock.cxx#4 $)

>  <Rbt.Library>
libRbt.so (2013.1, Build901 2013/11/27)

>  <Rbt.Parameter_File>
/export/apps/rDock/src/rDock_2013.1_src/data/scripts/dock_solv.prm

>  <Rbt.Receptor>
prm/pocket_docking_3.prm

>  <SCORE>
-26.7002

>  <SCORE.INTER>
-26.7002

>  <SCORE.INTER.CONST>
1

>  <SCORE.INTER.POLAR>
-2.0198

>  <SCORE.INTER.ROT>
0

>  <SCORE.INTER.SOLV>
12.867

>  <SCORE.INTER.VDW>
-18.9564

>  <SCORE.INTER.norm>
-2.67002

>  <SCORE.INTRA>
0

>  <SCORE.INTRA.DIHEDRAL>
0

>  <SCORE.INTRA.DIHEDRAL.0>
0

>  <SCORE.INTRA.POLAR>
0

>  <SCORE.INTRA.POLAR.0>
0

>  <SCORE.INTRA.REPUL>
0

>  <SCORE.INTRA.REPUL.0>
0

>  <SCORE.INTRA.SOLV>
0

>  <SCORE.INTRA.SOLV.lig_0>
-16.9472

>  <SCORE.INTRA.VDW>
0

>  <SCORE.INTRA.VDW.0>
0

>  <SCORE.INTRA.norm>
0

>  <SCORE.RESTR>
0

>  <SCORE.RESTR.CAVITY>
0

>  <SCORE.RESTR.norm>
0

>  <SCORE.SYSTEM>
0

>  <SCORE.SYSTEM.CONST>
0

>  <SCORE.SYSTEM.DIHEDRAL>
0

>  <SCORE.SYSTEM.SOLV>
0

>  <SCORE.SYSTEM.norm>
0

>  <SCORE.heavy>
10

>  <SCORE.norm>
-2.67002

>  <RMSD>
0.600

$$$$
1y26_lig
 OpenBabel02141814133D
libRbt.so/2013.1/901 2013/11/27
 10 11  0  0  0  0  0  0  0  0999 V2000
   19.4419  -17.0674    2.9071 N   0  0  0  0  0  0  0  0  0  0  0  0
   18.7801  -18.1931    2.6279 C   0  0  0  0  0  0  0  0  0  0  0  0
   18.4984  -19.2096    3.4405 N   0  0  0  0  0  0  0  0  0  0  0  0
   18.9592  -18.9700    4.6889 C   0  0  0  0  0  0  0  0  0  0  0  0
   19.6447  -17.8530    5.1233 C   0  0  0  0  0  0  0  0  0  0  0  0
   19.8900  -16.8663    4.1637 C   0  0  0  0  0  0  0  0  0  0  0  0
   20.5527  -15.7611    4.4646 N   0  0  0  0  0  0  0  0  0  0  0  0
   19.9799  -17.9300    6.4552 N   0  0  0  0  0  0  0  0  0  0  0  0
   19.4613  -19.0881    6.8204 C   0  0  0  0  0  0  0  0  0  0  0  0
   18.8424  -19.7695    5.7947 N   0  0  0  0  0  0  0  0  0  0  0  0
  1  2  2  0  0  0  0
  2  3  1  0  0  0  0
  3  4  2  0  0  0  0
  5  4  1  0  0  0  0
  5  6  2  0  0  0  0
  6  1  1  0  0  0  0
  6  7  1  0  0  0  0
  8  5  1  0  0  0  0
  9  8  1  0  0  0  0
 10  4  1  0  0  0  0
 10  9  2  0  0  0  0
M  END
>  <CHROM.1>
19.40511247,-18.07019153,4.64704682,1.41260910,-1.04218444,-1.08337092

>  <Name>
1y26_lig

>  <RI>
224

>  <Rbt.Current_Directory>
/home/afrankz/demos/rdock_decoys_rna/rnas/1y26

>  <Rbt.Executable>
rbdock ($Id: //depot/dev/client3/rdock/2013.1/src/exe/rbdock.cxx#4 $)

>  <Rbt.Library>
libRbt.so (2013.1, Build901 2013/11/27)

>  <Rbt.Parameter_File>
/export/apps/rDock/src/rDock_2013.1_src/data/scripts/dock_solv.prm

>  <Rbt.Receptor>
prm/pocket_docking_6.prm

>  <SCORE>
-26.6702

>  <SCORE.INTER>
-26.6702

>  <SCORE.INTER.CONST>
1

>  <SCORE.INTER.POLAR>
-2.0198

>  <SCORE.INTER.ROT>
0

>  <SCORE.INTER.SOLV>
12.7997

>  <SCORE.INTER.VDW>
-18.914

>  <SCORE.INTER.norm>
-2.66702

>  <SCORE.INTRA>
0

>  <SCORE.INTRA.DIHEDRAL>
0

>  <SCORE.INTRA.DIHEDRAL.0>
0

>  <SCORE.INTRA.POLAR>
0

>  <SCORE.INTRA.POLAR.0>
0

>  <SCORE.INTRA.REPUL>
0

>  <SCORE.INTRA.REPUL.0>
0

>  <SCORE.INTRA.SOLV>
0

>  <SCORE.INTRA.SOLV.lig_0>
-16.9472

>  <SCORE.INTRA.VDW>
0

>  <SCORE.INTRA.VDW.0>
0

>  <SCORE.INTRA.norm>
0

>  <SCORE.RESTR>
0

>  <SCORE.RESTR.CAVITY>
0

>  <SCORE.RESTR.norm>
0

>  <SCORE.SYSTEM>
0

>  <SCORE.SYSTEM.CONST>
0

>  <SCORE.SYSTEM.DIHEDRAL>
0

>  <SCORE.SYSTEM.SOLV>
0

>  <SCORE.SYSTEM.norm>
0

>  <SCORE.heavy>
10

>  <SCORE.norm>
-2.66702

>  <RMSD>
0.601

$$$$
1y26_lig
 OpenBabel02141814133D
libRbt.so/2013.1/901 2013/11/27
 10 11  0  0  0  0  0  0  0  0999 V2000
   19.4171  -17.0720    2.9104 N   0  0  0  0  0  0  0  0  0  0  0  0
   18.7529  -18.1957    2.6289 C   0  0  0  0  0  0  0  0  0  0  0  0
   18.4764  -19.2171    3.4371 N   0  0  0  0  0  0  0  0  0  0  0  0
   18.9461  -18.9855    4.6837 C   0  0  0  0  0  0  0  0  0  0  0  0
   19.6351  -17.8715    5.1202 C   0  0  0  0  0  0  0  0  0  0  0  0
   19.8740  -16.8789    4.1650 C   0  0  0  0  0  0  0  0  0  0  0  0
   20.5394  -15.7759    4.4681 N   0  0  0  0  0  0  0  0  0  0  0  0
   19.9797  -17.9568    6.4492 N   0  0  0  0  0  0  0  0  0  0  0  0
   19.4632  -19.1170    6.8108 C   0  0  0  0  0  0  0  0  0  0  0  0
   18.8368  -19.7918    5.7853 N   0  0  0  0  0  0  0  0  0  0  0  0
  1  2  2  0  0  0  0
  2  3  1  0  0  0  0
  3  4  2  0  0  0  0
  5  4  1  0  0  0  0
  5  6  2  0  0  0  0
  6  1  1  0  0  0  0
  6  7  1  0  0  0  0
  8  5  1  0  0  0  0
  9  8  1  0  0  0  0
 10  4  1  0  0  0  0
 10  9  2  0  0  0  0
M  END
>  <CHROM.1>
19.39210003,-18.08558308,4.64428475,1.42447601,-1.03847389,-1.06691808

>  <Name>
1y26_lig

>  <RI>
224

>  <Rbt.Current_Directory>
/home/afrankz/demos/rdock_decoys_rna/rnas/1y26

>  <Rbt.Executable>
rbdock ($Id: //depot/dev/client3/rdock/2013.1/src/exe/rbdock.cxx#4 $)

>  <Rbt.Library>
libRbt.so (2013.1, Build901 2013/11/27)

>  <Rbt.Parameter_File>
/export/apps/rDock/src/rDock_2013.1_src/data/scripts/dock_solv.prm

>  <Rbt.Receptor>
prm/pocket_docking_3.prm

>  <SCORE>
-26.6768

>  <SCORE.INTER>
-26.6768

>  <SCORE.INTER.CONST>
1

>  <SCORE.INTER.POLAR>
-2.0198

>  <SCORE.INTER.ROT>
0

>  <SCORE.INTER.SOLV>
12.842

>  <SCORE.INTER.VDW>
-18.9325

>  <SCORE.INTER.norm>
-2.66768

>  <SCORE.INTRA>
0

>  <SCORE.INTRA.DIHEDRAL>
0

>  <SCORE.INTRA.DIHEDRAL.0>
0

>  <SCORE.INTRA.POLAR>
0

>  <SCORE.INTRA.POLAR.0>
0

>  <SCORE.INTRA.REPUL>
0

>  <SCORE.INTRA.REPUL.0>
0

>  <SCORE.INTRA.SOLV>
0

>  <SCORE.INTRA.SOLV.lig_0>
-16.9472

>  <SCORE.INTRA.VDW>
0

>  <SCORE.INTRA.VDW.0>
0

>  <SCORE.INTRA.norm>
0

>  <SCORE.RESTR>
0

>  <SCORE.RESTR.CAVITY>
0

>  <SCORE.RESTR.norm>
0

>  <SCORE.SYSTEM>
0

>  <SCORE.SYSTEM.CONST>
0

>  <SCORE.SYSTEM.DIHEDRAL>
0

>  <SCORE.SYSTEM.SOLV>
0

>  <SCORE.SYSTEM.norm>
0

>  <SCORE.heavy>
10

>  <SCORE.norm>
-2.66768

>  <RMSD>
0.602

$$$$
1y26_lig
 OpenBabel02141814133D
libRbt.so/2013.1/901 2013/11/27
 10 11  0  0  0  0  0  0  0  0999 V2000
   19.4693  -17.0851    2.9128 N   0  0  0  0  0  0  0  0  0  0  0  0
   18.7817  -18.1927    2.6240 C   0  0  0  0  0  0  0  0  0  0  0  0
   18.4779  -19.2102    3.4274 N   0  0  0  0  0  0  0  0  0  0  0  0
   18.9457  -18.9931    4.6773 C   0  0  0  0  0  0  0  0  0  0  0  0
   19.6570  -17.8961    5.1211 C   0  0  0  0  0  0  0  0  0  0  0  0
   19.9235  -16.9062    4.1706 C   0  0  0  0  0  0  0  0  0  0  0  0
   20.6116  -15.8193    4.4808 N   0  0  0  0  0  0  0  0  0  0  0  0
   19.9922  -17.9933    6.4517 N   0  0  0  0  0  0  0  0  0  0  0  0
   19.4478  -19.1426    6.8068 C   0  0  0  0  0  0  0  0  0  0  0  0
   18.8122  -19.8001    5.7756 N   0  0  0  0  0  0  0  0  0  0  0  0
  1  2  2  0  0  0  0
  2  3  1  0  0  0  0
  3  4  2  0  0  0  0
  5  4  1  0  0  0  0
  5  6  2  0  0  0  0
  6  1  1  0  0  0  0
  6  7  1  0  0  0  0
  8  5  1  0  0  0  0
  9  8  1  0  0  0  0
 10  4  1  0  0  0  0
 10  9  2  0  0  0  0
M  END
>  <CHROM.1>
19.41193988,-18.10322954,4.64324403,1.39438064,-1.02136029,-1.08956571

>  <Name>
1y26_lig

>  <RI>
0

>  <Rbt.Current_Directory>
/home/afrankz/demos/rdock_decoys_rna/rnas/1y26

>  <Rbt.Executable>
rbdock ($Id: //depot/dev/client3/rdock/2013.1/src/exe/rbdock.cxx#4 $)

>  <Rbt.Library>
libRbt.so (2013.1, Build901 2013/11/27)

>  <Rbt.Parameter_File>
/export/apps/rDock/src/rDock_2013.1_src/data/scripts/dock_solv.prm

>  <Rbt.Receptor>
prm/blind_docking_60.prm

>  <SCORE>
-26.6628

>  <SCORE.INTER>
-26.6628

>  <SCORE.INTER.CONST>
1

>  <SCORE.INTER.POLAR>
-2.0198

>  <SCORE.INTER.ROT>
0

>  <SCORE.INTER.SOLV>
12.7025

>  <SCORE.INTER.VDW>
-18.8767

>  <SCORE.INTER.norm>
-2.66628

>  <SCORE.INTRA>
0

>  <SCORE.INTRA.DIHEDRAL>
0

>  <SCORE.INTRA.DIHEDRAL.0>
0

>  <SCORE.INTRA.POLAR>
0

>  <SCORE.INTRA.POLAR.0>
0

>  <SCORE.INTRA.REPUL>
0

>  <SCORE.INTRA.REPUL.0>
0

>  <SCORE.INTRA.SOLV>
0

>  <SCORE.INTRA.SOLV.lig_0>
-16.9472

>  <SCORE.INTRA.VDW>
0

>  <SCORE.INTRA.VDW.0>
0

>  <SCORE.INTRA.norm>
0

>  <SCORE.RESTR>
0

>  <SCORE.RESTR.CAVITY>
0

>  <SCORE.RESTR.norm>
0

>  <SCORE.SYSTEM>
0

>  <SCORE.SYSTEM.CONST>
0

>  <SCORE.SYSTEM.DIHEDRAL>
0

>  <SCORE.SYSTEM.SOLV>
0

>  <SCORE.SYSTEM.norm>
0

>  <SCORE.heavy>
10

>  <SCORE.norm>
-2.66628

>  <RMSD>
0.603

$$$$
1y26_lig
 OpenBabel02141814133D
libRbt.so/2013.1/901 2013/11/27
 10 11  0  0  0  0  0  0  0  0999 V2000
   19.4128  -17.0739    2.9106 N   0  0  0  0  0  0  0  0  0  0  0  0
   18.7483  -18.1976    2.6296 C   0  0  0  0  0  0  0  0  0  0  0  0
   18.4752  -19.2203    3.4373 N   0  0  0  0  0  0  0  0  0  0  0  0
   18.9488  -18.9903    4.6827 C   0  0  0  0  0  0  0  0  0  0  0  0
   19.6386  -17.8765    5.1184 C   0  0  0  0  0  0  0  0  0  0  0  0
   19.8738  -16.8824    4.1640 C   0  0  0  0  0  0  0  0  0  0  0  0
   20.5395  -15.7794    4.4664 N   0  0  0  0  0  0  0  0  0  0  0  0
   19.9877  -17.9636    6.4462 N   0  0  0  0  0  0  0  0  0  0  0  0
   19.4731  -19.1245    6.8079 C   0  0  0  0  0  0  0  0  0  0  0  0
   18.8437  -19.7982    5.7834 N   0  0  0  0  0  0  0  0  0  0  0  0
  1  2  2  0  0  0  0
  2  3  1  0  0  0  0
  3  4  2  0  0  0  0
  5  4  1  0  0  0  0
  5  6  2  0  0  0  0
  6  1  1  0  0  0  0
  6  7  1  0  0  0  0
  8  5  1  0  0  0  0
  9  8  1  0  0  0  0
 10  4  1  0  0  0  0
 10  9  2  0  0  0  0
M  END
>  <CHROM.1>
19.39418624,-18.09004004,4.64306084,1.43075413,-1.03735170,-1.06006257

>  <Name>
1y26_lig

>  <RI>
0

>  <Rbt.Current_Directory>
/home/afrankz/demos/rdock_decoys_rna/rnas/1y26

>  <Rbt.Executable>
rbdock ($Id: //depot/dev/client3/rdock/2013.1/src/exe/rbdock.cxx#4 $)

>  <Rbt.Library>
libRbt.so (2013.1, Build901 2013/11/27)

>  <Rbt.Parameter_File>
/export/apps/rDock/src/rDock_2013.1_src/data/scripts/dock_solv.prm

>  <Rbt.Receptor>
prm/pocket_docking_5.prm

>  <SCORE>
-26.6747

>  <SCORE.INTER>
-26.6747

>  <SCORE.INTER.CONST>
1

>  <SCORE.INTER.POLAR>
-2.0198

>  <SCORE.INTER.ROT>
0

>  <SCORE.INTER.SOLV>
12.8461

>  <SCORE.INTER.VDW>
-18.9325

>  <SCORE.INTER.norm>
-2.66747

>  <SCORE.INTRA>
0

>  <SCORE.INTRA.DIHEDRAL>
0

>  <SCORE.INTRA.DIHEDRAL.0>
0

>  <SCORE.INTRA.POLAR>
0

>  <SCORE.INTRA.POLAR.0>
0

>  <SCORE.INTRA.REPUL>
0

>  <SCORE.INTRA.REPUL.0>
0

>  <SCORE.INTRA.SOLV>
0

>  <SCORE.INTRA.SOLV.lig_0>
-16.9472

>  <SCORE.INTRA.VDW>
0

>  <SCORE.INTRA.VDW.0>
0

>  <SCORE.INTRA.norm>
0

>  <SCORE.RESTR>
0

>  <SCORE.RESTR.CAVITY>
0

>  <SCORE.RESTR.norm>
0

>  <SCORE.SYSTEM>
0

>  <SCORE.SYSTEM.CONST>
0

>  <SCORE.SYSTEM.DIHEDRAL>
0

>  <SCORE.SYSTEM.SOLV>
0

>  <SCORE.SYSTEM.norm>
0

>  <SCORE.heavy>
10

>  <SCORE.norm>
-2.66747

>  <RMSD>
0.603

$$$$
1y26_lig
 OpenBabel02141814133D
libRbt.so/2013.1/901 2013/11/27
 10 11  0  0  0  0  0  0  0  0999 V2000
   19.4691  -17.0697    2.9188 N   0  0  0  0  0  0  0  0  0  0  0  0
   18.7794  -18.1735    2.6204 C   0  0  0  0  0  0  0  0  0  0  0  0
   18.4739  -19.1974    3.4150 N   0  0  0  0  0  0  0  0  0  0  0  0
   18.9422  -18.9921    4.6667 C   0  0  0  0  0  0  0  0  0  0  0  0
   19.6556  -17.9003    5.1200 C   0  0  0  0  0  0  0  0  0  0  0  0
   19.9238  -16.9026    4.1780 C   0  0  0  0  0  0  0  0  0  0  0  0
   20.6139  -15.8197    4.4977 N   0  0  0  0  0  0  0  0  0  0  0  0
   19.9908  -18.0097    6.4496 N   0  0  0  0  0  0  0  0  0  0  0  0
   19.4444  -19.1612    6.7947 C   0  0  0  0  0  0  0  0  0  0  0  0
   18.8075  -19.8084    5.7579 N   0  0  0  0  0  0  0  0  0  0  0  0
  1  2  2  0  0  0  0
  2  3  1  0  0  0  0
  3  4  2  0  0  0  0
  5  4  1  0  0  0  0
  5  6  2  0  0  0  0
  6  1  1  0  0  0  0
  6  7  1  0  0  0  0
  8  5  1  0  0  0  0
  9  8  1  0  0  0  0
 10  4  1  0  0  0  0
 10  9  2  0  0  0  0
M  END
>  <CHROM.1>
19.41012215,-18.10282048,4.64030289,1.39302280,-1.01967427,-1.08198779

>  <Name>
1y26_lig

>  <RI>
0

>  <Rbt.Current_Directory>
/home/afrankz/demos/rdock_decoys_rna/rnas/1y26

>  <Rbt.Executable>
rbdock ($Id: //depot/dev/client3/rdock/2013.1/src/exe/rbdock.cxx#4 $)

>  <Rbt.Library>
libRbt.so (2013.1, Build901 2013/11/27)

>  <Rbt.Parameter_File>
/export/apps/rDock/src/rDock_2013.1_src/data/scripts/dock_solv.prm

>  <Rbt.Receptor>
prm/pocket_docking_5.prm

>  <SCORE>
-26.6821

>  <SCORE.INTER>
-26.6821

>  <SCORE.INTER.CONST>
1

>  <SCORE.INTER.POLAR>
-2.0198

>  <SCORE.INTER.ROT>
0

>  <SCORE.INTER.SOLV>
12.7231

>  <SCORE.INTER.VDW>
-18.8964

>  <SCORE.INTER.norm>
-2.66821

>  <SCORE.INTRA>
0

>  <SCORE.INTRA.DIHEDRAL>
0

>  <SCORE.INTRA.DIHEDRAL.0>
0

>  <SCORE.INTRA.POLAR>
0

>  <SCORE.INTRA.POLAR.0>
0

>  <SCORE.INTRA.REPUL>
0

>  <SCORE.INTRA.REPUL.0>
0

>  <SCORE.INTRA.SOLV>
0

>  <SCORE.INTRA.SOLV.lig_0>
-16.9472

>  <SCORE.INTRA.VDW>
0

>  <SCORE.INTRA.VDW.0>
0

>  <SCORE.INTRA.norm>
0

>  <SCORE.RESTR>
0

>  <SCORE.RESTR.CAVITY>
0

>  <SCORE.RESTR.norm>
0

>  <SCORE.SYSTEM>
0

>  <SCORE.SYSTEM.CONST>
0

>  <SCORE.SYSTEM.DIHEDRAL>
0

>  <SCORE.SYSTEM.SOLV>
0

>  <SCORE.SYSTEM.norm>
0

>  <SCORE.heavy>
10

>  <SCORE.norm>
-2.66821

>  <RMSD>
0.603

$$$$
1y26_lig
 OpenBabel02141814133D
libRbt.so/2013.1/901 2013/11/27
 10 11  0  0  0  0  0  0  0  0999 V2000
   19.4660  -17.0717    2.9169 N   0  0  0  0  0  0  0  0  0  0  0  0
   18.7812  -18.1790    2.6200 C   0  0  0  0  0  0  0  0  0  0  0  0
   18.4813  -19.2037    3.4156 N   0  0  0  0  0  0  0  0  0  0  0  0
   18.9500  -18.9953    4.6666 C   0  0  0  0  0  0  0  0  0  0  0  0
   19.6587  -17.8999    5.1184 C   0  0  0  0  0  0  0  0  0  0  0  0
   19.9211  -16.9016    4.1755 C   0  0  0  0  0  0  0  0  0  0  0  0
   20.6065  -15.8153    4.4937 N   0  0  0  0  0  0  0  0  0  0  0  0
   19.9957  -18.0068    6.4478 N   0  0  0  0  0  0  0  0  0  0  0  0
   19.4551  -19.1605    6.7943 C   0  0  0  0  0  0  0  0  0  0  0  0
   18.8202  -19.8115    5.7586 N   0  0  0  0  0  0  0  0  0  0  0  0
  1  2  2  0  0  0  0
  2  3  1  0  0  0  0
  3  4  2  0  0  0  0
  5  4  1  0  0  0  0
  5  6  2  0  0  0  0
  6  1  1  0  0  0  0
  6  7  1  0  0  0  0
  8  5  1  0  0  0  0
  9  8  1  0  0  0  0
 10  4  1  0  0  0  0
 10  9  2  0  0  0  0
M  END
>  <CHROM.1>
19.41364478,-18.10387713,4.63918089,1.39900807,-1.02333656,-1.07757907

>  <Name>
1y26_lig

>  <RI>
0

>  <Rbt.Current_Directory>
/home/afrankz/demos/rdock_decoys_rna/rnas/1y26

>  <Rbt.Executable>
rbdock ($Id: //depot/dev/client3/rdock/2013.1/src/exe/rbdock.cxx#4 $)

>  <Rbt.Library>
libRbt.so (2013.1, Build901 2013/11/27)

>  <Rbt.Parameter_File>
/export/apps/rDock/src/rDock_2013.1_src/data/scripts/dock_solv.prm

>  <Rbt.Receptor>
prm/blind_docking_40.prm

>  <SCORE>
-26.6846

>  <SCORE.INTER>
-26.6846

>  <SCORE.INTER.CONST>
1

>  <SCORE.INTER.POLAR>
-2.0198

>  <SCORE.INTER.ROT>
0

>  <SCORE.INTER.SOLV>
12.735

>  <SCORE.INTER.VDW>
-18.902

>  <SCORE.INTER.norm>
-2.66846

>  <SCORE.INTRA>
0

>  <SCORE.INTRA.DIHEDRAL>
0

>  <SCORE.INTRA.DIHEDRAL.0>
0

>  <SCORE.INTRA.POLAR>
0

>  <SCORE.INTRA.POLAR.0>
0

>  <SCORE.INTRA.REPUL>
0

>  <SCORE.INTRA.REPUL.0>
0

>  <SCORE.INTRA.SOLV>
0

>  <SCORE.INTRA.SOLV.lig_0>
-16.9472

>  <SCORE.INTRA.VDW>
0

>  <SCORE.INTRA.VDW.0>
0

>  <SCORE.INTRA.norm>
0

>  <SCORE.RESTR>
0

>  <SCORE.RESTR.CAVITY>
0

>  <SCORE.RESTR.norm>
0

>  <SCORE.SYSTEM>
0

>  <SCORE.SYSTEM.CONST>
0

>  <SCORE.SYSTEM.DIHEDRAL>
0

>  <SCORE.SYSTEM.SOLV>
0

>  <SCORE.SYSTEM.norm>
0

>  <SCORE.heavy>
10

>  <SCORE.norm>
-2.66846

>  <RMSD>
0.604

$$$$
1y26_lig
 OpenBabel02141814133D
libRbt.so/2013.1/901 2013/11/27
 10 11  0  0  0  0  0  0  0  0999 V2000
   19.4662  -17.0695    2.9182 N   0  0  0  0  0  0  0  0  0  0  0  0
   18.7794  -18.1758    2.6222 C   0  0  0  0  0  0  0  0  0  0  0  0
   18.4798  -19.2004    3.4180 N   0  0  0  0  0  0  0  0  0  0  0  0
   18.9512  -18.9931    4.6682 C   0  0  0  0  0  0  0  0  0  0  0  0
   19.6622  -17.8987    5.1190 C   0  0  0  0  0  0  0  0  0  0  0  0
   19.9241  -16.9004    4.1759 C   0  0  0  0  0  0  0  0  0  0  0  0
   20.6115  -15.8151    4.4932 N   0  0  0  0  0  0  0  0  0  0  0  0
   20.0018  -18.0066    6.4477 N   0  0  0  0  0  0  0  0  0  0  0  0
   19.4603  -19.1598    6.7948 C   0  0  0  0  0  0  0  0  0  0  0  0
   18.8225  -19.8095    5.7601 N   0  0  0  0  0  0  0  0  0  0  0  0
  1  2  2  0  0  0  0
  2  3  1  0  0  0  0
  3  4  2  0  0  0  0
  5  4  1  0  0  0  0
  5  6  2  0  0  0  0
  6  1  1  0  0  0  0
  6  7  1  0  0  0  0
  8  5  1  0  0  0  0
  9  8  1  0  0  0  0
 10  4  1  0  0  0  0
 10  9  2  0  0  0  0
M  END
>  <CHROM.1>
19.41594813,-18.10225222,4.64014759,1.40119066,-1.02125802,-1.07534070

>  <Name>
1y26_lig

>  <RI>
0

>  <Rbt.Current_Directory>
/home/afrankz/demos/rdock_decoys_rna/rnas/1y26

>  <Rbt.Executable>
rbdock ($Id: //depot/dev/client3/rdock/2013.1/src/exe/rbdock.cxx#4 $)

>  <Rbt.Library>
libRbt.so (2013.1, Build901 2013/11/27)

>  <Rbt.Parameter_File>
/export/apps/rDock/src/rDock_2013.1_src/data/scripts/dock_solv.prm

>  <Rbt.Receptor>
prm/pocket_docking_4.prm

>  <SCORE>
-26.6843

>  <SCORE.INTER>
-26.6843

>  <SCORE.INTER.CONST>
1

>  <SCORE.INTER.POLAR>
-2.0198

>  <SCORE.INTER.ROT>
0

>  <SCORE.INTER.SOLV>
12.7311

>  <SCORE.INTER.VDW>
-18.9005

>  <SCORE.INTER.norm>
-2.66843

>  <SCORE.INTRA>
0

>  <SCORE.INTRA.DIHEDRAL>
0

>  <SCORE.INTRA.DIHEDRAL.0>
0

>  <SCORE.INTRA.POLAR>
0

>  <SCORE.INTRA.POLAR.0>
0

>  <SCORE.INTRA.REPUL>
0

>  <SCORE.INTRA.REPUL.0>
0

>  <SCORE.INTRA.SOLV>
0

>  <SCORE.INTRA.SOLV.lig_0>
-16.9472

>  <SCORE.INTRA.VDW>
0

>  <SCORE.INTRA.VDW.0>
0

>  <SCORE.INTRA.norm>
0

>  <SCORE.RESTR>
0

>  <SCORE.RESTR.CAVITY>
0

>  <SCORE.RESTR.norm>
0

>  <SCORE.SYSTEM>
0

>  <SCORE.SYSTEM.CONST>
0

>  <SCORE.SYSTEM.DIHEDRAL>
0

>  <SCORE.SYSTEM.SOLV>
0

>  <SCORE.SYSTEM.norm>
0

>  <SCORE.heavy>
10

>  <SCORE.norm>
-2.66843

>  <RMSD>
0.604

$$$$
1y26_lig
 OpenBabel02141814133D
libRbt.so/2013.1/901 2013/11/27
 10 11  0  0  0  0  0  0  0  0999 V2000
   19.4717  -17.0695    2.9192 N   0  0  0  0  0  0  0  0  0  0  0  0
   18.7827  -18.1744    2.6229 C   0  0  0  0  0  0  0  0  0  0  0  0
   18.4814  -19.1988    3.4184 N   0  0  0  0  0  0  0  0  0  0  0  0
   18.9534  -18.9928    4.6686 C   0  0  0  0  0  0  0  0  0  0  0  0
   19.6666  -17.9000    5.1196 C   0  0  0  0  0  0  0  0  0  0  0  0
   19.9301  -16.9018    4.1769 C   0  0  0  0  0  0  0  0  0  0  0  0
   20.6196  -15.8179    4.4944 N   0  0  0  0  0  0  0  0  0  0  0  0
   20.0062  -18.0089    6.4482 N   0  0  0  0  0  0  0  0  0  0  0  0
   19.4627  -19.1612    6.7950 C   0  0  0  0  0  0  0  0  0  0  0  0
   18.8234  -19.8094    5.7602 N   0  0  0  0  0  0  0  0  0  0  0  0
  1  2  2  0  0  0  0
  2  3  1  0  0  0  0
  3  4  2  0  0  0  0
  5  4  1  0  0  0  0
  5  6  2  0  0  0  0
  6  1  1  0  0  0  0
  6  7  1  0  0  0  0
  8  5  1  0  0  0  0
  9  8  1  0  0  0  0
 10  4  1  0  0  0  0
 10  9  2  0  0  0  0
M  END
>  <CHROM.1>
19.41983765,-18.10282411,4.64075810,1.39983928,-1.01952795,-1.07611692

>  <Name>
1y26_lig

>  <RI>
0

>  <Rbt.Current_Directory>
/home/afrankz/demos/rdock_decoys_rna/rnas/1y26

>  <Rbt.Executable>
rbdock ($Id: //depot/dev/client3/rdock/2013.1/src/exe/rbdock.cxx#4 $)

>  <Rbt.Library>
libRbt.so (2013.1, Build901 2013/11/27)

>  <Rbt.Parameter_File>
/export/apps/rDock/src/rDock_2013.1_src/data/scripts/dock_solv.prm

>  <Rbt.Receptor>
prm/blind_docking_40.prm

>  <SCORE>
-26.684

>  <SCORE.INTER>
-26.684

>  <SCORE.INTER.CONST>
1

>  <SCORE.INTER.POLAR>
-2.0198

>  <SCORE.INTER.ROT>
0

>  <SCORE.INTER.SOLV>
12.7179

>  <SCORE.INTER.VDW>
-18.8959

>  <SCORE.INTER.norm>
-2.6684

>  <SCORE.INTRA>
0

>  <SCORE.INTRA.DIHEDRAL>
0

>  <SCORE.INTRA.DIHEDRAL.0>
0

>  <SCORE.INTRA.POLAR>
0

>  <SCORE.INTRA.POLAR.0>
0

>  <SCORE.INTRA.REPUL>
0

>  <SCORE.INTRA.REPUL.0>
0

>  <SCORE.INTRA.SOLV>
0

>  <SCORE.INTRA.SOLV.lig_0>
-16.9472

>  <SCORE.INTRA.VDW>
0

>  <SCORE.INTRA.VDW.0>
0

>  <SCORE.INTRA.norm>
0

>  <SCORE.RESTR>
0

>  <SCORE.RESTR.CAVITY>
0

>  <SCORE.RESTR.norm>
0

>  <SCORE.SYSTEM>
0

>  <SCORE.SYSTEM.CONST>
0

>  <SCORE.SYSTEM.DIHEDRAL>
0

>  <SCORE.SYSTEM.SOLV>
0

>  <SCORE.SYSTEM.norm>
0

>  <SCORE.heavy>
10

>  <SCORE.norm>
-2.6684

>  <RMSD>
0.605

$$$$
1y26_lig
 OpenBabel02141814133D
libRbt.so/2013.1/901 2013/11/27
 10 11  0  0  0  0  0  0  0  0999 V2000
   19.4735  -17.0694    2.9190 N   0  0  0  0  0  0  0  0  0  0  0  0
   18.7830  -18.1742    2.6262 C   0  0  0  0  0  0  0  0  0  0  0  0
   18.4780  -19.1944    3.4255 N   0  0  0  0  0  0  0  0  0  0  0  0
   18.9477  -18.9838    4.6758 C   0  0  0  0  0  0  0  0  0  0  0  0
   19.6620  -17.8904    5.1236 C   0  0  0  0  0  0  0  0  0  0  0  0
   19.9295  -16.8969    4.1770 C   0  0  0  0  0  0  0  0  0  0  0  0
   20.6205  -15.8129    4.4912 N   0  0  0  0  0  0  0  0  0  0  0  0
   19.9985  -17.9941    6.4534 N   0  0  0  0  0  0  0  0  0  0  0  0
   19.4520  -19.1438    6.8041 C   0  0  0  0  0  0  0  0  0  0  0  0
   18.8137  -19.7953    5.7708 N   0  0  0  0  0  0  0  0  0  0  0  0
  1  2  2  0  0  0  0
  2  3  1  0  0  0  0
  3  4  2  0  0  0  0
  5  4  1  0  0  0  0
  5  6  2  0  0  0  0
  6  1  1  0  0  0  0
  6  7  1  0  0  0  0
  8  5  1  0  0  0  0
  9  8  1  0  0  0  0
 10  4  1  0  0  0  0
 10  9  2  0  0  0  0
M  END
>  <CHROM.1>
19.41589135,-18.09487375,4.64509241,1.39442959,-1.01882002,-1.08516300

>  <Name>
1y26_lig

>  <RI>
0

>  <Rbt.Current_Directory>
/home/afrankz/demos/rdock_decoys_rna/rnas/1y26

>  <Rbt.Executable>
rbdock ($Id: //depot/dev/client3/rdock/2013.1/src/exe/rbdock.cxx#4 $)

>  <Rbt.Library>
libRbt.so (2013.1, Build901 2013/11/27)

>  <Rbt.Parameter_File>
/export/apps/rDock/src/rDock_2013.1_src/data/scripts/dock_solv.prm

>  <Rbt.Receptor>
prm/blind_docking_40.prm

>  <SCORE>
-26.6961

>  <SCORE.INTER>
-26.6961

>  <SCORE.INTER.CONST>
1

>  <SCORE.INTER.POLAR>
-2.0198

>  <SCORE.INTER.ROT>
0

>  <SCORE.INTER.SOLV>
12.7073

>  <SCORE.INTER.VDW>
-18.9005

>  <SCORE.INTER.norm>
-2.66961

>  <SCORE.INTRA>
0

>  <SCORE.INTRA.DIHEDRAL>
0

>  <SCORE.INTRA.DIHEDRAL.0>
0

>  <SCORE.INTRA.POLAR>
0

>  <SCORE.INTRA.POLAR.0>
0

>  <SCORE.INTRA.REPUL>
0

>  <SCORE.INTRA.REPUL.0>
0

>  <SCORE.INTRA.SOLV>
0

>  <SCORE.INTRA.SOLV.lig_0>
-16.9472

>  <SCORE.INTRA.VDW>
0

>  <SCORE.INTRA.VDW.0>
0

>  <SCORE.INTRA.norm>
0

>  <SCORE.RESTR>
0

>  <SCORE.RESTR.CAVITY>
0

>  <SCORE.RESTR.norm>
0

>  <SCORE.SYSTEM>
0

>  <SCORE.SYSTEM.CONST>
0

>  <SCORE.SYSTEM.DIHEDRAL>
0

>  <SCORE.SYSTEM.SOLV>
0

>  <SCORE.SYSTEM.norm>
0

>  <SCORE.heavy>
10

>  <SCORE.norm>
-2.66961

>  <RMSD>
0.605

$$$$
1y26_lig
 OpenBabel02141814133D
libRbt.so/2013.1/901 2013/11/27
 10 11  0  0  0  0  0  0  0  0999 V2000
   19.4531  -17.0728    2.9166 N   0  0  0  0  0  0  0  0  0  0  0  0
   18.7759  -18.1854    2.6222 C   0  0  0  0  0  0  0  0  0  0  0  0
   18.4843  -19.2110    3.4197 N   0  0  0  0  0  0  0  0  0  0  0  0
   18.9529  -18.9973    4.6699 C   0  0  0  0  0  0  0  0  0  0  0  0
   19.6543  -17.8961    5.1192 C   0  0  0  0  0  0  0  0  0  0  0  0
   19.9086  -16.8975    4.1744 C   0  0  0  0  0  0  0  0  0  0  0  0
   20.5866  -15.8058    4.4901 N   0  0  0  0  0  0  0  0  0  0  0  0
   19.9937  -17.9986    6.4483 N   0  0  0  0  0  0  0  0  0  0  0  0
   19.4617  -19.1556    6.7972 C   0  0  0  0  0  0  0  0  0  0  0  0
   18.8302  -19.8126    5.7633 N   0  0  0  0  0  0  0  0  0  0  0  0
  1  2  2  0  0  0  0
  2  3  1  0  0  0  0
  3  4  2  0  0  0  0
  5  4  1  0  0  0  0
  5  6  2  0  0  0  0
  6  1  1  0  0  0  0
  6  7  1  0  0  0  0
  8  5  1  0  0  0  0
  9  8  1  0  0  0  0
 10  4  1  0  0  0  0
 10  9  2  0  0  0  0
M  END
>  <CHROM.1>
19.41017659,-18.10262484,4.64051831,1.40756994,-1.02902369,-1.07181138

>  <Name>
1y26_lig

>  <RI>
0

>  <Rbt.Current_Directory>
/home/afrankz/demos/rdock_decoys_rna/rnas/1y26

>  <Rbt.Executable>
rbdock ($Id: //depot/dev/client3/rdock/2013.1/src/exe/rbdock.cxx#4 $)

>  <Rbt.Library>
libRbt.so (2013.1, Build901 2013/11/27)

>  <Rbt.Parameter_File>
/export/apps/rDock/src/rDock_2013.1_src/data/scripts/dock_solv.prm

>  <Rbt.Receptor>
prm/blind_docking_40.prm

>  <SCORE>
-26.6824

>  <SCORE.INTER>
-26.6824

>  <SCORE.INTER.CONST>
1

>  <SCORE.INTER.POLAR>
-2.0198

>  <SCORE.INTER.ROT>
0

>  <SCORE.INTER.SOLV>
12.7692

>  <SCORE.INTER.VDW>
-18.912

>  <SCORE.INTER.norm>
-2.66824

>  <SCORE.INTRA>
0

>  <SCORE.INTRA.DIHEDRAL>
0

>  <SCORE.INTRA.DIHEDRAL.0>
0

>  <SCORE.INTRA.POLAR>
0

>  <SCORE.INTRA.POLAR.0>
0

>  <SCORE.INTRA.REPUL>
0

>  <SCORE.INTRA.REPUL.0>
0

>  <SCORE.INTRA.SOLV>
0

>  <SCORE.INTRA.SOLV.lig_0>
-16.9472

>  <SCORE.INTRA.VDW>
0

>  <SCORE.INTRA.VDW.0>
0

>  <SCORE.INTRA.norm>
0

>  <SCORE.RESTR>
0

>  <SCORE.RESTR.CAVITY>
0

>  <SCORE.RESTR.norm>
0

>  <SCORE.SYSTEM>
0

>  <SCORE.SYSTEM.CONST>
0

>  <SCORE.SYSTEM.DIHEDRAL>
0

>  <SCORE.SYSTEM.SOLV>
0

>  <SCORE.SYSTEM.norm>
0

>  <SCORE.heavy>
10

>  <SCORE.norm>
-2.66824

>  <RMSD>
0.605

$$$$
1y26_lig
 OpenBabel02141814133D
libRbt.so/2013.1/901 2013/11/27
 10 11  0  0  0  0  0  0  0  0999 V2000
   19.6210  -17.0480    2.9109 N   0  0  0  0  0  0  0  0  0  0  0  0
   18.9357  -18.1500    2.5960 C   0  0  0  0  0  0  0  0  0  0  0  0
   18.5738  -19.1541    3.3921 N   0  0  0  0  0  0  0  0  0  0  0  0
   18.9737  -18.9285    4.6638 C   0  0  0  0  0  0  0  0  0  0  0  0
   19.6738  -17.8357    5.1350 C   0  0  0  0  0  0  0  0  0  0  0  0
   20.0064  -16.8604    4.1902 C   0  0  0  0  0  0  0  0  0  0  0  0
   20.6907  -15.7789    4.5268 N   0  0  0  0  0  0  0  0  0  0  0  0
   19.9326  -17.9218    6.4833 N   0  0  0  0  0  0  0  0  0  0  0  0
   19.3538  -19.0599    6.8197 C   0  0  0  0  0  0  0  0  0  0  0  0
   18.7681  -19.7210    5.7617 N   0  0  0  0  0  0  0  0  0  0  0  0
  1  2  2  0  0  0  0
  2  3  1  0  0  0  0
  3  4  2  0  0  0  0
  5  4  1  0  0  0  0
  5  6  2  0  0  0  0
  6  1  1  0  0  0  0
  6  7  1  0  0  0  0
  8  5  1  0  0  0  0
  9  8  1  0  0  0  0
 10  4  1  0  0  0  0
 10  9  2  0  0  0  0
M  END
>  <CHROM.1>
19.45311208,-18.04520600,4.64636943,1.28516596,-1.03269666,-1.19426863

>  <Name>
1y26_lig

>  <RI>
224

>  <Rbt.Current_Directory>
/home/afrankz/demos/rdock_decoys_rna/rnas/1y26

>  <Rbt.Executable>
rbdock ($Id: //depot/dev/client3/rdock/2013.1/src/exe/rbdock.cxx#4 $)

>  <Rbt.Library>
libRbt.so (2013.1, Build901 2013/11/27)

>  <Rbt.Parameter_File>
/export/apps/rDock/src/rDock_2013.1_src/data/scripts/dock_solv.prm

>  <Rbt.Receptor>
prm/blind_docking_80.prm

>  <SCORE>
-26.5447

>  <SCORE.INTER>
-26.5447

>  <SCORE.INTER.CONST>
1

>  <SCORE.INTER.POLAR>
-2.0198

>  <SCORE.INTER.ROT>
0

>  <SCORE.INTER.SOLV>
12.4732

>  <SCORE.INTER.VDW>
-18.7215

>  <SCORE.INTER.norm>
-2.65447

>  <SCORE.INTRA>
0

>  <SCORE.INTRA.DIHEDRAL>
0

>  <SCORE.INTRA.DIHEDRAL.0>
0

>  <SCORE.INTRA.POLAR>
0

>  <SCORE.INTRA.POLAR.0>
0

>  <SCORE.INTRA.REPUL>
0

>  <SCORE.INTRA.REPUL.0>
0

>  <SCORE.INTRA.SOLV>
0

>  <SCORE.INTRA.SOLV.lig_0>
-16.9472

>  <SCORE.INTRA.VDW>
0

>  <SCORE.INTRA.VDW.0>
0

>  <SCORE.INTRA.norm>
0

>  <SCORE.RESTR>
0

>  <SCORE.RESTR.CAVITY>
0

>  <SCORE.RESTR.norm>
0

>  <SCORE.SYSTEM>
0

>  <SCORE.SYSTEM.CONST>
0

>  <SCORE.SYSTEM.DIHEDRAL>
0

>  <SCORE.SYSTEM.SOLV>
0

>  <SCORE.SYSTEM.norm>
0

>  <SCORE.heavy>
10

>  <SCORE.norm>
-2.65447

>  <RMSD>
0.605

$$$$
1y26_lig
 OpenBabel02141814133D
libRbt.so/2013.1/901 2013/11/27
 10 11  0  0  0  0  0  0  0  0999 V2000
   19.4581  -17.0721    2.9184 N   0  0  0  0  0  0  0  0  0  0  0  0
   18.7725  -18.1812    2.6303 C   0  0  0  0  0  0  0  0  0  0  0  0
   18.4733  -19.2001    3.4336 N   0  0  0  0  0  0  0  0  0  0  0  0
   18.9435  -18.9828    4.6826 C   0  0  0  0  0  0  0  0  0  0  0  0
   19.6532  -17.8844    5.1256 C   0  0  0  0  0  0  0  0  0  0  0  0
   19.9148  -16.8930    4.1752 C   0  0  0  0  0  0  0  0  0  0  0  0
   20.6010  -15.8047    4.4847 N   0  0  0  0  0  0  0  0  0  0  0  0
   19.9918  -17.9818    6.4553 N   0  0  0  0  0  0  0  0  0  0  0  0
   19.4512  -19.1329    6.8107 C   0  0  0  0  0  0  0  0  0  0  0  0
   18.8147  -19.7910    5.7806 N   0  0  0  0  0  0  0  0  0  0  0  0
  1  2  2  0  0  0  0
  2  3  1  0  0  0  0
  3  4  2  0  0  0  0
  5  4  1  0  0  0  0
  5  6  2  0  0  0  0
  6  1  1  0  0  0  0
  6  7  1  0  0  0  0
  8  5  1  0  0  0  0
  9  8  1  0  0  0  0
 10  4  1  0  0  0  0
 10  9  2  0  0  0  0
M  END
>  <CHROM.1>
19.40747170,-18.09174293,4.64810622,1.40076022,-1.02244443,-1.08329431

>  <Name>
1y26_lig

>  <RI>
224

>  <Rbt.Current_Directory>
/home/afrankz/demos/rdock_decoys_rna/rnas/1y26

>  <Rbt.Executable>
rbdock ($Id: //depot/dev/client3/rdock/2013.1/src/exe/rbdock.cxx#4 $)

>  <Rbt.Library>
libRbt.so (2013.1, Build901 2013/11/27)

>  <Rbt.Parameter_File>
/export/apps/rDock/src/rDock_2013.1_src/data/scripts/dock_solv.prm

>  <Rbt.Receptor>
prm/blind_docking_80.prm

>  <SCORE>
-26.659

>  <SCORE.INTER>
-26.659

>  <SCORE.INTER.CONST>
1

>  <SCORE.INTER.POLAR>
-2.0198

>  <SCORE.INTER.ROT>
0

>  <SCORE.INTER.SOLV>
12.7363

>  <SCORE.INTER.VDW>
-18.8854

>  <SCORE.INTER.norm>
-2.6659

>  <SCORE.INTRA>
0

>  <SCORE.INTRA.DIHEDRAL>
0

>  <SCORE.INTRA.DIHEDRAL.0>
0

>  <SCORE.INTRA.POLAR>
0

>  <SCORE.INTRA.POLAR.0>
0

>  <SCORE.INTRA.REPUL>
0

>  <SCORE.INTRA.REPUL.0>
0

>  <SCORE.INTRA.SOLV>
0

>  <SCORE.INTRA.SOLV.lig_0>
-16.9472

>  <SCORE.INTRA.VDW>
0

>  <SCORE.INTRA.VDW.0>
0

>  <SCORE.INTRA.norm>
0

>  <SCORE.RESTR>
0

>  <SCORE.RESTR.CAVITY>
0

>  <SCORE.RESTR.norm>
0

>  <SCORE.SYSTEM>
0

>  <SCORE.SYSTEM.CONST>
0

>  <SCORE.SYSTEM.DIHEDRAL>
0

>  <SCORE.SYSTEM.SOLV>
0

>  <SCORE.SYSTEM.norm>
0

>  <SCORE.heavy>
10

>  <SCORE.norm>
-2.6659

>  <RMSD>
0.605

$$$$
1y26_lig
 OpenBabel02141814133D
libRbt.so/2013.1/901 2013/11/27
 10 11  0  0  0  0  0  0  0  0999 V2000
   19.4734  -17.0725    2.9197 N   0  0  0  0  0  0  0  0  0  0  0  0
   18.7776  -18.1747    2.6296 C   0  0  0  0  0  0  0  0  0  0  0  0
   18.4703  -19.1929    3.4306 N   0  0  0  0  0  0  0  0  0  0  0  0
   18.9439  -18.9831    4.6796 C   0  0  0  0  0  0  0  0  0  0  0  0
   19.6638  -17.8922    5.1246 C   0  0  0  0  0  0  0  0  0  0  0  0
   19.9332  -16.9007    4.1764 C   0  0  0  0  0  0  0  0  0  0  0  0
   20.6294  -15.8193    4.4879 N   0  0  0  0  0  0  0  0  0  0  0  0
   20.0031  -17.9961    6.4536 N   0  0  0  0  0  0  0  0  0  0  0  0
   19.4527  -19.1432    6.8068 C   0  0  0  0  0  0  0  0  0  0  0  0
   18.8092  -19.7930    5.7756 N   0  0  0  0  0  0  0  0  0  0  0  0
  1  2  2  0  0  0  0
  2  3  1  0  0  0  0
  3  4  2  0  0  0  0
  5  4  1  0  0  0  0
  5  6  2  0  0  0  0
  6  1  1  0  0  0  0
  6  7  1  0  0  0  0
  8  5  1  0  0  0  0
  9  8  1  0  0  0  0
 10  4  1  0  0  0  0
 10  9  2  0  0  0  0
M  END
>  <CHROM.1>
19.41571768,-18.09612460,4.64686745,1.39480258,-1.01402533,-1.08578665

>  <Name>
1y26_lig

>  <RI>
224

>  <Rbt.Current_Directory>
/home/afrankz/demos/rdock_decoys_rna/rnas/1y26

>  <Rbt.Executable>
rbdock ($Id: //depot/dev/client3/rdock/2013.1/src/exe/rbdock.cxx#4 $)

>  <Rbt.Library>
libRbt.so (2013.1, Build901 2013/11/27)

>  <Rbt.Parameter_File>
/export/apps/rDock/src/rDock_2013.1_src/data/scripts/dock_solv.prm

>  <Rbt.Receptor>
prm/pocket_docking_3.prm

>  <SCORE>
-26.6949

>  <SCORE.INTER>
-26.6949

>  <SCORE.INTER.CONST>
1

>  <SCORE.INTER.POLAR>
-2.0198

>  <SCORE.INTER.ROT>
0

>  <SCORE.INTER.SOLV>
12.691

>  <SCORE.INTER.VDW>
-18.8942

>  <SCORE.INTER.norm>
-2.66949

>  <SCORE.INTRA>
0

>  <SCORE.INTRA.DIHEDRAL>
0

>  <SCORE.INTRA.DIHEDRAL.0>
0

>  <SCORE.INTRA.POLAR>
0

>  <SCORE.INTRA.POLAR.0>
0

>  <SCORE.INTRA.REPUL>
0

>  <SCORE.INTRA.REPUL.0>
0

>  <SCORE.INTRA.SOLV>
0

>  <SCORE.INTRA.SOLV.lig_0>
-16.9472

>  <SCORE.INTRA.VDW>
0

>  <SCORE.INTRA.VDW.0>
0

>  <SCORE.INTRA.norm>
0

>  <SCORE.RESTR>
0

>  <SCORE.RESTR.CAVITY>
0

>  <SCORE.RESTR.norm>
0

>  <SCORE.SYSTEM>
0

>  <SCORE.SYSTEM.CONST>
0

>  <SCORE.SYSTEM.DIHEDRAL>
0

>  <SCORE.SYSTEM.SOLV>
0

>  <SCORE.SYSTEM.norm>
0

>  <SCORE.heavy>
10

>  <SCORE.norm>
-2.66949

>  <RMSD>
0.605

$$$$
1y26_lig
 OpenBabel02141814133D
libRbt.so/2013.1/901 2013/11/27
 10 11  0  0  0  0  0  0  0  0999 V2000
   19.4656  -17.0704    2.9174 N   0  0  0  0  0  0  0  0  0  0  0  0
   18.7830  -18.1792    2.6212 C   0  0  0  0  0  0  0  0  0  0  0  0
   18.4855  -19.2042    3.4174 N   0  0  0  0  0  0  0  0  0  0  0  0
   18.9540  -18.9941    4.6683 C   0  0  0  0  0  0  0  0  0  0  0  0
   19.6605  -17.8969    5.1193 C   0  0  0  0  0  0  0  0  0  0  0  0
   19.9206  -16.8986    4.1758 C   0  0  0  0  0  0  0  0  0  0  0  0
   20.6038  -15.8106    4.4932 N   0  0  0  0  0  0  0  0  0  0  0  0
   19.9981  -18.0024    6.4487 N   0  0  0  0  0  0  0  0  0  0  0  0
   19.4599  -19.1571    6.7959 C   0  0  0  0  0  0  0  0  0  0  0  0
   18.8261  -19.8099    5.7607 N   0  0  0  0  0  0  0  0  0  0  0  0
  1  2  2  0  0  0  0
  2  3  1  0  0  0  0
  3  4  2  0  0  0  0
  5  4  1  0  0  0  0
  5  6  2  0  0  0  0
  6  1  1  0  0  0  0
  6  7  1  0  0  0  0
  8  5  1  0  0  0  0
  9  8  1  0  0  0  0
 10  4  1  0  0  0  0
 10  9  2  0  0  0  0
M  END
>  <CHROM.1>
19.41577865,-18.10168530,4.64022813,1.40129368,-1.02508973,-1.07617537

>  <Name>
1y26_lig

>  <RI>
0

>  <Rbt.Current_Directory>
/home/afrankz/demos/rdock_decoys_rna/rnas/1y26

>  <Rbt.Executable>
rbdock ($Id: //depot/dev/client3/rdock/2013.1/src/exe/rbdock.cxx#4 $)

>  <Rbt.Library>
libRbt.so (2013.1, Build901 2013/11/27)

>  <Rbt.Parameter_File>
/export/apps/rDock/src/rDock_2013.1_src/data/scripts/dock_solv.prm

>  <Rbt.Receptor>
prm/pocket_docking_5.prm

>  <SCORE>
-26.6862

>  <SCORE.INTER>
-26.6862

>  <SCORE.INTER.CONST>
1

>  <SCORE.INTER.POLAR>
-2.0198

>  <SCORE.INTER.ROT>
0

>  <SCORE.INTER.SOLV>
12.7405

>  <SCORE.INTER.VDW>
-18.905

>  <SCORE.INTER.norm>
-2.66862

>  <SCORE.INTRA>
0

>  <SCORE.INTRA.DIHEDRAL>
0

>  <SCORE.INTRA.DIHEDRAL.0>
0

>  <SCORE.INTRA.POLAR>
0

>  <SCORE.INTRA.POLAR.0>
0

>  <SCORE.INTRA.REPUL>
0

>  <SCORE.INTRA.REPUL.0>
0

>  <SCORE.INTRA.SOLV>
0

>  <SCORE.INTRA.SOLV.lig_0>
-16.9472

>  <SCORE.INTRA.VDW>
0

>  <SCORE.INTRA.VDW.0>
0

>  <SCORE.INTRA.norm>
0

>  <SCORE.RESTR>
0

>  <SCORE.RESTR.CAVITY>
0

>  <SCORE.RESTR.norm>
0

>  <SCORE.SYSTEM>
0

>  <SCORE.SYSTEM.CONST>
0

>  <SCORE.SYSTEM.DIHEDRAL>
0

>  <SCORE.SYSTEM.SOLV>
0

>  <SCORE.SYSTEM.norm>
0

>  <SCORE.heavy>
10

>  <SCORE.norm>
-2.66862

>  <RMSD>
0.605

$$$$
1y26_lig
 OpenBabel02141814133D
libRbt.so/2013.1/901 2013/11/27
 10 11  0  0  0  0  0  0  0  0999 V2000
   19.4594  -17.0711    2.9180 N   0  0  0  0  0  0  0  0  0  0  0  0
   18.7769  -18.1804    2.6235 C   0  0  0  0  0  0  0  0  0  0  0  0
   18.4822  -19.2056    3.4203 N   0  0  0  0  0  0  0  0  0  0  0  0
   18.9538  -18.9954    4.6699 C   0  0  0  0  0  0  0  0  0  0  0  0
   19.6607  -17.8978    5.1193 C   0  0  0  0  0  0  0  0  0  0  0  0
   19.9177  -16.8992    4.1752 C   0  0  0  0  0  0  0  0  0  0  0  0
   20.6009  -15.8108    4.4910 N   0  0  0  0  0  0  0  0  0  0  0  0
   20.0018  -18.0032    6.4477 N   0  0  0  0  0  0  0  0  0  0  0  0
   19.4654  -19.1584    6.7962 C   0  0  0  0  0  0  0  0  0  0  0  0
   18.8293  -19.8115    5.7626 N   0  0  0  0  0  0  0  0  0  0  0  0
  1  2  2  0  0  0  0
  2  3  1  0  0  0  0
  3  4  2  0  0  0  0
  5  4  1  0  0  0  0
  5  6  2  0  0  0  0
  6  1  1  0  0  0  0
  6  7  1  0  0  0  0
  8  5  1  0  0  0  0
  9  8  1  0  0  0  0
 10  4  1  0  0  0  0
 10  9  2  0  0  0  0
M  END
>  <CHROM.1>
19.41485783,-18.10267770,4.64081806,1.40638005,-1.02444323,-1.07168218

>  <Name>
1y26_lig

>  <RI>
224

>  <Rbt.Current_Directory>
/home/afrankz/demos/rdock_decoys_rna/rnas/1y26

>  <Rbt.Executable>
rbdock ($Id: //depot/dev/client3/rdock/2013.1/src/exe/rbdock.cxx#4 $)

>  <Rbt.Library>
libRbt.so (2013.1, Build901 2013/11/27)

>  <Rbt.Parameter_File>
/export/apps/rDock/src/rDock_2013.1_src/data/scripts/dock_solv.prm

>  <Rbt.Receptor>
prm/pocket_docking_7.prm

>  <SCORE>
-26.6831

>  <SCORE.INTER>
-26.6831

>  <SCORE.INTER.CONST>
1

>  <SCORE.INTER.POLAR>
-2.0198

>  <SCORE.INTER.ROT>
0

>  <SCORE.INTER.SOLV>
12.7491

>  <SCORE.INTER.VDW>
-18.9058

>  <SCORE.INTER.norm>
-2.66831

>  <SCORE.INTRA>
0

>  <SCORE.INTRA.DIHEDRAL>
0

>  <SCORE.INTRA.DIHEDRAL.0>
0

>  <SCORE.INTRA.POLAR>
0

>  <SCORE.INTRA.POLAR.0>
0

>  <SCORE.INTRA.REPUL>
0

>  <SCORE.INTRA.REPUL.0>
0

>  <SCORE.INTRA.SOLV>
0

>  <SCORE.INTRA.SOLV.lig_0>
-16.9472

>  <SCORE.INTRA.VDW>
0

>  <SCORE.INTRA.VDW.0>
0

>  <SCORE.INTRA.norm>
0

>  <SCORE.RESTR>
0

>  <SCORE.RESTR.CAVITY>
0

>  <SCORE.RESTR.norm>
0

>  <SCORE.SYSTEM>
0

>  <SCORE.SYSTEM.CONST>
0

>  <SCORE.SYSTEM.DIHEDRAL>
0

>  <SCORE.SYSTEM.SOLV>
0

>  <SCORE.SYSTEM.norm>
0

>  <SCORE.heavy>
10

>  <SCORE.norm>
-2.66831

>  <RMSD>
0.605

$$$$
1y26_lig
 OpenBabel02141814133D
libRbt.so/2013.1/901 2013/11/27
 10 11  0  0  0  0  0  0  0  0999 V2000
   19.4663  -17.0694    2.9199 N   0  0  0  0  0  0  0  0  0  0  0  0
   18.7808  -18.1761    2.6223 C   0  0  0  0  0  0  0  0  0  0  0  0
   18.4803  -19.2011    3.4172 N   0  0  0  0  0  0  0  0  0  0  0  0
   18.9491  -18.9938    4.6684 C   0  0  0  0  0  0  0  0  0  0  0  0
   19.6585  -17.8991    5.1209 C   0  0  0  0  0  0  0  0  0  0  0  0
   19.9216  -16.9004    4.1786 C   0  0  0  0  0  0  0  0  0  0  0  0
   20.6077  -15.8147    4.4974 N   0  0  0  0  0  0  0  0  0  0  0  0
   19.9955  -18.0071    6.4502 N   0  0  0  0  0  0  0  0  0  0  0  0
   19.4542  -19.1607    6.7959 C   0  0  0  0  0  0  0  0  0  0  0  0
   18.8188  -19.8106    5.7598 N   0  0  0  0  0  0  0  0  0  0  0  0
  1  2  2  0  0  0  0
  2  3  1  0  0  0  0
  3  4  2  0  0  0  0
  5  4  1  0  0  0  0
  5  6  2  0  0  0  0
  6  1  1  0  0  0  0
  6  7  1  0  0  0  0
  8  5  1  0  0  0  0
  9  8  1  0  0  0  0
 10  4  1  0  0  0  0
 10  9  2  0  0  0  0
M  END
>  <CHROM.1>
19.41331934,-18.10265539,4.64147298,1.39845547,-1.02277206,-1.07741240

>  <Name>
1y26_lig

>  <RI>
0

>  <Rbt.Current_Directory>
/home/afrankz/demos/rdock_decoys_rna/rnas/1y26

>  <Rbt.Executable>
rbdock ($Id: //depot/dev/client3/rdock/2013.1/src/exe/rbdock.cxx#4 $)

>  <Rbt.Library>
libRbt.so (2013.1, Build901 2013/11/27)

>  <Rbt.Parameter_File>
/export/apps/rDock/src/rDock_2013.1_src/data/scripts/dock_solv.prm

>  <Rbt.Receptor>
prm/blind_docking_40.prm

>  <SCORE>
-26.6837

>  <SCORE.INTER>
-26.6837

>  <SCORE.INTER.CONST>
1

>  <SCORE.INTER.POLAR>
-2.0198

>  <SCORE.INTER.ROT>
0

>  <SCORE.INTER.SOLV>
12.7367

>  <SCORE.INTER.VDW>
-18.902

>  <SCORE.INTER.norm>
-2.66837

>  <SCORE.INTRA>
0

>  <SCORE.INTRA.DIHEDRAL>
0

>  <SCORE.INTRA.DIHEDRAL.0>
0

>  <SCORE.INTRA.POLAR>
0

>  <SCORE.INTRA.POLAR.0>
0

>  <SCORE.INTRA.REPUL>
0

>  <SCORE.INTRA.REPUL.0>
0

>  <SCORE.INTRA.SOLV>
0

>  <SCORE.INTRA.SOLV.lig_0>
-16.9472

>  <SCORE.INTRA.VDW>
0

>  <SCORE.INTRA.VDW.0>
0

>  <SCORE.INTRA.norm>
0

>  <SCORE.RESTR>
0

>  <SCORE.RESTR.CAVITY>
0

>  <SCORE.RESTR.norm>
0

>  <SCORE.SYSTEM>
0

>  <SCORE.SYSTEM.CONST>
0

>  <SCORE.SYSTEM.DIHEDRAL>
0

>  <SCORE.SYSTEM.SOLV>
0

>  <SCORE.SYSTEM.norm>
0

>  <SCORE.heavy>
10

>  <SCORE.norm>
-2.66837

>  <RMSD>
0.606

$$$$
1y26_lig
 OpenBabel02141814133D
libRbt.so/2013.1/901 2013/11/27
 10 11  0  0  0  0  0  0  0  0999 V2000
   19.4647  -17.0643    2.9203 N   0  0  0  0  0  0  0  0  0  0  0  0
   18.7817  -18.1729    2.6242 C   0  0  0  0  0  0  0  0  0  0  0  0
   18.4870  -19.1994    3.4194 N   0  0  0  0  0  0  0  0  0  0  0  0
   18.9590  -18.9913    4.6693 C   0  0  0  0  0  0  0  0  0  0  0  0
   19.6664  -17.8947    5.1202 C   0  0  0  0  0  0  0  0  0  0  0  0
   19.9234  -16.8945    4.1777 C   0  0  0  0  0  0  0  0  0  0  0  0
   20.6070  -15.8069    4.4951 N   0  0  0  0  0  0  0  0  0  0  0  0
   20.0079  -18.0024    6.4484 N   0  0  0  0  0  0  0  0  0  0  0  0
   19.4712  -19.1579    6.7951 C   0  0  0  0  0  0  0  0  0  0  0  0
   18.8347  -19.8092    5.7606 N   0  0  0  0  0  0  0  0  0  0  0  0
  1  2  2  0  0  0  0
  2  3  1  0  0  0  0
  3  4  2  0  0  0  0
  5  4  1  0  0  0  0
  5  6  2  0  0  0  0
  6  1  1  0  0  0  0
  6  7  1  0  0  0  0
  8  5  1  0  0  0  0
  9  8  1  0  0  0  0
 10  4  1  0  0  0  0
 10  9  2  0  0  0  0
M  END
>  <CHROM.1>
19.42033770,-18.09868045,4.64146278,1.40661534,-1.02405601,-1.06983603

>  <Name>
1y26_lig

>  <RI>
0

>  <Rbt.Current_Directory>
/home/afrankz/demos/rdock_decoys_rna/rnas/1y26

>  <Rbt.Executable>
rbdock ($Id: //depot/dev/client3/rdock/2013.1/src/exe/rbdock.cxx#4 $)

>  <Rbt.Library>
libRbt.so (2013.1, Build901 2013/11/27)

>  <Rbt.Parameter_File>
/export/apps/rDock/src/rDock_2013.1_src/data/scripts/dock_solv.prm

>  <Rbt.Receptor>
prm/blind_docking_40.prm

>  <SCORE>
-26.6816

>  <SCORE.INTER>
-26.6816

>  <SCORE.INTER.CONST>
1

>  <SCORE.INTER.POLAR>
-2.0198

>  <SCORE.INTER.ROT>
0

>  <SCORE.INTER.SOLV>
12.7462

>  <SCORE.INTER.VDW>
-18.9038

>  <SCORE.INTER.norm>
-2.66816

>  <SCORE.INTRA>
0

>  <SCORE.INTRA.DIHEDRAL>
0

>  <SCORE.INTRA.DIHEDRAL.0>
0

>  <SCORE.INTRA.POLAR>
0

>  <SCORE.INTRA.POLAR.0>
0

>  <SCORE.INTRA.REPUL>
0

>  <SCORE.INTRA.REPUL.0>
0

>  <SCORE.INTRA.SOLV>
0

>  <SCORE.INTRA.SOLV.lig_0>
-16.9472

>  <SCORE.INTRA.VDW>
0

>  <SCORE.INTRA.VDW.0>
0

>  <SCORE.INTRA.norm>
0

>  <SCORE.RESTR>
0

>  <SCORE.RESTR.CAVITY>
0

>  <SCORE.RESTR.norm>
0

>  <SCORE.SYSTEM>
0

>  <SCORE.SYSTEM.CONST>
0

>  <SCORE.SYSTEM.DIHEDRAL>
0

>  <SCORE.SYSTEM.SOLV>
0

>  <SCORE.SYSTEM.norm>
0

>  <SCORE.heavy>
10

>  <SCORE.norm>
-2.66816

>  <RMSD>
0.606

$$$$
1y26_lig
 OpenBabel02141814133D
libRbt.so/2013.1/901 2013/11/27
 10 11  0  0  0  0  0  0  0  0999 V2000
   19.4630  -17.0721    2.9174 N   0  0  0  0  0  0  0  0  0  0  0  0
   18.7842  -18.1834    2.6217 C   0  0  0  0  0  0  0  0  0  0  0  0
   18.4894  -19.2086    3.4185 N   0  0  0  0  0  0  0  0  0  0  0  0
   18.9563  -18.9960    4.6695 C   0  0  0  0  0  0  0  0  0  0  0  0
   19.6590  -17.8963    5.1202 C   0  0  0  0  0  0  0  0  0  0  0  0
   19.9166  -16.8979    4.1760 C   0  0  0  0  0  0  0  0  0  0  0  0
   20.5961  -15.8076    4.4931 N   0  0  0  0  0  0  0  0  0  0  0  0
   19.9960  -17.9997    6.4498 N   0  0  0  0  0  0  0  0  0  0  0  0
   19.4613  -19.1558    6.7976 C   0  0  0  0  0  0  0  0  0  0  0  0
   18.8303  -19.8114    5.7625 N   0  0  0  0  0  0  0  0  0  0  0  0
  1  2  2  0  0  0  0
  2  3  1  0  0  0  0
  3  4  2  0  0  0  0
  5  4  1  0  0  0  0
  5  6  2  0  0  0  0
  6  1  1  0  0  0  0
  6  7  1  0  0  0  0
  8  5  1  0  0  0  0
  9  8  1  0  0  0  0
 10  4  1  0  0  0  0
 10  9  2  0  0  0  0
M  END
>  <CHROM.1>
19.41525990,-18.10223713,4.64105891,1.40303733,-1.02820316,-1.07546532

>  <Name>
1y26_lig

>  <RI>
0

>  <Rbt.Current_Directory>
/home/afrankz/demos/rdock_decoys_rna/rnas/1y26

>  <Rbt.Executable>
rbdock ($Id: //depot/dev/client3/rdock/2013.1/src/exe/rbdock.cxx#4 $)

>  <Rbt.Library>
libRbt.so (2013.1, Build901 2013/11/27)

>  <Rbt.Parameter_File>
/export/apps/rDock/src/rDock_2013.1_src/data/scripts/dock_solv.prm

>  <Rbt.Receptor>
prm/blind_docking_40.prm

>  <SCORE>
-26.686

>  <SCORE.INTER>
-26.686

>  <SCORE.INTER.CONST>
1

>  <SCORE.INTER.POLAR>
-2.0198

>  <SCORE.INTER.ROT>
0

>  <SCORE.INTER.SOLV>
12.7513

>  <SCORE.INTER.VDW>
-18.9084

>  <SCORE.INTER.norm>
-2.6686

>  <SCORE.INTRA>
0

>  <SCORE.INTRA.DIHEDRAL>
0

>  <SCORE.INTRA.DIHEDRAL.0>
0

>  <SCORE.INTRA.POLAR>
0

>  <SCORE.INTRA.POLAR.0>
0

>  <SCORE.INTRA.REPUL>
0

>  <SCORE.INTRA.REPUL.0>
0

>  <SCORE.INTRA.SOLV>
0

>  <SCORE.INTRA.SOLV.lig_0>
-16.9472

>  <SCORE.INTRA.VDW>
0

>  <SCORE.INTRA.VDW.0>
0

>  <SCORE.INTRA.norm>
0

>  <SCORE.RESTR>
0

>  <SCORE.RESTR.CAVITY>
0

>  <SCORE.RESTR.norm>
0

>  <SCORE.SYSTEM>
0

>  <SCORE.SYSTEM.CONST>
0

>  <SCORE.SYSTEM.DIHEDRAL>
0

>  <SCORE.SYSTEM.SOLV>
0

>  <SCORE.SYSTEM.norm>
0

>  <SCORE.heavy>
10

>  <SCORE.norm>
-2.6686

>  <RMSD>
0.606

$$$$
1y26_lig
 OpenBabel02141814133D
libRbt.so/2013.1/901 2013/11/27
 10 11  0  0  0  0  0  0  0  0999 V2000
   19.4654  -17.0724    2.9185 N   0  0  0  0  0  0  0  0  0  0  0  0
   18.7828  -18.1813    2.6225 C   0  0  0  0  0  0  0  0  0  0  0  0
   18.4852  -19.2061    3.4188 N   0  0  0  0  0  0  0  0  0  0  0  0
   18.9537  -18.9958    4.6697 C   0  0  0  0  0  0  0  0  0  0  0  0
   19.6602  -17.8986    5.1206 C   0  0  0  0  0  0  0  0  0  0  0  0
   19.9204  -16.9004    4.1769 C   0  0  0  0  0  0  0  0  0  0  0  0
   20.6036  -15.8125    4.4942 N   0  0  0  0  0  0  0  0  0  0  0  0
   19.9977  -18.0039    6.4499 N   0  0  0  0  0  0  0  0  0  0  0  0
   19.4596  -19.1585    6.7973 C   0  0  0  0  0  0  0  0  0  0  0  0
   18.8258  -19.8115    5.7622 N   0  0  0  0  0  0  0  0  0  0  0  0
  1  2  2  0  0  0  0
  2  3  1  0  0  0  0
  3  4  2  0  0  0  0
  5  4  1  0  0  0  0
  5  6  2  0  0  0  0
  6  1  1  0  0  0  0
  6  7  1  0  0  0  0
  8  5  1  0  0  0  0
  9  8  1  0  0  0  0
 10  4  1  0  0  0  0
 10  9  2  0  0  0  0
M  END
>  <CHROM.1>
19.41548019,-18.10346354,4.64149443,1.40123810,-1.02508391,-1.07637009

>  <Name>
1y26_lig

>  <RI>
0

>  <Rbt.Current_Directory>
/home/afrankz/demos/rdock_decoys_rna/rnas/1y26

>  <Rbt.Executable>
rbdock ($Id: //depot/dev/client3/rdock/2013.1/src/exe/rbdock.cxx#4 $)

>  <Rbt.Library>
libRbt.so (2013.1, Build901 2013/11/27)

>  <Rbt.Parameter_File>
/export/apps/rDock/src/rDock_2013.1_src/data/scripts/dock_solv.prm

>  <Rbt.Receptor>
prm/blind_docking_60.prm

>  <SCORE>
-26.6857

>  <SCORE.INTER>
-26.6857

>  <SCORE.INTER.CONST>
1

>  <SCORE.INTER.POLAR>
-2.0198

>  <SCORE.INTER.ROT>
0

>  <SCORE.INTER.SOLV>
12.74

>  <SCORE.INTER.VDW>
-18.9045

>  <SCORE.INTER.norm>
-2.66857

>  <SCORE.INTRA>
0

>  <SCORE.INTRA.DIHEDRAL>
0

>  <SCORE.INTRA.DIHEDRAL.0>
0

>  <SCORE.INTRA.POLAR>
0

>  <SCORE.INTRA.POLAR.0>
0

>  <SCORE.INTRA.REPUL>
0

>  <SCORE.INTRA.REPUL.0>
0

>  <SCORE.INTRA.SOLV>
0

>  <SCORE.INTRA.SOLV.lig_0>
-16.9472

>  <SCORE.INTRA.VDW>
0

>  <SCORE.INTRA.VDW.0>
0

>  <SCORE.INTRA.norm>
0

>  <SCORE.RESTR>
0

>  <SCORE.RESTR.CAVITY>
0

>  <SCORE.RESTR.norm>
0

>  <SCORE.SYSTEM>
0

>  <SCORE.SYSTEM.CONST>
0

>  <SCORE.SYSTEM.DIHEDRAL>
0

>  <SCORE.SYSTEM.SOLV>
0

>  <SCORE.SYSTEM.norm>
0

>  <SCORE.heavy>
10

>  <SCORE.norm>
-2.66857

>  <RMSD>
0.606

$$$$
1y26_lig
 OpenBabel02141814133D
libRbt.so/2013.1/901 2013/11/27
 10 11  0  0  0  0  0  0  0  0999 V2000
   19.4584  -17.0673    2.9198 N   0  0  0  0  0  0  0  0  0  0  0  0
   18.7772  -18.1770    2.6236 C   0  0  0  0  0  0  0  0  0  0  0  0
   18.4825  -19.2032    3.4193 N   0  0  0  0  0  0  0  0  0  0  0  0
   18.9526  -18.9935    4.6696 C   0  0  0  0  0  0  0  0  0  0  0  0
   19.6580  -17.8956    5.1206 C   0  0  0  0  0  0  0  0  0  0  0  0
   19.9151  -16.8960    4.1777 C   0  0  0  0  0  0  0  0  0  0  0  0
   20.5969  -15.8072    4.4951 N   0  0  0  0  0  0  0  0  0  0  0  0
   19.9977  -18.0018    6.4494 N   0  0  0  0  0  0  0  0  0  0  0  0
   19.4620  -19.1577    6.7963 C   0  0  0  0  0  0  0  0  0  0  0  0
   18.8277  -19.8106    5.7615 N   0  0  0  0  0  0  0  0  0  0  0  0
  1  2  2  0  0  0  0
  2  3  1  0  0  0  0
  3  4  2  0  0  0  0
  5  4  1  0  0  0  0
  5  6  2  0  0  0  0
  6  1  1  0  0  0  0
  6  7  1  0  0  0  0
  8  5  1  0  0  0  0
  9  8  1  0  0  0  0
 10  4  1  0  0  0  0
 10  9  2  0  0  0  0
M  END
>  <CHROM.1>
19.41285865,-18.10033479,4.64172840,1.40537923,-1.02579346,-1.07173804

>  <Name>
1y26_lig

>  <RI>
0

>  <Rbt.Current_Directory>
/home/afrankz/demos/rdock_decoys_rna/rnas/1y26

>  <Rbt.Executable>
rbdock ($Id: //depot/dev/client3/rdock/2013.1/src/exe/rbdock.cxx#4 $)

>  <Rbt.Library>
libRbt.so (2013.1, Build901 2013/11/27)

>  <Rbt.Parameter_File>
/export/apps/rDock/src/rDock_2013.1_src/data/scripts/dock_solv.prm

>  <Rbt.Receptor>
prm/blind_docking_60.prm

>  <SCORE>
-26.6822

>  <SCORE.INTER>
-26.6822

>  <SCORE.INTER.CONST>
1

>  <SCORE.INTER.POLAR>
-2.0198

>  <SCORE.INTER.ROT>
0

>  <SCORE.INTER.SOLV>
12.7592

>  <SCORE.INTER.VDW>
-18.9085

>  <SCORE.INTER.norm>
-2.66822

>  <SCORE.INTRA>
0

>  <SCORE.INTRA.DIHEDRAL>
0

>  <SCORE.INTRA.DIHEDRAL.0>
0

>  <SCORE.INTRA.POLAR>
0

>  <SCORE.INTRA.POLAR.0>
0

>  <SCORE.INTRA.REPUL>
0

>  <SCORE.INTRA.REPUL.0>
0

>  <SCORE.INTRA.SOLV>
0

>  <SCORE.INTRA.SOLV.lig_0>
-16.9472

>  <SCORE.INTRA.VDW>
0

>  <SCORE.INTRA.VDW.0>
0

>  <SCORE.INTRA.norm>
0

>  <SCORE.RESTR>
0

>  <SCORE.RESTR.CAVITY>
0

>  <SCORE.RESTR.norm>
0

>  <SCORE.SYSTEM>
0

>  <SCORE.SYSTEM.CONST>
0

>  <SCORE.SYSTEM.DIHEDRAL>
0

>  <SCORE.SYSTEM.SOLV>
0

>  <SCORE.SYSTEM.norm>
0

>  <SCORE.heavy>
10

>  <SCORE.norm>
-2.66822

>  <RMSD>
0.606

$$$$
1y26_lig
 OpenBabel02141814133D
libRbt.so/2013.1/901 2013/11/27
 10 11  0  0  0  0  0  0  0  0999 V2000
   19.4573  -17.0716    2.9197 N   0  0  0  0  0  0  0  0  0  0  0  0
   18.7684  -18.1786    2.6315 C   0  0  0  0  0  0  0  0  0  0  0  0
   18.4702  -19.1988    3.4335 N   0  0  0  0  0  0  0  0  0  0  0  0
   18.9455  -18.9855    4.6812 C   0  0  0  0  0  0  0  0  0  0  0  0
   19.6590  -17.8896    5.1242 C   0  0  0  0  0  0  0  0  0  0  0  0
   19.9191  -16.8965    4.1752 C   0  0  0  0  0  0  0  0  0  0  0  0
   20.6086  -15.8102    4.4847 N   0  0  0  0  0  0  0  0  0  0  0  0
   20.0025  -17.9909    6.4524 N   0  0  0  0  0  0  0  0  0  0  0  0
   19.4609  -19.1417    6.8071 C   0  0  0  0  0  0  0  0  0  0  0  0
   18.8193  -19.7961    5.7777 N   0  0  0  0  0  0  0  0  0  0  0  0
  1  2  2  0  0  0  0
  2  3  1  0  0  0  0
  3  4  2  0  0  0  0
  5  4  1  0  0  0  0
  5  6  2  0  0  0  0
  6  1  1  0  0  0  0
  6  7  1  0  0  0  0
  8  5  1  0  0  0  0
  9  8  1  0  0  0  0
 10  4  1  0  0  0  0
 10  9  2  0  0  0  0
M  END
>  <CHROM.1>
19.41113373,-18.09531190,4.64713708,1.40528344,-1.01891665,-1.07702813

>  <Name>
1y26_lig

>  <RI>
0

>  <Rbt.Current_Directory>
/home/afrankz/demos/rdock_decoys_rna/rnas/1y26

>  <Rbt.Executable>
rbdock ($Id: //depot/dev/client3/rdock/2013.1/src/exe/rbdock.cxx#4 $)

>  <Rbt.Library>
libRbt.so (2013.1, Build901 2013/11/27)

>  <Rbt.Parameter_File>
/export/apps/rDock/src/rDock_2013.1_src/data/scripts/dock_solv.prm

>  <Rbt.Receptor>
prm/blind_docking_60.prm

>  <SCORE>
-26.6921

>  <SCORE.INTER>
-26.6921

>  <SCORE.INTER.CONST>
1

>  <SCORE.INTER.POLAR>
-2.0198

>  <SCORE.INTER.ROT>
0

>  <SCORE.INTER.SOLV>
12.7318

>  <SCORE.INTER.VDW>
-18.906

>  <SCORE.INTER.norm>
-2.66921

>  <SCORE.INTRA>
0

>  <SCORE.INTRA.DIHEDRAL>
0

>  <SCORE.INTRA.DIHEDRAL.0>
0

>  <SCORE.INTRA.POLAR>
0

>  <SCORE.INTRA.POLAR.0>
0

>  <SCORE.INTRA.REPUL>
0

>  <SCORE.INTRA.REPUL.0>
0

>  <SCORE.INTRA.SOLV>
0

>  <SCORE.INTRA.SOLV.lig_0>
-16.9472

>  <SCORE.INTRA.VDW>
0

>  <SCORE.INTRA.VDW.0>
0

>  <SCORE.INTRA.norm>
0

>  <SCORE.RESTR>
0

>  <SCORE.RESTR.CAVITY>
0

>  <SCORE.RESTR.norm>
0

>  <SCORE.SYSTEM>
0

>  <SCORE.SYSTEM.CONST>
0

>  <SCORE.SYSTEM.DIHEDRAL>
0

>  <SCORE.SYSTEM.SOLV>
0

>  <SCORE.SYSTEM.norm>
0

>  <SCORE.heavy>
10

>  <SCORE.norm>
-2.66921

>  <RMSD>
0.606

$$$$
1y26_lig
 OpenBabel02141814133D
libRbt.so/2013.1/901 2013/11/27
 10 11  0  0  0  0  0  0  0  0999 V2000
   19.4619  -17.0712    2.9186 N   0  0  0  0  0  0  0  0  0  0  0  0
   18.7787  -18.1799    2.6232 C   0  0  0  0  0  0  0  0  0  0  0  0
   18.4823  -19.2050    3.4196 N   0  0  0  0  0  0  0  0  0  0  0  0
   18.9527  -18.9952    4.6697 C   0  0  0  0  0  0  0  0  0  0  0  0
   19.6600  -17.8983    5.1200 C   0  0  0  0  0  0  0  0  0  0  0  0
   19.9189  -16.8998    4.1763 C   0  0  0  0  0  0  0  0  0  0  0  0
   20.6027  -15.8120    4.4930 N   0  0  0  0  0  0  0  0  0  0  0  0
   19.9996  -18.0041    6.4488 N   0  0  0  0  0  0  0  0  0  0  0  0
   19.4619  -19.1588    6.7966 C   0  0  0  0  0  0  0  0  0  0  0  0
   18.8264  -19.8113    5.7622 N   0  0  0  0  0  0  0  0  0  0  0  0
  1  2  2  0  0  0  0
  2  3  1  0  0  0  0
  3  4  2  0  0  0  0
  5  4  1  0  0  0  0
  5  6  2  0  0  0  0
  6  1  1  0  0  0  0
  6  7  1  0  0  0  0
  8  5  1  0  0  0  0
  9  8  1  0  0  0  0
 10  4  1  0  0  0  0
 10  9  2  0  0  0  0
M  END
>  <CHROM.1>
19.41456338,-18.10291254,4.64121673,1.40375877,-1.02425400,-1.07381972

>  <Name>
1y26_lig

>  <RI>
224

>  <Rbt.Current_Directory>
/home/afrankz/demos/rdock_decoys_rna/rnas/1y26

>  <Rbt.Executable>
rbdock ($Id: //depot/dev/client3/rdock/2013.1/src/exe/rbdock.cxx#4 $)

>  <Rbt.Library>
libRbt.so (2013.1, Build901 2013/11/27)

>  <Rbt.Parameter_File>
/export/apps/rDock/src/rDock_2013.1_src/data/scripts/dock_solv.prm

>  <Rbt.Receptor>
prm/blind_docking_80.prm

>  <SCORE>
-26.684

>  <SCORE.INTER>
-26.684

>  <SCORE.INTER.CONST>
1

>  <SCORE.INTER.POLAR>
-2.0198

>  <SCORE.INTER.ROT>
0

>  <SCORE.INTER.SOLV>
12.7449

>  <SCORE.INTER.VDW>
-18.905

>  <SCORE.INTER.norm>
-2.6684

>  <SCORE.INTRA>
0

>  <SCORE.INTRA.DIHEDRAL>
0

>  <SCORE.INTRA.DIHEDRAL.0>
0

>  <SCORE.INTRA.POLAR>
0

>  <SCORE.INTRA.POLAR.0>
0

>  <SCORE.INTRA.REPUL>
0

>  <SCORE.INTRA.REPUL.0>
0

>  <SCORE.INTRA.SOLV>
0

>  <SCORE.INTRA.SOLV.lig_0>
-16.9472

>  <SCORE.INTRA.VDW>
0

>  <SCORE.INTRA.VDW.0>
0

>  <SCORE.INTRA.norm>
0

>  <SCORE.RESTR>
0

>  <SCORE.RESTR.CAVITY>
0

>  <SCORE.RESTR.norm>
0

>  <SCORE.SYSTEM>
0

>  <SCORE.SYSTEM.CONST>
0

>  <SCORE.SYSTEM.DIHEDRAL>
0

>  <SCORE.SYSTEM.SOLV>
0

>  <SCORE.SYSTEM.norm>
0

>  <SCORE.heavy>
10

>  <SCORE.norm>
-2.6684

>  <RMSD>
0.606

$$$$
1y26_lig
 OpenBabel02141814133D
libRbt.so/2013.1/901 2013/11/27
 10 11  0  0  0  0  0  0  0  0999 V2000
   19.4604  -17.0721    2.9174 N   0  0  0  0  0  0  0  0  0  0  0  0
   18.7836  -18.1847    2.6220 C   0  0  0  0  0  0  0  0  0  0  0  0
   18.4910  -19.2104    3.4190 N   0  0  0  0  0  0  0  0  0  0  0  0
   18.9580  -18.9967    4.6699 C   0  0  0  0  0  0  0  0  0  0  0  0
   19.6588  -17.8956    5.1201 C   0  0  0  0  0  0  0  0  0  0  0  0
   19.9142  -16.8969    4.1758 C   0  0  0  0  0  0  0  0  0  0  0  0
   20.5917  -15.8052    4.4924 N   0  0  0  0  0  0  0  0  0  0  0  0
   19.9964  -17.9982    6.4497 N   0  0  0  0  0  0  0  0  0  0  0  0
   19.4641  -19.1552    6.7978 C   0  0  0  0  0  0  0  0  0  0  0  0
   18.8339  -19.8122    5.7630 N   0  0  0  0  0  0  0  0  0  0  0  0
  1  2  2  0  0  0  0
  2  3  1  0  0  0  0
  3  4  2  0  0  0  0
  5  4  1  0  0  0  0
  5  6  2  0  0  0  0
  6  1  1  0  0  0  0
  6  7  1  0  0  0  0
  8  5  1  0  0  0  0
  9  8  1  0  0  0  0
 10  4  1  0  0  0  0
 10  9  2  0  0  0  0
M  END
>  <CHROM.1>
19.41525336,-18.10207738,4.64113044,1.40540938,-1.02970464,-1.07357350

>  <Name>
1y26_lig

>  <RI>
224

>  <Rbt.Current_Directory>
/home/afrankz/demos/rdock_decoys_rna/rnas/1y26

>  <Rbt.Executable>
rbdock ($Id: //depot/dev/client3/rdock/2013.1/src/exe/rbdock.cxx#4 $)

>  <Rbt.Library>
libRbt.so (2013.1, Build901 2013/11/27)

>  <Rbt.Parameter_File>
/export/apps/rDock/src/rDock_2013.1_src/data/scripts/dock_solv.prm

>  <Rbt.Receptor>
prm/pocket_docking_3.prm

>  <SCORE>
-26.6849

>  <SCORE.INTER>
-26.6849

>  <SCORE.INTER.CONST>
1

>  <SCORE.INTER.POLAR>
-2.0198

>  <SCORE.INTER.ROT>
0

>  <SCORE.INTER.SOLV>
12.7594

>  <SCORE.INTER.VDW>
-18.9104

>  <SCORE.INTER.norm>
-2.66849

>  <SCORE.INTRA>
0

>  <SCORE.INTRA.DIHEDRAL>
0

>  <SCORE.INTRA.DIHEDRAL.0>
0

>  <SCORE.INTRA.POLAR>
0

>  <SCORE.INTRA.POLAR.0>
0

>  <SCORE.INTRA.REPUL>
0

>  <SCORE.INTRA.REPUL.0>
0

>  <SCORE.INTRA.SOLV>
0

>  <SCORE.INTRA.SOLV.lig_0>
-16.9472

>  <SCORE.INTRA.VDW>
0

>  <SCORE.INTRA.VDW.0>
0

>  <SCORE.INTRA.norm>
0

>  <SCORE.RESTR>
0

>  <SCORE.RESTR.CAVITY>
0

>  <SCORE.RESTR.norm>
0

>  <SCORE.SYSTEM>
0

>  <SCORE.SYSTEM.CONST>
0

>  <SCORE.SYSTEM.DIHEDRAL>
0

>  <SCORE.SYSTEM.SOLV>
0

>  <SCORE.SYSTEM.norm>
0

>  <SCORE.heavy>
10

>  <SCORE.norm>
-2.66849

>  <RMSD>
0.606

$$$$
1y26_lig
 OpenBabel02141814133D
libRbt.so/2013.1/901 2013/11/27
 10 11  0  0  0  0  0  0  0  0999 V2000
   19.4655  -17.0725    2.9182 N   0  0  0  0  0  0  0  0  0  0  0  0
   18.7829  -18.1812    2.6218 C   0  0  0  0  0  0  0  0  0  0  0  0
   18.4847  -19.2060    3.4179 N   0  0  0  0  0  0  0  0  0  0  0  0
   18.9524  -18.9958    4.6690 C   0  0  0  0  0  0  0  0  0  0  0  0
   19.6588  -17.8988    5.1204 C   0  0  0  0  0  0  0  0  0  0  0  0
   19.9197  -16.9006    4.1769 C   0  0  0  0  0  0  0  0  0  0  0  0
   20.6029  -15.8128    4.4947 N   0  0  0  0  0  0  0  0  0  0  0  0
   19.9955  -18.0042    6.4500 N   0  0  0  0  0  0  0  0  0  0  0  0
   19.4569  -19.1587    6.7970 C   0  0  0  0  0  0  0  0  0  0  0  0
   18.8236  -19.8116    5.7615 N   0  0  0  0  0  0  0  0  0  0  0  0
  1  2  2  0  0  0  0
  2  3  1  0  0  0  0
  3  4  2  0  0  0  0
  5  4  1  0  0  0  0
  5  6  2  0  0  0  0
  6  1  1  0  0  0  0
  6  7  1  0  0  0  0
  8  5  1  0  0  0  0
  9  8  1  0  0  0  0
 10  4  1  0  0  0  0
 10  9  2  0  0  0  0
M  END
>  <CHROM.1>
19.41433762,-18.10356667,4.64114840,1.40002414,-1.02521678,-1.07736990

>  <Name>
1y26_lig

>  <RI>
224

>  <Rbt.Current_Directory>
/home/afrankz/demos/rdock_decoys_rna/rnas/1y26

>  <Rbt.Executable>
rbdock ($Id: //depot/dev/client3/rdock/2013.1/src/exe/rbdock.cxx#4 $)

>  <Rbt.Library>
libRbt.so (2013.1, Build901 2013/11/27)

>  <Rbt.Parameter_File>
/export/apps/rDock/src/rDock_2013.1_src/data/scripts/dock_solv.prm

>  <Rbt.Receptor>
prm/pocket_docking_3.prm

>  <SCORE>
-26.6856

>  <SCORE.INTER>
-26.6856

>  <SCORE.INTER.CONST>
1

>  <SCORE.INTER.POLAR>
-2.0198

>  <SCORE.INTER.ROT>
0

>  <SCORE.INTER.SOLV>
12.7403

>  <SCORE.INTER.VDW>
-18.9045

>  <SCORE.INTER.norm>
-2.66856

>  <SCORE.INTRA>
0

>  <SCORE.INTRA.DIHEDRAL>
0

>  <SCORE.INTRA.DIHEDRAL.0>
0

>  <SCORE.INTRA.POLAR>
0

>  <SCORE.INTRA.POLAR.0>
0

>  <SCORE.INTRA.REPUL>
0

>  <SCORE.INTRA.REPUL.0>
0

>  <SCORE.INTRA.SOLV>
0

>  <SCORE.INTRA.SOLV.lig_0>
-16.9472

>  <SCORE.INTRA.VDW>
0

>  <SCORE.INTRA.VDW.0>
0

>  <SCORE.INTRA.norm>
0

>  <SCORE.RESTR>
0

>  <SCORE.RESTR.CAVITY>
0

>  <SCORE.RESTR.norm>
0

>  <SCORE.SYSTEM>
0

>  <SCORE.SYSTEM.CONST>
0

>  <SCORE.SYSTEM.DIHEDRAL>
0

>  <SCORE.SYSTEM.SOLV>
0

>  <SCORE.SYSTEM.norm>
0

>  <SCORE.heavy>
10

>  <SCORE.norm>
-2.66856

>  <RMSD>
0.606

$$$$
1y26_lig
 OpenBabel02141814133D
libRbt.so/2013.1/901 2013/11/27
 10 11  0  0  0  0  0  0  0  0999 V2000
   19.4595  -17.0728    2.9186 N   0  0  0  0  0  0  0  0  0  0  0  0
   18.7759  -18.1829    2.6298 C   0  0  0  0  0  0  0  0  0  0  0  0
   18.4772  -19.2022    3.4328 N   0  0  0  0  0  0  0  0  0  0  0  0
   18.9457  -18.9842    4.6823 C   0  0  0  0  0  0  0  0  0  0  0  0
   19.6532  -17.8847    5.1261 C   0  0  0  0  0  0  0  0  0  0  0  0
   19.9145  -16.8930    4.1759 C   0  0  0  0  0  0  0  0  0  0  0  0
   20.5987  -15.8037    4.4861 N   0  0  0  0  0  0  0  0  0  0  0  0
   19.9905  -17.9816    6.4562 N   0  0  0  0  0  0  0  0  0  0  0  0
   19.4511  -19.1334    6.8110 C   0  0  0  0  0  0  0  0  0  0  0  0
   18.8168  -19.7925    5.7802 N   0  0  0  0  0  0  0  0  0  0  0  0
  1  2  2  0  0  0  0
  2  3  1  0  0  0  0
  3  4  2  0  0  0  0
  5  4  1  0  0  0  0
  5  6  2  0  0  0  0
  6  1  1  0  0  0  0
  6  7  1  0  0  0  0
  8  5  1  0  0  0  0
  9  8  1  0  0  0  0
 10  4  1  0  0  0  0
 10  9  2  0  0  0  0
M  END
>  <CHROM.1>
19.40834886,-18.09246431,4.64831760,1.40011191,-1.02427601,-1.08389753

>  <Name>
1y26_lig

>  <RI>
0

>  <Rbt.Current_Directory>
/home/afrankz/demos/rdock_decoys_rna/rnas/1y26

>  <Rbt.Executable>
rbdock ($Id: //depot/dev/client3/rdock/2013.1/src/exe/rbdock.cxx#4 $)

>  <Rbt.Library>
libRbt.so (2013.1, Build901 2013/11/27)

>  <Rbt.Parameter_File>
/export/apps/rDock/src/rDock_2013.1_src/data/scripts/dock_solv.prm

>  <Rbt.Receptor>
prm/pocket_docking_4.prm

>  <SCORE>
-26.6596

>  <SCORE.INTER>
-26.6596

>  <SCORE.INTER.CONST>
1

>  <SCORE.INTER.POLAR>
-2.0198

>  <SCORE.INTER.ROT>
0

>  <SCORE.INTER.SOLV>
12.7385

>  <SCORE.INTER.VDW>
-18.8866

>  <SCORE.INTER.norm>
-2.66596

>  <SCORE.INTRA>
0

>  <SCORE.INTRA.DIHEDRAL>
0

>  <SCORE.INTRA.DIHEDRAL.0>
0

>  <SCORE.INTRA.POLAR>
0

>  <SCORE.INTRA.POLAR.0>
0

>  <SCORE.INTRA.REPUL>
0

>  <SCORE.INTRA.REPUL.0>
0

>  <SCORE.INTRA.SOLV>
0

>  <SCORE.INTRA.SOLV.lig_0>
-16.9472

>  <SCORE.INTRA.VDW>
0

>  <SCORE.INTRA.VDW.0>
0

>  <SCORE.INTRA.norm>
0

>  <SCORE.RESTR>
0

>  <SCORE.RESTR.CAVITY>
0

>  <SCORE.RESTR.norm>
0

>  <SCORE.SYSTEM>
0

>  <SCORE.SYSTEM.CONST>
0

>  <SCORE.SYSTEM.DIHEDRAL>
0

>  <SCORE.SYSTEM.SOLV>
0

>  <SCORE.SYSTEM.norm>
0

>  <SCORE.heavy>
10

>  <SCORE.norm>
-2.66596

>  <RMSD>
0.606

$$$$
1y26_lig
 OpenBabel02141814133D
libRbt.so/2013.1/901 2013/11/27
 10 11  0  0  0  0  0  0  0  0999 V2000
   19.4520  -17.0702    2.9173 N   0  0  0  0  0  0  0  0  0  0  0  0
   18.7743  -18.1829    2.6245 C   0  0  0  0  0  0  0  0  0  0  0  0
   18.4864  -19.2095    3.4221 N   0  0  0  0  0  0  0  0  0  0  0  0
   18.9598  -18.9967    4.6707 C   0  0  0  0  0  0  0  0  0  0  0  0
   19.6623  -17.8956    5.1183 C   0  0  0  0  0  0  0  0  0  0  0  0
   19.9122  -16.8958    4.1735 C   0  0  0  0  0  0  0  0  0  0  0  0
   20.5908  -15.8040    4.4876 N   0  0  0  0  0  0  0  0  0  0  0  0
   20.0070  -17.9991    6.4460 N   0  0  0  0  0  0  0  0  0  0  0  0
   19.4771  -19.1568    6.7958 C   0  0  0  0  0  0  0  0  0  0  0  0
   18.8419  -19.8132    5.7637 N   0  0  0  0  0  0  0  0  0  0  0  0
  1  2  2  0  0  0  0
  2  3  1  0  0  0  0
  3  4  2  0  0  0  0
  5  4  1  0  0  0  0
  5  6  2  0  0  0  0
  6  1  1  0  0  0  0
  6  7  1  0  0  0  0
  8  5  1  0  0  0  0
  9  8  1  0  0  0  0
 10  4  1  0  0  0  0
 10  9  2  0  0  0  0
M  END
>  <CHROM.1>
19.41642258,-18.10172280,4.64036875,1.41478515,-1.02767483,-1.06464894

>  <Name>
1y26_lig

>  <RI>
224

>  <Rbt.Current_Directory>
/home/afrankz/demos/rdock_decoys_rna/rnas/1y26

>  <Rbt.Executable>
rbdock ($Id: //depot/dev/client3/rdock/2013.1/src/exe/rbdock.cxx#4 $)

>  <Rbt.Library>
libRbt.so (2013.1, Build901 2013/11/27)

>  <Rbt.Parameter_File>
/export/apps/rDock/src/rDock_2013.1_src/data/scripts/dock_solv.prm

>  <Rbt.Receptor>
prm/pocket_docking_7.prm

>  <SCORE>
-26.6781

>  <SCORE.INTER>
-26.6781

>  <SCORE.INTER.CONST>
1

>  <SCORE.INTER.POLAR>
-2.0198

>  <SCORE.INTER.ROT>
0

>  <SCORE.INTER.SOLV>
12.7698

>  <SCORE.INTER.VDW>
-18.9093

>  <SCORE.INTER.norm>
-2.66781

>  <SCORE.INTRA>
0

>  <SCORE.INTRA.DIHEDRAL>
0

>  <SCORE.INTRA.DIHEDRAL.0>
0

>  <SCORE.INTRA.POLAR>
0

>  <SCORE.INTRA.POLAR.0>
0

>  <SCORE.INTRA.REPUL>
0

>  <SCORE.INTRA.REPUL.0>
0

>  <SCORE.INTRA.SOLV>
0

>  <SCORE.INTRA.SOLV.lig_0>
-16.9472

>  <SCORE.INTRA.VDW>
0

>  <SCORE.INTRA.VDW.0>
0

>  <SCORE.INTRA.norm>
0

>  <SCORE.RESTR>
0

>  <SCORE.RESTR.CAVITY>
0

>  <SCORE.RESTR.norm>
0

>  <SCORE.SYSTEM>
0

>  <SCORE.SYSTEM.CONST>
0

>  <SCORE.SYSTEM.DIHEDRAL>
0

>  <SCORE.SYSTEM.SOLV>
0

>  <SCORE.SYSTEM.norm>
0

>  <SCORE.heavy>
10

>  <SCORE.norm>
-2.66781

>  <RMSD>
0.606

$$$$
1y26_lig
 OpenBabel02141814133D
libRbt.so/2013.1/901 2013/11/27
 10 11  0  0  0  0  0  0  0  0999 V2000
   19.4651  -17.0720    2.9185 N   0  0  0  0  0  0  0  0  0  0  0  0
   18.7828  -18.1809    2.6223 C   0  0  0  0  0  0  0  0  0  0  0  0
   18.4852  -19.2058    3.4185 N   0  0  0  0  0  0  0  0  0  0  0  0
   18.9534  -18.9955    4.6694 C   0  0  0  0  0  0  0  0  0  0  0  0
   19.6597  -17.8983    5.1205 C   0  0  0  0  0  0  0  0  0  0  0  0
   19.9199  -16.9000    4.1770 C   0  0  0  0  0  0  0  0  0  0  0  0
   20.6029  -15.8120    4.4944 N   0  0  0  0  0  0  0  0  0  0  0  0
   19.9970  -18.0036    6.4500 N   0  0  0  0  0  0  0  0  0  0  0  0
   19.4589  -19.1583    6.7972 C   0  0  0  0  0  0  0  0  0  0  0  0
   18.8253  -19.8113    5.7619 N   0  0  0  0  0  0  0  0  0  0  0  0
  1  2  2  0  0  0  0
  2  3  1  0  0  0  0
  3  4  2  0  0  0  0
  5  4  1  0  0  0  0
  5  6  2  0  0  0  0
  6  1  1  0  0  0  0
  6  7  1  0  0  0  0
  8  5  1  0  0  0  0
  9  8  1  0  0  0  0
 10  4  1  0  0  0  0
 10  9  2  0  0  0  0
M  END
>  <CHROM.1>
19.41506214,-18.10311748,4.64138995,1.40102673,-1.02527794,-1.07649678

>  <Name>
1y26_lig

>  <RI>
224

>  <Rbt.Current_Directory>
/home/afrankz/demos/rdock_decoys_rna/rnas/1y26

>  <Rbt.Executable>
rbdock ($Id: //depot/dev/client3/rdock/2013.1/src/exe/rbdock.cxx#4 $)

>  <Rbt.Library>
libRbt.so (2013.1, Build901 2013/11/27)

>  <Rbt.Parameter_File>
/export/apps/rDock/src/rDock_2013.1_src/data/scripts/dock_solv.prm

>  <Rbt.Receptor>
prm/pocket_docking_7.prm

>  <SCORE>
-26.6857

>  <SCORE.INTER>
-26.6857

>  <SCORE.INTER.CONST>
1

>  <SCORE.INTER.POLAR>
-2.0198

>  <SCORE.INTER.ROT>
0

>  <SCORE.INTER.SOLV>
12.7413

>  <SCORE.INTER.VDW>
-18.9049

>  <SCORE.INTER.norm>
-2.66857

>  <SCORE.INTRA>
0

>  <SCORE.INTRA.DIHEDRAL>
0

>  <SCORE.INTRA.DIHEDRAL.0>
0

>  <SCORE.INTRA.POLAR>
0

>  <SCORE.INTRA.POLAR.0>
0

>  <SCORE.INTRA.REPUL>
0

>  <SCORE.INTRA.REPUL.0>
0

>  <SCORE.INTRA.SOLV>
0

>  <SCORE.INTRA.SOLV.lig_0>
-16.9472

>  <SCORE.INTRA.VDW>
0

>  <SCORE.INTRA.VDW.0>
0

>  <SCORE.INTRA.norm>
0

>  <SCORE.RESTR>
0

>  <SCORE.RESTR.CAVITY>
0

>  <SCORE.RESTR.norm>
0

>  <SCORE.SYSTEM>
0

>  <SCORE.SYSTEM.CONST>
0

>  <SCORE.SYSTEM.DIHEDRAL>
0

>  <SCORE.SYSTEM.SOLV>
0

>  <SCORE.SYSTEM.norm>
0

>  <SCORE.heavy>
10

>  <SCORE.norm>
-2.66857

>  <RMSD>
0.606

$$$$
1y26_lig
 OpenBabel02141814133D
libRbt.so/2013.1/901 2013/11/27
 10 11  0  0  0  0  0  0  0  0999 V2000
   19.4621  -17.0709    2.9170 N   0  0  0  0  0  0  0  0  0  0  0  0
   18.7829  -18.1825    2.6233 C   0  0  0  0  0  0  0  0  0  0  0  0
   18.4916  -19.2082    3.4207 N   0  0  0  0  0  0  0  0  0  0  0  0
   18.9630  -18.9959    4.6701 C   0  0  0  0  0  0  0  0  0  0  0  0
   19.6667  -17.8959    5.1186 C   0  0  0  0  0  0  0  0  0  0  0  0
   19.9202  -16.8969    4.1739 C   0  0  0  0  0  0  0  0  0  0  0  0
   20.6002  -15.8063    4.4889 N   0  0  0  0  0  0  0  0  0  0  0  0
   20.0086  -17.9996    6.4470 N   0  0  0  0  0  0  0  0  0  0  0  0
   19.4759  -19.1562    6.7962 C   0  0  0  0  0  0  0  0  0  0  0  0
   18.8415  -19.8118    5.7632 N   0  0  0  0  0  0  0  0  0  0  0  0
  1  2  2  0  0  0  0
  2  3  1  0  0  0  0
  3  4  2  0  0  0  0
  5  4  1  0  0  0  0
  5  6  2  0  0  0  0
  6  1  1  0  0  0  0
  6  7  1  0  0  0  0
  8  5  1  0  0  0  0
  9  8  1  0  0  0  0
 10  4  1  0  0  0  0
 10  9  2  0  0  0  0
M  END
>  <CHROM.1>
19.42131622,-18.10177000,4.64032162,1.40984835,-1.02699409,-1.06923144

>  <Name>
1y26_lig

>  <RI>
0

>  <Rbt.Current_Directory>
/home/afrankz/demos/rdock_decoys_rna/rnas/1y26

>  <Rbt.Executable>
rbdock ($Id: //depot/dev/client3/rdock/2013.1/src/exe/rbdock.cxx#4 $)

>  <Rbt.Library>
libRbt.so (2013.1, Build901 2013/11/27)

>  <Rbt.Parameter_File>
/export/apps/rDock/src/rDock_2013.1_src/data/scripts/dock_solv.prm

>  <Rbt.Receptor>
prm/pocket_docking_8.prm

>  <SCORE>
-26.6823

>  <SCORE.INTER>
-26.6823

>  <SCORE.INTER.CONST>
1

>  <SCORE.INTER.POLAR>
-2.0198

>  <SCORE.INTER.ROT>
0

>  <SCORE.INTER.SOLV>
12.7496

>  <SCORE.INTER.VDW>
-18.9054

>  <SCORE.INTER.norm>
-2.66823

>  <SCORE.INTRA>
0

>  <SCORE.INTRA.DIHEDRAL>
0

>  <SCORE.INTRA.DIHEDRAL.0>
0

>  <SCORE.INTRA.POLAR>
0

>  <SCORE.INTRA.POLAR.0>
0

>  <SCORE.INTRA.REPUL>
0

>  <SCORE.INTRA.REPUL.0>
0

>  <SCORE.INTRA.SOLV>
0

>  <SCORE.INTRA.SOLV.lig_0>
-16.9472

>  <SCORE.INTRA.VDW>
0

>  <SCORE.INTRA.VDW.0>
0

>  <SCORE.INTRA.norm>
0

>  <SCORE.RESTR>
0

>  <SCORE.RESTR.CAVITY>
0

>  <SCORE.RESTR.norm>
0

>  <SCORE.SYSTEM>
0

>  <SCORE.SYSTEM.CONST>
0

>  <SCORE.SYSTEM.DIHEDRAL>
0

>  <SCORE.SYSTEM.SOLV>
0

>  <SCORE.SYSTEM.norm>
0

>  <SCORE.heavy>
10

>  <SCORE.norm>
-2.66823

>  <RMSD>
0.606

$$$$
1y26_lig
 OpenBabel02141814133D
libRbt.so/2013.1/901 2013/11/27
 10 11  0  0  0  0  0  0  0  0999 V2000
   19.4630  -17.0685    2.9184 N   0  0  0  0  0  0  0  0  0  0  0  0
   18.7837  -18.1795    2.6228 C   0  0  0  0  0  0  0  0  0  0  0  0
   18.4911  -19.2060    3.4189 N   0  0  0  0  0  0  0  0  0  0  0  0
   18.9609  -18.9949    4.6691 C   0  0  0  0  0  0  0  0  0  0  0  0
   19.6643  -17.8956    5.1196 C   0  0  0  0  0  0  0  0  0  0  0  0
   19.9195  -16.8959    4.1762 C   0  0  0  0  0  0  0  0  0  0  0  0
   20.5994  -15.8058    4.4931 N   0  0  0  0  0  0  0  0  0  0  0  0
   20.0045  -18.0007    6.4483 N   0  0  0  0  0  0  0  0  0  0  0  0
   19.4709  -19.1575    6.7958 C   0  0  0  0  0  0  0  0  0  0  0  0
   18.8376  -19.8119    5.7612 N   0  0  0  0  0  0  0  0  0  0  0  0
  1  2  2  0  0  0  0
  2  3  1  0  0  0  0
  3  4  2  0  0  0  0
  5  4  1  0  0  0  0
  5  6  2  0  0  0  0
  6  1  1  0  0  0  0
  6  7  1  0  0  0  0
  8  5  1  0  0  0  0
  9  8  1  0  0  0  0
 10  4  1  0  0  0  0
 10  9  2  0  0  0  0
M  END
>  <CHROM.1>
19.41953015,-18.10098131,4.64076358,1.40726316,-1.02732364,-1.07049126

>  <Name>
1y26_lig

>  <RI>
0

>  <Rbt.Current_Directory>
/home/afrankz/demos/rdock_decoys_rna/rnas/1y26

>  <Rbt.Executable>
rbdock ($Id: //depot/dev/client3/rdock/2013.1/src/exe/rbdock.cxx#4 $)

>  <Rbt.Library>
libRbt.so (2013.1, Build901 2013/11/27)

>  <Rbt.Parameter_File>
/export/apps/rDock/src/rDock_2013.1_src/data/scripts/dock_solv.prm

>  <Rbt.Receptor>
prm/blind_docking_100.prm

>  <SCORE>
-26.6828

>  <SCORE.INTER>
-26.6828

>  <SCORE.INTER.CONST>
1

>  <SCORE.INTER.POLAR>
-2.0198

>  <SCORE.INTER.ROT>
0

>  <SCORE.INTER.SOLV>
12.7529

>  <SCORE.INTER.VDW>
-18.9068

>  <SCORE.INTER.norm>
-2.66828

>  <SCORE.INTRA>
0

>  <SCORE.INTRA.DIHEDRAL>
0

>  <SCORE.INTRA.DIHEDRAL.0>
0

>  <SCORE.INTRA.POLAR>
0

>  <SCORE.INTRA.POLAR.0>
0

>  <SCORE.INTRA.REPUL>
0

>  <SCORE.INTRA.REPUL.0>
0

>  <SCORE.INTRA.SOLV>
0

>  <SCORE.INTRA.SOLV.lig_0>
-16.9472

>  <SCORE.INTRA.VDW>
0

>  <SCORE.INTRA.VDW.0>
0

>  <SCORE.INTRA.norm>
0

>  <SCORE.RESTR>
0

>  <SCORE.RESTR.CAVITY>
0

>  <SCORE.RESTR.norm>
0

>  <SCORE.SYSTEM>
0

>  <SCORE.SYSTEM.CONST>
0

>  <SCORE.SYSTEM.DIHEDRAL>
0

>  <SCORE.SYSTEM.SOLV>
0

>  <SCORE.SYSTEM.norm>
0

>  <SCORE.heavy>
10

>  <SCORE.norm>
-2.66828

>  <RMSD>
0.607

$$$$
1y26_lig
 OpenBabel02141814133D
libRbt.so/2013.1/901 2013/11/27
 10 11  0  0  0  0  0  0  0  0999 V2000
   19.4638  -17.0711    2.9196 N   0  0  0  0  0  0  0  0  0  0  0  0
   18.7809  -18.1797    2.6231 C   0  0  0  0  0  0  0  0  0  0  0  0
   18.4834  -19.2049    3.4189 N   0  0  0  0  0  0  0  0  0  0  0  0
   18.9522  -18.9954    4.6698 C   0  0  0  0  0  0  0  0  0  0  0  0
   19.6590  -17.8986    5.1211 C   0  0  0  0  0  0  0  0  0  0  0  0
   19.9192  -16.8999    4.1779 C   0  0  0  0  0  0  0  0  0  0  0  0
   20.6027  -15.8123    4.4957 N   0  0  0  0  0  0  0  0  0  0  0  0
   19.9969  -18.0047    6.4503 N   0  0  0  0  0  0  0  0  0  0  0  0
   19.4586  -19.1594    6.7972 C   0  0  0  0  0  0  0  0  0  0  0  0
   18.8244  -19.8117    5.7619 N   0  0  0  0  0  0  0  0  0  0  0  0
  1  2  2  0  0  0  0
  2  3  1  0  0  0  0
  3  4  2  0  0  0  0
  5  4  1  0  0  0  0
  5  6  2  0  0  0  0
  6  1  1  0  0  0  0
  6  7  1  0  0  0  0
  8  5  1  0  0  0  0
  9  8  1  0  0  0  0
 10  4  1  0  0  0  0
 10  9  2  0  0  0  0
M  END
>  <CHROM.1>
19.41416059,-18.10312256,4.64197508,1.40151291,-1.02478320,-1.07556762

>  <Name>
1y26_lig

>  <RI>
224

>  <Rbt.Current_Directory>
/home/afrankz/demos/rdock_decoys_rna/rnas/1y26

>  <Rbt.Executable>
rbdock ($Id: //depot/dev/client3/rdock/2013.1/src/exe/rbdock.cxx#4 $)

>  <Rbt.Library>
libRbt.so (2013.1, Build901 2013/11/27)

>  <Rbt.Parameter_File>
/export/apps/rDock/src/rDock_2013.1_src/data/scripts/dock_solv.prm

>  <Rbt.Receptor>
prm/blind_docking_80.prm

>  <SCORE>
-26.6843

>  <SCORE.INTER>
-26.6843

>  <SCORE.INTER.CONST>
1

>  <SCORE.INTER.POLAR>
-2.0198

>  <SCORE.INTER.ROT>
0

>  <SCORE.INTER.SOLV>
12.7441

>  <SCORE.INTER.VDW>
-18.9049

>  <SCORE.INTER.norm>
-2.66843

>  <SCORE.INTRA>
0

>  <SCORE.INTRA.DIHEDRAL>
0

>  <SCORE.INTRA.DIHEDRAL.0>
0

>  <SCORE.INTRA.POLAR>
0

>  <SCORE.INTRA.POLAR.0>
0

>  <SCORE.INTRA.REPUL>
0

>  <SCORE.INTRA.REPUL.0>
0

>  <SCORE.INTRA.SOLV>
0

>  <SCORE.INTRA.SOLV.lig_0>
-16.9472

>  <SCORE.INTRA.VDW>
0

>  <SCORE.INTRA.VDW.0>
0

>  <SCORE.INTRA.norm>
0

>  <SCORE.RESTR>
0

>  <SCORE.RESTR.CAVITY>
0

>  <SCORE.RESTR.norm>
0

>  <SCORE.SYSTEM>
0

>  <SCORE.SYSTEM.CONST>
0

>  <SCORE.SYSTEM.DIHEDRAL>
0

>  <SCORE.SYSTEM.SOLV>
0

>  <SCORE.SYSTEM.norm>
0

>  <SCORE.heavy>
10

>  <SCORE.norm>
-2.66843

>  <RMSD>
0.607

$$$$
1y26_lig
 OpenBabel02141814133D
libRbt.so/2013.1/901 2013/11/27
 10 11  0  0  0  0  0  0  0  0999 V2000
   19.4409  -17.0739    2.9156 N   0  0  0  0  0  0  0  0  0  0  0  0
   18.7730  -18.1923    2.6219 C   0  0  0  0  0  0  0  0  0  0  0  0
   18.4898  -19.2197    3.4202 N   0  0  0  0  0  0  0  0  0  0  0  0
   18.9563  -19.0011    4.6703 C   0  0  0  0  0  0  0  0  0  0  0  0
   19.6484  -17.8938    5.1188 C   0  0  0  0  0  0  0  0  0  0  0  0
   19.8946  -16.8938    4.1734 C   0  0  0  0  0  0  0  0  0  0  0  0
   20.5634  -15.7963    4.4883 N   0  0  0  0  0  0  0  0  0  0  0  0
   19.9884  -17.9924    6.4481 N   0  0  0  0  0  0  0  0  0  0  0  0
   19.4659  -19.1535    6.7978 C   0  0  0  0  0  0  0  0  0  0  0  0
   18.8401  -19.8166    5.7643 N   0  0  0  0  0  0  0  0  0  0  0  0
  1  2  2  0  0  0  0
  2  3  1  0  0  0  0
  3  4  2  0  0  0  0
  5  4  1  0  0  0  0
  5  6  2  0  0  0  0
  6  1  1  0  0  0  0
  6  7  1  0  0  0  0
  8  5  1  0  0  0  0
  9  8  1  0  0  0  0
 10  4  1  0  0  0  0
 10  9  2  0  0  0  0
M  END
>  <CHROM.1>
19.40612530,-18.10269439,4.64030516,1.41497184,-1.03642373,-1.06622876

>  <Name>
1y26_lig

>  <RI>
0

>  <Rbt.Current_Directory>
/home/afrankz/demos/rdock_decoys_rna/rnas/1y26

>  <Rbt.Executable>
rbdock ($Id: //depot/dev/client3/rdock/2013.1/src/exe/rbdock.cxx#4 $)

>  <Rbt.Library>
libRbt.so (2013.1, Build901 2013/11/27)

>  <Rbt.Parameter_File>
/export/apps/rDock/src/rDock_2013.1_src/data/scripts/dock_solv.prm

>  <Rbt.Receptor>
prm/pocket_docking_5.prm

>  <SCORE>
-26.6738

>  <SCORE.INTER>
-26.6738

>  <SCORE.INTER.CONST>
1

>  <SCORE.INTER.POLAR>
-2.0198

>  <SCORE.INTER.ROT>
0

>  <SCORE.INTER.SOLV>
12.807

>  <SCORE.INTER.VDW>
-18.9188

>  <SCORE.INTER.norm>
-2.66738

>  <SCORE.INTRA>
0

>  <SCORE.INTRA.DIHEDRAL>
0

>  <SCORE.INTRA.DIHEDRAL.0>
0

>  <SCORE.INTRA.POLAR>
0

>  <SCORE.INTRA.POLAR.0>
0

>  <SCORE.INTRA.REPUL>
0

>  <SCORE.INTRA.REPUL.0>
0

>  <SCORE.INTRA.SOLV>
0

>  <SCORE.INTRA.SOLV.lig_0>
-16.9472

>  <SCORE.INTRA.VDW>
0

>  <SCORE.INTRA.VDW.0>
0

>  <SCORE.INTRA.norm>
0

>  <SCORE.RESTR>
0

>  <SCORE.RESTR.CAVITY>
0

>  <SCORE.RESTR.norm>
0

>  <SCORE.SYSTEM>
0

>  <SCORE.SYSTEM.CONST>
0

>  <SCORE.SYSTEM.DIHEDRAL>
0

>  <SCORE.SYSTEM.SOLV>
0

>  <SCORE.SYSTEM.norm>
0

>  <SCORE.heavy>
10

>  <SCORE.norm>
-2.66738

>  <RMSD>
0.607

$$$$
1y26_lig
 OpenBabel02141814133D
libRbt.so/2013.1/901 2013/11/27
 10 11  0  0  0  0  0  0  0  0999 V2000
   19.4712  -17.0708    2.9227 N   0  0  0  0  0  0  0  0  0  0  0  0
   18.7808  -18.1737    2.6224 C   0  0  0  0  0  0  0  0  0  0  0  0
   18.4729  -19.1978    3.4156 N   0  0  0  0  0  0  0  0  0  0  0  0
   18.9394  -18.9939    4.6682 C   0  0  0  0  0  0  0  0  0  0  0  0
   19.6532  -17.9033    5.1235 C   0  0  0  0  0  0  0  0  0  0  0  0
   19.9240  -16.9052    4.1828 C   0  0  0  0  0  0  0  0  0  0  0  0
   20.6148  -15.8233    4.5044 N   0  0  0  0  0  0  0  0  0  0  0  0
   19.9861  -18.0141    6.4536 N   0  0  0  0  0  0  0  0  0  0  0  0
   19.4379  -19.1652    6.7970 C   0  0  0  0  0  0  0  0  0  0  0  0
   18.8019  -19.8109    5.7587 N   0  0  0  0  0  0  0  0  0  0  0  0
  1  2  2  0  0  0  0
  2  3  1  0  0  0  0
  3  4  2  0  0  0  0
  5  4  1  0  0  0  0
  5  6  2  0  0  0  0
  6  1  1  0  0  0  0
  6  7  1  0  0  0  0
  8  5  1  0  0  0  0
  9  8  1  0  0  0  0
 10  4  1  0  0  0  0
 10  9  2  0  0  0  0
M  END
>  <CHROM.1>
19.40829137,-18.10516480,4.64330918,1.38927540,-1.01948484,-1.08442104

>  <Name>
1y26_lig

>  <RI>
224

>  <Rbt.Current_Directory>
/home/afrankz/demos/rdock_decoys_rna/rnas/1y26

>  <Rbt.Executable>
rbdock ($Id: //depot/dev/client3/rdock/2013.1/src/exe/rbdock.cxx#4 $)

>  <Rbt.Library>
libRbt.so (2013.1, Build901 2013/11/27)

>  <Rbt.Parameter_File>
/export/apps/rDock/src/rDock_2013.1_src/data/scripts/dock_solv.prm

>  <Rbt.Receptor>
prm/pocket_docking_7.prm

>  <SCORE>
-26.6776

>  <SCORE.INTER>
-26.6776

>  <SCORE.INTER.CONST>
1

>  <SCORE.INTER.POLAR>
-2.0198

>  <SCORE.INTER.ROT>
0

>  <SCORE.INTER.SOLV>
12.7214

>  <SCORE.INTER.VDW>
-18.8929

>  <SCORE.INTER.norm>
-2.66776

>  <SCORE.INTRA>
0

>  <SCORE.INTRA.DIHEDRAL>
0

>  <SCORE.INTRA.DIHEDRAL.0>
0

>  <SCORE.INTRA.POLAR>
0

>  <SCORE.INTRA.POLAR.0>
0

>  <SCORE.INTRA.REPUL>
0

>  <SCORE.INTRA.REPUL.0>
0

>  <SCORE.INTRA.SOLV>
0

>  <SCORE.INTRA.SOLV.lig_0>
-16.9472

>  <SCORE.INTRA.VDW>
0

>  <SCORE.INTRA.VDW.0>
0

>  <SCORE.INTRA.norm>
0

>  <SCORE.RESTR>
0

>  <SCORE.RESTR.CAVITY>
0

>  <SCORE.RESTR.norm>
0

>  <SCORE.SYSTEM>
0

>  <SCORE.SYSTEM.CONST>
0

>  <SCORE.SYSTEM.DIHEDRAL>
0

>  <SCORE.SYSTEM.SOLV>
0

>  <SCORE.SYSTEM.norm>
0

>  <SCORE.heavy>
10

>  <SCORE.norm>
-2.66776

>  <RMSD>
0.607

$$$$
1y26_lig
 OpenBabel02141814133D
libRbt.so/2013.1/901 2013/11/27
 10 11  0  0  0  0  0  0  0  0999 V2000
   19.4352  -17.0698    2.9201 N   0  0  0  0  0  0  0  0  0  0  0  0
   18.7591  -18.1853    2.6344 C   0  0  0  0  0  0  0  0  0  0  0  0
   18.4684  -19.2049    3.4399 N   0  0  0  0  0  0  0  0  0  0  0  0
   18.9366  -18.9809    4.6885 C   0  0  0  0  0  0  0  0  0  0  0  0
   19.6368  -17.8756    5.1292 C   0  0  0  0  0  0  0  0  0  0  0  0
   19.8902  -16.8841    4.1766 C   0  0  0  0  0  0  0  0  0  0  0  0
   20.5671  -15.7893    4.4838 N   0  0  0  0  0  0  0  0  0  0  0  0
   19.9761  -17.9672    6.4591 N   0  0  0  0  0  0  0  0  0  0  0  0
   19.4452  -19.1220    6.8170 C   0  0  0  0  0  0  0  0  0  0  0  0
   18.8145  -19.7878    5.7882 N   0  0  0  0  0  0  0  0  0  0  0  0
  1  2  2  0  0  0  0
  2  3  1  0  0  0  0
  3  4  2  0  0  0  0
  5  4  1  0  0  0  0
  5  6  2  0  0  0  0
  6  1  1  0  0  0  0
  6  7  1  0  0  0  0
  8  5  1  0  0  0  0
  9  8  1  0  0  0  0
 10  4  1  0  0  0  0
 10  9  2  0  0  0  0
M  END
>  <CHROM.1>
19.39298259,-18.08607973,4.65210592,1.40820906,-1.02999602,-1.07911871

>  <Name>
1y26_lig

>  <RI>
0

>  <Rbt.Current_Directory>
/home/afrankz/demos/rdock_decoys_rna/rnas/1y26

>  <Rbt.Executable>
rbdock ($Id: //depot/dev/client3/rdock/2013.1/src/exe/rbdock.cxx#4 $)

>  <Rbt.Library>
libRbt.so (2013.1, Build901 2013/11/27)

>  <Rbt.Parameter_File>
/export/apps/rDock/src/rDock_2013.1_src/data/scripts/dock_solv.prm

>  <Rbt.Receptor>
prm/pocket_docking_8.prm

>  <SCORE>
-26.6786

>  <SCORE.INTER>
-26.6786

>  <SCORE.INTER.CONST>
1

>  <SCORE.INTER.POLAR>
-2.0198

>  <SCORE.INTER.ROT>
0

>  <SCORE.INTER.SOLV>
12.7942

>  <SCORE.INTER.VDW>
-18.9178

>  <SCORE.INTER.norm>
-2.66786

>  <SCORE.INTRA>
0

>  <SCORE.INTRA.DIHEDRAL>
0

>  <SCORE.INTRA.DIHEDRAL.0>
0

>  <SCORE.INTRA.POLAR>
0

>  <SCORE.INTRA.POLAR.0>
0

>  <SCORE.INTRA.REPUL>
0

>  <SCORE.INTRA.REPUL.0>
0

>  <SCORE.INTRA.SOLV>
0

>  <SCORE.INTRA.SOLV.lig_0>
-16.9472

>  <SCORE.INTRA.VDW>
0

>  <SCORE.INTRA.VDW.0>
0

>  <SCORE.INTRA.norm>
0

>  <SCORE.RESTR>
0

>  <SCORE.RESTR.CAVITY>
0

>  <SCORE.RESTR.norm>
0

>  <SCORE.SYSTEM>
0

>  <SCORE.SYSTEM.CONST>
0

>  <SCORE.SYSTEM.DIHEDRAL>
0

>  <SCORE.SYSTEM.SOLV>
0

>  <SCORE.SYSTEM.norm>
0

>  <SCORE.heavy>
10

>  <SCORE.norm>
-2.66786

>  <RMSD>
0.607

$$$$
1y26_lig
 OpenBabel02141814133D
libRbt.so/2013.1/901 2013/11/27
 10 11  0  0  0  0  0  0  0  0999 V2000
   19.4434  -17.0727    2.9190 N   0  0  0  0  0  0  0  0  0  0  0  0
   18.7691  -18.1887    2.6309 C   0  0  0  0  0  0  0  0  0  0  0  0
   18.4751  -19.2079    3.4357 N   0  0  0  0  0  0  0  0  0  0  0  0
   18.9374  -18.9829    4.6862 C   0  0  0  0  0  0  0  0  0  0  0  0
   19.6351  -17.8770    5.1295 C   0  0  0  0  0  0  0  0  0  0  0  0
   19.8925  -16.8860    4.1775 C   0  0  0  0  0  0  0  0  0  0  0  0
   20.5675  -15.7908    4.4871 N   0  0  0  0  0  0  0  0  0  0  0  0
   19.9682  -17.9676    6.4610 N   0  0  0  0  0  0  0  0  0  0  0  0
   19.4362  -19.1224    6.8172 C   0  0  0  0  0  0  0  0  0  0  0  0
   18.8105  -19.7891    5.7859 N   0  0  0  0  0  0  0  0  0  0  0  0
  1  2  2  0  0  0  0
  2  3  1  0  0  0  0
  3  4  2  0  0  0  0
  5  4  1  0  0  0  0
  5  6  2  0  0  0  0
  6  1  1  0  0  0  0
  6  7  1  0  0  0  0
  8  5  1  0  0  0  0
  9  8  1  0  0  0  0
 10  4  1  0  0  0  0
 10  9  2  0  0  0  0
M  END
>  <CHROM.1>
19.39354311,-18.08789239,4.65142324,1.40060181,-1.03255029,-1.08629496

>  <Name>
1y26_lig

>  <RI>
0

>  <Rbt.Current_Directory>
/home/afrankz/demos/rdock_decoys_rna/rnas/1y26

>  <Rbt.Executable>
rbdock ($Id: //depot/dev/client3/rdock/2013.1/src/exe/rbdock.cxx#4 $)

>  <Rbt.Library>
libRbt.so (2013.1, Build901 2013/11/27)

>  <Rbt.Parameter_File>
/export/apps/rDock/src/rDock_2013.1_src/data/scripts/dock_solv.prm

>  <Rbt.Receptor>
prm/pocket_docking_8.prm

>  <SCORE>
-26.6798

>  <SCORE.INTER>
-26.6798

>  <SCORE.INTER.CONST>
1

>  <SCORE.INTER.POLAR>
-2.0198

>  <SCORE.INTER.ROT>
0

>  <SCORE.INTER.SOLV>
12.7845

>  <SCORE.INTER.VDW>
-18.9153

>  <SCORE.INTER.norm>
-2.66798

>  <SCORE.INTRA>
0

>  <SCORE.INTRA.DIHEDRAL>
0

>  <SCORE.INTRA.DIHEDRAL.0>
0

>  <SCORE.INTRA.POLAR>
0

>  <SCORE.INTRA.POLAR.0>
0

>  <SCORE.INTRA.REPUL>
0

>  <SCORE.INTRA.REPUL.0>
0

>  <SCORE.INTRA.SOLV>
0

>  <SCORE.INTRA.SOLV.lig_0>
-16.9472

>  <SCORE.INTRA.VDW>
0

>  <SCORE.INTRA.VDW.0>
0

>  <SCORE.INTRA.norm>
0

>  <SCORE.RESTR>
0

>  <SCORE.RESTR.CAVITY>
0

>  <SCORE.RESTR.norm>
0

>  <SCORE.SYSTEM>
0

>  <SCORE.SYSTEM.CONST>
0

>  <SCORE.SYSTEM.DIHEDRAL>
0

>  <SCORE.SYSTEM.SOLV>
0

>  <SCORE.SYSTEM.norm>
0

>  <SCORE.heavy>
10

>  <SCORE.norm>
-2.66798

>  <RMSD>
0.607

$$$$
1y26_lig
 OpenBabel02141814133D
libRbt.so/2013.1/901 2013/11/27
 10 11  0  0  0  0  0  0  0  0999 V2000
   19.4591  -17.0736    2.9193 N   0  0  0  0  0  0  0  0  0  0  0  0
   18.7855  -18.1891    2.6279 C   0  0  0  0  0  0  0  0  0  0  0  0
   18.4843  -19.2067    3.4320 N   0  0  0  0  0  0  0  0  0  0  0  0
   18.9377  -18.9804    4.6856 C   0  0  0  0  0  0  0  0  0  0  0  0
   19.6336  -17.8747    5.1323 C   0  0  0  0  0  0  0  0  0  0  0  0
   19.8992  -16.8856    4.1807 C   0  0  0  0  0  0  0  0  0  0  0  0
   20.5733  -15.7907    4.4937 N   0  0  0  0  0  0  0  0  0  0  0  0
   19.9568  -17.9638    6.4664 N   0  0  0  0  0  0  0  0  0  0  0  0
   19.4206  -19.1174    6.8204 C   0  0  0  0  0  0  0  0  0  0  0  0
   18.8017  -19.7848    5.7856 N   0  0  0  0  0  0  0  0  0  0  0  0
  1  2  2  0  0  0  0
  2  3  1  0  0  0  0
  3  4  2  0  0  0  0
  5  4  1  0  0  0  0
  5  6  2  0  0  0  0
  6  1  1  0  0  0  0
  6  7  1  0  0  0  0
  8  5  1  0  0  0  0
  9  8  1  0  0  0  0
 10  4  1  0  0  0  0
 10  9  2  0  0  0  0
M  END
>  <CHROM.1>
19.39524432,-18.08604750,4.65282505,1.38670089,-1.03476879,-1.09974194

>  <Name>
1y26_lig

>  <RI>
0

>  <Rbt.Current_Directory>
/home/afrankz/demos/rdock_decoys_rna/rnas/1y26

>  <Rbt.Executable>
rbdock ($Id: //depot/dev/client3/rdock/2013.1/src/exe/rbdock.cxx#4 $)

>  <Rbt.Library>
libRbt.so (2013.1, Build901 2013/11/27)

>  <Rbt.Parameter_File>
/export/apps/rDock/src/rDock_2013.1_src/data/scripts/dock_solv.prm

>  <Rbt.Receptor>
prm/pocket_docking_5.prm

>  <SCORE>
-26.6776

>  <SCORE.INTER>
-26.6776

>  <SCORE.INTER.CONST>
1

>  <SCORE.INTER.POLAR>
-2.0198

>  <SCORE.INTER.ROT>
0

>  <SCORE.INTER.SOLV>
12.7617

>  <SCORE.INTER.VDW>
-18.9063

>  <SCORE.INTER.norm>
-2.66776

>  <SCORE.INTRA>
0

>  <SCORE.INTRA.DIHEDRAL>
0

>  <SCORE.INTRA.DIHEDRAL.0>
0

>  <SCORE.INTRA.POLAR>
0

>  <SCORE.INTRA.POLAR.0>
0

>  <SCORE.INTRA.REPUL>
0

>  <SCORE.INTRA.REPUL.0>
0

>  <SCORE.INTRA.SOLV>
0

>  <SCORE.INTRA.SOLV.lig_0>
-16.9472

>  <SCORE.INTRA.VDW>
0

>  <SCORE.INTRA.VDW.0>
0

>  <SCORE.INTRA.norm>
0

>  <SCORE.RESTR>
0

>  <SCORE.RESTR.CAVITY>
0

>  <SCORE.RESTR.norm>
0

>  <SCORE.SYSTEM>
0

>  <SCORE.SYSTEM.CONST>
0

>  <SCORE.SYSTEM.DIHEDRAL>
0

>  <SCORE.SYSTEM.SOLV>
0

>  <SCORE.SYSTEM.norm>
0

>  <SCORE.heavy>
10

>  <SCORE.norm>
-2.66776

>  <RMSD>
0.608

$$$$
1y26_lig
 OpenBabel02141814133D
libRbt.so/2013.1/901 2013/11/27
 10 11  0  0  0  0  0  0  0  0999 V2000
   19.4640  -17.0732    2.9198 N   0  0  0  0  0  0  0  0  0  0  0  0
   18.7830  -18.1830    2.6235 C   0  0  0  0  0  0  0  0  0  0  0  0
   18.4865  -19.2082    3.4196 N   0  0  0  0  0  0  0  0  0  0  0  0
   18.9542  -18.9974    4.6707 C   0  0  0  0  0  0  0  0  0  0  0  0
   19.6591  -17.8993    5.1219 C   0  0  0  0  0  0  0  0  0  0  0  0
   19.9183  -16.9007    4.1783 C   0  0  0  0  0  0  0  0  0  0  0  0
   20.6000  -15.8119    4.4959 N   0  0  0  0  0  0  0  0  0  0  0  0
   19.9963  -18.0042    6.4514 N   0  0  0  0  0  0  0  0  0  0  0  0
   19.4595  -19.1595    6.7985 C   0  0  0  0  0  0  0  0  0  0  0  0
   18.8269  -19.8133    5.7632 N   0  0  0  0  0  0  0  0  0  0  0  0
  1  2  2  0  0  0  0
  2  3  1  0  0  0  0
  3  4  2  0  0  0  0
  5  4  1  0  0  0  0
  5  6  2  0  0  0  0
  6  1  1  0  0  0  0
  6  7  1  0  0  0  0
  8  5  1  0  0  0  0
  9  8  1  0  0  0  0
 10  4  1  0  0  0  0
 10  9  2  0  0  0  0
M  END
>  <CHROM.1>
19.41482944,-18.10441976,4.64269564,1.40179890,-1.02641317,-1.07585453

>  <Name>
1y26_lig

>  <RI>
224

>  <Rbt.Current_Directory>
/home/afrankz/demos/rdock_decoys_rna/rnas/1y26

>  <Rbt.Executable>
rbdock ($Id: //depot/dev/client3/rdock/2013.1/src/exe/rbdock.cxx#4 $)

>  <Rbt.Library>
libRbt.so (2013.1, Build901 2013/11/27)

>  <Rbt.Parameter_File>
/export/apps/rDock/src/rDock_2013.1_src/data/scripts/dock_solv.prm

>  <Rbt.Receptor>
prm/pocket_docking_6.prm

>  <SCORE>
-26.6846

>  <SCORE.INTER>
-26.6846

>  <SCORE.INTER.CONST>
1

>  <SCORE.INTER.POLAR>
-2.0198

>  <SCORE.INTER.ROT>
0

>  <SCORE.INTER.SOLV>
12.7461

>  <SCORE.INTER.VDW>
-18.9058

>  <SCORE.INTER.norm>
-2.66846

>  <SCORE.INTRA>
0

>  <SCORE.INTRA.DIHEDRAL>
0

>  <SCORE.INTRA.DIHEDRAL.0>
0

>  <SCORE.INTRA.POLAR>
0

>  <SCORE.INTRA.POLAR.0>
0

>  <SCORE.INTRA.REPUL>
0

>  <SCORE.INTRA.REPUL.0>
0

>  <SCORE.INTRA.SOLV>
0

>  <SCORE.INTRA.SOLV.lig_0>
-16.9472

>  <SCORE.INTRA.VDW>
0

>  <SCORE.INTRA.VDW.0>
0

>  <SCORE.INTRA.norm>
0

>  <SCORE.RESTR>
0

>  <SCORE.RESTR.CAVITY>
0

>  <SCORE.RESTR.norm>
0

>  <SCORE.SYSTEM>
0

>  <SCORE.SYSTEM.CONST>
0

>  <SCORE.SYSTEM.DIHEDRAL>
0

>  <SCORE.SYSTEM.SOLV>
0

>  <SCORE.SYSTEM.norm>
0

>  <SCORE.heavy>
10

>  <SCORE.norm>
-2.66846

>  <RMSD>
0.608

$$$$
1y26_lig
 OpenBabel02141814133D
libRbt.so/2013.1/901 2013/11/27
 10 11  0  0  0  0  0  0  0  0999 V2000
   19.4475  -17.0683    2.9196 N   0  0  0  0  0  0  0  0  0  0  0  0
   18.7699  -18.1812    2.6274 C   0  0  0  0  0  0  0  0  0  0  0  0
   18.4842  -19.2084    3.4249 N   0  0  0  0  0  0  0  0  0  0  0  0
   18.9600  -18.9962    4.6727 C   0  0  0  0  0  0  0  0  0  0  0  0
   19.6627  -17.8949    5.1196 C   0  0  0  0  0  0  0  0  0  0  0  0
   19.9101  -16.8944    4.1749 C   0  0  0  0  0  0  0  0  0  0  0  0
   20.5887  -15.8024    4.4884 N   0  0  0  0  0  0  0  0  0  0  0  0
   20.0100  -17.9991    6.4465 N   0  0  0  0  0  0  0  0  0  0  0  0
   19.4815  -19.1573    6.7967 C   0  0  0  0  0  0  0  0  0  0  0  0
   18.8447  -19.8135    5.7654 N   0  0  0  0  0  0  0  0  0  0  0  0
  1  2  2  0  0  0  0
  2  3  1  0  0  0  0
  3  4  2  0  0  0  0
  5  4  1  0  0  0  0
  5  6  2  0  0  0  0
  6  1  1  0  0  0  0
  6  7  1  0  0  0  0
  8  5  1  0  0  0  0
  9  8  1  0  0  0  0
 10  4  1  0  0  0  0
 10  9  2  0  0  0  0
M  END
>  <CHROM.1>
19.41595675,-18.10091546,4.64203283,1.41871542,-1.02724408,-1.06064201

>  <Name>
1y26_lig

>  <RI>
224

>  <Rbt.Current_Directory>
/home/afrankz/demos/rdock_decoys_rna/rnas/1y26

>  <Rbt.Executable>
rbdock ($Id: //depot/dev/client3/rdock/2013.1/src/exe/rbdock.cxx#4 $)

>  <Rbt.Library>
libRbt.so (2013.1, Build901 2013/11/27)

>  <Rbt.Parameter_File>
/export/apps/rDock/src/rDock_2013.1_src/data/scripts/dock_solv.prm

>  <Rbt.Receptor>
prm/pocket_docking_6.prm

>  <SCORE>
-26.6733

>  <SCORE.INTER>
-26.6733

>  <SCORE.INTER.CONST>
1

>  <SCORE.INTER.POLAR>
-2.0198

>  <SCORE.INTER.ROT>
0

>  <SCORE.INTER.SOLV>
12.7793

>  <SCORE.INTER.VDW>
-18.9093

>  <SCORE.INTER.norm>
-2.66733

>  <SCORE.INTRA>
0

>  <SCORE.INTRA.DIHEDRAL>
0

>  <SCORE.INTRA.DIHEDRAL.0>
0

>  <SCORE.INTRA.POLAR>
0

>  <SCORE.INTRA.POLAR.0>
0

>  <SCORE.INTRA.REPUL>
0

>  <SCORE.INTRA.REPUL.0>
0

>  <SCORE.INTRA.SOLV>
0

>  <SCORE.INTRA.SOLV.lig_0>
-16.9472

>  <SCORE.INTRA.VDW>
0

>  <SCORE.INTRA.VDW.0>
0

>  <SCORE.INTRA.norm>
0

>  <SCORE.RESTR>
0

>  <SCORE.RESTR.CAVITY>
0

>  <SCORE.RESTR.norm>
0

>  <SCORE.SYSTEM>
0

>  <SCORE.SYSTEM.CONST>
0

>  <SCORE.SYSTEM.DIHEDRAL>
0

>  <SCORE.SYSTEM.SOLV>
0

>  <SCORE.SYSTEM.norm>
0

>  <SCORE.heavy>
10

>  <SCORE.norm>
-2.66733

>  <RMSD>
0.608

$$$$
1y26_lig
 OpenBabel02141814133D
libRbt.so/2013.1/901 2013/11/27
 10 11  0  0  0  0  0  0  0  0999 V2000
   19.4433  -17.0709    2.9205 N   0  0  0  0  0  0  0  0  0  0  0  0
   18.7702  -18.1871    2.6304 C   0  0  0  0  0  0  0  0  0  0  0  0
   18.4764  -19.2076    3.4336 N   0  0  0  0  0  0  0  0  0  0  0  0
   18.9375  -18.9838    4.6849 C   0  0  0  0  0  0  0  0  0  0  0  0
   19.6339  -17.8778    5.1301 C   0  0  0  0  0  0  0  0  0  0  0  0
   19.8912  -16.8854    4.1796 C   0  0  0  0  0  0  0  0  0  0  0  0
   20.5649  -15.7899    4.4912 N   0  0  0  0  0  0  0  0  0  0  0  0
   19.9659  -17.9699    6.4618 N   0  0  0  0  0  0  0  0  0  0  0  0
   19.4346  -19.1256    6.8161 C   0  0  0  0  0  0  0  0  0  0  0  0
   18.8104  -19.7915    5.7834 N   0  0  0  0  0  0  0  0  0  0  0  0
  1  2  2  0  0  0  0
  2  3  1  0  0  0  0
  3  4  2  0  0  0  0
  5  4  1  0  0  0  0
  5  6  2  0  0  0  0
  6  1  1  0  0  0  0
  6  7  1  0  0  0  0
  8  5  1  0  0  0  0
  9  8  1  0  0  0  0
 10  4  1  0  0  0  0
 10  9  2  0  0  0  0
M  END
>  <CHROM.1>
19.39288450,-18.08829977,4.65158954,1.39996625,-1.03371266,-1.08556397

>  <Name>
1y26_lig

>  <RI>
224

>  <Rbt.Current_Directory>
/home/afrankz/demos/rdock_decoys_rna/rnas/1y26

>  <Rbt.Executable>
rbdock ($Id: //depot/dev/client3/rdock/2013.1/src/exe/rbdock.cxx#4 $)

>  <Rbt.Library>
libRbt.so (2013.1, Build901 2013/11/27)

>  <Rbt.Parameter_File>
/export/apps/rDock/src/rDock_2013.1_src/data/scripts/dock_solv.prm

>  <Rbt.Receptor>
prm/pocket_docking_7.prm

>  <SCORE>
-26.6762

>  <SCORE.INTER>
-26.6762

>  <SCORE.INTER.CONST>
1

>  <SCORE.INTER.POLAR>
-2.0198

>  <SCORE.INTER.ROT>
0

>  <SCORE.INTER.SOLV>
12.7917

>  <SCORE.INTER.VDW>
-18.9153

>  <SCORE.INTER.norm>
-2.66762

>  <SCORE.INTRA>
0

>  <SCORE.INTRA.DIHEDRAL>
0

>  <SCORE.INTRA.DIHEDRAL.0>
0

>  <SCORE.INTRA.POLAR>
0

>  <SCORE.INTRA.POLAR.0>
0

>  <SCORE.INTRA.REPUL>
0

>  <SCORE.INTRA.REPUL.0>
0

>  <SCORE.INTRA.SOLV>
0

>  <SCORE.INTRA.SOLV.lig_0>
-16.9472

>  <SCORE.INTRA.VDW>
0

>  <SCORE.INTRA.VDW.0>
0

>  <SCORE.INTRA.norm>
0

>  <SCORE.RESTR>
0

>  <SCORE.RESTR.CAVITY>
0

>  <SCORE.RESTR.norm>
0

>  <SCORE.SYSTEM>
0

>  <SCORE.SYSTEM.CONST>
0

>  <SCORE.SYSTEM.DIHEDRAL>
0

>  <SCORE.SYSTEM.SOLV>
0

>  <SCORE.SYSTEM.norm>
0

>  <SCORE.heavy>
10

>  <SCORE.norm>
-2.66762

>  <RMSD>
0.608

$$$$
1y26_lig
 OpenBabel02141814133D
libRbt.so/2013.1/901 2013/11/27
 10 11  0  0  0  0  0  0  0  0999 V2000
   19.4648  -17.0720    2.9208 N   0  0  0  0  0  0  0  0  0  0  0  0
   18.7851  -18.1821    2.6228 C   0  0  0  0  0  0  0  0  0  0  0  0
   18.4882  -19.2080    3.4180 N   0  0  0  0  0  0  0  0  0  0  0  0
   18.9539  -18.9975    4.6698 C   0  0  0  0  0  0  0  0  0  0  0  0
   19.6572  -17.8991    5.1227 C   0  0  0  0  0  0  0  0  0  0  0  0
   19.9171  -16.8998    4.1801 C   0  0  0  0  0  0  0  0  0  0  0  0
   20.5974  -15.8106    4.4994 N   0  0  0  0  0  0  0  0  0  0  0  0
   19.9925  -18.0045    6.4526 N   0  0  0  0  0  0  0  0  0  0  0  0
   19.4561  -19.1604    6.7983 C   0  0  0  0  0  0  0  0  0  0  0  0
   18.8256  -19.8141    5.7616 N   0  0  0  0  0  0  0  0  0  0  0  0
  1  2  2  0  0  0  0
  2  3  1  0  0  0  0
  3  4  2  0  0  0  0
  5  4  1  0  0  0  0
  5  6  2  0  0  0  0
  6  1  1  0  0  0  0
  6  7  1  0  0  0  0
  8  5  1  0  0  0  0
  9  8  1  0  0  0  0
 10  4  1  0  0  0  0
 10  9  2  0  0  0  0
M  END
>  <CHROM.1>
19.41384044,-18.10417225,4.64303691,1.39993061,-1.02781996,-1.07688859

>  <Name>
1y26_lig

>  <RI>
224

>  <Rbt.Current_Directory>
/home/afrankz/demos/rdock_decoys_rna/rnas/1y26

>  <Rbt.Executable>
rbdock ($Id: //depot/dev/client3/rdock/2013.1/src/exe/rbdock.cxx#4 $)

>  <Rbt.Library>
libRbt.so (2013.1, Build901 2013/11/27)

>  <Rbt.Parameter_File>
/export/apps/rDock/src/rDock_2013.1_src/data/scripts/dock_solv.prm

>  <Rbt.Receptor>
prm/pocket_docking_7.prm

>  <SCORE>
-26.6836

>  <SCORE.INTER>
-26.6836

>  <SCORE.INTER.CONST>
1

>  <SCORE.INTER.POLAR>
-2.0198

>  <SCORE.INTER.ROT>
0

>  <SCORE.INTER.SOLV>
12.7508

>  <SCORE.INTER.VDW>
-18.9067

>  <SCORE.INTER.norm>
-2.66836

>  <SCORE.INTRA>
0

>  <SCORE.INTRA.DIHEDRAL>
0

>  <SCORE.INTRA.DIHEDRAL.0>
0

>  <SCORE.INTRA.POLAR>
0

>  <SCORE.INTRA.POLAR.0>
0

>  <SCORE.INTRA.REPUL>
0

>  <SCORE.INTRA.REPUL.0>
0

>  <SCORE.INTRA.SOLV>
0

>  <SCORE.INTRA.SOLV.lig_0>
-16.9472

>  <SCORE.INTRA.VDW>
0

>  <SCORE.INTRA.VDW.0>
0

>  <SCORE.INTRA.norm>
0

>  <SCORE.RESTR>
0

>  <SCORE.RESTR.CAVITY>
0

>  <SCORE.RESTR.norm>
0

>  <SCORE.SYSTEM>
0

>  <SCORE.SYSTEM.CONST>
0

>  <SCORE.SYSTEM.DIHEDRAL>
0

>  <SCORE.SYSTEM.SOLV>
0

>  <SCORE.SYSTEM.norm>
0

>  <SCORE.heavy>
10

>  <SCORE.norm>
-2.66836

>  <RMSD>
0.608

$$$$
1y26_lig
 OpenBabel02141814133D
libRbt.so/2013.1/901 2013/11/27
 10 11  0  0  0  0  0  0  0  0999 V2000
   19.4477  -17.0744    2.9183 N   0  0  0  0  0  0  0  0  0  0  0  0
   18.7760  -18.1921    2.6309 C   0  0  0  0  0  0  0  0  0  0  0  0
   18.4825  -19.2105    3.4370 N   0  0  0  0  0  0  0  0  0  0  0  0
   18.9422  -18.9824    4.6880 C   0  0  0  0  0  0  0  0  0  0  0  0
   19.6370  -17.8744    5.1305 C   0  0  0  0  0  0  0  0  0  0  0  0
   19.8942  -16.8846    4.1772 C   0  0  0  0  0  0  0  0  0  0  0  0
   20.5666  -15.7875    4.4861 N   0  0  0  0  0  0  0  0  0  0  0  0
   19.9679  -17.9620    6.4628 N   0  0  0  0  0  0  0  0  0  0  0  0
   19.4374  -19.1172    6.8201 C   0  0  0  0  0  0  0  0  0  0  0  0
   18.8149  -19.7869    5.7889 N   0  0  0  0  0  0  0  0  0  0  0  0
  1  2  2  0  0  0  0
  2  3  1  0  0  0  0
  3  4  2  0  0  0  0
  5  4  1  0  0  0  0
  5  6  2  0  0  0  0
  6  1  1  0  0  0  0
  6  7  1  0  0  0  0
  8  5  1  0  0  0  0
  9  8  1  0  0  0  0
 10  4  1  0  0  0  0
 10  9  2  0  0  0  0
M  END
>  <CHROM.1>
19.39670904,-18.08655708,4.65240626,1.39925298,-1.03504176,-1.08922423

>  <Name>
1y26_lig

>  <RI>
224

>  <Rbt.Current_Directory>
/home/afrankz/demos/rdock_decoys_rna/rnas/1y26

>  <Rbt.Executable>
rbdock ($Id: //depot/dev/client3/rdock/2013.1/src/exe/rbdock.cxx#4 $)

>  <Rbt.Library>
libRbt.so (2013.1, Build901 2013/11/27)

>  <Rbt.Parameter_File>
/export/apps/rDock/src/rDock_2013.1_src/data/scripts/dock_solv.prm

>  <Rbt.Receptor>
prm/pocket_docking_7.prm

>  <SCORE>
-26.6831

>  <SCORE.INTER>
-26.6831

>  <SCORE.INTER.CONST>
1

>  <SCORE.INTER.POLAR>
-2.0198

>  <SCORE.INTER.ROT>
0

>  <SCORE.INTER.SOLV>
12.7795

>  <SCORE.INTER.VDW>
-18.9159

>  <SCORE.INTER.norm>
-2.66831

>  <SCORE.INTRA>
0

>  <SCORE.INTRA.DIHEDRAL>
0

>  <SCORE.INTRA.DIHEDRAL.0>
0

>  <SCORE.INTRA.POLAR>
0

>  <SCORE.INTRA.POLAR.0>
0

>  <SCORE.INTRA.REPUL>
0

>  <SCORE.INTRA.REPUL.0>
0

>  <SCORE.INTRA.SOLV>
0

>  <SCORE.INTRA.SOLV.lig_0>
-16.9472

>  <SCORE.INTRA.VDW>
0

>  <SCORE.INTRA.VDW.0>
0

>  <SCORE.INTRA.norm>
0

>  <SCORE.RESTR>
0

>  <SCORE.RESTR.CAVITY>
0

>  <SCORE.RESTR.norm>
0

>  <SCORE.SYSTEM>
0

>  <SCORE.SYSTEM.CONST>
0

>  <SCORE.SYSTEM.DIHEDRAL>
0

>  <SCORE.SYSTEM.SOLV>
0

>  <SCORE.SYSTEM.norm>
0

>  <SCORE.heavy>
10

>  <SCORE.norm>
-2.66831

>  <RMSD>
0.608

$$$$
1y26_lig
 OpenBabel02141814133D
libRbt.so/2013.1/901 2013/11/27
 10 11  0  0  0  0  0  0  0  0999 V2000
   19.4636  -17.0732    2.9189 N   0  0  0  0  0  0  0  0  0  0  0  0
   18.7828  -18.1835    2.6241 C   0  0  0  0  0  0  0  0  0  0  0  0
   18.4884  -19.2087    3.4210 N   0  0  0  0  0  0  0  0  0  0  0  0
   18.9581  -18.9973    4.6712 C   0  0  0  0  0  0  0  0  0  0  0  0
   19.6631  -17.8986    5.1209 C   0  0  0  0  0  0  0  0  0  0  0  0
   19.9200  -16.9001    4.1767 C   0  0  0  0  0  0  0  0  0  0  0  0
   20.6015  -15.8107    4.4928 N   0  0  0  0  0  0  0  0  0  0  0  0
   20.0026  -18.0029    6.4498 N   0  0  0  0  0  0  0  0  0  0  0  0
   19.4672  -19.1585    6.7982 C   0  0  0  0  0  0  0  0  0  0  0  0
   18.8333  -19.8130    5.7641 N   0  0  0  0  0  0  0  0  0  0  0  0
  1  2  2  0  0  0  0
  2  3  1  0  0  0  0
  3  4  2  0  0  0  0
  5  4  1  0  0  0  0
  5  6  2  0  0  0  0
  6  1  1  0  0  0  0
  6  7  1  0  0  0  0
  8  5  1  0  0  0  0
  9  8  1  0  0  0  0
 10  4  1  0  0  0  0
 10  9  2  0  0  0  0
M  END
>  <CHROM.1>
19.41809454,-18.10399534,4.64218173,1.40534836,-1.02617008,-1.07306065

>  <Name>
1y26_lig

>  <RI>
0

>  <Rbt.Current_Directory>
/home/afrankz/demos/rdock_decoys_rna/rnas/1y26

>  <Rbt.Executable>
rbdock ($Id: //depot/dev/client3/rdock/2013.1/src/exe/rbdock.cxx#4 $)

>  <Rbt.Library>
libRbt.so (2013.1, Build901 2013/11/27)

>  <Rbt.Parameter_File>
/export/apps/rDock/src/rDock_2013.1_src/data/scripts/dock_solv.prm

>  <Rbt.Receptor>
prm/pocket_docking_8.prm

>  <SCORE>
-26.6844

>  <SCORE.INTER>
-26.6844

>  <SCORE.INTER.CONST>
1

>  <SCORE.INTER.POLAR>
-2.0198

>  <SCORE.INTER.ROT>
0

>  <SCORE.INTER.SOLV>
12.7449

>  <SCORE.INTER.VDW>
-18.9053

>  <SCORE.INTER.norm>
-2.66844

>  <SCORE.INTRA>
0

>  <SCORE.INTRA.DIHEDRAL>
0

>  <SCORE.INTRA.DIHEDRAL.0>
0

>  <SCORE.INTRA.POLAR>
0

>  <SCORE.INTRA.POLAR.0>
0

>  <SCORE.INTRA.REPUL>
0

>  <SCORE.INTRA.REPUL.0>
0

>  <SCORE.INTRA.SOLV>
0

>  <SCORE.INTRA.SOLV.lig_0>
-16.9472

>  <SCORE.INTRA.VDW>
0

>  <SCORE.INTRA.VDW.0>
0

>  <SCORE.INTRA.norm>
0

>  <SCORE.RESTR>
0

>  <SCORE.RESTR.CAVITY>
0

>  <SCORE.RESTR.norm>
0

>  <SCORE.SYSTEM>
0

>  <SCORE.SYSTEM.CONST>
0

>  <SCORE.SYSTEM.DIHEDRAL>
0

>  <SCORE.SYSTEM.SOLV>
0

>  <SCORE.SYSTEM.norm>
0

>  <SCORE.heavy>
10

>  <SCORE.norm>
-2.66844

>  <RMSD>
0.608

$$$$
1y26_lig
 OpenBabel02141814133D
libRbt.so/2013.1/901 2013/11/27
 10 11  0  0  0  0  0  0  0  0999 V2000
   19.4635  -17.0712    2.9198 N   0  0  0  0  0  0  0  0  0  0  0  0
   18.7858  -18.1830    2.6234 C   0  0  0  0  0  0  0  0  0  0  0  0
   18.4922  -19.2091    3.4196 N   0  0  0  0  0  0  0  0  0  0  0  0
   18.9591  -18.9969    4.6707 C   0  0  0  0  0  0  0  0  0  0  0  0
   19.6607  -17.8967    5.1220 C   0  0  0  0  0  0  0  0  0  0  0  0
   19.9172  -16.8974    4.1785 C   0  0  0  0  0  0  0  0  0  0  0  0
   20.5956  -15.8066    4.4962 N   0  0  0  0  0  0  0  0  0  0  0  0
   19.9979  -18.0006    6.4515 N   0  0  0  0  0  0  0  0  0  0  0  0
   19.4645  -19.1575    6.7986 C   0  0  0  0  0  0  0  0  0  0  0  0
   18.8340  -19.8131    5.7631 N   0  0  0  0  0  0  0  0  0  0  0  0
  1  2  2  0  0  0  0
  2  3  1  0  0  0  0
  3  4  2  0  0  0  0
  5  4  1  0  0  0  0
  5  6  2  0  0  0  0
  6  1  1  0  0  0  0
  6  7  1  0  0  0  0
  8  5  1  0  0  0  0
  9  8  1  0  0  0  0
 10  4  1  0  0  0  0
 10  9  2  0  0  0  0
M  END
>  <CHROM.1>
19.41709132,-18.10255633,4.64277309,1.40419758,-1.02905720,-1.07380222

>  <Name>
1y26_lig

>  <RI>
0

>  <Rbt.Current_Directory>
/home/afrankz/demos/rdock_decoys_rna/rnas/1y26

>  <Rbt.Executable>
rbdock ($Id: //depot/dev/client3/rdock/2013.1/src/exe/rbdock.cxx#4 $)

>  <Rbt.Library>
libRbt.so (2013.1, Build901 2013/11/27)

>  <Rbt.Parameter_File>
/export/apps/rDock/src/rDock_2013.1_src/data/scripts/dock_solv.prm

>  <Rbt.Receptor>
prm/pocket_docking_8.prm

>  <SCORE>
-26.6844

>  <SCORE.INTER>
-26.6844

>  <SCORE.INTER.CONST>
1

>  <SCORE.INTER.POLAR>
-2.0198

>  <SCORE.INTER.ROT>
0

>  <SCORE.INTER.SOLV>
12.7551

>  <SCORE.INTER.VDW>
-18.9086

>  <SCORE.INTER.norm>
-2.66844

>  <SCORE.INTRA>
0

>  <SCORE.INTRA.DIHEDRAL>
0

>  <SCORE.INTRA.DIHEDRAL.0>
0

>  <SCORE.INTRA.POLAR>
0

>  <SCORE.INTRA.POLAR.0>
0

>  <SCORE.INTRA.REPUL>
0

>  <SCORE.INTRA.REPUL.0>
0

>  <SCORE.INTRA.SOLV>
0

>  <SCORE.INTRA.SOLV.lig_0>
-16.9472

>  <SCORE.INTRA.VDW>
0

>  <SCORE.INTRA.VDW.0>
0

>  <SCORE.INTRA.norm>
0

>  <SCORE.RESTR>
0

>  <SCORE.RESTR.CAVITY>
0

>  <SCORE.RESTR.norm>
0

>  <SCORE.SYSTEM>
0

>  <SCORE.SYSTEM.CONST>
0

>  <SCORE.SYSTEM.DIHEDRAL>
0

>  <SCORE.SYSTEM.SOLV>
0

>  <SCORE.SYSTEM.norm>
0

>  <SCORE.heavy>
10

>  <SCORE.norm>
-2.66844

>  <RMSD>
0.608

$$$$
1y26_lig
 OpenBabel02141814133D
libRbt.so/2013.1/901 2013/11/27
 10 11  0  0  0  0  0  0  0  0999 V2000
   19.4418  -17.0761    2.9201 N   0  0  0  0  0  0  0  0  0  0  0  0
   18.7670  -18.1919    2.6323 C   0  0  0  0  0  0  0  0  0  0  0  0
   18.4720  -19.2104    3.4376 N   0  0  0  0  0  0  0  0  0  0  0  0
   18.9337  -18.9848    4.6883 C   0  0  0  0  0  0  0  0  0  0  0  0
   19.6318  -17.8789    5.1312 C   0  0  0  0  0  0  0  0  0  0  0  0
   19.8903  -16.8888    4.1786 C   0  0  0  0  0  0  0  0  0  0  0  0
   20.5657  -15.7937    4.4879 N   0  0  0  0  0  0  0  0  0  0  0  0
   19.9641  -17.9689    6.4630 N   0  0  0  0  0  0  0  0  0  0  0  0
   19.4311  -19.1231    6.8197 C   0  0  0  0  0  0  0  0  0  0  0  0
   18.8057  -19.7902    5.7885 N   0  0  0  0  0  0  0  0  0  0  0  0
  1  2  2  0  0  0  0
  2  3  1  0  0  0  0
  3  4  2  0  0  0  0
  5  4  1  0  0  0  0
  5  6  2  0  0  0  0
  6  1  1  0  0  0  0
  6  7  1  0  0  0  0
  8  5  1  0  0  0  0
  9  8  1  0  0  0  0
 10  4  1  0  0  0  0
 10  9  2  0  0  0  0
M  END
>  <CHROM.1>
19.39036716,-18.09004192,4.65312951,1.39907844,-1.03229587,-1.08829106

>  <Name>
1y26_lig

>  <RI>
0

>  <Rbt.Current_Directory>
/home/afrankz/demos/rdock_decoys_rna/rnas/1y26

>  <Rbt.Executable>
rbdock ($Id: //depot/dev/client3/rdock/2013.1/src/exe/rbdock.cxx#4 $)

>  <Rbt.Library>
libRbt.so (2013.1, Build901 2013/11/27)

>  <Rbt.Parameter_File>
/export/apps/rDock/src/rDock_2013.1_src/data/scripts/dock_solv.prm

>  <Rbt.Receptor>
prm/blind_docking_60.prm

>  <SCORE>
-26.675

>  <SCORE.INTER>
-26.675

>  <SCORE.INTER.CONST>
1

>  <SCORE.INTER.POLAR>
-2.0198

>  <SCORE.INTER.ROT>
0

>  <SCORE.INTER.SOLV>
12.784

>  <SCORE.INTER.VDW>
-18.912

>  <SCORE.INTER.norm>
-2.6675

>  <SCORE.INTRA>
0

>  <SCORE.INTRA.DIHEDRAL>
0

>  <SCORE.INTRA.DIHEDRAL.0>
0

>  <SCORE.INTRA.POLAR>
0

>  <SCORE.INTRA.POLAR.0>
0

>  <SCORE.INTRA.REPUL>
0

>  <SCORE.INTRA.REPUL.0>
0

>  <SCORE.INTRA.SOLV>
0

>  <SCORE.INTRA.SOLV.lig_0>
-16.9472

>  <SCORE.INTRA.VDW>
0

>  <SCORE.INTRA.VDW.0>
0

>  <SCORE.INTRA.norm>
0

>  <SCORE.RESTR>
0

>  <SCORE.RESTR.CAVITY>
0

>  <SCORE.RESTR.norm>
0

>  <SCORE.SYSTEM>
0

>  <SCORE.SYSTEM.CONST>
0

>  <SCORE.SYSTEM.DIHEDRAL>
0

>  <SCORE.SYSTEM.SOLV>
0

>  <SCORE.SYSTEM.norm>
0

>  <SCORE.heavy>
10

>  <SCORE.norm>
-2.6675

>  <RMSD>
0.609

$$$$
1y26_lig
 OpenBabel02141814133D
libRbt.so/2013.1/901 2013/11/27
 10 11  0  0  0  0  0  0  0  0999 V2000
   19.4566  -17.0680    2.9211 N   0  0  0  0  0  0  0  0  0  0  0  0
   18.7828  -18.1821    2.6245 C   0  0  0  0  0  0  0  0  0  0  0  0
   18.4927  -19.2093    3.4204 N   0  0  0  0  0  0  0  0  0  0  0  0
   18.9587  -18.9957    4.6716 C   0  0  0  0  0  0  0  0  0  0  0  0
   19.6564  -17.8931    5.1231 C   0  0  0  0  0  0  0  0  0  0  0  0
   19.9095  -16.8928    4.1798 C   0  0  0  0  0  0  0  0  0  0  0  0
   20.5840  -15.7996    4.4977 N   0  0  0  0  0  0  0  0  0  0  0  0
   19.9939  -17.9960    6.4527 N   0  0  0  0  0  0  0  0  0  0  0  0
   19.4645  -19.1548    6.7996 C   0  0  0  0  0  0  0  0  0  0  0  0
   18.8364  -19.8125    5.7640 N   0  0  0  0  0  0  0  0  0  0  0  0
  1  2  2  0  0  0  0
  2  3  1  0  0  0  0
  3  4  2  0  0  0  0
  5  4  1  0  0  0  0
  5  6  2  0  0  0  0
  6  1  1  0  0  0  0
  6  7  1  0  0  0  0
  8  5  1  0  0  0  0
  9  8  1  0  0  0  0
 10  4  1  0  0  0  0
 10  9  2  0  0  0  0
M  END
>  <CHROM.1>
19.41361772,-18.09974737,4.64388032,1.40732229,-1.03218025,-1.07098546

>  <Name>
1y26_lig

>  <RI>
224

>  <Rbt.Current_Directory>
/home/afrankz/demos/rdock_decoys_rna/rnas/1y26

>  <Rbt.Executable>
rbdock ($Id: //depot/dev/client3/rdock/2013.1/src/exe/rbdock.cxx#4 $)

>  <Rbt.Library>
libRbt.so (2013.1, Build901 2013/11/27)

>  <Rbt.Parameter_File>
/export/apps/rDock/src/rDock_2013.1_src/data/scripts/dock_solv.prm

>  <Rbt.Receptor>
prm/pocket_docking_3.prm

>  <SCORE>
-26.6809

>  <SCORE.INTER>
-26.6809

>  <SCORE.INTER.CONST>
1

>  <SCORE.INTER.POLAR>
-2.0198

>  <SCORE.INTER.ROT>
0

>  <SCORE.INTER.SOLV>
12.7782

>  <SCORE.INTER.VDW>
-18.914

>  <SCORE.INTER.norm>
-2.66809

>  <SCORE.INTRA>
0

>  <SCORE.INTRA.DIHEDRAL>
0

>  <SCORE.INTRA.DIHEDRAL.0>
0

>  <SCORE.INTRA.POLAR>
0

>  <SCORE.INTRA.POLAR.0>
0

>  <SCORE.INTRA.REPUL>
0

>  <SCORE.INTRA.REPUL.0>
0

>  <SCORE.INTRA.SOLV>
0

>  <SCORE.INTRA.SOLV.lig_0>
-16.9472

>  <SCORE.INTRA.VDW>
0

>  <SCORE.INTRA.VDW.0>
0

>  <SCORE.INTRA.norm>
0

>  <SCORE.RESTR>
0

>  <SCORE.RESTR.CAVITY>
0

>  <SCORE.RESTR.norm>
0

>  <SCORE.SYSTEM>
0

>  <SCORE.SYSTEM.CONST>
0

>  <SCORE.SYSTEM.DIHEDRAL>
0

>  <SCORE.SYSTEM.SOLV>
0

>  <SCORE.SYSTEM.norm>
0

>  <SCORE.heavy>
10

>  <SCORE.norm>
-2.66809

>  <RMSD>
0.609

$$$$
1y26_lig
 OpenBabel02141814133D
libRbt.so/2013.1/901 2013/11/27
 10 11  0  0  0  0  0  0  0  0999 V2000
   19.4271  -17.0751    2.9192 N   0  0  0  0  0  0  0  0  0  0  0  0
   18.7528  -18.1929    2.6383 C   0  0  0  0  0  0  0  0  0  0  0  0
   18.4669  -19.2112    3.4472 N   0  0  0  0  0  0  0  0  0  0  0  0
   18.9381  -18.9829    4.6938 C   0  0  0  0  0  0  0  0  0  0  0  0
   19.6370  -17.8749    5.1297 C   0  0  0  0  0  0  0  0  0  0  0  0
   19.8853  -16.8852    4.1739 C   0  0  0  0  0  0  0  0  0  0  0  0
   20.5605  -15.7880    4.4764 N   0  0  0  0  0  0  0  0  0  0  0  0
   19.9804  -17.9624    6.4589 N   0  0  0  0  0  0  0  0  0  0  0  0
   19.4533  -19.1175    6.8212 C   0  0  0  0  0  0  0  0  0  0  0  0
   18.8212  -19.7874    5.7959 N   0  0  0  0  0  0  0  0  0  0  0  0
  1  2  2  0  0  0  0
  2  3  1  0  0  0  0
  3  4  2  0  0  0  0
  5  4  1  0  0  0  0
  5  6  2  0  0  0  0
  6  1  1  0  0  0  0
  6  7  1  0  0  0  0
  8  5  1  0  0  0  0
  9  8  1  0  0  0  0
 10  4  1  0  0  0  0
 10  9  2  0  0  0  0
M  END
>  <CHROM.1>
19.39229270,-18.08712525,4.65385937,1.41536319,-1.03069387,-1.07549578

>  <Name>
1y26_lig

>  <RI>
0

>  <Rbt.Current_Directory>
/home/afrankz/demos/rdock_decoys_rna/rnas/1y26

>  <Rbt.Executable>
rbdock ($Id: //depot/dev/client3/rdock/2013.1/src/exe/rbdock.cxx#4 $)

>  <Rbt.Library>
libRbt.so (2013.1, Build901 2013/11/27)

>  <Rbt.Parameter_File>
/export/apps/rDock/src/rDock_2013.1_src/data/scripts/dock_solv.prm

>  <Rbt.Receptor>
prm/pocket_docking_4.prm

>  <SCORE>
-26.6765

>  <SCORE.INTER>
-26.6765

>  <SCORE.INTER.CONST>
1

>  <SCORE.INTER.POLAR>
-2.0198

>  <SCORE.INTER.ROT>
0

>  <SCORE.INTER.SOLV>
12.8013

>  <SCORE.INTER.VDW>
-18.9187

>  <SCORE.INTER.norm>
-2.66765

>  <SCORE.INTRA>
0

>  <SCORE.INTRA.DIHEDRAL>
0

>  <SCORE.INTRA.DIHEDRAL.0>
0

>  <SCORE.INTRA.POLAR>
0

>  <SCORE.INTRA.POLAR.0>
0

>  <SCORE.INTRA.REPUL>
0

>  <SCORE.INTRA.REPUL.0>
0

>  <SCORE.INTRA.SOLV>
0

>  <SCORE.INTRA.SOLV.lig_0>
-16.9472

>  <SCORE.INTRA.VDW>
0

>  <SCORE.INTRA.VDW.0>
0

>  <SCORE.INTRA.norm>
0

>  <SCORE.RESTR>
0

>  <SCORE.RESTR.CAVITY>
0

>  <SCORE.RESTR.norm>
0

>  <SCORE.SYSTEM>
0

>  <SCORE.SYSTEM.CONST>
0

>  <SCORE.SYSTEM.DIHEDRAL>
0

>  <SCORE.SYSTEM.SOLV>
0

>  <SCORE.SYSTEM.norm>
0

>  <SCORE.heavy>
10

>  <SCORE.norm>
-2.66765

>  <RMSD>
0.609

$$$$
1y26_lig
 OpenBabel02141814133D
libRbt.so/2013.1/901 2013/11/27
 10 11  0  0  0  0  0  0  0  0999 V2000
   19.4518  -17.0742    2.9201 N   0  0  0  0  0  0  0  0  0  0  0  0
   18.7761  -18.1896    2.6325 C   0  0  0  0  0  0  0  0  0  0  0  0
   18.4778  -19.2064    3.4388 N   0  0  0  0  0  0  0  0  0  0  0  0
   18.9371  -18.9794    4.6901 C   0  0  0  0  0  0  0  0  0  0  0  0
   19.6357  -17.8739    5.1328 C   0  0  0  0  0  0  0  0  0  0  0  0
   19.8977  -16.8856    4.1793 C   0  0  0  0  0  0  0  0  0  0  0  0
   20.5740  -15.7909    4.4884 N   0  0  0  0  0  0  0  0  0  0  0  0
   19.9649  -17.9622    6.4655 N   0  0  0  0  0  0  0  0  0  0  0  0
   19.4296  -19.1151    6.8228 C   0  0  0  0  0  0  0  0  0  0  0  0
   18.8056  -19.7829    5.7913 N   0  0  0  0  0  0  0  0  0  0  0  0
  1  2  2  0  0  0  0
  2  3  1  0  0  0  0
  3  4  2  0  0  0  0
  5  4  1  0  0  0  0
  5  6  2  0  0  0  0
  6  1  1  0  0  0  0
  6  7  1  0  0  0  0
  8  5  1  0  0  0  0
  9  8  1  0  0  0  0
 10  4  1  0  0  0  0
 10  9  2  0  0  0  0
M  END
>  <CHROM.1>
19.39508102,-18.08540079,4.65459366,1.39401904,-1.03209818,-1.09420434

>  <Name>
1y26_lig

>  <RI>
0

>  <Rbt.Current_Directory>
/home/afrankz/demos/rdock_decoys_rna/rnas/1y26

>  <Rbt.Executable>
rbdock ($Id: //depot/dev/client3/rdock/2013.1/src/exe/rbdock.cxx#4 $)

>  <Rbt.Library>
libRbt.so (2013.1, Build901 2013/11/27)

>  <Rbt.Parameter_File>
/export/apps/rDock/src/rDock_2013.1_src/data/scripts/dock_solv.prm

>  <Rbt.Receptor>
prm/pocket_docking_4.prm

>  <SCORE>
-26.6819

>  <SCORE.INTER>
-26.6819

>  <SCORE.INTER.CONST>
1

>  <SCORE.INTER.POLAR>
-2.0198

>  <SCORE.INTER.ROT>
0

>  <SCORE.INTER.SOLV>
12.7654

>  <SCORE.INTER.VDW>
-18.9104

>  <SCORE.INTER.norm>
-2.66819

>  <SCORE.INTRA>
0

>  <SCORE.INTRA.DIHEDRAL>
0

>  <SCORE.INTRA.DIHEDRAL.0>
0

>  <SCORE.INTRA.POLAR>
0

>  <SCORE.INTRA.POLAR.0>
0

>  <SCORE.INTRA.REPUL>
0

>  <SCORE.INTRA.REPUL.0>
0

>  <SCORE.INTRA.SOLV>
0

>  <SCORE.INTRA.SOLV.lig_0>
-16.9472

>  <SCORE.INTRA.VDW>
0

>  <SCORE.INTRA.VDW.0>
0

>  <SCORE.INTRA.norm>
0

>  <SCORE.RESTR>
0

>  <SCORE.RESTR.CAVITY>
0

>  <SCORE.RESTR.norm>
0

>  <SCORE.SYSTEM>
0

>  <SCORE.SYSTEM.CONST>
0

>  <SCORE.SYSTEM.DIHEDRAL>
0

>  <SCORE.SYSTEM.SOLV>
0

>  <SCORE.SYSTEM.norm>
0

>  <SCORE.heavy>
10

>  <SCORE.norm>
-2.66819

>  <RMSD>
0.609

$$$$
1y26_lig
 OpenBabel02141814133D
libRbt.so/2013.1/901 2013/11/27
 10 11  0  0  0  0  0  0  0  0999 V2000
   19.4569  -17.0752    2.9210 N   0  0  0  0  0  0  0  0  0  0  0  0
   18.7792  -18.1892    2.6331 C   0  0  0  0  0  0  0  0  0  0  0  0
   18.4770  -19.2046    3.4396 N   0  0  0  0  0  0  0  0  0  0  0  0
   18.9343  -18.9778    4.6916 C   0  0  0  0  0  0  0  0  0  0  0  0
   19.6346  -17.8735    5.1348 C   0  0  0  0  0  0  0  0  0  0  0  0
   19.9008  -16.8865    4.1810 C   0  0  0  0  0  0  0  0  0  0  0  0
   20.5789  -15.7932    4.4906 N   0  0  0  0  0  0  0  0  0  0  0  0
   19.9610  -17.9614    6.4682 N   0  0  0  0  0  0  0  0  0  0  0  0
   19.4224  -19.1129    6.8254 C   0  0  0  0  0  0  0  0  0  0  0  0
   18.7988  -19.7801    5.7932 N   0  0  0  0  0  0  0  0  0  0  0  0
  1  2  2  0  0  0  0
  2  3  1  0  0  0  0
  3  4  2  0  0  0  0
  5  4  1  0  0  0  0
  5  6  2  0  0  0  0
  6  1  1  0  0  0  0
  6  7  1  0  0  0  0
  8  5  1  0  0  0  0
  9  8  1  0  0  0  0
 10  4  1  0  0  0  0
 10  9  2  0  0  0  0
M  END
>  <CHROM.1>
19.39446285,-18.08480628,4.65627974,1.38854362,-1.03095633,-1.09970187

>  <Name>
1y26_lig

>  <RI>
0

>  <Rbt.Current_Directory>
/home/afrankz/demos/rdock_decoys_rna/rnas/1y26

>  <Rbt.Executable>
rbdock ($Id: //depot/dev/client3/rdock/2013.1/src/exe/rbdock.cxx#4 $)

>  <Rbt.Library>
libRbt.so (2013.1, Build901 2013/11/27)

>  <Rbt.Parameter_File>
/export/apps/rDock/src/rDock_2013.1_src/data/scripts/dock_solv.prm

>  <Rbt.Receptor>
prm/pocket_docking_4.prm

>  <SCORE>
-26.68

>  <SCORE.INTER>
-26.68

>  <SCORE.INTER.CONST>
1

>  <SCORE.INTER.POLAR>
-2.0198

>  <SCORE.INTER.ROT>
0

>  <SCORE.INTER.SOLV>
12.7525

>  <SCORE.INTER.VDW>
-18.9048

>  <SCORE.INTER.norm>
-2.668

>  <SCORE.INTRA>
0

>  <SCORE.INTRA.DIHEDRAL>
0

>  <SCORE.INTRA.DIHEDRAL.0>
0

>  <SCORE.INTRA.POLAR>
0

>  <SCORE.INTRA.POLAR.0>
0

>  <SCORE.INTRA.REPUL>
0

>  <SCORE.INTRA.REPUL.0>
0

>  <SCORE.INTRA.SOLV>
0

>  <SCORE.INTRA.SOLV.lig_0>
-16.9472

>  <SCORE.INTRA.VDW>
0

>  <SCORE.INTRA.VDW.0>
0

>  <SCORE.INTRA.norm>
0

>  <SCORE.RESTR>
0

>  <SCORE.RESTR.CAVITY>
0

>  <SCORE.RESTR.norm>
0

>  <SCORE.SYSTEM>
0

>  <SCORE.SYSTEM.CONST>
0

>  <SCORE.SYSTEM.DIHEDRAL>
0

>  <SCORE.SYSTEM.SOLV>
0

>  <SCORE.SYSTEM.norm>
0

>  <SCORE.heavy>
10

>  <SCORE.norm>
-2.668

>  <RMSD>
0.609

$$$$
1y26_lig
 OpenBabel02141814133D
libRbt.so/2013.1/901 2013/11/27
 10 11  0  0  0  0  0  0  0  0999 V2000
   19.6491  -17.0543    2.9132 N   0  0  0  0  0  0  0  0  0  0  0  0
   18.9489  -18.1412    2.5793 C   0  0  0  0  0  0  0  0  0  0  0  0
   18.5841  -19.1600    3.3551 N   0  0  0  0  0  0  0  0  0  0  0  0
   18.9990  -18.9689    4.6277 C   0  0  0  0  0  0  0  0  0  0  0  0
   19.7154  -17.8950    5.1173 C   0  0  0  0  0  0  0  0  0  0  0  0
   20.0491  -16.9011    4.1925 C   0  0  0  0  0  0  0  0  0  0  0  0
   20.7483  -15.8352    4.5476 N   0  0  0  0  0  0  0  0  0  0  0  0
   19.9867  -18.0158    6.4605 N   0  0  0  0  0  0  0  0  0  0  0  0
   19.3990  -19.1554    6.7758 C   0  0  0  0  0  0  0  0  0  0  0  0
   18.7958  -19.7850    5.7085 N   0  0  0  0  0  0  0  0  0  0  0  0
  1  2  2  0  0  0  0
  2  3  1  0  0  0  0
  3  4  2  0  0  0  0
  5  4  1  0  0  0  0
  5  6  2  0  0  0  0
  6  1  1  0  0  0  0
  6  7  1  0  0  0  0
  8  5  1  0  0  0  0
  9  8  1  0  0  0  0
 10  4  1  0  0  0  0
 10  9  2  0  0  0  0
M  END
>  <CHROM.1>
19.48766953,-18.09053371,4.62618241,1.29520814,-1.01904476,-1.16201879

>  <Name>
1y26_lig

>  <RI>
224

>  <Rbt.Current_Directory>
/home/afrankz/demos/rdock_decoys_rna/rnas/1y26

>  <Rbt.Executable>
rbdock ($Id: //depot/dev/client3/rdock/2013.1/src/exe/rbdock.cxx#4 $)

>  <Rbt.Library>
libRbt.so (2013.1, Build901 2013/11/27)

>  <Rbt.Parameter_File>
/export/apps/rDock/src/rDock_2013.1_src/data/scripts/dock_solv.prm

>  <Rbt.Receptor>
prm/pocket_docking_6.prm

>  <SCORE>
-26.6278

>  <SCORE.INTER>
-26.6278

>  <SCORE.INTER.CONST>
1

>  <SCORE.INTER.POLAR>
-2.0198

>  <SCORE.INTER.ROT>
0

>  <SCORE.INTER.SOLV>
12.4155

>  <SCORE.INTER.VDW>
-18.7577

>  <SCORE.INTER.norm>
-2.66278

>  <SCORE.INTRA>
0

>  <SCORE.INTRA.DIHEDRAL>
0

>  <SCORE.INTRA.DIHEDRAL.0>
0

>  <SCORE.INTRA.POLAR>
0

>  <SCORE.INTRA.POLAR.0>
0

>  <SCORE.INTRA.REPUL>
0

>  <SCORE.INTRA.REPUL.0>
0

>  <SCORE.INTRA.SOLV>
0

>  <SCORE.INTRA.SOLV.lig_0>
-16.9472

>  <SCORE.INTRA.VDW>
0

>  <SCORE.INTRA.VDW.0>
0

>  <SCORE.INTRA.norm>
0

>  <SCORE.RESTR>
0

>  <SCORE.RESTR.CAVITY>
0

>  <SCORE.RESTR.norm>
0

>  <SCORE.SYSTEM>
0

>  <SCORE.SYSTEM.CONST>
0

>  <SCORE.SYSTEM.DIHEDRAL>
0

>  <SCORE.SYSTEM.SOLV>
0

>  <SCORE.SYSTEM.norm>
0

>  <SCORE.heavy>
10

>  <SCORE.norm>
-2.66278

>  <RMSD>
0.609

$$$$
1y26_lig
 OpenBabel02141814133D
libRbt.so/2013.1/901 2013/11/27
 10 11  0  0  0  0  0  0  0  0999 V2000
   19.4709  -17.0740    2.9227 N   0  0  0  0  0  0  0  0  0  0  0  0
   18.7845  -18.1798    2.6242 C   0  0  0  0  0  0  0  0  0  0  0  0
   18.4812  -19.2042    3.4189 N   0  0  0  0  0  0  0  0  0  0  0  0
   18.9478  -18.9970    4.6709 C   0  0  0  0  0  0  0  0  0  0  0  0
   19.6577  -17.9031    5.1244 C   0  0  0  0  0  0  0  0  0  0  0  0
   19.9239  -16.9050    4.1822 C   0  0  0  0  0  0  0  0  0  0  0  0
   20.6108  -15.8201    4.5020 N   0  0  0  0  0  0  0  0  0  0  0  0
   19.9920  -18.0109    6.4544 N   0  0  0  0  0  0  0  0  0  0  0  0
   19.4485  -19.1637    6.7995 C   0  0  0  0  0  0  0  0  0  0  0  0
   18.8143  -19.8132    5.7625 N   0  0  0  0  0  0  0  0  0  0  0  0
  1  2  2  0  0  0  0
  2  3  1  0  0  0  0
  3  4  2  0  0  0  0
  5  4  1  0  0  0  0
  5  6  2  0  0  0  0
  6  1  1  0  0  0  0
  6  7  1  0  0  0  0
  8  5  1  0  0  0  0
  9  8  1  0  0  0  0
 10  4  1  0  0  0  0
 10  9  2  0  0  0  0
M  END
>  <CHROM.1>
19.41323645,-18.10646880,4.64460695,1.39398852,-1.02255389,-1.08161420

>  <Name>
1y26_lig

>  <RI>
224

>  <Rbt.Current_Directory>
/home/afrankz/demos/rdock_decoys_rna/rnas/1y26

>  <Rbt.Executable>
rbdock ($Id: //depot/dev/client3/rdock/2013.1/src/exe/rbdock.cxx#4 $)

>  <Rbt.Library>
libRbt.so (2013.1, Build901 2013/11/27)

>  <Rbt.Parameter_File>
/export/apps/rDock/src/rDock_2013.1_src/data/scripts/dock_solv.prm

>  <Rbt.Receptor>
prm/pocket_docking_6.prm

>  <SCORE>
-26.6831

>  <SCORE.INTER>
-26.6831

>  <SCORE.INTER.CONST>
1

>  <SCORE.INTER.POLAR>
-2.0198

>  <SCORE.INTER.ROT>
0

>  <SCORE.INTER.SOLV>
12.7264

>  <SCORE.INTER.VDW>
-18.8982

>  <SCORE.INTER.norm>
-2.66831

>  <SCORE.INTRA>
0

>  <SCORE.INTRA.DIHEDRAL>
0

>  <SCORE.INTRA.DIHEDRAL.0>
0

>  <SCORE.INTRA.POLAR>
0

>  <SCORE.INTRA.POLAR.0>
0

>  <SCORE.INTRA.REPUL>
0

>  <SCORE.INTRA.REPUL.0>
0

>  <SCORE.INTRA.SOLV>
0

>  <SCORE.INTRA.SOLV.lig_0>
-16.9472

>  <SCORE.INTRA.VDW>
0

>  <SCORE.INTRA.VDW.0>
0

>  <SCORE.INTRA.norm>
0

>  <SCORE.RESTR>
0

>  <SCORE.RESTR.CAVITY>
0

>  <SCORE.RESTR.norm>
0

>  <SCORE.SYSTEM>
0

>  <SCORE.SYSTEM.CONST>
0

>  <SCORE.SYSTEM.DIHEDRAL>
0

>  <SCORE.SYSTEM.SOLV>
0

>  <SCORE.SYSTEM.norm>
0

>  <SCORE.heavy>
10

>  <SCORE.norm>
-2.66831

>  <RMSD>
0.609

$$$$
1y26_lig
 OpenBabel02141814133D
libRbt.so/2013.1/901 2013/11/27
 10 11  0  0  0  0  0  0  0  0999 V2000
   19.4507  -17.0749    2.9210 N   0  0  0  0  0  0  0  0  0  0  0  0
   18.7776  -18.1913    2.6318 C   0  0  0  0  0  0  0  0  0  0  0  0
   18.4804  -19.2094    3.4369 N   0  0  0  0  0  0  0  0  0  0  0  0
   18.9376  -18.9824    4.6890 C   0  0  0  0  0  0  0  0  0  0  0  0
   19.6334  -17.8758    5.1334 C   0  0  0  0  0  0  0  0  0  0  0  0
   19.8946  -16.8863    4.1809 C   0  0  0  0  0  0  0  0  0  0  0  0
   20.5683  -15.7905    4.4917 N   0  0  0  0  0  0  0  0  0  0  0  0
   19.9612  -17.9644    6.4664 N   0  0  0  0  0  0  0  0  0  0  0  0
   19.4277  -19.1187    6.8222 C   0  0  0  0  0  0  0  0  0  0  0  0
   18.8063  -19.7870    5.7894 N   0  0  0  0  0  0  0  0  0  0  0  0
  1  2  2  0  0  0  0
  2  3  1  0  0  0  0
  3  4  2  0  0  0  0
  5  4  1  0  0  0  0
  5  6  2  0  0  0  0
  6  1  1  0  0  0  0
  6  7  1  0  0  0  0
  8  5  1  0  0  0  0
  9  8  1  0  0  0  0
 10  4  1  0  0  0  0
 10  9  2  0  0  0  0
M  END
>  <CHROM.1>
19.39384338,-18.08742536,4.65469081,1.39364562,-1.03448285,-1.09377968

>  <Name>
1y26_lig

>  <RI>
0

>  <Rbt.Current_Directory>
/home/afrankz/demos/rdock_decoys_rna/rnas/1y26

>  <Rbt.Executable>
rbdock ($Id: //depot/dev/client3/rdock/2013.1/src/exe/rbdock.cxx#4 $)

>  <Rbt.Library>
libRbt.so (2013.1, Build901 2013/11/27)

>  <Rbt.Parameter_File>
/export/apps/rDock/src/rDock_2013.1_src/data/scripts/dock_solv.prm

>  <Rbt.Receptor>
prm/blind_docking_100.prm

>  <SCORE>
-26.6774

>  <SCORE.INTER>
-26.6774

>  <SCORE.INTER.CONST>
1

>  <SCORE.INTER.POLAR>
-2.0198

>  <SCORE.INTER.ROT>
0

>  <SCORE.INTER.SOLV>
12.7749

>  <SCORE.INTER.VDW>
-18.9106

>  <SCORE.INTER.norm>
-2.66774

>  <SCORE.INTRA>
0

>  <SCORE.INTRA.DIHEDRAL>
0

>  <SCORE.INTRA.DIHEDRAL.0>
0

>  <SCORE.INTRA.POLAR>
0

>  <SCORE.INTRA.POLAR.0>
0

>  <SCORE.INTRA.REPUL>
0

>  <SCORE.INTRA.REPUL.0>
0

>  <SCORE.INTRA.SOLV>
0

>  <SCORE.INTRA.SOLV.lig_0>
-16.9472

>  <SCORE.INTRA.VDW>
0

>  <SCORE.INTRA.VDW.0>
0

>  <SCORE.INTRA.norm>
0

>  <SCORE.RESTR>
0

>  <SCORE.RESTR.CAVITY>
0

>  <SCORE.RESTR.norm>
0

>  <SCORE.SYSTEM>
0

>  <SCORE.SYSTEM.CONST>
0

>  <SCORE.SYSTEM.DIHEDRAL>
0

>  <SCORE.SYSTEM.SOLV>
0

>  <SCORE.SYSTEM.norm>
0

>  <SCORE.heavy>
10

>  <SCORE.norm>
-2.66774

>  <RMSD>
0.610

$$$$
1y26_lig
 OpenBabel02141814133D
libRbt.so/2013.1/901 2013/11/27
 10 11  0  0  0  0  0  0  0  0999 V2000
   19.4192  -17.0763    2.9168 N   0  0  0  0  0  0  0  0  0  0  0  0
   18.7573  -18.2015    2.6359 C   0  0  0  0  0  0  0  0  0  0  0  0
   18.4811  -19.2221    3.4453 N   0  0  0  0  0  0  0  0  0  0  0  0
   18.9481  -18.9877    4.6923 C   0  0  0  0  0  0  0  0  0  0  0  0
   19.6345  -17.8719    5.1283 C   0  0  0  0  0  0  0  0  0  0  0  0
   19.8735  -16.8804    4.1720 C   0  0  0  0  0  0  0  0  0  0  0  0
   20.5365  -15.7758    4.4745 N   0  0  0  0  0  0  0  0  0  0  0  0
   19.9768  -17.9546    6.4580 N   0  0  0  0  0  0  0  0  0  0  0  0
   19.4616  -19.1150    6.8206 C   0  0  0  0  0  0  0  0  0  0  0  0
   18.8382  -19.7924    5.7950 N   0  0  0  0  0  0  0  0  0  0  0  0
  1  2  2  0  0  0  0
  2  3  1  0  0  0  0
  3  4  2  0  0  0  0
  5  4  1  0  0  0  0
  5  6  2  0  0  0  0
  6  1  1  0  0  0  0
  6  7  1  0  0  0  0
  8  5  1  0  0  0  0
  9  8  1  0  0  0  0
 10  4  1  0  0  0  0
 10  9  2  0  0  0  0
M  END
>  <CHROM.1>
19.39270143,-18.08714355,4.65228642,1.42292966,-1.04078787,-1.06985078

>  <Name>
1y26_lig

>  <RI>
0

>  <Rbt.Current_Directory>
/home/afrankz/demos/rdock_decoys_rna/rnas/1y26

>  <Rbt.Executable>
rbdock ($Id: //depot/dev/client3/rdock/2013.1/src/exe/rbdock.cxx#4 $)

>  <Rbt.Library>
libRbt.so (2013.1, Build901 2013/11/27)

>  <Rbt.Parameter_File>
/export/apps/rDock/src/rDock_2013.1_src/data/scripts/dock_solv.prm

>  <Rbt.Receptor>
prm/blind_docking_40.prm

>  <SCORE>
-26.6997

>  <SCORE.INTER>
-26.6997

>  <SCORE.INTER.CONST>
1

>  <SCORE.INTER.POLAR>
-2.0198

>  <SCORE.INTER.ROT>
0

>  <SCORE.INTER.SOLV>
12.8426

>  <SCORE.INTER.VDW>
-18.948

>  <SCORE.INTER.norm>
-2.66997

>  <SCORE.INTRA>
0

>  <SCORE.INTRA.DIHEDRAL>
0

>  <SCORE.INTRA.DIHEDRAL.0>
0

>  <SCORE.INTRA.POLAR>
0

>  <SCORE.INTRA.POLAR.0>
0

>  <SCORE.INTRA.REPUL>
0

>  <SCORE.INTRA.REPUL.0>
0

>  <SCORE.INTRA.SOLV>
0

>  <SCORE.INTRA.SOLV.lig_0>
-16.9472

>  <SCORE.INTRA.VDW>
0

>  <SCORE.INTRA.VDW.0>
0

>  <SCORE.INTRA.norm>
0

>  <SCORE.RESTR>
0

>  <SCORE.RESTR.CAVITY>
0

>  <SCORE.RESTR.norm>
0

>  <SCORE.SYSTEM>
0

>  <SCORE.SYSTEM.CONST>
0

>  <SCORE.SYSTEM.DIHEDRAL>
0

>  <SCORE.SYSTEM.SOLV>
0

>  <SCORE.SYSTEM.norm>
0

>  <SCORE.heavy>
10

>  <SCORE.norm>
-2.66997

>  <RMSD>
0.610

$$$$
1y26_lig
 OpenBabel02141814133D
libRbt.so/2013.1/901 2013/11/27
 10 11  0  0  0  0  0  0  0  0999 V2000
   19.4401  -17.0659    2.9225 N   0  0  0  0  0  0  0  0  0  0  0  0
   18.7705  -18.1842    2.6320 C   0  0  0  0  0  0  0  0  0  0  0  0
   18.4814  -19.2066    3.4345 N   0  0  0  0  0  0  0  0  0  0  0  0
   18.9435  -18.9826    4.6853 C   0  0  0  0  0  0  0  0  0  0  0  0
   19.6366  -17.8747    5.1308 C   0  0  0  0  0  0  0  0  0  0  0  0
   19.8891  -16.8803    4.1811 C   0  0  0  0  0  0  0  0  0  0  0  0
   20.5594  -15.7829    4.4930 N   0  0  0  0  0  0  0  0  0  0  0  0
   19.9709  -17.9671    6.4620 N   0  0  0  0  0  0  0  0  0  0  0  0
   19.4441  -19.1251    6.8157 C   0  0  0  0  0  0  0  0  0  0  0  0
   18.8208  -19.7920    5.7831 N   0  0  0  0  0  0  0  0  0  0  0  0
  1  2  2  0  0  0  0
  2  3  1  0  0  0  0
  3  4  2  0  0  0  0
  5  4  1  0  0  0  0
  5  6  2  0  0  0  0
  6  1  1  0  0  0  0
  6  7  1  0  0  0  0
  8  5  1  0  0  0  0
  9  8  1  0  0  0  0
 10  4  1  0  0  0  0
 10  9  2  0  0  0  0
M  END
>  <CHROM.1>
19.39567773,-18.08550909,4.65241408,1.40561740,-1.03615317,-1.07955484

>  <Name>
1y26_lig

>  <RI>
224

>  <Rbt.Current_Directory>
/home/afrankz/demos/rdock_decoys_rna/rnas/1y26

>  <Rbt.Executable>
rbdock ($Id: //depot/dev/client3/rdock/2013.1/src/exe/rbdock.cxx#4 $)

>  <Rbt.Library>
libRbt.so (2013.1, Build901 2013/11/27)

>  <Rbt.Parameter_File>
/export/apps/rDock/src/rDock_2013.1_src/data/scripts/dock_solv.prm

>  <Rbt.Receptor>
prm/pocket_docking_3.prm

>  <SCORE>
-26.6748

>  <SCORE.INTER>
-26.6748

>  <SCORE.INTER.CONST>
1

>  <SCORE.INTER.POLAR>
-2.0198

>  <SCORE.INTER.ROT>
0

>  <SCORE.INTER.SOLV>
12.8086

>  <SCORE.INTER.VDW>
-18.9201

>  <SCORE.INTER.norm>
-2.66748

>  <SCORE.INTRA>
0

>  <SCORE.INTRA.DIHEDRAL>
0

>  <SCORE.INTRA.DIHEDRAL.0>
0

>  <SCORE.INTRA.POLAR>
0

>  <SCORE.INTRA.POLAR.0>
0

>  <SCORE.INTRA.REPUL>
0

>  <SCORE.INTRA.REPUL.0>
0

>  <SCORE.INTRA.SOLV>
0

>  <SCORE.INTRA.SOLV.lig_0>
-16.9472

>  <SCORE.INTRA.VDW>
0

>  <SCORE.INTRA.VDW.0>
0

>  <SCORE.INTRA.norm>
0

>  <SCORE.RESTR>
0

>  <SCORE.RESTR.CAVITY>
0

>  <SCORE.RESTR.norm>
0

>  <SCORE.SYSTEM>
0

>  <SCORE.SYSTEM.CONST>
0

>  <SCORE.SYSTEM.DIHEDRAL>
0

>  <SCORE.SYSTEM.SOLV>
0

>  <SCORE.SYSTEM.norm>
0

>  <SCORE.heavy>
10

>  <SCORE.norm>
-2.66748

>  <RMSD>
0.610

$$$$
1y26_lig
 OpenBabel02141814133D
libRbt.so/2013.1/901 2013/11/27
 10 11  0  0  0  0  0  0  0  0999 V2000
   19.4606  -17.0712    2.9212 N   0  0  0  0  0  0  0  0  0  0  0  0
   18.7822  -18.1829    2.6261 C   0  0  0  0  0  0  0  0  0  0  0  0
   18.4906  -19.2092    3.4227 N   0  0  0  0  0  0  0  0  0  0  0  0
   18.9605  -18.9973    4.6727 C   0  0  0  0  0  0  0  0  0  0  0  0
   19.6632  -17.8972    5.1226 C   0  0  0  0  0  0  0  0  0  0  0  0
   19.9173  -16.8977    4.1787 C   0  0  0  0  0  0  0  0  0  0  0  0
   20.5964  -15.8069    4.4951 N   0  0  0  0  0  0  0  0  0  0  0  0
   20.0037  -18.0015    6.4513 N   0  0  0  0  0  0  0  0  0  0  0  0
   19.4711  -19.1585    6.7994 C   0  0  0  0  0  0  0  0  0  0  0  0
   18.8381  -19.8139    5.7653 N   0  0  0  0  0  0  0  0  0  0  0  0
  1  2  2  0  0  0  0
  2  3  1  0  0  0  0
  3  4  2  0  0  0  0
  5  4  1  0  0  0  0
  5  6  2  0  0  0  0
  6  1  1  0  0  0  0
  6  7  1  0  0  0  0
  8  5  1  0  0  0  0
  9  8  1  0  0  0  0
 10  4  1  0  0  0  0
 10  9  2  0  0  0  0
M  END
>  <CHROM.1>
19.41842000,-18.10298232,4.64392666,1.40839222,-1.02793060,-1.06995067

>  <Name>
1y26_lig

>  <RI>
224

>  <Rbt.Current_Directory>
/home/afrankz/demos/rdock_decoys_rna/rnas/1y26

>  <Rbt.Executable>
rbdock ($Id: //depot/dev/client3/rdock/2013.1/src/exe/rbdock.cxx#4 $)

>  <Rbt.Library>
libRbt.so (2013.1, Build901 2013/11/27)

>  <Rbt.Parameter_File>
/export/apps/rDock/src/rDock_2013.1_src/data/scripts/dock_solv.prm

>  <Rbt.Receptor>
prm/pocket_docking_3.prm

>  <SCORE>
-26.6817

>  <SCORE.INTER>
-26.6817

>  <SCORE.INTER.CONST>
1

>  <SCORE.INTER.POLAR>
-2.0198

>  <SCORE.INTER.ROT>
0

>  <SCORE.INTER.SOLV>
12.7576

>  <SCORE.INTER.VDW>
-18.9077

>  <SCORE.INTER.norm>
-2.66817

>  <SCORE.INTRA>
0

>  <SCORE.INTRA.DIHEDRAL>
0

>  <SCORE.INTRA.DIHEDRAL.0>
0

>  <SCORE.INTRA.POLAR>
0

>  <SCORE.INTRA.POLAR.0>
0

>  <SCORE.INTRA.REPUL>
0

>  <SCORE.INTRA.REPUL.0>
0

>  <SCORE.INTRA.SOLV>
0

>  <SCORE.INTRA.SOLV.lig_0>
-16.9472

>  <SCORE.INTRA.VDW>
0

>  <SCORE.INTRA.VDW.0>
0

>  <SCORE.INTRA.norm>
0

>  <SCORE.RESTR>
0

>  <SCORE.RESTR.CAVITY>
0

>  <SCORE.RESTR.norm>
0

>  <SCORE.SYSTEM>
0

>  <SCORE.SYSTEM.CONST>
0

>  <SCORE.SYSTEM.DIHEDRAL>
0

>  <SCORE.SYSTEM.SOLV>
0

>  <SCORE.SYSTEM.norm>
0

>  <SCORE.heavy>
10

>  <SCORE.norm>
-2.66817

>  <RMSD>
0.610

$$$$
1y26_lig
 OpenBabel02141814133D
libRbt.so/2013.1/901 2013/11/27
 10 11  0  0  0  0  0  0  0  0999 V2000
   19.4487  -17.0734    2.9195 N   0  0  0  0  0  0  0  0  0  0  0  0
   18.7791  -18.1921    2.6311 C   0  0  0  0  0  0  0  0  0  0  0  0
   18.4863  -19.2112    3.4365 N   0  0  0  0  0  0  0  0  0  0  0  0
   18.9443  -18.9827    4.6881 C   0  0  0  0  0  0  0  0  0  0  0  0
   19.6370  -17.8737    5.1316 C   0  0  0  0  0  0  0  0  0  0  0  0
   19.8936  -16.8833    4.1789 C   0  0  0  0  0  0  0  0  0  0  0  0
   20.5639  -15.7852    4.4888 N   0  0  0  0  0  0  0  0  0  0  0  0
   19.9666  -17.9613    6.4643 N   0  0  0  0  0  0  0  0  0  0  0  0
   19.4376  -19.1174    6.8207 C   0  0  0  0  0  0  0  0  0  0  0  0
   18.8172  -19.7878    5.7886 N   0  0  0  0  0  0  0  0  0  0  0  0
  1  2  2  0  0  0  0
  2  3  1  0  0  0  0
  3  4  2  0  0  0  0
  5  4  1  0  0  0  0
  5  6  2  0  0  0  0
  6  1  1  0  0  0  0
  6  7  1  0  0  0  0
  8  5  1  0  0  0  0
  9  8  1  0  0  0  0
 10  4  1  0  0  0  0
 10  9  2  0  0  0  0
M  END
>  <CHROM.1>
19.39747801,-18.08618659,4.65321762,1.39888856,-1.03692720,-1.08923637

>  <Name>
1y26_lig

>  <RI>
0

>  <Rbt.Current_Directory>
/home/afrankz/demos/rdock_decoys_rna/rnas/1y26

>  <Rbt.Executable>
rbdock ($Id: //depot/dev/client3/rdock/2013.1/src/exe/rbdock.cxx#4 $)

>  <Rbt.Library>
libRbt.so (2013.1, Build901 2013/11/27)

>  <Rbt.Parameter_File>
/export/apps/rDock/src/rDock_2013.1_src/data/scripts/dock_solv.prm

>  <Rbt.Receptor>
prm/pocket_docking_5.prm

>  <SCORE>
-26.6814

>  <SCORE.INTER>
-26.6814

>  <SCORE.INTER.CONST>
1

>  <SCORE.INTER.POLAR>
-2.0198

>  <SCORE.INTER.ROT>
0

>  <SCORE.INTER.SOLV>
12.7844

>  <SCORE.INTER.VDW>
-18.9164

>  <SCORE.INTER.norm>
-2.66814

>  <SCORE.INTRA>
0

>  <SCORE.INTRA.DIHEDRAL>
0

>  <SCORE.INTRA.DIHEDRAL.0>
0

>  <SCORE.INTRA.POLAR>
0

>  <SCORE.INTRA.POLAR.0>
0

>  <SCORE.INTRA.REPUL>
0

>  <SCORE.INTRA.REPUL.0>
0

>  <SCORE.INTRA.SOLV>
0

>  <SCORE.INTRA.SOLV.lig_0>
-16.9472

>  <SCORE.INTRA.VDW>
0

>  <SCORE.INTRA.VDW.0>
0

>  <SCORE.INTRA.norm>
0

>  <SCORE.RESTR>
0

>  <SCORE.RESTR.CAVITY>
0

>  <SCORE.RESTR.norm>
0

>  <SCORE.SYSTEM>
0

>  <SCORE.SYSTEM.CONST>
0

>  <SCORE.SYSTEM.DIHEDRAL>
0

>  <SCORE.SYSTEM.SOLV>
0

>  <SCORE.SYSTEM.norm>
0

>  <SCORE.heavy>
10

>  <SCORE.norm>
-2.66814

>  <RMSD>
0.610

$$$$
1y26_lig
 OpenBabel02141814133D
libRbt.so/2013.1/901 2013/11/27
 10 11  0  0  0  0  0  0  0  0999 V2000
   19.4116  -17.0773    2.9181 N   0  0  0  0  0  0  0  0  0  0  0  0
   18.7455  -18.2008    2.6402 C   0  0  0  0  0  0  0  0  0  0  0  0
   18.4686  -19.2197    3.4514 N   0  0  0  0  0  0  0  0  0  0  0  0
   18.9400  -18.9856    4.6969 C   0  0  0  0  0  0  0  0  0  0  0  0
   19.6311  -17.8714    5.1297 C   0  0  0  0  0  0  0  0  0  0  0  0
   19.8703  -16.8816    4.1717 C   0  0  0  0  0  0  0  0  0  0  0  0
   20.5375  -15.7788    4.4712 N   0  0  0  0  0  0  0  0  0  0  0  0
   19.9771  -17.9538    6.4585 N   0  0  0  0  0  0  0  0  0  0  0  0
   19.4594  -19.1123    6.8238 C   0  0  0  0  0  0  0  0  0  0  0  0
   18.8308  -19.7888    5.8007 N   0  0  0  0  0  0  0  0  0  0  0  0
  1  2  2  0  0  0  0
  2  3  1  0  0  0  0
  3  4  2  0  0  0  0
  5  4  1  0  0  0  0
  5  6  2  0  0  0  0
  6  1  1  0  0  0  0
  6  7  1  0  0  0  0
  8  5  1  0  0  0  0
  9  8  1  0  0  0  0
 10  4  1  0  0  0  0
 10  9  2  0  0  0  0
M  END
>  <CHROM.1>
19.38721705,-18.08637900,4.65463584,1.42511842,-1.03667356,-1.06894623

>  <Name>
1y26_lig

>  <RI>
0

>  <Rbt.Current_Directory>
/home/afrankz/demos/rdock_decoys_rna/rnas/1y26

>  <Rbt.Executable>
rbdock ($Id: //depot/dev/client3/rdock/2013.1/src/exe/rbdock.cxx#4 $)

>  <Rbt.Library>
libRbt.so (2013.1, Build901 2013/11/27)

>  <Rbt.Parameter_File>
/export/apps/rDock/src/rDock_2013.1_src/data/scripts/dock_solv.prm

>  <Rbt.Receptor>
prm/pocket_docking_8.prm

>  <SCORE>
-26.695

>  <SCORE.INTER>
-26.695

>  <SCORE.INTER.CONST>
1

>  <SCORE.INTER.POLAR>
-2.0198

>  <SCORE.INTER.ROT>
0

>  <SCORE.INTER.SOLV>
12.8419

>  <SCORE.INTER.VDW>
-18.9446

>  <SCORE.INTER.norm>
-2.6695

>  <SCORE.INTRA>
0

>  <SCORE.INTRA.DIHEDRAL>
0

>  <SCORE.INTRA.DIHEDRAL.0>
0

>  <SCORE.INTRA.POLAR>
0

>  <SCORE.INTRA.POLAR.0>
0

>  <SCORE.INTRA.REPUL>
0

>  <SCORE.INTRA.REPUL.0>
0

>  <SCORE.INTRA.SOLV>
0

>  <SCORE.INTRA.SOLV.lig_0>
-16.9472

>  <SCORE.INTRA.VDW>
0

>  <SCORE.INTRA.VDW.0>
0

>  <SCORE.INTRA.norm>
0

>  <SCORE.RESTR>
0

>  <SCORE.RESTR.CAVITY>
0

>  <SCORE.RESTR.norm>
0

>  <SCORE.SYSTEM>
0

>  <SCORE.SYSTEM.CONST>
0

>  <SCORE.SYSTEM.DIHEDRAL>
0

>  <SCORE.SYSTEM.SOLV>
0

>  <SCORE.SYSTEM.norm>
0

>  <SCORE.heavy>
10

>  <SCORE.norm>
-2.6695

>  <RMSD>
0.610

$$$$
1y26_lig
 OpenBabel02141814133D
libRbt.so/2013.1/901 2013/11/27
 10 11  0  0  0  0  0  0  0  0999 V2000
   19.4155  -17.0769    2.9164 N   0  0  0  0  0  0  0  0  0  0  0  0
   18.7533  -18.2020    2.6357 C   0  0  0  0  0  0  0  0  0  0  0  0
   18.4801  -19.2239    3.4443 N   0  0  0  0  0  0  0  0  0  0  0  0
   18.9507  -18.9912    4.6904 C   0  0  0  0  0  0  0  0  0  0  0  0
   19.6378  -17.8757    5.1259 C   0  0  0  0  0  0  0  0  0  0  0  0
   19.8735  -16.8827    4.1704 C   0  0  0  0  0  0  0  0  0  0  0  0
   20.5369  -15.7782    4.4726 N   0  0  0  0  0  0  0  0  0  0  0  0
   19.9842  -17.9602    6.4545 N   0  0  0  0  0  0  0  0  0  0  0  0
   19.4706  -19.1214    6.8169 C   0  0  0  0  0  0  0  0  0  0  0  0
   18.8444  -19.7976    5.7921 N   0  0  0  0  0  0  0  0  0  0  0  0
  1  2  2  0  0  0  0
  2  3  1  0  0  0  0
  3  4  2  0  0  0  0
  5  4  1  0  0  0  0
  5  6  2  0  0  0  0
  6  1  1  0  0  0  0
  6  7  1  0  0  0  0
  8  5  1  0  0  0  0
  9  8  1  0  0  0  0
 10  4  1  0  0  0  0
 10  9  2  0  0  0  0
M  END
>  <CHROM.1>
19.39472012,-18.09036493,4.65034385,1.42853301,-1.03976666,-1.06350172

>  <Name>
1y26_lig

>  <RI>
0

>  <Rbt.Current_Directory>
/home/afrankz/demos/rdock_decoys_rna/rnas/1y26

>  <Rbt.Executable>
rbdock ($Id: //depot/dev/client3/rdock/2013.1/src/exe/rbdock.cxx#4 $)

>  <Rbt.Library>
libRbt.so (2013.1, Build901 2013/11/27)

>  <Rbt.Parameter_File>
/export/apps/rDock/src/rDock_2013.1_src/data/scripts/dock_solv.prm

>  <Rbt.Receptor>
prm/pocket_docking_8.prm

>  <SCORE>
-26.6992

>  <SCORE.INTER>
-26.6992

>  <SCORE.INTER.CONST>
1

>  <SCORE.INTER.POLAR>
-2.0198

>  <SCORE.INTER.ROT>
0

>  <SCORE.INTER.SOLV>
12.847

>  <SCORE.INTER.VDW>
-18.9491

>  <SCORE.INTER.norm>
-2.66992

>  <SCORE.INTRA>
0

>  <SCORE.INTRA.DIHEDRAL>
0

>  <SCORE.INTRA.DIHEDRAL.0>
0

>  <SCORE.INTRA.POLAR>
0

>  <SCORE.INTRA.POLAR.0>
0

>  <SCORE.INTRA.REPUL>
0

>  <SCORE.INTRA.REPUL.0>
0

>  <SCORE.INTRA.SOLV>
0

>  <SCORE.INTRA.SOLV.lig_0>
-16.9472

>  <SCORE.INTRA.VDW>
0

>  <SCORE.INTRA.VDW.0>
0

>  <SCORE.INTRA.norm>
0

>  <SCORE.RESTR>
0

>  <SCORE.RESTR.CAVITY>
0

>  <SCORE.RESTR.norm>
0

>  <SCORE.SYSTEM>
0

>  <SCORE.SYSTEM.CONST>
0

>  <SCORE.SYSTEM.DIHEDRAL>
0

>  <SCORE.SYSTEM.SOLV>
0

>  <SCORE.SYSTEM.norm>
0

>  <SCORE.heavy>
10

>  <SCORE.norm>
-2.66992

>  <RMSD>
0.610

$$$$
1y26_lig
 OpenBabel02141814133D
libRbt.so/2013.1/901 2013/11/27
 10 11  0  0  0  0  0  0  0  0999 V2000
   19.4862  -17.0922    2.9186 N   0  0  0  0  0  0  0  0  0  0  0  0
   18.7967  -18.1997    2.6336 C   0  0  0  0  0  0  0  0  0  0  0  0
   18.4865  -19.2112    3.4420 N   0  0  0  0  0  0  0  0  0  0  0  0
   18.9491  -18.9875    4.6926 C   0  0  0  0  0  0  0  0  0  0  0  0
   19.6615  -17.8898    5.1329 C   0  0  0  0  0  0  0  0  0  0  0  0
   19.9351  -16.9066    4.1773 C   0  0  0  0  0  0  0  0  0  0  0  0
   20.6249  -15.8197    4.4839 N   0  0  0  0  0  0  0  0  0  0  0  0
   19.9903  -17.9796    6.4656 N   0  0  0  0  0  0  0  0  0  0  0  0
   19.4411  -19.1252    6.8253 C   0  0  0  0  0  0  0  0  0  0  0  0
   18.8084  -19.7873    5.7954 N   0  0  0  0  0  0  0  0  0  0  0  0
  1  2  2  0  0  0  0
  2  3  1  0  0  0  0
  3  4  2  0  0  0  0
  5  4  1  0  0  0  0
  5  6  2  0  0  0  0
  6  1  1  0  0  0  0
  6  7  1  0  0  0  0
  8  5  1  0  0  0  0
  9  8  1  0  0  0  0
 10  4  1  0  0  0  0
 10  9  2  0  0  0  0
M  END
>  <CHROM.1>
19.41804325,-18.09924680,4.65514468,1.38415657,-1.02094842,-1.10455113

>  <Name>
1y26_lig

>  <RI>
0

>  <Rbt.Current_Directory>
/home/afrankz/demos/rdock_decoys_rna/rnas/1y26

>  <Rbt.Executable>
rbdock ($Id: //depot/dev/client3/rdock/2013.1/src/exe/rbdock.cxx#4 $)

>  <Rbt.Library>
libRbt.so (2013.1, Build901 2013/11/27)

>  <Rbt.Parameter_File>
/export/apps/rDock/src/rDock_2013.1_src/data/scripts/dock_solv.prm

>  <Rbt.Receptor>
prm/blind_docking_40.prm

>  <SCORE>
-26.6325

>  <SCORE.INTER>
-26.6325

>  <SCORE.INTER.CONST>
1

>  <SCORE.INTER.POLAR>
-2.0198

>  <SCORE.INTER.ROT>
0

>  <SCORE.INTER.SOLV>
12.6632

>  <SCORE.INTER.VDW>
-18.8434

>  <SCORE.INTER.norm>
-2.66325

>  <SCORE.INTRA>
0

>  <SCORE.INTRA.DIHEDRAL>
0

>  <SCORE.INTRA.DIHEDRAL.0>
0

>  <SCORE.INTRA.POLAR>
0

>  <SCORE.INTRA.POLAR.0>
0

>  <SCORE.INTRA.REPUL>
0

>  <SCORE.INTRA.REPUL.0>
0

>  <SCORE.INTRA.SOLV>
0

>  <SCORE.INTRA.SOLV.lig_0>
-16.9472

>  <SCORE.INTRA.VDW>
0

>  <SCORE.INTRA.VDW.0>
0

>  <SCORE.INTRA.norm>
0

>  <SCORE.RESTR>
0

>  <SCORE.RESTR.CAVITY>
0

>  <SCORE.RESTR.norm>
0

>  <SCORE.SYSTEM>
0

>  <SCORE.SYSTEM.CONST>
0

>  <SCORE.SYSTEM.DIHEDRAL>
0

>  <SCORE.SYSTEM.SOLV>
0

>  <SCORE.SYSTEM.norm>
0

>  <SCORE.heavy>
10

>  <SCORE.norm>
-2.66325

>  <RMSD>
0.611

$$$$
1y26_lig
 OpenBabel02141814133D
libRbt.so/2013.1/901 2013/11/27
 10 11  0  0  0  0  0  0  0  0999 V2000
   19.4286  -17.0739    2.9177 N   0  0  0  0  0  0  0  0  0  0  0  0
   18.7724  -18.2008    2.6305 C   0  0  0  0  0  0  0  0  0  0  0  0
   18.4947  -19.2240    3.4361 N   0  0  0  0  0  0  0  0  0  0  0  0
   18.9532  -18.9904    4.6865 C   0  0  0  0  0  0  0  0  0  0  0  0
   19.6329  -17.8730    5.1289 C   0  0  0  0  0  0  0  0  0  0  0  0
   19.8744  -16.8789    4.1760 C   0  0  0  0  0  0  0  0  0  0  0  0
   20.5317  -15.7726    4.4848 N   0  0  0  0  0  0  0  0  0  0  0  0
   19.9673  -17.9571    6.4606 N   0  0  0  0  0  0  0  0  0  0  0  0
   19.4539  -19.1200    6.8177 C   0  0  0  0  0  0  0  0  0  0  0  0
   18.8392  -19.7977    5.7869 N   0  0  0  0  0  0  0  0  0  0  0  0
  1  2  2  0  0  0  0
  2  3  1  0  0  0  0
  3  4  2  0  0  0  0
  5  4  1  0  0  0  0
  5  6  2  0  0  0  0
  6  1  1  0  0  0  0
  6  7  1  0  0  0  0
  8  5  1  0  0  0  0
  9  8  1  0  0  0  0
 10  4  1  0  0  0  0
 10  9  2  0  0  0  0
M  END
>  <CHROM.1>
19.39486620,-18.08822407,4.65099738,1.41538877,-1.04681059,-1.07441706

>  <Name>
1y26_lig

>  <RI>
0

>  <Rbt.Current_Directory>
/home/afrankz/demos/rdock_decoys_rna/rnas/1y26

>  <Rbt.Executable>
rbdock ($Id: //depot/dev/client3/rdock/2013.1/src/exe/rbdock.cxx#4 $)

>  <Rbt.Library>
libRbt.so (2013.1, Build901 2013/11/27)

>  <Rbt.Parameter_File>
/export/apps/rDock/src/rDock_2013.1_src/data/scripts/dock_solv.prm

>  <Rbt.Receptor>
prm/blind_docking_60.prm

>  <SCORE>
-26.6957

>  <SCORE.INTER>
-26.6957

>  <SCORE.INTER.CONST>
1

>  <SCORE.INTER.POLAR>
-2.0198

>  <SCORE.INTER.ROT>
0

>  <SCORE.INTER.SOLV>
12.8492

>  <SCORE.INTER.VDW>
-18.9475

>  <SCORE.INTER.norm>
-2.66957

>  <SCORE.INTRA>
0

>  <SCORE.INTRA.DIHEDRAL>
0

>  <SCORE.INTRA.DIHEDRAL.0>
0

>  <SCORE.INTRA.POLAR>
0

>  <SCORE.INTRA.POLAR.0>
0

>  <SCORE.INTRA.REPUL>
0

>  <SCORE.INTRA.REPUL.0>
0

>  <SCORE.INTRA.SOLV>
0

>  <SCORE.INTRA.SOLV.lig_0>
-16.9472

>  <SCORE.INTRA.VDW>
0

>  <SCORE.INTRA.VDW.0>
0

>  <SCORE.INTRA.norm>
0

>  <SCORE.RESTR>
0

>  <SCORE.RESTR.CAVITY>
0

>  <SCORE.RESTR.norm>
0

>  <SCORE.SYSTEM>
0

>  <SCORE.SYSTEM.CONST>
0

>  <SCORE.SYSTEM.DIHEDRAL>
0

>  <SCORE.SYSTEM.SOLV>
0

>  <SCORE.SYSTEM.norm>
0

>  <SCORE.heavy>
10

>  <SCORE.norm>
-2.66957

>  <RMSD>
0.611

$$$$
1y26_lig
 OpenBabel02141814133D
libRbt.so/2013.1/901 2013/11/27
 10 11  0  0  0  0  0  0  0  0999 V2000
   19.4653  -17.0724    2.9215 N   0  0  0  0  0  0  0  0  0  0  0  0
   18.7858  -18.1834    2.6263 C   0  0  0  0  0  0  0  0  0  0  0  0
   18.4929  -19.2093    3.4229 N   0  0  0  0  0  0  0  0  0  0  0  0
   18.9627  -18.9978    4.6730 C   0  0  0  0  0  0  0  0  0  0  0  0
   19.6664  -17.8984    5.1230 C   0  0  0  0  0  0  0  0  0  0  0  0
   19.9218  -16.8992    4.1791 C   0  0  0  0  0  0  0  0  0  0  0  0
   20.6020  -15.8091    4.4955 N   0  0  0  0  0  0  0  0  0  0  0  0
   20.0065  -18.0029    6.4518 N   0  0  0  0  0  0  0  0  0  0  0  0
   19.4727  -19.1594    6.7998 C   0  0  0  0  0  0  0  0  0  0  0  0
   18.8393  -19.8142    5.7656 N   0  0  0  0  0  0  0  0  0  0  0  0
  1  2  2  0  0  0  0
  2  3  1  0  0  0  0
  3  4  2  0  0  0  0
  5  4  1  0  0  0  0
  5  6  2  0  0  0  0
  6  1  1  0  0  0  0
  6  7  1  0  0  0  0
  8  5  1  0  0  0  0
  9  8  1  0  0  0  0
 10  4  1  0  0  0  0
 10  9  2  0  0  0  0
M  END
>  <CHROM.1>
19.42159081,-18.10397191,4.64428736,1.40703502,-1.02713635,-1.07118286

>  <Name>
1y26_lig

>  <RI>
224

>  <Rbt.Current_Directory>
/home/afrankz/demos/rdock_decoys_rna/rnas/1y26

>  <Rbt.Executable>
rbdock ($Id: //depot/dev/client3/rdock/2013.1/src/exe/rbdock.cxx#4 $)

>  <Rbt.Library>
libRbt.so (2013.1, Build901 2013/11/27)

>  <Rbt.Parameter_File>
/export/apps/rDock/src/rDock_2013.1_src/data/scripts/dock_solv.prm

>  <Rbt.Receptor>
prm/pocket_docking_3.prm

>  <SCORE>
-26.6825

>  <SCORE.INTER>
-26.6825

>  <SCORE.INTER.CONST>
1

>  <SCORE.INTER.POLAR>
-2.0198

>  <SCORE.INTER.ROT>
0

>  <SCORE.INTER.SOLV>
12.7466

>  <SCORE.INTER.VDW>
-18.9045

>  <SCORE.INTER.norm>
-2.66825

>  <SCORE.INTRA>
0

>  <SCORE.INTRA.DIHEDRAL>
0

>  <SCORE.INTRA.DIHEDRAL.0>
0

>  <SCORE.INTRA.POLAR>
0

>  <SCORE.INTRA.POLAR.0>
0

>  <SCORE.INTRA.REPUL>
0

>  <SCORE.INTRA.REPUL.0>
0

>  <SCORE.INTRA.SOLV>
0

>  <SCORE.INTRA.SOLV.lig_0>
-16.9472

>  <SCORE.INTRA.VDW>
0

>  <SCORE.INTRA.VDW.0>
0

>  <SCORE.INTRA.norm>
0

>  <SCORE.RESTR>
0

>  <SCORE.RESTR.CAVITY>
0

>  <SCORE.RESTR.norm>
0

>  <SCORE.SYSTEM>
0

>  <SCORE.SYSTEM.CONST>
0

>  <SCORE.SYSTEM.DIHEDRAL>
0

>  <SCORE.SYSTEM.SOLV>
0

>  <SCORE.SYSTEM.norm>
0

>  <SCORE.heavy>
10

>  <SCORE.norm>
-2.66825

>  <RMSD>
0.611

$$$$
1y26_lig
 OpenBabel02141814133D
libRbt.so/2013.1/901 2013/11/27
 10 11  0  0  0  0  0  0  0  0999 V2000
   19.4172  -17.0760    2.9173 N   0  0  0  0  0  0  0  0  0  0  0  0
   18.7569  -18.2018    2.6350 C   0  0  0  0  0  0  0  0  0  0  0  0
   18.4842  -19.2248    3.4425 N   0  0  0  0  0  0  0  0  0  0  0  0
   18.9531  -18.9925    4.6892 C   0  0  0  0  0  0  0  0  0  0  0  0
   19.6381  -17.8763    5.1265 C   0  0  0  0  0  0  0  0  0  0  0  0
   19.8735  -16.8822    4.1721 C   0  0  0  0  0  0  0  0  0  0  0  0
   20.5349  -15.7771    4.4759 N   0  0  0  0  0  0  0  0  0  0  0  0
   19.9831  -17.9614    6.4554 N   0  0  0  0  0  0  0  0  0  0  0  0
   19.4707  -19.1237    6.8162 C   0  0  0  0  0  0  0  0  0  0  0  0
   18.8467  -19.7999    5.7902 N   0  0  0  0  0  0  0  0  0  0  0  0
  1  2  2  0  0  0  0
  2  3  1  0  0  0  0
  3  4  2  0  0  0  0
  5  4  1  0  0  0  0
  5  6  2  0  0  0  0
  6  1  1  0  0  0  0
  6  7  1  0  0  0  0
  8  5  1  0  0  0  0
  9  8  1  0  0  0  0
 10  4  1  0  0  0  0
 10  9  2  0  0  0  0
M  END
>  <CHROM.1>
19.39586549,-18.09093658,4.65043690,1.42795725,-1.04154615,-1.06317810

>  <Name>
1y26_lig

>  <RI>
0

>  <Rbt.Current_Directory>
/home/afrankz/demos/rdock_decoys_rna/rnas/1y26

>  <Rbt.Executable>
rbdock ($Id: //depot/dev/client3/rdock/2013.1/src/exe/rbdock.cxx#4 $)

>  <Rbt.Library>
libRbt.so (2013.1, Build901 2013/11/27)

>  <Rbt.Parameter_File>
/export/apps/rDock/src/rDock_2013.1_src/data/scripts/dock_solv.prm

>  <Rbt.Receptor>
prm/pocket_docking_4.prm

>  <SCORE>
-26.6974

>  <SCORE.INTER>
-26.6974

>  <SCORE.INTER.CONST>
1

>  <SCORE.INTER.POLAR>
-2.0198

>  <SCORE.INTER.ROT>
0

>  <SCORE.INTER.SOLV>
12.8519

>  <SCORE.INTER.VDW>
-18.9496

>  <SCORE.INTER.norm>
-2.66974

>  <SCORE.INTRA>
0

>  <SCORE.INTRA.DIHEDRAL>
0

>  <SCORE.INTRA.DIHEDRAL.0>
0

>  <SCORE.INTRA.POLAR>
0

>  <SCORE.INTRA.POLAR.0>
0

>  <SCORE.INTRA.REPUL>
0

>  <SCORE.INTRA.REPUL.0>
0

>  <SCORE.INTRA.SOLV>
0

>  <SCORE.INTRA.SOLV.lig_0>
-16.9472

>  <SCORE.INTRA.VDW>
0

>  <SCORE.INTRA.VDW.0>
0

>  <SCORE.INTRA.norm>
0

>  <SCORE.RESTR>
0

>  <SCORE.RESTR.CAVITY>
0

>  <SCORE.RESTR.norm>
0

>  <SCORE.SYSTEM>
0

>  <SCORE.SYSTEM.CONST>
0

>  <SCORE.SYSTEM.DIHEDRAL>
0

>  <SCORE.SYSTEM.SOLV>
0

>  <SCORE.SYSTEM.norm>
0

>  <SCORE.heavy>
10

>  <SCORE.norm>
-2.66974

>  <RMSD>
0.611

$$$$
1y26_lig
 OpenBabel02141814133D
libRbt.so/2013.1/901 2013/11/27
 10 11  0  0  0  0  0  0  0  0999 V2000
   19.4722  -17.0748    2.9241 N   0  0  0  0  0  0  0  0  0  0  0  0
   18.7852  -18.1824    2.6338 C   0  0  0  0  0  0  0  0  0  0  0  0
   18.4806  -19.2003    3.4363 N   0  0  0  0  0  0  0  0  0  0  0  0
   18.9468  -18.9838    4.6869 C   0  0  0  0  0  0  0  0  0  0  0  0
   19.6573  -17.8869    5.1322 C   0  0  0  0  0  0  0  0  0  0  0  0
   19.9248  -16.8964    4.1825 C   0  0  0  0  0  0  0  0  0  0  0  0
   20.6123  -15.8096    4.4943 N   0  0  0  0  0  0  0  0  0  0  0  0
   19.9908  -17.9848    6.4632 N   0  0  0  0  0  0  0  0  0  0  0  0
   19.4463  -19.1345    6.8169 C   0  0  0  0  0  0  0  0  0  0  0  0
   18.8121  -19.7914    5.7846 N   0  0  0  0  0  0  0  0  0  0  0  0
  1  2  2  0  0  0  0
  2  3  1  0  0  0  0
  3  4  2  0  0  0  0
  5  4  1  0  0  0  0
  5  6  2  0  0  0  0
  6  1  1  0  0  0  0
  6  7  1  0  0  0  0
  8  5  1  0  0  0  0
  9  8  1  0  0  0  0
 10  4  1  0  0  0  0
 10  9  2  0  0  0  0
M  END
>  <CHROM.1>
19.41289675,-18.09385998,4.65389816,1.39244459,-1.02210717,-1.09066037

>  <Name>
1y26_lig

>  <RI>
224

>  <Rbt.Current_Directory>
/home/afrankz/demos/rdock_decoys_rna/rnas/1y26

>  <Rbt.Executable>
rbdock ($Id: //depot/dev/client3/rdock/2013.1/src/exe/rbdock.cxx#4 $)

>  <Rbt.Library>
libRbt.so (2013.1, Build901 2013/11/27)

>  <Rbt.Parameter_File>
/export/apps/rDock/src/rDock_2013.1_src/data/scripts/dock_solv.prm

>  <Rbt.Receptor>
prm/pocket_docking_6.prm

>  <SCORE>
-26.6624

>  <SCORE.INTER>
-26.6624

>  <SCORE.INTER.CONST>
1

>  <SCORE.INTER.POLAR>
-2.0198

>  <SCORE.INTER.ROT>
0

>  <SCORE.INTER.SOLV>
12.7119

>  <SCORE.INTER.VDW>
-18.8795

>  <SCORE.INTER.norm>
-2.66624

>  <SCORE.INTRA>
0

>  <SCORE.INTRA.DIHEDRAL>
0

>  <SCORE.INTRA.DIHEDRAL.0>
0

>  <SCORE.INTRA.POLAR>
0

>  <SCORE.INTRA.POLAR.0>
0

>  <SCORE.INTRA.REPUL>
0

>  <SCORE.INTRA.REPUL.0>
0

>  <SCORE.INTRA.SOLV>
0

>  <SCORE.INTRA.SOLV.lig_0>
-16.9472

>  <SCORE.INTRA.VDW>
0

>  <SCORE.INTRA.VDW.0>
0

>  <SCORE.INTRA.norm>
0

>  <SCORE.RESTR>
0

>  <SCORE.RESTR.CAVITY>
0

>  <SCORE.RESTR.norm>
0

>  <SCORE.SYSTEM>
0

>  <SCORE.SYSTEM.CONST>
0

>  <SCORE.SYSTEM.DIHEDRAL>
0

>  <SCORE.SYSTEM.SOLV>
0

>  <SCORE.SYSTEM.norm>
0

>  <SCORE.heavy>
10

>  <SCORE.norm>
-2.66624

>  <RMSD>
0.611

$$$$
1y26_lig
 OpenBabel02141814133D
libRbt.so/2013.1/901 2013/11/27
 10 11  0  0  0  0  0  0  0  0999 V2000
   19.4209  -17.0708    2.9191 N   0  0  0  0  0  0  0  0  0  0  0  0
   18.7624  -18.1962    2.6310 C   0  0  0  0  0  0  0  0  0  0  0  0
   18.4859  -19.2210    3.4349 N   0  0  0  0  0  0  0  0  0  0  0  0
   18.9484  -18.9912    4.6845 C   0  0  0  0  0  0  0  0  0  0  0  0
   19.6309  -17.8758    5.1276 C   0  0  0  0  0  0  0  0  0  0  0  0
   19.8708  -16.8796    4.1766 C   0  0  0  0  0  0  0  0  0  0  0  0
   20.5304  -15.7749    4.4861 N   0  0  0  0  0  0  0  0  0  0  0  0
   19.9692  -17.9637    6.4581 N   0  0  0  0  0  0  0  0  0  0  0  0
   19.4554  -19.1268    6.8139 C   0  0  0  0  0  0  0  0  0  0  0  0
   18.8367  -19.8010    5.7832 N   0  0  0  0  0  0  0  0  0  0  0  0
  1  2  2  0  0  0  0
  2  3  1  0  0  0  0
  3  4  2  0  0  0  0
  5  4  1  0  0  0  0
  5  6  2  0  0  0  0
  6  1  1  0  0  0  0
  6  7  1  0  0  0  0
  8  5  1  0  0  0  0
  9  8  1  0  0  0  0
 10  4  1  0  0  0  0
 10  9  2  0  0  0  0
M  END
>  <CHROM.1>
19.39114107,-18.08944994,4.64992507,1.41944995,-1.04424531,-1.06839290

>  <Name>
1y26_lig

>  <RI>
224

>  <Rbt.Current_Directory>
/home/afrankz/demos/rdock_decoys_rna/rnas/1y26

>  <Rbt.Executable>
rbdock ($Id: //depot/dev/client3/rdock/2013.1/src/exe/rbdock.cxx#4 $)

>  <Rbt.Library>
libRbt.so (2013.1, Build901 2013/11/27)

>  <Rbt.Parameter_File>
/export/apps/rDock/src/rDock_2013.1_src/data/scripts/dock_solv.prm

>  <Rbt.Receptor>
prm/pocket_docking_6.prm

>  <SCORE>
-26.6905

>  <SCORE.INTER>
-26.6905

>  <SCORE.INTER.CONST>
1

>  <SCORE.INTER.POLAR>
-2.0198

>  <SCORE.INTER.ROT>
0

>  <SCORE.INTER.SOLV>
12.8617

>  <SCORE.INTER.VDW>
-18.9482

>  <SCORE.INTER.norm>
-2.66905

>  <SCORE.INTRA>
0

>  <SCORE.INTRA.DIHEDRAL>
0

>  <SCORE.INTRA.DIHEDRAL.0>
0

>  <SCORE.INTRA.POLAR>
0

>  <SCORE.INTRA.POLAR.0>
0

>  <SCORE.INTRA.REPUL>
0

>  <SCORE.INTRA.REPUL.0>
0

>  <SCORE.INTRA.SOLV>
0

>  <SCORE.INTRA.SOLV.lig_0>
-16.9472

>  <SCORE.INTRA.VDW>
0

>  <SCORE.INTRA.VDW.0>
0

>  <SCORE.INTRA.norm>
0

>  <SCORE.RESTR>
0

>  <SCORE.RESTR.CAVITY>
0

>  <SCORE.RESTR.norm>
0

>  <SCORE.SYSTEM>
0

>  <SCORE.SYSTEM.CONST>
0

>  <SCORE.SYSTEM.DIHEDRAL>
0

>  <SCORE.SYSTEM.SOLV>
0

>  <SCORE.SYSTEM.norm>
0

>  <SCORE.heavy>
10

>  <SCORE.norm>
-2.66905

>  <RMSD>
0.611

$$$$
1y26_lig
 OpenBabel02141814133D
libRbt.so/2013.1/901 2013/11/27
 10 11  0  0  0  0  0  0  0  0999 V2000
   19.4311  -17.0734    2.9183 N   0  0  0  0  0  0  0  0  0  0  0  0
   18.7752  -18.1999    2.6288 C   0  0  0  0  0  0  0  0  0  0  0  0
   18.4941  -19.2229    3.4335 N   0  0  0  0  0  0  0  0  0  0  0  0
   18.9483  -18.9897    4.6855 C   0  0  0  0  0  0  0  0  0  0  0  0
   19.6272  -17.8727    5.1302 C   0  0  0  0  0  0  0  0  0  0  0  0
   19.8727  -16.8787    4.1782 C   0  0  0  0  0  0  0  0  0  0  0  0
   20.5296  -15.7729    4.4893 N   0  0  0  0  0  0  0  0  0  0  0  0
   19.9569  -17.9571    6.4630 N   0  0  0  0  0  0  0  0  0  0  0  0
   19.4415  -19.1196    6.8184 C   0  0  0  0  0  0  0  0  0  0  0  0
   18.8300  -19.7968    5.7854 N   0  0  0  0  0  0  0  0  0  0  0  0
  1  2  2  0  0  0  0
  2  3  1  0  0  0  0
  3  4  2  0  0  0  0
  5  4  1  0  0  0  0
  5  6  2  0  0  0  0
  6  1  1  0  0  0  0
  6  7  1  0  0  0  0
  8  5  1  0  0  0  0
  9  8  1  0  0  0  0
 10  4  1  0  0  0  0
 10  9  2  0  0  0  0
M  END
>  <CHROM.1>
19.39070450,-18.08774280,4.65148056,1.40864639,-1.04789481,-1.08024621

>  <Name>
1y26_lig

>  <RI>
224

>  <Rbt.Current_Directory>
/home/afrankz/demos/rdock_decoys_rna/rnas/1y26

>  <Rbt.Executable>
rbdock ($Id: //depot/dev/client3/rdock/2013.1/src/exe/rbdock.cxx#4 $)

>  <Rbt.Library>
libRbt.so (2013.1, Build901 2013/11/27)

>  <Rbt.Parameter_File>
/export/apps/rDock/src/rDock_2013.1_src/data/scripts/dock_solv.prm

>  <Rbt.Receptor>
prm/pocket_docking_7.prm

>  <SCORE>
-26.6887

>  <SCORE.INTER>
-26.6887

>  <SCORE.INTER.CONST>
1

>  <SCORE.INTER.POLAR>
-2.0198

>  <SCORE.INTER.ROT>
0

>  <SCORE.INTER.SOLV>
12.849

>  <SCORE.INTER.VDW>
-18.9428

>  <SCORE.INTER.norm>
-2.66887

>  <SCORE.INTRA>
0

>  <SCORE.INTRA.DIHEDRAL>
0

>  <SCORE.INTRA.DIHEDRAL.0>
0

>  <SCORE.INTRA.POLAR>
0

>  <SCORE.INTRA.POLAR.0>
0

>  <SCORE.INTRA.REPUL>
0

>  <SCORE.INTRA.REPUL.0>
0

>  <SCORE.INTRA.SOLV>
0

>  <SCORE.INTRA.SOLV.lig_0>
-16.9472

>  <SCORE.INTRA.VDW>
0

>  <SCORE.INTRA.VDW.0>
0

>  <SCORE.INTRA.norm>
0

>  <SCORE.RESTR>
0

>  <SCORE.RESTR.CAVITY>
0

>  <SCORE.RESTR.norm>
0

>  <SCORE.SYSTEM>
0

>  <SCORE.SYSTEM.CONST>
0

>  <SCORE.SYSTEM.DIHEDRAL>
0

>  <SCORE.SYSTEM.SOLV>
0

>  <SCORE.SYSTEM.norm>
0

>  <SCORE.heavy>
10

>  <SCORE.norm>
-2.66887

>  <RMSD>
0.611

$$$$
1y26_lig
 OpenBabel02141814133D
libRbt.so/2013.1/901 2013/11/27
 10 11  0  0  0  0  0  0  0  0999 V2000
   19.4806  -17.0708    2.9264 N   0  0  0  0  0  0  0  0  0  0  0  0
   18.7866  -18.1719    2.6277 C   0  0  0  0  0  0  0  0  0  0  0  0
   18.4798  -19.1962    3.4211 N   0  0  0  0  0  0  0  0  0  0  0  0
   18.9518  -18.9947    4.6720 C   0  0  0  0  0  0  0  0  0  0  0  0
   19.6698  -17.9060    5.1256 C   0  0  0  0  0  0  0  0  0  0  0  0
   19.9388  -16.9075    4.1848 C   0  0  0  0  0  0  0  0  0  0  0  0
   20.6332  -15.8274    4.5048 N   0  0  0  0  0  0  0  0  0  0  0  0
   20.0078  -18.0190    6.4542 N   0  0  0  0  0  0  0  0  0  0  0  0
   19.4586  -19.1693    6.7985 C   0  0  0  0  0  0  0  0  0  0  0  0
   18.8170  -19.8126    5.7621 N   0  0  0  0  0  0  0  0  0  0  0  0
  1  2  2  0  0  0  0
  2  3  1  0  0  0  0
  3  4  2  0  0  0  0
  5  4  1  0  0  0  0
  5  6  2  0  0  0  0
  6  1  1  0  0  0  0
  6  7  1  0  0  0  0
  8  5  1  0  0  0  0
  9  8  1  0  0  0  0
 10  4  1  0  0  0  0
 10  9  2  0  0  0  0
M  END
>  <CHROM.1>
19.42244953,-18.10687277,4.64615088,1.39424436,-1.01570737,-1.07910902

>  <Name>
1y26_lig

>  <RI>
224

>  <Rbt.Current_Directory>
/home/afrankz/demos/rdock_decoys_rna/rnas/1y26

>  <Rbt.Executable>
rbdock ($Id: //depot/dev/client3/rdock/2013.1/src/exe/rbdock.cxx#4 $)

>  <Rbt.Library>
libRbt.so (2013.1, Build901 2013/11/27)

>  <Rbt.Parameter_File>
/export/apps/rDock/src/rDock_2013.1_src/data/scripts/dock_solv.prm

>  <Rbt.Receptor>
prm/pocket_docking_7.prm

>  <SCORE>
-26.6798

>  <SCORE.INTER>
-26.6798

>  <SCORE.INTER.CONST>
1

>  <SCORE.INTER.POLAR>
-2.0198

>  <SCORE.INTER.ROT>
0

>  <SCORE.INTER.SOLV>
12.6967

>  <SCORE.INTER.VDW>
-18.8861

>  <SCORE.INTER.norm>
-2.66798

>  <SCORE.INTRA>
0

>  <SCORE.INTRA.DIHEDRAL>
0

>  <SCORE.INTRA.DIHEDRAL.0>
0

>  <SCORE.INTRA.POLAR>
0

>  <SCORE.INTRA.POLAR.0>
0

>  <SCORE.INTRA.REPUL>
0

>  <SCORE.INTRA.REPUL.0>
0

>  <SCORE.INTRA.SOLV>
0

>  <SCORE.INTRA.SOLV.lig_0>
-16.9472

>  <SCORE.INTRA.VDW>
0

>  <SCORE.INTRA.VDW.0>
0

>  <SCORE.INTRA.norm>
0

>  <SCORE.RESTR>
0

>  <SCORE.RESTR.CAVITY>
0

>  <SCORE.RESTR.norm>
0

>  <SCORE.SYSTEM>
0

>  <SCORE.SYSTEM.CONST>
0

>  <SCORE.SYSTEM.DIHEDRAL>
0

>  <SCORE.SYSTEM.SOLV>
0

>  <SCORE.SYSTEM.norm>
0

>  <SCORE.heavy>
10

>  <SCORE.norm>
-2.66798

>  <RMSD>
0.611

$$$$
1y26_lig
 OpenBabel02141814133D
libRbt.so/2013.1/901 2013/11/27
 10 11  0  0  0  0  0  0  0  0999 V2000
   19.4231  -17.0719    2.9200 N   0  0  0  0  0  0  0  0  0  0  0  0
   18.7635  -18.1976    2.6356 C   0  0  0  0  0  0  0  0  0  0  0  0
   18.4857  -19.2194    3.4428 N   0  0  0  0  0  0  0  0  0  0  0  0
   18.9483  -18.9860    4.6917 C   0  0  0  0  0  0  0  0  0  0  0  0
   19.6319  -17.8698    5.1312 C   0  0  0  0  0  0  0  0  0  0  0  0
   19.8730  -16.8770    4.1769 C   0  0  0  0  0  0  0  0  0  0  0  0
   20.5337  -15.7720    4.4829 N   0  0  0  0  0  0  0  0  0  0  0  0
   19.9699  -17.9536    6.4620 N   0  0  0  0  0  0  0  0  0  0  0  0
   19.4548  -19.1150    6.8216 C   0  0  0  0  0  0  0  0  0  0  0  0
   18.8356  -19.7920    5.7931 N   0  0  0  0  0  0  0  0  0  0  0  0
  1  2  2  0  0  0  0
  2  3  1  0  0  0  0
  3  4  2  0  0  0  0
  5  4  1  0  0  0  0
  5  6  2  0  0  0  0
  6  1  1  0  0  0  0
  6  7  1  0  0  0  0
  8  5  1  0  0  0  0
  9  8  1  0  0  0  0
 10  4  1  0  0  0  0
 10  9  2  0  0  0  0
M  END
>  <CHROM.1>
19.39199319,-18.08480001,4.65419908,1.41817174,-1.04340248,-1.07280074

>  <Name>
1y26_lig

>  <RI>
0

>  <Rbt.Current_Directory>
/home/afrankz/demos/rdock_decoys_rna/rnas/1y26

>  <Rbt.Executable>
rbdock ($Id: //depot/dev/client3/rdock/2013.1/src/exe/rbdock.cxx#4 $)

>  <Rbt.Library>
libRbt.so (2013.1, Build901 2013/11/27)

>  <Rbt.Parameter_File>
/export/apps/rDock/src/rDock_2013.1_src/data/scripts/dock_solv.prm

>  <Rbt.Receptor>
prm/blind_docking_100.prm

>  <SCORE>
-26.694

>  <SCORE.INTER>
-26.694

>  <SCORE.INTER.CONST>
1

>  <SCORE.INTER.POLAR>
-2.0198

>  <SCORE.INTER.ROT>
0

>  <SCORE.INTER.SOLV>
12.85

>  <SCORE.INTER.VDW>
-18.9466

>  <SCORE.INTER.norm>
-2.6694

>  <SCORE.INTRA>
0

>  <SCORE.INTRA.DIHEDRAL>
0

>  <SCORE.INTRA.DIHEDRAL.0>
0

>  <SCORE.INTRA.POLAR>
0

>  <SCORE.INTRA.POLAR.0>
0

>  <SCORE.INTRA.REPUL>
0

>  <SCORE.INTRA.REPUL.0>
0

>  <SCORE.INTRA.SOLV>
0

>  <SCORE.INTRA.SOLV.lig_0>
-16.9472

>  <SCORE.INTRA.VDW>
0

>  <SCORE.INTRA.VDW.0>
0

>  <SCORE.INTRA.norm>
0

>  <SCORE.RESTR>
0

>  <SCORE.RESTR.CAVITY>
0

>  <SCORE.RESTR.norm>
0

>  <SCORE.SYSTEM>
0

>  <SCORE.SYSTEM.CONST>
0

>  <SCORE.SYSTEM.DIHEDRAL>
0

>  <SCORE.SYSTEM.SOLV>
0

>  <SCORE.SYSTEM.norm>
0

>  <SCORE.heavy>
10

>  <SCORE.norm>
-2.6694

>  <RMSD>
0.612

$$$$
1y26_lig
 OpenBabel02141814133D
libRbt.so/2013.1/901 2013/11/27
 10 11  0  0  0  0  0  0  0  0999 V2000
   19.4215  -17.0768    2.9182 N   0  0  0  0  0  0  0  0  0  0  0  0
   18.7615  -18.2028    2.6358 C   0  0  0  0  0  0  0  0  0  0  0  0
   18.4847  -19.2236    3.4446 N   0  0  0  0  0  0  0  0  0  0  0  0
   18.9489  -18.9888    4.6927 C   0  0  0  0  0  0  0  0  0  0  0  0
   19.6331  -17.8722    5.1300 C   0  0  0  0  0  0  0  0  0  0  0  0
   19.8731  -16.8805    4.1742 C   0  0  0  0  0  0  0  0  0  0  0  0
   20.5342  -15.7752    4.4781 N   0  0  0  0  0  0  0  0  0  0  0  0
   19.9728  -17.9545    6.4605 N   0  0  0  0  0  0  0  0  0  0  0  0
   19.4581  -19.1155    6.8220 C   0  0  0  0  0  0  0  0  0  0  0  0
   18.8375  -19.7936    5.7951 N   0  0  0  0  0  0  0  0  0  0  0  0
  1  2  2  0  0  0  0
  2  3  1  0  0  0  0
  3  4  2  0  0  0  0
  5  4  1  0  0  0  0
  5  6  2  0  0  0  0
  6  1  1  0  0  0  0
  6  7  1  0  0  0  0
  8  5  1  0  0  0  0
  9  8  1  0  0  0  0
 10  4  1  0  0  0  0
 10  9  2  0  0  0  0
M  END
>  <CHROM.1>
19.39257311,-18.08771308,4.65353218,1.42032854,-1.04274096,-1.07208976

>  <Name>
1y26_lig

>  <RI>
0

>  <Rbt.Current_Directory>
/home/afrankz/demos/rdock_decoys_rna/rnas/1y26

>  <Rbt.Executable>
rbdock ($Id: //depot/dev/client3/rdock/2013.1/src/exe/rbdock.cxx#4 $)

>  <Rbt.Library>
libRbt.so (2013.1, Build901 2013/11/27)

>  <Rbt.Parameter_File>
/export/apps/rDock/src/rDock_2013.1_src/data/scripts/dock_solv.prm

>  <Rbt.Receptor>
prm/blind_docking_40.prm

>  <SCORE>
-26.6976

>  <SCORE.INTER>
-26.6976

>  <SCORE.INTER.CONST>
1

>  <SCORE.INTER.POLAR>
-2.0198

>  <SCORE.INTER.ROT>
0

>  <SCORE.INTER.SOLV>
12.8447

>  <SCORE.INTER.VDW>
-18.9473

>  <SCORE.INTER.norm>
-2.66976

>  <SCORE.INTRA>
0

>  <SCORE.INTRA.DIHEDRAL>
0

>  <SCORE.INTRA.DIHEDRAL.0>
0

>  <SCORE.INTRA.POLAR>
0

>  <SCORE.INTRA.POLAR.0>
0

>  <SCORE.INTRA.REPUL>
0

>  <SCORE.INTRA.REPUL.0>
0

>  <SCORE.INTRA.SOLV>
0

>  <SCORE.INTRA.SOLV.lig_0>
-16.9472

>  <SCORE.INTRA.VDW>
0

>  <SCORE.INTRA.VDW.0>
0

>  <SCORE.INTRA.norm>
0

>  <SCORE.RESTR>
0

>  <SCORE.RESTR.CAVITY>
0

>  <SCORE.RESTR.norm>
0

>  <SCORE.SYSTEM>
0

>  <SCORE.SYSTEM.CONST>
0

>  <SCORE.SYSTEM.DIHEDRAL>
0

>  <SCORE.SYSTEM.SOLV>
0

>  <SCORE.SYSTEM.norm>
0

>  <SCORE.heavy>
10

>  <SCORE.norm>
-2.66976

>  <RMSD>
0.612

$$$$
1y26_lig
 OpenBabel02141814133D
libRbt.so/2013.1/901 2013/11/27
 10 11  0  0  0  0  0  0  0  0999 V2000
   19.4713  -17.0745    2.9249 N   0  0  0  0  0  0  0  0  0  0  0  0
   18.7867  -18.1835    2.6339 C   0  0  0  0  0  0  0  0  0  0  0  0
   18.4825  -19.2016    3.4364 N   0  0  0  0  0  0  0  0  0  0  0  0
   18.9459  -18.9835    4.6877 C   0  0  0  0  0  0  0  0  0  0  0  0
   19.6536  -17.8851    5.1338 C   0  0  0  0  0  0  0  0  0  0  0  0
   19.9211  -16.8946    4.1841 C   0  0  0  0  0  0  0  0  0  0  0  0
   20.6060  -15.8064    4.4965 N   0  0  0  0  0  0  0  0  0  0  0  0
   19.9848  -17.9816    6.4655 N   0  0  0  0  0  0  0  0  0  0  0  0
   19.4416  -19.1320    6.8188 C   0  0  0  0  0  0  0  0  0  0  0  0
   18.8106  -19.7907    5.7857 N   0  0  0  0  0  0  0  0  0  0  0  0
  1  2  2  0  0  0  0
  2  3  1  0  0  0  0
  3  4  2  0  0  0  0
  5  4  1  0  0  0  0
  5  6  2  0  0  0  0
  6  1  1  0  0  0  0
  6  7  1  0  0  0  0
  8  5  1  0  0  0  0
  9  8  1  0  0  0  0
 10  4  1  0  0  0  0
 10  9  2  0  0  0  0
M  END
>  <CHROM.1>
19.41045772,-18.09271547,4.65514079,1.39079734,-1.02459809,-1.09263233

>  <Name>
1y26_lig

>  <RI>
224

>  <Rbt.Current_Directory>
/home/afrankz/demos/rdock_decoys_rna/rnas/1y26

>  <Rbt.Executable>
rbdock ($Id: //depot/dev/client3/rdock/2013.1/src/exe/rbdock.cxx#4 $)

>  <Rbt.Library>
libRbt.so (2013.1, Build901 2013/11/27)

>  <Rbt.Parameter_File>
/export/apps/rDock/src/rDock_2013.1_src/data/scripts/dock_solv.prm

>  <Rbt.Receptor>
prm/blind_docking_80.prm

>  <SCORE>
-26.661

>  <SCORE.INTER>
-26.661

>  <SCORE.INTER.CONST>
1

>  <SCORE.INTER.POLAR>
-2.0198

>  <SCORE.INTER.ROT>
0

>  <SCORE.INTER.SOLV>
12.7203

>  <SCORE.INTER.VDW>
-18.8814

>  <SCORE.INTER.norm>
-2.6661

>  <SCORE.INTRA>
0

>  <SCORE.INTRA.DIHEDRAL>
0

>  <SCORE.INTRA.DIHEDRAL.0>
0

>  <SCORE.INTRA.POLAR>
0

>  <SCORE.INTRA.POLAR.0>
0

>  <SCORE.INTRA.REPUL>
0

>  <SCORE.INTRA.REPUL.0>
0

>  <SCORE.INTRA.SOLV>
0

>  <SCORE.INTRA.SOLV.lig_0>
-16.9472

>  <SCORE.INTRA.VDW>
0

>  <SCORE.INTRA.VDW.0>
0

>  <SCORE.INTRA.norm>
0

>  <SCORE.RESTR>
0

>  <SCORE.RESTR.CAVITY>
0

>  <SCORE.RESTR.norm>
0

>  <SCORE.SYSTEM>
0

>  <SCORE.SYSTEM.CONST>
0

>  <SCORE.SYSTEM.DIHEDRAL>
0

>  <SCORE.SYSTEM.SOLV>
0

>  <SCORE.SYSTEM.norm>
0

>  <SCORE.heavy>
10

>  <SCORE.norm>
-2.6661

>  <RMSD>
0.612

$$$$
1y26_lig
 OpenBabel02141814133D
libRbt.so/2013.1/901 2013/11/27
 10 11  0  0  0  0  0  0  0  0999 V2000
   19.4282  -17.0747    2.9175 N   0  0  0  0  0  0  0  0  0  0  0  0
   18.7718  -18.2019    2.6319 C   0  0  0  0  0  0  0  0  0  0  0  0
   18.4961  -19.2250    3.4383 N   0  0  0  0  0  0  0  0  0  0  0  0
   18.9570  -18.9910    4.6878 C   0  0  0  0  0  0  0  0  0  0  0  0
   19.6373  -17.8733    5.1285 C   0  0  0  0  0  0  0  0  0  0  0  0
   19.8766  -16.8793    4.1749 C   0  0  0  0  0  0  0  0  0  0  0  0
   20.5341  -15.7728    4.4821 N   0  0  0  0  0  0  0  0  0  0  0  0
   19.9744  -17.9570    6.4595 N   0  0  0  0  0  0  0  0  0  0  0  0
   19.4621  -19.1200    6.8179 C   0  0  0  0  0  0  0  0  0  0  0  0
   18.8455  -19.7980    5.7886 N   0  0  0  0  0  0  0  0  0  0  0  0
  1  2  2  0  0  0  0
  2  3  1  0  0  0  0
  3  4  2  0  0  0  0
  5  4  1  0  0  0  0
  5  6  2  0  0  0  0
  6  1  1  0  0  0  0
  6  7  1  0  0  0  0
  8  5  1  0  0  0  0
  9  8  1  0  0  0  0
 10  4  1  0  0  0  0
 10  9  2  0  0  0  0
M  END
>  <CHROM.1>
19.39834580,-18.08866938,4.65111030,1.41927034,-1.04610351,-1.07127804

>  <Name>
1y26_lig

>  <RI>
224

>  <Rbt.Current_Directory>
/home/afrankz/demos/rdock_decoys_rna/rnas/1y26

>  <Rbt.Executable>
rbdock ($Id: //depot/dev/client3/rdock/2013.1/src/exe/rbdock.cxx#4 $)

>  <Rbt.Library>
libRbt.so (2013.1, Build901 2013/11/27)

>  <Rbt.Parameter_File>
/export/apps/rDock/src/rDock_2013.1_src/data/scripts/dock_solv.prm

>  <Rbt.Receptor>
prm/blind_docking_80.prm

>  <SCORE>
-26.6996

>  <SCORE.INTER>
-26.6996

>  <SCORE.INTER.CONST>
1

>  <SCORE.INTER.POLAR>
-2.0198

>  <SCORE.INTER.ROT>
0

>  <SCORE.INTER.SOLV>
12.8462

>  <SCORE.INTER.VDW>
-18.9491

>  <SCORE.INTER.norm>
-2.66996

>  <SCORE.INTRA>
0

>  <SCORE.INTRA.DIHEDRAL>
0

>  <SCORE.INTRA.DIHEDRAL.0>
0

>  <SCORE.INTRA.POLAR>
0

>  <SCORE.INTRA.POLAR.0>
0

>  <SCORE.INTRA.REPUL>
0

>  <SCORE.INTRA.REPUL.0>
0

>  <SCORE.INTRA.SOLV>
0

>  <SCORE.INTRA.SOLV.lig_0>
-16.9472

>  <SCORE.INTRA.VDW>
0

>  <SCORE.INTRA.VDW.0>
0

>  <SCORE.INTRA.norm>
0

>  <SCORE.RESTR>
0

>  <SCORE.RESTR.CAVITY>
0

>  <SCORE.RESTR.norm>
0

>  <SCORE.SYSTEM>
0

>  <SCORE.SYSTEM.CONST>
0

>  <SCORE.SYSTEM.DIHEDRAL>
0

>  <SCORE.SYSTEM.SOLV>
0

>  <SCORE.SYSTEM.norm>
0

>  <SCORE.heavy>
10

>  <SCORE.norm>
-2.66996

>  <RMSD>
0.612

$$$$
1y26_lig
 OpenBabel02141814133D
libRbt.so/2013.1/901 2013/11/27
 10 11  0  0  0  0  0  0  0  0999 V2000
   19.4659  -17.0743    2.9232 N   0  0  0  0  0  0  0  0  0  0  0  0
   18.7876  -18.1854    2.6258 C   0  0  0  0  0  0  0  0  0  0  0  0
   18.4917  -19.2112    3.4215 N   0  0  0  0  0  0  0  0  0  0  0  0
   18.9568  -18.9993    4.6734 C   0  0  0  0  0  0  0  0  0  0  0  0
   19.6587  -17.8997    5.1257 C   0  0  0  0  0  0  0  0  0  0  0  0
   19.9176  -16.9008    4.1825 C   0  0  0  0  0  0  0  0  0  0  0  0
   20.5966  -15.8105    4.5012 N   0  0  0  0  0  0  0  0  0  0  0  0
   19.9937  -18.0038    6.4558 N   0  0  0  0  0  0  0  0  0  0  0  0
   19.4586  -19.1602    6.8021 C   0  0  0  0  0  0  0  0  0  0  0  0
   18.8292  -19.8153    5.7657 N   0  0  0  0  0  0  0  0  0  0  0  0
  1  2  2  0  0  0  0
  2  3  1  0  0  0  0
  3  4  2  0  0  0  0
  5  4  1  0  0  0  0
  5  6  2  0  0  0  0
  6  1  1  0  0  0  0
  6  7  1  0  0  0  0
  8  5  1  0  0  0  0
  9  8  1  0  0  0  0
 10  4  1  0  0  0  0
 10  9  2  0  0  0  0
M  END
>  <CHROM.1>
19.41569458,-18.10540691,4.64611918,1.40060956,-1.02899284,-1.07696127

>  <Name>
1y26_lig

>  <RI>
224

>  <Rbt.Current_Directory>
/home/afrankz/demos/rdock_decoys_rna/rnas/1y26

>  <Rbt.Executable>
rbdock ($Id: //depot/dev/client3/rdock/2013.1/src/exe/rbdock.cxx#4 $)

>  <Rbt.Library>
libRbt.so (2013.1, Build901 2013/11/27)

>  <Rbt.Parameter_File>
/export/apps/rDock/src/rDock_2013.1_src/data/scripts/dock_solv.prm

>  <Rbt.Receptor>
prm/pocket_docking_3.prm

>  <SCORE>
-26.6841

>  <SCORE.INTER>
-26.6841

>  <SCORE.INTER.CONST>
1

>  <SCORE.INTER.POLAR>
-2.0198

>  <SCORE.INTER.ROT>
0

>  <SCORE.INTER.SOLV>
12.7508

>  <SCORE.INTER.VDW>
-18.907

>  <SCORE.INTER.norm>
-2.66841

>  <SCORE.INTRA>
0

>  <SCORE.INTRA.DIHEDRAL>
0

>  <SCORE.INTRA.DIHEDRAL.0>
0

>  <SCORE.INTRA.POLAR>
0

>  <SCORE.INTRA.POLAR.0>
0

>  <SCORE.INTRA.REPUL>
0

>  <SCORE.INTRA.REPUL.0>
0

>  <SCORE.INTRA.SOLV>
0

>  <SCORE.INTRA.SOLV.lig_0>
-16.9472

>  <SCORE.INTRA.VDW>
0

>  <SCORE.INTRA.VDW.0>
0

>  <SCORE.INTRA.norm>
0

>  <SCORE.RESTR>
0

>  <SCORE.RESTR.CAVITY>
0

>  <SCORE.RESTR.norm>
0

>  <SCORE.SYSTEM>
0

>  <SCORE.SYSTEM.CONST>
0

>  <SCORE.SYSTEM.DIHEDRAL>
0

>  <SCORE.SYSTEM.SOLV>
0

>  <SCORE.SYSTEM.norm>
0

>  <SCORE.heavy>
10

>  <SCORE.norm>
-2.66841

>  <RMSD>
0.612

$$$$
1y26_lig
 OpenBabel02141814133D
libRbt.so/2013.1/901 2013/11/27
 10 11  0  0  0  0  0  0  0  0999 V2000
   19.4773  -17.0748    2.9262 N   0  0  0  0  0  0  0  0  0  0  0  0
   18.7876  -18.1804    2.6347 C   0  0  0  0  0  0  0  0  0  0  0  0
   18.4783  -19.1973    3.4367 N   0  0  0  0  0  0  0  0  0  0  0  0
   18.9425  -18.9819    4.6882 C   0  0  0  0  0  0  0  0  0  0  0  0
   19.6553  -17.8870    5.1349 C   0  0  0  0  0  0  0  0  0  0  0  0
   19.9277  -16.8975    4.1855 C   0  0  0  0  0  0  0  0  0  0  0  0
   20.6178  -15.8127    4.4985 N   0  0  0  0  0  0  0  0  0  0  0  0
   19.9858  -17.9856    6.4665 N   0  0  0  0  0  0  0  0  0  0  0  0
   19.4370  -19.1336    6.8194 C   0  0  0  0  0  0  0  0  0  0  0  0
   18.8031  -19.7889    5.7858 N   0  0  0  0  0  0  0  0  0  0  0  0
  1  2  2  0  0  0  0
  2  3  1  0  0  0  0
  3  4  2  0  0  0  0
  5  4  1  0  0  0  0
  5  6  2  0  0  0  0
  6  1  1  0  0  0  0
  6  7  1  0  0  0  0
  8  5  1  0  0  0  0
  9  8  1  0  0  0  0
 10  4  1  0  0  0  0
 10  9  2  0  0  0  0
M  END
>  <CHROM.1>
19.41131291,-18.09334383,4.65606972,1.38625178,-1.02044827,-1.09613881

>  <Name>
1y26_lig

>  <RI>
0

>  <Rbt.Current_Directory>
/home/afrankz/demos/rdock_decoys_rna/rnas/1y26

>  <Rbt.Executable>
rbdock ($Id: //depot/dev/client3/rdock/2013.1/src/exe/rbdock.cxx#4 $)

>  <Rbt.Library>
libRbt.so (2013.1, Build901 2013/11/27)

>  <Rbt.Parameter_File>
/export/apps/rDock/src/rDock_2013.1_src/data/scripts/dock_solv.prm

>  <Rbt.Receptor>
prm/pocket_docking_5.prm

>  <SCORE>
-26.6608

>  <SCORE.INTER>
-26.6608

>  <SCORE.INTER.CONST>
1

>  <SCORE.INTER.POLAR>
-2.0198

>  <SCORE.INTER.ROT>
0

>  <SCORE.INTER.SOLV>
12.6996

>  <SCORE.INTER.VDW>
-18.8744

>  <SCORE.INTER.norm>
-2.66608

>  <SCORE.INTRA>
0

>  <SCORE.INTRA.DIHEDRAL>
0

>  <SCORE.INTRA.DIHEDRAL.0>
0

>  <SCORE.INTRA.POLAR>
0

>  <SCORE.INTRA.POLAR.0>
0

>  <SCORE.INTRA.REPUL>
0

>  <SCORE.INTRA.REPUL.0>
0

>  <SCORE.INTRA.SOLV>
0

>  <SCORE.INTRA.SOLV.lig_0>
-16.9472

>  <SCORE.INTRA.VDW>
0

>  <SCORE.INTRA.VDW.0>
0

>  <SCORE.INTRA.norm>
0

>  <SCORE.RESTR>
0

>  <SCORE.RESTR.CAVITY>
0

>  <SCORE.RESTR.norm>
0

>  <SCORE.SYSTEM>
0

>  <SCORE.SYSTEM.CONST>
0

>  <SCORE.SYSTEM.DIHEDRAL>
0

>  <SCORE.SYSTEM.SOLV>
0

>  <SCORE.SYSTEM.norm>
0

>  <SCORE.heavy>
10

>  <SCORE.norm>
-2.66608

>  <RMSD>
0.612

$$$$
1y26_lig
 OpenBabel02141814133D
libRbt.so/2013.1/901 2013/11/27
 10 11  0  0  0  0  0  0  0  0999 V2000
   19.4725  -17.0753    2.9248 N   0  0  0  0  0  0  0  0  0  0  0  0
   18.7878  -18.1823    2.6264 C   0  0  0  0  0  0  0  0  0  0  0  0
   18.4866  -19.2073    3.4211 N   0  0  0  0  0  0  0  0  0  0  0  0
   18.9534  -18.9995    4.6730 C   0  0  0  0  0  0  0  0  0  0  0  0
   19.6617  -17.9045    5.1263 C   0  0  0  0  0  0  0  0  0  0  0  0
   19.9258  -16.9059    4.1842 C   0  0  0  0  0  0  0  0  0  0  0  0
   20.6110  -15.8198    4.5038 N   0  0  0  0  0  0  0  0  0  0  0  0
   19.9968  -18.0120    6.4561 N   0  0  0  0  0  0  0  0  0  0  0  0
   19.4554  -19.1658    6.8013 C   0  0  0  0  0  0  0  0  0  0  0  0
   18.8218  -19.8162    5.7644 N   0  0  0  0  0  0  0  0  0  0  0  0
  1  2  2  0  0  0  0
  2  3  1  0  0  0  0
  3  4  2  0  0  0  0
  5  4  1  0  0  0  0
  5  6  2  0  0  0  0
  6  1  1  0  0  0  0
  6  7  1  0  0  0  0
  8  5  1  0  0  0  0
  9  8  1  0  0  0  0
 10  4  1  0  0  0  0
 10  9  2  0  0  0  0
M  END
>  <CHROM.1>
19.41731584,-18.10822365,4.64657198,1.39630197,-1.02382323,-1.07946048

>  <Name>
1y26_lig

>  <RI>
224

>  <Rbt.Current_Directory>
/home/afrankz/demos/rdock_decoys_rna/rnas/1y26

>  <Rbt.Executable>
rbdock ($Id: //depot/dev/client3/rdock/2013.1/src/exe/rbdock.cxx#4 $)

>  <Rbt.Library>
libRbt.so (2013.1, Build901 2013/11/27)

>  <Rbt.Parameter_File>
/export/apps/rDock/src/rDock_2013.1_src/data/scripts/dock_solv.prm

>  <Rbt.Receptor>
prm/pocket_docking_6.prm

>  <SCORE>
-26.6833

>  <SCORE.INTER>
-26.6833

>  <SCORE.INTER.CONST>
1

>  <SCORE.INTER.POLAR>
-2.0198

>  <SCORE.INTER.ROT>
0

>  <SCORE.INTER.SOLV>
12.7272

>  <SCORE.INTER.VDW>
-18.8986

>  <SCORE.INTER.norm>
-2.66833

>  <SCORE.INTRA>
0

>  <SCORE.INTRA.DIHEDRAL>
0

>  <SCORE.INTRA.DIHEDRAL.0>
0

>  <SCORE.INTRA.POLAR>
0

>  <SCORE.INTRA.POLAR.0>
0

>  <SCORE.INTRA.REPUL>
0

>  <SCORE.INTRA.REPUL.0>
0

>  <SCORE.INTRA.SOLV>
0

>  <SCORE.INTRA.SOLV.lig_0>
-16.9472

>  <SCORE.INTRA.VDW>
0

>  <SCORE.INTRA.VDW.0>
0

>  <SCORE.INTRA.norm>
0

>  <SCORE.RESTR>
0

>  <SCORE.RESTR.CAVITY>
0

>  <SCORE.RESTR.norm>
0

>  <SCORE.SYSTEM>
0

>  <SCORE.SYSTEM.CONST>
0

>  <SCORE.SYSTEM.DIHEDRAL>
0

>  <SCORE.SYSTEM.SOLV>
0

>  <SCORE.SYSTEM.norm>
0

>  <SCORE.heavy>
10

>  <SCORE.norm>
-2.66833

>  <RMSD>
0.612

$$$$
1y26_lig
 OpenBabel02141814133D
libRbt.so/2013.1/901 2013/11/27
 10 11  0  0  0  0  0  0  0  0999 V2000
   19.4602  -17.0732    2.9208 N   0  0  0  0  0  0  0  0  0  0  0  0
   18.7848  -18.1912    2.6433 C   0  0  0  0  0  0  0  0  0  0  0  0
   18.4893  -19.2021    3.4579 N   0  0  0  0  0  0  0  0  0  0  0  0
   18.9514  -18.9654    4.7064 C   0  0  0  0  0  0  0  0  0  0  0  0
   19.6502  -17.8560    5.1390 C   0  0  0  0  0  0  0  0  0  0  0  0
   19.9091  -16.8747    4.1775 C   0  0  0  0  0  0  0  0  0  0  0  0
   20.5852  -15.7773    4.4767 N   0  0  0  0  0  0  0  0  0  0  0  0
   19.9827  -17.9341    6.4716 N   0  0  0  0  0  0  0  0  0  0  0  0
   19.4492  -19.0847    6.8388 C   0  0  0  0  0  0  0  0  0  0  0  0
   18.8232  -19.7607    5.8138 N   0  0  0  0  0  0  0  0  0  0  0  0
  1  2  2  0  0  0  0
  2  3  1  0  0  0  0
  3  4  2  0  0  0  0
  5  4  1  0  0  0  0
  5  6  2  0  0  0  0
  6  1  1  0  0  0  0
  6  7  1  0  0  0  0
  8  5  1  0  0  0  0
  9  8  1  0  0  0  0
 10  4  1  0  0  0  0
 10  9  2  0  0  0  0
M  END
>  <CHROM.1>
19.40858350,-18.07132854,4.66298630,1.39893679,-1.03170027,-1.09749017

>  <Name>
1y26_lig

>  <RI>
0

>  <Rbt.Current_Directory>
/home/afrankz/demos/rdock_decoys_rna/rnas/1y26

>  <Rbt.Executable>
rbdock ($Id: //depot/dev/client3/rdock/2013.1/src/exe/rbdock.cxx#4 $)

>  <Rbt.Library>
libRbt.so (2013.1, Build901 2013/11/27)

>  <Rbt.Parameter_File>
/export/apps/rDock/src/rDock_2013.1_src/data/scripts/dock_solv.prm

>  <Rbt.Receptor>
prm/blind_docking_100.prm

>  <SCORE>
-26.6352

>  <SCORE.INTER>
-26.6352

>  <SCORE.INTER.CONST>
1

>  <SCORE.INTER.POLAR>
-2.0198

>  <SCORE.INTER.ROT>
0

>  <SCORE.INTER.SOLV>
12.7358

>  <SCORE.INTER.VDW>
-18.8694

>  <SCORE.INTER.norm>
-2.66352

>  <SCORE.INTRA>
0

>  <SCORE.INTRA.DIHEDRAL>
0

>  <SCORE.INTRA.DIHEDRAL.0>
0

>  <SCORE.INTRA.POLAR>
0

>  <SCORE.INTRA.POLAR.0>
0

>  <SCORE.INTRA.REPUL>
0

>  <SCORE.INTRA.REPUL.0>
0

>  <SCORE.INTRA.SOLV>
0

>  <SCORE.INTRA.SOLV.lig_0>
-16.9472

>  <SCORE.INTRA.VDW>
0

>  <SCORE.INTRA.VDW.0>
0

>  <SCORE.INTRA.norm>
0

>  <SCORE.RESTR>
0

>  <SCORE.RESTR.CAVITY>
0

>  <SCORE.RESTR.norm>
0

>  <SCORE.SYSTEM>
0

>  <SCORE.SYSTEM.CONST>
0

>  <SCORE.SYSTEM.DIHEDRAL>
0

>  <SCORE.SYSTEM.SOLV>
0

>  <SCORE.SYSTEM.norm>
0

>  <SCORE.heavy>
10

>  <SCORE.norm>
-2.66352

>  <RMSD>
0.613

$$$$
1y26_lig
 OpenBabel02141814133D
libRbt.so/2013.1/901 2013/11/27
 10 11  0  0  0  0  0  0  0  0999 V2000
   19.4872  -17.0947    2.9194 N   0  0  0  0  0  0  0  0  0  0  0  0
   18.7980  -18.2023    2.6343 C   0  0  0  0  0  0  0  0  0  0  0  0
   18.4867  -19.2133    3.4429 N   0  0  0  0  0  0  0  0  0  0  0  0
   18.9481  -18.9890    4.6939 C   0  0  0  0  0  0  0  0  0  0  0  0
   19.6601  -17.8910    5.1342 C   0  0  0  0  0  0  0  0  0  0  0  0
   19.9347  -16.9084    4.1784 C   0  0  0  0  0  0  0  0  0  0  0  0
   20.6243  -15.8214    4.4851 N   0  0  0  0  0  0  0  0  0  0  0  0
   19.9874  -17.9800    6.4673 N   0  0  0  0  0  0  0  0  0  0  0  0
   19.4377  -19.1254    6.8272 C   0  0  0  0  0  0  0  0  0  0  0  0
   18.8061  -19.7880    5.7970 N   0  0  0  0  0  0  0  0  0  0  0  0
  1  2  2  0  0  0  0
  2  3  1  0  0  0  0
  3  4  2  0  0  0  0
  5  4  1  0  0  0  0
  5  6  2  0  0  0  0
  6  1  1  0  0  0  0
  6  7  1  0  0  0  0
  8  5  1  0  0  0  0
  9  8  1  0  0  0  0
 10  4  1  0  0  0  0
 10  9  2  0  0  0  0
M  END
>  <CHROM.1>
19.41709701,-18.10073340,4.65639165,1.38224626,-1.02135822,-1.10677184

>  <Name>
1y26_lig

>  <RI>
0

>  <Rbt.Current_Directory>
/home/afrankz/demos/rdock_decoys_rna/rnas/1y26

>  <Rbt.Executable>
rbdock ($Id: //depot/dev/client3/rdock/2013.1/src/exe/rbdock.cxx#4 $)

>  <Rbt.Library>
libRbt.so (2013.1, Build901 2013/11/27)

>  <Rbt.Parameter_File>
/export/apps/rDock/src/rDock_2013.1_src/data/scripts/dock_solv.prm

>  <Rbt.Receptor>
prm/blind_docking_60.prm

>  <SCORE>
-26.6312

>  <SCORE.INTER>
-26.6312

>  <SCORE.INTER.CONST>
1

>  <SCORE.INTER.POLAR>
-2.0198

>  <SCORE.INTER.ROT>
0

>  <SCORE.INTER.SOLV>
12.661

>  <SCORE.INTER.VDW>
-18.8418

>  <SCORE.INTER.norm>
-2.66312

>  <SCORE.INTRA>
0

>  <SCORE.INTRA.DIHEDRAL>
0

>  <SCORE.INTRA.DIHEDRAL.0>
0

>  <SCORE.INTRA.POLAR>
0

>  <SCORE.INTRA.POLAR.0>
0

>  <SCORE.INTRA.REPUL>
0

>  <SCORE.INTRA.REPUL.0>
0

>  <SCORE.INTRA.SOLV>
0

>  <SCORE.INTRA.SOLV.lig_0>
-16.9472

>  <SCORE.INTRA.VDW>
0

>  <SCORE.INTRA.VDW.0>
0

>  <SCORE.INTRA.norm>
0

>  <SCORE.RESTR>
0

>  <SCORE.RESTR.CAVITY>
0

>  <SCORE.RESTR.norm>
0

>  <SCORE.SYSTEM>
0

>  <SCORE.SYSTEM.CONST>
0

>  <SCORE.SYSTEM.DIHEDRAL>
0

>  <SCORE.SYSTEM.SOLV>
0

>  <SCORE.SYSTEM.norm>
0

>  <SCORE.heavy>
10

>  <SCORE.norm>
-2.66312

>  <RMSD>
0.613

$$$$
1y26_lig
 OpenBabel02141814133D
libRbt.so/2013.1/901 2013/11/27
 10 11  0  0  0  0  0  0  0  0999 V2000
   19.4743  -17.0751    2.9253 N   0  0  0  0  0  0  0  0  0  0  0  0
   18.7900  -18.1842    2.6342 C   0  0  0  0  0  0  0  0  0  0  0  0
   18.4823  -19.2005    3.4377 N   0  0  0  0  0  0  0  0  0  0  0  0
   18.9416  -18.9803    4.6902 C   0  0  0  0  0  0  0  0  0  0  0  0
   19.6486  -17.8815    5.1365 C   0  0  0  0  0  0  0  0  0  0  0  0
   19.9200  -16.8931    4.1857 C   0  0  0  0  0  0  0  0  0  0  0  0
   20.6047  -15.8047    4.4983 N   0  0  0  0  0  0  0  0  0  0  0  0
   19.9752  -17.9756    6.4694 N   0  0  0  0  0  0  0  0  0  0  0  0
   19.4299  -19.1250    6.8232 C   0  0  0  0  0  0  0  0  0  0  0  0
   18.8019  -19.7853    5.7892 N   0  0  0  0  0  0  0  0  0  0  0  0
  1  2  2  0  0  0  0
  2  3  1  0  0  0  0
  3  4  2  0  0  0  0
  5  4  1  0  0  0  0
  5  6  2  0  0  0  0
  6  1  1  0  0  0  0
  6  7  1  0  0  0  0
  8  5  1  0  0  0  0
  9  8  1  0  0  0  0
 10  4  1  0  0  0  0
 10  9  2  0  0  0  0
M  END
>  <CHROM.1>
19.40690680,-18.08990280,4.65738770,1.38434722,-1.02549126,-1.10011719

>  <Name>
1y26_lig

>  <RI>
224

>  <Rbt.Current_Directory>
/home/afrankz/demos/rdock_decoys_rna/rnas/1y26

>  <Rbt.Executable>
rbdock ($Id: //depot/dev/client3/rdock/2013.1/src/exe/rbdock.cxx#4 $)

>  <Rbt.Library>
libRbt.so (2013.1, Build901 2013/11/27)

>  <Rbt.Parameter_File>
/export/apps/rDock/src/rDock_2013.1_src/data/scripts/dock_solv.prm

>  <Rbt.Receptor>
prm/pocket_docking_3.prm

>  <SCORE>
-26.6579

>  <SCORE.INTER>
-26.6579

>  <SCORE.INTER.CONST>
1

>  <SCORE.INTER.POLAR>
-2.0198

>  <SCORE.INTER.ROT>
0

>  <SCORE.INTER.SOLV>
12.7149

>  <SCORE.INTER.VDW>
-18.8775

>  <SCORE.INTER.norm>
-2.66579

>  <SCORE.INTRA>
0

>  <SCORE.INTRA.DIHEDRAL>
0

>  <SCORE.INTRA.DIHEDRAL.0>
0

>  <SCORE.INTRA.POLAR>
0

>  <SCORE.INTRA.POLAR.0>
0

>  <SCORE.INTRA.REPUL>
0

>  <SCORE.INTRA.REPUL.0>
0

>  <SCORE.INTRA.SOLV>
0

>  <SCORE.INTRA.SOLV.lig_0>
-16.9472

>  <SCORE.INTRA.VDW>
0

>  <SCORE.INTRA.VDW.0>
0

>  <SCORE.INTRA.norm>
0

>  <SCORE.RESTR>
0

>  <SCORE.RESTR.CAVITY>
0

>  <SCORE.RESTR.norm>
0

>  <SCORE.SYSTEM>
0

>  <SCORE.SYSTEM.CONST>
0

>  <SCORE.SYSTEM.DIHEDRAL>
0

>  <SCORE.SYSTEM.SOLV>
0

>  <SCORE.SYSTEM.norm>
0

>  <SCORE.heavy>
10

>  <SCORE.norm>
-2.66579

>  <RMSD>
0.613

$$$$
1y26_lig
 OpenBabel02141814133D
libRbt.so/2013.1/901 2013/11/27
 10 11  0  0  0  0  0  0  0  0999 V2000
   19.4264  -17.0752    2.9198 N   0  0  0  0  0  0  0  0  0  0  0  0
   18.7623  -18.2002    2.6430 C   0  0  0  0  0  0  0  0  0  0  0  0
   18.4805  -19.2154    3.4572 N   0  0  0  0  0  0  0  0  0  0  0  0
   18.9439  -18.9752    4.7046 C   0  0  0  0  0  0  0  0  0  0  0  0
   19.6318  -17.8587    5.1365 C   0  0  0  0  0  0  0  0  0  0  0  0
   19.8769  -16.8734    4.1754 C   0  0  0  0  0  0  0  0  0  0  0  0
   20.5419  -15.7690    4.4739 N   0  0  0  0  0  0  0  0  0  0  0  0
   19.9693  -17.9347    6.4679 N   0  0  0  0  0  0  0  0  0  0  0  0
   19.4496  -19.0916    6.8353 C   0  0  0  0  0  0  0  0  0  0  0  0
   18.8279  -19.7732    5.8114 N   0  0  0  0  0  0  0  0  0  0  0  0
  1  2  2  0  0  0  0
  2  3  1  0  0  0  0
  3  4  2  0  0  0  0
  5  4  1  0  0  0  0
  5  6  2  0  0  0  0
  6  1  1  0  0  0  0
  6  7  1  0  0  0  0
  8  5  1  0  0  0  0
  9  8  1  0  0  0  0
 10  4  1  0  0  0  0
 10  9  2  0  0  0  0
M  END
>  <CHROM.1>
19.39109075,-18.07606412,4.66091357,1.41428183,-1.04000227,-1.08303088

>  <Name>
1y26_lig

>  <RI>
0

>  <Rbt.Current_Directory>
/home/afrankz/demos/rdock_decoys_rna/rnas/1y26

>  <Rbt.Executable>
rbdock ($Id: //depot/dev/client3/rdock/2013.1/src/exe/rbdock.cxx#4 $)

>  <Rbt.Library>
libRbt.so (2013.1, Build901 2013/11/27)

>  <Rbt.Parameter_File>
/export/apps/rDock/src/rDock_2013.1_src/data/scripts/dock_solv.prm

>  <Rbt.Receptor>
prm/pocket_docking_4.prm

>  <SCORE>
-26.678

>  <SCORE.INTER>
-26.678

>  <SCORE.INTER.CONST>
1

>  <SCORE.INTER.POLAR>
-2.0198

>  <SCORE.INTER.ROT>
0

>  <SCORE.INTER.SOLV>
12.8205

>  <SCORE.INTER.VDW>
-18.9261

>  <SCORE.INTER.norm>
-2.6678

>  <SCORE.INTRA>
0

>  <SCORE.INTRA.DIHEDRAL>
0

>  <SCORE.INTRA.DIHEDRAL.0>
0

>  <SCORE.INTRA.POLAR>
0

>  <SCORE.INTRA.POLAR.0>
0

>  <SCORE.INTRA.REPUL>
0

>  <SCORE.INTRA.REPUL.0>
0

>  <SCORE.INTRA.SOLV>
0

>  <SCORE.INTRA.SOLV.lig_0>
-16.9472

>  <SCORE.INTRA.VDW>
0

>  <SCORE.INTRA.VDW.0>
0

>  <SCORE.INTRA.norm>
0

>  <SCORE.RESTR>
0

>  <SCORE.RESTR.CAVITY>
0

>  <SCORE.RESTR.norm>
0

>  <SCORE.SYSTEM>
0

>  <SCORE.SYSTEM.CONST>
0

>  <SCORE.SYSTEM.DIHEDRAL>
0

>  <SCORE.SYSTEM.SOLV>
0

>  <SCORE.SYSTEM.norm>
0

>  <SCORE.heavy>
10

>  <SCORE.norm>
-2.6678

>  <RMSD>
0.613

$$$$
1y26_lig
 OpenBabel02141814133D
libRbt.so/2013.1/901 2013/11/27
 10 11  0  0  0  0  0  0  0  0999 V2000
   19.4762  -17.0758    2.9261 N   0  0  0  0  0  0  0  0  0  0  0  0
   18.7882  -18.1827    2.6353 C   0  0  0  0  0  0  0  0  0  0  0  0
   18.4812  -19.1999    3.4378 N   0  0  0  0  0  0  0  0  0  0  0  0
   18.9456  -18.9833    4.6890 C   0  0  0  0  0  0  0  0  0  0  0  0
   19.6568  -17.8871    5.1349 C   0  0  0  0  0  0  0  0  0  0  0  0
   19.9270  -16.8974    4.1851 C   0  0  0  0  0  0  0  0  0  0  0  0
   20.6154  -15.8112    4.4973 N   0  0  0  0  0  0  0  0  0  0  0  0
   19.9882  -17.9846    6.4664 N   0  0  0  0  0  0  0  0  0  0  0  0
   19.4416  -19.1335    6.8200 C   0  0  0  0  0  0  0  0  0  0  0  0
   18.8082  -19.7902    5.7870 N   0  0  0  0  0  0  0  0  0  0  0  0
  1  2  2  0  0  0  0
  2  3  1  0  0  0  0
  3  4  2  0  0  0  0
  5  4  1  0  0  0  0
  5  6  2  0  0  0  0
  6  1  1  0  0  0  0
  6  7  1  0  0  0  0
  8  5  1  0  0  0  0
  9  8  1  0  0  0  0
 10  4  1  0  0  0  0
 10  9  2  0  0  0  0
M  END
>  <CHROM.1>
19.41290589,-18.09394262,4.65631102,1.38870234,-1.02173253,-1.09438073

>  <Name>
1y26_lig

>  <RI>
0

>  <Rbt.Current_Directory>
/home/afrankz/demos/rdock_decoys_rna/rnas/1y26

>  <Rbt.Executable>
rbdock ($Id: //depot/dev/client3/rdock/2013.1/src/exe/rbdock.cxx#4 $)

>  <Rbt.Library>
libRbt.so (2013.1, Build901 2013/11/27)

>  <Rbt.Parameter_File>
/export/apps/rDock/src/rDock_2013.1_src/data/scripts/dock_solv.prm

>  <Rbt.Receptor>
prm/pocket_docking_8.prm

>  <SCORE>
-26.6624

>  <SCORE.INTER>
-26.6624

>  <SCORE.INTER.CONST>
1

>  <SCORE.INTER.POLAR>
-2.0198

>  <SCORE.INTER.ROT>
0

>  <SCORE.INTER.SOLV>
12.7036

>  <SCORE.INTER.VDW>
-18.8768

>  <SCORE.INTER.norm>
-2.66624

>  <SCORE.INTRA>
0

>  <SCORE.INTRA.DIHEDRAL>
0

>  <SCORE.INTRA.DIHEDRAL.0>
0

>  <SCORE.INTRA.POLAR>
0

>  <SCORE.INTRA.POLAR.0>
0

>  <SCORE.INTRA.REPUL>
0

>  <SCORE.INTRA.REPUL.0>
0

>  <SCORE.INTRA.SOLV>
0

>  <SCORE.INTRA.SOLV.lig_0>
-16.9472

>  <SCORE.INTRA.VDW>
0

>  <SCORE.INTRA.VDW.0>
0

>  <SCORE.INTRA.norm>
0

>  <SCORE.RESTR>
0

>  <SCORE.RESTR.CAVITY>
0

>  <SCORE.RESTR.norm>
0

>  <SCORE.SYSTEM>
0

>  <SCORE.SYSTEM.CONST>
0

>  <SCORE.SYSTEM.DIHEDRAL>
0

>  <SCORE.SYSTEM.SOLV>
0

>  <SCORE.SYSTEM.norm>
0

>  <SCORE.heavy>
10

>  <SCORE.norm>
-2.66624

>  <RMSD>
0.613

$$$$
1y26_lig
 OpenBabel02141814133D
libRbt.so/2013.1/901 2013/11/27
 10 11  0  0  0  0  0  0  0  0999 V2000
   19.4764  -17.0730    2.9279 N   0  0  0  0  0  0  0  0  0  0  0  0
   18.7879  -18.1772    2.6281 C   0  0  0  0  0  0  0  0  0  0  0  0
   18.4830  -19.2021    3.4216 N   0  0  0  0  0  0  0  0  0  0  0  0
   18.9504  -18.9974    4.6737 C   0  0  0  0  0  0  0  0  0  0  0  0
   19.6624  -17.9054    5.1284 C   0  0  0  0  0  0  0  0  0  0  0  0
   19.9301  -16.9066    4.1875 C   0  0  0  0  0  0  0  0  0  0  0  0
   20.6191  -15.8233    4.5086 N   0  0  0  0  0  0  0  0  0  0  0  0
   19.9969  -18.0157    6.4582 N   0  0  0  0  0  0  0  0  0  0  0  0
   19.4514  -19.1680    6.8019 C   0  0  0  0  0  0  0  0  0  0  0  0
   18.8157  -19.8149    5.7642 N   0  0  0  0  0  0  0  0  0  0  0  0
  1  2  2  0  0  0  0
  2  3  1  0  0  0  0
  3  4  2  0  0  0  0
  5  4  1  0  0  0  0
  5  6  2  0  0  0  0
  6  1  1  0  0  0  0
  6  7  1  0  0  0  0
  8  5  1  0  0  0  0
  9  8  1  0  0  0  0
 10  4  1  0  0  0  0
 10  9  2  0  0  0  0
M  END
>  <CHROM.1>
19.41739592,-18.10770886,4.64844017,1.39289690,-1.02081433,-1.08119183

>  <Name>
1y26_lig

>  <RI>
0

>  <Rbt.Current_Directory>
/home/afrankz/demos/rdock_decoys_rna/rnas/1y26

>  <Rbt.Executable>
rbdock ($Id: //depot/dev/client3/rdock/2013.1/src/exe/rbdock.cxx#4 $)

>  <Rbt.Library>
libRbt.so (2013.1, Build901 2013/11/27)

>  <Rbt.Parameter_File>
/export/apps/rDock/src/rDock_2013.1_src/data/scripts/dock_solv.prm

>  <Rbt.Receptor>
prm/pocket_docking_8.prm

>  <SCORE>
-26.6817

>  <SCORE.INTER>
-26.6817

>  <SCORE.INTER.CONST>
1

>  <SCORE.INTER.POLAR>
-2.0198

>  <SCORE.INTER.ROT>
0

>  <SCORE.INTER.SOLV>
12.7167

>  <SCORE.INTER.VDW>
-18.894

>  <SCORE.INTER.norm>
-2.66817

>  <SCORE.INTRA>
0

>  <SCORE.INTRA.DIHEDRAL>
0

>  <SCORE.INTRA.DIHEDRAL.0>
0

>  <SCORE.INTRA.POLAR>
0

>  <SCORE.INTRA.POLAR.0>
0

>  <SCORE.INTRA.REPUL>
0

>  <SCORE.INTRA.REPUL.0>
0

>  <SCORE.INTRA.SOLV>
0

>  <SCORE.INTRA.SOLV.lig_0>
-16.9472

>  <SCORE.INTRA.VDW>
0

>  <SCORE.INTRA.VDW.0>
0

>  <SCORE.INTRA.norm>
0

>  <SCORE.RESTR>
0

>  <SCORE.RESTR.CAVITY>
0

>  <SCORE.RESTR.norm>
0

>  <SCORE.SYSTEM>
0

>  <SCORE.SYSTEM.CONST>
0

>  <SCORE.SYSTEM.DIHEDRAL>
0

>  <SCORE.SYSTEM.SOLV>
0

>  <SCORE.SYSTEM.norm>
0

>  <SCORE.heavy>
10

>  <SCORE.norm>
-2.66817

>  <RMSD>
0.614

$$$$
1y26_lig
 OpenBabel02141814133D
libRbt.so/2013.1/901 2013/11/27
 10 11  0  0  0  0  0  0  0  0999 V2000
   19.4696  -17.0756    2.9256 N   0  0  0  0  0  0  0  0  0  0  0  0
   18.7896  -18.1857    2.6284 C   0  0  0  0  0  0  0  0  0  0  0  0
   18.4935  -19.2116    3.4239 N   0  0  0  0  0  0  0  0  0  0  0  0
   18.9604  -19.0011    4.6753 C   0  0  0  0  0  0  0  0  0  0  0  0
   19.6642  -17.9026    5.1274 C   0  0  0  0  0  0  0  0  0  0  0  0
   19.9232  -16.9034    4.1845 C   0  0  0  0  0  0  0  0  0  0  0  0
   20.6038  -15.8142    4.5030 N   0  0  0  0  0  0  0  0  0  0  0  0
   20.0008  -18.0080    6.4570 N   0  0  0  0  0  0  0  0  0  0  0  0
   19.4647  -19.1639    6.8033 C   0  0  0  0  0  0  0  0  0  0  0  0
   18.8332  -19.8176    5.7673 N   0  0  0  0  0  0  0  0  0  0  0  0
  1  2  2  0  0  0  0
  2  3  1  0  0  0  0
  3  4  2  0  0  0  0
  5  4  1  0  0  0  0
  5  6  2  0  0  0  0
  6  1  1  0  0  0  0
  6  7  1  0  0  0  0
  8  5  1  0  0  0  0
  9  8  1  0  0  0  0
 10  4  1  0  0  0  0
 10  9  2  0  0  0  0
M  END
>  <CHROM.1>
19.42035805,-18.10773274,4.64798400,1.40164638,-1.02733519,-1.07546566

>  <Name>
1y26_lig

>  <RI>
224

>  <Rbt.Current_Directory>
/home/afrankz/demos/rdock_decoys_rna/rnas/1y26

>  <Rbt.Executable>
rbdock ($Id: //depot/dev/client3/rdock/2013.1/src/exe/rbdock.cxx#4 $)

>  <Rbt.Library>
libRbt.so (2013.1, Build901 2013/11/27)

>  <Rbt.Parameter_File>
/export/apps/rDock/src/rDock_2013.1_src/data/scripts/dock_solv.prm

>  <Rbt.Receptor>
prm/pocket_docking_3.prm

>  <SCORE>
-26.683

>  <SCORE.INTER>
-26.683

>  <SCORE.INTER.CONST>
1

>  <SCORE.INTER.POLAR>
-2.0198

>  <SCORE.INTER.ROT>
0

>  <SCORE.INTER.SOLV>
12.7406

>  <SCORE.INTER.VDW>
-18.9028

>  <SCORE.INTER.norm>
-2.6683

>  <SCORE.INTRA>
0

>  <SCORE.INTRA.DIHEDRAL>
0

>  <SCORE.INTRA.DIHEDRAL.0>
0

>  <SCORE.INTRA.POLAR>
0

>  <SCORE.INTRA.POLAR.0>
0

>  <SCORE.INTRA.REPUL>
0

>  <SCORE.INTRA.REPUL.0>
0

>  <SCORE.INTRA.SOLV>
0

>  <SCORE.INTRA.SOLV.lig_0>
-16.9472

>  <SCORE.INTRA.VDW>
0

>  <SCORE.INTRA.VDW.0>
0

>  <SCORE.INTRA.norm>
0

>  <SCORE.RESTR>
0

>  <SCORE.RESTR.CAVITY>
0

>  <SCORE.RESTR.norm>
0

>  <SCORE.SYSTEM>
0

>  <SCORE.SYSTEM.CONST>
0

>  <SCORE.SYSTEM.DIHEDRAL>
0

>  <SCORE.SYSTEM.SOLV>
0

>  <SCORE.SYSTEM.norm>
0

>  <SCORE.heavy>
10

>  <SCORE.norm>
-2.6683

>  <RMSD>
0.615

$$$$
1y26_lig
 OpenBabel02141814133D
libRbt.so/2013.1/901 2013/11/27
 10 11  0  0  0  0  0  0  0  0999 V2000
   19.4702  -17.0767    2.9267 N   0  0  0  0  0  0  0  0  0  0  0  0
   18.7875  -18.1871    2.6368 C   0  0  0  0  0  0  0  0  0  0  0  0
   18.4857  -19.2053    3.4399 N   0  0  0  0  0  0  0  0  0  0  0  0
   18.9495  -18.9857    4.6909 C   0  0  0  0  0  0  0  0  0  0  0  0
   19.6555  -17.8858    5.1360 C   0  0  0  0  0  0  0  0  0  0  0  0
   19.9205  -16.8954    4.1855 C   0  0  0  0  0  0  0  0  0  0  0  0
   20.6037  -15.8057    4.4970 N   0  0  0  0  0  0  0  0  0  0  0  0
   19.9877  -17.9810    6.4674 N   0  0  0  0  0  0  0  0  0  0  0  0
   19.4469  -19.1323    6.8218 C   0  0  0  0  0  0  0  0  0  0  0  0
   18.8164  -19.7927    5.7893 N   0  0  0  0  0  0  0  0  0  0  0  0
  1  2  2  0  0  0  0
  2  3  1  0  0  0  0
  3  4  2  0  0  0  0
  5  4  1  0  0  0  0
  5  6  2  0  0  0  0
  6  1  1  0  0  0  0
  6  7  1  0  0  0  0
  8  5  1  0  0  0  0
  9  8  1  0  0  0  0
 10  4  1  0  0  0  0
 10  9  2  0  0  0  0
M  END
>  <CHROM.1>
19.41242170,-18.09415068,4.65756262,1.39355556,-1.02592535,-1.09078248

>  <Name>
1y26_lig

>  <RI>
224

>  <Rbt.Current_Directory>
/home/afrankz/demos/rdock_decoys_rna/rnas/1y26

>  <Rbt.Executable>
rbdock ($Id: //depot/dev/client3/rdock/2013.1/src/exe/rbdock.cxx#4 $)

>  <Rbt.Library>
libRbt.so (2013.1, Build901 2013/11/27)

>  <Rbt.Parameter_File>
/export/apps/rDock/src/rDock_2013.1_src/data/scripts/dock_solv.prm

>  <Rbt.Receptor>
prm/pocket_docking_3.prm

>  <SCORE>
-26.6617

>  <SCORE.INTER>
-26.6617

>  <SCORE.INTER.CONST>
1

>  <SCORE.INTER.POLAR>
-2.0198

>  <SCORE.INTER.ROT>
0

>  <SCORE.INTER.SOLV>
12.7241

>  <SCORE.INTER.VDW>
-18.8832

>  <SCORE.INTER.norm>
-2.66617

>  <SCORE.INTRA>
0

>  <SCORE.INTRA.DIHEDRAL>
0

>  <SCORE.INTRA.DIHEDRAL.0>
0

>  <SCORE.INTRA.POLAR>
0

>  <SCORE.INTRA.POLAR.0>
0

>  <SCORE.INTRA.REPUL>
0

>  <SCORE.INTRA.REPUL.0>
0

>  <SCORE.INTRA.SOLV>
0

>  <SCORE.INTRA.SOLV.lig_0>
-16.9472

>  <SCORE.INTRA.VDW>
0

>  <SCORE.INTRA.VDW.0>
0

>  <SCORE.INTRA.norm>
0

>  <SCORE.RESTR>
0

>  <SCORE.RESTR.CAVITY>
0

>  <SCORE.RESTR.norm>
0

>  <SCORE.SYSTEM>
0

>  <SCORE.SYSTEM.CONST>
0

>  <SCORE.SYSTEM.DIHEDRAL>
0

>  <SCORE.SYSTEM.SOLV>
0

>  <SCORE.SYSTEM.norm>
0

>  <SCORE.heavy>
10

>  <SCORE.norm>
-2.66617

>  <RMSD>
0.615

$$$$
1y26_lig
 OpenBabel02141814133D
libRbt.so/2013.1/901 2013/11/27
 10 11  0  0  0  0  0  0  0  0999 V2000
   19.4339  -17.0723    2.9210 N   0  0  0  0  0  0  0  0  0  0  0  0
   18.7739  -18.1991    2.6420 C   0  0  0  0  0  0  0  0  0  0  0  0
   18.4920  -19.2149    3.4554 N   0  0  0  0  0  0  0  0  0  0  0  0
   18.9504  -18.9734    4.7043 C   0  0  0  0  0  0  0  0  0  0  0  0
   19.6339  -17.8550    5.1384 C   0  0  0  0  0  0  0  0  0  0  0  0
   19.8796  -16.8692    4.1781 C   0  0  0  0  0  0  0  0  0  0  0  0
   20.5406  -15.7629    4.4788 N   0  0  0  0  0  0  0  0  0  0  0  0
   19.9670  -17.9300    6.4710 N   0  0  0  0  0  0  0  0  0  0  0  0
   19.4492  -19.0883    6.8367 C   0  0  0  0  0  0  0  0  0  0  0  0
   18.8328  -19.7716    5.8108 N   0  0  0  0  0  0  0  0  0  0  0  0
  1  2  2  0  0  0  0
  2  3  1  0  0  0  0
  3  4  2  0  0  0  0
  5  4  1  0  0  0  0
  5  6  2  0  0  0  0
  6  1  1  0  0  0  0
  6  7  1  0  0  0  0
  8  5  1  0  0  0  0
  9  8  1  0  0  0  0
 10  4  1  0  0  0  0
 10  9  2  0  0  0  0
M  END
>  <CHROM.1>
19.39536723,-18.07305328,4.66205671,1.41076832,-1.04399585,-1.08615976

>  <Name>
1y26_lig

>  <RI>
224

>  <Rbt.Current_Directory>
/home/afrankz/demos/rdock_decoys_rna/rnas/1y26

>  <Rbt.Executable>
rbdock ($Id: //depot/dev/client3/rdock/2013.1/src/exe/rbdock.cxx#4 $)

>  <Rbt.Library>
libRbt.so (2013.1, Build901 2013/11/27)

>  <Rbt.Parameter_File>
/export/apps/rDock/src/rDock_2013.1_src/data/scripts/dock_solv.prm

>  <Rbt.Receptor>
prm/pocket_docking_3.prm

>  <SCORE>
-26.6761

>  <SCORE.INTER>
-26.6761

>  <SCORE.INTER.CONST>
1

>  <SCORE.INTER.POLAR>
-2.0198

>  <SCORE.INTER.ROT>
0

>  <SCORE.INTER.SOLV>
12.8215

>  <SCORE.INTER.VDW>
-18.9252

>  <SCORE.INTER.norm>
-2.66761

>  <SCORE.INTRA>
0

>  <SCORE.INTRA.DIHEDRAL>
0

>  <SCORE.INTRA.DIHEDRAL.0>
0

>  <SCORE.INTRA.POLAR>
0

>  <SCORE.INTRA.POLAR.0>
0

>  <SCORE.INTRA.REPUL>
0

>  <SCORE.INTRA.REPUL.0>
0

>  <SCORE.INTRA.SOLV>
0

>  <SCORE.INTRA.SOLV.lig_0>
-16.9472

>  <SCORE.INTRA.VDW>
0

>  <SCORE.INTRA.VDW.0>
0

>  <SCORE.INTRA.norm>
0

>  <SCORE.RESTR>
0

>  <SCORE.RESTR.CAVITY>
0

>  <SCORE.RESTR.norm>
0

>  <SCORE.SYSTEM>
0

>  <SCORE.SYSTEM.CONST>
0

>  <SCORE.SYSTEM.DIHEDRAL>
0

>  <SCORE.SYSTEM.SOLV>
0

>  <SCORE.SYSTEM.norm>
0

>  <SCORE.heavy>
10

>  <SCORE.norm>
-2.66761

>  <RMSD>
0.615

$$$$
1y26_lig
 OpenBabel02141814133D
libRbt.so/2013.1/901 2013/11/27
 10 11  0  0  0  0  0  0  0  0999 V2000
   19.4550  -17.0732    2.9216 N   0  0  0  0  0  0  0  0  0  0  0  0
   18.7878  -18.1955    2.6417 C   0  0  0  0  0  0  0  0  0  0  0  0
   18.4978  -19.2094    3.4546 N   0  0  0  0  0  0  0  0  0  0  0  0
   18.9560  -18.9709    4.7042 C   0  0  0  0  0  0  0  0  0  0  0  0
   19.6464  -17.8572    5.1393 C   0  0  0  0  0  0  0  0  0  0  0  0
   19.9002  -16.8730    4.1793 C   0  0  0  0  0  0  0  0  0  0  0  0
   20.5682  -15.7712    4.4809 N   0  0  0  0  0  0  0  0  0  0  0  0
   19.9771  -17.9343    6.4724 N   0  0  0  0  0  0  0  0  0  0  0  0
   19.4509  -19.0890    6.8374 C   0  0  0  0  0  0  0  0  0  0  0  0
   18.8313  -19.7683    5.8106 N   0  0  0  0  0  0  0  0  0  0  0  0
  1  2  2  0  0  0  0
  2  3  1  0  0  0  0
  3  4  2  0  0  0  0
  5  4  1  0  0  0  0
  5  6  2  0  0  0  0
  6  1  1  0  0  0  0
  6  7  1  0  0  0  0
  8  5  1  0  0  0  0
  9  8  1  0  0  0  0
 10  4  1  0  0  0  0
 10  9  2  0  0  0  0
M  END
>  <CHROM.1>
19.40713895,-18.07357970,4.66260248,1.40198305,-1.03865311,-1.09378055

>  <Name>
1y26_lig

>  <RI>
0

>  <Rbt.Current_Directory>
/home/afrankz/demos/rdock_decoys_rna/rnas/1y26

>  <Rbt.Executable>
rbdock ($Id: //depot/dev/client3/rdock/2013.1/src/exe/rbdock.cxx#4 $)

>  <Rbt.Library>
libRbt.so (2013.1, Build901 2013/11/27)

>  <Rbt.Parameter_File>
/export/apps/rDock/src/rDock_2013.1_src/data/scripts/dock_solv.prm

>  <Rbt.Receptor>
prm/pocket_docking_5.prm

>  <SCORE>
-26.6649

>  <SCORE.INTER>
-26.6649

>  <SCORE.INTER.CONST>
1

>  <SCORE.INTER.POLAR>
-2.0198

>  <SCORE.INTER.ROT>
0

>  <SCORE.INTER.SOLV>
12.7652

>  <SCORE.INTER.VDW>
-18.899

>  <SCORE.INTER.norm>
-2.66649

>  <SCORE.INTRA>
0

>  <SCORE.INTRA.DIHEDRAL>
0

>  <SCORE.INTRA.DIHEDRAL.0>
0

>  <SCORE.INTRA.POLAR>
0

>  <SCORE.INTRA.POLAR.0>
0

>  <SCORE.INTRA.REPUL>
0

>  <SCORE.INTRA.REPUL.0>
0

>  <SCORE.INTRA.SOLV>
0

>  <SCORE.INTRA.SOLV.lig_0>
-16.9472

>  <SCORE.INTRA.VDW>
0

>  <SCORE.INTRA.VDW.0>
0

>  <SCORE.INTRA.norm>
0

>  <SCORE.RESTR>
0

>  <SCORE.RESTR.CAVITY>
0

>  <SCORE.RESTR.norm>
0

>  <SCORE.SYSTEM>
0

>  <SCORE.SYSTEM.CONST>
0

>  <SCORE.SYSTEM.DIHEDRAL>
0

>  <SCORE.SYSTEM.SOLV>
0

>  <SCORE.SYSTEM.norm>
0

>  <SCORE.heavy>
10

>  <SCORE.norm>
-2.66649

>  <RMSD>
0.615

$$$$
1y26_lig
 OpenBabel02141814133D
libRbt.so/2013.1/901 2013/11/27
 10 11  0  0  0  0  0  0  0  0999 V2000
   19.4674  -17.0770    2.9276 N   0  0  0  0  0  0  0  0  0  0  0  0
   18.7862  -18.1885    2.6382 C   0  0  0  0  0  0  0  0  0  0  0  0
   18.4859  -19.2068    3.4418 N   0  0  0  0  0  0  0  0  0  0  0  0
   18.9497  -18.9861    4.6926 C   0  0  0  0  0  0  0  0  0  0  0  0
   19.6542  -17.8851    5.1371 C   0  0  0  0  0  0  0  0  0  0  0  0
   19.9177  -16.8946    4.1862 C   0  0  0  0  0  0  0  0  0  0  0  0
   20.5995  -15.8039    4.4971 N   0  0  0  0  0  0  0  0  0  0  0  0
   19.9869  -17.9793    6.4685 N   0  0  0  0  0  0  0  0  0  0  0  0
   19.4477  -19.1312    6.8234 C   0  0  0  0  0  0  0  0  0  0  0  0
   18.8179  -19.7928    5.7913 N   0  0  0  0  0  0  0  0  0  0  0  0
  1  2  2  0  0  0  0
  2  3  1  0  0  0  0
  3  4  2  0  0  0  0
  5  4  1  0  0  0  0
  5  6  2  0  0  0  0
  6  1  1  0  0  0  0
  6  7  1  0  0  0  0
  8  5  1  0  0  0  0
  9  8  1  0  0  0  0
 10  4  1  0  0  0  0
 10  9  2  0  0  0  0
M  END
>  <CHROM.1>
19.41136590,-18.09389854,4.65881520,1.39512864,-1.02703844,-1.08980368

>  <Name>
1y26_lig

>  <RI>
0

>  <Rbt.Current_Directory>
/home/afrankz/demos/rdock_decoys_rna/rnas/1y26

>  <Rbt.Executable>
rbdock ($Id: //depot/dev/client3/rdock/2013.1/src/exe/rbdock.cxx#4 $)

>  <Rbt.Library>
libRbt.so (2013.1, Build901 2013/11/27)

>  <Rbt.Parameter_File>
/export/apps/rDock/src/rDock_2013.1_src/data/scripts/dock_solv.prm

>  <Rbt.Receptor>
prm/blind_docking_100.prm

>  <SCORE>
-26.6605

>  <SCORE.INTER>
-26.6605

>  <SCORE.INTER.CONST>
1

>  <SCORE.INTER.POLAR>
-2.0198

>  <SCORE.INTER.ROT>
0

>  <SCORE.INTER.SOLV>
12.7315

>  <SCORE.INTER.VDW>
-18.8848

>  <SCORE.INTER.norm>
-2.66605

>  <SCORE.INTRA>
0

>  <SCORE.INTRA.DIHEDRAL>
0

>  <SCORE.INTRA.DIHEDRAL.0>
0

>  <SCORE.INTRA.POLAR>
0

>  <SCORE.INTRA.POLAR.0>
0

>  <SCORE.INTRA.REPUL>
0

>  <SCORE.INTRA.REPUL.0>
0

>  <SCORE.INTRA.SOLV>
0

>  <SCORE.INTRA.SOLV.lig_0>
-16.9472

>  <SCORE.INTRA.VDW>
0

>  <SCORE.INTRA.VDW.0>
0

>  <SCORE.INTRA.norm>
0

>  <SCORE.RESTR>
0

>  <SCORE.RESTR.CAVITY>
0

>  <SCORE.RESTR.norm>
0

>  <SCORE.SYSTEM>
0

>  <SCORE.SYSTEM.CONST>
0

>  <SCORE.SYSTEM.DIHEDRAL>
0

>  <SCORE.SYSTEM.SOLV>
0

>  <SCORE.SYSTEM.norm>
0

>  <SCORE.heavy>
10

>  <SCORE.norm>
-2.66605

>  <RMSD>
0.616

$$$$
1y26_lig
 OpenBabel02141814133D
libRbt.so/2013.1/901 2013/11/27
 10 11  0  0  0  0  0  0  0  0999 V2000
   19.4724  -17.0770    2.9297 N   0  0  0  0  0  0  0  0  0  0  0  0
   18.7832  -18.1837    2.6408 C   0  0  0  0  0  0  0  0  0  0  0  0
   18.4772  -19.2003    3.4446 N   0  0  0  0  0  0  0  0  0  0  0  0
   18.9441  -18.9831    4.6948 C   0  0  0  0  0  0  0  0  0  0  0  0
   19.6568  -17.8870    5.1386 C   0  0  0  0  0  0  0  0  0  0  0  0
   19.9256  -16.8981    4.1877 C   0  0  0  0  0  0  0  0  0  0  0  0
   20.6152  -15.8121    4.4980 N   0  0  0  0  0  0  0  0  0  0  0  0
   19.9906  -17.9840    6.4696 N   0  0  0  0  0  0  0  0  0  0  0  0
   19.4441  -19.1323    6.8248 C   0  0  0  0  0  0  0  0  0  0  0  0
   18.8084  -19.7893    5.7935 N   0  0  0  0  0  0  0  0  0  0  0  0
  1  2  2  0  0  0  0
  2  3  1  0  0  0  0
  3  4  2  0  0  0  0
  5  4  1  0  0  0  0
  5  6  2  0  0  0  0
  6  1  1  0  0  0  0
  6  7  1  0  0  0  0
  8  5  1  0  0  0  0
  9  8  1  0  0  0  0
 10  4  1  0  0  0  0
 10  9  2  0  0  0  0
M  END
>  <CHROM.1>
19.41180902,-18.09405657,4.66063039,1.39146754,-1.02039817,-1.09262414

>  <Name>
1y26_lig

>  <RI>
0

>  <Rbt.Current_Directory>
/home/afrankz/demos/rdock_decoys_rna/rnas/1y26

>  <Rbt.Executable>
rbdock ($Id: //depot/dev/client3/rdock/2013.1/src/exe/rbdock.cxx#4 $)

>  <Rbt.Library>
libRbt.so (2013.1, Build901 2013/11/27)

>  <Rbt.Parameter_File>
/export/apps/rDock/src/rDock_2013.1_src/data/scripts/dock_solv.prm

>  <Rbt.Receptor>
prm/blind_docking_60.prm

>  <SCORE>
-26.6608

>  <SCORE.INTER>
-26.6608

>  <SCORE.INTER.CONST>
1

>  <SCORE.INTER.POLAR>
-2.0198

>  <SCORE.INTER.ROT>
0

>  <SCORE.INTER.SOLV>
12.7063

>  <SCORE.INTER.VDW>
-18.8766

>  <SCORE.INTER.norm>
-2.66608

>  <SCORE.INTRA>
0

>  <SCORE.INTRA.DIHEDRAL>
0

>  <SCORE.INTRA.DIHEDRAL.0>
0

>  <SCORE.INTRA.POLAR>
0

>  <SCORE.INTRA.POLAR.0>
0

>  <SCORE.INTRA.REPUL>
0

>  <SCORE.INTRA.REPUL.0>
0

>  <SCORE.INTRA.SOLV>
0

>  <SCORE.INTRA.SOLV.lig_0>
-16.9472

>  <SCORE.INTRA.VDW>
0

>  <SCORE.INTRA.VDW.0>
0

>  <SCORE.INTRA.norm>
0

>  <SCORE.RESTR>
0

>  <SCORE.RESTR.CAVITY>
0

>  <SCORE.RESTR.norm>
0

>  <SCORE.SYSTEM>
0

>  <SCORE.SYSTEM.CONST>
0

>  <SCORE.SYSTEM.DIHEDRAL>
0

>  <SCORE.SYSTEM.SOLV>
0

>  <SCORE.SYSTEM.norm>
0

>  <SCORE.heavy>
10

>  <SCORE.norm>
-2.66608

>  <RMSD>
0.616

$$$$
1y26_lig
 OpenBabel02141814133D
libRbt.so/2013.1/901 2013/11/27
 10 11  0  0  0  0  0  0  0  0999 V2000
   19.4658  -17.0750    2.9284 N   0  0  0  0  0  0  0  0  0  0  0  0
   18.7863  -18.1851    2.6300 C   0  0  0  0  0  0  0  0  0  0  0  0
   18.4903  -19.2118    3.4246 N   0  0  0  0  0  0  0  0  0  0  0  0
   18.9568  -19.0022    4.6762 C   0  0  0  0  0  0  0  0  0  0  0  0
   19.6601  -17.9038    5.1295 C   0  0  0  0  0  0  0  0  0  0  0  0
   19.9189  -16.9037    4.1876 C   0  0  0  0  0  0  0  0  0  0  0  0
   20.5990  -15.8145    4.5072 N   0  0  0  0  0  0  0  0  0  0  0  0
   19.9963  -18.0102    6.4591 N   0  0  0  0  0  0  0  0  0  0  0  0
   19.4606  -19.1666    6.8043 C   0  0  0  0  0  0  0  0  0  0  0  0
   18.8296  -19.8197    5.7675 N   0  0  0  0  0  0  0  0  0  0  0  0
  1  2  2  0  0  0  0
  2  3  1  0  0  0  0
  3  4  2  0  0  0  0
  5  4  1  0  0  0  0
  5  6  2  0  0  0  0
  6  1  1  0  0  0  0
  6  7  1  0  0  0  0
  8  5  1  0  0  0  0
  9  8  1  0  0  0  0
 10  4  1  0  0  0  0
 10  9  2  0  0  0  0
M  END
>  <CHROM.1>
19.41641986,-18.10862012,4.64987066,1.40151849,-1.02781277,-1.07470950

>  <Name>
1y26_lig

>  <RI>
0

>  <Rbt.Current_Directory>
/home/afrankz/demos/rdock_decoys_rna/rnas/1y26

>  <Rbt.Executable>
rbdock ($Id: //depot/dev/client3/rdock/2013.1/src/exe/rbdock.cxx#4 $)

>  <Rbt.Library>
libRbt.so (2013.1, Build901 2013/11/27)

>  <Rbt.Parameter_File>
/export/apps/rDock/src/rDock_2013.1_src/data/scripts/dock_solv.prm

>  <Rbt.Receptor>
prm/blind_docking_60.prm

>  <SCORE>
-26.6799

>  <SCORE.INTER>
-26.6799

>  <SCORE.INTER.CONST>
1

>  <SCORE.INTER.POLAR>
-2.0198

>  <SCORE.INTER.ROT>
0

>  <SCORE.INTER.SOLV>
12.7516

>  <SCORE.INTER.VDW>
-18.9044

>  <SCORE.INTER.norm>
-2.66799

>  <SCORE.INTRA>
0

>  <SCORE.INTRA.DIHEDRAL>
0

>  <SCORE.INTRA.DIHEDRAL.0>
0

>  <SCORE.INTRA.POLAR>
0

>  <SCORE.INTRA.POLAR.0>
0

>  <SCORE.INTRA.REPUL>
0

>  <SCORE.INTRA.REPUL.0>
0

>  <SCORE.INTRA.SOLV>
0

>  <SCORE.INTRA.SOLV.lig_0>
-16.9472

>  <SCORE.INTRA.VDW>
0

>  <SCORE.INTRA.VDW.0>
0

>  <SCORE.INTRA.norm>
0

>  <SCORE.RESTR>
0

>  <SCORE.RESTR.CAVITY>
0

>  <SCORE.RESTR.norm>
0

>  <SCORE.SYSTEM>
0

>  <SCORE.SYSTEM.CONST>
0

>  <SCORE.SYSTEM.DIHEDRAL>
0

>  <SCORE.SYSTEM.SOLV>
0

>  <SCORE.SYSTEM.norm>
0

>  <SCORE.heavy>
10

>  <SCORE.norm>
-2.66799

>  <RMSD>
0.616

$$$$
1y26_lig
 OpenBabel02141814133D
libRbt.so/2013.1/901 2013/11/27
 10 11  0  0  0  0  0  0  0  0999 V2000
   19.4789  -17.0758    2.9291 N   0  0  0  0  0  0  0  0  0  0  0  0
   18.7912  -18.1828    2.6378 C   0  0  0  0  0  0  0  0  0  0  0  0
   18.4820  -19.1990    3.4406 N   0  0  0  0  0  0  0  0  0  0  0  0
   18.9437  -18.9814    4.6927 C   0  0  0  0  0  0  0  0  0  0  0  0
   19.6543  -17.8850    5.1391 C   0  0  0  0  0  0  0  0  0  0  0  0
   19.9269  -16.8963    4.1889 C   0  0  0  0  0  0  0  0  0  0  0  0
   20.6150  -15.8101    4.5017 N   0  0  0  0  0  0  0  0  0  0  0  0
   19.9826  -17.9814    6.4715 N   0  0  0  0  0  0  0  0  0  0  0  0
   19.4348  -19.1297    6.8248 C   0  0  0  0  0  0  0  0  0  0  0  0
   18.8035  -19.7872    5.7911 N   0  0  0  0  0  0  0  0  0  0  0  0
  1  2  2  0  0  0  0
  2  3  1  0  0  0  0
  3  4  2  0  0  0  0
  5  4  1  0  0  0  0
  5  6  2  0  0  0  0
  6  1  1  0  0  0  0
  6  7  1  0  0  0  0
  8  5  1  0  0  0  0
  9  8  1  0  0  0  0
 10  4  1  0  0  0  0
 10  9  2  0  0  0  0
M  END
>  <CHROM.1>
19.41135694,-18.09224289,4.66015173,1.38454531,-1.02243288,-1.09888462

>  <Name>
1y26_lig

>  <RI>
0

>  <Rbt.Current_Directory>
/home/afrankz/demos/rdock_decoys_rna/rnas/1y26

>  <Rbt.Executable>
rbdock ($Id: //depot/dev/client3/rdock/2013.1/src/exe/rbdock.cxx#4 $)

>  <Rbt.Library>
libRbt.so (2013.1, Build901 2013/11/27)

>  <Rbt.Parameter_File>
/export/apps/rDock/src/rDock_2013.1_src/data/scripts/dock_solv.prm

>  <Rbt.Receptor>
prm/pocket_docking_4.prm

>  <SCORE>
-26.6607

>  <SCORE.INTER>
-26.6607

>  <SCORE.INTER.CONST>
1

>  <SCORE.INTER.POLAR>
-2.0198

>  <SCORE.INTER.ROT>
0

>  <SCORE.INTER.SOLV>
12.7011

>  <SCORE.INTER.VDW>
-18.8748

>  <SCORE.INTER.norm>
-2.66607

>  <SCORE.INTRA>
0

>  <SCORE.INTRA.DIHEDRAL>
0

>  <SCORE.INTRA.DIHEDRAL.0>
0

>  <SCORE.INTRA.POLAR>
0

>  <SCORE.INTRA.POLAR.0>
0

>  <SCORE.INTRA.REPUL>
0

>  <SCORE.INTRA.REPUL.0>
0

>  <SCORE.INTRA.SOLV>
0

>  <SCORE.INTRA.SOLV.lig_0>
-16.9472

>  <SCORE.INTRA.VDW>
0

>  <SCORE.INTRA.VDW.0>
0

>  <SCORE.INTRA.norm>
0

>  <SCORE.RESTR>
0

>  <SCORE.RESTR.CAVITY>
0

>  <SCORE.RESTR.norm>
0

>  <SCORE.SYSTEM>
0

>  <SCORE.SYSTEM.CONST>
0

>  <SCORE.SYSTEM.DIHEDRAL>
0

>  <SCORE.SYSTEM.SOLV>
0

>  <SCORE.SYSTEM.norm>
0

>  <SCORE.heavy>
10

>  <SCORE.norm>
-2.66607

>  <RMSD>
0.616

$$$$
1y26_lig
 OpenBabel02141814133D
libRbt.so/2013.1/901 2013/11/27
 10 11  0  0  0  0  0  0  0  0999 V2000
   19.4218  -17.0745    2.9282 N   0  0  0  0  0  0  0  0  0  0  0  0
   18.7517  -18.1935    2.6421 C   0  0  0  0  0  0  0  0  0  0  0  0
   18.4658  -19.2147    3.4474 N   0  0  0  0  0  0  0  0  0  0  0  0
   18.9321  -18.9883    4.6962 C   0  0  0  0  0  0  0  0  0  0  0  0
   19.6263  -17.8793    5.1373 C   0  0  0  0  0  0  0  0  0  0  0  0
   19.8751  -16.8865    4.1850 C   0  0  0  0  0  0  0  0  0  0  0  0
   20.5461  -15.7882    4.4926 N   0  0  0  0  0  0  0  0  0  0  0  0
   19.9653  -17.9693    6.4675 N   0  0  0  0  0  0  0  0  0  0  0  0
   19.4402  -19.1268    6.8250 C   0  0  0  0  0  0  0  0  0  0  0  0
   18.8136  -19.7958    5.7958 N   0  0  0  0  0  0  0  0  0  0  0  0
  1  2  2  0  0  0  0
  2  3  1  0  0  0  0
  3  4  2  0  0  0  0
  5  4  1  0  0  0  0
  5  6  2  0  0  0  0
  6  1  1  0  0  0  0
  6  7  1  0  0  0  0
  8  5  1  0  0  0  0
  9  8  1  0  0  0  0
 10  4  1  0  0  0  0
 10  9  2  0  0  0  0
M  END
>  <CHROM.1>
19.38383631,-18.09108099,4.66012817,1.41201057,-1.03485974,-1.07581952

>  <Name>
1y26_lig

>  <RI>
0

>  <Rbt.Current_Directory>
/home/afrankz/demos/rdock_decoys_rna/rnas/1y26

>  <Rbt.Executable>
rbdock ($Id: //depot/dev/client3/rdock/2013.1/src/exe/rbdock.cxx#4 $)

>  <Rbt.Library>
libRbt.so (2013.1, Build901 2013/11/27)

>  <Rbt.Parameter_File>
/export/apps/rDock/src/rDock_2013.1_src/data/scripts/dock_solv.prm

>  <Rbt.Receptor>
prm/pocket_docking_5.prm

>  <SCORE>
-26.6546

>  <SCORE.INTER>
-26.6546

>  <SCORE.INTER.CONST>
1

>  <SCORE.INTER.POLAR>
-2.0198

>  <SCORE.INTER.ROT>
0

>  <SCORE.INTER.SOLV>
12.8303

>  <SCORE.INTER.VDW>
-18.9138

>  <SCORE.INTER.norm>
-2.66546

>  <SCORE.INTRA>
0

>  <SCORE.INTRA.DIHEDRAL>
0

>  <SCORE.INTRA.DIHEDRAL.0>
0

>  <SCORE.INTRA.POLAR>
0

>  <SCORE.INTRA.POLAR.0>
0

>  <SCORE.INTRA.REPUL>
0

>  <SCORE.INTRA.REPUL.0>
0

>  <SCORE.INTRA.SOLV>
0

>  <SCORE.INTRA.SOLV.lig_0>
-16.9472

>  <SCORE.INTRA.VDW>
0

>  <SCORE.INTRA.VDW.0>
0

>  <SCORE.INTRA.norm>
0

>  <SCORE.RESTR>
0

>  <SCORE.RESTR.CAVITY>
0

>  <SCORE.RESTR.norm>
0

>  <SCORE.SYSTEM>
0

>  <SCORE.SYSTEM.CONST>
0

>  <SCORE.SYSTEM.DIHEDRAL>
0

>  <SCORE.SYSTEM.SOLV>
0

>  <SCORE.SYSTEM.norm>
0

>  <SCORE.heavy>
10

>  <SCORE.norm>
-2.66546

>  <RMSD>
0.616

$$$$
1y26_lig
 OpenBabel02141814133D
libRbt.so/2013.1/901 2013/11/27
 10 11  0  0  0  0  0  0  0  0999 V2000
   19.4730  -17.0773    2.9286 N   0  0  0  0  0  0  0  0  0  0  0  0
   18.7905  -18.1876    2.6380 C   0  0  0  0  0  0  0  0  0  0  0  0
   18.4876  -19.2057    3.4410 N   0  0  0  0  0  0  0  0  0  0  0  0
   18.9501  -18.9860    4.6925 C   0  0  0  0  0  0  0  0  0  0  0  0
   19.6557  -17.8861    5.1381 C   0  0  0  0  0  0  0  0  0  0  0  0
   19.9219  -16.8958    4.1878 C   0  0  0  0  0  0  0  0  0  0  0  0
   20.6049  -15.8062    4.4999 N   0  0  0  0  0  0  0  0  0  0  0  0
   19.9865  -17.9812    6.4700 N   0  0  0  0  0  0  0  0  0  0  0  0
   19.4451  -19.1323    6.8239 C   0  0  0  0  0  0  0  0  0  0  0  0
   18.8156  -19.7928    5.7909 N   0  0  0  0  0  0  0  0  0  0  0  0
  1  2  2  0  0  0  0
  2  3  1  0  0  0  0
  3  4  2  0  0  0  0
  5  4  1  0  0  0  0
  5  6  2  0  0  0  0
  6  1  1  0  0  0  0
  6  7  1  0  0  0  0
  8  5  1  0  0  0  0
  9  8  1  0  0  0  0
 10  4  1  0  0  0  0
 10  9  2  0  0  0  0
M  END
>  <CHROM.1>
19.41313727,-18.09447428,4.65948654,1.39156163,-1.02630847,-1.09262997

>  <Name>
1y26_lig

>  <RI>
0

>  <Rbt.Current_Directory>
/home/afrankz/demos/rdock_decoys_rna/rnas/1y26

>  <Rbt.Executable>
rbdock ($Id: //depot/dev/client3/rdock/2013.1/src/exe/rbdock.cxx#4 $)

>  <Rbt.Library>
libRbt.so (2013.1, Build901 2013/11/27)

>  <Rbt.Parameter_File>
/export/apps/rDock/src/rDock_2013.1_src/data/scripts/dock_solv.prm

>  <Rbt.Receptor>
prm/blind_docking_100.prm

>  <SCORE>
-26.6618

>  <SCORE.INTER>
-26.6618

>  <SCORE.INTER.CONST>
1

>  <SCORE.INTER.POLAR>
-2.0198

>  <SCORE.INTER.ROT>
0

>  <SCORE.INTER.SOLV>
12.7208

>  <SCORE.INTER.VDW>
-18.8821

>  <SCORE.INTER.norm>
-2.66618

>  <SCORE.INTRA>
0

>  <SCORE.INTRA.DIHEDRAL>
0

>  <SCORE.INTRA.DIHEDRAL.0>
0

>  <SCORE.INTRA.POLAR>
0

>  <SCORE.INTRA.POLAR.0>
0

>  <SCORE.INTRA.REPUL>
0

>  <SCORE.INTRA.REPUL.0>
0

>  <SCORE.INTRA.SOLV>
0

>  <SCORE.INTRA.SOLV.lig_0>
-16.9472

>  <SCORE.INTRA.VDW>
0

>  <SCORE.INTRA.VDW.0>
0

>  <SCORE.INTRA.norm>
0

>  <SCORE.RESTR>
0

>  <SCORE.RESTR.CAVITY>
0

>  <SCORE.RESTR.norm>
0

>  <SCORE.SYSTEM>
0

>  <SCORE.SYSTEM.CONST>
0

>  <SCORE.SYSTEM.DIHEDRAL>
0

>  <SCORE.SYSTEM.SOLV>
0

>  <SCORE.SYSTEM.norm>
0

>  <SCORE.heavy>
10

>  <SCORE.norm>
-2.66618

>  <RMSD>
0.617

$$$$
1y26_lig
 OpenBabel02141814133D
libRbt.so/2013.1/901 2013/11/27
 10 11  0  0  0  0  0  0  0  0999 V2000
   19.4521  -17.0789    2.9268 N   0  0  0  0  0  0  0  0  0  0  0  0
   18.7741  -18.1934    2.6412 C   0  0  0  0  0  0  0  0  0  0  0  0
   18.4827  -19.2129    3.4465 N   0  0  0  0  0  0  0  0  0  0  0  0
   18.9523  -18.9901    4.6947 C   0  0  0  0  0  0  0  0  0  0  0  0
   19.6545  -17.8860    5.1353 C   0  0  0  0  0  0  0  0  0  0  0  0
   19.9084  -16.8945    4.1830 C   0  0  0  0  0  0  0  0  0  0  0  0
   20.5871  -15.8007    4.4901 N   0  0  0  0  0  0  0  0  0  0  0  0
   19.9947  -17.9787    6.4649 N   0  0  0  0  0  0  0  0  0  0  0  0
   19.4625  -19.1329    6.8228 C   0  0  0  0  0  0  0  0  0  0  0  0
   18.8300  -19.7973    5.7942 N   0  0  0  0  0  0  0  0  0  0  0  0
  1  2  2  0  0  0  0
  2  3  1  0  0  0  0
  3  4  2  0  0  0  0
  5  4  1  0  0  0  0
  5  6  2  0  0  0  0
  6  1  1  0  0  0  0
  6  7  1  0  0  0  0
  8  5  1  0  0  0  0
  9  8  1  0  0  0  0
 10  4  1  0  0  0  0
 10  9  2  0  0  0  0
M  END
>  <CHROM.1>
19.40988695,-18.09590557,4.65839010,1.40838986,-1.02834304,-1.07852816

>  <Name>
1y26_lig

>  <RI>
224

>  <Rbt.Current_Directory>
/home/afrankz/demos/rdock_decoys_rna/rnas/1y26

>  <Rbt.Executable>
rbdock ($Id: //depot/dev/client3/rdock/2013.1/src/exe/rbdock.cxx#4 $)

>  <Rbt.Library>
libRbt.so (2013.1, Build901 2013/11/27)

>  <Rbt.Parameter_File>
/export/apps/rDock/src/rDock_2013.1_src/data/scripts/dock_solv.prm

>  <Rbt.Receptor>
prm/pocket_docking_6.prm

>  <SCORE>
-26.6546

>  <SCORE.INTER>
-26.6546

>  <SCORE.INTER.CONST>
1

>  <SCORE.INTER.POLAR>
-2.0198

>  <SCORE.INTER.ROT>
0

>  <SCORE.INTER.SOLV>
12.7587

>  <SCORE.INTER.VDW>
-18.89

>  <SCORE.INTER.norm>
-2.66546

>  <SCORE.INTRA>
0

>  <SCORE.INTRA.DIHEDRAL>
0

>  <SCORE.INTRA.DIHEDRAL.0>
0

>  <SCORE.INTRA.POLAR>
0

>  <SCORE.INTRA.POLAR.0>
0

>  <SCORE.INTRA.REPUL>
0

>  <SCORE.INTRA.REPUL.0>
0

>  <SCORE.INTRA.SOLV>
0

>  <SCORE.INTRA.SOLV.lig_0>
-16.9472

>  <SCORE.INTRA.VDW>
0

>  <SCORE.INTRA.VDW.0>
0

>  <SCORE.INTRA.norm>
0

>  <SCORE.RESTR>
0

>  <SCORE.RESTR.CAVITY>
0

>  <SCORE.RESTR.norm>
0

>  <SCORE.SYSTEM>
0

>  <SCORE.SYSTEM.CONST>
0

>  <SCORE.SYSTEM.DIHEDRAL>
0

>  <SCORE.SYSTEM.SOLV>
0

>  <SCORE.SYSTEM.norm>
0

>  <SCORE.heavy>
10

>  <SCORE.norm>
-2.66546

>  <RMSD>
0.617

$$$$
1y26_lig
 OpenBabel02141814133D
libRbt.so/2013.1/901 2013/11/27
 10 11  0  0  0  0  0  0  0  0999 V2000
   19.4747  -17.0782    2.9304 N   0  0  0  0  0  0  0  0  0  0  0  0
   18.7851  -18.1846    2.6414 C   0  0  0  0  0  0  0  0  0  0  0  0
   18.4791  -19.2014    3.4447 N   0  0  0  0  0  0  0  0  0  0  0  0
   18.9467  -18.9850    4.6948 C   0  0  0  0  0  0  0  0  0  0  0  0
   19.6599  -17.8894    5.1388 C   0  0  0  0  0  0  0  0  0  0  0  0
   19.9286  -16.9000    4.1883 C   0  0  0  0  0  0  0  0  0  0  0  0
   20.6186  -15.8144    4.4988 N   0  0  0  0  0  0  0  0  0  0  0  0
   19.9944  -17.9871    6.4696 N   0  0  0  0  0  0  0  0  0  0  0  0
   19.4477  -19.1354    6.8245 C   0  0  0  0  0  0  0  0  0  0  0  0
   18.8113  -19.7917    5.7932 N   0  0  0  0  0  0  0  0  0  0  0  0
  1  2  2  0  0  0  0
  2  3  1  0  0  0  0
  3  4  2  0  0  0  0
  5  4  1  0  0  0  0
  5  6  2  0  0  0  0
  6  1  1  0  0  0  0
  6  7  1  0  0  0  0
  8  5  1  0  0  0  0
  9  8  1  0  0  0  0
 10  4  1  0  0  0  0
 10  9  2  0  0  0  0
M  END
>  <CHROM.1>
19.41467552,-18.09608354,4.66086816,1.39205826,-1.01989600,-1.09162392

>  <Name>
1y26_lig

>  <RI>
0

>  <Rbt.Current_Directory>
/home/afrankz/demos/rdock_decoys_rna/rnas/1y26

>  <Rbt.Executable>
rbdock ($Id: //depot/dev/client3/rdock/2013.1/src/exe/rbdock.cxx#4 $)

>  <Rbt.Library>
libRbt.so (2013.1, Build901 2013/11/27)

>  <Rbt.Parameter_File>
/export/apps/rDock/src/rDock_2013.1_src/data/scripts/dock_solv.prm

>  <Rbt.Receptor>
prm/blind_docking_60.prm

>  <SCORE>
-26.6615

>  <SCORE.INTER>
-26.6615

>  <SCORE.INTER.CONST>
1

>  <SCORE.INTER.POLAR>
-2.0198

>  <SCORE.INTER.ROT>
0

>  <SCORE.INTER.SOLV>
12.701

>  <SCORE.INTER.VDW>
-18.8754

>  <SCORE.INTER.norm>
-2.66615

>  <SCORE.INTRA>
0

>  <SCORE.INTRA.DIHEDRAL>
0

>  <SCORE.INTRA.DIHEDRAL.0>
0

>  <SCORE.INTRA.POLAR>
0

>  <SCORE.INTRA.POLAR.0>
0

>  <SCORE.INTRA.REPUL>
0

>  <SCORE.INTRA.REPUL.0>
0

>  <SCORE.INTRA.SOLV>
0

>  <SCORE.INTRA.SOLV.lig_0>
-16.9472

>  <SCORE.INTRA.VDW>
0

>  <SCORE.INTRA.VDW.0>
0

>  <SCORE.INTRA.norm>
0

>  <SCORE.RESTR>
0

>  <SCORE.RESTR.CAVITY>
0

>  <SCORE.RESTR.norm>
0

>  <SCORE.SYSTEM>
0

>  <SCORE.SYSTEM.CONST>
0

>  <SCORE.SYSTEM.DIHEDRAL>
0

>  <SCORE.SYSTEM.SOLV>
0

>  <SCORE.SYSTEM.norm>
0

>  <SCORE.heavy>
10

>  <SCORE.norm>
-2.66615

>  <RMSD>
0.618

$$$$
1y26_lig
 OpenBabel02141814133D
libRbt.so/2013.1/901 2013/11/27
 10 11  0  0  0  0  0  0  0  0999 V2000
   19.4488  -17.0735    2.9212 N   0  0  0  0  0  0  0  0  0  0  0  0
   18.7934  -18.2030    2.6422 C   0  0  0  0  0  0  0  0  0  0  0  0
   18.5108  -19.2175    3.4570 N   0  0  0  0  0  0  0  0  0  0  0  0
   18.9626  -18.9712    4.7074 C   0  0  0  0  0  0  0  0  0  0  0  0
   19.6406  -17.8496    5.1417 C   0  0  0  0  0  0  0  0  0  0  0  0
   19.8879  -16.8656    4.1798 C   0  0  0  0  0  0  0  0  0  0  0  0
   20.5442  -15.7566    4.4806 N   0  0  0  0  0  0  0  0  0  0  0  0
   19.9677  -17.9200    6.4760 N   0  0  0  0  0  0  0  0  0  0  0  0
   19.4516  -19.0788    6.8425 C   0  0  0  0  0  0  0  0  0  0  0  0
   18.8421  -19.7668    5.8155 N   0  0  0  0  0  0  0  0  0  0  0  0
  1  2  2  0  0  0  0
  2  3  1  0  0  0  0
  3  4  2  0  0  0  0
  5  4  1  0  0  0  0
  5  6  2  0  0  0  0
  6  1  1  0  0  0  0
  6  7  1  0  0  0  0
  8  5  1  0  0  0  0
  9  8  1  0  0  0  0
 10  4  1  0  0  0  0
 10  9  2  0  0  0  0
M  END
>  <CHROM.1>
19.40501937,-18.06965728,4.66479449,1.40520102,-1.04881264,-1.09369185

>  <Name>
1y26_lig

>  <RI>
224

>  <Rbt.Current_Directory>
/home/afrankz/demos/rdock_decoys_rna/rnas/1y26

>  <Rbt.Executable>
rbdock ($Id: //depot/dev/client3/rdock/2013.1/src/exe/rbdock.cxx#4 $)

>  <Rbt.Library>
libRbt.so (2013.1, Build901 2013/11/27)

>  <Rbt.Parameter_File>
/export/apps/rDock/src/rDock_2013.1_src/data/scripts/dock_solv.prm

>  <Rbt.Receptor>
prm/pocket_docking_3.prm

>  <SCORE>
-26.7054

>  <SCORE.INTER>
-26.7054

>  <SCORE.INTER.CONST>
1

>  <SCORE.INTER.POLAR>
-2.0198

>  <SCORE.INTER.ROT>
0

>  <SCORE.INTER.SOLV>
12.8034

>  <SCORE.INTER.VDW>
-18.9387

>  <SCORE.INTER.norm>
-2.67054

>  <SCORE.INTRA>
0

>  <SCORE.INTRA.DIHEDRAL>
0

>  <SCORE.INTRA.DIHEDRAL.0>
0

>  <SCORE.INTRA.POLAR>
0

>  <SCORE.INTRA.POLAR.0>
0

>  <SCORE.INTRA.REPUL>
0

>  <SCORE.INTRA.REPUL.0>
0

>  <SCORE.INTRA.SOLV>
0

>  <SCORE.INTRA.SOLV.lig_0>
-16.9472

>  <SCORE.INTRA.VDW>
0

>  <SCORE.INTRA.VDW.0>
0

>  <SCORE.INTRA.norm>
0

>  <SCORE.RESTR>
0

>  <SCORE.RESTR.CAVITY>
0

>  <SCORE.RESTR.norm>
0

>  <SCORE.SYSTEM>
0

>  <SCORE.SYSTEM.CONST>
0

>  <SCORE.SYSTEM.DIHEDRAL>
0

>  <SCORE.SYSTEM.SOLV>
0

>  <SCORE.SYSTEM.norm>
0

>  <SCORE.heavy>
10

>  <SCORE.norm>
-2.67054

>  <RMSD>
0.618

$$$$
1y26_lig
 OpenBabel02141814133D
libRbt.so/2013.1/901 2013/11/27
 10 11  0  0  0  0  0  0  0  0999 V2000
   19.4701  -17.0795    2.9315 N   0  0  0  0  0  0  0  0  0  0  0  0
   18.7811  -18.1859    2.6414 C   0  0  0  0  0  0  0  0  0  0  0  0
   18.4747  -19.2031    3.4441 N   0  0  0  0  0  0  0  0  0  0  0  0
   18.9411  -18.9871    4.6947 C   0  0  0  0  0  0  0  0  0  0  0  0
   19.6535  -17.8914    5.1398 C   0  0  0  0  0  0  0  0  0  0  0  0
   19.9228  -16.9016    4.1899 C   0  0  0  0  0  0  0  0  0  0  0  0
   20.6123  -15.8159    4.5014 N   0  0  0  0  0  0  0  0  0  0  0  0
   19.9868  -17.9895    6.4708 N   0  0  0  0  0  0  0  0  0  0  0  0
   19.4401  -19.1381    6.8249 C   0  0  0  0  0  0  0  0  0  0  0  0
   18.8049  -19.7942    5.7927 N   0  0  0  0  0  0  0  0  0  0  0  0
  1  2  2  0  0  0  0
  2  3  1  0  0  0  0
  3  4  2  0  0  0  0
  5  4  1  0  0  0  0
  5  6  2  0  0  0  0
  6  1  1  0  0  0  0
  6  7  1  0  0  0  0
  8  5  1  0  0  0  0
  9  8  1  0  0  0  0
 10  4  1  0  0  0  0
 10  9  2  0  0  0  0
M  END
>  <CHROM.1>
19.40879428,-18.09798221,4.66153581,1.39072227,-1.02057432,-1.09240128

>  <Name>
1y26_lig

>  <RI>
0

>  <Rbt.Current_Directory>
/home/afrankz/demos/rdock_decoys_rna/rnas/1y26

>  <Rbt.Executable>
rbdock ($Id: //depot/dev/client3/rdock/2013.1/src/exe/rbdock.cxx#4 $)

>  <Rbt.Library>
libRbt.so (2013.1, Build901 2013/11/27)

>  <Rbt.Parameter_File>
/export/apps/rDock/src/rDock_2013.1_src/data/scripts/dock_solv.prm

>  <Rbt.Receptor>
prm/pocket_docking_4.prm

>  <SCORE>
-26.6566

>  <SCORE.INTER>
-26.6566

>  <SCORE.INTER.CONST>
1

>  <SCORE.INTER.POLAR>
-2.0198

>  <SCORE.INTER.ROT>
0

>  <SCORE.INTER.SOLV>
12.7115

>  <SCORE.INTER.VDW>
-18.8756

>  <SCORE.INTER.norm>
-2.66566

>  <SCORE.INTRA>
0

>  <SCORE.INTRA.DIHEDRAL>
0

>  <SCORE.INTRA.DIHEDRAL.0>
0

>  <SCORE.INTRA.POLAR>
0

>  <SCORE.INTRA.POLAR.0>
0

>  <SCORE.INTRA.REPUL>
0

>  <SCORE.INTRA.REPUL.0>
0

>  <SCORE.INTRA.SOLV>
0

>  <SCORE.INTRA.SOLV.lig_0>
-16.9472

>  <SCORE.INTRA.VDW>
0

>  <SCORE.INTRA.VDW.0>
0

>  <SCORE.INTRA.norm>
0

>  <SCORE.RESTR>
0

>  <SCORE.RESTR.CAVITY>
0

>  <SCORE.RESTR.norm>
0

>  <SCORE.SYSTEM>
0

>  <SCORE.SYSTEM.CONST>
0

>  <SCORE.SYSTEM.DIHEDRAL>
0

>  <SCORE.SYSTEM.SOLV>
0

>  <SCORE.SYSTEM.norm>
0

>  <SCORE.heavy>
10

>  <SCORE.norm>
-2.66566

>  <RMSD>
0.618

$$$$
1y26_lig
 OpenBabel02141814133D
libRbt.so/2013.1/901 2013/11/27
 10 11  0  0  0  0  0  0  0  0999 V2000
   19.4697  -17.0782    2.9293 N   0  0  0  0  0  0  0  0  0  0  0  0
   18.7883  -18.1890    2.6378 C   0  0  0  0  0  0  0  0  0  0  0  0
   18.4854  -19.2075    3.4403 N   0  0  0  0  0  0  0  0  0  0  0  0
   18.9464  -18.9877    4.6923 C   0  0  0  0  0  0  0  0  0  0  0  0
   19.6508  -17.8874    5.1389 C   0  0  0  0  0  0  0  0  0  0  0  0
   19.9172  -16.8967    4.1891 C   0  0  0  0  0  0  0  0  0  0  0  0
   20.5991  -15.8067    4.5020 N   0  0  0  0  0  0  0  0  0  0  0  0
   19.9803  -17.9825    6.4711 N   0  0  0  0  0  0  0  0  0  0  0  0
   19.4394  -19.1342    6.8241 C   0  0  0  0  0  0  0  0  0  0  0  0
   18.8115  -19.7948    5.7903 N   0  0  0  0  0  0  0  0  0  0  0  0
  1  2  2  0  0  0  0
  2  3  1  0  0  0  0
  3  4  2  0  0  0  0
  5  4  1  0  0  0  0
  5  6  2  0  0  0  0
  6  1  1  0  0  0  0
  6  7  1  0  0  0  0
  8  5  1  0  0  0  0
  9  8  1  0  0  0  0
 10  4  1  0  0  0  0
 10  9  2  0  0  0  0
M  END
>  <CHROM.1>
19.40887057,-18.09585081,4.65994664,1.39046465,-1.02743009,-1.09335337

>  <Name>
1y26_lig

>  <RI>
0

>  <Rbt.Current_Directory>
/home/afrankz/demos/rdock_decoys_rna/rnas/1y26

>  <Rbt.Executable>
rbdock ($Id: //depot/dev/client3/rdock/2013.1/src/exe/rbdock.cxx#4 $)

>  <Rbt.Library>
libRbt.so (2013.1, Build901 2013/11/27)

>  <Rbt.Parameter_File>
/export/apps/rDock/src/rDock_2013.1_src/data/scripts/dock_solv.prm

>  <Rbt.Receptor>
prm/pocket_docking_4.prm

>  <SCORE>
-26.6575

>  <SCORE.INTER>
-26.6575

>  <SCORE.INTER.CONST>
1

>  <SCORE.INTER.POLAR>
-2.0198

>  <SCORE.INTER.ROT>
0

>  <SCORE.INTER.SOLV>
12.7298

>  <SCORE.INTER.VDW>
-18.8823

>  <SCORE.INTER.norm>
-2.66575

>  <SCORE.INTRA>
0

>  <SCORE.INTRA.DIHEDRAL>
0

>  <SCORE.INTRA.DIHEDRAL.0>
0

>  <SCORE.INTRA.POLAR>
0

>  <SCORE.INTRA.POLAR.0>
0

>  <SCORE.INTRA.REPUL>
0

>  <SCORE.INTRA.REPUL.0>
0

>  <SCORE.INTRA.SOLV>
0

>  <SCORE.INTRA.SOLV.lig_0>
-16.9472

>  <SCORE.INTRA.VDW>
0

>  <SCORE.INTRA.VDW.0>
0

>  <SCORE.INTRA.norm>
0

>  <SCORE.RESTR>
0

>  <SCORE.RESTR.CAVITY>
0

>  <SCORE.RESTR.norm>
0

>  <SCORE.SYSTEM>
0

>  <SCORE.SYSTEM.CONST>
0

>  <SCORE.SYSTEM.DIHEDRAL>
0

>  <SCORE.SYSTEM.SOLV>
0

>  <SCORE.SYSTEM.norm>
0

>  <SCORE.heavy>
10

>  <SCORE.norm>
-2.66575

>  <RMSD>
0.618

$$$$
1y26_lig
 OpenBabel02141814133D
libRbt.so/2013.1/901 2013/11/27
 10 11  0  0  0  0  0  0  0  0999 V2000
   19.4622  -17.0777    2.9281 N   0  0  0  0  0  0  0  0  0  0  0  0
   18.7855  -18.1920    2.6390 C   0  0  0  0  0  0  0  0  0  0  0  0
   18.4919  -19.2127    3.4421 N   0  0  0  0  0  0  0  0  0  0  0  0
   18.9576  -18.9913    4.6921 C   0  0  0  0  0  0  0  0  0  0  0  0
   19.6581  -17.8875    5.1362 C   0  0  0  0  0  0  0  0  0  0  0  0
   19.9147  -16.8947    4.1859 C   0  0  0  0  0  0  0  0  0  0  0  0
   20.5921  -15.8012    4.4965 N   0  0  0  0  0  0  0  0  0  0  0  0
   19.9944  -17.9818    6.4667 N   0  0  0  0  0  0  0  0  0  0  0  0
   19.4614  -19.1366    6.8215 C   0  0  0  0  0  0  0  0  0  0  0  0
   18.8322  -19.7999    5.7902 N   0  0  0  0  0  0  0  0  0  0  0  0
  1  2  2  0  0  0  0
  2  3  1  0  0  0  0
  3  4  2  0  0  0  0
  5  4  1  0  0  0  0
  5  6  2  0  0  0  0
  6  1  1  0  0  0  0
  6  7  1  0  0  0  0
  8  5  1  0  0  0  0
  9  8  1  0  0  0  0
 10  4  1  0  0  0  0
 10  9  2  0  0  0  0
M  END
>  <CHROM.1>
19.41506187,-18.09690253,4.65825864,1.40344935,-1.03004978,-1.08149187

>  <Name>
1y26_lig

>  <RI>
224

>  <Rbt.Current_Directory>
/home/afrankz/demos/rdock_decoys_rna/rnas/1y26

>  <Rbt.Executable>
rbdock ($Id: //depot/dev/client3/rdock/2013.1/src/exe/rbdock.cxx#4 $)

>  <Rbt.Library>
libRbt.so (2013.1, Build901 2013/11/27)

>  <Rbt.Parameter_File>
/export/apps/rDock/src/rDock_2013.1_src/data/scripts/dock_solv.prm

>  <Rbt.Receptor>
prm/pocket_docking_7.prm

>  <SCORE>
-26.6577

>  <SCORE.INTER>
-26.6577

>  <SCORE.INTER.CONST>
1

>  <SCORE.INTER.POLAR>
-2.0198

>  <SCORE.INTER.ROT>
0

>  <SCORE.INTER.SOLV>
12.7493

>  <SCORE.INTER.VDW>
-18.8889

>  <SCORE.INTER.norm>
-2.66577

>  <SCORE.INTRA>
0

>  <SCORE.INTRA.DIHEDRAL>
0

>  <SCORE.INTRA.DIHEDRAL.0>
0

>  <SCORE.INTRA.POLAR>
0

>  <SCORE.INTRA.POLAR.0>
0

>  <SCORE.INTRA.REPUL>
0

>  <SCORE.INTRA.REPUL.0>
0

>  <SCORE.INTRA.SOLV>
0

>  <SCORE.INTRA.SOLV.lig_0>
-16.9472

>  <SCORE.INTRA.VDW>
0

>  <SCORE.INTRA.VDW.0>
0

>  <SCORE.INTRA.norm>
0

>  <SCORE.RESTR>
0

>  <SCORE.RESTR.CAVITY>
0

>  <SCORE.RESTR.norm>
0

>  <SCORE.SYSTEM>
0

>  <SCORE.SYSTEM.CONST>
0

>  <SCORE.SYSTEM.DIHEDRAL>
0

>  <SCORE.SYSTEM.SOLV>
0

>  <SCORE.SYSTEM.norm>
0

>  <SCORE.heavy>
10

>  <SCORE.norm>
-2.66577

>  <RMSD>
0.618

$$$$
1y26_lig
 OpenBabel02141814133D
libRbt.so/2013.1/901 2013/11/27
 10 11  0  0  0  0  0  0  0  0999 V2000
   19.4942  -17.0638    2.9276 N   0  0  0  0  0  0  0  0  0  0  0  0
   18.8254  -18.1825    2.6374 C   0  0  0  0  0  0  0  0  0  0  0  0
   18.5188  -19.1955    3.4454 N   0  0  0  0  0  0  0  0  0  0  0  0
   18.9603  -18.9601    4.7015 C   0  0  0  0  0  0  0  0  0  0  0  0
   19.6500  -17.8502    5.1473 C   0  0  0  0  0  0  0  0  0  0  0  0
   19.9224  -16.8667    4.1917 C   0  0  0  0  0  0  0  0  0  0  0  0
   20.5915  -15.7685    4.5036 N   0  0  0  0  0  0  0  0  0  0  0  0
   19.9612  -17.9299    6.4848 N   0  0  0  0  0  0  0  0  0  0  0  0
   19.4241  -19.0822    6.8415 C   0  0  0  0  0  0  0  0  0  0  0  0
   18.8159  -19.7576    5.8054 N   0  0  0  0  0  0  0  0  0  0  0  0
  1  2  2  0  0  0  0
  2  3  1  0  0  0  0
  3  4  2  0  0  0  0
  5  4  1  0  0  0  0
  5  6  2  0  0  0  0
  6  1  1  0  0  0  0
  6  7  1  0  0  0  0
  8  5  1  0  0  0  0
  9  8  1  0  0  0  0
 10  4  1  0  0  0  0
 10  9  2  0  0  0  0
M  END
>  <CHROM.1>
19.41644394,-18.06507156,4.66704879,1.37239299,-1.04057439,-1.11858567

>  <Name>
1y26_lig

>  <RI>
224

>  <Rbt.Current_Directory>
/home/afrankz/demos/rdock_decoys_rna/rnas/1y26

>  <Rbt.Executable>
rbdock ($Id: //depot/dev/client3/rdock/2013.1/src/exe/rbdock.cxx#4 $)

>  <Rbt.Library>
libRbt.so (2013.1, Build901 2013/11/27)

>  <Rbt.Parameter_File>
/export/apps/rDock/src/rDock_2013.1_src/data/scripts/dock_solv.prm

>  <Rbt.Receptor>
prm/blind_docking_80.prm

>  <SCORE>
-26.6224

>  <SCORE.INTER>
-26.6224

>  <SCORE.INTER.CONST>
1

>  <SCORE.INTER.POLAR>
-2.0198

>  <SCORE.INTER.ROT>
0

>  <SCORE.INTER.SOLV>
12.7138

>  <SCORE.INTER.VDW>
-18.8535

>  <SCORE.INTER.norm>
-2.66224

>  <SCORE.INTRA>
0

>  <SCORE.INTRA.DIHEDRAL>
0

>  <SCORE.INTRA.DIHEDRAL.0>
0

>  <SCORE.INTRA.POLAR>
0

>  <SCORE.INTRA.POLAR.0>
0

>  <SCORE.INTRA.REPUL>
0

>  <SCORE.INTRA.REPUL.0>
0

>  <SCORE.INTRA.SOLV>
0

>  <SCORE.INTRA.SOLV.lig_0>
-16.9472

>  <SCORE.INTRA.VDW>
0

>  <SCORE.INTRA.VDW.0>
0

>  <SCORE.INTRA.norm>
0

>  <SCORE.RESTR>
0

>  <SCORE.RESTR.CAVITY>
0

>  <SCORE.RESTR.norm>
0

>  <SCORE.SYSTEM>
0

>  <SCORE.SYSTEM.CONST>
0

>  <SCORE.SYSTEM.DIHEDRAL>
0

>  <SCORE.SYSTEM.SOLV>
0

>  <SCORE.SYSTEM.norm>
0

>  <SCORE.heavy>
10

>  <SCORE.norm>
-2.66224

>  <RMSD>
0.619

$$$$
1y26_lig
 OpenBabel02141814133D
libRbt.so/2013.1/901 2013/11/27
 10 11  0  0  0  0  0  0  0  0999 V2000
   19.4822  -17.0770    2.9316 N   0  0  0  0  0  0  0  0  0  0  0  0
   18.7962  -18.1844    2.6383 C   0  0  0  0  0  0  0  0  0  0  0  0
   18.4884  -19.2026    3.4392 N   0  0  0  0  0  0  0  0  0  0  0  0
   18.9496  -18.9865    4.6917 C   0  0  0  0  0  0  0  0  0  0  0  0
   19.6585  -17.8898    5.1402 C   0  0  0  0  0  0  0  0  0  0  0  0
   19.9298  -16.8991    4.1918 C   0  0  0  0  0  0  0  0  0  0  0  0
   20.6162  -15.8124    4.5066 N   0  0  0  0  0  0  0  0  0  0  0  0
   19.9868  -17.9881    6.4724 N   0  0  0  0  0  0  0  0  0  0  0  0
   19.4407  -19.1379    6.8237 C   0  0  0  0  0  0  0  0  0  0  0  0
   18.8105  -19.7945    5.7887 N   0  0  0  0  0  0  0  0  0  0  0  0
  1  2  2  0  0  0  0
  2  3  1  0  0  0  0
  3  4  2  0  0  0  0
  5  4  1  0  0  0  0
  5  6  2  0  0  0  0
  6  1  1  0  0  0  0
  6  7  1  0  0  0  0
  8  5  1  0  0  0  0
  9  8  1  0  0  0  0
 10  4  1  0  0  0  0
 10  9  2  0  0  0  0
M  END
>  <CHROM.1>
19.41594381,-18.09660212,4.66084196,1.38564289,-1.02383396,-1.09616649

>  <Name>
1y26_lig

>  <RI>
224

>  <Rbt.Current_Directory>
/home/afrankz/demos/rdock_decoys_rna/rnas/1y26

>  <Rbt.Executable>
rbdock ($Id: //depot/dev/client3/rdock/2013.1/src/exe/rbdock.cxx#4 $)

>  <Rbt.Library>
libRbt.so (2013.1, Build901 2013/11/27)

>  <Rbt.Parameter_File>
/export/apps/rDock/src/rDock_2013.1_src/data/scripts/dock_solv.prm

>  <Rbt.Receptor>
prm/pocket_docking_3.prm

>  <SCORE>
-26.6616

>  <SCORE.INTER>
-26.6616

>  <SCORE.INTER.CONST>
1

>  <SCORE.INTER.POLAR>
-2.0198

>  <SCORE.INTER.ROT>
0

>  <SCORE.INTER.SOLV>
12.7021

>  <SCORE.INTER.VDW>
-18.8758

>  <SCORE.INTER.norm>
-2.66616

>  <SCORE.INTRA>
0

>  <SCORE.INTRA.DIHEDRAL>
0

>  <SCORE.INTRA.DIHEDRAL.0>
0

>  <SCORE.INTRA.POLAR>
0

>  <SCORE.INTRA.POLAR.0>
0

>  <SCORE.INTRA.REPUL>
0

>  <SCORE.INTRA.REPUL.0>
0

>  <SCORE.INTRA.SOLV>
0

>  <SCORE.INTRA.SOLV.lig_0>
-16.9472

>  <SCORE.INTRA.VDW>
0

>  <SCORE.INTRA.VDW.0>
0

>  <SCORE.INTRA.norm>
0

>  <SCORE.RESTR>
0

>  <SCORE.RESTR.CAVITY>
0

>  <SCORE.RESTR.norm>
0

>  <SCORE.SYSTEM>
0

>  <SCORE.SYSTEM.CONST>
0

>  <SCORE.SYSTEM.DIHEDRAL>
0

>  <SCORE.SYSTEM.SOLV>
0

>  <SCORE.SYSTEM.norm>
0

>  <SCORE.heavy>
10

>  <SCORE.norm>
-2.66616

>  <RMSD>
0.619

$$$$
1y26_lig
 OpenBabel02141814133D
libRbt.so/2013.1/901 2013/11/27
 10 11  0  0  0  0  0  0  0  0999 V2000
   19.4707  -17.0776    2.9294 N   0  0  0  0  0  0  0  0  0  0  0  0
   18.7938  -18.1910    2.6375 C   0  0  0  0  0  0  0  0  0  0  0  0
   18.4923  -19.2096    3.4404 N   0  0  0  0  0  0  0  0  0  0  0  0
   18.9495  -18.9868    4.6932 C   0  0  0  0  0  0  0  0  0  0  0  0
   19.6491  -17.8837    5.1403 C   0  0  0  0  0  0  0  0  0  0  0  0
   19.9146  -16.8932    4.1900 C   0  0  0  0  0  0  0  0  0  0  0  0
   20.5920  -15.8005    4.5034 N   0  0  0  0  0  0  0  0  0  0  0  0
   19.9756  -17.9762    6.4734 N   0  0  0  0  0  0  0  0  0  0  0  0
   19.4377  -19.1292    6.8265 C   0  0  0  0  0  0  0  0  0  0  0  0
   18.8146  -19.7931    5.7919 N   0  0  0  0  0  0  0  0  0  0  0  0
  1  2  2  0  0  0  0
  2  3  1  0  0  0  0
  3  4  2  0  0  0  0
  5  4  1  0  0  0  0
  5  6  2  0  0  0  0
  6  1  1  0  0  0  0
  6  7  1  0  0  0  0
  8  5  1  0  0  0  0
  9  8  1  0  0  0  0
 10  4  1  0  0  0  0
 10  9  2  0  0  0  0
M  END
>  <CHROM.1>
19.40904720,-18.09345629,4.66103400,1.38921744,-1.03152233,-1.09557097

>  <Name>
1y26_lig

>  <RI>
0

>  <Rbt.Current_Directory>
/home/afrankz/demos/rdock_decoys_rna/rnas/1y26

>  <Rbt.Executable>
rbdock ($Id: //depot/dev/client3/rdock/2013.1/src/exe/rbdock.cxx#4 $)

>  <Rbt.Library>
libRbt.so (2013.1, Build901 2013/11/27)

>  <Rbt.Parameter_File>
/export/apps/rDock/src/rDock_2013.1_src/data/scripts/dock_solv.prm

>  <Rbt.Receptor>
prm/pocket_docking_5.prm

>  <SCORE>
-26.6565

>  <SCORE.INTER>
-26.6565

>  <SCORE.INTER.CONST>
1

>  <SCORE.INTER.POLAR>
-2.0198

>  <SCORE.INTER.ROT>
0

>  <SCORE.INTER.SOLV>
12.7378

>  <SCORE.INTER.VDW>
-18.8843

>  <SCORE.INTER.norm>
-2.66565

>  <SCORE.INTRA>
0

>  <SCORE.INTRA.DIHEDRAL>
0

>  <SCORE.INTRA.DIHEDRAL.0>
0

>  <SCORE.INTRA.POLAR>
0

>  <SCORE.INTRA.POLAR.0>
0

>  <SCORE.INTRA.REPUL>
0

>  <SCORE.INTRA.REPUL.0>
0

>  <SCORE.INTRA.SOLV>
0

>  <SCORE.INTRA.SOLV.lig_0>
-16.9472

>  <SCORE.INTRA.VDW>
0

>  <SCORE.INTRA.VDW.0>
0

>  <SCORE.INTRA.norm>
0

>  <SCORE.RESTR>
0

>  <SCORE.RESTR.CAVITY>
0

>  <SCORE.RESTR.norm>
0

>  <SCORE.SYSTEM>
0

>  <SCORE.SYSTEM.CONST>
0

>  <SCORE.SYSTEM.DIHEDRAL>
0

>  <SCORE.SYSTEM.SOLV>
0

>  <SCORE.SYSTEM.norm>
0

>  <SCORE.heavy>
10

>  <SCORE.norm>
-2.66565

>  <RMSD>
0.619

$$$$
1y26_lig
 OpenBabel02141814133D
libRbt.so/2013.1/901 2013/11/27
 10 11  0  0  0  0  0  0  0  0999 V2000
   19.4707  -17.0785    2.9309 N   0  0  0  0  0  0  0  0  0  0  0  0
   18.7875  -18.1888    2.6418 C   0  0  0  0  0  0  0  0  0  0  0  0
   18.4850  -19.2062    3.4457 N   0  0  0  0  0  0  0  0  0  0  0  0
   18.9487  -18.9858    4.6966 C   0  0  0  0  0  0  0  0  0  0  0  0
   19.6553  -17.8859    5.1408 C   0  0  0  0  0  0  0  0  0  0  0  0
   19.9209  -16.8964    4.1896 C   0  0  0  0  0  0  0  0  0  0  0  0
   20.6047  -15.8068    4.5002 N   0  0  0  0  0  0  0  0  0  0  0  0
   19.9873  -17.9802    6.4724 N   0  0  0  0  0  0  0  0  0  0  0  0
   19.4458  -19.1309    6.8276 C   0  0  0  0  0  0  0  0  0  0  0  0
   18.8150  -19.7918    5.7957 N   0  0  0  0  0  0  0  0  0  0  0  0
  1  2  2  0  0  0  0
  2  3  1  0  0  0  0
  3  4  2  0  0  0  0
  5  4  1  0  0  0  0
  5  6  2  0  0  0  0
  6  1  1  0  0  0  0
  6  7  1  0  0  0  0
  8  5  1  0  0  0  0
  9  8  1  0  0  0  0
 10  4  1  0  0  0  0
 10  9  2  0  0  0  0
M  END
>  <CHROM.1>
19.41214946,-18.09448412,4.66253595,1.39285522,-1.02549502,-1.09222037

>  <Name>
1y26_lig

>  <RI>
224

>  <Rbt.Current_Directory>
/home/afrankz/demos/rdock_decoys_rna/rnas/1y26

>  <Rbt.Executable>
rbdock ($Id: //depot/dev/client3/rdock/2013.1/src/exe/rbdock.cxx#4 $)

>  <Rbt.Library>
libRbt.so (2013.1, Build901 2013/11/27)

>  <Rbt.Parameter_File>
/export/apps/rDock/src/rDock_2013.1_src/data/scripts/dock_solv.prm

>  <Rbt.Receptor>
prm/pocket_docking_6.prm

>  <SCORE>
-26.6607

>  <SCORE.INTER>
-26.6607

>  <SCORE.INTER.CONST>
1

>  <SCORE.INTER.POLAR>
-2.0198

>  <SCORE.INTER.ROT>
0

>  <SCORE.INTER.SOLV>
12.7214

>  <SCORE.INTER.VDW>
-18.8816

>  <SCORE.INTER.norm>
-2.66607

>  <SCORE.INTRA>
0

>  <SCORE.INTRA.DIHEDRAL>
0

>  <SCORE.INTRA.DIHEDRAL.0>
0

>  <SCORE.INTRA.POLAR>
0

>  <SCORE.INTRA.POLAR.0>
0

>  <SCORE.INTRA.REPUL>
0

>  <SCORE.INTRA.REPUL.0>
0

>  <SCORE.INTRA.SOLV>
0

>  <SCORE.INTRA.SOLV.lig_0>
-16.9472

>  <SCORE.INTRA.VDW>
0

>  <SCORE.INTRA.VDW.0>
0

>  <SCORE.INTRA.norm>
0

>  <SCORE.RESTR>
0

>  <SCORE.RESTR.CAVITY>
0

>  <SCORE.RESTR.norm>
0

>  <SCORE.SYSTEM>
0

>  <SCORE.SYSTEM.CONST>
0

>  <SCORE.SYSTEM.DIHEDRAL>
0

>  <SCORE.SYSTEM.SOLV>
0

>  <SCORE.SYSTEM.norm>
0

>  <SCORE.heavy>
10

>  <SCORE.norm>
-2.66607

>  <RMSD>
0.619

$$$$
1y26_lig
 OpenBabel02141814133D
libRbt.so/2013.1/901 2013/11/27
 10 11  0  0  0  0  0  0  0  0999 V2000
   19.4762  -17.0775    2.9291 N   0  0  0  0  0  0  0  0  0  0  0  0
   18.7963  -18.1903    2.6418 C   0  0  0  0  0  0  0  0  0  0  0  0
   18.4960  -19.2068    3.4477 N   0  0  0  0  0  0  0  0  0  0  0  0
   18.9582  -18.9825    4.6984 C   0  0  0  0  0  0  0  0  0  0  0  0
   19.6613  -17.8797    5.1409 C   0  0  0  0  0  0  0  0  0  0  0  0
   19.9249  -16.8915    4.1878 C   0  0  0  0  0  0  0  0  0  0  0  0
   20.6054  -15.7993    4.4966 N   0  0  0  0  0  0  0  0  0  0  0  0
   19.9925  -17.9702    6.4729 N   0  0  0  0  0  0  0  0  0  0  0  0
   19.4539  -19.1217    6.8301 C   0  0  0  0  0  0  0  0  0  0  0  0
   18.8259  -19.7865    5.7991 N   0  0  0  0  0  0  0  0  0  0  0  0
  1  2  2  0  0  0  0
  2  3  1  0  0  0  0
  3  4  2  0  0  0  0
  5  4  1  0  0  0  0
  5  6  2  0  0  0  0
  6  1  1  0  0  0  0
  6  7  1  0  0  0  0
  8  5  1  0  0  0  0
  9  8  1  0  0  0  0
 10  4  1  0  0  0  0
 10  9  2  0  0  0  0
M  END
>  <CHROM.1>
19.41911075,-18.08998396,4.66286190,1.39398247,-1.02834638,-1.09336466

>  <Name>
1y26_lig

>  <RI>
0

>  <Rbt.Current_Directory>
/home/afrankz/demos/rdock_decoys_rna/rnas/1y26

>  <Rbt.Executable>
rbdock ($Id: //depot/dev/client3/rdock/2013.1/src/exe/rbdock.cxx#4 $)

>  <Rbt.Library>
libRbt.so (2013.1, Build901 2013/11/27)

>  <Rbt.Parameter_File>
/export/apps/rDock/src/rDock_2013.1_src/data/scripts/dock_solv.prm

>  <Rbt.Receptor>
prm/blind_docking_100.prm

>  <SCORE>
-26.6366

>  <SCORE.INTER>
-26.6366

>  <SCORE.INTER.CONST>
1

>  <SCORE.INTER.POLAR>
-2.0198

>  <SCORE.INTER.ROT>
0

>  <SCORE.INTER.SOLV>
12.7155

>  <SCORE.INTER.VDW>
-18.8636

>  <SCORE.INTER.norm>
-2.66366

>  <SCORE.INTRA>
0

>  <SCORE.INTRA.DIHEDRAL>
0

>  <SCORE.INTRA.DIHEDRAL.0>
0

>  <SCORE.INTRA.POLAR>
0

>  <SCORE.INTRA.POLAR.0>
0

>  <SCORE.INTRA.REPUL>
0

>  <SCORE.INTRA.REPUL.0>
0

>  <SCORE.INTRA.SOLV>
0

>  <SCORE.INTRA.SOLV.lig_0>
-16.9472

>  <SCORE.INTRA.VDW>
0

>  <SCORE.INTRA.VDW.0>
0

>  <SCORE.INTRA.norm>
0

>  <SCORE.RESTR>
0

>  <SCORE.RESTR.CAVITY>
0

>  <SCORE.RESTR.norm>
0

>  <SCORE.SYSTEM>
0

>  <SCORE.SYSTEM.CONST>
0

>  <SCORE.SYSTEM.DIHEDRAL>
0

>  <SCORE.SYSTEM.SOLV>
0

>  <SCORE.SYSTEM.norm>
0

>  <SCORE.heavy>
10

>  <SCORE.norm>
-2.66366

>  <RMSD>
0.620

$$$$
1y26_lig
 OpenBabel02141814133D
libRbt.so/2013.1/901 2013/11/27
 10 11  0  0  0  0  0  0  0  0999 V2000
   19.4603  -17.0764    2.9313 N   0  0  0  0  0  0  0  0  0  0  0  0
   18.7872  -18.1905    2.6331 C   0  0  0  0  0  0  0  0  0  0  0  0
   18.4968  -19.2185    3.4279 N   0  0  0  0  0  0  0  0  0  0  0  0
   18.9616  -19.0057    4.6797 C   0  0  0  0  0  0  0  0  0  0  0  0
   19.6585  -17.9033    5.1328 C   0  0  0  0  0  0  0  0  0  0  0  0
   19.9120  -16.9020    4.1906 C   0  0  0  0  0  0  0  0  0  0  0  0
   20.5858  -15.8089    4.5101 N   0  0  0  0  0  0  0  0  0  0  0  0
   19.9948  -18.0072    6.4626 N   0  0  0  0  0  0  0  0  0  0  0  0
   19.4656  -19.1666    6.8080 C   0  0  0  0  0  0  0  0  0  0  0  0
   18.8387  -19.8236    5.7712 N   0  0  0  0  0  0  0  0  0  0  0  0
  1  2  2  0  0  0  0
  2  3  1  0  0  0  0
  3  4  2  0  0  0  0
  5  4  1  0  0  0  0
  5  6  2  0  0  0  0
  6  1  1  0  0  0  0
  6  7  1  0  0  0  0
  8  5  1  0  0  0  0
  9  8  1  0  0  0  0
 10  4  1  0  0  0  0
 10  9  2  0  0  0  0
M  END
>  <CHROM.1>
19.41616597,-18.10962981,4.65318275,1.40615197,-1.03298467,-1.07110736

>  <Name>
1y26_lig

>  <RI>
0

>  <Rbt.Current_Directory>
/home/afrankz/demos/rdock_decoys_rna/rnas/1y26

>  <Rbt.Executable>
rbdock ($Id: //depot/dev/client3/rdock/2013.1/src/exe/rbdock.cxx#4 $)

>  <Rbt.Library>
libRbt.so (2013.1, Build901 2013/11/27)

>  <Rbt.Parameter_File>
/export/apps/rDock/src/rDock_2013.1_src/data/scripts/dock_solv.prm

>  <Rbt.Receptor>
prm/blind_docking_60.prm

>  <SCORE>
-26.6752

>  <SCORE.INTER>
-26.6752

>  <SCORE.INTER.CONST>
1

>  <SCORE.INTER.POLAR>
-2.0198

>  <SCORE.INTER.ROT>
0

>  <SCORE.INTER.SOLV>
12.7746

>  <SCORE.INTER.VDW>
-18.909

>  <SCORE.INTER.norm>
-2.66752

>  <SCORE.INTRA>
0

>  <SCORE.INTRA.DIHEDRAL>
0

>  <SCORE.INTRA.DIHEDRAL.0>
0

>  <SCORE.INTRA.POLAR>
0

>  <SCORE.INTRA.POLAR.0>
0

>  <SCORE.INTRA.REPUL>
0

>  <SCORE.INTRA.REPUL.0>
0

>  <SCORE.INTRA.SOLV>
0

>  <SCORE.INTRA.SOLV.lig_0>
-16.9472

>  <SCORE.INTRA.VDW>
0

>  <SCORE.INTRA.VDW.0>
0

>  <SCORE.INTRA.norm>
0

>  <SCORE.RESTR>
0

>  <SCORE.RESTR.CAVITY>
0

>  <SCORE.RESTR.norm>
0

>  <SCORE.SYSTEM>
0

>  <SCORE.SYSTEM.CONST>
0

>  <SCORE.SYSTEM.DIHEDRAL>
0

>  <SCORE.SYSTEM.SOLV>
0

>  <SCORE.SYSTEM.norm>
0

>  <SCORE.heavy>
10

>  <SCORE.norm>
-2.66752

>  <RMSD>
0.621

$$$$
1y26_lig
 OpenBabel02141814133D
libRbt.so/2013.1/901 2013/11/27
 10 11  0  0  0  0  0  0  0  0999 V2000
   19.4691  -17.0778    2.9325 N   0  0  0  0  0  0  0  0  0  0  0  0
   18.7866  -18.1883    2.6427 C   0  0  0  0  0  0  0  0  0  0  0  0
   18.4877  -19.2079    3.4453 N   0  0  0  0  0  0  0  0  0  0  0  0
   18.9547  -18.9898    4.6953 C   0  0  0  0  0  0  0  0  0  0  0  0
   19.6610  -17.8899    5.1400 C   0  0  0  0  0  0  0  0  0  0  0  0
   19.9226  -16.8979    4.1903 C   0  0  0  0  0  0  0  0  0  0  0  0
   20.6058  -15.8081    4.5015 N   0  0  0  0  0  0  0  0  0  0  0  0
   19.9968  -17.9867    6.4705 N   0  0  0  0  0  0  0  0  0  0  0  0
   19.4578  -19.1389    6.8246 C   0  0  0  0  0  0  0  0  0  0  0  0
   18.8251  -19.7984    5.7930 N   0  0  0  0  0  0  0  0  0  0  0  0
  1  2  2  0  0  0  0
  2  3  1  0  0  0  0
  3  4  2  0  0  0  0
  5  4  1  0  0  0  0
  5  6  2  0  0  0  0
  6  1  1  0  0  0  0
  6  7  1  0  0  0  0
  8  5  1  0  0  0  0
  9  8  1  0  0  0  0
 10  4  1  0  0  0  0
 10  9  2  0  0  0  0
M  END
>  <CHROM.1>
19.41677237,-18.09774209,4.66199175,1.39882195,-1.02539374,-1.08486572

>  <Name>
1y26_lig

>  <RI>
224

>  <Rbt.Current_Directory>
/home/afrankz/demos/rdock_decoys_rna/rnas/1y26

>  <Rbt.Executable>
rbdock ($Id: //depot/dev/client3/rdock/2013.1/src/exe/rbdock.cxx#4 $)

>  <Rbt.Library>
libRbt.so (2013.1, Build901 2013/11/27)

>  <Rbt.Parameter_File>
/export/apps/rDock/src/rDock_2013.1_src/data/scripts/dock_solv.prm

>  <Rbt.Receptor>
prm/pocket_docking_7.prm

>  <SCORE>
-26.6594

>  <SCORE.INTER>
-26.6594

>  <SCORE.INTER.CONST>
1

>  <SCORE.INTER.POLAR>
-2.0198

>  <SCORE.INTER.ROT>
0

>  <SCORE.INTER.SOLV>
12.7277

>  <SCORE.INTER.VDW>
-18.8828

>  <SCORE.INTER.norm>
-2.66594

>  <SCORE.INTRA>
0

>  <SCORE.INTRA.DIHEDRAL>
0

>  <SCORE.INTRA.DIHEDRAL.0>
0

>  <SCORE.INTRA.POLAR>
0

>  <SCORE.INTRA.POLAR.0>
0

>  <SCORE.INTRA.REPUL>
0

>  <SCORE.INTRA.REPUL.0>
0

>  <SCORE.INTRA.SOLV>
0

>  <SCORE.INTRA.SOLV.lig_0>
-16.9472

>  <SCORE.INTRA.VDW>
0

>  <SCORE.INTRA.VDW.0>
0

>  <SCORE.INTRA.norm>
0

>  <SCORE.RESTR>
0

>  <SCORE.RESTR.CAVITY>
0

>  <SCORE.RESTR.norm>
0

>  <SCORE.SYSTEM>
0

>  <SCORE.SYSTEM.CONST>
0

>  <SCORE.SYSTEM.DIHEDRAL>
0

>  <SCORE.SYSTEM.SOLV>
0

>  <SCORE.SYSTEM.norm>
0

>  <SCORE.heavy>
10

>  <SCORE.norm>
-2.66594

>  <RMSD>
0.621

$$$$
1y26_lig
 OpenBabel02141814133D
libRbt.so/2013.1/901 2013/11/27
 10 11  0  0  0  0  0  0  0  0999 V2000
   19.4967  -17.0747    2.9289 N   0  0  0  0  0  0  0  0  0  0  0  0
   18.8223  -18.1894    2.6357 C   0  0  0  0  0  0  0  0  0  0  0  0
   18.5169  -19.2063    3.4392 N   0  0  0  0  0  0  0  0  0  0  0  0
   18.9666  -18.9802    4.6941 C   0  0  0  0  0  0  0  0  0  0  0  0
   19.6628  -17.8755    5.1427 C   0  0  0  0  0  0  0  0  0  0  0  0
   19.9330  -16.8870    4.1916 C   0  0  0  0  0  0  0  0  0  0  0  0
   20.6078  -15.7931    4.5064 N   0  0  0  0  0  0  0  0  0  0  0  0
   19.9816  -17.9646    6.4779 N   0  0  0  0  0  0  0  0  0  0  0  0
   19.4425  -19.1172    6.8305 C   0  0  0  0  0  0  0  0  0  0  0  0
   18.8259  -19.7841    5.7939 N   0  0  0  0  0  0  0  0  0  0  0  0
  1  2  2  0  0  0  0
  2  3  1  0  0  0  0
  3  4  2  0  0  0  0
  5  4  1  0  0  0  0
  5  6  2  0  0  0  0
  6  1  1  0  0  0  0
  6  7  1  0  0  0  0
  8  5  1  0  0  0  0
  9  8  1  0  0  0  0
 10  4  1  0  0  0  0
 10  9  2  0  0  0  0
M  END
>  <CHROM.1>
19.42566362,-18.08656929,4.66251322,1.37974535,-1.03484492,-1.10605027

>  <Name>
1y26_lig

>  <RI>
0

>  <Rbt.Current_Directory>
/home/afrankz/demos/rdock_decoys_rna/rnas/1y26

>  <Rbt.Executable>
rbdock ($Id: //depot/dev/client3/rdock/2013.1/src/exe/rbdock.cxx#4 $)

>  <Rbt.Library>
libRbt.so (2013.1, Build901 2013/11/27)

>  <Rbt.Parameter_File>
/export/apps/rDock/src/rDock_2013.1_src/data/scripts/dock_solv.prm

>  <Rbt.Receptor>
prm/pocket_docking_8.prm

>  <SCORE>
-26.5991

>  <SCORE.INTER>
-26.5991

>  <SCORE.INTER.CONST>
1

>  <SCORE.INTER.POLAR>
-2.0198

>  <SCORE.INTER.ROT>
0

>  <SCORE.INTER.SOLV>
12.699

>  <SCORE.INTER.VDW>
-18.8331

>  <SCORE.INTER.norm>
-2.65991

>  <SCORE.INTRA>
0

>  <SCORE.INTRA.DIHEDRAL>
0

>  <SCORE.INTRA.DIHEDRAL.0>
0

>  <SCORE.INTRA.POLAR>
0

>  <SCORE.INTRA.POLAR.0>
0

>  <SCORE.INTRA.REPUL>
0

>  <SCORE.INTRA.REPUL.0>
0

>  <SCORE.INTRA.SOLV>
0

>  <SCORE.INTRA.SOLV.lig_0>
-16.9472

>  <SCORE.INTRA.VDW>
0

>  <SCORE.INTRA.VDW.0>
0

>  <SCORE.INTRA.norm>
0

>  <SCORE.RESTR>
0

>  <SCORE.RESTR.CAVITY>
0

>  <SCORE.RESTR.norm>
0

>  <SCORE.SYSTEM>
0

>  <SCORE.SYSTEM.CONST>
0

>  <SCORE.SYSTEM.DIHEDRAL>
0

>  <SCORE.SYSTEM.SOLV>
0

>  <SCORE.SYSTEM.norm>
0

>  <SCORE.heavy>
10

>  <SCORE.norm>
-2.65991

>  <RMSD>
0.621

$$$$
1y26_lig
 OpenBabel02141814133D
libRbt.so/2013.1/901 2013/11/27
 10 11  0  0  0  0  0  0  0  0999 V2000
   19.4772  -17.0790    2.9345 N   0  0  0  0  0  0  0  0  0  0  0  0
   18.7920  -18.1877    2.6440 C   0  0  0  0  0  0  0  0  0  0  0  0
   18.4882  -19.2058    3.4466 N   0  0  0  0  0  0  0  0  0  0  0  0
   18.9529  -18.9881    4.6976 C   0  0  0  0  0  0  0  0  0  0  0  0
   19.6614  -17.8900    5.1431 C   0  0  0  0  0  0  0  0  0  0  0  0
   19.9283  -16.8995    4.1933 C   0  0  0  0  0  0  0  0  0  0  0  0
   20.6140  -15.8115    4.5052 N   0  0  0  0  0  0  0  0  0  0  0  0
   19.9938  -17.9868    6.4744 N   0  0  0  0  0  0  0  0  0  0  0  0
   19.4506  -19.1372    6.8282 C   0  0  0  0  0  0  0  0  0  0  0  0
   18.8183  -19.7955    5.7955 N   0  0  0  0  0  0  0  0  0  0  0  0
  1  2  2  0  0  0  0
  2  3  1  0  0  0  0
  3  4  2  0  0  0  0
  5  4  1  0  0  0  0
  5  6  2  0  0  0  0
  6  1  1  0  0  0  0
  6  7  1  0  0  0  0
  8  5  1  0  0  0  0
  9  8  1  0  0  0  0
 10  4  1  0  0  0  0
 10  9  2  0  0  0  0
M  END
>  <CHROM.1>
19.41771664,-18.09746798,4.66466792,1.39214862,-1.02382648,-1.09130851

>  <Name>
1y26_lig

>  <RI>
0

>  <Rbt.Current_Directory>
/home/afrankz/demos/rdock_decoys_rna/rnas/1y26

>  <Rbt.Executable>
rbdock ($Id: //depot/dev/client3/rdock/2013.1/src/exe/rbdock.cxx#4 $)

>  <Rbt.Library>
libRbt.so (2013.1, Build901 2013/11/27)

>  <Rbt.Parameter_File>
/export/apps/rDock/src/rDock_2013.1_src/data/scripts/dock_solv.prm

>  <Rbt.Receptor>
prm/pocket_docking_5.prm

>  <SCORE>
-26.6617

>  <SCORE.INTER>
-26.6617

>  <SCORE.INTER.CONST>
1

>  <SCORE.INTER.POLAR>
-2.0198

>  <SCORE.INTER.ROT>
0

>  <SCORE.INTER.SOLV>
12.7089

>  <SCORE.INTER.VDW>
-18.8781

>  <SCORE.INTER.norm>
-2.66617

>  <SCORE.INTRA>
0

>  <SCORE.INTRA.DIHEDRAL>
0

>  <SCORE.INTRA.DIHEDRAL.0>
0

>  <SCORE.INTRA.POLAR>
0

>  <SCORE.INTRA.POLAR.0>
0

>  <SCORE.INTRA.REPUL>
0

>  <SCORE.INTRA.REPUL.0>
0

>  <SCORE.INTRA.SOLV>
0

>  <SCORE.INTRA.SOLV.lig_0>
-16.9472

>  <SCORE.INTRA.VDW>
0

>  <SCORE.INTRA.VDW.0>
0

>  <SCORE.INTRA.norm>
0

>  <SCORE.RESTR>
0

>  <SCORE.RESTR.CAVITY>
0

>  <SCORE.RESTR.norm>
0

>  <SCORE.SYSTEM>
0

>  <SCORE.SYSTEM.CONST>
0

>  <SCORE.SYSTEM.DIHEDRAL>
0

>  <SCORE.SYSTEM.SOLV>
0

>  <SCORE.SYSTEM.norm>
0

>  <SCORE.heavy>
10

>  <SCORE.norm>
-2.66617

>  <RMSD>
0.623

$$$$
1y26_lig
 OpenBabel02141814133D
libRbt.so/2013.1/901 2013/11/27
 10 11  0  0  0  0  0  0  0  0999 V2000
   19.4834  -17.0797    2.9346 N   0  0  0  0  0  0  0  0  0  0  0  0
   18.7946  -18.1859    2.6434 C   0  0  0  0  0  0  0  0  0  0  0  0
   18.4871  -19.2034    3.4453 N   0  0  0  0  0  0  0  0  0  0  0  0
   18.9521  -18.9879    4.6965 C   0  0  0  0  0  0  0  0  0  0  0  0
   19.6642  -17.8924    5.1429 C   0  0  0  0  0  0  0  0  0  0  0  0
   19.9347  -16.9023    4.1936 C   0  0  0  0  0  0  0  0  0  0  0  0
   20.6240  -15.8169    4.5063 N   0  0  0  0  0  0  0  0  0  0  0  0
   19.9959  -17.9911    6.4742 N   0  0  0  0  0  0  0  0  0  0  0  0
   19.4487  -19.1398    6.8272 C   0  0  0  0  0  0  0  0  0  0  0  0
   18.8145  -19.7954    5.7940 N   0  0  0  0  0  0  0  0  0  0  0  0
  1  2  2  0  0  0  0
  2  3  1  0  0  0  0
  3  4  2  0  0  0  0
  5  4  1  0  0  0  0
  5  6  2  0  0  0  0
  6  1  1  0  0  0  0
  6  7  1  0  0  0  0
  8  5  1  0  0  0  0
  9  8  1  0  0  0  0
 10  4  1  0  0  0  0
 10  9  2  0  0  0  0
M  END
>  <CHROM.1>
19.41998848,-18.09884614,4.66424374,1.38865934,-1.02097407,-1.09377376

>  <Name>
1y26_lig

>  <RI>
0

>  <Rbt.Current_Directory>
/home/afrankz/demos/rdock_decoys_rna/rnas/1y26

>  <Rbt.Executable>
rbdock ($Id: //depot/dev/client3/rdock/2013.1/src/exe/rbdock.cxx#4 $)

>  <Rbt.Library>
libRbt.so (2013.1, Build901 2013/11/27)

>  <Rbt.Parameter_File>
/export/apps/rDock/src/rDock_2013.1_src/data/scripts/dock_solv.prm

>  <Rbt.Receptor>
prm/pocket_docking_8.prm

>  <SCORE>
-26.6624

>  <SCORE.INTER>
-26.6624

>  <SCORE.INTER.CONST>
1

>  <SCORE.INTER.POLAR>
-2.0198

>  <SCORE.INTER.ROT>
0

>  <SCORE.INTER.SOLV>
12.6907

>  <SCORE.INTER.VDW>
-18.8725

>  <SCORE.INTER.norm>
-2.66624

>  <SCORE.INTRA>
0

>  <SCORE.INTRA.DIHEDRAL>
0

>  <SCORE.INTRA.DIHEDRAL.0>
0

>  <SCORE.INTRA.POLAR>
0

>  <SCORE.INTRA.POLAR.0>
0

>  <SCORE.INTRA.REPUL>
0

>  <SCORE.INTRA.REPUL.0>
0

>  <SCORE.INTRA.SOLV>
0

>  <SCORE.INTRA.SOLV.lig_0>
-16.9472

>  <SCORE.INTRA.VDW>
0

>  <SCORE.INTRA.VDW.0>
0

>  <SCORE.INTRA.norm>
0

>  <SCORE.RESTR>
0

>  <SCORE.RESTR.CAVITY>
0

>  <SCORE.RESTR.norm>
0

>  <SCORE.SYSTEM>
0

>  <SCORE.SYSTEM.CONST>
0

>  <SCORE.SYSTEM.DIHEDRAL>
0

>  <SCORE.SYSTEM.SOLV>
0

>  <SCORE.SYSTEM.norm>
0

>  <SCORE.heavy>
10

>  <SCORE.norm>
-2.66624

>  <RMSD>
0.623

$$$$
1y26_lig
 OpenBabel02141814133D
libRbt.so/2013.1/901 2013/11/27
 10 11  0  0  0  0  0  0  0  0999 V2000
   19.4801  -17.0781    2.9353 N   0  0  0  0  0  0  0  0  0  0  0  0
   18.7979  -18.1880    2.6427 C   0  0  0  0  0  0  0  0  0  0  0  0
   18.4934  -19.2066    3.4444 N   0  0  0  0  0  0  0  0  0  0  0  0
   18.9537  -18.9880    4.6968 C   0  0  0  0  0  0  0  0  0  0  0  0
   19.6588  -17.8886    5.1445 C   0  0  0  0  0  0  0  0  0  0  0  0
   19.9269  -16.8977    4.1955 C   0  0  0  0  0  0  0  0  0  0  0  0
   20.6096  -15.8085    4.5096 N   0  0  0  0  0  0  0  0  0  0  0  0
   19.9872  -17.9848    6.4769 N   0  0  0  0  0  0  0  0  0  0  0  0
   19.4449  -19.1361    6.8290 C   0  0  0  0  0  0  0  0  0  0  0  0
   18.8171  -19.7956    5.7943 N   0  0  0  0  0  0  0  0  0  0  0  0
  1  2  2  0  0  0  0
  2  3  1  0  0  0  0
  3  4  2  0  0  0  0
  5  4  1  0  0  0  0
  5  6  2  0  0  0  0
  6  1  1  0  0  0  0
  6  7  1  0  0  0  0
  8  5  1  0  0  0  0
  9  8  1  0  0  0  0
 10  4  1  0  0  0  0
 10  9  2  0  0  0  0
M  END
>  <CHROM.1>
19.41700223,-18.09658382,4.66532301,1.38831659,-1.02690116,-1.09463339

>  <Name>
1y26_lig

>  <RI>
0

>  <Rbt.Current_Directory>
/home/afrankz/demos/rdock_decoys_rna/rnas/1y26

>  <Rbt.Executable>
rbdock ($Id: //depot/dev/client3/rdock/2013.1/src/exe/rbdock.cxx#4 $)

>  <Rbt.Library>
libRbt.so (2013.1, Build901 2013/11/27)

>  <Rbt.Parameter_File>
/export/apps/rDock/src/rDock_2013.1_src/data/scripts/dock_solv.prm

>  <Rbt.Receptor>
prm/blind_docking_100.prm

>  <SCORE>
-26.6612

>  <SCORE.INTER>
-26.6612

>  <SCORE.INTER.CONST>
1

>  <SCORE.INTER.POLAR>
-2.0198

>  <SCORE.INTER.ROT>
0

>  <SCORE.INTER.SOLV>
12.7135

>  <SCORE.INTER.VDW>
-18.8793

>  <SCORE.INTER.norm>
-2.66612

>  <SCORE.INTRA>
0

>  <SCORE.INTRA.DIHEDRAL>
0

>  <SCORE.INTRA.DIHEDRAL.0>
0

>  <SCORE.INTRA.POLAR>
0

>  <SCORE.INTRA.POLAR.0>
0

>  <SCORE.INTRA.REPUL>
0

>  <SCORE.INTRA.REPUL.0>
0

>  <SCORE.INTRA.SOLV>
0

>  <SCORE.INTRA.SOLV.lig_0>
-16.9472

>  <SCORE.INTRA.VDW>
0

>  <SCORE.INTRA.VDW.0>
0

>  <SCORE.INTRA.norm>
0

>  <SCORE.RESTR>
0

>  <SCORE.RESTR.CAVITY>
0

>  <SCORE.RESTR.norm>
0

>  <SCORE.SYSTEM>
0

>  <SCORE.SYSTEM.CONST>
0

>  <SCORE.SYSTEM.DIHEDRAL>
0

>  <SCORE.SYSTEM.SOLV>
0

>  <SCORE.SYSTEM.norm>
0

>  <SCORE.heavy>
10

>  <SCORE.norm>
-2.66612

>  <RMSD>
0.624

$$$$
1y26_lig
 OpenBabel02141814133D
libRbt.so/2013.1/901 2013/11/27
 10 11  0  0  0  0  0  0  0  0999 V2000
   19.4640  -17.0783    2.9305 N   0  0  0  0  0  0  0  0  0  0  0  0
   18.8029  -18.2035    2.6476 C   0  0  0  0  0  0  0  0  0  0  0  0
   18.5091  -19.2163    3.4605 N   0  0  0  0  0  0  0  0  0  0  0  0
   18.9554  -18.9731    4.7135 C   0  0  0  0  0  0  0  0  0  0  0  0
   19.6383  -17.8561    5.1518 C   0  0  0  0  0  0  0  0  0  0  0  0
   19.8974  -16.8735    4.1916 C   0  0  0  0  0  0  0  0  0  0  0  0
   20.5592  -15.7688    4.4963 N   0  0  0  0  0  0  0  0  0  0  0  0
   19.9574  -17.9288    6.4879 N   0  0  0  0  0  0  0  0  0  0  0  0
   19.4317  -19.0843    6.8512 C   0  0  0  0  0  0  0  0  0  0  0  0
   18.8235  -19.7681    5.8207 N   0  0  0  0  0  0  0  0  0  0  0  0
  1  2  2  0  0  0  0
  2  3  1  0  0  0  0
  3  4  2  0  0  0  0
  5  4  1  0  0  0  0
  5  6  2  0  0  0  0
  6  1  1  0  0  0  0
  6  7  1  0  0  0  0
  8  5  1  0  0  0  0
  9  8  1  0  0  0  0
 10  4  1  0  0  0  0
 10  9  2  0  0  0  0
M  END
>  <CHROM.1>
19.40396840,-18.07447660,4.67358010,1.38927774,-1.04555772,-1.10727908

>  <Name>
1y26_lig

>  <RI>
0

>  <Rbt.Current_Directory>
/home/afrankz/demos/rdock_decoys_rna/rnas/1y26

>  <Rbt.Executable>
rbdock ($Id: //depot/dev/client3/rdock/2013.1/src/exe/rbdock.cxx#4 $)

>  <Rbt.Library>
libRbt.so (2013.1, Build901 2013/11/27)

>  <Rbt.Parameter_File>
/export/apps/rDock/src/rDock_2013.1_src/data/scripts/dock_solv.prm

>  <Rbt.Receptor>
prm/blind_docking_60.prm

>  <SCORE>
-26.6735

>  <SCORE.INTER>
-26.6735

>  <SCORE.INTER.CONST>
1

>  <SCORE.INTER.POLAR>
-2.0198

>  <SCORE.INTER.ROT>
0

>  <SCORE.INTER.SOLV>
12.7661

>  <SCORE.INTER.VDW>
-18.905

>  <SCORE.INTER.norm>
-2.66735

>  <SCORE.INTRA>
0

>  <SCORE.INTRA.DIHEDRAL>
0

>  <SCORE.INTRA.DIHEDRAL.0>
0

>  <SCORE.INTRA.POLAR>
0

>  <SCORE.INTRA.POLAR.0>
0

>  <SCORE.INTRA.REPUL>
0

>  <SCORE.INTRA.REPUL.0>
0

>  <SCORE.INTRA.SOLV>
0

>  <SCORE.INTRA.SOLV.lig_0>
-16.9472

>  <SCORE.INTRA.VDW>
0

>  <SCORE.INTRA.VDW.0>
0

>  <SCORE.INTRA.norm>
0

>  <SCORE.RESTR>
0

>  <SCORE.RESTR.CAVITY>
0

>  <SCORE.RESTR.norm>
0

>  <SCORE.SYSTEM>
0

>  <SCORE.SYSTEM.CONST>
0

>  <SCORE.SYSTEM.DIHEDRAL>
0

>  <SCORE.SYSTEM.SOLV>
0

>  <SCORE.SYSTEM.norm>
0

>  <SCORE.heavy>
10

>  <SCORE.norm>
-2.66735

>  <RMSD>
0.626

$$$$
1y26_lig
 OpenBabel02141814133D
libRbt.so/2013.1/901 2013/11/27
 10 11  0  0  0  0  0  0  0  0999 V2000
   19.4908  -17.0791    2.9389 N   0  0  0  0  0  0  0  0  0  0  0  0
   18.8009  -18.1837    2.6443 C   0  0  0  0  0  0  0  0  0  0  0  0
   18.4880  -19.2009    3.4445 N   0  0  0  0  0  0  0  0  0  0  0  0
   18.9483  -18.9869    4.6978 C   0  0  0  0  0  0  0  0  0  0  0  0
   19.6608  -17.8932    5.1475 C   0  0  0  0  0  0  0  0  0  0  0  0
   19.9373  -16.9032    4.1998 C   0  0  0  0  0  0  0  0  0  0  0  0
   20.6276  -15.8193    4.5159 N   0  0  0  0  0  0  0  0  0  0  0  0
   19.9868  -17.9931    6.4802 N   0  0  0  0  0  0  0  0  0  0  0  0
   19.4357  -19.1408    6.8304 C   0  0  0  0  0  0  0  0  0  0  0  0
   18.8045  -19.7946    5.7943 N   0  0  0  0  0  0  0  0  0  0  0  0
  1  2  2  0  0  0  0
  2  3  1  0  0  0  0
  3  4  2  0  0  0  0
  5  4  1  0  0  0  0
  5  6  2  0  0  0  0
  6  1  1  0  0  0  0
  6  7  1  0  0  0  0
  8  5  1  0  0  0  0
  9  8  1  0  0  0  0
 10  4  1  0  0  0  0
 10  9  2  0  0  0  0
M  END
>  <CHROM.1>
19.41814148,-18.09884086,4.66778608,1.37979721,-1.02098963,-1.10089047

>  <Name>
1y26_lig

>  <RI>
0

>  <Rbt.Current_Directory>
/home/afrankz/demos/rdock_decoys_rna/rnas/1y26

>  <Rbt.Executable>
rbdock ($Id: //depot/dev/client3/rdock/2013.1/src/exe/rbdock.cxx#4 $)

>  <Rbt.Library>
libRbt.so (2013.1, Build901 2013/11/27)

>  <Rbt.Parameter_File>
/export/apps/rDock/src/rDock_2013.1_src/data/scripts/dock_solv.prm

>  <Rbt.Receptor>
prm/pocket_docking_4.prm

>  <SCORE>
-26.6594

>  <SCORE.INTER>
-26.6594

>  <SCORE.INTER.CONST>
1

>  <SCORE.INTER.POLAR>
-2.0198

>  <SCORE.INTER.ROT>
0

>  <SCORE.INTER.SOLV>
12.6815

>  <SCORE.INTER.VDW>
-18.8675

>  <SCORE.INTER.norm>
-2.66594

>  <SCORE.INTRA>
0

>  <SCORE.INTRA.DIHEDRAL>
0

>  <SCORE.INTRA.DIHEDRAL.0>
0

>  <SCORE.INTRA.POLAR>
0

>  <SCORE.INTRA.POLAR.0>
0

>  <SCORE.INTRA.REPUL>
0

>  <SCORE.INTRA.REPUL.0>
0

>  <SCORE.INTRA.SOLV>
0

>  <SCORE.INTRA.SOLV.lig_0>
-16.9472

>  <SCORE.INTRA.VDW>
0

>  <SCORE.INTRA.VDW.0>
0

>  <SCORE.INTRA.norm>
0

>  <SCORE.RESTR>
0

>  <SCORE.RESTR.CAVITY>
0

>  <SCORE.RESTR.norm>
0

>  <SCORE.SYSTEM>
0

>  <SCORE.SYSTEM.CONST>
0

>  <SCORE.SYSTEM.DIHEDRAL>
0

>  <SCORE.SYSTEM.SOLV>
0

>  <SCORE.SYSTEM.norm>
0

>  <SCORE.heavy>
10

>  <SCORE.norm>
-2.66594

>  <RMSD>
0.626

$$$$
1y26_lig
 OpenBabel02141814133D
libRbt.so/2013.1/901 2013/11/27
 10 11  0  0  0  0  0  0  0  0999 V2000
   19.4886  -17.0800    2.9378 N   0  0  0  0  0  0  0  0  0  0  0  0
   18.7989  -18.1854    2.6454 C   0  0  0  0  0  0  0  0  0  0  0  0
   18.4890  -19.2026    3.4468 N   0  0  0  0  0  0  0  0  0  0  0  0
   18.9523  -18.9877    4.6988 C   0  0  0  0  0  0  0  0  0  0  0  0
   19.6651  -17.8932    5.1463 C   0  0  0  0  0  0  0  0  0  0  0  0
   19.9382  -16.9033    4.1975 C   0  0  0  0  0  0  0  0  0  0  0  0
   20.6283  -15.8187    4.5114 N   0  0  0  0  0  0  0  0  0  0  0  0
   19.9946  -17.9923    6.4782 N   0  0  0  0  0  0  0  0  0  0  0  0
   19.4455  -19.1404    6.8302 C   0  0  0  0  0  0  0  0  0  0  0  0
   18.8121  -19.7952    5.7960 N   0  0  0  0  0  0  0  0  0  0  0  0
  1  2  2  0  0  0  0
  2  3  1  0  0  0  0
  3  4  2  0  0  0  0
  5  4  1  0  0  0  0
  5  6  2  0  0  0  0
  6  1  1  0  0  0  0
  6  7  1  0  0  0  0
  8  5  1  0  0  0  0
  9  8  1  0  0  0  0
 10  4  1  0  0  0  0
 10  9  2  0  0  0  0
M  END
>  <CHROM.1>
19.42131845,-18.09924662,4.66725353,1.38499337,-1.02062230,-1.09682659

>  <Name>
1y26_lig

>  <RI>
0

>  <Rbt.Current_Directory>
/home/afrankz/demos/rdock_decoys_rna/rnas/1y26

>  <Rbt.Executable>
rbdock ($Id: //depot/dev/client3/rdock/2013.1/src/exe/rbdock.cxx#4 $)

>  <Rbt.Library>
libRbt.so (2013.1, Build901 2013/11/27)

>  <Rbt.Parameter_File>
/export/apps/rDock/src/rDock_2013.1_src/data/scripts/dock_solv.prm

>  <Rbt.Receptor>
prm/pocket_docking_5.prm

>  <SCORE>
-26.6621

>  <SCORE.INTER>
-26.6621

>  <SCORE.INTER.CONST>
1

>  <SCORE.INTER.POLAR>
-2.0198

>  <SCORE.INTER.ROT>
0

>  <SCORE.INTER.SOLV>
12.6821

>  <SCORE.INTER.VDW>
-18.8694

>  <SCORE.INTER.norm>
-2.66621

>  <SCORE.INTRA>
0

>  <SCORE.INTRA.DIHEDRAL>
0

>  <SCORE.INTRA.DIHEDRAL.0>
0

>  <SCORE.INTRA.POLAR>
0

>  <SCORE.INTRA.POLAR.0>
0

>  <SCORE.INTRA.REPUL>
0

>  <SCORE.INTRA.REPUL.0>
0

>  <SCORE.INTRA.SOLV>
0

>  <SCORE.INTRA.SOLV.lig_0>
-16.9472

>  <SCORE.INTRA.VDW>
0

>  <SCORE.INTRA.VDW.0>
0

>  <SCORE.INTRA.norm>
0

>  <SCORE.RESTR>
0

>  <SCORE.RESTR.CAVITY>
0

>  <SCORE.RESTR.norm>
0

>  <SCORE.SYSTEM>
0

>  <SCORE.SYSTEM.CONST>
0

>  <SCORE.SYSTEM.DIHEDRAL>
0

>  <SCORE.SYSTEM.SOLV>
0

>  <SCORE.SYSTEM.norm>
0

>  <SCORE.heavy>
10

>  <SCORE.norm>
-2.66621

>  <RMSD>
0.626

$$$$
1y26_lig
 OpenBabel02141814133D
libRbt.so/2013.1/901 2013/11/27
 10 11  0  0  0  0  0  0  0  0999 V2000
   19.6138  -17.0594    2.9333 N   0  0  0  0  0  0  0  0  0  0  0  0
   18.9150  -18.1504    2.6101 C   0  0  0  0  0  0  0  0  0  0  0  0
   18.5680  -19.1713    3.3913 N   0  0  0  0  0  0  0  0  0  0  0  0
   19.0012  -18.9778    4.6574 C   0  0  0  0  0  0  0  0  0  0  0  0
   19.7188  -17.8998    5.1362 C   0  0  0  0  0  0  0  0  0  0  0  0
   20.0325  -16.9039    4.2064 C   0  0  0  0  0  0  0  0  0  0  0  0
   20.7308  -15.8340    4.5509 N   0  0  0  0  0  0  0  0  0  0  0  0
   20.0112  -18.0189    6.4750 N   0  0  0  0  0  0  0  0  0  0  0  0
   19.4350  -19.1619    6.7992 C   0  0  0  0  0  0  0  0  0  0  0  0
   18.8192  -19.7950    5.7411 N   0  0  0  0  0  0  0  0  0  0  0  0
  1  2  2  0  0  0  0
  2  3  1  0  0  0  0
  3  4  2  0  0  0  0
  5  4  1  0  0  0  0
  5  6  2  0  0  0  0
  6  1  1  0  0  0  0
  6  7  1  0  0  0  0
  8  5  1  0  0  0  0
  9  8  1  0  0  0  0
 10  4  1  0  0  0  0
 10  9  2  0  0  0  0
M  END
>  <CHROM.1>
19.48466314,-18.09659011,4.64853024,1.32631874,-1.01807935,-1.13547825

>  <Name>
1y26_lig

>  <RI>
0

>  <Rbt.Current_Directory>
/home/afrankz/demos/rdock_decoys_rna/rnas/1y26

>  <Rbt.Executable>
rbdock ($Id: //depot/dev/client3/rdock/2013.1/src/exe/rbdock.cxx#4 $)

>  <Rbt.Library>
libRbt.so (2013.1, Build901 2013/11/27)

>  <Rbt.Parameter_File>
/export/apps/rDock/src/rDock_2013.1_src/data/scripts/dock_solv.prm

>  <Rbt.Receptor>
prm/pocket_docking_8.prm

>  <SCORE>
-26.6556

>  <SCORE.INTER>
-26.6556

>  <SCORE.INTER.CONST>
1

>  <SCORE.INTER.POLAR>
-2.0198

>  <SCORE.INTER.ROT>
0

>  <SCORE.INTER.SOLV>
12.4793

>  <SCORE.INTER.VDW>
-18.7975

>  <SCORE.INTER.norm>
-2.66556

>  <SCORE.INTRA>
0

>  <SCORE.INTRA.DIHEDRAL>
0

>  <SCORE.INTRA.DIHEDRAL.0>
0

>  <SCORE.INTRA.POLAR>
0

>  <SCORE.INTRA.POLAR.0>
0

>  <SCORE.INTRA.REPUL>
0

>  <SCORE.INTRA.REPUL.0>
0

>  <SCORE.INTRA.SOLV>
0

>  <SCORE.INTRA.SOLV.lig_0>
-16.9472

>  <SCORE.INTRA.VDW>
0

>  <SCORE.INTRA.VDW.0>
0

>  <SCORE.INTRA.norm>
0

>  <SCORE.RESTR>
0

>  <SCORE.RESTR.CAVITY>
0

>  <SCORE.RESTR.norm>
0

>  <SCORE.SYSTEM>
0

>  <SCORE.SYSTEM.CONST>
0

>  <SCORE.SYSTEM.DIHEDRAL>
0

>  <SCORE.SYSTEM.SOLV>
0

>  <SCORE.SYSTEM.norm>
0

>  <SCORE.heavy>
10

>  <SCORE.norm>
-2.66556

>  <RMSD>
0.626

$$$$
1y26_lig
 OpenBabel02141814133D
libRbt.so/2013.1/901 2013/11/27
 10 11  0  0  0  0  0  0  0  0999 V2000
   19.6102  -17.0574    2.9363 N   0  0  0  0  0  0  0  0  0  0  0  0
   18.9140  -18.1492    2.6099 C   0  0  0  0  0  0  0  0  0  0  0  0
   18.5686  -19.1727    3.3885 N   0  0  0  0  0  0  0  0  0  0  0  0
   19.0004  -18.9811    4.6554 C   0  0  0  0  0  0  0  0  0  0  0  0
   19.7152  -17.9026    5.1372 C   0  0  0  0  0  0  0  0  0  0  0  0
   20.0275  -16.9039    4.2100 C   0  0  0  0  0  0  0  0  0  0  0  0
   20.7232  -15.8333    4.5575 N   0  0  0  0  0  0  0  0  0  0  0  0
   20.0068  -18.0242    6.4761 N   0  0  0  0  0  0  0  0  0  0  0  0
   19.4329  -19.1692    6.7971 C   0  0  0  0  0  0  0  0  0  0  0  0
   18.8193  -19.8012    5.7371 N   0  0  0  0  0  0  0  0  0  0  0  0
  1  2  2  0  0  0  0
  2  3  1  0  0  0  0
  3  4  2  0  0  0  0
  5  4  1  0  0  0  0
  5  6  2  0  0  0  0
  6  1  1  0  0  0  0
  6  7  1  0  0  0  0
  8  5  1  0  0  0  0
  9  8  1  0  0  0  0
 10  4  1  0  0  0  0
 10  9  2  0  0  0  0
M  END
>  <CHROM.1>
19.48194137,-18.09882711,4.64894544,1.32671329,-1.02039637,-1.13283760

>  <Name>
1y26_lig

>  <RI>
224

>  <Rbt.Current_Directory>
/home/afrankz/demos/rdock_decoys_rna/rnas/1y26

>  <Rbt.Executable>
rbdock ($Id: //depot/dev/client3/rdock/2013.1/src/exe/rbdock.cxx#4 $)

>  <Rbt.Library>
libRbt.so (2013.1, Build901 2013/11/27)

>  <Rbt.Parameter_File>
/export/apps/rDock/src/rDock_2013.1_src/data/scripts/dock_solv.prm

>  <Rbt.Receptor>
prm/pocket_docking_7.prm

>  <SCORE>
-26.6547

>  <SCORE.INTER>
-26.6547

>  <SCORE.INTER.CONST>
1

>  <SCORE.INTER.POLAR>
-2.0198

>  <SCORE.INTER.ROT>
0

>  <SCORE.INTER.SOLV>
12.4975

>  <SCORE.INTER.VDW>
-18.8029

>  <SCORE.INTER.norm>
-2.66547

>  <SCORE.INTRA>
0

>  <SCORE.INTRA.DIHEDRAL>
0

>  <SCORE.INTRA.DIHEDRAL.0>
0

>  <SCORE.INTRA.POLAR>
0

>  <SCORE.INTRA.POLAR.0>
0

>  <SCORE.INTRA.REPUL>
0

>  <SCORE.INTRA.REPUL.0>
0

>  <SCORE.INTRA.SOLV>
0

>  <SCORE.INTRA.SOLV.lig_0>
-16.9472

>  <SCORE.INTRA.VDW>
0

>  <SCORE.INTRA.VDW.0>
0

>  <SCORE.INTRA.norm>
0

>  <SCORE.RESTR>
0

>  <SCORE.RESTR.CAVITY>
0

>  <SCORE.RESTR.norm>
0

>  <SCORE.SYSTEM>
0

>  <SCORE.SYSTEM.CONST>
0

>  <SCORE.SYSTEM.DIHEDRAL>
0

>  <SCORE.SYSTEM.SOLV>
0

>  <SCORE.SYSTEM.norm>
0

>  <SCORE.heavy>
10

>  <SCORE.norm>
-2.66547

>  <RMSD>
0.628

$$$$
1y26_lig
 OpenBabel02141814133D
libRbt.so/2013.1/901 2013/11/27
 10 11  0  0  0  0  0  0  0  0999 V2000
   19.6077  -17.0587    2.9371 N   0  0  0  0  0  0  0  0  0  0  0  0
   18.9154  -18.1526    2.6097 C   0  0  0  0  0  0  0  0  0  0  0  0
   18.5724  -19.1774    3.3876 N   0  0  0  0  0  0  0  0  0  0  0  0
   19.0020  -18.9847    4.6551 C   0  0  0  0  0  0  0  0  0  0  0  0
   19.7128  -17.9040    5.1380 C   0  0  0  0  0  0  0  0  0  0  0  0
   20.0230  -16.9041    4.2114 C   0  0  0  0  0  0  0  0  0  0  0  0
   20.7148  -15.8313    4.5599 N   0  0  0  0  0  0  0  0  0  0  0  0
   20.0032  -18.0250    6.4771 N   0  0  0  0  0  0  0  0  0  0  0  0
   19.4326  -19.1719    6.7973 C   0  0  0  0  0  0  0  0  0  0  0  0
   18.8224  -19.8056    5.7364 N   0  0  0  0  0  0  0  0  0  0  0  0
  1  2  2  0  0  0  0
  2  3  1  0  0  0  0
  3  4  2  0  0  0  0
  5  4  1  0  0  0  0
  5  6  2  0  0  0  0
  6  1  1  0  0  0  0
  6  7  1  0  0  0  0
  8  5  1  0  0  0  0
  9  8  1  0  0  0  0
 10  4  1  0  0  0  0
 10  9  2  0  0  0  0
M  END
>  <CHROM.1>
19.48075020,-18.10087458,4.64938824,1.32726550,-1.02382251,-1.13214655

>  <Name>
1y26_lig

>  <RI>
0

>  <Rbt.Current_Directory>
/home/afrankz/demos/rdock_decoys_rna/rnas/1y26

>  <Rbt.Executable>
rbdock ($Id: //depot/dev/client3/rdock/2013.1/src/exe/rbdock.cxx#4 $)

>  <Rbt.Library>
libRbt.so (2013.1, Build901 2013/11/27)

>  <Rbt.Parameter_File>
/export/apps/rDock/src/rDock_2013.1_src/data/scripts/dock_solv.prm

>  <Rbt.Receptor>
prm/blind_docking_60.prm

>  <SCORE>
-26.6554

>  <SCORE.INTER>
-26.6554

>  <SCORE.INTER.CONST>
1

>  <SCORE.INTER.POLAR>
-2.0198

>  <SCORE.INTER.ROT>
0

>  <SCORE.INTER.SOLV>
12.5117

>  <SCORE.INTER.VDW>
-18.8082

>  <SCORE.INTER.norm>
-2.66554

>  <SCORE.INTRA>
0

>  <SCORE.INTRA.DIHEDRAL>
0

>  <SCORE.INTRA.DIHEDRAL.0>
0

>  <SCORE.INTRA.POLAR>
0

>  <SCORE.INTRA.POLAR.0>
0

>  <SCORE.INTRA.REPUL>
0

>  <SCORE.INTRA.REPUL.0>
0

>  <SCORE.INTRA.SOLV>
0

>  <SCORE.INTRA.SOLV.lig_0>
-16.9472

>  <SCORE.INTRA.VDW>
0

>  <SCORE.INTRA.VDW.0>
0

>  <SCORE.INTRA.norm>
0

>  <SCORE.RESTR>
0

>  <SCORE.RESTR.CAVITY>
0

>  <SCORE.RESTR.norm>
0

>  <SCORE.SYSTEM>
0

>  <SCORE.SYSTEM.CONST>
0

>  <SCORE.SYSTEM.DIHEDRAL>
0

>  <SCORE.SYSTEM.SOLV>
0

>  <SCORE.SYSTEM.norm>
0

>  <SCORE.heavy>
10

>  <SCORE.norm>
-2.66554

>  <RMSD>
0.630

$$$$
1y26_lig
 OpenBabel02141814133D
libRbt.so/2013.1/901 2013/11/27
 10 11  0  0  0  0  0  0  0  0999 V2000
   19.6025  -17.0667    2.9395 N   0  0  0  0  0  0  0  0  0  0  0  0
   18.9158  -18.1624    2.6065 C   0  0  0  0  0  0  0  0  0  0  0  0
   18.5715  -19.1894    3.3809 N   0  0  0  0  0  0  0  0  0  0  0  0
   18.9929  -18.9971    4.6512 C   0  0  0  0  0  0  0  0  0  0  0  0
   19.6972  -17.9148    5.1398 C   0  0  0  0  0  0  0  0  0  0  0  0
   20.0097  -16.9126    4.2165 C   0  0  0  0  0  0  0  0  0  0  0  0
   20.6959  -15.8380    4.5706 N   0  0  0  0  0  0  0  0  0  0  0  0
   19.9800  -18.0367    6.4805 N   0  0  0  0  0  0  0  0  0  0  0  0
   19.4112  -19.1859    6.7956 C   0  0  0  0  0  0  0  0  0  0  0  0
   18.8094  -19.8201    5.7303 N   0  0  0  0  0  0  0  0  0  0  0  0
  1  2  2  0  0  0  0
  2  3  1  0  0  0  0
  3  4  2  0  0  0  0
  5  4  1  0  0  0  0
  5  6  2  0  0  0  0
  6  1  1  0  0  0  0
  6  7  1  0  0  0  0
  8  5  1  0  0  0  0
  9  8  1  0  0  0  0
 10  4  1  0  0  0  0
 10  9  2  0  0  0  0
M  END
>  <CHROM.1>
19.46872703,-18.11169267,4.64957622,1.31941852,-1.02929935,-1.13747666

>  <Name>
1y26_lig

>  <RI>
224

>  <Rbt.Current_Directory>
/home/afrankz/demos/rdock_decoys_rna/rnas/1y26

>  <Rbt.Executable>
rbdock ($Id: //depot/dev/client3/rdock/2013.1/src/exe/rbdock.cxx#4 $)

>  <Rbt.Library>
libRbt.so (2013.1, Build901 2013/11/27)

>  <Rbt.Parameter_File>
/export/apps/rDock/src/rDock_2013.1_src/data/scripts/dock_solv.prm

>  <Rbt.Receptor>
prm/pocket_docking_3.prm

>  <SCORE>
-26.6717

>  <SCORE.INTER>
-26.6717

>  <SCORE.INTER.CONST>
1

>  <SCORE.INTER.POLAR>
-2.0198

>  <SCORE.INTER.ROT>
0

>  <SCORE.INTER.SOLV>
12.5353

>  <SCORE.INTER.VDW>
-18.8269

>  <SCORE.INTER.norm>
-2.66717

>  <SCORE.INTRA>
0

>  <SCORE.INTRA.DIHEDRAL>
0

>  <SCORE.INTRA.DIHEDRAL.0>
0

>  <SCORE.INTRA.POLAR>
0

>  <SCORE.INTRA.POLAR.0>
0

>  <SCORE.INTRA.REPUL>
0

>  <SCORE.INTRA.REPUL.0>
0

>  <SCORE.INTRA.SOLV>
0

>  <SCORE.INTRA.SOLV.lig_0>
-16.9472

>  <SCORE.INTRA.VDW>
0

>  <SCORE.INTRA.VDW.0>
0

>  <SCORE.INTRA.norm>
0

>  <SCORE.RESTR>
0

>  <SCORE.RESTR.CAVITY>
0

>  <SCORE.RESTR.norm>
0

>  <SCORE.SYSTEM>
0

>  <SCORE.SYSTEM.CONST>
0

>  <SCORE.SYSTEM.DIHEDRAL>
0

>  <SCORE.SYSTEM.SOLV>
0

>  <SCORE.SYSTEM.norm>
0

>  <SCORE.heavy>
10

>  <SCORE.norm>
-2.66717

>  <RMSD>
0.632

$$$$
1y26_lig
 OpenBabel02141814133D
libRbt.so/2013.1/901 2013/11/27
 10 11  0  0  0  0  0  0  0  0999 V2000
   19.6120  -17.0643    2.9434 N   0  0  0  0  0  0  0  0  0  0  0  0
   18.9213  -18.1564    2.6067 C   0  0  0  0  0  0  0  0  0  0  0  0
   18.5600  -19.1773    3.3814 N   0  0  0  0  0  0  0  0  0  0  0  0
   18.9670  -18.9824    4.6559 C   0  0  0  0  0  0  0  0  0  0  0  0
   19.6732  -17.9030    5.1485 C   0  0  0  0  0  0  0  0  0  0  0  0
   20.0044  -16.9073    4.2246 C   0  0  0  0  0  0  0  0  0  0  0  0
   20.6941  -15.8361    4.5824 N   0  0  0  0  0  0  0  0  0  0  0  0
   19.9385  -18.0208    6.4931 N   0  0  0  0  0  0  0  0  0  0  0  0
   19.3575  -19.1644    6.8062 C   0  0  0  0  0  0  0  0  0  0  0  0
   18.7642  -19.7991    5.7363 N   0  0  0  0  0  0  0  0  0  0  0  0
  1  2  2  0  0  0  0
  2  3  1  0  0  0  0
  3  4  2  0  0  0  0
  5  4  1  0  0  0  0
  5  6  2  0  0  0  0
  6  1  1  0  0  0  0
  6  7  1  0  0  0  0
  8  5  1  0  0  0  0
  9  8  1  0  0  0  0
 10  4  1  0  0  0  0
 10  9  2  0  0  0  0
M  END
>  <CHROM.1>
19.44936643,-18.10047076,4.65629388,1.29175945,-1.02767619,-1.16566896

>  <Name>
1y26_lig

>  <RI>
0

>  <Rbt.Current_Directory>
/home/afrankz/demos/rdock_decoys_rna/rnas/1y26

>  <Rbt.Executable>
rbdock ($Id: //depot/dev/client3/rdock/2013.1/src/exe/rbdock.cxx#4 $)

>  <Rbt.Library>
libRbt.so (2013.1, Build901 2013/11/27)

>  <Rbt.Parameter_File>
/export/apps/rDock/src/rDock_2013.1_src/data/scripts/dock_solv.prm

>  <Rbt.Receptor>
prm/pocket_docking_5.prm

>  <SCORE>
-26.6503

>  <SCORE.INTER>
-26.6503

>  <SCORE.INTER.CONST>
1

>  <SCORE.INTER.POLAR>
-2.0198

>  <SCORE.INTER.ROT>
0

>  <SCORE.INTER.SOLV>
12.5129

>  <SCORE.INTER.VDW>
-18.8052

>  <SCORE.INTER.norm>
-2.66503

>  <SCORE.INTRA>
0

>  <SCORE.INTRA.DIHEDRAL>
0

>  <SCORE.INTRA.DIHEDRAL.0>
0

>  <SCORE.INTRA.POLAR>
0

>  <SCORE.INTRA.POLAR.0>
0

>  <SCORE.INTRA.REPUL>
0

>  <SCORE.INTRA.REPUL.0>
0

>  <SCORE.INTRA.SOLV>
0

>  <SCORE.INTRA.SOLV.lig_0>
-16.9472

>  <SCORE.INTRA.VDW>
0

>  <SCORE.INTRA.VDW.0>
0

>  <SCORE.INTRA.norm>
0

>  <SCORE.RESTR>
0

>  <SCORE.RESTR.CAVITY>
0

>  <SCORE.RESTR.norm>
0

>  <SCORE.SYSTEM>
0

>  <SCORE.SYSTEM.CONST>
0

>  <SCORE.SYSTEM.DIHEDRAL>
0

>  <SCORE.SYSTEM.SOLV>
0

>  <SCORE.SYSTEM.norm>
0

>  <SCORE.heavy>
10

>  <SCORE.norm>
-2.66503

>  <RMSD>
0.632

$$$$
1y26_lig
 OpenBabel02141814133D
libRbt.so/2013.1/901 2013/11/27
 10 11  0  0  0  0  0  0  0  0999 V2000
   19.6126  -17.0596    2.9463 N   0  0  0  0  0  0  0  0  0  0  0  0
   18.9118  -18.1453    2.6100 C   0  0  0  0  0  0  0  0  0  0  0  0
   18.5536  -19.1697    3.3815 N   0  0  0  0  0  0  0  0  0  0  0  0
   18.9768  -18.9863    4.6526 C   0  0  0  0  0  0  0  0  0  0  0  0
   19.6950  -17.9146    5.1445 C   0  0  0  0  0  0  0  0  0  0  0  0
   20.0210  -16.9142    4.2239 C   0  0  0  0  0  0  0  0  0  0  0  0
   20.7211  -15.8496    4.5813 N   0  0  0  0  0  0  0  0  0  0  0  0
   19.9754  -18.0438    6.4850 N   0  0  0  0  0  0  0  0  0  0  0  0
   19.3914  -19.1863    6.7967 C   0  0  0  0  0  0  0  0  0  0  0  0
   18.7819  -19.8097    5.7293 N   0  0  0  0  0  0  0  0  0  0  0  0
  1  2  2  0  0  0  0
  2  3  1  0  0  0  0
  3  4  2  0  0  0  0
  5  4  1  0  0  0  0
  5  6  2  0  0  0  0
  6  1  1  0  0  0  0
  6  7  1  0  0  0  0
  8  5  1  0  0  0  0
  9  8  1  0  0  0  0
 10  4  1  0  0  0  0
 10  9  2  0  0  0  0
M  END
>  <CHROM.1>
19.46420551,-18.10724733,4.65355554,1.30799075,-1.01762638,-1.14458378

>  <Name>
1y26_lig

>  <RI>
224

>  <Rbt.Current_Directory>
/home/afrankz/demos/rdock_decoys_rna/rnas/1y26

>  <Rbt.Executable>
rbdock ($Id: //depot/dev/client3/rdock/2013.1/src/exe/rbdock.cxx#4 $)

>  <Rbt.Library>
libRbt.so (2013.1, Build901 2013/11/27)

>  <Rbt.Parameter_File>
/export/apps/rDock/src/rDock_2013.1_src/data/scripts/dock_solv.prm

>  <Rbt.Receptor>
prm/blind_docking_80.prm

>  <SCORE>
-26.6836

>  <SCORE.INTER>
-26.6836

>  <SCORE.INTER.CONST>
1

>  <SCORE.INTER.POLAR>
-2.0198

>  <SCORE.INTER.ROT>
0

>  <SCORE.INTER.SOLV>
12.4938

>  <SCORE.INTER.VDW>
-18.821

>  <SCORE.INTER.norm>
-2.66836

>  <SCORE.INTRA>
0

>  <SCORE.INTRA.DIHEDRAL>
0

>  <SCORE.INTRA.DIHEDRAL.0>
0

>  <SCORE.INTRA.POLAR>
0

>  <SCORE.INTRA.POLAR.0>
0

>  <SCORE.INTRA.REPUL>
0

>  <SCORE.INTRA.REPUL.0>
0

>  <SCORE.INTRA.SOLV>
0

>  <SCORE.INTRA.SOLV.lig_0>
-16.9472

>  <SCORE.INTRA.VDW>
0

>  <SCORE.INTRA.VDW.0>
0

>  <SCORE.INTRA.norm>
0

>  <SCORE.RESTR>
0

>  <SCORE.RESTR.CAVITY>
0

>  <SCORE.RESTR.norm>
0

>  <SCORE.SYSTEM>
0

>  <SCORE.SYSTEM.CONST>
0

>  <SCORE.SYSTEM.DIHEDRAL>
0

>  <SCORE.SYSTEM.SOLV>
0

>  <SCORE.SYSTEM.norm>
0

>  <SCORE.heavy>
10

>  <SCORE.norm>
-2.66836

>  <RMSD>
0.633

$$$$
1y26_lig
 OpenBabel02141814133D
libRbt.so/2013.1/901 2013/11/27
 10 11  0  0  0  0  0  0  0  0999 V2000
   19.4532  -17.0733    2.9453 N   0  0  0  0  0  0  0  0  0  0  0  0
   18.7714  -18.1886    2.6728 C   0  0  0  0  0  0  0  0  0  0  0  0
   18.4697  -19.1940    3.4920 N   0  0  0  0  0  0  0  0  0  0  0  0
   18.9326  -18.9541    4.7396 C   0  0  0  0  0  0  0  0  0  0  0  0
   19.6377  -17.8468    5.1673 C   0  0  0  0  0  0  0  0  0  0  0  0
   19.9027  -16.8716    4.2013 C   0  0  0  0  0  0  0  0  0  0  0  0
   20.5850  -15.7766    4.4957 N   0  0  0  0  0  0  0  0  0  0  0  0
   19.9691  -17.9205    6.5004 N   0  0  0  0  0  0  0  0  0  0  0  0
   19.4288  -19.0663    6.8728 C   0  0  0  0  0  0  0  0  0  0  0  0
   18.7993  -19.7435    5.8507 N   0  0  0  0  0  0  0  0  0  0  0  0
  1  2  2  0  0  0  0
  2  3  1  0  0  0  0
  3  4  2  0  0  0  0
  5  4  1  0  0  0  0
  5  6  2  0  0  0  0
  6  1  1  0  0  0  0
  6  7  1  0  0  0  0
  8  5  1  0  0  0  0
  9  8  1  0  0  0  0
 10  4  1  0  0  0  0
 10  9  2  0  0  0  0
M  END
>  <CHROM.1>
19.39498978,-18.06292207,4.69219046,1.39305540,-1.02672202,-1.10723064

>  <Name>
1y26_lig

>  <RI>
0

>  <Rbt.Current_Directory>
/home/afrankz/demos/rdock_decoys_rna/rnas/1y26

>  <Rbt.Executable>
rbdock ($Id: //depot/dev/client3/rdock/2013.1/src/exe/rbdock.cxx#4 $)

>  <Rbt.Library>
libRbt.so (2013.1, Build901 2013/11/27)

>  <Rbt.Parameter_File>
/export/apps/rDock/src/rDock_2013.1_src/data/scripts/dock_solv.prm

>  <Rbt.Receptor>
prm/blind_docking_40.prm

>  <SCORE>
-26.6307

>  <SCORE.INTER>
-26.6307

>  <SCORE.INTER.CONST>
1

>  <SCORE.INTER.POLAR>
-2.0198

>  <SCORE.INTER.ROT>
0

>  <SCORE.INTER.SOLV>
12.7347

>  <SCORE.INTER.VDW>
-18.8661

>  <SCORE.INTER.norm>
-2.66307

>  <SCORE.INTRA>
0

>  <SCORE.INTRA.DIHEDRAL>
0

>  <SCORE.INTRA.DIHEDRAL.0>
0

>  <SCORE.INTRA.POLAR>
0

>  <SCORE.INTRA.POLAR.0>
0

>  <SCORE.INTRA.REPUL>
0

>  <SCORE.INTRA.REPUL.0>
0

>  <SCORE.INTRA.SOLV>
0

>  <SCORE.INTRA.SOLV.lig_0>
-16.9472

>  <SCORE.INTRA.VDW>
0

>  <SCORE.INTRA.VDW.0>
0

>  <SCORE.INTRA.norm>
0

>  <SCORE.RESTR>
0

>  <SCORE.RESTR.CAVITY>
0

>  <SCORE.RESTR.norm>
0

>  <SCORE.SYSTEM>
0

>  <SCORE.SYSTEM.CONST>
0

>  <SCORE.SYSTEM.DIHEDRAL>
0

>  <SCORE.SYSTEM.SOLV>
0

>  <SCORE.SYSTEM.norm>
0

>  <SCORE.heavy>
10

>  <SCORE.norm>
-2.66307

>  <RMSD>
0.634

$$$$
1y26_lig
 OpenBabel02141814133D
libRbt.so/2013.1/901 2013/11/27
 10 11  0  0  0  0  0  0  0  0999 V2000
   19.6153  -17.0665    2.9448 N   0  0  0  0  0  0  0  0  0  0  0  0
   18.9190  -18.1560    2.6113 C   0  0  0  0  0  0  0  0  0  0  0  0
   18.5581  -19.1760    3.3873 N   0  0  0  0  0  0  0  0  0  0  0  0
   18.9726  -18.9832    4.6598 C   0  0  0  0  0  0  0  0  0  0  0  0
   19.6852  -17.9066    5.1491 C   0  0  0  0  0  0  0  0  0  0  0  0
   20.0150  -16.9116    4.2240 C   0  0  0  0  0  0  0  0  0  0  0  0
   20.7104  -15.8430    4.5788 N   0  0  0  0  0  0  0  0  0  0  0  0
   19.9572  -18.0261    6.4923 N   0  0  0  0  0  0  0  0  0  0  0  0
   19.3738  -19.1678    6.8079 C   0  0  0  0  0  0  0  0  0  0  0  0
   18.7726  -19.7998    5.7408 N   0  0  0  0  0  0  0  0  0  0  0  0
  1  2  2  0  0  0  0
  2  3  1  0  0  0  0
  3  4  2  0  0  0  0
  5  4  1  0  0  0  0
  5  6  2  0  0  0  0
  6  1  1  0  0  0  0
  6  7  1  0  0  0  0
  8  5  1  0  0  0  0
  9  8  1  0  0  0  0
 10  4  1  0  0  0  0
 10  9  2  0  0  0  0
M  END
>  <CHROM.1>
19.45807979,-18.10300197,4.65803234,1.29840533,-1.02232242,-1.15945627

>  <Name>
1y26_lig

>  <RI>
0

>  <Rbt.Current_Directory>
/home/afrankz/demos/rdock_decoys_rna/rnas/1y26

>  <Rbt.Executable>
rbdock ($Id: //depot/dev/client3/rdock/2013.1/src/exe/rbdock.cxx#4 $)

>  <Rbt.Library>
libRbt.so (2013.1, Build901 2013/11/27)

>  <Rbt.Parameter_File>
/export/apps/rDock/src/rDock_2013.1_src/data/scripts/dock_solv.prm

>  <Rbt.Receptor>
prm/blind_docking_40.prm

>  <SCORE>
-26.645

>  <SCORE.INTER>
-26.645

>  <SCORE.INTER.CONST>
1

>  <SCORE.INTER.POLAR>
-2.0198

>  <SCORE.INTER.ROT>
0

>  <SCORE.INTER.SOLV>
12.4917

>  <SCORE.INTER.VDW>
-18.7946

>  <SCORE.INTER.norm>
-2.6645

>  <SCORE.INTRA>
0

>  <SCORE.INTRA.DIHEDRAL>
0

>  <SCORE.INTRA.DIHEDRAL.0>
0

>  <SCORE.INTRA.POLAR>
0

>  <SCORE.INTRA.POLAR.0>
0

>  <SCORE.INTRA.REPUL>
0

>  <SCORE.INTRA.REPUL.0>
0

>  <SCORE.INTRA.SOLV>
0

>  <SCORE.INTRA.SOLV.lig_0>
-16.9472

>  <SCORE.INTRA.VDW>
0

>  <SCORE.INTRA.VDW.0>
0

>  <SCORE.INTRA.norm>
0

>  <SCORE.RESTR>
0

>  <SCORE.RESTR.CAVITY>
0

>  <SCORE.RESTR.norm>
0

>  <SCORE.SYSTEM>
0

>  <SCORE.SYSTEM.CONST>
0

>  <SCORE.SYSTEM.DIHEDRAL>
0

>  <SCORE.SYSTEM.SOLV>
0

>  <SCORE.SYSTEM.norm>
0

>  <SCORE.heavy>
10

>  <SCORE.norm>
-2.6645

>  <RMSD>
0.634

$$$$
1y26_lig
 OpenBabel02141814133D
libRbt.so/2013.1/901 2013/11/27
 10 11  0  0  0  0  0  0  0  0999 V2000
   19.5947  -17.0664    2.9428 N   0  0  0  0  0  0  0  0  0  0  0  0
   18.8962  -18.1581    2.6214 C   0  0  0  0  0  0  0  0  0  0  0  0
   18.5542  -19.1804    3.4030 N   0  0  0  0  0  0  0  0  0  0  0  0
   18.9925  -18.9875    4.6675 C   0  0  0  0  0  0  0  0  0  0  0  0
   19.7104  -17.9088    5.1443 C   0  0  0  0  0  0  0  0  0  0  0  0
   20.0185  -16.9115    4.2142 C   0  0  0  0  0  0  0  0  0  0  0  0
   20.7166  -15.8408    4.5568 N   0  0  0  0  0  0  0  0  0  0  0  0
   20.0087  -18.0289    6.4818 N   0  0  0  0  0  0  0  0  0  0  0  0
   19.4358  -19.1731    6.8072 C   0  0  0  0  0  0  0  0  0  0  0  0
   18.8164  -19.8061    5.7511 N   0  0  0  0  0  0  0  0  0  0  0  0
  1  2  2  0  0  0  0
  2  3  1  0  0  0  0
  3  4  2  0  0  0  0
  5  4  1  0  0  0  0
  5  6  2  0  0  0  0
  6  1  1  0  0  0  0
  6  7  1  0  0  0  0
  8  5  1  0  0  0  0
  9  8  1  0  0  0  0
 10  4  1  0  0  0  0
 10  9  2  0  0  0  0
M  END
>  <CHROM.1>
19.47449980,-18.10550453,4.65743590,1.33497825,-1.01771063,-1.12709124

>  <Name>
1y26_lig

>  <RI>
0

>  <Rbt.Current_Directory>
/home/afrankz/demos/rdock_decoys_rna/rnas/1y26

>  <Rbt.Executable>
rbdock ($Id: //depot/dev/client3/rdock/2013.1/src/exe/rbdock.cxx#4 $)

>  <Rbt.Library>
libRbt.so (2013.1, Build901 2013/11/27)

>  <Rbt.Parameter_File>
/export/apps/rDock/src/rDock_2013.1_src/data/scripts/dock_solv.prm

>  <Rbt.Receptor>
prm/pocket_docking_4.prm

>  <SCORE>
-26.6328

>  <SCORE.INTER>
-26.6328

>  <SCORE.INTER.CONST>
1

>  <SCORE.INTER.POLAR>
-2.0198

>  <SCORE.INTER.ROT>
0

>  <SCORE.INTER.SOLV>
12.5147

>  <SCORE.INTER.VDW>
-18.7941

>  <SCORE.INTER.norm>
-2.66328

>  <SCORE.INTRA>
0

>  <SCORE.INTRA.DIHEDRAL>
0

>  <SCORE.INTRA.DIHEDRAL.0>
0

>  <SCORE.INTRA.POLAR>
0

>  <SCORE.INTRA.POLAR.0>
0

>  <SCORE.INTRA.REPUL>
0

>  <SCORE.INTRA.REPUL.0>
0

>  <SCORE.INTRA.SOLV>
0

>  <SCORE.INTRA.SOLV.lig_0>
-16.9472

>  <SCORE.INTRA.VDW>
0

>  <SCORE.INTRA.VDW.0>
0

>  <SCORE.INTRA.norm>
0

>  <SCORE.RESTR>
0

>  <SCORE.RESTR.CAVITY>
0

>  <SCORE.RESTR.norm>
0

>  <SCORE.SYSTEM>
0

>  <SCORE.SYSTEM.CONST>
0

>  <SCORE.SYSTEM.DIHEDRAL>
0

>  <SCORE.SYSTEM.SOLV>
0

>  <SCORE.SYSTEM.norm>
0

>  <SCORE.heavy>
10

>  <SCORE.norm>
-2.66328

>  <RMSD>
0.634

$$$$
1y26_lig
 OpenBabel02141814133D
libRbt.so/2013.1/901 2013/11/27
 10 11  0  0  0  0  0  0  0  0999 V2000
   19.5985  -17.0594    2.9437 N   0  0  0  0  0  0  0  0  0  0  0  0
   18.9145  -18.1557    2.6073 C   0  0  0  0  0  0  0  0  0  0  0  0
   18.5735  -19.1864    3.3783 N   0  0  0  0  0  0  0  0  0  0  0  0
   18.9954  -18.9976    4.6489 C   0  0  0  0  0  0  0  0  0  0  0  0
   19.6972  -17.9151    5.1409 C   0  0  0  0  0  0  0  0  0  0  0  0
   20.0062  -16.9088    4.2209 C   0  0  0  0  0  0  0  0  0  0  0  0
   20.6898  -15.8336    4.5784 N   0  0  0  0  0  0  0  0  0  0  0  0
   19.9814  -18.0411    6.4809 N   0  0  0  0  0  0  0  0  0  0  0  0
   19.4160  -19.1929    6.7924 C   0  0  0  0  0  0  0  0  0  0  0  0
   18.8150  -19.8250    5.7252 N   0  0  0  0  0  0  0  0  0  0  0  0
  1  2  2  0  0  0  0
  2  3  1  0  0  0  0
  3  4  2  0  0  0  0
  5  4  1  0  0  0  0
  5  6  2  0  0  0  0
  6  1  1  0  0  0  0
  6  7  1  0  0  0  0
  8  5  1  0  0  0  0
  9  8  1  0  0  0  0
 10  4  1  0  0  0  0
 10  9  2  0  0  0  0
M  END
>  <CHROM.1>
19.46887497,-18.11089021,4.65013137,1.32301954,-1.03143500,-1.13079021

>  <Name>
1y26_lig

>  <RI>
0

>  <Rbt.Current_Directory>
/home/afrankz/demos/rdock_decoys_rna/rnas/1y26

>  <Rbt.Executable>
rbdock ($Id: //depot/dev/client3/rdock/2013.1/src/exe/rbdock.cxx#4 $)

>  <Rbt.Library>
libRbt.so (2013.1, Build901 2013/11/27)

>  <Rbt.Parameter_File>
/export/apps/rDock/src/rDock_2013.1_src/data/scripts/dock_solv.prm

>  <Rbt.Receptor>
prm/blind_docking_100.prm

>  <SCORE>
-26.6676

>  <SCORE.INTER>
-26.6676

>  <SCORE.INTER.CONST>
1

>  <SCORE.INTER.POLAR>
-2.0198

>  <SCORE.INTER.ROT>
0

>  <SCORE.INTER.SOLV>
12.5573

>  <SCORE.INTER.VDW>
-18.8315

>  <SCORE.INTER.norm>
-2.66676

>  <SCORE.INTRA>
0

>  <SCORE.INTRA.DIHEDRAL>
0

>  <SCORE.INTRA.DIHEDRAL.0>
0

>  <SCORE.INTRA.POLAR>
0

>  <SCORE.INTRA.POLAR.0>
0

>  <SCORE.INTRA.REPUL>
0

>  <SCORE.INTRA.REPUL.0>
0

>  <SCORE.INTRA.SOLV>
0

>  <SCORE.INTRA.SOLV.lig_0>
-16.9472

>  <SCORE.INTRA.VDW>
0

>  <SCORE.INTRA.VDW.0>
0

>  <SCORE.INTRA.norm>
0

>  <SCORE.RESTR>
0

>  <SCORE.RESTR.CAVITY>
0

>  <SCORE.RESTR.norm>
0

>  <SCORE.SYSTEM>
0

>  <SCORE.SYSTEM.CONST>
0

>  <SCORE.SYSTEM.DIHEDRAL>
0

>  <SCORE.SYSTEM.SOLV>
0

>  <SCORE.SYSTEM.norm>
0

>  <SCORE.heavy>
10

>  <SCORE.norm>
-2.66676

>  <RMSD>
0.635

$$$$
1y26_lig
 OpenBabel02141814133D
libRbt.so/2013.1/901 2013/11/27
 10 11  0  0  0  0  0  0  0  0999 V2000
   19.4406  -17.0696    2.9411 N   0  0  0  0  0  0  0  0  0  0  0  0
   18.7823  -18.1991    2.6691 C   0  0  0  0  0  0  0  0  0  0  0  0
   18.5002  -19.2094    3.4893 N   0  0  0  0  0  0  0  0  0  0  0  0
   18.9563  -18.9584    4.7372 C   0  0  0  0  0  0  0  0  0  0  0  0
   19.6379  -17.8362    5.1644 C   0  0  0  0  0  0  0  0  0  0  0  0
   19.8841  -16.8570    4.1974 C   0  0  0  0  0  0  0  0  0  0  0  0
   20.5433  -15.7478    4.4911 N   0  0  0  0  0  0  0  0  0  0  0  0
   19.9690  -17.9013    6.4980 N   0  0  0  0  0  0  0  0  0  0  0  0
   19.4518  -19.0574    6.8712 C   0  0  0  0  0  0  0  0  0  0  0  0
   18.8378  -19.7488    5.8492 N   0  0  0  0  0  0  0  0  0  0  0  0
  1  2  2  0  0  0  0
  2  3  1  0  0  0  0
  3  4  2  0  0  0  0
  5  4  1  0  0  0  0
  5  6  2  0  0  0  0
  6  1  1  0  0  0  0
  6  7  1  0  0  0  0
  8  5  1  0  0  0  0
  9  8  1  0  0  0  0
 10  4  1  0  0  0  0
 10  9  2  0  0  0  0
M  END
>  <CHROM.1>
19.40037618,-18.05790455,4.68921627,1.40897533,-1.04569717,-1.09488652

>  <Name>
1y26_lig

>  <RI>
224

>  <Rbt.Current_Directory>
/home/afrankz/demos/rdock_decoys_rna/rnas/1y26

>  <Rbt.Executable>
rbdock ($Id: //depot/dev/client3/rdock/2013.1/src/exe/rbdock.cxx#4 $)

>  <Rbt.Library>
libRbt.so (2013.1, Build901 2013/11/27)

>  <Rbt.Parameter_File>
/export/apps/rDock/src/rDock_2013.1_src/data/scripts/dock_solv.prm

>  <Rbt.Receptor>
prm/blind_docking_80.prm

>  <SCORE>
-26.6677

>  <SCORE.INTER>
-26.6677

>  <SCORE.INTER.CONST>
1

>  <SCORE.INTER.POLAR>
-2.0198

>  <SCORE.INTER.ROT>
0

>  <SCORE.INTER.SOLV>
12.8102

>  <SCORE.INTER.VDW>
-18.9158

>  <SCORE.INTER.norm>
-2.66677

>  <SCORE.INTRA>
0

>  <SCORE.INTRA.DIHEDRAL>
0

>  <SCORE.INTRA.DIHEDRAL.0>
0

>  <SCORE.INTRA.POLAR>
0

>  <SCORE.INTRA.POLAR.0>
0

>  <SCORE.INTRA.REPUL>
0

>  <SCORE.INTRA.REPUL.0>
0

>  <SCORE.INTRA.SOLV>
0

>  <SCORE.INTRA.SOLV.lig_0>
-16.9472

>  <SCORE.INTRA.VDW>
0

>  <SCORE.INTRA.VDW.0>
0

>  <SCORE.INTRA.norm>
0

>  <SCORE.RESTR>
0

>  <SCORE.RESTR.CAVITY>
0

>  <SCORE.RESTR.norm>
0

>  <SCORE.SYSTEM>
0

>  <SCORE.SYSTEM.CONST>
0

>  <SCORE.SYSTEM.DIHEDRAL>
0

>  <SCORE.SYSTEM.SOLV>
0

>  <SCORE.SYSTEM.norm>
0

>  <SCORE.heavy>
10

>  <SCORE.norm>
-2.66677

>  <RMSD>
0.636

$$$$
1y26_lig
 OpenBabel02141814133D
libRbt.so/2013.1/901 2013/11/27
 10 11  0  0  0  0  0  0  0  0999 V2000
   19.5131  -17.0636    2.9424 N   0  0  0  0  0  0  0  0  0  0  0  0
   18.8578  -18.1888    2.6466 C   0  0  0  0  0  0  0  0  0  0  0  0
   18.5477  -19.2014    3.4538 N   0  0  0  0  0  0  0  0  0  0  0  0
   18.9691  -18.9580    4.7153 C   0  0  0  0  0  0  0  0  0  0  0  0
   19.6431  -17.8409    5.1670 C   0  0  0  0  0  0  0  0  0  0  0  0
   19.9214  -16.8586    4.2119 C   0  0  0  0  0  0  0  0  0  0  0  0
   20.5769  -15.7538    4.5294 N   0  0  0  0  0  0  0  0  0  0  0  0
   19.9355  -17.9134    6.5092 N   0  0  0  0  0  0  0  0  0  0  0  0
   19.4027  -19.0688    6.8622 C   0  0  0  0  0  0  0  0  0  0  0  0
   18.8151  -19.7528    5.8199 N   0  0  0  0  0  0  0  0  0  0  0  0
  1  2  2  0  0  0  0
  2  3  1  0  0  0  0
  3  4  2  0  0  0  0
  5  4  1  0  0  0  0
  5  6  2  0  0  0  0
  6  1  1  0  0  0  0
  6  7  1  0  0  0  0
  8  5  1  0  0  0  0
  9  8  1  0  0  0  0
 10  4  1  0  0  0  0
 10  9  2  0  0  0  0
M  END
>  <CHROM.1>
19.41834103,-18.05941250,4.68418358,1.35315987,-1.05415828,-1.13882501

>  <Name>
1y26_lig

>  <RI>
224

>  <Rbt.Current_Directory>
/home/afrankz/demos/rdock_decoys_rna/rnas/1y26

>  <Rbt.Executable>
rbdock ($Id: //depot/dev/client3/rdock/2013.1/src/exe/rbdock.cxx#4 $)

>  <Rbt.Library>
libRbt.so (2013.1, Build901 2013/11/27)

>  <Rbt.Parameter_File>
/export/apps/rDock/src/rDock_2013.1_src/data/scripts/dock_solv.prm

>  <Rbt.Receptor>
prm/pocket_docking_3.prm

>  <SCORE>
-26.6227

>  <SCORE.INTER>
-26.6227

>  <SCORE.INTER.CONST>
1

>  <SCORE.INTER.POLAR>
-2.0198

>  <SCORE.INTER.ROT>
0

>  <SCORE.INTER.SOLV>
12.7162

>  <SCORE.INTER.VDW>
-18.8545

>  <SCORE.INTER.norm>
-2.66227

>  <SCORE.INTRA>
0

>  <SCORE.INTRA.DIHEDRAL>
0

>  <SCORE.INTRA.DIHEDRAL.0>
0

>  <SCORE.INTRA.POLAR>
0

>  <SCORE.INTRA.POLAR.0>
0

>  <SCORE.INTRA.REPUL>
0

>  <SCORE.INTRA.REPUL.0>
0

>  <SCORE.INTRA.SOLV>
0

>  <SCORE.INTRA.SOLV.lig_0>
-16.9472

>  <SCORE.INTRA.VDW>
0

>  <SCORE.INTRA.VDW.0>
0

>  <SCORE.INTRA.norm>
0

>  <SCORE.RESTR>
0

>  <SCORE.RESTR.CAVITY>
0

>  <SCORE.RESTR.norm>
0

>  <SCORE.SYSTEM>
0

>  <SCORE.SYSTEM.CONST>
0

>  <SCORE.SYSTEM.DIHEDRAL>
0

>  <SCORE.SYSTEM.SOLV>
0

>  <SCORE.SYSTEM.norm>
0

>  <SCORE.heavy>
10

>  <SCORE.norm>
-2.66227

>  <RMSD>
0.637

$$$$
1y26_lig
 OpenBabel02141814133D
libRbt.so/2013.1/901 2013/11/27
 10 11  0  0  0  0  0  0  0  0999 V2000
   19.4439  -17.0789    2.9398 N   0  0  0  0  0  0  0  0  0  0  0  0
   18.7880  -18.2094    2.6661 C   0  0  0  0  0  0  0  0  0  0  0  0
   18.5032  -19.2191    3.4860 N   0  0  0  0  0  0  0  0  0  0  0  0
   18.9534  -18.9662    4.7357 C   0  0  0  0  0  0  0  0  0  0  0  0
   19.6318  -17.8428    5.1648 C   0  0  0  0  0  0  0  0  0  0  0  0
   19.8814  -16.8644    4.1978 C   0  0  0  0  0  0  0  0  0  0  0  0
   20.5382  -15.7543    4.4934 N   0  0  0  0  0  0  0  0  0  0  0  0
   19.9569  -17.9061    6.4999 N   0  0  0  0  0  0  0  0  0  0  0  0
   19.4393  -19.0624    6.8721 C   0  0  0  0  0  0  0  0  0  0  0  0
   18.8306  -19.7555    5.8480 N   0  0  0  0  0  0  0  0  0  0  0  0
  1  2  2  0  0  0  0
  2  3  1  0  0  0  0
  3  4  2  0  0  0  0
  5  4  1  0  0  0  0
  5  6  2  0  0  0  0
  6  1  1  0  0  0  0
  6  7  1  0  0  0  0
  8  5  1  0  0  0  0
  9  8  1  0  0  0  0
 10  4  1  0  0  0  0
 10  9  2  0  0  0  0
M  END
>  <CHROM.1>
19.39674278,-18.06529678,4.68877525,1.40179042,-1.04870711,-1.10220498

>  <Name>
1y26_lig

>  <RI>
224

>  <Rbt.Current_Directory>
/home/afrankz/demos/rdock_decoys_rna/rnas/1y26

>  <Rbt.Executable>
rbdock ($Id: //depot/dev/client3/rdock/2013.1/src/exe/rbdock.cxx#4 $)

>  <Rbt.Library>
libRbt.so (2013.1, Build901 2013/11/27)

>  <Rbt.Parameter_File>
/export/apps/rDock/src/rDock_2013.1_src/data/scripts/dock_solv.prm

>  <Rbt.Receptor>
prm/pocket_docking_3.prm

>  <SCORE>
-26.669

>  <SCORE.INTER>
-26.669

>  <SCORE.INTER.CONST>
1

>  <SCORE.INTER.POLAR>
-2.0198

>  <SCORE.INTER.ROT>
0

>  <SCORE.INTER.SOLV>
12.8053

>  <SCORE.INTER.VDW>
-18.9151

>  <SCORE.INTER.norm>
-2.6669

>  <SCORE.INTRA>
0

>  <SCORE.INTRA.DIHEDRAL>
0

>  <SCORE.INTRA.DIHEDRAL.0>
0

>  <SCORE.INTRA.POLAR>
0

>  <SCORE.INTRA.POLAR.0>
0

>  <SCORE.INTRA.REPUL>
0

>  <SCORE.INTRA.REPUL.0>
0

>  <SCORE.INTRA.SOLV>
0

>  <SCORE.INTRA.SOLV.lig_0>
-16.9472

>  <SCORE.INTRA.VDW>
0

>  <SCORE.INTRA.VDW.0>
0

>  <SCORE.INTRA.norm>
0

>  <SCORE.RESTR>
0

>  <SCORE.RESTR.CAVITY>
0

>  <SCORE.RESTR.norm>
0

>  <SCORE.SYSTEM>
0

>  <SCORE.SYSTEM.CONST>
0

>  <SCORE.SYSTEM.DIHEDRAL>
0

>  <SCORE.SYSTEM.SOLV>
0

>  <SCORE.SYSTEM.norm>
0

>  <SCORE.heavy>
10

>  <SCORE.norm>
-2.6669

>  <RMSD>
0.637

$$$$
1y26_lig
 OpenBabel02141814133D
libRbt.so/2013.1/901 2013/11/27
 10 11  0  0  0  0  0  0  0  0999 V2000
   19.4378  -17.0773    2.9414 N   0  0  0  0  0  0  0  0  0  0  0  0
   18.7796  -18.2072    2.6712 C   0  0  0  0  0  0  0  0  0  0  0  0
   18.4982  -19.2166    3.4927 N   0  0  0  0  0  0  0  0  0  0  0  0
   18.9551  -18.9640    4.7400 C   0  0  0  0  0  0  0  0  0  0  0  0
   19.6366  -17.8411    5.1655 C   0  0  0  0  0  0  0  0  0  0  0  0
   19.8820  -16.8630    4.1972 C   0  0  0  0  0  0  0  0  0  0  0  0
   20.5411  -15.7533    4.4892 N   0  0  0  0  0  0  0  0  0  0  0  0
   19.9685  -17.9044    6.4989 N   0  0  0  0  0  0  0  0  0  0  0  0
   19.4518  -19.0603    6.8739 C   0  0  0  0  0  0  0  0  0  0  0  0
   18.8374  -19.7531    5.8531 N   0  0  0  0  0  0  0  0  0  0  0  0
  1  2  2  0  0  0  0
  2  3  1  0  0  0  0
  3  4  2  0  0  0  0
  5  4  1  0  0  0  0
  5  6  2  0  0  0  0
  6  1  1  0  0  0  0
  6  7  1  0  0  0  0
  8  5  1  0  0  0  0
  9  8  1  0  0  0  0
 10  4  1  0  0  0  0
 10  9  2  0  0  0  0
M  END
>  <CHROM.1>
19.39884067,-18.06341862,4.69070969,1.41023572,-1.04565228,-1.09500514

>  <Name>
1y26_lig

>  <RI>
224

>  <Rbt.Current_Directory>
/home/afrankz/demos/rdock_decoys_rna/rnas/1y26

>  <Rbt.Executable>
rbdock ($Id: //depot/dev/client3/rdock/2013.1/src/exe/rbdock.cxx#4 $)

>  <Rbt.Library>
libRbt.so (2013.1, Build901 2013/11/27)

>  <Rbt.Parameter_File>
/export/apps/rDock/src/rDock_2013.1_src/data/scripts/dock_solv.prm

>  <Rbt.Receptor>
prm/blind_docking_80.prm

>  <SCORE>
-26.6697

>  <SCORE.INTER>
-26.6697

>  <SCORE.INTER.CONST>
1

>  <SCORE.INTER.POLAR>
-2.0198

>  <SCORE.INTER.ROT>
0

>  <SCORE.INTER.SOLV>
12.8082

>  <SCORE.INTER.VDW>
-18.9165

>  <SCORE.INTER.norm>
-2.66697

>  <SCORE.INTRA>
0

>  <SCORE.INTRA.DIHEDRAL>
0

>  <SCORE.INTRA.DIHEDRAL.0>
0

>  <SCORE.INTRA.POLAR>
0

>  <SCORE.INTRA.POLAR.0>
0

>  <SCORE.INTRA.REPUL>
0

>  <SCORE.INTRA.REPUL.0>
0

>  <SCORE.INTRA.SOLV>
0

>  <SCORE.INTRA.SOLV.lig_0>
-16.9472

>  <SCORE.INTRA.VDW>
0

>  <SCORE.INTRA.VDW.0>
0

>  <SCORE.INTRA.norm>
0

>  <SCORE.RESTR>
0

>  <SCORE.RESTR.CAVITY>
0

>  <SCORE.RESTR.norm>
0

>  <SCORE.SYSTEM>
0

>  <SCORE.SYSTEM.CONST>
0

>  <SCORE.SYSTEM.DIHEDRAL>
0

>  <SCORE.SYSTEM.SOLV>
0

>  <SCORE.SYSTEM.norm>
0

>  <SCORE.heavy>
10

>  <SCORE.norm>
-2.66697

>  <RMSD>
0.638

$$$$
1y26_lig
 OpenBabel02141814133D
libRbt.so/2013.1/901 2013/11/27
 10 11  0  0  0  0  0  0  0  0999 V2000
   19.6128  -17.0664    2.9431 N   0  0  0  0  0  0  0  0  0  0  0  0
   18.9241  -18.1619    2.6135 C   0  0  0  0  0  0  0  0  0  0  0  0
   18.5817  -19.1879    3.3900 N   0  0  0  0  0  0  0  0  0  0  0  0
   19.0077  -18.9948    4.6586 C   0  0  0  0  0  0  0  0  0  0  0  0
   19.7145  -17.9126    5.1439 C   0  0  0  0  0  0  0  0  0  0  0  0
   20.0245  -16.9114    4.2186 C   0  0  0  0  0  0  0  0  0  0  0  0
   20.7127  -15.8370    4.5694 N   0  0  0  0  0  0  0  0  0  0  0  0
   20.0019  -18.0335    6.4837 N   0  0  0  0  0  0  0  0  0  0  0  0
   19.4334  -19.1821    6.8018 C   0  0  0  0  0  0  0  0  0  0  0  0
   18.8274  -19.8168    5.7390 N   0  0  0  0  0  0  0  0  0  0  0  0
  1  2  2  0  0  0  0
  2  3  1  0  0  0  0
  3  4  2  0  0  0  0
  5  4  1  0  0  0  0
  5  6  2  0  0  0  0
  6  1  1  0  0  0  0
  6  7  1  0  0  0  0
  8  5  1  0  0  0  0
  9  8  1  0  0  0  0
 10  4  1  0  0  0  0
 10  9  2  0  0  0  0
M  END
>  <CHROM.1>
19.48418974,-18.10978344,4.65458818,1.32495519,-1.02718337,-1.13360357

>  <Name>
1y26_lig

>  <RI>
224

>  <Rbt.Current_Directory>
/home/afrankz/demos/rdock_decoys_rna/rnas/1y26

>  <Rbt.Executable>
rbdock ($Id: //depot/dev/client3/rdock/2013.1/src/exe/rbdock.cxx#4 $)

>  <Rbt.Library>
libRbt.so (2013.1, Build901 2013/11/27)

>  <Rbt.Parameter_File>
/export/apps/rDock/src/rDock_2013.1_src/data/scripts/dock_solv.prm

>  <Rbt.Receptor>
prm/pocket_docking_7.prm

>  <SCORE>
-26.6473

>  <SCORE.INTER>
-26.6473

>  <SCORE.INTER.CONST>
1

>  <SCORE.INTER.POLAR>
-2.0198

>  <SCORE.INTER.ROT>
0

>  <SCORE.INTER.SOLV>
12.5115

>  <SCORE.INTER.VDW>
-18.8027

>  <SCORE.INTER.norm>
-2.66473

>  <SCORE.INTRA>
0

>  <SCORE.INTRA.DIHEDRAL>
0

>  <SCORE.INTRA.DIHEDRAL.0>
0

>  <SCORE.INTRA.POLAR>
0

>  <SCORE.INTRA.POLAR.0>
0

>  <SCORE.INTRA.REPUL>
0

>  <SCORE.INTRA.REPUL.0>
0

>  <SCORE.INTRA.SOLV>
0

>  <SCORE.INTRA.SOLV.lig_0>
-16.9472

>  <SCORE.INTRA.VDW>
0

>  <SCORE.INTRA.VDW.0>
0

>  <SCORE.INTRA.norm>
0

>  <SCORE.RESTR>
0

>  <SCORE.RESTR.CAVITY>
0

>  <SCORE.RESTR.norm>
0

>  <SCORE.SYSTEM>
0

>  <SCORE.SYSTEM.CONST>
0

>  <SCORE.SYSTEM.DIHEDRAL>
0

>  <SCORE.SYSTEM.SOLV>
0

>  <SCORE.SYSTEM.norm>
0

>  <SCORE.heavy>
10

>  <SCORE.norm>
-2.66473

>  <RMSD>
0.638

$$$$
1y26_lig
 OpenBabel02141814133D
libRbt.so/2013.1/901 2013/11/27
 10 11  0  0  0  0  0  0  0  0999 V2000
   19.5785  -17.0735    2.9495 N   0  0  0  0  0  0  0  0  0  0  0  0
   18.8851  -18.1684    2.6276 C   0  0  0  0  0  0  0  0  0  0  0  0
   18.5493  -19.1933    3.4084 N   0  0  0  0  0  0  0  0  0  0  0  0
   18.9883  -18.9997    4.6725 C   0  0  0  0  0  0  0  0  0  0  0  0
   19.7013  -17.9180    5.1498 C   0  0  0  0  0  0  0  0  0  0  0  0
   20.0032  -16.9180    4.2206 C   0  0  0  0  0  0  0  0  0  0  0  0
   20.6962  -15.8442    4.5636 N   0  0  0  0  0  0  0  0  0  0  0  0
   20.0020  -18.0382    6.4867 N   0  0  0  0  0  0  0  0  0  0  0  0
   19.4353  -19.1858    6.8115 C   0  0  0  0  0  0  0  0  0  0  0  0
   18.8178  -19.8206    5.7554 N   0  0  0  0  0  0  0  0  0  0  0  0
  1  2  2  0  0  0  0
  2  3  1  0  0  0  0
  3  4  2  0  0  0  0
  5  4  1  0  0  0  0
  5  6  2  0  0  0  0
  6  1  1  0  0  0  0
  6  7  1  0  0  0  0
  8  5  1  0  0  0  0
  9  8  1  0  0  0  0
 10  4  1  0  0  0  0
 10  9  2  0  0  0  0
M  END
>  <CHROM.1>
19.46580597,-18.11531143,4.66297609,1.34139936,-1.02173955,-1.12037869

>  <Name>
1y26_lig

>  <RI>
224

>  <Rbt.Current_Directory>
/home/afrankz/demos/rdock_decoys_rna/rnas/1y26

>  <Rbt.Executable>
rbdock ($Id: //depot/dev/client3/rdock/2013.1/src/exe/rbdock.cxx#4 $)

>  <Rbt.Library>
libRbt.so (2013.1, Build901 2013/11/27)

>  <Rbt.Parameter_File>
/export/apps/rDock/src/rDock_2013.1_src/data/scripts/dock_solv.prm

>  <Rbt.Receptor>
prm/pocket_docking_6.prm

>  <SCORE>
-26.6655

>  <SCORE.INTER>
-26.6655

>  <SCORE.INTER.CONST>
1

>  <SCORE.INTER.POLAR>
-2.0198

>  <SCORE.INTER.ROT>
0

>  <SCORE.INTER.SOLV>
12.5555

>  <SCORE.INTER.VDW>
-18.8295

>  <SCORE.INTER.norm>
-2.66655

>  <SCORE.INTRA>
0

>  <SCORE.INTRA.DIHEDRAL>
0

>  <SCORE.INTRA.DIHEDRAL.0>
0

>  <SCORE.INTRA.POLAR>
0

>  <SCORE.INTRA.POLAR.0>
0

>  <SCORE.INTRA.REPUL>
0

>  <SCORE.INTRA.REPUL.0>
0

>  <SCORE.INTRA.SOLV>
0

>  <SCORE.INTRA.SOLV.lig_0>
-16.9472

>  <SCORE.INTRA.VDW>
0

>  <SCORE.INTRA.VDW.0>
0

>  <SCORE.INTRA.norm>
0

>  <SCORE.RESTR>
0

>  <SCORE.RESTR.CAVITY>
0

>  <SCORE.RESTR.norm>
0

>  <SCORE.SYSTEM>
0

>  <SCORE.SYSTEM.CONST>
0

>  <SCORE.SYSTEM.DIHEDRAL>
0

>  <SCORE.SYSTEM.SOLV>
0

>  <SCORE.SYSTEM.norm>
0

>  <SCORE.heavy>
10

>  <SCORE.norm>
-2.66655

>  <RMSD>
0.640

$$$$
1y26_lig
 OpenBabel02141814133D
libRbt.so/2013.1/901 2013/11/27
 10 11  0  0  0  0  0  0  0  0999 V2000
   19.6102  -17.0670    2.9468 N   0  0  0  0  0  0  0  0  0  0  0  0
   18.9210  -18.1606    2.6119 C   0  0  0  0  0  0  0  0  0  0  0  0
   18.5751  -19.1884    3.3845 N   0  0  0  0  0  0  0  0  0  0  0  0
   18.9975  -18.9995    4.6549 C   0  0  0  0  0  0  0  0  0  0  0  0
   19.7043  -17.9196    5.1454 C   0  0  0  0  0  0  0  0  0  0  0  0
   20.0183  -16.9162    4.2238 C   0  0  0  0  0  0  0  0  0  0  0  0
   20.7069  -15.8437    4.5798 N   0  0  0  0  0  0  0  0  0  0  0  0
   19.9876  -18.0447    6.4857 N   0  0  0  0  0  0  0  0  0  0  0  0
   19.4166  -19.1934    6.7988 C   0  0  0  0  0  0  0  0  0  0  0  0
   18.8130  -19.8243    5.7324 N   0  0  0  0  0  0  0  0  0  0  0  0
  1  2  2  0  0  0  0
  2  3  1  0  0  0  0
  3  4  2  0  0  0  0
  5  4  1  0  0  0  0
  5  6  2  0  0  0  0
  6  1  1  0  0  0  0
  6  7  1  0  0  0  0
  8  5  1  0  0  0  0
  9  8  1  0  0  0  0
 10  4  1  0  0  0  0
 10  9  2  0  0  0  0
M  END
>  <CHROM.1>
19.47517331,-18.11507915,4.65483174,1.31871489,-1.02726821,-1.13608624

>  <Name>
1y26_lig

>  <RI>
224

>  <Rbt.Current_Directory>
/home/afrankz/demos/rdock_decoys_rna/rnas/1y26

>  <Rbt.Executable>
rbdock ($Id: //depot/dev/client3/rdock/2013.1/src/exe/rbdock.cxx#4 $)

>  <Rbt.Library>
libRbt.so (2013.1, Build901 2013/11/27)

>  <Rbt.Parameter_File>
/export/apps/rDock/src/rDock_2013.1_src/data/scripts/dock_solv.prm

>  <Rbt.Receptor>
prm/pocket_docking_7.prm

>  <SCORE>
-26.6657

>  <SCORE.INTER>
-26.6657

>  <SCORE.INTER.CONST>
1

>  <SCORE.INTER.POLAR>
-2.0198

>  <SCORE.INTER.ROT>
0

>  <SCORE.INTER.SOLV>
12.5205

>  <SCORE.INTER.VDW>
-18.8179

>  <SCORE.INTER.norm>
-2.66657

>  <SCORE.INTRA>
0

>  <SCORE.INTRA.DIHEDRAL>
0

>  <SCORE.INTRA.DIHEDRAL.0>
0

>  <SCORE.INTRA.POLAR>
0

>  <SCORE.INTRA.POLAR.0>
0

>  <SCORE.INTRA.REPUL>
0

>  <SCORE.INTRA.REPUL.0>
0

>  <SCORE.INTRA.SOLV>
0

>  <SCORE.INTRA.SOLV.lig_0>
-16.9472

>  <SCORE.INTRA.VDW>
0

>  <SCORE.INTRA.VDW.0>
0

>  <SCORE.INTRA.norm>
0

>  <SCORE.RESTR>
0

>  <SCORE.RESTR.CAVITY>
0

>  <SCORE.RESTR.norm>
0

>  <SCORE.SYSTEM>
0

>  <SCORE.SYSTEM.CONST>
0

>  <SCORE.SYSTEM.DIHEDRAL>
0

>  <SCORE.SYSTEM.SOLV>
0

>  <SCORE.SYSTEM.norm>
0

>  <SCORE.heavy>
10

>  <SCORE.norm>
-2.66657

>  <RMSD>
0.640

$$$$
1y26_lig
 OpenBabel02141814133D
libRbt.so/2013.1/901 2013/11/27
 10 11  0  0  0  0  0  0  0  0999 V2000
   19.5016  -16.9988    2.9708 N   0  0  0  0  0  0  0  0  0  0  0  0
   18.7909  -18.0915    2.6810 C   0  0  0  0  0  0  0  0  0  0  0  0
   18.4627  -19.1012    3.4845 N   0  0  0  0  0  0  0  0  0  0  0  0
   18.9312  -18.8929    4.7357 C   0  0  0  0  0  0  0  0  0  0  0  0
   19.6649  -17.8112    5.1805 C   0  0  0  0  0  0  0  0  0  0  0  0
   19.9557  -16.8283    4.2297 C   0  0  0  0  0  0  0  0  0  0  0  0
   20.6664  -15.7563    4.5409 N   0  0  0  0  0  0  0  0  0  0  0  0
   19.9938  -17.9141    6.5122 N   0  0  0  0  0  0  0  0  0  0  0  0
   19.4235  -19.0510    6.8669 C   0  0  0  0  0  0  0  0  0  0  0  0
   18.7769  -19.6956    5.8344 N   0  0  0  0  0  0  0  0  0  0  0  0
  1  2  2  0  0  0  0
  2  3  1  0  0  0  0
  3  4  2  0  0  0  0
  5  4  1  0  0  0  0
  5  6  2  0  0  0  0
  6  1  1  0  0  0  0
  6  7  1  0  0  0  0
  8  5  1  0  0  0  0
  9  8  1  0  0  0  0
 10  4  1  0  0  0  0
 10  9  2  0  0  0  0
M  END
>  <CHROM.1>
19.41682966,-18.01346197,4.70209021,1.37063807,-1.00335599,-1.11079021

>  <Name>
1y26_lig

>  <RI>
224

>  <Rbt.Current_Directory>
/home/afrankz/demos/rdock_decoys_rna/rnas/1y26

>  <Rbt.Executable>
rbdock ($Id: //depot/dev/client3/rdock/2013.1/src/exe/rbdock.cxx#4 $)

>  <Rbt.Library>
libRbt.so (2013.1, Build901 2013/11/27)

>  <Rbt.Parameter_File>
/export/apps/rDock/src/rDock_2013.1_src/data/scripts/dock_solv.prm

>  <Rbt.Receptor>
prm/pocket_docking_7.prm

>  <SCORE>
-26.6033

>  <SCORE.INTER>
-26.6033

>  <SCORE.INTER.CONST>
1

>  <SCORE.INTER.POLAR>
-2.0198

>  <SCORE.INTER.ROT>
0

>  <SCORE.INTER.SOLV>
12.655

>  <SCORE.INTER.VDW>
-18.8212

>  <SCORE.INTER.norm>
-2.66033

>  <SCORE.INTRA>
0

>  <SCORE.INTRA.DIHEDRAL>
0

>  <SCORE.INTRA.DIHEDRAL.0>
0

>  <SCORE.INTRA.POLAR>
0

>  <SCORE.INTRA.POLAR.0>
0

>  <SCORE.INTRA.REPUL>
0

>  <SCORE.INTRA.REPUL.0>
0

>  <SCORE.INTRA.SOLV>
0

>  <SCORE.INTRA.SOLV.lig_0>
-16.9472

>  <SCORE.INTRA.VDW>
0

>  <SCORE.INTRA.VDW.0>
0

>  <SCORE.INTRA.norm>
0

>  <SCORE.RESTR>
0

>  <SCORE.RESTR.CAVITY>
0

>  <SCORE.RESTR.norm>
0

>  <SCORE.SYSTEM>
0

>  <SCORE.SYSTEM.CONST>
0

>  <SCORE.SYSTEM.DIHEDRAL>
0

>  <SCORE.SYSTEM.SOLV>
0

>  <SCORE.SYSTEM.norm>
0

>  <SCORE.heavy>
10

>  <SCORE.norm>
-2.66033

>  <RMSD>
0.640

$$$$
1y26_lig
 OpenBabel02141814133D
libRbt.so/2013.1/901 2013/11/27
 10 11  0  0  0  0  0  0  0  0999 V2000
   19.5843  -17.0752    2.9534 N   0  0  0  0  0  0  0  0  0  0  0  0
   18.8860  -18.1668    2.6310 C   0  0  0  0  0  0  0  0  0  0  0  0
   18.5453  -19.1905    3.4113 N   0  0  0  0  0  0  0  0  0  0  0  0
   18.9847  -18.9993    4.6757 C   0  0  0  0  0  0  0  0  0  0  0  0
   19.7025  -17.9210    5.1534 C   0  0  0  0  0  0  0  0  0  0  0  0
   20.0093  -16.9221    4.2246 C   0  0  0  0  0  0  0  0  0  0  0  0
   20.7072  -15.8516    4.5681 N   0  0  0  0  0  0  0  0  0  0  0  0
   20.0022  -18.0429    6.4905 N   0  0  0  0  0  0  0  0  0  0  0  0
   19.4301  -19.1880    6.8147 C   0  0  0  0  0  0  0  0  0  0  0  0
   18.8101  -19.8196    5.7583 N   0  0  0  0  0  0  0  0  0  0  0  0
  1  2  2  0  0  0  0
  2  3  1  0  0  0  0
  3  4  2  0  0  0  0
  5  4  1  0  0  0  0
  5  6  2  0  0  0  0
  6  1  1  0  0  0  0
  6  7  1  0  0  0  0
  8  5  1  0  0  0  0
  9  8  1  0  0  0  0
 10  4  1  0  0  0  0
 10  9  2  0  0  0  0
M  END
>  <CHROM.1>
19.46628429,-18.11703627,4.66652956,1.33704626,-1.01772951,-1.12379784

>  <Name>
1y26_lig

>  <RI>
224

>  <Rbt.Current_Directory>
/home/afrankz/demos/rdock_decoys_rna/rnas/1y26

>  <Rbt.Executable>
rbdock ($Id: //depot/dev/client3/rdock/2013.1/src/exe/rbdock.cxx#4 $)

>  <Rbt.Library>
libRbt.so (2013.1, Build901 2013/11/27)

>  <Rbt.Parameter_File>
/export/apps/rDock/src/rDock_2013.1_src/data/scripts/dock_solv.prm

>  <Rbt.Receptor>
prm/blind_docking_80.prm

>  <SCORE>
-26.661

>  <SCORE.INTER>
-26.661

>  <SCORE.INTER.CONST>
1

>  <SCORE.INTER.POLAR>
-2.0198

>  <SCORE.INTER.ROT>
0

>  <SCORE.INTER.SOLV>
12.5348

>  <SCORE.INTER.VDW>
-18.8196

>  <SCORE.INTER.norm>
-2.6661

>  <SCORE.INTRA>
0

>  <SCORE.INTRA.DIHEDRAL>
0

>  <SCORE.INTRA.DIHEDRAL.0>
0

>  <SCORE.INTRA.POLAR>
0

>  <SCORE.INTRA.POLAR.0>
0

>  <SCORE.INTRA.REPUL>
0

>  <SCORE.INTRA.REPUL.0>
0

>  <SCORE.INTRA.SOLV>
0

>  <SCORE.INTRA.SOLV.lig_0>
-16.9472

>  <SCORE.INTRA.VDW>
0

>  <SCORE.INTRA.VDW.0>
0

>  <SCORE.INTRA.norm>
0

>  <SCORE.RESTR>
0

>  <SCORE.RESTR.CAVITY>
0

>  <SCORE.RESTR.norm>
0

>  <SCORE.SYSTEM>
0

>  <SCORE.SYSTEM.CONST>
0

>  <SCORE.SYSTEM.DIHEDRAL>
0

>  <SCORE.SYSTEM.SOLV>
0

>  <SCORE.SYSTEM.norm>
0

>  <SCORE.heavy>
10

>  <SCORE.norm>
-2.6661

>  <RMSD>
0.643

$$$$
1y26_lig
 OpenBabel02141814133D
libRbt.so/2013.1/901 2013/11/27
 10 11  0  0  0  0  0  0  0  0999 V2000
   19.4587  -17.0650    2.9619 N   0  0  0  0  0  0  0  0  0  0  0  0
   18.7462  -18.1626    2.6961 C   0  0  0  0  0  0  0  0  0  0  0  0
   18.4354  -19.1649    3.5156 N   0  0  0  0  0  0  0  0  0  0  0  0
   18.9256  -18.9425    4.7560 C   0  0  0  0  0  0  0  0  0  0  0  0
   19.6639  -17.8543    5.1765 C   0  0  0  0  0  0  0  0  0  0  0  0
   19.9348  -16.8804    4.2107 C   0  0  0  0  0  0  0  0  0  0  0  0
   20.6478  -15.8033    4.4982 N   0  0  0  0  0  0  0  0  0  0  0  0
   20.0170  -17.9427    6.5031 N   0  0  0  0  0  0  0  0  0  0  0  0
   19.4564  -19.0774    6.8795 C   0  0  0  0  0  0  0  0  0  0  0  0
   18.7933  -19.7343    5.8655 N   0  0  0  0  0  0  0  0  0  0  0  0
  1  2  2  0  0  0  0
  2  3  1  0  0  0  0
  3  4  2  0  0  0  0
  5  4  1  0  0  0  0
  5  6  2  0  0  0  0
  6  1  1  0  0  0  0
  6  7  1  0  0  0  0
  8  5  1  0  0  0  0
  9  8  1  0  0  0  0
 10  4  1  0  0  0  0
 10  9  2  0  0  0  0
M  END
>  <CHROM.1>
19.40795520,-18.06213562,4.70471804,1.40265183,-0.99780798,-1.09406467

>  <Name>
1y26_lig

>  <RI>
224

>  <Rbt.Current_Directory>
/home/afrankz/demos/rdock_decoys_rna/rnas/1y26

>  <Rbt.Executable>
rbdock ($Id: //depot/dev/client3/rdock/2013.1/src/exe/rbdock.cxx#4 $)

>  <Rbt.Library>
libRbt.so (2013.1, Build901 2013/11/27)

>  <Rbt.Parameter_File>
/export/apps/rDock/src/rDock_2013.1_src/data/scripts/dock_solv.prm

>  <Rbt.Receptor>
prm/pocket_docking_7.prm

>  <SCORE>
-26.6602

>  <SCORE.INTER>
-26.6602

>  <SCORE.INTER.CONST>
1

>  <SCORE.INTER.POLAR>
-2.0198

>  <SCORE.INTER.ROT>
0

>  <SCORE.INTER.SOLV>
12.6608

>  <SCORE.INTER.VDW>
-18.8611

>  <SCORE.INTER.norm>
-2.66602

>  <SCORE.INTRA>
0

>  <SCORE.INTRA.DIHEDRAL>
0

>  <SCORE.INTRA.DIHEDRAL.0>
0

>  <SCORE.INTRA.POLAR>
0

>  <SCORE.INTRA.POLAR.0>
0

>  <SCORE.INTRA.REPUL>
0

>  <SCORE.INTRA.REPUL.0>
0

>  <SCORE.INTRA.SOLV>
0

>  <SCORE.INTRA.SOLV.lig_0>
-16.9472

>  <SCORE.INTRA.VDW>
0

>  <SCORE.INTRA.VDW.0>
0

>  <SCORE.INTRA.norm>
0

>  <SCORE.RESTR>
0

>  <SCORE.RESTR.CAVITY>
0

>  <SCORE.RESTR.norm>
0

>  <SCORE.SYSTEM>
0

>  <SCORE.SYSTEM.CONST>
0

>  <SCORE.SYSTEM.DIHEDRAL>
0

>  <SCORE.SYSTEM.SOLV>
0

>  <SCORE.SYSTEM.norm>
0

>  <SCORE.heavy>
10

>  <SCORE.norm>
-2.66602

>  <RMSD>
0.643

$$$$
1y26_lig
 OpenBabel02141814133D
libRbt.so/2013.1/901 2013/11/27
 10 11  0  0  0  0  0  0  0  0999 V2000
   19.5830  -17.0746    2.9569 N   0  0  0  0  0  0  0  0  0  0  0  0
   18.8848  -18.1650    2.6302 C   0  0  0  0  0  0  0  0  0  0  0  0
   18.5375  -19.1881    3.4085 N   0  0  0  0  0  0  0  0  0  0  0  0
   18.9696  -18.9976    4.6755 C   0  0  0  0  0  0  0  0  0  0  0  0
   19.6863  -17.9205    5.1577 C   0  0  0  0  0  0  0  0  0  0  0  0
   20.0004  -16.9222    4.2307 C   0  0  0  0  0  0  0  0  0  0  0  0
   20.6980  -15.8529    4.5785 N   0  0  0  0  0  0  0  0  0  0  0  0
   19.9776  -18.0430    6.4965 N   0  0  0  0  0  0  0  0  0  0  0  0
   19.4016  -19.1871    6.8172 C   0  0  0  0  0  0  0  0  0  0  0  0
   18.7869  -19.8177    5.7570 N   0  0  0  0  0  0  0  0  0  0  0  0
  1  2  2  0  0  0  0
  2  3  1  0  0  0  0
  3  4  2  0  0  0  0
  5  4  1  0  0  0  0
  5  6  2  0  0  0  0
  6  1  1  0  0  0  0
  6  7  1  0  0  0  0
  8  5  1  0  0  0  0
  9  8  1  0  0  0  0
 10  4  1  0  0  0  0
 10  9  2  0  0  0  0
M  END
>  <CHROM.1>
19.45269293,-18.11621336,4.66931199,1.32510433,-1.01880783,-1.13396657

>  <Name>
1y26_lig

>  <RI>
224

>  <Rbt.Current_Directory>
/home/afrankz/demos/rdock_decoys_rna/rnas/1y26

>  <Rbt.Executable>
rbdock ($Id: //depot/dev/client3/rdock/2013.1/src/exe/rbdock.cxx#4 $)

>  <Rbt.Library>
libRbt.so (2013.1, Build901 2013/11/27)

>  <Rbt.Parameter_File>
/export/apps/rDock/src/rDock_2013.1_src/data/scripts/dock_solv.prm

>  <Rbt.Receptor>
prm/pocket_docking_6.prm

>  <SCORE>
-26.6412

>  <SCORE.INTER>
-26.6412

>  <SCORE.INTER.CONST>
1

>  <SCORE.INTER.POLAR>
-2.0198

>  <SCORE.INTER.ROT>
0

>  <SCORE.INTER.SOLV>
12.5426

>  <SCORE.INTER.VDW>
-18.809

>  <SCORE.INTER.norm>
-2.66412

>  <SCORE.INTRA>
0

>  <SCORE.INTRA.DIHEDRAL>
0

>  <SCORE.INTRA.DIHEDRAL.0>
0

>  <SCORE.INTRA.POLAR>
0

>  <SCORE.INTRA.POLAR.0>
0

>  <SCORE.INTRA.REPUL>
0

>  <SCORE.INTRA.REPUL.0>
0

>  <SCORE.INTRA.SOLV>
0

>  <SCORE.INTRA.SOLV.lig_0>
-16.9472

>  <SCORE.INTRA.VDW>
0

>  <SCORE.INTRA.VDW.0>
0

>  <SCORE.INTRA.norm>
0

>  <SCORE.RESTR>
0

>  <SCORE.RESTR.CAVITY>
0

>  <SCORE.RESTR.norm>
0

>  <SCORE.SYSTEM>
0

>  <SCORE.SYSTEM.CONST>
0

>  <SCORE.SYSTEM.DIHEDRAL>
0

>  <SCORE.SYSTEM.SOLV>
0

>  <SCORE.SYSTEM.norm>
0

>  <SCORE.heavy>
10

>  <SCORE.norm>
-2.66412

>  <RMSD>
0.644

$$$$
1y26_lig
 OpenBabel02141814133D
libRbt.so/2013.1/901 2013/11/27
 10 11  0  0  0  0  0  0  0  0999 V2000
   19.6155  -17.0592    2.9512 N   0  0  0  0  0  0  0  0  0  0  0  0
   18.9326  -18.1585    2.6219 C   0  0  0  0  0  0  0  0  0  0  0  0
   18.5903  -19.1831    3.4002 N   0  0  0  0  0  0  0  0  0  0  0  0
   19.0091  -18.9840    4.6704 C   0  0  0  0  0  0  0  0  0  0  0  0
   19.7093  -17.8974    5.1554 C   0  0  0  0  0  0  0  0  0  0  0  0
   20.0201  -16.8983    4.2282 C   0  0  0  0  0  0  0  0  0  0  0  0
   20.7024  -15.8200    4.5787 N   0  0  0  0  0  0  0  0  0  0  0  0
   19.9903  -18.0125    6.4971 N   0  0  0  0  0  0  0  0  0  0  0  0
   19.4246  -19.1621    6.8163 C   0  0  0  0  0  0  0  0  0  0  0  0
   18.8264  -19.8029    5.7527 N   0  0  0  0  0  0  0  0  0  0  0  0
  1  2  2  0  0  0  0
  2  3  1  0  0  0  0
  3  4  2  0  0  0  0
  5  4  1  0  0  0  0
  5  6  2  0  0  0  0
  6  1  1  0  0  0  0
  6  7  1  0  0  0  0
  8  5  1  0  0  0  0
  9  8  1  0  0  0  0
 10  4  1  0  0  0  0
 10  9  2  0  0  0  0
M  END
>  <CHROM.1>
19.48218434,-18.09714788,4.66563488,1.31913265,-1.03278994,-1.14208438

>  <Name>
1y26_lig

>  <RI>
0

>  <Rbt.Current_Directory>
/home/afrankz/demos/rdock_decoys_rna/rnas/1y26

>  <Rbt.Executable>
rbdock ($Id: //depot/dev/client3/rdock/2013.1/src/exe/rbdock.cxx#4 $)

>  <Rbt.Library>
libRbt.so (2013.1, Build901 2013/11/27)

>  <Rbt.Parameter_File>
/export/apps/rDock/src/rDock_2013.1_src/data/scripts/dock_solv.prm

>  <Rbt.Receptor>
prm/pocket_docking_4.prm

>  <SCORE>
-26.6226

>  <SCORE.INTER>
-26.6226

>  <SCORE.INTER.CONST>
1

>  <SCORE.INTER.POLAR>
-2.0198

>  <SCORE.INTER.ROT>
0

>  <SCORE.INTER.SOLV>
12.5258

>  <SCORE.INTER.VDW>
-18.791

>  <SCORE.INTER.norm>
-2.66226

>  <SCORE.INTRA>
0

>  <SCORE.INTRA.DIHEDRAL>
0

>  <SCORE.INTRA.DIHEDRAL.0>
0

>  <SCORE.INTRA.POLAR>
0

>  <SCORE.INTRA.POLAR.0>
0

>  <SCORE.INTRA.REPUL>
0

>  <SCORE.INTRA.REPUL.0>
0

>  <SCORE.INTRA.SOLV>
0

>  <SCORE.INTRA.SOLV.lig_0>
-16.9472

>  <SCORE.INTRA.VDW>
0

>  <SCORE.INTRA.VDW.0>
0

>  <SCORE.INTRA.norm>
0

>  <SCORE.RESTR>
0

>  <SCORE.RESTR.CAVITY>
0

>  <SCORE.RESTR.norm>
0

>  <SCORE.SYSTEM>
0

>  <SCORE.SYSTEM.CONST>
0

>  <SCORE.SYSTEM.DIHEDRAL>
0

>  <SCORE.SYSTEM.SOLV>
0

>  <SCORE.SYSTEM.norm>
0

>  <SCORE.heavy>
10

>  <SCORE.norm>
-2.66226

>  <RMSD>
0.645

$$$$
1y26_lig
 OpenBabel02141814133D
libRbt.so/2013.1/901 2013/11/27
 10 11  0  0  0  0  0  0  0  0999 V2000
   19.4486  -17.0448    2.9718 N   0  0  0  0  0  0  0  0  0  0  0  0
   18.7498  -18.1479    2.6924 C   0  0  0  0  0  0  0  0  0  0  0  0
   18.4490  -19.1626    3.5004 N   0  0  0  0  0  0  0  0  0  0  0  0
   18.9336  -18.9476    4.7443 C   0  0  0  0  0  0  0  0  0  0  0  0
   19.6578  -17.8552    5.1784 C   0  0  0  0  0  0  0  0  0  0  0  0
   19.9194  -16.8679    4.2237 C   0  0  0  0  0  0  0  0  0  0  0  0
   20.6187  -15.7856    4.5245 N   0  0  0  0  0  0  0  0  0  0  0  0
   20.0087  -17.9536    6.5048 N   0  0  0  0  0  0  0  0  0  0  0  0
   19.4608  -19.0989    6.8676 C   0  0  0  0  0  0  0  0  0  0  0  0
   18.8080  -19.7528    5.8449 N   0  0  0  0  0  0  0  0  0  0  0  0
  1  2  2  0  0  0  0
  2  3  1  0  0  0  0
  3  4  2  0  0  0  0
  5  4  1  0  0  0  0
  5  6  2  0  0  0  0
  6  1  1  0  0  0  0
  6  7  1  0  0  0  0
  8  5  1  0  0  0  0
  9  8  1  0  0  0  0
 10  4  1  0  0  0  0
 10  9  2  0  0  0  0
M  END
>  <CHROM.1>
19.40547331,-18.06105437,4.70371818,1.40889914,-1.00950734,-1.07808718

>  <Name>
1y26_lig

>  <RI>
0

>  <Rbt.Current_Directory>
/home/afrankz/demos/rdock_decoys_rna/rnas/1y26

>  <Rbt.Executable>
rbdock ($Id: //depot/dev/client3/rdock/2013.1/src/exe/rbdock.cxx#4 $)

>  <Rbt.Library>
libRbt.so (2013.1, Build901 2013/11/27)

>  <Rbt.Parameter_File>
/export/apps/rDock/src/rDock_2013.1_src/data/scripts/dock_solv.prm

>  <Rbt.Receptor>
prm/blind_docking_60.prm

>  <SCORE>
-26.6947

>  <SCORE.INTER>
-26.6947

>  <SCORE.INTER.CONST>
1

>  <SCORE.INTER.POLAR>
-2.0198

>  <SCORE.INTER.ROT>
0

>  <SCORE.INTER.SOLV>
12.7468

>  <SCORE.INTER.VDW>
-18.9127

>  <SCORE.INTER.norm>
-2.66947

>  <SCORE.INTRA>
0

>  <SCORE.INTRA.DIHEDRAL>
0

>  <SCORE.INTRA.DIHEDRAL.0>
0

>  <SCORE.INTRA.POLAR>
0

>  <SCORE.INTRA.POLAR.0>
0

>  <SCORE.INTRA.REPUL>
0

>  <SCORE.INTRA.REPUL.0>
0

>  <SCORE.INTRA.SOLV>
0

>  <SCORE.INTRA.SOLV.lig_0>
-16.9472

>  <SCORE.INTRA.VDW>
0

>  <SCORE.INTRA.VDW.0>
0

>  <SCORE.INTRA.norm>
0

>  <SCORE.RESTR>
0

>  <SCORE.RESTR.CAVITY>
0

>  <SCORE.RESTR.norm>
0

>  <SCORE.SYSTEM>
0

>  <SCORE.SYSTEM.CONST>
0

>  <SCORE.SYSTEM.DIHEDRAL>
0

>  <SCORE.SYSTEM.SOLV>
0

>  <SCORE.SYSTEM.norm>
0

>  <SCORE.heavy>
10

>  <SCORE.norm>
-2.66947

>  <RMSD>
0.648

$$$$
1y26_lig
 OpenBabel02141814133D
libRbt.so/2013.1/901 2013/11/27
 10 11  0  0  0  0  0  0  0  0999 V2000
   19.4438  -17.0413    2.9749 N   0  0  0  0  0  0  0  0  0  0  0  0
   18.7474  -18.1454    2.6933 C   0  0  0  0  0  0  0  0  0  0  0  0
   18.4490  -19.1624    3.4993 N   0  0  0  0  0  0  0  0  0  0  0  0
   18.9334  -18.9490    4.7435 C   0  0  0  0  0  0  0  0  0  0  0  0
   19.6554  -17.8560    5.1797 C   0  0  0  0  0  0  0  0  0  0  0  0
   19.9145  -16.8661    4.2270 C   0  0  0  0  0  0  0  0  0  0  0  0
   20.6116  -15.7828    4.5300 N   0  0  0  0  0  0  0  0  0  0  0  0
   20.0068  -17.9564    6.5059 N   0  0  0  0  0  0  0  0  0  0  0  0
   19.4615  -19.1037    6.8664 C   0  0  0  0  0  0  0  0  0  0  0  0
   18.8099  -19.7568    5.8424 N   0  0  0  0  0  0  0  0  0  0  0  0
  1  2  2  0  0  0  0
  2  3  1  0  0  0  0
  3  4  2  0  0  0  0
  5  4  1  0  0  0  0
  5  6  2  0  0  0  0
  6  1  1  0  0  0  0
  6  7  1  0  0  0  0
  8  5  1  0  0  0  0
  9  8  1  0  0  0  0
 10  4  1  0  0  0  0
 10  9  2  0  0  0  0
M  END
>  <CHROM.1>
19.40338419,-18.06134748,4.70465597,1.41123555,-1.01132712,-1.07399947

>  <Name>
1y26_lig

>  <RI>
224

>  <Rbt.Current_Directory>
/home/afrankz/demos/rdock_decoys_rna/rnas/1y26

>  <Rbt.Executable>
rbdock ($Id: //depot/dev/client3/rdock/2013.1/src/exe/rbdock.cxx#4 $)

>  <Rbt.Library>
libRbt.so (2013.1, Build901 2013/11/27)

>  <Rbt.Parameter_File>
/export/apps/rDock/src/rDock_2013.1_src/data/scripts/dock_solv.prm

>  <Rbt.Receptor>
prm/blind_docking_80.prm

>  <SCORE>
-26.6904

>  <SCORE.INTER>
-26.6904

>  <SCORE.INTER.CONST>
1

>  <SCORE.INTER.POLAR>
-2.0198

>  <SCORE.INTER.ROT>
0

>  <SCORE.INTER.SOLV>
12.7666

>  <SCORE.INTER.VDW>
-18.9165

>  <SCORE.INTER.norm>
-2.66904

>  <SCORE.INTRA>
0

>  <SCORE.INTRA.DIHEDRAL>
0

>  <SCORE.INTRA.DIHEDRAL.0>
0

>  <SCORE.INTRA.POLAR>
0

>  <SCORE.INTRA.POLAR.0>
0

>  <SCORE.INTRA.REPUL>
0

>  <SCORE.INTRA.REPUL.0>
0

>  <SCORE.INTRA.SOLV>
0

>  <SCORE.INTRA.SOLV.lig_0>
-16.9472

>  <SCORE.INTRA.VDW>
0

>  <SCORE.INTRA.VDW.0>
0

>  <SCORE.INTRA.norm>
0

>  <SCORE.RESTR>
0

>  <SCORE.RESTR.CAVITY>
0

>  <SCORE.RESTR.norm>
0

>  <SCORE.SYSTEM>
0

>  <SCORE.SYSTEM.CONST>
0

>  <SCORE.SYSTEM.DIHEDRAL>
0

>  <SCORE.SYSTEM.SOLV>
0

>  <SCORE.SYSTEM.norm>
0

>  <SCORE.heavy>
10

>  <SCORE.norm>
-2.66904

>  <RMSD>
0.650

$$$$
1y26_lig
 OpenBabel02141814133D
libRbt.so/2013.1/901 2013/11/27
 10 11  0  0  0  0  0  0  0  0999 V2000
   19.5000  -17.0786    2.9691 N   0  0  0  0  0  0  0  0  0  0  0  0
   18.8004  -18.1723    2.6571 C   0  0  0  0  0  0  0  0  0  0  0  0
   18.4806  -19.2004    3.4405 N   0  0  0  0  0  0  0  0  0  0  0  0
   18.9450  -19.0116    4.6963 C   0  0  0  0  0  0  0  0  0  0  0  0
   19.6673  -17.9316    5.1632 C   0  0  0  0  0  0  0  0  0  0  0  0
   19.9502  -16.9279    4.2319 C   0  0  0  0  0  0  0  0  0  0  0  0
   20.6499  -15.8553    4.5650 N   0  0  0  0  0  0  0  0  0  0  0  0
   19.9949  -18.0569    6.4933 N   0  0  0  0  0  0  0  0  0  0  0  0
   19.4351  -19.2058    6.8250 C   0  0  0  0  0  0  0  0  0  0  0  0
   18.7965  -19.8367    5.7792 N   0  0  0  0  0  0  0  0  0  0  0  0
  1  2  2  0  0  0  0
  2  3  1  0  0  0  0
  3  4  2  0  0  0  0
  5  4  1  0  0  0  0
  5  6  2  0  0  0  0
  6  1  1  0  0  0  0
  6  7  1  0  0  0  0
  8  5  1  0  0  0  0
  9  8  1  0  0  0  0
 10  4  1  0  0  0  0
 10  9  2  0  0  0  0
M  END
>  <CHROM.1>
19.42206562,-18.12703717,4.68047426,1.37584794,-1.01280821,-1.08720873

>  <Name>
1y26_lig

>  <RI>
224

>  <Rbt.Current_Directory>
/home/afrankz/demos/rdock_decoys_rna/rnas/1y26

>  <Rbt.Executable>
rbdock ($Id: //depot/dev/client3/rdock/2013.1/src/exe/rbdock.cxx#4 $)

>  <Rbt.Library>
libRbt.so (2013.1, Build901 2013/11/27)

>  <Rbt.Parameter_File>
/export/apps/rDock/src/rDock_2013.1_src/data/scripts/dock_solv.prm

>  <Rbt.Receptor>
prm/pocket_docking_6.prm

>  <SCORE>
-26.6784

>  <SCORE.INTER>
-26.6784

>  <SCORE.INTER.CONST>
1

>  <SCORE.INTER.POLAR>
-2.0198

>  <SCORE.INTER.ROT>
0

>  <SCORE.INTER.SOLV>
12.6771

>  <SCORE.INTER.VDW>
-18.8786

>  <SCORE.INTER.norm>
-2.66784

>  <SCORE.INTRA>
0

>  <SCORE.INTRA.DIHEDRAL>
0

>  <SCORE.INTRA.DIHEDRAL.0>
0

>  <SCORE.INTRA.POLAR>
0

>  <SCORE.INTRA.POLAR.0>
0

>  <SCORE.INTRA.REPUL>
0

>  <SCORE.INTRA.REPUL.0>
0

>  <SCORE.INTRA.SOLV>
0

>  <SCORE.INTRA.SOLV.lig_0>
-16.9472

>  <SCORE.INTRA.VDW>
0

>  <SCORE.INTRA.VDW.0>
0

>  <SCORE.INTRA.norm>
0

>  <SCORE.RESTR>
0

>  <SCORE.RESTR.CAVITY>
0

>  <SCORE.RESTR.norm>
0

>  <SCORE.SYSTEM>
0

>  <SCORE.SYSTEM.CONST>
0

>  <SCORE.SYSTEM.DIHEDRAL>
0

>  <SCORE.SYSTEM.SOLV>
0

>  <SCORE.SYSTEM.norm>
0

>  <SCORE.heavy>
10

>  <SCORE.norm>
-2.66784

>  <RMSD>
0.650

$$$$
1y26_lig
 OpenBabel02141814133D
libRbt.so/2013.1/901 2013/11/27
 10 11  0  0  0  0  0  0  0  0999 V2000
   19.5734  -17.0628    2.9650 N   0  0  0  0  0  0  0  0  0  0  0  0
   18.8751  -18.1550    2.6449 C   0  0  0  0  0  0  0  0  0  0  0  0
   18.5438  -19.1823    3.4246 N   0  0  0  0  0  0  0  0  0  0  0  0
   18.9939  -18.9945    4.6857 C   0  0  0  0  0  0  0  0  0  0  0  0
   19.7132  -17.9160    5.1609 C   0  0  0  0  0  0  0  0  0  0  0  0
   20.0092  -16.9131    4.2330 C   0  0  0  0  0  0  0  0  0  0  0  0
   20.7074  -15.8420    4.5742 N   0  0  0  0  0  0  0  0  0  0  0  0
   20.0250  -18.0420    6.4948 N   0  0  0  0  0  0  0  0  0  0  0  0
   19.4587  -19.1896    6.8200 C   0  0  0  0  0  0  0  0  0  0  0  0
   18.8310  -19.8191    5.7668 N   0  0  0  0  0  0  0  0  0  0  0  0
  1  2  2  0  0  0  0
  2  3  1  0  0  0  0
  3  4  2  0  0  0  0
  5  4  1  0  0  0  0
  5  6  2  0  0  0  0
  6  1  1  0  0  0  0
  6  7  1  0  0  0  0
  8  5  1  0  0  0  0
  9  8  1  0  0  0  0
 10  4  1  0  0  0  0
 10  9  2  0  0  0  0
M  END
>  <CHROM.1>
19.47315877,-18.11097973,4.67541597,1.35424089,-1.01611739,-1.10560361

>  <Name>
1y26_lig

>  <RI>
0

>  <Rbt.Current_Directory>
/home/afrankz/demos/rdock_decoys_rna/rnas/1y26

>  <Rbt.Executable>
rbdock ($Id: //depot/dev/client3/rdock/2013.1/src/exe/rbdock.cxx#4 $)

>  <Rbt.Library>
libRbt.so (2013.1, Build901 2013/11/27)

>  <Rbt.Parameter_File>
/export/apps/rDock/src/rDock_2013.1_src/data/scripts/dock_solv.prm

>  <Rbt.Receptor>
prm/pocket_docking_4.prm

>  <SCORE>
-26.6334

>  <SCORE.INTER>
-26.6334

>  <SCORE.INTER.CONST>
1

>  <SCORE.INTER.POLAR>
-2.0198

>  <SCORE.INTER.ROT>
0

>  <SCORE.INTER.SOLV>
12.5632

>  <SCORE.INTER.VDW>
-18.8106

>  <SCORE.INTER.norm>
-2.66334

>  <SCORE.INTRA>
0

>  <SCORE.INTRA.DIHEDRAL>
0

>  <SCORE.INTRA.DIHEDRAL.0>
0

>  <SCORE.INTRA.POLAR>
0

>  <SCORE.INTRA.POLAR.0>
0

>  <SCORE.INTRA.REPUL>
0

>  <SCORE.INTRA.REPUL.0>
0

>  <SCORE.INTRA.SOLV>
0

>  <SCORE.INTRA.SOLV.lig_0>
-16.9472

>  <SCORE.INTRA.VDW>
0

>  <SCORE.INTRA.VDW.0>
0

>  <SCORE.INTRA.norm>
0

>  <SCORE.RESTR>
0

>  <SCORE.RESTR.CAVITY>
0

>  <SCORE.RESTR.norm>
0

>  <SCORE.SYSTEM>
0

>  <SCORE.SYSTEM.CONST>
0

>  <SCORE.SYSTEM.DIHEDRAL>
0

>  <SCORE.SYSTEM.SOLV>
0

>  <SCORE.SYSTEM.norm>
0

>  <SCORE.heavy>
10

>  <SCORE.norm>
-2.66334

>  <RMSD>
0.652

$$$$
1y26_lig
 OpenBabel02141814133D
libRbt.so/2013.1/901 2013/11/27
 10 11  0  0  0  0  0  0  0  0999 V2000
   19.4793  -17.0635    2.9757 N   0  0  0  0  0  0  0  0  0  0  0  0
   18.7608  -18.1540    2.6970 C   0  0  0  0  0  0  0  0  0  0  0  0
   18.4366  -19.1597    3.5072 N   0  0  0  0  0  0  0  0  0  0  0  0
   18.9191  -18.9493    4.7527 C   0  0  0  0  0  0  0  0  0  0  0  0
   19.6621  -17.8694    5.1863 C   0  0  0  0  0  0  0  0  0  0  0  0
   19.9472  -16.8910    4.2293 C   0  0  0  0  0  0  0  0  0  0  0  0
   20.6658  -15.8211    4.5296 N   0  0  0  0  0  0  0  0  0  0  0  0
   20.0045  -17.9695    6.5149 N   0  0  0  0  0  0  0  0  0  0  0  0
   19.4329  -19.1027    6.8792 C   0  0  0  0  0  0  0  0  0  0  0  0
   18.7727  -19.7478    5.8557 N   0  0  0  0  0  0  0  0  0  0  0  0
  1  2  2  0  0  0  0
  2  3  1  0  0  0  0
  3  4  2  0  0  0  0
  5  4  1  0  0  0  0
  5  6  2  0  0  0  0
  6  1  1  0  0  0  0
  6  7  1  0  0  0  0
  8  5  1  0  0  0  0
  9  8  1  0  0  0  0
 10  4  1  0  0  0  0
 10  9  2  0  0  0  0
M  END
>  <CHROM.1>
19.40816370,-18.07217883,4.71116958,1.38427522,-0.99474015,-1.10258583

>  <Name>
1y26_lig

>  <RI>
0

>  <Rbt.Current_Directory>
/home/afrankz/demos/rdock_decoys_rna/rnas/1y26

>  <Rbt.Executable>
rbdock ($Id: //depot/dev/client3/rdock/2013.1/src/exe/rbdock.cxx#4 $)

>  <Rbt.Library>
libRbt.so (2013.1, Build901 2013/11/27)

>  <Rbt.Parameter_File>
/export/apps/rDock/src/rDock_2013.1_src/data/scripts/dock_solv.prm

>  <Rbt.Receptor>
prm/pocket_docking_5.prm

>  <SCORE>
-26.6632

>  <SCORE.INTER>
-26.6632

>  <SCORE.INTER.CONST>
1

>  <SCORE.INTER.POLAR>
-2.0198

>  <SCORE.INTER.ROT>
0

>  <SCORE.INTER.SOLV>
12.6368

>  <SCORE.INTER.VDW>
-18.855

>  <SCORE.INTER.norm>
-2.66632

>  <SCORE.INTRA>
0

>  <SCORE.INTRA.DIHEDRAL>
0

>  <SCORE.INTRA.DIHEDRAL.0>
0

>  <SCORE.INTRA.POLAR>
0

>  <SCORE.INTRA.POLAR.0>
0

>  <SCORE.INTRA.REPUL>
0

>  <SCORE.INTRA.REPUL.0>
0

>  <SCORE.INTRA.SOLV>
0

>  <SCORE.INTRA.SOLV.lig_0>
-16.9472

>  <SCORE.INTRA.VDW>
0

>  <SCORE.INTRA.VDW.0>
0

>  <SCORE.INTRA.norm>
0

>  <SCORE.RESTR>
0

>  <SCORE.RESTR.CAVITY>
0

>  <SCORE.RESTR.norm>
0

>  <SCORE.SYSTEM>
0

>  <SCORE.SYSTEM.CONST>
0

>  <SCORE.SYSTEM.DIHEDRAL>
0

>  <SCORE.SYSTEM.SOLV>
0

>  <SCORE.SYSTEM.norm>
0

>  <SCORE.heavy>
10

>  <SCORE.norm>
-2.66632

>  <RMSD>
0.652

$$$$
1y26_lig
 OpenBabel02141814133D
libRbt.so/2013.1/901 2013/11/27
 10 11  0  0  0  0  0  0  0  0999 V2000
   19.4600  -17.0605    2.9735 N   0  0  0  0  0  0  0  0  0  0  0  0
   18.7558  -18.1612    2.6983 C   0  0  0  0  0  0  0  0  0  0  0  0
   18.4441  -19.1681    3.5119 N   0  0  0  0  0  0  0  0  0  0  0  0
   18.9233  -18.9472    4.7569 C   0  0  0  0  0  0  0  0  0  0  0  0
   19.6521  -17.8563    5.1870 C   0  0  0  0  0  0  0  0  0  0  0  0
   19.9251  -16.8776    4.2267 C   0  0  0  0  0  0  0  0  0  0  0  0
   20.6297  -15.7976    4.5236 N   0  0  0  0  0  0  0  0  0  0  0  0
   19.9951  -17.9473    6.5161 N   0  0  0  0  0  0  0  0  0  0  0  0
   19.4380  -19.0865    6.8841 C   0  0  0  0  0  0  0  0  0  0  0  0
   18.7866  -19.7436    5.8625 N   0  0  0  0  0  0  0  0  0  0  0  0
  1  2  2  0  0  0  0
  2  3  1  0  0  0  0
  3  4  2  0  0  0  0
  5  4  1  0  0  0  0
  5  6  2  0  0  0  0
  6  1  1  0  0  0  0
  6  7  1  0  0  0  0
  8  5  1  0  0  0  0
  9  8  1  0  0  0  0
 10  4  1  0  0  0  0
 10  9  2  0  0  0  0
M  END
>  <CHROM.1>
19.40101957,-18.06397674,4.71247316,1.39430946,-1.00643458,-1.09763849

>  <Name>
1y26_lig

>  <RI>
0

>  <Rbt.Current_Directory>
/home/afrankz/demos/rdock_decoys_rna/rnas/1y26

>  <Rbt.Executable>
rbdock ($Id: //depot/dev/client3/rdock/2013.1/src/exe/rbdock.cxx#4 $)

>  <Rbt.Library>
libRbt.so (2013.1, Build901 2013/11/27)

>  <Rbt.Parameter_File>
/export/apps/rDock/src/rDock_2013.1_src/data/scripts/dock_solv.prm

>  <Rbt.Receptor>
prm/pocket_docking_5.prm

>  <SCORE>
-26.6634

>  <SCORE.INTER>
-26.6634

>  <SCORE.INTER.CONST>
1

>  <SCORE.INTER.POLAR>
-2.0198

>  <SCORE.INTER.ROT>
0

>  <SCORE.INTER.SOLV>
12.6984

>  <SCORE.INTER.VDW>
-18.8757

>  <SCORE.INTER.norm>
-2.66634

>  <SCORE.INTRA>
0

>  <SCORE.INTRA.DIHEDRAL>
0

>  <SCORE.INTRA.DIHEDRAL.0>
0

>  <SCORE.INTRA.POLAR>
0

>  <SCORE.INTRA.POLAR.0>
0

>  <SCORE.INTRA.REPUL>
0

>  <SCORE.INTRA.REPUL.0>
0

>  <SCORE.INTRA.SOLV>
0

>  <SCORE.INTRA.SOLV.lig_0>
-16.9472

>  <SCORE.INTRA.VDW>
0

>  <SCORE.INTRA.VDW.0>
0

>  <SCORE.INTRA.norm>
0

>  <SCORE.RESTR>
0

>  <SCORE.RESTR.CAVITY>
0

>  <SCORE.RESTR.norm>
0

>  <SCORE.SYSTEM>
0

>  <SCORE.SYSTEM.CONST>
0

>  <SCORE.SYSTEM.DIHEDRAL>
0

>  <SCORE.SYSTEM.SOLV>
0

>  <SCORE.SYSTEM.norm>
0

>  <SCORE.heavy>
10

>  <SCORE.norm>
-2.66634

>  <RMSD>
0.652

$$$$
1y26_lig
 OpenBabel02141814133D
libRbt.so/2013.1/901 2013/11/27
 10 11  0  0  0  0  0  0  0  0999 V2000
   19.5874  -17.0776    2.9606 N   0  0  0  0  0  0  0  0  0  0  0  0
   18.8949  -18.1763    2.6504 C   0  0  0  0  0  0  0  0  0  0  0  0
   18.5526  -19.1892    3.4440 N   0  0  0  0  0  0  0  0  0  0  0  0
   18.9834  -18.9774    4.7081 C   0  0  0  0  0  0  0  0  0  0  0  0
   19.6945  -17.8895    5.1740 C   0  0  0  0  0  0  0  0  0  0  0  0
   20.0038  -16.9038    4.2321 C   0  0  0  0  0  0  0  0  0  0  0  0
   20.6959  -15.8257    4.5638 N   0  0  0  0  0  0  0  0  0  0  0  0
   19.9861  -17.9902    6.5146 N   0  0  0  0  0  0  0  0  0  0  0  0
   19.4158  -19.1322    6.8525 C   0  0  0  0  0  0  0  0  0  0  0  0
   18.8047  -19.7819    5.8018 N   0  0  0  0  0  0  0  0  0  0  0  0
  1  2  2  0  0  0  0
  2  3  1  0  0  0  0
  3  4  2  0  0  0  0
  5  4  1  0  0  0  0
  5  6  2  0  0  0  0
  6  1  1  0  0  0  0
  6  7  1  0  0  0  0
  8  5  1  0  0  0  0
  9  8  1  0  0  0  0
 10  4  1  0  0  0  0
 10  9  2  0  0  0  0
M  END
>  <CHROM.1>
19.46201430,-18.09376692,4.68862200,1.32883350,-1.02349912,-1.14592544

>  <Name>
1y26_lig

>  <RI>
224

>  <Rbt.Current_Directory>
/home/afrankz/demos/rdock_decoys_rna/rnas/1y26

>  <Rbt.Executable>
rbdock ($Id: //depot/dev/client3/rdock/2013.1/src/exe/rbdock.cxx#4 $)

>  <Rbt.Library>
libRbt.so (2013.1, Build901 2013/11/27)

>  <Rbt.Parameter_File>
/export/apps/rDock/src/rDock_2013.1_src/data/scripts/dock_solv.prm

>  <Rbt.Receptor>
prm/pocket_docking_6.prm

>  <SCORE>
-26.6267

>  <SCORE.INTER>
-26.6267

>  <SCORE.INTER.CONST>
1

>  <SCORE.INTER.POLAR>
-2.0198

>  <SCORE.INTER.ROT>
0

>  <SCORE.INTER.SOLV>
12.5279

>  <SCORE.INTER.VDW>
-18.7944

>  <SCORE.INTER.norm>
-2.66267

>  <SCORE.INTRA>
0

>  <SCORE.INTRA.DIHEDRAL>
0

>  <SCORE.INTRA.DIHEDRAL.0>
0

>  <SCORE.INTRA.POLAR>
0

>  <SCORE.INTRA.POLAR.0>
0

>  <SCORE.INTRA.REPUL>
0

>  <SCORE.INTRA.REPUL.0>
0

>  <SCORE.INTRA.SOLV>
0

>  <SCORE.INTRA.SOLV.lig_0>
-16.9472

>  <SCORE.INTRA.VDW>
0

>  <SCORE.INTRA.VDW.0>
0

>  <SCORE.INTRA.norm>
0

>  <SCORE.RESTR>
0

>  <SCORE.RESTR.CAVITY>
0

>  <SCORE.RESTR.norm>
0

>  <SCORE.SYSTEM>
0

>  <SCORE.SYSTEM.CONST>
0

>  <SCORE.SYSTEM.DIHEDRAL>
0

>  <SCORE.SYSTEM.SOLV>
0

>  <SCORE.SYSTEM.norm>
0

>  <SCORE.heavy>
10

>  <SCORE.norm>
-2.66267

>  <RMSD>
0.652

$$$$
1y26_lig
 OpenBabel02141814133D
libRbt.so/2013.1/901 2013/11/27
 10 11  0  0  0  0  0  0  0  0999 V2000
   19.4667  -17.0730    2.9609 N   0  0  0  0  0  0  0  0  0  0  0  0
   18.7975  -18.1955    2.6864 C   0  0  0  0  0  0  0  0  0  0  0  0
   18.4944  -19.1989    3.5075 N   0  0  0  0  0  0  0  0  0  0  0  0
   18.9404  -18.9484    4.7592 C   0  0  0  0  0  0  0  0  0  0  0  0
   19.6310  -17.8329    5.1892 C   0  0  0  0  0  0  0  0  0  0  0  0
   19.8994  -16.8607    4.2210 C   0  0  0  0  0  0  0  0  0  0  0  0
   20.5691  -15.7585    4.5174 N   0  0  0  0  0  0  0  0  0  0  0  0
   19.9472  -17.8966    6.5264 N   0  0  0  0  0  0  0  0  0  0  0  0
   19.4120  -19.0448    6.8987 C   0  0  0  0  0  0  0  0  0  0  0  0
   18.8004  -19.7328    5.8730 N   0  0  0  0  0  0  0  0  0  0  0  0
  1  2  2  0  0  0  0
  2  3  1  0  0  0  0
  3  4  2  0  0  0  0
  5  4  1  0  0  0  0
  5  6  2  0  0  0  0
  6  1  1  0  0  0  0
  6  7  1  0  0  0  0
  8  5  1  0  0  0  0
  9  8  1  0  0  0  0
 10  4  1  0  0  0  0
 10  9  2  0  0  0  0
M  END
>  <CHROM.1>
19.39586005,-18.05359823,4.71238422,1.37933691,-1.03946370,-1.12448686

>  <Name>
1y26_lig

>  <RI>
224

>  <Rbt.Current_Directory>
/home/afrankz/demos/rdock_decoys_rna/rnas/1y26

>  <Rbt.Executable>
rbdock ($Id: //depot/dev/client3/rdock/2013.1/src/exe/rbdock.cxx#4 $)

>  <Rbt.Library>
libRbt.so (2013.1, Build901 2013/11/27)

>  <Rbt.Parameter_File>
/export/apps/rDock/src/rDock_2013.1_src/data/scripts/dock_solv.prm

>  <Rbt.Receptor>
prm/pocket_docking_3.prm

>  <SCORE>
-26.6439

>  <SCORE.INTER>
-26.6439

>  <SCORE.INTER.CONST>
1

>  <SCORE.INTER.POLAR>
-2.0198

>  <SCORE.INTER.ROT>
0

>  <SCORE.INTER.SOLV>
12.7405

>  <SCORE.INTER.VDW>
-18.8767

>  <SCORE.INTER.norm>
-2.66439

>  <SCORE.INTRA>
0

>  <SCORE.INTRA.DIHEDRAL>
0

>  <SCORE.INTRA.DIHEDRAL.0>
0

>  <SCORE.INTRA.POLAR>
0

>  <SCORE.INTRA.POLAR.0>
0

>  <SCORE.INTRA.REPUL>
0

>  <SCORE.INTRA.REPUL.0>
0

>  <SCORE.INTRA.SOLV>
0

>  <SCORE.INTRA.SOLV.lig_0>
-16.9472

>  <SCORE.INTRA.VDW>
0

>  <SCORE.INTRA.VDW.0>
0

>  <SCORE.INTRA.norm>
0

>  <SCORE.RESTR>
0

>  <SCORE.RESTR.CAVITY>
0

>  <SCORE.RESTR.norm>
0

>  <SCORE.SYSTEM>
0

>  <SCORE.SYSTEM.CONST>
0

>  <SCORE.SYSTEM.DIHEDRAL>
0

>  <SCORE.SYSTEM.SOLV>
0

>  <SCORE.SYSTEM.norm>
0

>  <SCORE.heavy>
10

>  <SCORE.norm>
-2.66439

>  <RMSD>
0.653

$$$$
1y26_lig
 OpenBabel02141814133D
libRbt.so/2013.1/901 2013/11/27
 10 11  0  0  0  0  0  0  0  0999 V2000
   19.4720  -17.0528    2.9795 N   0  0  0  0  0  0  0  0  0  0  0  0
   18.7608  -18.1462    2.6939 C   0  0  0  0  0  0  0  0  0  0  0  0
   18.4465  -19.1610    3.4967 N   0  0  0  0  0  0  0  0  0  0  0  0
   18.9314  -18.9574    4.7424 C   0  0  0  0  0  0  0  0  0  0  0  0
   19.6677  -17.8756    5.1827 C   0  0  0  0  0  0  0  0  0  0  0  0
   19.9426  -16.8872    4.2330 C   0  0  0  0  0  0  0  0  0  0  0  0
   20.6542  -15.8145    4.5400 N   0  0  0  0  0  0  0  0  0  0  0  0
   20.0149  -17.9842    6.5093 N   0  0  0  0  0  0  0  0  0  0  0  0
   19.4530  -19.1246    6.8659 C   0  0  0  0  0  0  0  0  0  0  0  0
   18.7944  -19.7661    5.8391 N   0  0  0  0  0  0  0  0  0  0  0  0
  1  2  2  0  0  0  0
  2  3  1  0  0  0  0
  3  4  2  0  0  0  0
  5  4  1  0  0  0  0
  5  6  2  0  0  0  0
  6  1  1  0  0  0  0
  6  7  1  0  0  0  0
  8  5  1  0  0  0  0
  9  8  1  0  0  0  0
 10  4  1  0  0  0  0
 10  9  2  0  0  0  0
M  END
>  <CHROM.1>
19.41378682,-18.07632792,4.70667833,1.39561709,-0.99992673,-1.08473918

>  <Name>
1y26_lig

>  <RI>
224

>  <Rbt.Current_Directory>
/home/afrankz/demos/rdock_decoys_rna/rnas/1y26

>  <Rbt.Executable>
rbdock ($Id: //depot/dev/client3/rdock/2013.1/src/exe/rbdock.cxx#4 $)

>  <Rbt.Library>
libRbt.so (2013.1, Build901 2013/11/27)

>  <Rbt.Parameter_File>
/export/apps/rDock/src/rDock_2013.1_src/data/scripts/dock_solv.prm

>  <Rbt.Receptor>
prm/pocket_docking_6.prm

>  <SCORE>
-26.6734

>  <SCORE.INTER>
-26.6734

>  <SCORE.INTER.CONST>
1

>  <SCORE.INTER.POLAR>
-2.0198

>  <SCORE.INTER.ROT>
0

>  <SCORE.INTER.SOLV>
12.6858

>  <SCORE.INTER.VDW>
-18.8782

>  <SCORE.INTER.norm>
-2.66734

>  <SCORE.INTRA>
0

>  <SCORE.INTRA.DIHEDRAL>
0

>  <SCORE.INTRA.DIHEDRAL.0>
0

>  <SCORE.INTRA.POLAR>
0

>  <SCORE.INTRA.POLAR.0>
0

>  <SCORE.INTRA.REPUL>
0

>  <SCORE.INTRA.REPUL.0>
0

>  <SCORE.INTRA.SOLV>
0

>  <SCORE.INTRA.SOLV.lig_0>
-16.9472

>  <SCORE.INTRA.VDW>
0

>  <SCORE.INTRA.VDW.0>
0

>  <SCORE.INTRA.norm>
0

>  <SCORE.RESTR>
0

>  <SCORE.RESTR.CAVITY>
0

>  <SCORE.RESTR.norm>
0

>  <SCORE.SYSTEM>
0

>  <SCORE.SYSTEM.CONST>
0

>  <SCORE.SYSTEM.DIHEDRAL>
0

>  <SCORE.SYSTEM.SOLV>
0

>  <SCORE.SYSTEM.norm>
0

>  <SCORE.heavy>
10

>  <SCORE.norm>
-2.66734

>  <RMSD>
0.654

$$$$
1y26_lig
 OpenBabel02141814133D
libRbt.so/2013.1/901 2013/11/27
 10 11  0  0  0  0  0  0  0  0999 V2000
   19.4566  -17.0661    2.9800 N   0  0  0  0  0  0  0  0  0  0  0  0
   18.7387  -18.1561    2.6979 C   0  0  0  0  0  0  0  0  0  0  0  0
   18.4217  -19.1683    3.5028 N   0  0  0  0  0  0  0  0  0  0  0  0
   18.9117  -18.9660    4.7467 C   0  0  0  0  0  0  0  0  0  0  0  0
   19.6551  -17.8877    5.1835 C   0  0  0  0  0  0  0  0  0  0  0  0
   19.9321  -16.9017    4.2318 C   0  0  0  0  0  0  0  0  0  0  0  0
   20.6503  -15.8325    4.5353 N   0  0  0  0  0  0  0  0  0  0  0  0
   20.0062  -17.9967    6.5090 N   0  0  0  0  0  0  0  0  0  0  0  0
   19.4394  -19.1337    6.8687 C   0  0  0  0  0  0  0  0  0  0  0  0
   18.7741  -19.7728    5.8447 N   0  0  0  0  0  0  0  0  0  0  0  0
  1  2  2  0  0  0  0
  2  3  1  0  0  0  0
  3  4  2  0  0  0  0
  5  4  1  0  0  0  0
  5  6  2  0  0  0  0
  6  1  1  0  0  0  0
  6  7  1  0  0  0  0
  8  5  1  0  0  0  0
  9  8  1  0  0  0  0
 10  4  1  0  0  0  0
 10  9  2  0  0  0  0
M  END
>  <CHROM.1>
19.39863281,-18.08753163,4.70847402,1.39644127,-0.99374965,-1.08510842

>  <Name>
1y26_lig

>  <RI>
224

>  <Rbt.Current_Directory>
/home/afrankz/demos/rdock_decoys_rna/rnas/1y26

>  <Rbt.Executable>
rbdock ($Id: //depot/dev/client3/rdock/2013.1/src/exe/rbdock.cxx#4 $)

>  <Rbt.Library>
libRbt.so (2013.1, Build901 2013/11/27)

>  <Rbt.Parameter_File>
/export/apps/rDock/src/rDock_2013.1_src/data/scripts/dock_solv.prm

>  <Rbt.Receptor>
prm/pocket_docking_7.prm

>  <SCORE>
-26.6816

>  <SCORE.INTER>
-26.6816

>  <SCORE.INTER.CONST>
1

>  <SCORE.INTER.POLAR>
-2.0198

>  <SCORE.INTER.ROT>
0

>  <SCORE.INTER.SOLV>
12.6864

>  <SCORE.INTER.VDW>
-18.8838

>  <SCORE.INTER.norm>
-2.66816

>  <SCORE.INTRA>
0

>  <SCORE.INTRA.DIHEDRAL>
0

>  <SCORE.INTRA.DIHEDRAL.0>
0

>  <SCORE.INTRA.POLAR>
0

>  <SCORE.INTRA.POLAR.0>
0

>  <SCORE.INTRA.REPUL>
0

>  <SCORE.INTRA.REPUL.0>
0

>  <SCORE.INTRA.SOLV>
0

>  <SCORE.INTRA.SOLV.lig_0>
-16.9472

>  <SCORE.INTRA.VDW>
0

>  <SCORE.INTRA.VDW.0>
0

>  <SCORE.INTRA.norm>
0

>  <SCORE.RESTR>
0

>  <SCORE.RESTR.CAVITY>
0

>  <SCORE.RESTR.norm>
0

>  <SCORE.SYSTEM>
0

>  <SCORE.SYSTEM.CONST>
0

>  <SCORE.SYSTEM.DIHEDRAL>
0

>  <SCORE.SYSTEM.SOLV>
0

>  <SCORE.SYSTEM.norm>
0

>  <SCORE.heavy>
10

>  <SCORE.norm>
-2.66816

>  <RMSD>
0.654

$$$$
1y26_lig
 OpenBabel02141814133D
libRbt.so/2013.1/901 2013/11/27
 10 11  0  0  0  0  0  0  0  0999 V2000
   19.4727  -17.0550    2.9780 N   0  0  0  0  0  0  0  0  0  0  0  0
   18.7620  -18.1497    2.6958 C   0  0  0  0  0  0  0  0  0  0  0  0
   18.4488  -19.1623    3.5016 N   0  0  0  0  0  0  0  0  0  0  0  0
   18.9340  -18.9550    4.7465 C   0  0  0  0  0  0  0  0  0  0  0  0
   19.6699  -17.8715    5.1834 C   0  0  0  0  0  0  0  0  0  0  0  0
   19.9438  -16.8856    4.2308 C   0  0  0  0  0  0  0  0  0  0  0  0
   20.6548  -15.8116    4.5344 N   0  0  0  0  0  0  0  0  0  0  0  0
   20.0179  -17.9761    6.5102 N   0  0  0  0  0  0  0  0  0  0  0  0
   19.4568  -19.1158    6.8703 C   0  0  0  0  0  0  0  0  0  0  0  0
   18.7981  -19.7606    5.8456 N   0  0  0  0  0  0  0  0  0  0  0  0
  1  2  2  0  0  0  0
  2  3  1  0  0  0  0
  3  4  2  0  0  0  0
  5  4  1  0  0  0  0
  5  6  2  0  0  0  0
  6  1  1  0  0  0  0
  6  7  1  0  0  0  0
  8  5  1  0  0  0  0
  9  8  1  0  0  0  0
 10  4  1  0  0  0  0
 10  9  2  0  0  0  0
M  END
>  <CHROM.1>
19.41591284,-18.07368917,4.70808415,1.39692680,-1.00024744,-1.08647063

>  <Name>
1y26_lig

>  <RI>
0

>  <Rbt.Current_Directory>
/home/afrankz/demos/rdock_decoys_rna/rnas/1y26

>  <Rbt.Executable>
rbdock ($Id: //depot/dev/client3/rdock/2013.1/src/exe/rbdock.cxx#4 $)

>  <Rbt.Library>
libRbt.so (2013.1, Build901 2013/11/27)

>  <Rbt.Parameter_File>
/export/apps/rDock/src/rDock_2013.1_src/data/scripts/dock_solv.prm

>  <Rbt.Receptor>
prm/pocket_docking_8.prm

>  <SCORE>
-26.6722

>  <SCORE.INTER>
-26.6722

>  <SCORE.INTER.CONST>
1

>  <SCORE.INTER.POLAR>
-2.0198

>  <SCORE.INTER.ROT>
0

>  <SCORE.INTER.SOLV>
12.6784

>  <SCORE.INTER.VDW>
-18.8749

>  <SCORE.INTER.norm>
-2.66722

>  <SCORE.INTRA>
0

>  <SCORE.INTRA.DIHEDRAL>
0

>  <SCORE.INTRA.DIHEDRAL.0>
0

>  <SCORE.INTRA.POLAR>
0

>  <SCORE.INTRA.POLAR.0>
0

>  <SCORE.INTRA.REPUL>
0

>  <SCORE.INTRA.REPUL.0>
0

>  <SCORE.INTRA.SOLV>
0

>  <SCORE.INTRA.SOLV.lig_0>
-16.9472

>  <SCORE.INTRA.VDW>
0

>  <SCORE.INTRA.VDW.0>
0

>  <SCORE.INTRA.norm>
0

>  <SCORE.RESTR>
0

>  <SCORE.RESTR.CAVITY>
0

>  <SCORE.RESTR.norm>
0

>  <SCORE.SYSTEM>
0

>  <SCORE.SYSTEM.CONST>
0

>  <SCORE.SYSTEM.DIHEDRAL>
0

>  <SCORE.SYSTEM.SOLV>
0

>  <SCORE.SYSTEM.norm>
0

>  <SCORE.heavy>
10

>  <SCORE.norm>
-2.66722

>  <RMSD>
0.654

$$$$
1y26_lig
 OpenBabel02141814133D
libRbt.so/2013.1/901 2013/11/27
 10 11  0  0  0  0  0  0  0  0999 V2000
   19.4638  -17.0605    2.9818 N   0  0  0  0  0  0  0  0  0  0  0  0
   18.7509  -18.1520    2.6931 C   0  0  0  0  0  0  0  0  0  0  0  0
   18.4324  -19.1671    3.4938 N   0  0  0  0  0  0  0  0  0  0  0  0
   18.9147  -18.9662    4.7410 C   0  0  0  0  0  0  0  0  0  0  0  0
   19.6523  -17.8866    5.1845 C   0  0  0  0  0  0  0  0  0  0  0  0
   19.9317  -16.8975    4.2367 C   0  0  0  0  0  0  0  0  0  0  0  0
   20.6449  -15.8268    4.5468 N   0  0  0  0  0  0  0  0  0  0  0  0
   19.9961  -17.9976    6.5118 N   0  0  0  0  0  0  0  0  0  0  0  0
   19.4308  -19.1372    6.8655 C   0  0  0  0  0  0  0  0  0  0  0  0
   18.7733  -19.7759    5.8363 N   0  0  0  0  0  0  0  0  0  0  0  0
  1  2  2  0  0  0  0
  2  3  1  0  0  0  0
  3  4  2  0  0  0  0
  5  4  1  0  0  0  0
  5  6  2  0  0  0  0
  6  1  1  0  0  0  0
  6  7  1  0  0  0  0
  8  5  1  0  0  0  0
  9  8  1  0  0  0  0
 10  4  1  0  0  0  0
 10  9  2  0  0  0  0
M  END
>  <CHROM.1>
19.39913119,-18.08609594,4.70755651,1.38975329,-0.99910833,-1.08839292

>  <Name>
1y26_lig

>  <RI>
0

>  <Rbt.Current_Directory>
/home/afrankz/demos/rdock_decoys_rna/rnas/1y26

>  <Rbt.Executable>
rbdock ($Id: //depot/dev/client3/rdock/2013.1/src/exe/rbdock.cxx#4 $)

>  <Rbt.Library>
libRbt.so (2013.1, Build901 2013/11/27)

>  <Rbt.Parameter_File>
/export/apps/rDock/src/rDock_2013.1_src/data/scripts/dock_solv.prm

>  <Rbt.Receptor>
prm/blind_docking_40.prm

>  <SCORE>
-26.6503

>  <SCORE.INTER>
-26.6503

>  <SCORE.INTER.CONST>
1

>  <SCORE.INTER.POLAR>
-2.0198

>  <SCORE.INTER.ROT>
0

>  <SCORE.INTER.SOLV>
12.6979

>  <SCORE.INTER.VDW>
-18.8668

>  <SCORE.INTER.norm>
-2.66503

>  <SCORE.INTRA>
0

>  <SCORE.INTRA.DIHEDRAL>
0

>  <SCORE.INTRA.DIHEDRAL.0>
0

>  <SCORE.INTRA.POLAR>
0

>  <SCORE.INTRA.POLAR.0>
0

>  <SCORE.INTRA.REPUL>
0

>  <SCORE.INTRA.REPUL.0>
0

>  <SCORE.INTRA.SOLV>
0

>  <SCORE.INTRA.SOLV.lig_0>
-16.9472

>  <SCORE.INTRA.VDW>
0

>  <SCORE.INTRA.VDW.0>
0

>  <SCORE.INTRA.norm>
0

>  <SCORE.RESTR>
0

>  <SCORE.RESTR.CAVITY>
0

>  <SCORE.RESTR.norm>
0

>  <SCORE.SYSTEM>
0

>  <SCORE.SYSTEM.CONST>
0

>  <SCORE.SYSTEM.DIHEDRAL>
0

>  <SCORE.SYSTEM.SOLV>
0

>  <SCORE.SYSTEM.norm>
0

>  <SCORE.heavy>
10

>  <SCORE.norm>
-2.66503

>  <RMSD>
0.655

$$$$
1y26_lig
 OpenBabel02141814133D
libRbt.so/2013.1/901 2013/11/27
 10 11  0  0  0  0  0  0  0  0999 V2000
   19.4718  -17.0551    2.9802 N   0  0  0  0  0  0  0  0  0  0  0  0
   18.7611  -18.1491    2.6951 C   0  0  0  0  0  0  0  0  0  0  0  0
   18.4453  -19.1624    3.4991 N   0  0  0  0  0  0  0  0  0  0  0  0
   18.9276  -18.9567    4.7454 C   0  0  0  0  0  0  0  0  0  0  0  0
   19.6630  -17.8741    5.1852 C   0  0  0  0  0  0  0  0  0  0  0  0
   19.9398  -16.8873    4.2343 C   0  0  0  0  0  0  0  0  0  0  0  0
   20.6507  -15.8141    4.5408 N   0  0  0  0  0  0  0  0  0  0  0  0
   20.0075  -17.9803    6.5128 N   0  0  0  0  0  0  0  0  0  0  0  0
   19.4448  -19.1200    6.8702 C   0  0  0  0  0  0  0  0  0  0  0  0
   18.7884  -19.7633    5.8432 N   0  0  0  0  0  0  0  0  0  0  0  0
  1  2  2  0  0  0  0
  2  3  1  0  0  0  0
  3  4  2  0  0  0  0
  5  4  1  0  0  0  0
  5  6  2  0  0  0  0
  6  1  1  0  0  0  0
  6  7  1  0  0  0  0
  8  5  1  0  0  0  0
  9  8  1  0  0  0  0
 10  4  1  0  0  0  0
 10  9  2  0  0  0  0
M  END
>  <CHROM.1>
19.41006021,-18.07561853,4.70905428,1.39229295,-1.00087905,-1.08932434

>  <Name>
1y26_lig

>  <RI>
0

>  <Rbt.Current_Directory>
/home/afrankz/demos/rdock_decoys_rna/rnas/1y26

>  <Rbt.Executable>
rbdock ($Id: //depot/dev/client3/rdock/2013.1/src/exe/rbdock.cxx#4 $)

>  <Rbt.Library>
libRbt.so (2013.1, Build901 2013/11/27)

>  <Rbt.Parameter_File>
/export/apps/rDock/src/rDock_2013.1_src/data/scripts/dock_solv.prm

>  <Rbt.Receptor>
prm/blind_docking_40.prm

>  <SCORE>
-26.6718

>  <SCORE.INTER>
-26.6718

>  <SCORE.INTER.CONST>
1

>  <SCORE.INTER.POLAR>
-2.0198

>  <SCORE.INTER.ROT>
0

>  <SCORE.INTER.SOLV>
12.6853

>  <SCORE.INTER.VDW>
-18.8769

>  <SCORE.INTER.norm>
-2.66718

>  <SCORE.INTRA>
0

>  <SCORE.INTRA.DIHEDRAL>
0

>  <SCORE.INTRA.DIHEDRAL.0>
0

>  <SCORE.INTRA.POLAR>
0

>  <SCORE.INTRA.POLAR.0>
0

>  <SCORE.INTRA.REPUL>
0

>  <SCORE.INTRA.REPUL.0>
0

>  <SCORE.INTRA.SOLV>
0

>  <SCORE.INTRA.SOLV.lig_0>
-16.9472

>  <SCORE.INTRA.VDW>
0

>  <SCORE.INTRA.VDW.0>
0

>  <SCORE.INTRA.norm>
0

>  <SCORE.RESTR>
0

>  <SCORE.RESTR.CAVITY>
0

>  <SCORE.RESTR.norm>
0

>  <SCORE.SYSTEM>
0

>  <SCORE.SYSTEM.CONST>
0

>  <SCORE.SYSTEM.DIHEDRAL>
0

>  <SCORE.SYSTEM.SOLV>
0

>  <SCORE.SYSTEM.norm>
0

>  <SCORE.heavy>
10

>  <SCORE.norm>
-2.66718

>  <RMSD>
0.655

$$$$
1y26_lig
 OpenBabel02141814133D
libRbt.so/2013.1/901 2013/11/27
 10 11  0  0  0  0  0  0  0  0999 V2000
   19.4909  -17.0907    2.9601 N   0  0  0  0  0  0  0  0  0  0  0  0
   18.8297  -18.2130    2.6659 C   0  0  0  0  0  0  0  0  0  0  0  0
   18.5227  -19.2271    3.4723 N   0  0  0  0  0  0  0  0  0  0  0  0
   18.9545  -18.9889    4.7313 C   0  0  0  0  0  0  0  0  0  0  0  0
   19.6356  -17.8753    5.1812 C   0  0  0  0  0  0  0  0  0  0  0  0
   19.9095  -16.8909    4.2270 C   0  0  0  0  0  0  0  0  0  0  0  0
   20.5710  -15.7892    4.5429 N   0  0  0  0  0  0  0  0  0  0  0  0
   19.9381  -17.9528    6.5209 N   0  0  0  0  0  0  0  0  0  0  0  0
   19.4043  -19.1076    6.8745 C   0  0  0  0  0  0  0  0  0  0  0  0
   18.8066  -19.7866    5.8346 N   0  0  0  0  0  0  0  0  0  0  0  0
  1  2  2  0  0  0  0
  2  3  1  0  0  0  0
  3  4  2  0  0  0  0
  5  4  1  0  0  0  0
  5  6  2  0  0  0  0
  6  1  1  0  0  0  0
  6  7  1  0  0  0  0
  8  5  1  0  0  0  0
  9  8  1  0  0  0  0
 10  4  1  0  0  0  0
 10  9  2  0  0  0  0
M  END
>  <CHROM.1>
19.40640005,-18.09160299,4.69950547,1.36453199,-1.04803588,-1.12587308

>  <Name>
1y26_lig

>  <RI>
0

>  <Rbt.Current_Directory>
/home/afrankz/demos/rdock_decoys_rna/rnas/1y26

>  <Rbt.Executable>
rbdock ($Id: //depot/dev/client3/rdock/2013.1/src/exe/rbdock.cxx#4 $)

>  <Rbt.Library>
libRbt.so (2013.1, Build901 2013/11/27)

>  <Rbt.Parameter_File>
/export/apps/rDock/src/rDock_2013.1_src/data/scripts/dock_solv.prm

>  <Rbt.Receptor>
prm/blind_docking_60.prm

>  <SCORE>
-26.6534

>  <SCORE.INTER>
-26.6534

>  <SCORE.INTER.CONST>
1

>  <SCORE.INTER.POLAR>
-2.0198

>  <SCORE.INTER.ROT>
0

>  <SCORE.INTER.SOLV>
12.7355

>  <SCORE.INTER.VDW>
-18.8814

>  <SCORE.INTER.norm>
-2.66534

>  <SCORE.INTRA>
0

>  <SCORE.INTRA.DIHEDRAL>
0

>  <SCORE.INTRA.DIHEDRAL.0>
0

>  <SCORE.INTRA.POLAR>
0

>  <SCORE.INTRA.POLAR.0>
0

>  <SCORE.INTRA.REPUL>
0

>  <SCORE.INTRA.REPUL.0>
0

>  <SCORE.INTRA.SOLV>
0

>  <SCORE.INTRA.SOLV.lig_0>
-16.9472

>  <SCORE.INTRA.VDW>
0

>  <SCORE.INTRA.VDW.0>
0

>  <SCORE.INTRA.norm>
0

>  <SCORE.RESTR>
0

>  <SCORE.RESTR.CAVITY>
0

>  <SCORE.RESTR.norm>
0

>  <SCORE.SYSTEM>
0

>  <SCORE.SYSTEM.CONST>
0

>  <SCORE.SYSTEM.DIHEDRAL>
0

>  <SCORE.SYSTEM.SOLV>
0

>  <SCORE.SYSTEM.norm>
0

>  <SCORE.heavy>
10

>  <SCORE.norm>
-2.66534

>  <RMSD>
0.655

$$$$
1y26_lig
 OpenBabel02141814133D
libRbt.so/2013.1/901 2013/11/27
 10 11  0  0  0  0  0  0  0  0999 V2000
   19.4333  -17.0604    2.9789 N   0  0  0  0  0  0  0  0  0  0  0  0
   18.7369  -18.1637    2.6945 C   0  0  0  0  0  0  0  0  0  0  0  0
   18.4380  -19.1826    3.4979 N   0  0  0  0  0  0  0  0  0  0  0  0
   18.9218  -18.9721    4.7428 C   0  0  0  0  0  0  0  0  0  0  0  0
   19.6436  -17.8801    5.1819 C   0  0  0  0  0  0  0  0  0  0  0  0
   19.9034  -16.8881    4.2317 C   0  0  0  0  0  0  0  0  0  0  0  0
   20.6004  -15.8056    4.5374 N   0  0  0  0  0  0  0  0  0  0  0  0
   19.9943  -17.9836    6.5080 N   0  0  0  0  0  0  0  0  0  0  0  0
   19.4488  -19.1316    6.8656 C   0  0  0  0  0  0  0  0  0  0  0  0
   18.7977  -19.7824    5.8399 N   0  0  0  0  0  0  0  0  0  0  0  0
  1  2  2  0  0  0  0
  2  3  1  0  0  0  0
  3  4  2  0  0  0  0
  5  4  1  0  0  0  0
  5  6  2  0  0  0  0
  6  1  1  0  0  0  0
  6  7  1  0  0  0  0
  8  5  1  0  0  0  0
  9  8  1  0  0  0  0
 10  4  1  0  0  0  0
 10  9  2  0  0  0  0
M  END
>  <CHROM.1>
19.39186680,-18.08436537,4.70628259,1.41031546,-1.01149118,-1.07248091

>  <Name>
1y26_lig

>  <RI>
224

>  <Rbt.Current_Directory>
/home/afrankz/demos/rdock_decoys_rna/rnas/1y26

>  <Rbt.Executable>
rbdock ($Id: //depot/dev/client3/rdock/2013.1/src/exe/rbdock.cxx#4 $)

>  <Rbt.Library>
libRbt.so (2013.1, Build901 2013/11/27)

>  <Rbt.Parameter_File>
/export/apps/rDock/src/rDock_2013.1_src/data/scripts/dock_solv.prm

>  <Rbt.Receptor>
prm/pocket_docking_3.prm

>  <SCORE>
-26.6404

>  <SCORE.INTER>
-26.6404

>  <SCORE.INTER.CONST>
1

>  <SCORE.INTER.POLAR>
-2.0198

>  <SCORE.INTER.ROT>
0

>  <SCORE.INTER.SOLV>
12.7822

>  <SCORE.INTER.VDW>
-18.8883

>  <SCORE.INTER.norm>
-2.66404

>  <SCORE.INTRA>
0

>  <SCORE.INTRA.DIHEDRAL>
0

>  <SCORE.INTRA.DIHEDRAL.0>
0

>  <SCORE.INTRA.POLAR>
0

>  <SCORE.INTRA.POLAR.0>
0

>  <SCORE.INTRA.REPUL>
0

>  <SCORE.INTRA.REPUL.0>
0

>  <SCORE.INTRA.SOLV>
0

>  <SCORE.INTRA.SOLV.lig_0>
-16.9472

>  <SCORE.INTRA.VDW>
0

>  <SCORE.INTRA.VDW.0>
0

>  <SCORE.INTRA.norm>
0

>  <SCORE.RESTR>
0

>  <SCORE.RESTR.CAVITY>
0

>  <SCORE.RESTR.norm>
0

>  <SCORE.SYSTEM>
0

>  <SCORE.SYSTEM.CONST>
0

>  <SCORE.SYSTEM.DIHEDRAL>
0

>  <SCORE.SYSTEM.SOLV>
0

>  <SCORE.SYSTEM.norm>
0

>  <SCORE.heavy>
10

>  <SCORE.norm>
-2.66404

>  <RMSD>
0.655

$$$$
1y26_lig
 OpenBabel02141814133D
libRbt.so/2013.1/901 2013/11/27
 10 11  0  0  0  0  0  0  0  0999 V2000
   19.4692  -17.0582    2.9796 N   0  0  0  0  0  0  0  0  0  0  0  0
   18.7562  -18.1513    2.6969 C   0  0  0  0  0  0  0  0  0  0  0  0
   18.4421  -19.1644    3.5019 N   0  0  0  0  0  0  0  0  0  0  0  0
   18.9293  -18.9594    4.7465 C   0  0  0  0  0  0  0  0  0  0  0  0
   19.6676  -17.8778    5.1838 C   0  0  0  0  0  0  0  0  0  0  0  0
   19.9421  -16.8912    4.2321 C   0  0  0  0  0  0  0  0  0  0  0  0
   20.6554  -15.8189    4.5362 N   0  0  0  0  0  0  0  0  0  0  0  0
   20.0169  -17.9847    6.5100 N   0  0  0  0  0  0  0  0  0  0  0  0
   19.4542  -19.1238    6.8694 C   0  0  0  0  0  0  0  0  0  0  0  0
   18.7931  -19.7661    5.8447 N   0  0  0  0  0  0  0  0  0  0  0  0
  1  2  2  0  0  0  0
  2  3  1  0  0  0  0
  3  4  2  0  0  0  0
  5  4  1  0  0  0  0
  5  6  2  0  0  0  0
  6  1  1  0  0  0  0
  6  7  1  0  0  0  0
  8  5  1  0  0  0  0
  9  8  1  0  0  0  0
 10  4  1  0  0  0  0
 10  9  2  0  0  0  0
M  END
>  <CHROM.1>
19.41265928,-18.07895365,4.70852904,1.39732900,-0.99810745,-1.08489094

>  <Name>
1y26_lig

>  <RI>
224

>  <Rbt.Current_Directory>
/home/afrankz/demos/rdock_decoys_rna/rnas/1y26

>  <Rbt.Executable>
rbdock ($Id: //depot/dev/client3/rdock/2013.1/src/exe/rbdock.cxx#4 $)

>  <Rbt.Library>
libRbt.so (2013.1, Build901 2013/11/27)

>  <Rbt.Parameter_File>
/export/apps/rDock/src/rDock_2013.1_src/data/scripts/dock_solv.prm

>  <Rbt.Receptor>
prm/pocket_docking_3.prm

>  <SCORE>
-26.6697

>  <SCORE.INTER>
-26.6697

>  <SCORE.INTER.CONST>
1

>  <SCORE.INTER.POLAR>
-2.0198

>  <SCORE.INTER.ROT>
0

>  <SCORE.INTER.SOLV>
12.6794

>  <SCORE.INTER.VDW>
-18.8736

>  <SCORE.INTER.norm>
-2.66697

>  <SCORE.INTRA>
0

>  <SCORE.INTRA.DIHEDRAL>
0

>  <SCORE.INTRA.DIHEDRAL.0>
0

>  <SCORE.INTRA.POLAR>
0

>  <SCORE.INTRA.POLAR.0>
0

>  <SCORE.INTRA.REPUL>
0

>  <SCORE.INTRA.REPUL.0>
0

>  <SCORE.INTRA.SOLV>
0

>  <SCORE.INTRA.SOLV.lig_0>
-16.9472

>  <SCORE.INTRA.VDW>
0

>  <SCORE.INTRA.VDW.0>
0

>  <SCORE.INTRA.norm>
0

>  <SCORE.RESTR>
0

>  <SCORE.RESTR.CAVITY>
0

>  <SCORE.RESTR.norm>
0

>  <SCORE.SYSTEM>
0

>  <SCORE.SYSTEM.CONST>
0

>  <SCORE.SYSTEM.DIHEDRAL>
0

>  <SCORE.SYSTEM.SOLV>
0

>  <SCORE.SYSTEM.norm>
0

>  <SCORE.heavy>
10

>  <SCORE.norm>
-2.66697

>  <RMSD>
0.655

$$$$
1y26_lig
 OpenBabel02141814133D
libRbt.so/2013.1/901 2013/11/27
 10 11  0  0  0  0  0  0  0  0999 V2000
   19.4690  -17.0600    2.9749 N   0  0  0  0  0  0  0  0  0  0  0  0
   18.7651  -18.1616    2.7027 C   0  0  0  0  0  0  0  0  0  0  0  0
   18.4573  -19.1683    3.5181 N   0  0  0  0  0  0  0  0  0  0  0  0
   18.9403  -18.9460    4.7613 C   0  0  0  0  0  0  0  0  0  0  0  0
   19.6693  -17.8540    5.1883 C   0  0  0  0  0  0  0  0  0  0  0  0
   19.9380  -16.8757    4.2264 C   0  0  0  0  0  0  0  0  0  0  0  0
   20.6424  -15.7946    4.5202 N   0  0  0  0  0  0  0  0  0  0  0  0
   20.0168  -17.9437    6.5162 N   0  0  0  0  0  0  0  0  0  0  0  0
   19.4622  -19.0833    6.8869 C   0  0  0  0  0  0  0  0  0  0  0  0
   18.8083  -19.7418    5.8680 N   0  0  0  0  0  0  0  0  0  0  0  0
  1  2  2  0  0  0  0
  2  3  1  0  0  0  0
  3  4  2  0  0  0  0
  5  4  1  0  0  0  0
  5  6  2  0  0  0  0
  6  1  1  0  0  0  0
  6  7  1  0  0  0  0
  8  5  1  0  0  0  0
  9  8  1  0  0  0  0
 10  4  1  0  0  0  0
 10  9  2  0  0  0  0
M  END
>  <CHROM.1>
19.41692180,-18.06228555,4.71470422,1.40078786,-1.00593110,-1.09285314

>  <Name>
1y26_lig

>  <RI>
0

>  <Rbt.Current_Directory>
/home/afrankz/demos/rdock_decoys_rna/rnas/1y26

>  <Rbt.Executable>
rbdock ($Id: //depot/dev/client3/rdock/2013.1/src/exe/rbdock.cxx#4 $)

>  <Rbt.Library>
libRbt.so (2013.1, Build901 2013/11/27)

>  <Rbt.Parameter_File>
/export/apps/rDock/src/rDock_2013.1_src/data/scripts/dock_solv.prm

>  <Rbt.Receptor>
prm/blind_docking_60.prm

>  <SCORE>
-26.6651

>  <SCORE.INTER>
-26.6651

>  <SCORE.INTER.CONST>
1

>  <SCORE.INTER.POLAR>
-2.0198

>  <SCORE.INTER.ROT>
0

>  <SCORE.INTER.SOLV>
12.6782

>  <SCORE.INTER.VDW>
-18.8701

>  <SCORE.INTER.norm>
-2.66651

>  <SCORE.INTRA>
0

>  <SCORE.INTRA.DIHEDRAL>
0

>  <SCORE.INTRA.DIHEDRAL.0>
0

>  <SCORE.INTRA.POLAR>
0

>  <SCORE.INTRA.POLAR.0>
0

>  <SCORE.INTRA.REPUL>
0

>  <SCORE.INTRA.REPUL.0>
0

>  <SCORE.INTRA.SOLV>
0

>  <SCORE.INTRA.SOLV.lig_0>
-16.9472

>  <SCORE.INTRA.VDW>
0

>  <SCORE.INTRA.VDW.0>
0

>  <SCORE.INTRA.norm>
0

>  <SCORE.RESTR>
0

>  <SCORE.RESTR.CAVITY>
0

>  <SCORE.RESTR.norm>
0

>  <SCORE.SYSTEM>
0

>  <SCORE.SYSTEM.CONST>
0

>  <SCORE.SYSTEM.DIHEDRAL>
0

>  <SCORE.SYSTEM.SOLV>
0

>  <SCORE.SYSTEM.norm>
0

>  <SCORE.heavy>
10

>  <SCORE.norm>
-2.66651

>  <RMSD>
0.656

$$$$
1y26_lig
 OpenBabel02141814133D
libRbt.so/2013.1/901 2013/11/27
 10 11  0  0  0  0  0  0  0  0999 V2000
   19.4807  -17.0619    2.9772 N   0  0  0  0  0  0  0  0  0  0  0  0
   18.7678  -18.1564    2.7000 C   0  0  0  0  0  0  0  0  0  0  0  0
   18.4485  -19.1625    3.5117 N   0  0  0  0  0  0  0  0  0  0  0  0
   18.9296  -18.9478    4.7569 C   0  0  0  0  0  0  0  0  0  0  0  0
   19.6670  -17.8635    5.1891 C   0  0  0  0  0  0  0  0  0  0  0  0
   19.9475  -16.8851    4.2307 C   0  0  0  0  0  0  0  0  0  0  0  0
   20.6605  -15.8112    4.5295 N   0  0  0  0  0  0  0  0  0  0  0  0
   20.0095  -17.9599    6.5179 N   0  0  0  0  0  0  0  0  0  0  0  0
   19.4437  -19.0954    6.8837 C   0  0  0  0  0  0  0  0  0  0  0  0
   18.7870  -19.7453    5.8611 N   0  0  0  0  0  0  0  0  0  0  0  0
  1  2  2  0  0  0  0
  2  3  1  0  0  0  0
  3  4  2  0  0  0  0
  5  4  1  0  0  0  0
  5  6  2  0  0  0  0
  6  1  1  0  0  0  0
  6  7  1  0  0  0  0
  8  5  1  0  0  0  0
  9  8  1  0  0  0  0
 10  4  1  0  0  0  0
 10  9  2  0  0  0  0
M  END
>  <CHROM.1>
19.41423889,-18.06827827,4.71418726,1.38806320,-0.99937485,-1.10091640

>  <Name>
1y26_lig

>  <RI>
224

>  <Rbt.Current_Directory>
/home/afrankz/demos/rdock_decoys_rna/rnas/1y26

>  <Rbt.Executable>
rbdock ($Id: //depot/dev/client3/rdock/2013.1/src/exe/rbdock.cxx#4 $)

>  <Rbt.Library>
libRbt.so (2013.1, Build901 2013/11/27)

>  <Rbt.Parameter_File>
/export/apps/rDock/src/rDock_2013.1_src/data/scripts/dock_solv.prm

>  <Rbt.Receptor>
prm/pocket_docking_3.prm

>  <SCORE>
-26.6654

>  <SCORE.INTER>
-26.6654

>  <SCORE.INTER.CONST>
1

>  <SCORE.INTER.POLAR>
-2.0198

>  <SCORE.INTER.ROT>
0

>  <SCORE.INTER.SOLV>
12.6455

>  <SCORE.INTER.VDW>
-18.8594

>  <SCORE.INTER.norm>
-2.66654

>  <SCORE.INTRA>
0

>  <SCORE.INTRA.DIHEDRAL>
0

>  <SCORE.INTRA.DIHEDRAL.0>
0

>  <SCORE.INTRA.POLAR>
0

>  <SCORE.INTRA.POLAR.0>
0

>  <SCORE.INTRA.REPUL>
0

>  <SCORE.INTRA.REPUL.0>
0

>  <SCORE.INTRA.SOLV>
0

>  <SCORE.INTRA.SOLV.lig_0>
-16.9472

>  <SCORE.INTRA.VDW>
0

>  <SCORE.INTRA.VDW.0>
0

>  <SCORE.INTRA.norm>
0

>  <SCORE.RESTR>
0

>  <SCORE.RESTR.CAVITY>
0

>  <SCORE.RESTR.norm>
0

>  <SCORE.SYSTEM>
0

>  <SCORE.SYSTEM.CONST>
0

>  <SCORE.SYSTEM.DIHEDRAL>
0

>  <SCORE.SYSTEM.SOLV>
0

>  <SCORE.SYSTEM.norm>
0

>  <SCORE.heavy>
10

>  <SCORE.norm>
-2.66654

>  <RMSD>
0.656

$$$$
1y26_lig
 OpenBabel02141814133D
libRbt.so/2013.1/901 2013/11/27
 10 11  0  0  0  0  0  0  0  0999 V2000
   19.4739  -17.0545    2.9814 N   0  0  0  0  0  0  0  0  0  0  0  0
   18.7645  -18.1493    2.6961 C   0  0  0  0  0  0  0  0  0  0  0  0
   18.4476  -19.1618    3.5006 N   0  0  0  0  0  0  0  0  0  0  0  0
   18.9271  -18.9543    4.7477 C   0  0  0  0  0  0  0  0  0  0  0  0
   19.6609  -17.8708    5.1879 C   0  0  0  0  0  0  0  0  0  0  0  0
   19.9391  -16.8849    4.2364 C   0  0  0  0  0  0  0  0  0  0  0  0
   20.6487  -15.8109    4.5432 N   0  0  0  0  0  0  0  0  0  0  0  0
   20.0027  -17.9752    6.5162 N   0  0  0  0  0  0  0  0  0  0  0  0
   19.4399  -19.1149    6.8738 C   0  0  0  0  0  0  0  0  0  0  0  0
   18.7860  -19.7598    5.8462 N   0  0  0  0  0  0  0  0  0  0  0  0
  1  2  2  0  0  0  0
  2  3  1  0  0  0  0
  3  4  2  0  0  0  0
  5  4  1  0  0  0  0
  5  6  2  0  0  0  0
  6  1  1  0  0  0  0
  6  7  1  0  0  0  0
  8  5  1  0  0  0  0
  9  8  1  0  0  0  0
 10  4  1  0  0  0  0
 10  9  2  0  0  0  0
M  END
>  <CHROM.1>
19.40909528,-18.07301472,4.71136380,1.38932174,-1.00242582,-1.09299044

>  <Name>
1y26_lig

>  <RI>
0

>  <Rbt.Current_Directory>
/home/afrankz/demos/rdock_decoys_rna/rnas/1y26

>  <Rbt.Executable>
rbdock ($Id: //depot/dev/client3/rdock/2013.1/src/exe/rbdock.cxx#4 $)

>  <Rbt.Library>
libRbt.so (2013.1, Build901 2013/11/27)

>  <Rbt.Parameter_File>
/export/apps/rDock/src/rDock_2013.1_src/data/scripts/dock_solv.prm

>  <Rbt.Receptor>
prm/pocket_docking_5.prm

>  <SCORE>
-26.6704

>  <SCORE.INTER>
-26.6704

>  <SCORE.INTER.CONST>
1

>  <SCORE.INTER.POLAR>
-2.0198

>  <SCORE.INTER.ROT>
0

>  <SCORE.INTER.SOLV>
12.6851

>  <SCORE.INTER.VDW>
-18.8759

>  <SCORE.INTER.norm>
-2.66704

>  <SCORE.INTRA>
0

>  <SCORE.INTRA.DIHEDRAL>
0

>  <SCORE.INTRA.DIHEDRAL.0>
0

>  <SCORE.INTRA.POLAR>
0

>  <SCORE.INTRA.POLAR.0>
0

>  <SCORE.INTRA.REPUL>
0

>  <SCORE.INTRA.REPUL.0>
0

>  <SCORE.INTRA.SOLV>
0

>  <SCORE.INTRA.SOLV.lig_0>
-16.9472

>  <SCORE.INTRA.VDW>
0

>  <SCORE.INTRA.VDW.0>
0

>  <SCORE.INTRA.norm>
0

>  <SCORE.RESTR>
0

>  <SCORE.RESTR.CAVITY>
0

>  <SCORE.RESTR.norm>
0

>  <SCORE.SYSTEM>
0

>  <SCORE.SYSTEM.CONST>
0

>  <SCORE.SYSTEM.DIHEDRAL>
0

>  <SCORE.SYSTEM.SOLV>
0

>  <SCORE.SYSTEM.norm>
0

>  <SCORE.heavy>
10

>  <SCORE.norm>
-2.66704

>  <RMSD>
0.656

$$$$
1y26_lig
 OpenBabel02141814133D
libRbt.so/2013.1/901 2013/11/27
 10 11  0  0  0  0  0  0  0  0999 V2000
   19.5604  -17.0748    2.9669 N   0  0  0  0  0  0  0  0  0  0  0  0
   18.8763  -18.1755    2.6449 C   0  0  0  0  0  0  0  0  0  0  0  0
   18.5480  -19.2028    3.4258 N   0  0  0  0  0  0  0  0  0  0  0  0
   18.9841  -19.0050    4.6903 C   0  0  0  0  0  0  0  0  0  0  0  0
   19.6878  -17.9173    5.1677 C   0  0  0  0  0  0  0  0  0  0  0  0
   19.9825  -16.9153    4.2383 C   0  0  0  0  0  0  0  0  0  0  0  0
   20.6665  -15.8357    4.5815 N   0  0  0  0  0  0  0  0  0  0  0  0
   19.9881  -18.0344    6.5050 N   0  0  0  0  0  0  0  0  0  0  0  0
   19.4304  -19.1864    6.8298 C   0  0  0  0  0  0  0  0  0  0  0  0
   18.8192  -19.8267    5.7734 N   0  0  0  0  0  0  0  0  0  0  0  0
  1  2  2  0  0  0  0
  2  3  1  0  0  0  0
  3  4  2  0  0  0  0
  5  4  1  0  0  0  0
  5  6  2  0  0  0  0
  6  1  1  0  0  0  0
  6  7  1  0  0  0  0
  8  5  1  0  0  0  0
  9  8  1  0  0  0  0
 10  4  1  0  0  0  0
 10  9  2  0  0  0  0
M  END
>  <CHROM.1>
19.45444191,-18.11673452,4.68079846,1.34646075,-1.02948853,-1.11654003

>  <Name>
1y26_lig

>  <RI>
224

>  <Rbt.Current_Directory>
/home/afrankz/demos/rdock_decoys_rna/rnas/1y26

>  <Rbt.Executable>
rbdock ($Id: //depot/dev/client3/rdock/2013.1/src/exe/rbdock.cxx#4 $)

>  <Rbt.Library>
libRbt.so (2013.1, Build901 2013/11/27)

>  <Rbt.Parameter_File>
/export/apps/rDock/src/rDock_2013.1_src/data/scripts/dock_solv.prm

>  <Rbt.Receptor>
prm/pocket_docking_7.prm

>  <SCORE>
-26.6374

>  <SCORE.INTER>
-26.6374

>  <SCORE.INTER.CONST>
1

>  <SCORE.INTER.POLAR>
-2.0198

>  <SCORE.INTER.ROT>
0

>  <SCORE.INTER.SOLV>
12.6146

>  <SCORE.INTER.VDW>
-18.8304

>  <SCORE.INTER.norm>
-2.66374

>  <SCORE.INTRA>
0

>  <SCORE.INTRA.DIHEDRAL>
0

>  <SCORE.INTRA.DIHEDRAL.0>
0

>  <SCORE.INTRA.POLAR>
0

>  <SCORE.INTRA.POLAR.0>
0

>  <SCORE.INTRA.REPUL>
0

>  <SCORE.INTRA.REPUL.0>
0

>  <SCORE.INTRA.SOLV>
0

>  <SCORE.INTRA.SOLV.lig_0>
-16.9472

>  <SCORE.INTRA.VDW>
0

>  <SCORE.INTRA.VDW.0>
0

>  <SCORE.INTRA.norm>
0

>  <SCORE.RESTR>
0

>  <SCORE.RESTR.CAVITY>
0

>  <SCORE.RESTR.norm>
0

>  <SCORE.SYSTEM>
0

>  <SCORE.SYSTEM.CONST>
0

>  <SCORE.SYSTEM.DIHEDRAL>
0

>  <SCORE.SYSTEM.SOLV>
0

>  <SCORE.SYSTEM.norm>
0

>  <SCORE.heavy>
10

>  <SCORE.norm>
-2.66374

>  <RMSD>
0.656

$$$$
1y26_lig
 OpenBabel02141814133D
libRbt.so/2013.1/901 2013/11/27
 10 11  0  0  0  0  0  0  0  0999 V2000
   19.4461  -17.0522    2.9792 N   0  0  0  0  0  0  0  0  0  0  0  0
   18.7398  -18.1522    2.7064 C   0  0  0  0  0  0  0  0  0  0  0  0
   18.4358  -19.1620    3.5193 N   0  0  0  0  0  0  0  0  0  0  0  0
   18.9260  -18.9453    4.7607 C   0  0  0  0  0  0  0  0  0  0  0  0
   19.6582  -17.8555    5.1881 C   0  0  0  0  0  0  0  0  0  0  0  0
   19.9222  -16.8734    4.2288 C   0  0  0  0  0  0  0  0  0  0  0  0
   20.6290  -15.7941    4.5231 N   0  0  0  0  0  0  0  0  0  0  0  0
   20.0130  -17.9510    6.5137 N   0  0  0  0  0  0  0  0  0  0  0  0
   19.4597  -19.0917    6.8827 C   0  0  0  0  0  0  0  0  0  0  0  0
   18.7996  -19.7455    5.8648 N   0  0  0  0  0  0  0  0  0  0  0  0
  1  2  2  0  0  0  0
  2  3  1  0  0  0  0
  3  4  2  0  0  0  0
  5  4  1  0  0  0  0
  5  6  2  0  0  0  0
  6  1  1  0  0  0  0
  6  7  1  0  0  0  0
  8  5  1  0  0  0  0
  9  8  1  0  0  0  0
 10  4  1  0  0  0  0
 10  9  2  0  0  0  0
M  END
>  <CHROM.1>
19.40299658,-18.06167783,4.71509094,1.40939032,-1.00267026,-1.08145535

>  <Name>
1y26_lig

>  <RI>
224

>  <Rbt.Current_Directory>
/home/afrankz/demos/rdock_decoys_rna/rnas/1y26

>  <Rbt.Executable>
rbdock ($Id: //depot/dev/client3/rdock/2013.1/src/exe/rbdock.cxx#4 $)

>  <Rbt.Library>
libRbt.so (2013.1, Build901 2013/11/27)

>  <Rbt.Parameter_File>
/export/apps/rDock/src/rDock_2013.1_src/data/scripts/dock_solv.prm

>  <Rbt.Receptor>
prm/pocket_docking_7.prm

>  <SCORE>
-26.6772

>  <SCORE.INTER>
-26.6772

>  <SCORE.INTER.CONST>
1

>  <SCORE.INTER.POLAR>
-2.0198

>  <SCORE.INTER.ROT>
0

>  <SCORE.INTER.SOLV>
12.7226

>  <SCORE.INTER.VDW>
-18.893

>  <SCORE.INTER.norm>
-2.66772

>  <SCORE.INTRA>
0

>  <SCORE.INTRA.DIHEDRAL>
0

>  <SCORE.INTRA.DIHEDRAL.0>
0

>  <SCORE.INTRA.POLAR>
0

>  <SCORE.INTRA.POLAR.0>
0

>  <SCORE.INTRA.REPUL>
0

>  <SCORE.INTRA.REPUL.0>
0

>  <SCORE.INTRA.SOLV>
0

>  <SCORE.INTRA.SOLV.lig_0>
-16.9472

>  <SCORE.INTRA.VDW>
0

>  <SCORE.INTRA.VDW.0>
0

>  <SCORE.INTRA.norm>
0

>  <SCORE.RESTR>
0

>  <SCORE.RESTR.CAVITY>
0

>  <SCORE.RESTR.norm>
0

>  <SCORE.SYSTEM>
0

>  <SCORE.SYSTEM.CONST>
0

>  <SCORE.SYSTEM.DIHEDRAL>
0

>  <SCORE.SYSTEM.SOLV>
0

>  <SCORE.SYSTEM.norm>
0

>  <SCORE.heavy>
10

>  <SCORE.norm>
-2.66772

>  <RMSD>
0.656

$$$$
1y26_lig
 OpenBabel02141814133D
libRbt.so/2013.1/901 2013/11/27
 10 11  0  0  0  0  0  0  0  0999 V2000
   19.4775  -17.0574    2.9815 N   0  0  0  0  0  0  0  0  0  0  0  0
   18.7643  -18.1499    2.6969 C   0  0  0  0  0  0  0  0  0  0  0  0
   18.4477  -19.1630    3.5008 N   0  0  0  0  0  0  0  0  0  0  0  0
   18.9322  -18.9589    4.7465 C   0  0  0  0  0  0  0  0  0  0  0  0
   19.6704  -17.8780    5.1859 C   0  0  0  0  0  0  0  0  0  0  0  0
   19.9477  -16.8913    4.2351 C   0  0  0  0  0  0  0  0  0  0  0  0
   20.6612  -15.8196    4.5411 N   0  0  0  0  0  0  0  0  0  0  0  0
   20.0168  -17.9856    6.5128 N   0  0  0  0  0  0  0  0  0  0  0  0
   19.4524  -19.1245    6.8705 C   0  0  0  0  0  0  0  0  0  0  0  0
   18.7931  -19.7659    5.8441 N   0  0  0  0  0  0  0  0  0  0  0  0
  1  2  2  0  0  0  0
  2  3  1  0  0  0  0
  3  4  2  0  0  0  0
  5  4  1  0  0  0  0
  5  6  2  0  0  0  0
  6  1  1  0  0  0  0
  6  7  1  0  0  0  0
  8  5  1  0  0  0  0
  9  8  1  0  0  0  0
 10  4  1  0  0  0  0
 10  9  2  0  0  0  0
M  END
>  <CHROM.1>
19.41639109,-18.07878969,4.70995139,1.39311732,-0.99845436,-1.08806080

>  <Name>
1y26_lig

>  <RI>
0

>  <Rbt.Current_Directory>
/home/afrankz/demos/rdock_decoys_rna/rnas/1y26

>  <Rbt.Executable>
rbdock ($Id: //depot/dev/client3/rdock/2013.1/src/exe/rbdock.cxx#4 $)

>  <Rbt.Library>
libRbt.so (2013.1, Build901 2013/11/27)

>  <Rbt.Parameter_File>
/export/apps/rDock/src/rDock_2013.1_src/data/scripts/dock_solv.prm

>  <Rbt.Receptor>
prm/blind_docking_100.prm

>  <SCORE>
-26.6734

>  <SCORE.INTER>
-26.6734

>  <SCORE.INTER.CONST>
1

>  <SCORE.INTER.POLAR>
-2.0198

>  <SCORE.INTER.ROT>
0

>  <SCORE.INTER.SOLV>
12.6677

>  <SCORE.INTER.VDW>
-18.8721

>  <SCORE.INTER.norm>
-2.66734

>  <SCORE.INTRA>
0

>  <SCORE.INTRA.DIHEDRAL>
0

>  <SCORE.INTRA.DIHEDRAL.0>
0

>  <SCORE.INTRA.POLAR>
0

>  <SCORE.INTRA.POLAR.0>
0

>  <SCORE.INTRA.REPUL>
0

>  <SCORE.INTRA.REPUL.0>
0

>  <SCORE.INTRA.SOLV>
0

>  <SCORE.INTRA.SOLV.lig_0>
-16.9472

>  <SCORE.INTRA.VDW>
0

>  <SCORE.INTRA.VDW.0>
0

>  <SCORE.INTRA.norm>
0

>  <SCORE.RESTR>
0

>  <SCORE.RESTR.CAVITY>
0

>  <SCORE.RESTR.norm>
0

>  <SCORE.SYSTEM>
0

>  <SCORE.SYSTEM.CONST>
0

>  <SCORE.SYSTEM.DIHEDRAL>
0

>  <SCORE.SYSTEM.SOLV>
0

>  <SCORE.SYSTEM.norm>
0

>  <SCORE.heavy>
10

>  <SCORE.norm>
-2.66734

>  <RMSD>
0.657

$$$$
1y26_lig
 OpenBabel02141814133D
libRbt.so/2013.1/901 2013/11/27
 10 11  0  0  0  0  0  0  0  0999 V2000
   19.4826  -17.0695    2.9784 N   0  0  0  0  0  0  0  0  0  0  0  0
   18.7652  -18.1611    2.7011 C   0  0  0  0  0  0  0  0  0  0  0  0
   18.4454  -19.1680    3.5116 N   0  0  0  0  0  0  0  0  0  0  0  0
   18.9315  -18.9576    4.7557 C   0  0  0  0  0  0  0  0  0  0  0  0
   19.6739  -17.8767    5.1878 C   0  0  0  0  0  0  0  0  0  0  0  0
   19.9542  -16.8970    4.2306 C   0  0  0  0  0  0  0  0  0  0  0  0
   20.6718  -15.8261    4.5293 N   0  0  0  0  0  0  0  0  0  0  0  0
   20.0206  -17.9771    6.5152 N   0  0  0  0  0  0  0  0  0  0  0  0
   19.4523  -19.1116    6.8804 C   0  0  0  0  0  0  0  0  0  0  0  0
   18.7901  -19.7571    5.8586 N   0  0  0  0  0  0  0  0  0  0  0  0
  1  2  2  0  0  0  0
  2  3  1  0  0  0  0
  3  4  2  0  0  0  0
  5  4  1  0  0  0  0
  5  6  2  0  0  0  0
  6  1  1  0  0  0  0
  6  7  1  0  0  0  0
  8  5  1  0  0  0  0
  9  8  1  0  0  0  0
 10  4  1  0  0  0  0
 10  9  2  0  0  0  0
M  END
>  <CHROM.1>
19.41881831,-18.07955107,4.71328820,1.39098358,-0.99494871,-1.09623777

>  <Name>
1y26_lig

>  <RI>
224

>  <Rbt.Current_Directory>
/home/afrankz/demos/rdock_decoys_rna/rnas/1y26

>  <Rbt.Executable>
rbdock ($Id: //depot/dev/client3/rdock/2013.1/src/exe/rbdock.cxx#4 $)

>  <Rbt.Library>
libRbt.so (2013.1, Build901 2013/11/27)

>  <Rbt.Parameter_File>
/export/apps/rDock/src/rDock_2013.1_src/data/scripts/dock_solv.prm

>  <Rbt.Receptor>
prm/pocket_docking_3.prm

>  <SCORE>
-26.6681

>  <SCORE.INTER>
-26.6681

>  <SCORE.INTER.CONST>
1

>  <SCORE.INTER.POLAR>
-2.0198

>  <SCORE.INTER.ROT>
0

>  <SCORE.INTER.SOLV>
12.629

>  <SCORE.INTER.VDW>
-18.8557

>  <SCORE.INTER.norm>
-2.66681

>  <SCORE.INTRA>
0

>  <SCORE.INTRA.DIHEDRAL>
0

>  <SCORE.INTRA.DIHEDRAL.0>
0

>  <SCORE.INTRA.POLAR>
0

>  <SCORE.INTRA.POLAR.0>
0

>  <SCORE.INTRA.REPUL>
0

>  <SCORE.INTRA.REPUL.0>
0

>  <SCORE.INTRA.SOLV>
0

>  <SCORE.INTRA.SOLV.lig_0>
-16.9472

>  <SCORE.INTRA.VDW>
0

>  <SCORE.INTRA.VDW.0>
0

>  <SCORE.INTRA.norm>
0

>  <SCORE.RESTR>
0

>  <SCORE.RESTR.CAVITY>
0

>  <SCORE.RESTR.norm>
0

>  <SCORE.SYSTEM>
0

>  <SCORE.SYSTEM.CONST>
0

>  <SCORE.SYSTEM.DIHEDRAL>
0

>  <SCORE.SYSTEM.SOLV>
0

>  <SCORE.SYSTEM.norm>
0

>  <SCORE.heavy>
10

>  <SCORE.norm>
-2.66681

>  <RMSD>
0.657

$$$$
1y26_lig
 OpenBabel02141814133D
libRbt.so/2013.1/901 2013/11/27
 10 11  0  0  0  0  0  0  0  0999 V2000
   19.4735  -17.0608    2.9816 N   0  0  0  0  0  0  0  0  0  0  0  0
   18.7577  -18.1519    2.6982 C   0  0  0  0  0  0  0  0  0  0  0  0
   18.4415  -19.1649    3.5023 N   0  0  0  0  0  0  0  0  0  0  0  0
   18.9297  -18.9623    4.7469 C   0  0  0  0  0  0  0  0  0  0  0  0
   19.6708  -17.8829    5.1849 C   0  0  0  0  0  0  0  0  0  0  0  0
   19.9473  -16.8961    4.2340 C   0  0  0  0  0  0  0  0  0  0  0  0
   20.6634  -15.8258    4.5388 N   0  0  0  0  0  0  0  0  0  0  0  0
   20.0204  -17.9919    6.5109 N   0  0  0  0  0  0  0  0  0  0  0  0
   19.4551  -19.1300    6.8694 C   0  0  0  0  0  0  0  0  0  0  0  0
   18.7920  -19.7697    5.8444 N   0  0  0  0  0  0  0  0  0  0  0  0
  1  2  2  0  0  0  0
  2  3  1  0  0  0  0
  3  4  2  0  0  0  0
  5  4  1  0  0  0  0
  5  6  2  0  0  0  0
  6  1  1  0  0  0  0
  6  7  1  0  0  0  0
  8  5  1  0  0  0  0
  9  8  1  0  0  0  0
 10  4  1  0  0  0  0
 10  9  2  0  0  0  0
M  END
>  <CHROM.1>
19.41519523,-18.08298974,4.70955453,1.39589196,-0.99575541,-1.08516404

>  <Name>
1y26_lig

>  <RI>
0

>  <Rbt.Current_Directory>
/home/afrankz/demos/rdock_decoys_rna/rnas/1y26

>  <Rbt.Executable>
rbdock ($Id: //depot/dev/client3/rdock/2013.1/src/exe/rbdock.cxx#4 $)

>  <Rbt.Library>
libRbt.so (2013.1, Build901 2013/11/27)

>  <Rbt.Parameter_File>
/export/apps/rDock/src/rDock_2013.1_src/data/scripts/dock_solv.prm

>  <Rbt.Receptor>
prm/pocket_docking_4.prm

>  <SCORE>
-26.669

>  <SCORE.INTER>
-26.669

>  <SCORE.INTER.CONST>
1

>  <SCORE.INTER.POLAR>
-2.0198

>  <SCORE.INTER.ROT>
0

>  <SCORE.INTER.SOLV>
12.6656

>  <SCORE.INTER.VDW>
-18.8686

>  <SCORE.INTER.norm>
-2.6669

>  <SCORE.INTRA>
0

>  <SCORE.INTRA.DIHEDRAL>
0

>  <SCORE.INTRA.DIHEDRAL.0>
0

>  <SCORE.INTRA.POLAR>
0

>  <SCORE.INTRA.POLAR.0>
0

>  <SCORE.INTRA.REPUL>
0

>  <SCORE.INTRA.REPUL.0>
0

>  <SCORE.INTRA.SOLV>
0

>  <SCORE.INTRA.SOLV.lig_0>
-16.9472

>  <SCORE.INTRA.VDW>
0

>  <SCORE.INTRA.VDW.0>
0

>  <SCORE.INTRA.norm>
0

>  <SCORE.RESTR>
0

>  <SCORE.RESTR.CAVITY>
0

>  <SCORE.RESTR.norm>
0

>  <SCORE.SYSTEM>
0

>  <SCORE.SYSTEM.CONST>
0

>  <SCORE.SYSTEM.DIHEDRAL>
0

>  <SCORE.SYSTEM.SOLV>
0

>  <SCORE.SYSTEM.norm>
0

>  <SCORE.heavy>
10

>  <SCORE.norm>
-2.6669

>  <RMSD>
0.657

$$$$
1y26_lig
 OpenBabel02141814133D
libRbt.so/2013.1/901 2013/11/27
 10 11  0  0  0  0  0  0  0  0999 V2000
   19.4743  -17.0560    2.9822 N   0  0  0  0  0  0  0  0  0  0  0  0
   18.7628  -18.1492    2.6960 C   0  0  0  0  0  0  0  0  0  0  0  0
   18.4460  -19.1630    3.4991 N   0  0  0  0  0  0  0  0  0  0  0  0
   18.9282  -18.9587    4.7457 C   0  0  0  0  0  0  0  0  0  0  0  0
   19.6644  -17.8771    5.1866 C   0  0  0  0  0  0  0  0  0  0  0  0
   19.9422  -16.8897    4.2367 C   0  0  0  0  0  0  0  0  0  0  0  0
   20.6539  -15.8173    4.5443 N   0  0  0  0  0  0  0  0  0  0  0  0
   20.0086  -17.9847    6.5141 N   0  0  0  0  0  0  0  0  0  0  0  0
   19.4450  -19.1244    6.8705 C   0  0  0  0  0  0  0  0  0  0  0  0
   18.7882  -19.7662    5.8428 N   0  0  0  0  0  0  0  0  0  0  0  0
  1  2  2  0  0  0  0
  2  3  1  0  0  0  0
  3  4  2  0  0  0  0
  5  4  1  0  0  0  0
  5  6  2  0  0  0  0
  6  1  1  0  0  0  0
  6  7  1  0  0  0  0
  8  5  1  0  0  0  0
  9  8  1  0  0  0  0
 10  4  1  0  0  0  0
 10  9  2  0  0  0  0
M  END
>  <CHROM.1>
19.41141120,-18.07798154,4.71021913,1.39131251,-1.00028201,-1.08925799

>  <Name>
1y26_lig

>  <RI>
0

>  <Rbt.Current_Directory>
/home/afrankz/demos/rdock_decoys_rna/rnas/1y26

>  <Rbt.Executable>
rbdock ($Id: //depot/dev/client3/rdock/2013.1/src/exe/rbdock.cxx#4 $)

>  <Rbt.Library>
libRbt.so (2013.1, Build901 2013/11/27)

>  <Rbt.Parameter_File>
/export/apps/rDock/src/rDock_2013.1_src/data/scripts/dock_solv.prm

>  <Rbt.Receptor>
prm/pocket_docking_5.prm

>  <SCORE>
-26.6723

>  <SCORE.INTER>
-26.6723

>  <SCORE.INTER.CONST>
1

>  <SCORE.INTER.POLAR>
-2.0198

>  <SCORE.INTER.ROT>
0

>  <SCORE.INTER.SOLV>
12.6809

>  <SCORE.INTER.VDW>
-18.8758

>  <SCORE.INTER.norm>
-2.66723

>  <SCORE.INTRA>
0

>  <SCORE.INTRA.DIHEDRAL>
0

>  <SCORE.INTRA.DIHEDRAL.0>
0

>  <SCORE.INTRA.POLAR>
0

>  <SCORE.INTRA.POLAR.0>
0

>  <SCORE.INTRA.REPUL>
0

>  <SCORE.INTRA.REPUL.0>
0

>  <SCORE.INTRA.SOLV>
0

>  <SCORE.INTRA.SOLV.lig_0>
-16.9472

>  <SCORE.INTRA.VDW>
0

>  <SCORE.INTRA.VDW.0>
0

>  <SCORE.INTRA.norm>
0

>  <SCORE.RESTR>
0

>  <SCORE.RESTR.CAVITY>
0

>  <SCORE.RESTR.norm>
0

>  <SCORE.SYSTEM>
0

>  <SCORE.SYSTEM.CONST>
0

>  <SCORE.SYSTEM.DIHEDRAL>
0

>  <SCORE.SYSTEM.SOLV>
0

>  <SCORE.SYSTEM.norm>
0

>  <SCORE.heavy>
10

>  <SCORE.norm>
-2.66723

>  <RMSD>
0.657

$$$$
1y26_lig
 OpenBabel02141814133D
libRbt.so/2013.1/901 2013/11/27
 10 11  0  0  0  0  0  0  0  0999 V2000
   19.5029  -17.0717    2.9645 N   0  0  0  0  0  0  0  0  0  0  0  0
   18.8276  -18.1887    2.6824 C   0  0  0  0  0  0  0  0  0  0  0  0
   18.5238  -19.1986    3.4953 N   0  0  0  0  0  0  0  0  0  0  0  0
   18.9764  -18.9618    4.7473 C   0  0  0  0  0  0  0  0  0  0  0  0
   19.6737  -17.8534    5.1847 C   0  0  0  0  0  0  0  0  0  0  0  0
   19.9420  -16.8732    4.2246 C   0  0  0  0  0  0  0  0  0  0  0  0
   20.6177  -15.7767    4.5284 N   0  0  0  0  0  0  0  0  0  0  0  0
   19.9954  -17.9310    6.5199 N   0  0  0  0  0  0  0  0  0  0  0  0
   19.4569  -19.0804    6.8837 C   0  0  0  0  0  0  0  0  0  0  0  0
   18.8379  -19.7561    5.8542 N   0  0  0  0  0  0  0  0  0  0  0  0
  1  2  2  0  0  0  0
  2  3  1  0  0  0  0
  3  4  2  0  0  0  0
  5  4  1  0  0  0  0
  5  6  2  0  0  0  0
  6  1  1  0  0  0  0
  6  7  1  0  0  0  0
  8  5  1  0  0  0  0
  9  8  1  0  0  0  0
 10  4  1  0  0  0  0
 10  9  2  0  0  0  0
M  END
>  <CHROM.1>
19.43549044,-18.06854759,4.70693253,1.38341749,-1.03369724,-1.11152344

>  <Name>
1y26_lig

>  <RI>
0

>  <Rbt.Current_Directory>
/home/afrankz/demos/rdock_decoys_rna/rnas/1y26

>  <Rbt.Executable>
rbdock ($Id: //depot/dev/client3/rdock/2013.1/src/exe/rbdock.cxx#4 $)

>  <Rbt.Library>
libRbt.so (2013.1, Build901 2013/11/27)

>  <Rbt.Parameter_File>
/export/apps/rDock/src/rDock_2013.1_src/data/scripts/dock_solv.prm

>  <Rbt.Receptor>
prm/pocket_docking_8.prm

>  <SCORE>
-26.6202

>  <SCORE.INTER>
-26.6202

>  <SCORE.INTER.CONST>
1

>  <SCORE.INTER.POLAR>
-2.0198

>  <SCORE.INTER.ROT>
0

>  <SCORE.INTER.SOLV>
12.6817

>  <SCORE.INTER.VDW>
-18.8414

>  <SCORE.INTER.norm>
-2.66202

>  <SCORE.INTRA>
0

>  <SCORE.INTRA.DIHEDRAL>
0

>  <SCORE.INTRA.DIHEDRAL.0>
0

>  <SCORE.INTRA.POLAR>
0

>  <SCORE.INTRA.POLAR.0>
0

>  <SCORE.INTRA.REPUL>
0

>  <SCORE.INTRA.REPUL.0>
0

>  <SCORE.INTRA.SOLV>
0

>  <SCORE.INTRA.SOLV.lig_0>
-16.9472

>  <SCORE.INTRA.VDW>
0

>  <SCORE.INTRA.VDW.0>
0

>  <SCORE.INTRA.norm>
0

>  <SCORE.RESTR>
0

>  <SCORE.RESTR.CAVITY>
0

>  <SCORE.RESTR.norm>
0

>  <SCORE.SYSTEM>
0

>  <SCORE.SYSTEM.CONST>
0

>  <SCORE.SYSTEM.DIHEDRAL>
0

>  <SCORE.SYSTEM.SOLV>
0

>  <SCORE.SYSTEM.norm>
0

>  <SCORE.heavy>
10

>  <SCORE.norm>
-2.66202

>  <RMSD>
0.657

$$$$
1y26_lig
 OpenBabel02141814133D
libRbt.so/2013.1/901 2013/11/27
 10 11  0  0  0  0  0  0  0  0999 V2000
   19.6005  -17.0659    2.9729 N   0  0  0  0  0  0  0  0  0  0  0  0
   18.8921  -18.1544    2.6627 C   0  0  0  0  0  0  0  0  0  0  0  0
   18.5322  -19.1606    3.4571 N   0  0  0  0  0  0  0  0  0  0  0  0
   18.9626  -18.9531    4.7220 C   0  0  0  0  0  0  0  0  0  0  0  0
   19.6890  -17.8754    5.1880 C   0  0  0  0  0  0  0  0  0  0  0  0
   20.0159  -16.8962    4.2453 C   0  0  0  0  0  0  0  0  0  0  0  0
   20.7235  -15.8283    4.5770 N   0  0  0  0  0  0  0  0  0  0  0  0
   19.9753  -17.9782    6.5295 N   0  0  0  0  0  0  0  0  0  0  0  0
   19.3867  -19.1107    6.8678 C   0  0  0  0  0  0  0  0  0  0  0  0
   18.7685  -19.7529    5.8166 N   0  0  0  0  0  0  0  0  0  0  0  0
  1  2  2  0  0  0  0
  2  3  1  0  0  0  0
  3  4  2  0  0  0  0
  5  4  1  0  0  0  0
  5  6  2  0  0  0  0
  6  1  1  0  0  0  0
  6  7  1  0  0  0  0
  8  5  1  0  0  0  0
  9  8  1  0  0  0  0
 10  4  1  0  0  0  0
 10  9  2  0  0  0  0
M  END
>  <CHROM.1>
19.45474065,-18.07693744,4.70231322,1.31218923,-1.01065128,-1.16184292

>  <Name>
1y26_lig

>  <RI>
224

>  <Rbt.Current_Directory>
/home/afrankz/demos/rdock_decoys_rna/rnas/1y26

>  <Rbt.Executable>
rbdock ($Id: //depot/dev/client3/rdock/2013.1/src/exe/rbdock.cxx#4 $)

>  <Rbt.Library>
libRbt.so (2013.1, Build901 2013/11/27)

>  <Rbt.Parameter_File>
/export/apps/rDock/src/rDock_2013.1_src/data/scripts/dock_solv.prm

>  <Rbt.Receptor>
prm/blind_docking_80.prm

>  <SCORE>
-26.6338

>  <SCORE.INTER>
-26.6338

>  <SCORE.INTER.CONST>
1

>  <SCORE.INTER.POLAR>
-2.0198

>  <SCORE.INTER.ROT>
0

>  <SCORE.INTER.SOLV>
12.4749

>  <SCORE.INTER.VDW>
-18.7815

>  <SCORE.INTER.norm>
-2.66338

>  <SCORE.INTRA>
0

>  <SCORE.INTRA.DIHEDRAL>
0

>  <SCORE.INTRA.DIHEDRAL.0>
0

>  <SCORE.INTRA.POLAR>
0

>  <SCORE.INTRA.POLAR.0>
0

>  <SCORE.INTRA.REPUL>
0

>  <SCORE.INTRA.REPUL.0>
0

>  <SCORE.INTRA.SOLV>
0

>  <SCORE.INTRA.SOLV.lig_0>
-16.9472

>  <SCORE.INTRA.VDW>
0

>  <SCORE.INTRA.VDW.0>
0

>  <SCORE.INTRA.norm>
0

>  <SCORE.RESTR>
0

>  <SCORE.RESTR.CAVITY>
0

>  <SCORE.RESTR.norm>
0

>  <SCORE.SYSTEM>
0

>  <SCORE.SYSTEM.CONST>
0

>  <SCORE.SYSTEM.DIHEDRAL>
0

>  <SCORE.SYSTEM.SOLV>
0

>  <SCORE.SYSTEM.norm>
0

>  <SCORE.heavy>
10

>  <SCORE.norm>
-2.66338

>  <RMSD>
0.658

$$$$
1y26_lig
 OpenBabel02141814133D
libRbt.so/2013.1/901 2013/11/27
 10 11  0  0  0  0  0  0  0  0999 V2000
   19.5250  -17.0843    2.9771 N   0  0  0  0  0  0  0  0  0  0  0  0
   18.7937  -18.1659    2.6969 C   0  0  0  0  0  0  0  0  0  0  0  0
   18.4516  -19.1651    3.5078 N   0  0  0  0  0  0  0  0  0  0  0  0
   18.9297  -18.9580    4.7555 C   0  0  0  0  0  0  0  0  0  0  0  0
   19.6845  -17.8869    5.1907 C   0  0  0  0  0  0  0  0  0  0  0  0
   19.9880  -16.9147    4.2329 C   0  0  0  0  0  0  0  0  0  0  0  0
   20.7190  -15.8537    4.5346 N   0  0  0  0  0  0  0  0  0  0  0  0
   20.0179  -17.9881    6.5214 N   0  0  0  0  0  0  0  0  0  0  0  0
   19.4293  -19.1127    6.8852 C   0  0  0  0  0  0  0  0  0  0  0  0
   18.7665  -19.7516    5.8596 N   0  0  0  0  0  0  0  0  0  0  0  0
  1  2  2  0  0  0  0
  2  3  1  0  0  0  0
  3  4  2  0  0  0  0
  5  4  1  0  0  0  0
  5  6  2  0  0  0  0
  6  1  1  0  0  0  0
  6  7  1  0  0  0  0
  8  5  1  0  0  0  0
  9  8  1  0  0  0  0
 10  4  1  0  0  0  0
 10  9  2  0  0  0  0
M  END
>  <CHROM.1>
19.43057919,-18.08747154,4.71459438,1.36422909,-0.98541113,-1.12186205

>  <Name>
1y26_lig

>  <RI>
224

>  <Rbt.Current_Directory>
/home/afrankz/demos/rdock_decoys_rna/rnas/1y26

>  <Rbt.Executable>
rbdock ($Id: //depot/dev/client3/rdock/2013.1/src/exe/rbdock.cxx#4 $)

>  <Rbt.Library>
libRbt.so (2013.1, Build901 2013/11/27)

>  <Rbt.Parameter_File>
/export/apps/rDock/src/rDock_2013.1_src/data/scripts/dock_solv.prm

>  <Rbt.Receptor>
prm/pocket_docking_3.prm

>  <SCORE>
-26.6638

>  <SCORE.INTER>
-26.6638

>  <SCORE.INTER.CONST>
1

>  <SCORE.INTER.POLAR>
-2.0198

>  <SCORE.INTER.ROT>
0

>  <SCORE.INTER.SOLV>
12.5134

>  <SCORE.INTER.VDW>
-18.8143

>  <SCORE.INTER.norm>
-2.66638

>  <SCORE.INTRA>
0

>  <SCORE.INTRA.DIHEDRAL>
0

>  <SCORE.INTRA.DIHEDRAL.0>
0

>  <SCORE.INTRA.POLAR>
0

>  <SCORE.INTRA.POLAR.0>
0

>  <SCORE.INTRA.REPUL>
0

>  <SCORE.INTRA.REPUL.0>
0

>  <SCORE.INTRA.SOLV>
0

>  <SCORE.INTRA.SOLV.lig_0>
-16.9472

>  <SCORE.INTRA.VDW>
0

>  <SCORE.INTRA.VDW.0>
0

>  <SCORE.INTRA.norm>
0

>  <SCORE.RESTR>
0

>  <SCORE.RESTR.CAVITY>
0

>  <SCORE.RESTR.norm>
0

>  <SCORE.SYSTEM>
0

>  <SCORE.SYSTEM.CONST>
0

>  <SCORE.SYSTEM.DIHEDRAL>
0

>  <SCORE.SYSTEM.SOLV>
0

>  <SCORE.SYSTEM.norm>
0

>  <SCORE.heavy>
10

>  <SCORE.norm>
-2.66638

>  <RMSD>
0.659

$$$$
1y26_lig
 OpenBabel02141814133D
libRbt.so/2013.1/901 2013/11/27
 10 11  0  0  0  0  0  0  0  0999 V2000
   19.4805  -17.0583    2.9846 N   0  0  0  0  0  0  0  0  0  0  0  0
   18.7687  -18.1515    2.6991 C   0  0  0  0  0  0  0  0  0  0  0  0
   18.4494  -19.1634    3.5035 N   0  0  0  0  0  0  0  0  0  0  0  0
   18.9294  -18.9571    4.7506 C   0  0  0  0  0  0  0  0  0  0  0  0
   19.6656  -17.8752    5.1909 C   0  0  0  0  0  0  0  0  0  0  0  0
   19.9461  -16.8899    4.2396 C   0  0  0  0  0  0  0  0  0  0  0  0
   20.6581  -15.8176    4.5465 N   0  0  0  0  0  0  0  0  0  0  0  0
   20.0071  -17.9806    6.5193 N   0  0  0  0  0  0  0  0  0  0  0  0
   19.4417  -19.1191    6.8768 C   0  0  0  0  0  0  0  0  0  0  0  0
   18.7864  -19.7624    5.8490 N   0  0  0  0  0  0  0  0  0  0  0  0
  1  2  2  0  0  0  0
  2  3  1  0  0  0  0
  3  4  2  0  0  0  0
  5  4  1  0  0  0  0
  5  6  2  0  0  0  0
  6  1  1  0  0  0  0
  6  7  1  0  0  0  0
  8  5  1  0  0  0  0
  9  8  1  0  0  0  0
 10  4  1  0  0  0  0
 10  9  2  0  0  0  0
M  END
>  <CHROM.1>
19.41334986,-18.07686592,4.71441330,1.38732134,-1.00044501,-1.09456026

>  <Name>
1y26_lig

>  <RI>
224

>  <Rbt.Current_Directory>
/home/afrankz/demos/rdock_decoys_rna/rnas/1y26

>  <Rbt.Executable>
rbdock ($Id: //depot/dev/client3/rdock/2013.1/src/exe/rbdock.cxx#4 $)

>  <Rbt.Library>
libRbt.so (2013.1, Build901 2013/11/27)

>  <Rbt.Parameter_File>
/export/apps/rDock/src/rDock_2013.1_src/data/scripts/dock_solv.prm

>  <Rbt.Receptor>
prm/blind_docking_80.prm

>  <SCORE>
-26.672

>  <SCORE.INTER>
-26.672

>  <SCORE.INTER.CONST>
1

>  <SCORE.INTER.POLAR>
-2.0198

>  <SCORE.INTER.ROT>
0

>  <SCORE.INTER.SOLV>
12.6664

>  <SCORE.INTER.VDW>
-18.8708

>  <SCORE.INTER.norm>
-2.6672

>  <SCORE.INTRA>
0

>  <SCORE.INTRA.DIHEDRAL>
0

>  <SCORE.INTRA.DIHEDRAL.0>
0

>  <SCORE.INTRA.POLAR>
0

>  <SCORE.INTRA.POLAR.0>
0

>  <SCORE.INTRA.REPUL>
0

>  <SCORE.INTRA.REPUL.0>
0

>  <SCORE.INTRA.SOLV>
0

>  <SCORE.INTRA.SOLV.lig_0>
-16.9472

>  <SCORE.INTRA.VDW>
0

>  <SCORE.INTRA.VDW.0>
0

>  <SCORE.INTRA.norm>
0

>  <SCORE.RESTR>
0

>  <SCORE.RESTR.CAVITY>
0

>  <SCORE.RESTR.norm>
0

>  <SCORE.SYSTEM>
0

>  <SCORE.SYSTEM.CONST>
0

>  <SCORE.SYSTEM.DIHEDRAL>
0

>  <SCORE.SYSTEM.SOLV>
0

>  <SCORE.SYSTEM.norm>
0

>  <SCORE.heavy>
10

>  <SCORE.norm>
-2.6672

>  <RMSD>
0.660

$$$$
1y26_lig
 OpenBabel02141814133D
libRbt.so/2013.1/901 2013/11/27
 10 11  0  0  0  0  0  0  0  0999 V2000
   19.4774  -17.0347    2.9855 N   0  0  0  0  0  0  0  0  0  0  0  0
   18.7815  -18.1371    2.6961 C   0  0  0  0  0  0  0  0  0  0  0  0
   18.4744  -19.1550    3.4977 N   0  0  0  0  0  0  0  0  0  0  0  0
   18.9483  -18.9445    4.7464 C   0  0  0  0  0  0  0  0  0  0  0  0
   19.6683  -17.8534    5.1907 C   0  0  0  0  0  0  0  0  0  0  0  0
   19.9374  -16.8624    4.2421 C   0  0  0  0  0  0  0  0  0  0  0  0
   20.6337  -15.7809    4.5529 N   0  0  0  0  0  0  0  0  0  0  0  0
   20.0079  -17.9567    6.5198 N   0  0  0  0  0  0  0  0  0  0  0  0
   19.4576  -19.1036    6.8735 C   0  0  0  0  0  0  0  0  0  0  0  0
   18.8139  -19.7539    5.8429 N   0  0  0  0  0  0  0  0  0  0  0  0
  1  2  2  0  0  0  0
  2  3  1  0  0  0  0
  3  4  2  0  0  0  0
  5  4  1  0  0  0  0
  5  6  2  0  0  0  0
  6  1  1  0  0  0  0
  6  7  1  0  0  0  0
  8  5  1  0  0  0  0
  9  8  1  0  0  0  0
 10  4  1  0  0  0  0
 10  9  2  0  0  0  0
M  END
>  <CHROM.1>
19.42009908,-18.05759264,4.71318703,1.39521815,-1.01392383,-1.08589413

>  <Name>
1y26_lig

>  <RI>
224

>  <Rbt.Current_Directory>
/home/afrankz/demos/rdock_decoys_rna/rnas/1y26

>  <Rbt.Executable>
rbdock ($Id: //depot/dev/client3/rdock/2013.1/src/exe/rbdock.cxx#4 $)

>  <Rbt.Library>
libRbt.so (2013.1, Build901 2013/11/27)

>  <Rbt.Parameter_File>
/export/apps/rDock/src/rDock_2013.1_src/data/scripts/dock_solv.prm

>  <Rbt.Receptor>
prm/pocket_docking_7.prm

>  <SCORE>
-26.6643

>  <SCORE.INTER>
-26.6643

>  <SCORE.INTER.CONST>
1

>  <SCORE.INTER.POLAR>
-2.0198

>  <SCORE.INTER.ROT>
0

>  <SCORE.INTER.SOLV>
12.7252

>  <SCORE.INTER.VDW>
-18.8853

>  <SCORE.INTER.norm>
-2.66643

>  <SCORE.INTRA>
0

>  <SCORE.INTRA.DIHEDRAL>
0

>  <SCORE.INTRA.DIHEDRAL.0>
0

>  <SCORE.INTRA.POLAR>
0

>  <SCORE.INTRA.POLAR.0>
0

>  <SCORE.INTRA.REPUL>
0

>  <SCORE.INTRA.REPUL.0>
0

>  <SCORE.INTRA.SOLV>
0

>  <SCORE.INTRA.SOLV.lig_0>
-16.9472

>  <SCORE.INTRA.VDW>
0

>  <SCORE.INTRA.VDW.0>
0

>  <SCORE.INTRA.norm>
0

>  <SCORE.RESTR>
0

>  <SCORE.RESTR.CAVITY>
0

>  <SCORE.RESTR.norm>
0

>  <SCORE.SYSTEM>
0

>  <SCORE.SYSTEM.CONST>
0

>  <SCORE.SYSTEM.DIHEDRAL>
0

>  <SCORE.SYSTEM.SOLV>
0

>  <SCORE.SYSTEM.norm>
0

>  <SCORE.heavy>
10

>  <SCORE.norm>
-2.66643

>  <RMSD>
0.660

$$$$
1y26_lig
 OpenBabel02141814133D
libRbt.so/2013.1/901 2013/11/27
 10 11  0  0  0  0  0  0  0  0999 V2000
   19.4905  -17.0686    2.9805 N   0  0  0  0  0  0  0  0  0  0  0  0
   18.7759  -18.1625    2.7049 C   0  0  0  0  0  0  0  0  0  0  0  0
   18.4550  -19.1668    3.5182 N   0  0  0  0  0  0  0  0  0  0  0  0
   18.9364  -18.9509    4.7631 C   0  0  0  0  0  0  0  0  0  0  0  0
   19.6754  -17.8671    5.1936 C   0  0  0  0  0  0  0  0  0  0  0  0
   19.9575  -16.8906    4.2336 C   0  0  0  0  0  0  0  0  0  0  0  0
   20.6722  -15.8173    4.5308 N   0  0  0  0  0  0  0  0  0  0  0  0
   20.0178  -17.9619    6.5225 N   0  0  0  0  0  0  0  0  0  0  0  0
   19.4501  -19.0959    6.8902 C   0  0  0  0  0  0  0  0  0  0  0  0
   18.7925  -19.7465    5.8685 N   0  0  0  0  0  0  0  0  0  0  0  0
  1  2  2  0  0  0  0
  2  3  1  0  0  0  0
  3  4  2  0  0  0  0
  5  4  1  0  0  0  0
  5  6  2  0  0  0  0
  6  1  1  0  0  0  0
  6  7  1  0  0  0  0
  8  5  1  0  0  0  0
  9  8  1  0  0  0  0
 10  4  1  0  0  0  0
 10  9  2  0  0  0  0
M  END
>  <CHROM.1>
19.42237960,-18.07218675,4.71900373,1.38669462,-0.99801851,-1.10364995

>  <Name>
1y26_lig

>  <RI>
224

>  <Rbt.Current_Directory>
/home/afrankz/demos/rdock_decoys_rna/rnas/1y26

>  <Rbt.Executable>
rbdock ($Id: //depot/dev/client3/rdock/2013.1/src/exe/rbdock.cxx#4 $)

>  <Rbt.Library>
libRbt.so (2013.1, Build901 2013/11/27)

>  <Rbt.Parameter_File>
/export/apps/rDock/src/rDock_2013.1_src/data/scripts/dock_solv.prm

>  <Rbt.Receptor>
prm/pocket_docking_7.prm

>  <SCORE>
-26.6644

>  <SCORE.INTER>
-26.6644

>  <SCORE.INTER.CONST>
1

>  <SCORE.INTER.POLAR>
-2.0198

>  <SCORE.INTER.ROT>
0

>  <SCORE.INTER.SOLV>
12.618

>  <SCORE.INTER.VDW>
-18.8496

>  <SCORE.INTER.norm>
-2.66644

>  <SCORE.INTRA>
0

>  <SCORE.INTRA.DIHEDRAL>
0

>  <SCORE.INTRA.DIHEDRAL.0>
0

>  <SCORE.INTRA.POLAR>
0

>  <SCORE.INTRA.POLAR.0>
0

>  <SCORE.INTRA.REPUL>
0

>  <SCORE.INTRA.REPUL.0>
0

>  <SCORE.INTRA.SOLV>
0

>  <SCORE.INTRA.SOLV.lig_0>
-16.9472

>  <SCORE.INTRA.VDW>
0

>  <SCORE.INTRA.VDW.0>
0

>  <SCORE.INTRA.norm>
0

>  <SCORE.RESTR>
0

>  <SCORE.RESTR.CAVITY>
0

>  <SCORE.RESTR.norm>
0

>  <SCORE.SYSTEM>
0

>  <SCORE.SYSTEM.CONST>
0

>  <SCORE.SYSTEM.DIHEDRAL>
0

>  <SCORE.SYSTEM.SOLV>
0

>  <SCORE.SYSTEM.norm>
0

>  <SCORE.heavy>
10

>  <SCORE.norm>
-2.66644

>  <RMSD>
0.661

$$$$
1y26_lig
 OpenBabel02141814133D
libRbt.so/2013.1/901 2013/11/27
 10 11  0  0  0  0  0  0  0  0999 V2000
   19.5500  -17.0653    2.9769 N   0  0  0  0  0  0  0  0  0  0  0  0
   18.8663  -18.1659    2.6539 C   0  0  0  0  0  0  0  0  0  0  0  0
   18.5438  -19.1970    3.4323 N   0  0  0  0  0  0  0  0  0  0  0  0
   18.9858  -19.0035    4.6954 C   0  0  0  0  0  0  0  0  0  0  0  0
   19.6899  -17.9164    5.1737 C   0  0  0  0  0  0  0  0  0  0  0  0
   19.9781  -16.9102    4.2469 C   0  0  0  0  0  0  0  0  0  0  0  0
   20.6619  -15.8307    4.5910 N   0  0  0  0  0  0  0  0  0  0  0  0
   19.9971  -18.0384    6.5090 N   0  0  0  0  0  0  0  0  0  0  0  0
   19.4431  -19.1927    6.8318 C   0  0  0  0  0  0  0  0  0  0  0  0
   18.8278  -19.8299    5.7759 N   0  0  0  0  0  0  0  0  0  0  0  0
  1  2  2  0  0  0  0
  2  3  1  0  0  0  0
  3  4  2  0  0  0  0
  5  4  1  0  0  0  0
  5  6  2  0  0  0  0
  6  1  1  0  0  0  0
  6  7  1  0  0  0  0
  8  5  1  0  0  0  0
  9  8  1  0  0  0  0
 10  4  1  0  0  0  0
 10  9  2  0  0  0  0
M  END
>  <CHROM.1>
19.45447636,-18.11435425,4.68712580,1.35674654,-1.02891152,-1.10367837

>  <Name>
1y26_lig

>  <RI>
224

>  <Rbt.Current_Directory>
/home/afrankz/demos/rdock_decoys_rna/rnas/1y26

>  <Rbt.Executable>
rbdock ($Id: //depot/dev/client3/rdock/2013.1/src/exe/rbdock.cxx#4 $)

>  <Rbt.Library>
libRbt.so (2013.1, Build901 2013/11/27)

>  <Rbt.Parameter_File>
/export/apps/rDock/src/rDock_2013.1_src/data/scripts/dock_solv.prm

>  <Rbt.Receptor>
prm/pocket_docking_3.prm

>  <SCORE>
-26.6366

>  <SCORE.INTER>
-26.6366

>  <SCORE.INTER.CONST>
1

>  <SCORE.INTER.POLAR>
-2.0198

>  <SCORE.INTER.ROT>
0

>  <SCORE.INTER.SOLV>
12.6446

>  <SCORE.INTER.VDW>
-18.8399

>  <SCORE.INTER.norm>
-2.66366

>  <SCORE.INTRA>
0

>  <SCORE.INTRA.DIHEDRAL>
0

>  <SCORE.INTRA.DIHEDRAL.0>
0

>  <SCORE.INTRA.POLAR>
0

>  <SCORE.INTRA.POLAR.0>
0

>  <SCORE.INTRA.REPUL>
0

>  <SCORE.INTRA.REPUL.0>
0

>  <SCORE.INTRA.SOLV>
0

>  <SCORE.INTRA.SOLV.lig_0>
-16.9472

>  <SCORE.INTRA.VDW>
0

>  <SCORE.INTRA.VDW.0>
0

>  <SCORE.INTRA.norm>
0

>  <SCORE.RESTR>
0

>  <SCORE.RESTR.CAVITY>
0

>  <SCORE.RESTR.norm>
0

>  <SCORE.SYSTEM>
0

>  <SCORE.SYSTEM.CONST>
0

>  <SCORE.SYSTEM.DIHEDRAL>
0

>  <SCORE.SYSTEM.SOLV>
0

>  <SCORE.SYSTEM.norm>
0

>  <SCORE.heavy>
10

>  <SCORE.norm>
-2.66366

>  <RMSD>
0.662

$$$$
1y26_lig
 OpenBabel02141814133D
libRbt.so/2013.1/901 2013/11/27
 10 11  0  0  0  0  0  0  0  0999 V2000
   19.4577  -17.0631    2.9831 N   0  0  0  0  0  0  0  0  0  0  0  0
   18.7587  -18.1655    2.7015 C   0  0  0  0  0  0  0  0  0  0  0  0
   18.4582  -19.1821    3.5072 N   0  0  0  0  0  0  0  0  0  0  0  0
   18.9435  -18.9702    4.7513 C   0  0  0  0  0  0  0  0  0  0  0  0
   19.6681  -17.8789    5.1876 C   0  0  0  0  0  0  0  0  0  0  0  0
   19.9292  -16.8893    4.2352 C   0  0  0  0  0  0  0  0  0  0  0  0
   20.6288  -15.8078    4.5383 N   0  0  0  0  0  0  0  0  0  0  0  0
   20.0196  -17.9806    6.5137 N   0  0  0  0  0  0  0  0  0  0  0  0
   19.4718  -19.1267    6.8740 C   0  0  0  0  0  0  0  0  0  0  0  0
   18.8185  -19.7780    5.8501 N   0  0  0  0  0  0  0  0  0  0  0  0
  1  2  2  0  0  0  0
  2  3  1  0  0  0  0
  3  4  2  0  0  0  0
  5  4  1  0  0  0  0
  5  6  2  0  0  0  0
  6  1  1  0  0  0  0
  6  7  1  0  0  0  0
  8  5  1  0  0  0  0
  9  8  1  0  0  0  0
 10  4  1  0  0  0  0
 10  9  2  0  0  0  0
M  END
>  <CHROM.1>
19.41545267,-18.08357799,4.71261245,1.40969075,-1.00918567,-1.07499990

>  <Name>
1y26_lig

>  <RI>
0

>  <Rbt.Current_Directory>
/home/afrankz/demos/rdock_decoys_rna/rnas/1y26

>  <Rbt.Executable>
rbdock ($Id: //depot/dev/client3/rdock/2013.1/src/exe/rbdock.cxx#4 $)

>  <Rbt.Library>
libRbt.so (2013.1, Build901 2013/11/27)

>  <Rbt.Parameter_File>
/export/apps/rDock/src/rDock_2013.1_src/data/scripts/dock_solv.prm

>  <Rbt.Receptor>
prm/pocket_docking_5.prm

>  <SCORE>
-26.6289

>  <SCORE.INTER>
-26.6289

>  <SCORE.INTER.CONST>
1

>  <SCORE.INTER.POLAR>
-2.0198

>  <SCORE.INTER.ROT>
0

>  <SCORE.INTER.SOLV>
12.7275

>  <SCORE.INTER.VDW>
-18.8624

>  <SCORE.INTER.norm>
-2.66289

>  <SCORE.INTRA>
0

>  <SCORE.INTRA.DIHEDRAL>
0

>  <SCORE.INTRA.DIHEDRAL.0>
0

>  <SCORE.INTRA.POLAR>
0

>  <SCORE.INTRA.POLAR.0>
0

>  <SCORE.INTRA.REPUL>
0

>  <SCORE.INTRA.REPUL.0>
0

>  <SCORE.INTRA.SOLV>
0

>  <SCORE.INTRA.SOLV.lig_0>
-16.9472

>  <SCORE.INTRA.VDW>
0

>  <SCORE.INTRA.VDW.0>
0

>  <SCORE.INTRA.norm>
0

>  <SCORE.RESTR>
0

>  <SCORE.RESTR.CAVITY>
0

>  <SCORE.RESTR.norm>
0

>  <SCORE.SYSTEM>
0

>  <SCORE.SYSTEM.CONST>
0

>  <SCORE.SYSTEM.DIHEDRAL>
0

>  <SCORE.SYSTEM.SOLV>
0

>  <SCORE.SYSTEM.norm>
0

>  <SCORE.heavy>
10

>  <SCORE.norm>
-2.66289

>  <RMSD>
0.662

$$$$
1y26_lig
 OpenBabel02141814133D
libRbt.so/2013.1/901 2013/11/27
 10 11  0  0  0  0  0  0  0  0999 V2000
   19.4793  -17.0659    2.9801 N   0  0  0  0  0  0  0  0  0  0  0  0
   18.7759  -18.1682    2.7097 C   0  0  0  0  0  0  0  0  0  0  0  0
   18.4599  -19.1690    3.5293 N   0  0  0  0  0  0  0  0  0  0  0  0
   18.9333  -18.9391    4.7748 C   0  0  0  0  0  0  0  0  0  0  0  0
   19.6606  -17.8453    5.2003 C   0  0  0  0  0  0  0  0  0  0  0  0
   19.9386  -16.8739    4.2341 C   0  0  0  0  0  0  0  0  0  0  0  0
   20.6422  -15.7919    4.5262 N   0  0  0  0  0  0  0  0  0  0  0  0
   19.9972  -17.9266    6.5316 N   0  0  0  0  0  0  0  0  0  0  0  0
   19.4379  -19.0628    6.9054 C   0  0  0  0  0  0  0  0  0  0  0  0
   18.7911  -19.7272    5.8857 N   0  0  0  0  0  0  0  0  0  0  0  0
  1  2  2  0  0  0  0
  2  3  1  0  0  0  0
  3  4  2  0  0  0  0
  5  4  1  0  0  0  0
  5  6  2  0  0  0  0
  6  1  1  0  0  0  0
  6  7  1  0  0  0  0
  8  5  1  0  0  0  0
  9  8  1  0  0  0  0
 10  4  1  0  0  0  0
 10  9  2  0  0  0  0
M  END
>  <CHROM.1>
19.41167700,-18.05638144,4.72612668,1.38604558,-1.00817266,-1.11203203

>  <Name>
1y26_lig

>  <RI>
0

>  <Rbt.Current_Directory>
/home/afrankz/demos/rdock_decoys_rna/rnas/1y26

>  <Rbt.Executable>
rbdock ($Id: //depot/dev/client3/rdock/2013.1/src/exe/rbdock.cxx#4 $)

>  <Rbt.Library>
libRbt.so (2013.1, Build901 2013/11/27)

>  <Rbt.Parameter_File>
/export/apps/rDock/src/rDock_2013.1_src/data/scripts/dock_solv.prm

>  <Rbt.Receptor>
prm/blind_docking_100.prm

>  <SCORE>
-26.6887

>  <SCORE.INTER>
-26.6887

>  <SCORE.INTER.CONST>
1

>  <SCORE.INTER.POLAR>
-2.0198

>  <SCORE.INTER.ROT>
0

>  <SCORE.INTER.SOLV>
12.6527

>  <SCORE.INTER.VDW>
-18.8774

>  <SCORE.INTER.norm>
-2.66887

>  <SCORE.INTRA>
0

>  <SCORE.INTRA.DIHEDRAL>
0

>  <SCORE.INTRA.DIHEDRAL.0>
0

>  <SCORE.INTRA.POLAR>
0

>  <SCORE.INTRA.POLAR.0>
0

>  <SCORE.INTRA.REPUL>
0

>  <SCORE.INTRA.REPUL.0>
0

>  <SCORE.INTRA.SOLV>
0

>  <SCORE.INTRA.SOLV.lig_0>
-16.9472

>  <SCORE.INTRA.VDW>
0

>  <SCORE.INTRA.VDW.0>
0

>  <SCORE.INTRA.norm>
0

>  <SCORE.RESTR>
0

>  <SCORE.RESTR.CAVITY>
0

>  <SCORE.RESTR.norm>
0

>  <SCORE.SYSTEM>
0

>  <SCORE.SYSTEM.CONST>
0

>  <SCORE.SYSTEM.DIHEDRAL>
0

>  <SCORE.SYSTEM.SOLV>
0

>  <SCORE.SYSTEM.norm>
0

>  <SCORE.heavy>
10

>  <SCORE.norm>
-2.66887

>  <RMSD>
0.663

$$$$
1y26_lig
 OpenBabel02141814133D
libRbt.so/2013.1/901 2013/11/27
 10 11  0  0  0  0  0  0  0  0999 V2000
   19.5192  -17.0807    2.9798 N   0  0  0  0  0  0  0  0  0  0  0  0
   18.7845  -18.1619    2.7072 C   0  0  0  0  0  0  0  0  0  0  0  0
   18.4487  -19.1601    3.5220 N   0  0  0  0  0  0  0  0  0  0  0  0
   18.9383  -18.9523    4.7651 C   0  0  0  0  0  0  0  0  0  0  0  0
   19.6979  -17.8815    5.1926 C   0  0  0  0  0  0  0  0  0  0  0  0
   19.9937  -16.9105    4.2313 C   0  0  0  0  0  0  0  0  0  0  0  0
   20.7283  -15.8499    4.5255 N   0  0  0  0  0  0  0  0  0  0  0  0
   20.0431  -17.9819    6.5204 N   0  0  0  0  0  0  0  0  0  0  0  0
   19.4569  -19.1056    6.8905 C   0  0  0  0  0  0  0  0  0  0  0  0
   18.7843  -19.7448    5.8714 N   0  0  0  0  0  0  0  0  0  0  0  0
  1  2  2  0  0  0  0
  2  3  1  0  0  0  0
  3  4  2  0  0  0  0
  5  4  1  0  0  0  0
  5  6  2  0  0  0  0
  6  1  1  0  0  0  0
  6  7  1  0  0  0  0
  8  5  1  0  0  0  0
  9  8  1  0  0  0  0
 10  4  1  0  0  0  0
 10  9  2  0  0  0  0
M  END
>  <CHROM.1>
19.43953796,-18.08230839,4.71898148,1.37808002,-0.98065134,-1.11121705

>  <Name>
1y26_lig

>  <RI>
0

>  <Rbt.Current_Directory>
/home/afrankz/demos/rdock_decoys_rna/rnas/1y26

>  <Rbt.Executable>
rbdock ($Id: //depot/dev/client3/rdock/2013.1/src/exe/rbdock.cxx#4 $)

>  <Rbt.Library>
libRbt.so (2013.1, Build901 2013/11/27)

>  <Rbt.Parameter_File>
/export/apps/rDock/src/rDock_2013.1_src/data/scripts/dock_solv.prm

>  <Rbt.Receptor>
prm/blind_docking_40.prm

>  <SCORE>
-26.6831

>  <SCORE.INTER>
-26.6831

>  <SCORE.INTER.CONST>
1

>  <SCORE.INTER.POLAR>
-2.0198

>  <SCORE.INTER.ROT>
0

>  <SCORE.INTER.SOLV>
12.5068

>  <SCORE.INTER.VDW>
-18.825

>  <SCORE.INTER.norm>
-2.66831

>  <SCORE.INTRA>
0

>  <SCORE.INTRA.DIHEDRAL>
0

>  <SCORE.INTRA.DIHEDRAL.0>
0

>  <SCORE.INTRA.POLAR>
0

>  <SCORE.INTRA.POLAR.0>
0

>  <SCORE.INTRA.REPUL>
0

>  <SCORE.INTRA.REPUL.0>
0

>  <SCORE.INTRA.SOLV>
0

>  <SCORE.INTRA.SOLV.lig_0>
-16.9472

>  <SCORE.INTRA.VDW>
0

>  <SCORE.INTRA.VDW.0>
0

>  <SCORE.INTRA.norm>
0

>  <SCORE.RESTR>
0

>  <SCORE.RESTR.CAVITY>
0

>  <SCORE.RESTR.norm>
0

>  <SCORE.SYSTEM>
0

>  <SCORE.SYSTEM.CONST>
0

>  <SCORE.SYSTEM.DIHEDRAL>
0

>  <SCORE.SYSTEM.SOLV>
0

>  <SCORE.SYSTEM.norm>
0

>  <SCORE.heavy>
10

>  <SCORE.norm>
-2.66831

>  <RMSD>
0.663

$$$$
1y26_lig
 OpenBabel02141814133D
libRbt.so/2013.1/901 2013/11/27
 10 11  0  0  0  0  0  0  0  0999 V2000
   19.5607  -17.0739    2.9792 N   0  0  0  0  0  0  0  0  0  0  0  0
   18.8510  -18.1648    2.6802 C   0  0  0  0  0  0  0  0  0  0  0  0
   18.5069  -19.1720    3.4802 N   0  0  0  0  0  0  0  0  0  0  0  0
   18.9566  -18.9632    4.7381 C   0  0  0  0  0  0  0  0  0  0  0  0
   19.6868  -17.8831    5.1926 C   0  0  0  0  0  0  0  0  0  0  0  0
   19.9957  -16.9028    4.2448 C   0  0  0  0  0  0  0  0  0  0  0  0
   20.7050  -15.8326    4.5654 N   0  0  0  0  0  0  0  0  0  0  0  0
   19.9947  -17.9849    6.5294 N   0  0  0  0  0  0  0  0  0  0  0  0
   19.4151  -19.1193    6.8770 C   0  0  0  0  0  0  0  0  0  0  0  0
   18.7825  -19.7635    5.8357 N   0  0  0  0  0  0  0  0  0  0  0  0
  1  2  2  0  0  0  0
  2  3  1  0  0  0  0
  3  4  2  0  0  0  0
  5  4  1  0  0  0  0
  5  6  2  0  0  0  0
  6  1  1  0  0  0  0
  6  7  1  0  0  0  0
  8  5  1  0  0  0  0
  9  8  1  0  0  0  0
 10  4  1  0  0  0  0
 10  9  2  0  0  0  0
M  END
>  <CHROM.1>
19.44560183,-18.08538162,4.71068969,1.34177777,-1.00711489,-1.13681117

>  <Name>
1y26_lig

>  <RI>
0

>  <Rbt.Current_Directory>
/home/afrankz/demos/rdock_decoys_rna/rnas/1y26

>  <Rbt.Executable>
rbdock ($Id: //depot/dev/client3/rdock/2013.1/src/exe/rbdock.cxx#4 $)

>  <Rbt.Library>
libRbt.so (2013.1, Build901 2013/11/27)

>  <Rbt.Parameter_File>
/export/apps/rDock/src/rDock_2013.1_src/data/scripts/dock_solv.prm

>  <Rbt.Receptor>
prm/blind_docking_60.prm

>  <SCORE>
-26.6563

>  <SCORE.INTER>
-26.6563

>  <SCORE.INTER.CONST>
1

>  <SCORE.INTER.POLAR>
-2.0198

>  <SCORE.INTER.ROT>
0

>  <SCORE.INTER.SOLV>
12.5315

>  <SCORE.INTER.VDW>
-18.8153

>  <SCORE.INTER.norm>
-2.66563

>  <SCORE.INTRA>
0

>  <SCORE.INTRA.DIHEDRAL>
0

>  <SCORE.INTRA.DIHEDRAL.0>
0

>  <SCORE.INTRA.POLAR>
0

>  <SCORE.INTRA.POLAR.0>
0

>  <SCORE.INTRA.REPUL>
0

>  <SCORE.INTRA.REPUL.0>
0

>  <SCORE.INTRA.SOLV>
0

>  <SCORE.INTRA.SOLV.lig_0>
-16.9472

>  <SCORE.INTRA.VDW>
0

>  <SCORE.INTRA.VDW.0>
0

>  <SCORE.INTRA.norm>
0

>  <SCORE.RESTR>
0

>  <SCORE.RESTR.CAVITY>
0

>  <SCORE.RESTR.norm>
0

>  <SCORE.SYSTEM>
0

>  <SCORE.SYSTEM.CONST>
0

>  <SCORE.SYSTEM.DIHEDRAL>
0

>  <SCORE.SYSTEM.SOLV>
0

>  <SCORE.SYSTEM.norm>
0

>  <SCORE.heavy>
10

>  <SCORE.norm>
-2.66563

>  <RMSD>
0.663

$$$$
1y26_lig
 OpenBabel02141814133D
libRbt.so/2013.1/901 2013/11/27
 10 11  0  0  0  0  0  0  0  0999 V2000
   19.5568  -17.0506    2.9777 N   0  0  0  0  0  0  0  0  0  0  0  0
   18.8694  -18.1559    2.6797 C   0  0  0  0  0  0  0  0  0  0  0  0
   18.5353  -19.1635    3.4836 N   0  0  0  0  0  0  0  0  0  0  0  0
   18.9690  -18.9378    4.7442 C   0  0  0  0  0  0  0  0  0  0  0  0
   19.6756  -17.8419    5.1980 C   0  0  0  0  0  0  0  0  0  0  0  0
   19.9763  -16.8630    4.2462 C   0  0  0  0  0  0  0  0  0  0  0  0
   20.6635  -15.7782    4.5659 N   0  0  0  0  0  0  0  0  0  0  0  0
   19.9720  -17.9288    6.5384 N   0  0  0  0  0  0  0  0  0  0  0  0
   19.4092  -19.0708    6.8885 C   0  0  0  0  0  0  0  0  0  0  0  0
   18.7983  -19.7334    5.8458 N   0  0  0  0  0  0  0  0  0  0  0  0
  1  2  2  0  0  0  0
  2  3  1  0  0  0  0
  3  4  2  0  0  0  0
  5  4  1  0  0  0  0
  5  6  2  0  0  0  0
  6  1  1  0  0  0  0
  6  7  1  0  0  0  0
  8  5  1  0  0  0  0
  9  8  1  0  0  0  0
 10  4  1  0  0  0  0
 10  9  2  0  0  0  0
M  END
>  <CHROM.1>
19.44263700,-18.05176394,4.71521286,1.33894981,-1.02720417,-1.14631534

>  <Name>
1y26_lig

>  <RI>
0

>  <Rbt.Current_Directory>
/home/afrankz/demos/rdock_decoys_rna/rnas/1y26

>  <Rbt.Executable>
rbdock ($Id: //depot/dev/client3/rdock/2013.1/src/exe/rbdock.cxx#4 $)

>  <Rbt.Library>
libRbt.so (2013.1, Build901 2013/11/27)

>  <Rbt.Parameter_File>
/export/apps/rDock/src/rDock_2013.1_src/data/scripts/dock_solv.prm

>  <Rbt.Receptor>
prm/pocket_docking_4.prm

>  <SCORE>
-26.5806

>  <SCORE.INTER>
-26.5806

>  <SCORE.INTER.CONST>
1

>  <SCORE.INTER.POLAR>
-2.0198

>  <SCORE.INTER.ROT>
0

>  <SCORE.INTER.SOLV>
12.5916

>  <SCORE.INTER.VDW>
-18.7849

>  <SCORE.INTER.norm>
-2.65806

>  <SCORE.INTRA>
0

>  <SCORE.INTRA.DIHEDRAL>
0

>  <SCORE.INTRA.DIHEDRAL.0>
0

>  <SCORE.INTRA.POLAR>
0

>  <SCORE.INTRA.POLAR.0>
0

>  <SCORE.INTRA.REPUL>
0

>  <SCORE.INTRA.REPUL.0>
0

>  <SCORE.INTRA.SOLV>
0

>  <SCORE.INTRA.SOLV.lig_0>
-16.9472

>  <SCORE.INTRA.VDW>
0

>  <SCORE.INTRA.VDW.0>
0

>  <SCORE.INTRA.norm>
0

>  <SCORE.RESTR>
0

>  <SCORE.RESTR.CAVITY>
0

>  <SCORE.RESTR.norm>
0

>  <SCORE.SYSTEM>
0

>  <SCORE.SYSTEM.CONST>
0

>  <SCORE.SYSTEM.DIHEDRAL>
0

>  <SCORE.SYSTEM.SOLV>
0

>  <SCORE.SYSTEM.norm>
0

>  <SCORE.heavy>
10

>  <SCORE.norm>
-2.65806

>  <RMSD>
0.663

$$$$
1y26_lig
 OpenBabel02141814133D
libRbt.so/2013.1/901 2013/11/27
 10 11  0  0  0  0  0  0  0  0999 V2000
   19.4610  -17.0547    2.9831 N   0  0  0  0  0  0  0  0  0  0  0  0
   18.7608  -18.1589    2.7119 C   0  0  0  0  0  0  0  0  0  0  0  0
   18.4542  -19.1648    3.5287 N   0  0  0  0  0  0  0  0  0  0  0  0
   18.9340  -18.9385    4.7724 C   0  0  0  0  0  0  0  0  0  0  0  0
   19.6590  -17.8435    5.1986 C   0  0  0  0  0  0  0  0  0  0  0  0
   19.9269  -16.8664    4.2352 C   0  0  0  0  0  0  0  0  0  0  0  0
   20.6275  -15.7827    4.5281 N   0  0  0  0  0  0  0  0  0  0  0  0
   20.0040  -17.9294    6.5275 N   0  0  0  0  0  0  0  0  0  0  0  0
   19.4520  -19.0697    6.8994 C   0  0  0  0  0  0  0  0  0  0  0  0
   18.8020  -19.7323    5.8805 N   0  0  0  0  0  0  0  0  0  0  0  0
  1  2  2  0  0  0  0
  2  3  1  0  0  0  0
  3  4  2  0  0  0  0
  5  4  1  0  0  0  0
  5  6  2  0  0  0  0
  6  1  1  0  0  0  0
  6  7  1  0  0  0  0
  8  5  1  0  0  0  0
  9  8  1  0  0  0  0
 10  4  1  0  0  0  0
 10  9  2  0  0  0  0
M  END
>  <CHROM.1>
19.40818700,-18.05347128,4.72495964,1.39983212,-1.00943497,-1.09577802

>  <Name>
1y26_lig

>  <RI>
0

>  <Rbt.Current_Directory>
/home/afrankz/demos/rdock_decoys_rna/rnas/1y26

>  <Rbt.Executable>
rbdock ($Id: //depot/dev/client3/rdock/2013.1/src/exe/rbdock.cxx#4 $)

>  <Rbt.Library>
libRbt.so (2013.1, Build901 2013/11/27)

>  <Rbt.Parameter_File>
/export/apps/rDock/src/rDock_2013.1_src/data/scripts/dock_solv.prm

>  <Rbt.Receptor>
prm/pocket_docking_5.prm

>  <SCORE>
-26.6822

>  <SCORE.INTER>
-26.6822

>  <SCORE.INTER.CONST>
1

>  <SCORE.INTER.POLAR>
-2.0198

>  <SCORE.INTER.ROT>
0

>  <SCORE.INTER.SOLV>
12.7029

>  <SCORE.INTER.VDW>
-18.8898

>  <SCORE.INTER.norm>
-2.66822

>  <SCORE.INTRA>
0

>  <SCORE.INTRA.DIHEDRAL>
0

>  <SCORE.INTRA.DIHEDRAL.0>
0

>  <SCORE.INTRA.POLAR>
0

>  <SCORE.INTRA.POLAR.0>
0

>  <SCORE.INTRA.REPUL>
0

>  <SCORE.INTRA.REPUL.0>
0

>  <SCORE.INTRA.SOLV>
0

>  <SCORE.INTRA.SOLV.lig_0>
-16.9472

>  <SCORE.INTRA.VDW>
0

>  <SCORE.INTRA.VDW.0>
0

>  <SCORE.INTRA.norm>
0

>  <SCORE.RESTR>
0

>  <SCORE.RESTR.CAVITY>
0

>  <SCORE.RESTR.norm>
0

>  <SCORE.SYSTEM>
0

>  <SCORE.SYSTEM.CONST>
0

>  <SCORE.SYSTEM.DIHEDRAL>
0

>  <SCORE.SYSTEM.SOLV>
0

>  <SCORE.SYSTEM.norm>
0

>  <SCORE.heavy>
10

>  <SCORE.norm>
-2.66822

>  <RMSD>
0.663

$$$$
1y26_lig
 OpenBabel02141814133D
libRbt.so/2013.1/901 2013/11/27
 10 11  0  0  0  0  0  0  0  0999 V2000
   19.4701  -17.0642    2.9851 N   0  0  0  0  0  0  0  0  0  0  0  0
   18.7704  -18.1665    2.7048 C   0  0  0  0  0  0  0  0  0  0  0  0
   18.4534  -19.1731    3.5168 N   0  0  0  0  0  0  0  0  0  0  0  0
   18.9210  -18.9499    4.7657 C   0  0  0  0  0  0  0  0  0  0  0  0
   19.6439  -17.8572    5.2011 C   0  0  0  0  0  0  0  0  0  0  0  0
   19.9236  -16.8790    4.2421 C   0  0  0  0  0  0  0  0  0  0  0  0
   20.6236  -15.7973    4.5440 N   0  0  0  0  0  0  0  0  0  0  0  0
   19.9753  -17.9461    6.5332 N   0  0  0  0  0  0  0  0  0  0  0  0
   19.4171  -19.0859    6.8975 C   0  0  0  0  0  0  0  0  0  0  0  0
   18.7761  -19.7453    5.8710 N   0  0  0  0  0  0  0  0  0  0  0  0
  1  2  2  0  0  0  0
  2  3  1  0  0  0  0
  3  4  2  0  0  0  0
  5  4  1  0  0  0  0
  5  6  2  0  0  0  0
  6  1  1  0  0  0  0
  6  7  1  0  0  0  0
  8  5  1  0  0  0  0
  9  8  1  0  0  0  0
 10  4  1  0  0  0  0
 10  9  2  0  0  0  0
M  END
>  <CHROM.1>
19.39749465,-18.06583304,4.72455492,1.38098925,-1.01211103,-1.11003375

>  <Name>
1y26_lig

>  <RI>
224

>  <Rbt.Current_Directory>
/home/afrankz/demos/rdock_decoys_rna/rnas/1y26

>  <Rbt.Executable>
rbdock ($Id: //depot/dev/client3/rdock/2013.1/src/exe/rbdock.cxx#4 $)

>  <Rbt.Library>
libRbt.so (2013.1, Build901 2013/11/27)

>  <Rbt.Parameter_File>
/export/apps/rDock/src/rDock_2013.1_src/data/scripts/dock_solv.prm

>  <Rbt.Receptor>
prm/pocket_docking_6.prm

>  <SCORE>
-26.6099

>  <SCORE.INTER>
-26.6099

>  <SCORE.INTER.CONST>
1

>  <SCORE.INTER.POLAR>
-2.0198

>  <SCORE.INTER.ROT>
0

>  <SCORE.INTER.SOLV>
12.6974

>  <SCORE.INTER.VDW>
-18.8397

>  <SCORE.INTER.norm>
-2.66099

>  <SCORE.INTRA>
0

>  <SCORE.INTRA.DIHEDRAL>
0

>  <SCORE.INTRA.DIHEDRAL.0>
0

>  <SCORE.INTRA.POLAR>
0

>  <SCORE.INTRA.POLAR.0>
0

>  <SCORE.INTRA.REPUL>
0

>  <SCORE.INTRA.REPUL.0>
0

>  <SCORE.INTRA.SOLV>
0

>  <SCORE.INTRA.SOLV.lig_0>
-16.9472

>  <SCORE.INTRA.VDW>
0

>  <SCORE.INTRA.VDW.0>
0

>  <SCORE.INTRA.norm>
0

>  <SCORE.RESTR>
0

>  <SCORE.RESTR.CAVITY>
0

>  <SCORE.RESTR.norm>
0

>  <SCORE.SYSTEM>
0

>  <SCORE.SYSTEM.CONST>
0

>  <SCORE.SYSTEM.DIHEDRAL>
0

>  <SCORE.SYSTEM.SOLV>
0

>  <SCORE.SYSTEM.norm>
0

>  <SCORE.heavy>
10

>  <SCORE.norm>
-2.66099

>  <RMSD>
0.664

$$$$
1y26_lig
 OpenBabel02141814133D
libRbt.so/2013.1/901 2013/11/27
 10 11  0  0  0  0  0  0  0  0999 V2000
   19.4629  -17.0550    2.9844 N   0  0  0  0  0  0  0  0  0  0  0  0
   18.7671  -18.1607    2.7081 C   0  0  0  0  0  0  0  0  0  0  0  0
   18.4581  -19.1680    3.5222 N   0  0  0  0  0  0  0  0  0  0  0  0
   18.9299  -18.9416    4.7690 C   0  0  0  0  0  0  0  0  0  0  0  0
   19.6497  -17.8451    5.2004 C   0  0  0  0  0  0  0  0  0  0  0  0
   19.9209  -16.8666    4.2394 C   0  0  0  0  0  0  0  0  0  0  0  0
   20.6171  -15.7814    4.5374 N   0  0  0  0  0  0  0  0  0  0  0  0
   19.9869  -17.9313    6.5312 N   0  0  0  0  0  0  0  0  0  0  0  0
   19.4355  -19.0733    6.8989 C   0  0  0  0  0  0  0  0  0  0  0  0
   18.7932  -19.7366    5.8756 N   0  0  0  0  0  0  0  0  0  0  0  0
  1  2  2  0  0  0  0
  2  3  1  0  0  0  0
  3  4  2  0  0  0  0
  5  4  1  0  0  0  0
  5  6  2  0  0  0  0
  6  1  1  0  0  0  0
  6  7  1  0  0  0  0
  8  5  1  0  0  0  0
  9  8  1  0  0  0  0
 10  4  1  0  0  0  0
 10  9  2  0  0  0  0
M  END
>  <CHROM.1>
19.40218218,-18.05534765,4.72506797,1.39190664,-1.01430485,-1.10166321

>  <Name>
1y26_lig

>  <RI>
224

>  <Rbt.Current_Directory>
/home/afrankz/demos/rdock_decoys_rna/rnas/1y26

>  <Rbt.Executable>
rbdock ($Id: //depot/dev/client3/rdock/2013.1/src/exe/rbdock.cxx#4 $)

>  <Rbt.Library>
libRbt.so (2013.1, Build901 2013/11/27)

>  <Rbt.Parameter_File>
/export/apps/rDock/src/rDock_2013.1_src/data/scripts/dock_solv.prm

>  <Rbt.Receptor>
prm/pocket_docking_7.prm

>  <SCORE>
-26.6843

>  <SCORE.INTER>
-26.6843

>  <SCORE.INTER.CONST>
1

>  <SCORE.INTER.POLAR>
-2.0198

>  <SCORE.INTER.ROT>
0

>  <SCORE.INTER.SOLV>
12.7169

>  <SCORE.INTER.VDW>
-18.8958

>  <SCORE.INTER.norm>
-2.66843

>  <SCORE.INTRA>
0

>  <SCORE.INTRA.DIHEDRAL>
0

>  <SCORE.INTRA.DIHEDRAL.0>
0

>  <SCORE.INTRA.POLAR>
0

>  <SCORE.INTRA.POLAR.0>
0

>  <SCORE.INTRA.REPUL>
0

>  <SCORE.INTRA.REPUL.0>
0

>  <SCORE.INTRA.SOLV>
0

>  <SCORE.INTRA.SOLV.lig_0>
-16.9472

>  <SCORE.INTRA.VDW>
0

>  <SCORE.INTRA.VDW.0>
0

>  <SCORE.INTRA.norm>
0

>  <SCORE.RESTR>
0

>  <SCORE.RESTR.CAVITY>
0

>  <SCORE.RESTR.norm>
0

>  <SCORE.SYSTEM>
0

>  <SCORE.SYSTEM.CONST>
0

>  <SCORE.SYSTEM.DIHEDRAL>
0

>  <SCORE.SYSTEM.SOLV>
0

>  <SCORE.SYSTEM.norm>
0

>  <SCORE.heavy>
10

>  <SCORE.norm>
-2.66843

>  <RMSD>
0.664

$$$$
1y26_lig
 OpenBabel02141814133D
libRbt.so/2013.1/901 2013/11/27
 10 11  0  0  0  0  0  0  0  0999 V2000
   19.4929  -17.0740    2.9837 N   0  0  0  0  0  0  0  0  0  0  0  0
   18.7761  -18.1663    2.7075 C   0  0  0  0  0  0  0  0  0  0  0  0
   18.4529  -19.1702    3.5202 N   0  0  0  0  0  0  0  0  0  0  0  0
   18.9344  -18.9560    4.7654 C   0  0  0  0  0  0  0  0  0  0  0  0
   19.6757  -17.8739    5.1965 C   0  0  0  0  0  0  0  0  0  0  0  0
   19.9600  -16.8976    4.2371 C   0  0  0  0  0  0  0  0  0  0  0  0
   20.6769  -15.8259    4.5349 N   0  0  0  0  0  0  0  0  0  0  0  0
   20.0175  -17.9700    6.5255 N   0  0  0  0  0  0  0  0  0  0  0  0
   19.4473  -19.1030    6.8925 C   0  0  0  0  0  0  0  0  0  0  0  0
   18.7886  -19.7517    5.8703 N   0  0  0  0  0  0  0  0  0  0  0  0
  1  2  2  0  0  0  0
  2  3  1  0  0  0  0
  3  4  2  0  0  0  0
  5  4  1  0  0  0  0
  5  6  2  0  0  0  0
  6  1  1  0  0  0  0
  6  7  1  0  0  0  0
  8  5  1  0  0  0  0
  9  8  1  0  0  0  0
 10  4  1  0  0  0  0
 10  9  2  0  0  0  0
M  END
>  <CHROM.1>
19.42227598,-18.07824121,4.72178365,1.38454462,-0.99623804,-1.10498832

>  <Name>
1y26_lig

>  <RI>
224

>  <Rbt.Current_Directory>
/home/afrankz/demos/rdock_decoys_rna/rnas/1y26

>  <Rbt.Executable>
rbdock ($Id: //depot/dev/client3/rdock/2013.1/src/exe/rbdock.cxx#4 $)

>  <Rbt.Library>
libRbt.so (2013.1, Build901 2013/11/27)

>  <Rbt.Parameter_File>
/export/apps/rDock/src/rDock_2013.1_src/data/scripts/dock_solv.prm

>  <Rbt.Receptor>
prm/blind_docking_80.prm

>  <SCORE>
-26.6641

>  <SCORE.INTER>
-26.6641

>  <SCORE.INTER.CONST>
1

>  <SCORE.INTER.POLAR>
-2.0198

>  <SCORE.INTER.ROT>
0

>  <SCORE.INTER.SOLV>
12.6075

>  <SCORE.INTER.VDW>
-18.8459

>  <SCORE.INTER.norm>
-2.66641

>  <SCORE.INTRA>
0

>  <SCORE.INTRA.DIHEDRAL>
0

>  <SCORE.INTRA.DIHEDRAL.0>
0

>  <SCORE.INTRA.POLAR>
0

>  <SCORE.INTRA.POLAR.0>
0

>  <SCORE.INTRA.REPUL>
0

>  <SCORE.INTRA.REPUL.0>
0

>  <SCORE.INTRA.SOLV>
0

>  <SCORE.INTRA.SOLV.lig_0>
-16.9472

>  <SCORE.INTRA.VDW>
0

>  <SCORE.INTRA.VDW.0>
0

>  <SCORE.INTRA.norm>
0

>  <SCORE.RESTR>
0

>  <SCORE.RESTR.CAVITY>
0

>  <SCORE.RESTR.norm>
0

>  <SCORE.SYSTEM>
0

>  <SCORE.SYSTEM.CONST>
0

>  <SCORE.SYSTEM.DIHEDRAL>
0

>  <SCORE.SYSTEM.SOLV>
0

>  <SCORE.SYSTEM.norm>
0

>  <SCORE.heavy>
10

>  <SCORE.norm>
-2.66641

>  <RMSD>
0.665

$$$$
1y26_lig
 OpenBabel02141814133D
libRbt.so/2013.1/901 2013/11/27
 10 11  0  0  0  0  0  0  0  0999 V2000
   19.4954  -17.0888    2.9721 N   0  0  0  0  0  0  0  0  0  0  0  0
   18.8199  -18.2066    2.6941 C   0  0  0  0  0  0  0  0  0  0  0  0
   18.5040  -19.2071    3.5140 N   0  0  0  0  0  0  0  0  0  0  0  0
   18.9433  -18.9588    4.7684 C   0  0  0  0  0  0  0  0  0  0  0  0
   19.6392  -17.8479    5.2021 C   0  0  0  0  0  0  0  0  0  0  0  0
   19.9212  -16.8786    4.2350 C   0  0  0  0  0  0  0  0  0  0  0  0
   20.5968  -15.7810    4.5349 N   0  0  0  0  0  0  0  0  0  0  0  0
   19.9459  -17.9127    6.5415 N   0  0  0  0  0  0  0  0  0  0  0  0
   19.3998  -19.0567    6.9111 C   0  0  0  0  0  0  0  0  0  0  0  0
   18.7902  -19.7411    5.8819 N   0  0  0  0  0  0  0  0  0  0  0  0
  1  2  2  0  0  0  0
  2  3  1  0  0  0  0
  3  4  2  0  0  0  0
  5  4  1  0  0  0  0
  5  6  2  0  0  0  0
  6  1  1  0  0  0  0
  6  7  1  0  0  0  0
  8  5  1  0  0  0  0
  9  8  1  0  0  0  0
 10  4  1  0  0  0  0
 10  9  2  0  0  0  0
M  END
>  <CHROM.1>
19.40565643,-18.06735299,4.72392927,1.36126049,-1.03572241,-1.14090804

>  <Name>
1y26_lig

>  <RI>
0

>  <Rbt.Current_Directory>
/home/afrankz/demos/rdock_decoys_rna/rnas/1y26

>  <Rbt.Executable>
rbdock ($Id: //depot/dev/client3/rdock/2013.1/src/exe/rbdock.cxx#4 $)

>  <Rbt.Library>
libRbt.so (2013.1, Build901 2013/11/27)

>  <Rbt.Parameter_File>
/export/apps/rDock/src/rDock_2013.1_src/data/scripts/dock_solv.prm

>  <Rbt.Receptor>
prm/blind_docking_40.prm

>  <SCORE>
-26.6647

>  <SCORE.INTER>
-26.6647

>  <SCORE.INTER.CONST>
1

>  <SCORE.INTER.POLAR>
-2.0198

>  <SCORE.INTER.ROT>
0

>  <SCORE.INTER.SOLV>
12.675

>  <SCORE.INTER.VDW>
-18.8688

>  <SCORE.INTER.norm>
-2.66647

>  <SCORE.INTRA>
0

>  <SCORE.INTRA.DIHEDRAL>
0

>  <SCORE.INTRA.DIHEDRAL.0>
0

>  <SCORE.INTRA.POLAR>
0

>  <SCORE.INTRA.POLAR.0>
0

>  <SCORE.INTRA.REPUL>
0

>  <SCORE.INTRA.REPUL.0>
0

>  <SCORE.INTRA.SOLV>
0

>  <SCORE.INTRA.SOLV.lig_0>
-16.9472

>  <SCORE.INTRA.VDW>
0

>  <SCORE.INTRA.VDW.0>
0

>  <SCORE.INTRA.norm>
0

>  <SCORE.RESTR>
0

>  <SCORE.RESTR.CAVITY>
0

>  <SCORE.RESTR.norm>
0

>  <SCORE.SYSTEM>
0

>  <SCORE.SYSTEM.CONST>
0

>  <SCORE.SYSTEM.DIHEDRAL>
0

>  <SCORE.SYSTEM.SOLV>
0

>  <SCORE.SYSTEM.norm>
0

>  <SCORE.heavy>
10

>  <SCORE.norm>
-2.66647

>  <RMSD>
0.666

$$$$
1y26_lig
 OpenBabel02141814133D
libRbt.so/2013.1/901 2013/11/27
 10 11  0  0  0  0  0  0  0  0999 V2000
   19.5545  -17.0849    2.9762 N   0  0  0  0  0  0  0  0  0  0  0  0
   18.8545  -18.1833    2.6819 C   0  0  0  0  0  0  0  0  0  0  0  0
   18.5219  -19.1916    3.4855 N   0  0  0  0  0  0  0  0  0  0  0  0
   18.9725  -18.9749    4.7417 C   0  0  0  0  0  0  0  0  0  0  0  0
   19.6936  -17.8867    5.1915 C   0  0  0  0  0  0  0  0  0  0  0  0
   19.9909  -16.9062    4.2403 C   0  0  0  0  0  0  0  0  0  0  0  0
   20.6908  -15.8285    4.5562 N   0  0  0  0  0  0  0  0  0  0  0  0
   20.0055  -17.9819    6.5279 N   0  0  0  0  0  0  0  0  0  0  0  0
   19.4375  -19.1208    6.8799 C   0  0  0  0  0  0  0  0  0  0  0  0
   18.8086  -19.7738    5.8419 N   0  0  0  0  0  0  0  0  0  0  0  0
  1  2  2  0  0  0  0
  2  3  1  0  0  0  0
  3  4  2  0  0  0  0
  5  4  1  0  0  0  0
  5  6  2  0  0  0  0
  6  1  1  0  0  0  0
  6  7  1  0  0  0  0
  8  5  1  0  0  0  0
  9  8  1  0  0  0  0
 10  4  1  0  0  0  0
 10  9  2  0  0  0  0
M  END
>  <CHROM.1>
19.45312136,-18.09264878,4.71072660,1.35336058,-1.01467811,-1.12977046

>  <Name>
1y26_lig

>  <RI>
0

>  <Rbt.Current_Directory>
/home/afrankz/demos/rdock_decoys_rna/rnas/1y26

>  <Rbt.Executable>
rbdock ($Id: //depot/dev/client3/rdock/2013.1/src/exe/rbdock.cxx#4 $)

>  <Rbt.Library>
libRbt.so (2013.1, Build901 2013/11/27)

>  <Rbt.Parameter_File>
/export/apps/rDock/src/rDock_2013.1_src/data/scripts/dock_solv.prm

>  <Rbt.Receptor>
prm/pocket_docking_4.prm

>  <SCORE>
-26.6375

>  <SCORE.INTER>
-26.6375

>  <SCORE.INTER.CONST>
1

>  <SCORE.INTER.POLAR>
-2.0198

>  <SCORE.INTER.ROT>
0

>  <SCORE.INTER.SOLV>
12.5519

>  <SCORE.INTER.VDW>
-18.8096

>  <SCORE.INTER.norm>
-2.66375

>  <SCORE.INTRA>
0

>  <SCORE.INTRA.DIHEDRAL>
0

>  <SCORE.INTRA.DIHEDRAL.0>
0

>  <SCORE.INTRA.POLAR>
0

>  <SCORE.INTRA.POLAR.0>
0

>  <SCORE.INTRA.REPUL>
0

>  <SCORE.INTRA.REPUL.0>
0

>  <SCORE.INTRA.SOLV>
0

>  <SCORE.INTRA.SOLV.lig_0>
-16.9472

>  <SCORE.INTRA.VDW>
0

>  <SCORE.INTRA.VDW.0>
0

>  <SCORE.INTRA.norm>
0

>  <SCORE.RESTR>
0

>  <SCORE.RESTR.CAVITY>
0

>  <SCORE.RESTR.norm>
0

>  <SCORE.SYSTEM>
0

>  <SCORE.SYSTEM.CONST>
0

>  <SCORE.SYSTEM.DIHEDRAL>
0

>  <SCORE.SYSTEM.SOLV>
0

>  <SCORE.SYSTEM.norm>
0

>  <SCORE.heavy>
10

>  <SCORE.norm>
-2.66375

>  <RMSD>
0.666

$$$$
1y26_lig
 OpenBabel02141814133D
libRbt.so/2013.1/901 2013/11/27
 10 11  0  0  0  0  0  0  0  0999 V2000
   19.5121  -17.0080    2.9994 N   0  0  0  0  0  0  0  0  0  0  0  0
   18.8062  -18.1003    2.6968 C   0  0  0  0  0  0  0  0  0  0  0  0
   18.4812  -19.1202    3.4887 N   0  0  0  0  0  0  0  0  0  0  0  0
   18.9476  -18.9238    4.7426 C   0  0  0  0  0  0  0  0  0  0  0  0
   19.6764  -17.8441    5.2002 C   0  0  0  0  0  0  0  0  0  0  0  0
   19.9642  -16.8497    4.2607 C   0  0  0  0  0  0  0  0  0  0  0  0
   20.6702  -15.7783    4.5846 N   0  0  0  0  0  0  0  0  0  0  0  0
   20.0043  -17.9605    6.5311 N   0  0  0  0  0  0  0  0  0  0  0  0
   19.4382  -19.1036    6.8724 C   0  0  0  0  0  0  0  0  0  0  0  0
   18.7953  -19.7393    5.8322 N   0  0  0  0  0  0  0  0  0  0  0  0
  1  2  2  0  0  0  0
  2  3  1  0  0  0  0
  3  4  2  0  0  0  0
  5  4  1  0  0  0  0
  5  6  2  0  0  0  0
  6  1  1  0  0  0  0
  6  7  1  0  0  0  0
  8  5  1  0  0  0  0
  9  8  1  0  0  0  0
 10  4  1  0  0  0  0
 10  9  2  0  0  0  0
M  END
>  <CHROM.1>
19.42963695,-18.04212234,4.71928379,1.37222906,-1.00745489,-1.09835273

>  <Name>
1y26_lig

>  <RI>
0

>  <Rbt.Current_Directory>
/home/afrankz/demos/rdock_decoys_rna/rnas/1y26

>  <Rbt.Executable>
rbdock ($Id: //depot/dev/client3/rdock/2013.1/src/exe/rbdock.cxx#4 $)

>  <Rbt.Library>
libRbt.so (2013.1, Build901 2013/11/27)

>  <Rbt.Parameter_File>
/export/apps/rDock/src/rDock_2013.1_src/data/scripts/dock_solv.prm

>  <Rbt.Receptor>
prm/pocket_docking_8.prm

>  <SCORE>
-26.6322

>  <SCORE.INTER>
-26.6322

>  <SCORE.INTER.CONST>
1

>  <SCORE.INTER.POLAR>
-2.0198

>  <SCORE.INTER.ROT>
0

>  <SCORE.INTER.SOLV>
12.6735

>  <SCORE.INTER.VDW>
-18.8466

>  <SCORE.INTER.norm>
-2.66322

>  <SCORE.INTRA>
0

>  <SCORE.INTRA.DIHEDRAL>
0

>  <SCORE.INTRA.DIHEDRAL.0>
0

>  <SCORE.INTRA.POLAR>
0

>  <SCORE.INTRA.POLAR.0>
0

>  <SCORE.INTRA.REPUL>
0

>  <SCORE.INTRA.REPUL.0>
0

>  <SCORE.INTRA.SOLV>
0

>  <SCORE.INTRA.SOLV.lig_0>
-16.9472

>  <SCORE.INTRA.VDW>
0

>  <SCORE.INTRA.VDW.0>
0

>  <SCORE.INTRA.norm>
0

>  <SCORE.RESTR>
0

>  <SCORE.RESTR.CAVITY>
0

>  <SCORE.RESTR.norm>
0

>  <SCORE.SYSTEM>
0

>  <SCORE.SYSTEM.CONST>
0

>  <SCORE.SYSTEM.DIHEDRAL>
0

>  <SCORE.SYSTEM.SOLV>
0

>  <SCORE.SYSTEM.norm>
0

>  <SCORE.heavy>
10

>  <SCORE.norm>
-2.66322

>  <RMSD>
0.666

$$$$
1y26_lig
 OpenBabel02141814133D
libRbt.so/2013.1/901 2013/11/27
 10 11  0  0  0  0  0  0  0  0999 V2000
   19.4443  -17.0470    2.9876 N   0  0  0  0  0  0  0  0  0  0  0  0
   18.7516  -18.1556    2.7154 C   0  0  0  0  0  0  0  0  0  0  0  0
   18.4575  -19.1673    3.5297 N   0  0  0  0  0  0  0  0  0  0  0  0
   18.9422  -18.9424    4.7717 C   0  0  0  0  0  0  0  0  0  0  0  0
   19.6607  -17.8433    5.1986 C   0  0  0  0  0  0  0  0  0  0  0  0
   19.9155  -16.8602    4.2379 C   0  0  0  0  0  0  0  0  0  0  0  0
   20.6090  -15.7721    4.5316 N   0  0  0  0  0  0  0  0  0  0  0  0
   20.0136  -17.9320    6.5252 N   0  0  0  0  0  0  0  0  0  0  0  0
   19.4727  -19.0783    6.8953 C   0  0  0  0  0  0  0  0  0  0  0  0
   18.8225  -19.7418    5.8771 N   0  0  0  0  0  0  0  0  0  0  0  0
  1  2  2  0  0  0  0
  2  3  1  0  0  0  0
  3  4  2  0  0  0  0
  5  4  1  0  0  0  0
  5  6  2  0  0  0  0
  6  1  1  0  0  0  0
  6  7  1  0  0  0  0
  8  5  1  0  0  0  0
  9  8  1  0  0  0  0
 10  4  1  0  0  0  0
 10  9  2  0  0  0  0
M  END
>  <CHROM.1>
19.40899527,-18.05338357,4.72540894,1.41587622,-1.01400613,-1.07798728

>  <Name>
1y26_lig

>  <RI>
0

>  <Rbt.Current_Directory>
/home/afrankz/demos/rdock_decoys_rna/rnas/1y26

>  <Rbt.Executable>
rbdock ($Id: //depot/dev/client3/rdock/2013.1/src/exe/rbdock.cxx#4 $)

>  <Rbt.Library>
libRbt.so (2013.1, Build901 2013/11/27)

>  <Rbt.Parameter_File>
/export/apps/rDock/src/rDock_2013.1_src/data/scripts/dock_solv.prm

>  <Rbt.Receptor>
prm/blind_docking_40.prm

>  <SCORE>
-26.6686

>  <SCORE.INTER>
-26.6686

>  <SCORE.INTER.CONST>
1

>  <SCORE.INTER.POLAR>
-2.0198

>  <SCORE.INTER.ROT>
0

>  <SCORE.INTER.SOLV>
12.7569

>  <SCORE.INTER.VDW>
-18.8987

>  <SCORE.INTER.norm>
-2.66686

>  <SCORE.INTRA>
0

>  <SCORE.INTRA.DIHEDRAL>
0

>  <SCORE.INTRA.DIHEDRAL.0>
0

>  <SCORE.INTRA.POLAR>
0

>  <SCORE.INTRA.POLAR.0>
0

>  <SCORE.INTRA.REPUL>
0

>  <SCORE.INTRA.REPUL.0>
0

>  <SCORE.INTRA.SOLV>
0

>  <SCORE.INTRA.SOLV.lig_0>
-16.9472

>  <SCORE.INTRA.VDW>
0

>  <SCORE.INTRA.VDW.0>
0

>  <SCORE.INTRA.norm>
0

>  <SCORE.RESTR>
0

>  <SCORE.RESTR.CAVITY>
0

>  <SCORE.RESTR.norm>
0

>  <SCORE.SYSTEM>
0

>  <SCORE.SYSTEM.CONST>
0

>  <SCORE.SYSTEM.DIHEDRAL>
0

>  <SCORE.SYSTEM.SOLV>
0

>  <SCORE.SYSTEM.norm>
0

>  <SCORE.heavy>
10

>  <SCORE.norm>
-2.66686

>  <RMSD>
0.667

$$$$
1y26_lig
 OpenBabel02141814133D
libRbt.so/2013.1/901 2013/11/27
 10 11  0  0  0  0  0  0  0  0999 V2000
   19.5786  -17.0527    2.9843 N   0  0  0  0  0  0  0  0  0  0  0  0
   18.8691  -18.1442    2.6871 C   0  0  0  0  0  0  0  0  0  0  0  0
   18.5169  -19.1454    3.4912 N   0  0  0  0  0  0  0  0  0  0  0  0
   18.9572  -18.9289    4.7511 C   0  0  0  0  0  0  0  0  0  0  0  0
   19.6860  -17.8472    5.2040 C   0  0  0  0  0  0  0  0  0  0  0  0
   20.0041  -16.8739    4.2521 C   0  0  0  0  0  0  0  0  0  0  0  0
   20.7130  -15.8030    4.5709 N   0  0  0  0  0  0  0  0  0  0  0  0
   19.9832  -17.9405    6.5439 N   0  0  0  0  0  0  0  0  0  0  0  0
   19.3988  -19.0714    6.8945 C   0  0  0  0  0  0  0  0  0  0  0  0
   18.7730  -19.7214    5.8527 N   0  0  0  0  0  0  0  0  0  0  0  0
  1  2  2  0  0  0  0
  2  3  1  0  0  0  0
  3  4  2  0  0  0  0
  5  4  1  0  0  0  0
  5  6  2  0  0  0  0
  6  1  1  0  0  0  0
  6  7  1  0  0  0  0
  8  5  1  0  0  0  0
  9  8  1  0  0  0  0
 10  4  1  0  0  0  0
 10  9  2  0  0  0  0
M  END
>  <CHROM.1>
19.44811222,-18.05224841,4.72159444,1.32699139,-1.00855690,-1.15606170

>  <Name>
1y26_lig

>  <RI>
224

>  <Rbt.Current_Directory>
/home/afrankz/demos/rdock_decoys_rna/rnas/1y26

>  <Rbt.Executable>
rbdock ($Id: //depot/dev/client3/rdock/2013.1/src/exe/rbdock.cxx#4 $)

>  <Rbt.Library>
libRbt.so (2013.1, Build901 2013/11/27)

>  <Rbt.Parameter_File>
/export/apps/rDock/src/rDock_2013.1_src/data/scripts/dock_solv.prm

>  <Rbt.Receptor>
prm/pocket_docking_3.prm

>  <SCORE>
-26.6446

>  <SCORE.INTER>
-26.6446

>  <SCORE.INTER.CONST>
1

>  <SCORE.INTER.POLAR>
-2.0198

>  <SCORE.INTER.ROT>
0

>  <SCORE.INTER.SOLV>
12.5021

>  <SCORE.INTER.VDW>
-18.7978

>  <SCORE.INTER.norm>
-2.66446

>  <SCORE.INTRA>
0

>  <SCORE.INTRA.DIHEDRAL>
0

>  <SCORE.INTRA.DIHEDRAL.0>
0

>  <SCORE.INTRA.POLAR>
0

>  <SCORE.INTRA.POLAR.0>
0

>  <SCORE.INTRA.REPUL>
0

>  <SCORE.INTRA.REPUL.0>
0

>  <SCORE.INTRA.SOLV>
0

>  <SCORE.INTRA.SOLV.lig_0>
-16.9472

>  <SCORE.INTRA.VDW>
0

>  <SCORE.INTRA.VDW.0>
0

>  <SCORE.INTRA.norm>
0

>  <SCORE.RESTR>
0

>  <SCORE.RESTR.CAVITY>
0

>  <SCORE.RESTR.norm>
0

>  <SCORE.SYSTEM>
0

>  <SCORE.SYSTEM.CONST>
0

>  <SCORE.SYSTEM.DIHEDRAL>
0

>  <SCORE.SYSTEM.SOLV>
0

>  <SCORE.SYSTEM.norm>
0

>  <SCORE.heavy>
10

>  <SCORE.norm>
-2.66446

>  <RMSD>
0.667

$$$$
1y26_lig
 OpenBabel02141814133D
libRbt.so/2013.1/901 2013/11/27
 10 11  0  0  0  0  0  0  0  0999 V2000
   19.4898  -17.0326    2.9920 N   0  0  0  0  0  0  0  0  0  0  0  0
   18.7957  -18.1356    2.7009 C   0  0  0  0  0  0  0  0  0  0  0  0
   18.4831  -19.1513    3.5032 N   0  0  0  0  0  0  0  0  0  0  0  0
   18.9489  -18.9377    4.7544 C   0  0  0  0  0  0  0  0  0  0  0  0
   19.6663  -17.8455    5.2005 C   0  0  0  0  0  0  0  0  0  0  0  0
   19.9418  -16.8571    4.2510 C   0  0  0  0  0  0  0  0  0  0  0  0
   20.6362  -15.7748    4.5635 N   0  0  0  0  0  0  0  0  0  0  0  0
   19.9972  -17.9454    6.5320 N   0  0  0  0  0  0  0  0  0  0  0  0
   19.4444  -19.0913    6.8852 C   0  0  0  0  0  0  0  0  0  0  0  0
   18.8072  -19.7441    5.8521 N   0  0  0  0  0  0  0  0  0  0  0  0
  1  2  2  0  0  0  0
  2  3  1  0  0  0  0
  3  4  2  0  0  0  0
  5  4  1  0  0  0  0
  5  6  2  0  0  0  0
  6  1  1  0  0  0  0
  6  7  1  0  0  0  0
  8  5  1  0  0  0  0
  9  8  1  0  0  0  0
 10  4  1  0  0  0  0
 10  9  2  0  0  0  0
M  END
>  <CHROM.1>
19.42112985,-18.05090149,4.72191700,1.38411771,-1.01674881,-1.09796220

>  <Name>
1y26_lig

>  <RI>
224

>  <Rbt.Current_Directory>
/home/afrankz/demos/rdock_decoys_rna/rnas/1y26

>  <Rbt.Executable>
rbdock ($Id: //depot/dev/client3/rdock/2013.1/src/exe/rbdock.cxx#4 $)

>  <Rbt.Library>
libRbt.so (2013.1, Build901 2013/11/27)

>  <Rbt.Parameter_File>
/export/apps/rDock/src/rDock_2013.1_src/data/scripts/dock_solv.prm

>  <Rbt.Receptor>
prm/pocket_docking_6.prm

>  <SCORE>
-26.6704

>  <SCORE.INTER>
-26.6704

>  <SCORE.INTER.CONST>
1

>  <SCORE.INTER.POLAR>
-2.0198

>  <SCORE.INTER.ROT>
0

>  <SCORE.INTER.SOLV>
12.7093

>  <SCORE.INTER.VDW>
-18.884

>  <SCORE.INTER.norm>
-2.66704

>  <SCORE.INTRA>
0

>  <SCORE.INTRA.DIHEDRAL>
0

>  <SCORE.INTRA.DIHEDRAL.0>
0

>  <SCORE.INTRA.POLAR>
0

>  <SCORE.INTRA.POLAR.0>
0

>  <SCORE.INTRA.REPUL>
0

>  <SCORE.INTRA.REPUL.0>
0

>  <SCORE.INTRA.SOLV>
0

>  <SCORE.INTRA.SOLV.lig_0>
-16.9472

>  <SCORE.INTRA.VDW>
0

>  <SCORE.INTRA.VDW.0>
0

>  <SCORE.INTRA.norm>
0

>  <SCORE.RESTR>
0

>  <SCORE.RESTR.CAVITY>
0

>  <SCORE.RESTR.norm>
0

>  <SCORE.SYSTEM>
0

>  <SCORE.SYSTEM.CONST>
0

>  <SCORE.SYSTEM.DIHEDRAL>
0

>  <SCORE.SYSTEM.SOLV>
0

>  <SCORE.SYSTEM.norm>
0

>  <SCORE.heavy>
10

>  <SCORE.norm>
-2.66704

>  <RMSD>
0.667

$$$$
1y26_lig
 OpenBabel02141814133D
libRbt.so/2013.1/901 2013/11/27
 10 11  0  0  0  0  0  0  0  0999 V2000
   19.4917  -17.0028    3.0016 N   0  0  0  0  0  0  0  0  0  0  0  0
   18.7939  -18.1008    2.7004 C   0  0  0  0  0  0  0  0  0  0  0  0
   18.4834  -19.1258    3.4915 N   0  0  0  0  0  0  0  0  0  0  0  0
   18.9558  -18.9286    4.7430 C   0  0  0  0  0  0  0  0  0  0  0  0
   19.6775  -17.8434    5.1990 C   0  0  0  0  0  0  0  0  0  0  0  0
   19.9502  -16.8438    4.2605 C   0  0  0  0  0  0  0  0  0  0  0  0
   20.6484  -15.7669    4.5829 N   0  0  0  0  0  0  0  0  0  0  0  0
   20.0149  -17.9604    6.5275 N   0  0  0  0  0  0  0  0  0  0  0  0
   19.4616  -19.1096    6.8692 C   0  0  0  0  0  0  0  0  0  0  0  0
   18.8180  -19.7483    5.8313 N   0  0  0  0  0  0  0  0  0  0  0  0
  1  2  2  0  0  0  0
  2  3  1  0  0  0  0
  3  4  2  0  0  0  0
  5  4  1  0  0  0  0
  5  6  2  0  0  0  0
  6  1  1  0  0  0  0
  6  7  1  0  0  0  0
  8  5  1  0  0  0  0
  9  8  1  0  0  0  0
 10  4  1  0  0  0  0
 10  9  2  0  0  0  0
M  END
>  <CHROM.1>
19.42960306,-18.04238999,4.71912056,1.39079385,-1.01270953,-1.07988492

>  <Name>
1y26_lig

>  <RI>
0

>  <Rbt.Current_Directory>
/home/afrankz/demos/rdock_decoys_rna/rnas/1y26

>  <Rbt.Executable>
rbdock ($Id: //depot/dev/client3/rdock/2013.1/src/exe/rbdock.cxx#4 $)

>  <Rbt.Library>
libRbt.so (2013.1, Build901 2013/11/27)

>  <Rbt.Parameter_File>
/export/apps/rDock/src/rDock_2013.1_src/data/scripts/dock_solv.prm

>  <Rbt.Receptor>
prm/blind_docking_60.prm

>  <SCORE>
-26.6212

>  <SCORE.INTER>
-26.6212

>  <SCORE.INTER.CONST>
1

>  <SCORE.INTER.POLAR>
-2.0198

>  <SCORE.INTER.ROT>
0

>  <SCORE.INTER.SOLV>
12.7313

>  <SCORE.INTER.VDW>
-18.8585

>  <SCORE.INTER.norm>
-2.66212

>  <SCORE.INTRA>
0

>  <SCORE.INTRA.DIHEDRAL>
0

>  <SCORE.INTRA.DIHEDRAL.0>
0

>  <SCORE.INTRA.POLAR>
0

>  <SCORE.INTRA.POLAR.0>
0

>  <SCORE.INTRA.REPUL>
0

>  <SCORE.INTRA.REPUL.0>
0

>  <SCORE.INTRA.SOLV>
0

>  <SCORE.INTRA.SOLV.lig_0>
-16.9472

>  <SCORE.INTRA.VDW>
0

>  <SCORE.INTRA.VDW.0>
0

>  <SCORE.INTRA.norm>
0

>  <SCORE.RESTR>
0

>  <SCORE.RESTR.CAVITY>
0

>  <SCORE.RESTR.norm>
0

>  <SCORE.SYSTEM>
0

>  <SCORE.SYSTEM.CONST>
0

>  <SCORE.SYSTEM.DIHEDRAL>
0

>  <SCORE.SYSTEM.SOLV>
0

>  <SCORE.SYSTEM.norm>
0

>  <SCORE.heavy>
10

>  <SCORE.norm>
-2.66212

>  <RMSD>
0.668

$$$$
1y26_lig
 OpenBabel02141814133D
libRbt.so/2013.1/901 2013/11/27
 10 11  0  0  0  0  0  0  0  0999 V2000
   19.5937  -17.0542    2.9845 N   0  0  0  0  0  0  0  0  0  0  0  0
   18.8978  -18.1483    2.6655 C   0  0  0  0  0  0  0  0  0  0  0  0
   18.5520  -19.1662    3.4512 N   0  0  0  0  0  0  0  0  0  0  0  0
   18.9828  -18.9655    4.7170 C   0  0  0  0  0  0  0  0  0  0  0  0
   19.6972  -17.8835    5.1916 C   0  0  0  0  0  0  0  0  0  0  0  0
   20.0101  -16.8915    4.2574 C   0  0  0  0  0  0  0  0  0  0  0  0
   20.7054  -15.8183    4.5976 N   0  0  0  0  0  0  0  0  0  0  0  0
   19.9879  -17.9954    6.5314 N   0  0  0  0  0  0  0  0  0  0  0  0
   19.4139  -19.1381    6.8603 C   0  0  0  0  0  0  0  0  0  0  0  0
   18.8011  -19.7778    5.8045 N   0  0  0  0  0  0  0  0  0  0  0  0
  1  2  2  0  0  0  0
  2  3  1  0  0  0  0
  3  4  2  0  0  0  0
  5  4  1  0  0  0  0
  5  6  2  0  0  0  0
  6  1  1  0  0  0  0
  6  7  1  0  0  0  0
  8  5  1  0  0  0  0
  9  8  1  0  0  0  0
 10  4  1  0  0  0  0
 10  9  2  0  0  0  0
M  END
>  <CHROM.1>
19.46429705,-18.08325155,4.70453028,1.32555187,-1.02078363,-1.14103954

>  <Name>
1y26_lig

>  <RI>
224

>  <Rbt.Current_Directory>
/home/afrankz/demos/rdock_decoys_rna/rnas/1y26

>  <Rbt.Executable>
rbdock ($Id: //depot/dev/client3/rdock/2013.1/src/exe/rbdock.cxx#4 $)

>  <Rbt.Library>
libRbt.so (2013.1, Build901 2013/11/27)

>  <Rbt.Parameter_File>
/export/apps/rDock/src/rDock_2013.1_src/data/scripts/dock_solv.prm

>  <Rbt.Receptor>
prm/pocket_docking_6.prm

>  <SCORE>
-26.6221

>  <SCORE.INTER>
-26.6221

>  <SCORE.INTER.CONST>
1

>  <SCORE.INTER.POLAR>
-2.0198

>  <SCORE.INTER.ROT>
0

>  <SCORE.INTER.SOLV>
12.5376

>  <SCORE.INTER.VDW>
-18.7946

>  <SCORE.INTER.norm>
-2.66221

>  <SCORE.INTRA>
0

>  <SCORE.INTRA.DIHEDRAL>
0

>  <SCORE.INTRA.DIHEDRAL.0>
0

>  <SCORE.INTRA.POLAR>
0

>  <SCORE.INTRA.POLAR.0>
0

>  <SCORE.INTRA.REPUL>
0

>  <SCORE.INTRA.REPUL.0>
0

>  <SCORE.INTRA.SOLV>
0

>  <SCORE.INTRA.SOLV.lig_0>
-16.9472

>  <SCORE.INTRA.VDW>
0

>  <SCORE.INTRA.VDW.0>
0

>  <SCORE.INTRA.norm>
0

>  <SCORE.RESTR>
0

>  <SCORE.RESTR.CAVITY>
0

>  <SCORE.RESTR.norm>
0

>  <SCORE.SYSTEM>
0

>  <SCORE.SYSTEM.CONST>
0

>  <SCORE.SYSTEM.DIHEDRAL>
0

>  <SCORE.SYSTEM.SOLV>
0

>  <SCORE.SYSTEM.norm>
0

>  <SCORE.heavy>
10

>  <SCORE.norm>
-2.66221

>  <RMSD>
0.668

$$$$
1y26_lig
 OpenBabel02141814133D
libRbt.so/2013.1/901 2013/11/27
 10 11  0  0  0  0  0  0  0  0999 V2000
   19.4987  -17.0485    2.9921 N   0  0  0  0  0  0  0  0  0  0  0  0
   18.7970  -18.1480    2.7062 C   0  0  0  0  0  0  0  0  0  0  0  0
   18.4758  -19.1569    3.5136 N   0  0  0  0  0  0  0  0  0  0  0  0
   18.9413  -18.9396    4.7643 C   0  0  0  0  0  0  0  0  0  0  0  0
   19.6659  -17.8502    5.2054 C   0  0  0  0  0  0  0  0  0  0  0  0
   19.9500  -16.8691    4.2508 C   0  0  0  0  0  0  0  0  0  0  0  0
   20.6519  -15.7903    4.5583 N   0  0  0  0  0  0  0  0  0  0  0  0
   19.9942  -17.9450    6.5379 N   0  0  0  0  0  0  0  0  0  0  0  0
   19.4325  -19.0849    6.8967 C   0  0  0  0  0  0  0  0  0  0  0  0
   18.7921  -19.7389    5.8663 N   0  0  0  0  0  0  0  0  0  0  0  0
  1  2  2  0  0  0  0
  2  3  1  0  0  0  0
  3  4  2  0  0  0  0
  5  4  1  0  0  0  0
  5  6  2  0  0  0  0
  6  1  1  0  0  0  0
  6  7  1  0  0  0  0
  8  5  1  0  0  0  0
  9  8  1  0  0  0  0
 10  4  1  0  0  0  0
 10  9  2  0  0  0  0
M  END
>  <CHROM.1>
19.42001416,-18.05650838,4.72757460,1.37538199,-1.01092049,-1.11097644

>  <Name>
1y26_lig

>  <RI>
0

>  <Rbt.Current_Directory>
/home/afrankz/demos/rdock_decoys_rna/rnas/1y26

>  <Rbt.Executable>
rbdock ($Id: //depot/dev/client3/rdock/2013.1/src/exe/rbdock.cxx#4 $)

>  <Rbt.Library>
libRbt.so (2013.1, Build901 2013/11/27)

>  <Rbt.Parameter_File>
/export/apps/rDock/src/rDock_2013.1_src/data/scripts/dock_solv.prm

>  <Rbt.Receptor>
prm/blind_docking_100.prm

>  <SCORE>
-26.6707

>  <SCORE.INTER>
-26.6707

>  <SCORE.INTER.CONST>
1

>  <SCORE.INTER.POLAR>
-2.0198

>  <SCORE.INTER.ROT>
0

>  <SCORE.INTER.SOLV>
12.6595

>  <SCORE.INTER.VDW>
-18.8676

>  <SCORE.INTER.norm>
-2.66707

>  <SCORE.INTRA>
0

>  <SCORE.INTRA.DIHEDRAL>
0

>  <SCORE.INTRA.DIHEDRAL.0>
0

>  <SCORE.INTRA.POLAR>
0

>  <SCORE.INTRA.POLAR.0>
0

>  <SCORE.INTRA.REPUL>
0

>  <SCORE.INTRA.REPUL.0>
0

>  <SCORE.INTRA.SOLV>
0

>  <SCORE.INTRA.SOLV.lig_0>
-16.9472

>  <SCORE.INTRA.VDW>
0

>  <SCORE.INTRA.VDW.0>
0

>  <SCORE.INTRA.norm>
0

>  <SCORE.RESTR>
0

>  <SCORE.RESTR.CAVITY>
0

>  <SCORE.RESTR.norm>
0

>  <SCORE.SYSTEM>
0

>  <SCORE.SYSTEM.CONST>
0

>  <SCORE.SYSTEM.DIHEDRAL>
0

>  <SCORE.SYSTEM.SOLV>
0

>  <SCORE.SYSTEM.norm>
0

>  <SCORE.heavy>
10

>  <SCORE.norm>
-2.66707

>  <RMSD>
0.669

$$$$
1y26_lig
 OpenBabel02141814133D
libRbt.so/2013.1/901 2013/11/27
 10 11  0  0  0  0  0  0  0  0999 V2000
   19.6002  -17.0578    2.9828 N   0  0  0  0  0  0  0  0  0  0  0  0
   18.8777  -18.1410    2.6864 C   0  0  0  0  0  0  0  0  0  0  0  0
   18.5246  -19.1438    3.4880 N   0  0  0  0  0  0  0  0  0  0  0  0
   18.9799  -18.9390    4.7446 C   0  0  0  0  0  0  0  0  0  0  0  0
   19.7231  -17.8667    5.1964 C   0  0  0  0  0  0  0  0  0  0  0  0
   20.0403  -16.8906    4.2471 C   0  0  0  0  0  0  0  0  0  0  0  0
   20.7622  -15.8281    4.5650 N   0  0  0  0  0  0  0  0  0  0  0  0
   20.0332  -17.9709    6.5325 N   0  0  0  0  0  0  0  0  0  0  0  0
   19.4421  -19.0986    6.8824 C   0  0  0  0  0  0  0  0  0  0  0  0
   18.7998  -19.7365    5.8432 N   0  0  0  0  0  0  0  0  0  0  0  0
  1  2  2  0  0  0  0
  2  3  1  0  0  0  0
  3  4  2  0  0  0  0
  5  4  1  0  0  0  0
  5  6  2  0  0  0  0
  6  1  1  0  0  0  0
  6  7  1  0  0  0  0
  8  5  1  0  0  0  0
  9  8  1  0  0  0  0
 10  4  1  0  0  0  0
 10  9  2  0  0  0  0
M  END
>  <CHROM.1>
19.47841690,-18.06666036,4.71526216,1.33754071,-0.99601739,-1.14112386

>  <Name>
1y26_lig

>  <RI>
0

>  <Rbt.Current_Directory>
/home/afrankz/demos/rdock_decoys_rna/rnas/1y26

>  <Rbt.Executable>
rbdock ($Id: //depot/dev/client3/rdock/2013.1/src/exe/rbdock.cxx#4 $)

>  <Rbt.Library>
libRbt.so (2013.1, Build901 2013/11/27)

>  <Rbt.Parameter_File>
/export/apps/rDock/src/rDock_2013.1_src/data/scripts/dock_solv.prm

>  <Rbt.Receptor>
prm/blind_docking_40.prm

>  <SCORE>
-26.6295

>  <SCORE.INTER>
-26.6295

>  <SCORE.INTER.CONST>
1

>  <SCORE.INTER.POLAR>
-2.0198

>  <SCORE.INTER.ROT>
0

>  <SCORE.INTER.SOLV>
12.4344

>  <SCORE.INTER.VDW>
-18.7652

>  <SCORE.INTER.norm>
-2.66295

>  <SCORE.INTRA>
0

>  <SCORE.INTRA.DIHEDRAL>
0

>  <SCORE.INTRA.DIHEDRAL.0>
0

>  <SCORE.INTRA.POLAR>
0

>  <SCORE.INTRA.POLAR.0>
0

>  <SCORE.INTRA.REPUL>
0

>  <SCORE.INTRA.REPUL.0>
0

>  <SCORE.INTRA.SOLV>
0

>  <SCORE.INTRA.SOLV.lig_0>
-16.9472

>  <SCORE.INTRA.VDW>
0

>  <SCORE.INTRA.VDW.0>
0

>  <SCORE.INTRA.norm>
0

>  <SCORE.RESTR>
0

>  <SCORE.RESTR.CAVITY>
0

>  <SCORE.RESTR.norm>
0

>  <SCORE.SYSTEM>
0

>  <SCORE.SYSTEM.CONST>
0

>  <SCORE.SYSTEM.DIHEDRAL>
0

>  <SCORE.SYSTEM.SOLV>
0

>  <SCORE.SYSTEM.norm>
0

>  <SCORE.heavy>
10

>  <SCORE.norm>
-2.66295

>  <RMSD>
0.669

$$$$
1y26_lig
 OpenBabel02141814133D
libRbt.so/2013.1/901 2013/11/27
 10 11  0  0  0  0  0  0  0  0999 V2000
   19.5895  -17.0582    2.9848 N   0  0  0  0  0  0  0  0  0  0  0  0
   18.8873  -18.1524    2.6804 C   0  0  0  0  0  0  0  0  0  0  0  0
   18.5299  -19.1545    3.4810 N   0  0  0  0  0  0  0  0  0  0  0  0
   18.9556  -18.9358    4.7456 C   0  0  0  0  0  0  0  0  0  0  0  0
   19.6754  -17.8513    5.2059 C   0  0  0  0  0  0  0  0  0  0  0  0
   20.0004  -16.8773    4.2571 C   0  0  0  0  0  0  0  0  0  0  0  0
   20.7018  -15.8036    4.5831 N   0  0  0  0  0  0  0  0  0  0  0  0
   19.9582  -17.9429    6.5490 N   0  0  0  0  0  0  0  0  0  0  0  0
   19.3741  -19.0758    6.8938 C   0  0  0  0  0  0  0  0  0  0  0  0
   18.7622  -19.7286    5.8454 N   0  0  0  0  0  0  0  0  0  0  0  0
  1  2  2  0  0  0  0
  2  3  1  0  0  0  0
  3  4  2  0  0  0  0
  5  4  1  0  0  0  0
  5  6  2  0  0  0  0
  6  1  1  0  0  0  0
  6  7  1  0  0  0  0
  8  5  1  0  0  0  0
  9  8  1  0  0  0  0
 10  4  1  0  0  0  0
 10  9  2  0  0  0  0
M  END
>  <CHROM.1>
19.44355417,-18.05742337,4.72101289,1.31068951,-1.01624844,-1.17035252

>  <Name>
1y26_lig

>  <RI>
224

>  <Rbt.Current_Directory>
/home/afrankz/demos/rdock_decoys_rna/rnas/1y26

>  <Rbt.Executable>
rbdock ($Id: //depot/dev/client3/rdock/2013.1/src/exe/rbdock.cxx#4 $)

>  <Rbt.Library>
libRbt.so (2013.1, Build901 2013/11/27)

>  <Rbt.Parameter_File>
/export/apps/rDock/src/rDock_2013.1_src/data/scripts/dock_solv.prm

>  <Rbt.Receptor>
prm/pocket_docking_3.prm

>  <SCORE>
-26.621

>  <SCORE.INTER>
-26.621

>  <SCORE.INTER.CONST>
1

>  <SCORE.INTER.POLAR>
-2.0198

>  <SCORE.INTER.ROT>
0

>  <SCORE.INTER.SOLV>
12.5039

>  <SCORE.INTER.VDW>
-18.7827

>  <SCORE.INTER.norm>
-2.6621

>  <SCORE.INTRA>
0

>  <SCORE.INTRA.DIHEDRAL>
0

>  <SCORE.INTRA.DIHEDRAL.0>
0

>  <SCORE.INTRA.POLAR>
0

>  <SCORE.INTRA.POLAR.0>
0

>  <SCORE.INTRA.REPUL>
0

>  <SCORE.INTRA.REPUL.0>
0

>  <SCORE.INTRA.SOLV>
0

>  <SCORE.INTRA.SOLV.lig_0>
-16.9472

>  <SCORE.INTRA.VDW>
0

>  <SCORE.INTRA.VDW.0>
0

>  <SCORE.INTRA.norm>
0

>  <SCORE.RESTR>
0

>  <SCORE.RESTR.CAVITY>
0

>  <SCORE.RESTR.norm>
0

>  <SCORE.SYSTEM>
0

>  <SCORE.SYSTEM.CONST>
0

>  <SCORE.SYSTEM.DIHEDRAL>
0

>  <SCORE.SYSTEM.SOLV>
0

>  <SCORE.SYSTEM.norm>
0

>  <SCORE.heavy>
10

>  <SCORE.norm>
-2.6621

>  <RMSD>
0.669

$$$$
1y26_lig
 OpenBabel02141814133D
libRbt.so/2013.1/901 2013/11/27
 10 11  0  0  0  0  0  0  0  0999 V2000
   19.4697  -17.0592    2.9882 N   0  0  0  0  0  0  0  0  0  0  0  0
   18.7715  -18.1636    2.7124 C   0  0  0  0  0  0  0  0  0  0  0  0
   18.4613  -19.1703    3.5268 N   0  0  0  0  0  0  0  0  0  0  0  0
   18.9345  -18.9448    4.7731 C   0  0  0  0  0  0  0  0  0  0  0  0
   19.6567  -17.8497    5.2040 C   0  0  0  0  0  0  0  0  0  0  0  0
   19.9290  -16.8717    4.2428 C   0  0  0  0  0  0  0  0  0  0  0  0
   20.6275  -15.7878    4.5402 N   0  0  0  0  0  0  0  0  0  0  0  0
   19.9948  -17.9365    6.5345 N   0  0  0  0  0  0  0  0  0  0  0  0
   19.4415  -19.0775    6.9026 C   0  0  0  0  0  0  0  0  0  0  0  0
   18.7972  -19.7396    5.8799 N   0  0  0  0  0  0  0  0  0  0  0  0
  1  2  2  0  0  0  0
  2  3  1  0  0  0  0
  3  4  2  0  0  0  0
  5  4  1  0  0  0  0
  5  6  2  0  0  0  0
  6  1  1  0  0  0  0
  6  7  1  0  0  0  0
  8  5  1  0  0  0  0
  9  8  1  0  0  0  0
 10  4  1  0  0  0  0
 10  9  2  0  0  0  0
M  END
>  <CHROM.1>
19.40843245,-18.05942875,4.72885892,1.39162683,-1.01227692,-1.10190317

>  <Name>
1y26_lig

>  <RI>
224

>  <Rbt.Current_Directory>
/home/afrankz/demos/rdock_decoys_rna/rnas/1y26

>  <Rbt.Executable>
rbdock ($Id: //depot/dev/client3/rdock/2013.1/src/exe/rbdock.cxx#4 $)

>  <Rbt.Library>
libRbt.so (2013.1, Build901 2013/11/27)

>  <Rbt.Parameter_File>
/export/apps/rDock/src/rDock_2013.1_src/data/scripts/dock_solv.prm

>  <Rbt.Receptor>
prm/pocket_docking_6.prm

>  <SCORE>
-26.6911

>  <SCORE.INTER>
-26.6911

>  <SCORE.INTER.CONST>
1

>  <SCORE.INTER.POLAR>
-2.0198

>  <SCORE.INTER.ROT>
0

>  <SCORE.INTER.SOLV>
12.6978

>  <SCORE.INTER.VDW>
-18.8939

>  <SCORE.INTER.norm>
-2.66911

>  <SCORE.INTRA>
0

>  <SCORE.INTRA.DIHEDRAL>
0

>  <SCORE.INTRA.DIHEDRAL.0>
0

>  <SCORE.INTRA.POLAR>
0

>  <SCORE.INTRA.POLAR.0>
0

>  <SCORE.INTRA.REPUL>
0

>  <SCORE.INTRA.REPUL.0>
0

>  <SCORE.INTRA.SOLV>
0

>  <SCORE.INTRA.SOLV.lig_0>
-16.9472

>  <SCORE.INTRA.VDW>
0

>  <SCORE.INTRA.VDW.0>
0

>  <SCORE.INTRA.norm>
0

>  <SCORE.RESTR>
0

>  <SCORE.RESTR.CAVITY>
0

>  <SCORE.RESTR.norm>
0

>  <SCORE.SYSTEM>
0

>  <SCORE.SYSTEM.CONST>
0

>  <SCORE.SYSTEM.DIHEDRAL>
0

>  <SCORE.SYSTEM.SOLV>
0

>  <SCORE.SYSTEM.norm>
0

>  <SCORE.heavy>
10

>  <SCORE.norm>
-2.66911

>  <RMSD>
0.669

$$$$
1y26_lig
 OpenBabel02141814133D
libRbt.so/2013.1/901 2013/11/27
 10 11  0  0  0  0  0  0  0  0999 V2000
   19.4538  -17.0501    2.9944 N   0  0  0  0  0  0  0  0  0  0  0  0
   18.7479  -18.1494    2.7179 C   0  0  0  0  0  0  0  0  0  0  0  0
   18.4371  -19.1581    3.5297 N   0  0  0  0  0  0  0  0  0  0  0  0
   18.9191  -18.9408    4.7741 C   0  0  0  0  0  0  0  0  0  0  0  0
   19.6499  -17.8517    5.2055 C   0  0  0  0  0  0  0  0  0  0  0  0
   19.9218  -16.8708    4.2470 C   0  0  0  0  0  0  0  0  0  0  0  0
   20.6280  -15.7922    4.5451 N   0  0  0  0  0  0  0  0  0  0  0  0
   19.9957  -17.9464    6.5335 N   0  0  0  0  0  0  0  0  0  0  0  0
   19.4383  -19.0860    6.8999 C   0  0  0  0  0  0  0  0  0  0  0  0
   18.7841  -19.7398    5.8781 N   0  0  0  0  0  0  0  0  0  0  0  0
  1  2  2  0  0  0  0
  2  3  1  0  0  0  0
  3  4  2  0  0  0  0
  5  4  1  0  0  0  0
  5  6  2  0  0  0  0
  6  1  1  0  0  0  0
  6  7  1  0  0  0  0
  8  5  1  0  0  0  0
  9  8  1  0  0  0  0
 10  4  1  0  0  0  0
 10  9  2  0  0  0  0
M  END
>  <CHROM.1>
19.39760942,-18.05790794,4.73094949,1.39707859,-1.00460158,-1.09277604

>  <Name>
1y26_lig

>  <RI>
224

>  <Rbt.Current_Directory>
/home/afrankz/demos/rdock_decoys_rna/rnas/1y26

>  <Rbt.Executable>
rbdock ($Id: //depot/dev/client3/rdock/2013.1/src/exe/rbdock.cxx#4 $)

>  <Rbt.Library>
libRbt.so (2013.1, Build901 2013/11/27)

>  <Rbt.Parameter_File>
/export/apps/rDock/src/rDock_2013.1_src/data/scripts/dock_solv.prm

>  <Rbt.Receptor>
prm/pocket_docking_6.prm

>  <SCORE>
-26.6741

>  <SCORE.INTER>
-26.6741

>  <SCORE.INTER.CONST>
1

>  <SCORE.INTER.POLAR>
-2.0198

>  <SCORE.INTER.ROT>
0

>  <SCORE.INTER.SOLV>
12.7187

>  <SCORE.INTER.VDW>
-18.8896

>  <SCORE.INTER.norm>
-2.66741

>  <SCORE.INTRA>
0

>  <SCORE.INTRA.DIHEDRAL>
0

>  <SCORE.INTRA.DIHEDRAL.0>
0

>  <SCORE.INTRA.POLAR>
0

>  <SCORE.INTRA.POLAR.0>
0

>  <SCORE.INTRA.REPUL>
0

>  <SCORE.INTRA.REPUL.0>
0

>  <SCORE.INTRA.SOLV>
0

>  <SCORE.INTRA.SOLV.lig_0>
-16.9472

>  <SCORE.INTRA.VDW>
0

>  <SCORE.INTRA.VDW.0>
0

>  <SCORE.INTRA.norm>
0

>  <SCORE.RESTR>
0

>  <SCORE.RESTR.CAVITY>
0

>  <SCORE.RESTR.norm>
0

>  <SCORE.SYSTEM>
0

>  <SCORE.SYSTEM.CONST>
0

>  <SCORE.SYSTEM.DIHEDRAL>
0

>  <SCORE.SYSTEM.SOLV>
0

>  <SCORE.SYSTEM.norm>
0

>  <SCORE.heavy>
10

>  <SCORE.norm>
-2.66741

>  <RMSD>
0.669

$$$$
1y26_lig
 OpenBabel02141814133D
libRbt.so/2013.1/901 2013/11/27
 10 11  0  0  0  0  0  0  0  0999 V2000
   19.5669  -17.0810    2.9785 N   0  0  0  0  0  0  0  0  0  0  0  0
   18.8633  -18.1778    2.6869 C   0  0  0  0  0  0  0  0  0  0  0  0
   18.5302  -19.1846    3.4921 N   0  0  0  0  0  0  0  0  0  0  0  0
   18.9847  -18.9681    4.7470 C   0  0  0  0  0  0  0  0  0  0  0  0
   19.7097  -17.8815    5.1940 C   0  0  0  0  0  0  0  0  0  0  0  0
   20.0070  -16.9024    4.2413 C   0  0  0  0  0  0  0  0  0  0  0  0
   20.7105  -15.8262    4.5545 N   0  0  0  0  0  0  0  0  0  0  0  0
   20.0249  -17.9764    6.5297 N   0  0  0  0  0  0  0  0  0  0  0  0
   19.4550  -19.1135    6.8841 C   0  0  0  0  0  0  0  0  0  0  0  0
   18.8217  -19.7658    5.8482 N   0  0  0  0  0  0  0  0  0  0  0  0
  1  2  2  0  0  0  0
  2  3  1  0  0  0  0
  3  4  2  0  0  0  0
  5  4  1  0  0  0  0
  5  6  2  0  0  0  0
  6  1  1  0  0  0  0
  6  7  1  0  0  0  0
  8  5  1  0  0  0  0
  9  8  1  0  0  0  0
 10  4  1  0  0  0  0
 10  9  2  0  0  0  0
M  END
>  <CHROM.1>
19.46748455,-18.08711234,4.71406933,1.35580290,-1.01126041,-1.12846192

>  <Name>
1y26_lig

>  <RI>
0

>  <Rbt.Current_Directory>
/home/afrankz/demos/rdock_decoys_rna/rnas/1y26

>  <Rbt.Executable>
rbdock ($Id: //depot/dev/client3/rdock/2013.1/src/exe/rbdock.cxx#4 $)

>  <Rbt.Library>
libRbt.so (2013.1, Build901 2013/11/27)

>  <Rbt.Parameter_File>
/export/apps/rDock/src/rDock_2013.1_src/data/scripts/dock_solv.prm

>  <Rbt.Receptor>
prm/blind_docking_40.prm

>  <SCORE>
-26.6256

>  <SCORE.INTER>
-26.6256

>  <SCORE.INTER.CONST>
1

>  <SCORE.INTER.POLAR>
-2.0198

>  <SCORE.INTER.ROT>
0

>  <SCORE.INTER.SOLV>
12.52

>  <SCORE.INTER.VDW>
-18.791

>  <SCORE.INTER.norm>
-2.66256

>  <SCORE.INTRA>
0

>  <SCORE.INTRA.DIHEDRAL>
0

>  <SCORE.INTRA.DIHEDRAL.0>
0

>  <SCORE.INTRA.POLAR>
0

>  <SCORE.INTRA.POLAR.0>
0

>  <SCORE.INTRA.REPUL>
0

>  <SCORE.INTRA.REPUL.0>
0

>  <SCORE.INTRA.SOLV>
0

>  <SCORE.INTRA.SOLV.lig_0>
-16.9472

>  <SCORE.INTRA.VDW>
0

>  <SCORE.INTRA.VDW.0>
0

>  <SCORE.INTRA.norm>
0

>  <SCORE.RESTR>
0

>  <SCORE.RESTR.CAVITY>
0

>  <SCORE.RESTR.norm>
0

>  <SCORE.SYSTEM>
0

>  <SCORE.SYSTEM.CONST>
0

>  <SCORE.SYSTEM.DIHEDRAL>
0

>  <SCORE.SYSTEM.SOLV>
0

>  <SCORE.SYSTEM.norm>
0

>  <SCORE.heavy>
10

>  <SCORE.norm>
-2.66256

>  <RMSD>
0.670

$$$$
1y26_lig
 OpenBabel02141814133D
libRbt.so/2013.1/901 2013/11/27
 10 11  0  0  0  0  0  0  0  0999 V2000
   19.4803  -17.0401    2.9892 N   0  0  0  0  0  0  0  0  0  0  0  0
   18.7965  -18.1521    2.7082 C   0  0  0  0  0  0  0  0  0  0  0  0
   18.4906  -19.1618    3.5206 N   0  0  0  0  0  0  0  0  0  0  0  0
   18.9512  -18.9307    4.7706 C   0  0  0  0  0  0  0  0  0  0  0  0
   19.6579  -17.8277    5.2068 C   0  0  0  0  0  0  0  0  0  0  0  0
   19.9273  -16.8471    4.2474 C   0  0  0  0  0  0  0  0  0  0  0  0
   20.6115  -15.7556    4.5500 N   0  0  0  0  0  0  0  0  0  0  0  0
   19.9861  -17.9103    6.5401 N   0  0  0  0  0  0  0  0  0  0  0  0
   19.4423  -19.0571    6.9042 C   0  0  0  0  0  0  0  0  0  0  0  0
   18.8136  -19.7266    5.8766 N   0  0  0  0  0  0  0  0  0  0  0  0
  1  2  2  0  0  0  0
  2  3  1  0  0  0  0
  3  4  2  0  0  0  0
  5  4  1  0  0  0  0
  5  6  2  0  0  0  0
  6  1  1  0  0  0  0
  6  7  1  0  0  0  0
  8  5  1  0  0  0  0
  9  8  1  0  0  0  0
 10  4  1  0  0  0  0
 10  9  2  0  0  0  0
M  END
>  <CHROM.1>
19.41579433,-18.04029131,4.72977712,1.38715713,-1.02567372,-1.10613056

>  <Name>
1y26_lig

>  <RI>
224

>  <Rbt.Current_Directory>
/home/afrankz/demos/rdock_decoys_rna/rnas/1y26

>  <Rbt.Executable>
rbdock ($Id: //depot/dev/client3/rdock/2013.1/src/exe/rbdock.cxx#4 $)

>  <Rbt.Library>
libRbt.so (2013.1, Build901 2013/11/27)

>  <Rbt.Parameter_File>
/export/apps/rDock/src/rDock_2013.1_src/data/scripts/dock_solv.prm

>  <Rbt.Receptor>
prm/blind_docking_80.prm

>  <SCORE>
-26.6578

>  <SCORE.INTER>
-26.6578

>  <SCORE.INTER.CONST>
1

>  <SCORE.INTER.POLAR>
-2.0198

>  <SCORE.INTER.ROT>
0

>  <SCORE.INTER.SOLV>
12.7241

>  <SCORE.INTER.VDW>
-18.8806

>  <SCORE.INTER.norm>
-2.66578

>  <SCORE.INTRA>
0

>  <SCORE.INTRA.DIHEDRAL>
0

>  <SCORE.INTRA.DIHEDRAL.0>
0

>  <SCORE.INTRA.POLAR>
0

>  <SCORE.INTRA.POLAR.0>
0

>  <SCORE.INTRA.REPUL>
0

>  <SCORE.INTRA.REPUL.0>
0

>  <SCORE.INTRA.SOLV>
0

>  <SCORE.INTRA.SOLV.lig_0>
-16.9472

>  <SCORE.INTRA.VDW>
0

>  <SCORE.INTRA.VDW.0>
0

>  <SCORE.INTRA.norm>
0

>  <SCORE.RESTR>
0

>  <SCORE.RESTR.CAVITY>
0

>  <SCORE.RESTR.norm>
0

>  <SCORE.SYSTEM>
0

>  <SCORE.SYSTEM.CONST>
0

>  <SCORE.SYSTEM.DIHEDRAL>
0

>  <SCORE.SYSTEM.SOLV>
0

>  <SCORE.SYSTEM.norm>
0

>  <SCORE.heavy>
10

>  <SCORE.norm>
-2.66578

>  <RMSD>
0.670

$$$$
1y26_lig
 OpenBabel02141814133D
libRbt.so/2013.1/901 2013/11/27
 10 11  0  0  0  0  0  0  0  0999 V2000
   19.5077  -17.0257    2.9977 N   0  0  0  0  0  0  0  0  0  0  0  0
   18.8010  -18.1205    2.7061 C   0  0  0  0  0  0  0  0  0  0  0  0
   18.4813  -19.1355    3.5064 N   0  0  0  0  0  0  0  0  0  0  0  0
   18.9546  -18.9307    4.7564 C   0  0  0  0  0  0  0  0  0  0  0  0
   19.6850  -17.8475    5.2029 C   0  0  0  0  0  0  0  0  0  0  0  0
   19.9667  -16.8588    4.2554 C   0  0  0  0  0  0  0  0  0  0  0  0
   20.6736  -15.7848    4.5684 N   0  0  0  0  0  0  0  0  0  0  0  0
   20.0205  -17.9550    6.5326 N   0  0  0  0  0  0  0  0  0  0  0  0
   19.4573  -19.0963    6.8846 C   0  0  0  0  0  0  0  0  0  0  0  0
   18.8091  -19.7392    5.8521 N   0  0  0  0  0  0  0  0  0  0  0  0
  1  2  2  0  0  0  0
  2  3  1  0  0  0  0
  3  4  2  0  0  0  0
  5  4  1  0  0  0  0
  5  6  2  0  0  0  0
  6  1  1  0  0  0  0
  6  7  1  0  0  0  0
  8  5  1  0  0  0  0
  9  8  1  0  0  0  0
 10  4  1  0  0  0  0
 10  9  2  0  0  0  0
M  END
>  <CHROM.1>
19.43573508,-18.04876174,4.72468623,1.38228093,-1.00565601,-1.09631839

>  <Name>
1y26_lig

>  <RI>
224

>  <Rbt.Current_Directory>
/home/afrankz/demos/rdock_decoys_rna/rnas/1y26

>  <Rbt.Executable>
rbdock ($Id: //depot/dev/client3/rdock/2013.1/src/exe/rbdock.cxx#4 $)

>  <Rbt.Library>
libRbt.so (2013.1, Build901 2013/11/27)

>  <Rbt.Parameter_File>
/export/apps/rDock/src/rDock_2013.1_src/data/scripts/dock_solv.prm

>  <Rbt.Receptor>
prm/pocket_docking_3.prm

>  <SCORE>
-26.6601

>  <SCORE.INTER>
-26.6601

>  <SCORE.INTER.CONST>
1

>  <SCORE.INTER.POLAR>
-2.0198

>  <SCORE.INTER.ROT>
0

>  <SCORE.INTER.SOLV>
12.6553

>  <SCORE.INTER.VDW>
-18.8591

>  <SCORE.INTER.norm>
-2.66601

>  <SCORE.INTRA>
0

>  <SCORE.INTRA.DIHEDRAL>
0

>  <SCORE.INTRA.DIHEDRAL.0>
0

>  <SCORE.INTRA.POLAR>
0

>  <SCORE.INTRA.POLAR.0>
0

>  <SCORE.INTRA.REPUL>
0

>  <SCORE.INTRA.REPUL.0>
0

>  <SCORE.INTRA.SOLV>
0

>  <SCORE.INTRA.SOLV.lig_0>
-16.9472

>  <SCORE.INTRA.VDW>
0

>  <SCORE.INTRA.VDW.0>
0

>  <SCORE.INTRA.norm>
0

>  <SCORE.RESTR>
0

>  <SCORE.RESTR.CAVITY>
0

>  <SCORE.RESTR.norm>
0

>  <SCORE.SYSTEM>
0

>  <SCORE.SYSTEM.CONST>
0

>  <SCORE.SYSTEM.DIHEDRAL>
0

>  <SCORE.SYSTEM.SOLV>
0

>  <SCORE.SYSTEM.norm>
0

>  <SCORE.heavy>
10

>  <SCORE.norm>
-2.66601

>  <RMSD>
0.670

$$$$
1y26_lig
 OpenBabel02141814133D
libRbt.so/2013.1/901 2013/11/27
 10 11  0  0  0  0  0  0  0  0999 V2000
   19.4607  -17.0513    2.9930 N   0  0  0  0  0  0  0  0  0  0  0  0
   18.7601  -18.1540    2.7167 C   0  0  0  0  0  0  0  0  0  0  0  0
   18.4532  -19.1635    3.5289 N   0  0  0  0  0  0  0  0  0  0  0  0
   18.9333  -18.9433    4.7735 C   0  0  0  0  0  0  0  0  0  0  0  0
   19.6589  -17.8506    5.2047 C   0  0  0  0  0  0  0  0  0  0  0  0
   19.9270  -16.8691    4.2458 C   0  0  0  0  0  0  0  0  0  0  0  0
   20.6281  -15.7871    4.5437 N   0  0  0  0  0  0  0  0  0  0  0  0
   20.0041  -17.9429    6.5331 N   0  0  0  0  0  0  0  0  0  0  0  0
   19.4516  -19.0847    6.8997 C   0  0  0  0  0  0  0  0  0  0  0  0
   18.8012  -19.7422    5.8779 N   0  0  0  0  0  0  0  0  0  0  0  0
  1  2  2  0  0  0  0
  2  3  1  0  0  0  0
  3  4  2  0  0  0  0
  5  4  1  0  0  0  0
  5  6  2  0  0  0  0
  6  1  1  0  0  0  0
  6  7  1  0  0  0  0
  8  5  1  0  0  0  0
  9  8  1  0  0  0  0
 10  4  1  0  0  0  0
 10  9  2  0  0  0  0
M  END
>  <CHROM.1>
19.40785752,-18.05825121,4.73011283,1.39976861,-1.00896238,-1.09114640

>  <Name>
1y26_lig

>  <RI>
0

>  <Rbt.Current_Directory>
/home/afrankz/demos/rdock_decoys_rna/rnas/1y26

>  <Rbt.Executable>
rbdock ($Id: //depot/dev/client3/rdock/2013.1/src/exe/rbdock.cxx#4 $)

>  <Rbt.Library>
libRbt.so (2013.1, Build901 2013/11/27)

>  <Rbt.Parameter_File>
/export/apps/rDock/src/rDock_2013.1_src/data/scripts/dock_solv.prm

>  <Rbt.Receptor>
prm/pocket_docking_5.prm

>  <SCORE>
-26.6854

>  <SCORE.INTER>
-26.6854

>  <SCORE.INTER.CONST>
1

>  <SCORE.INTER.POLAR>
-2.0198

>  <SCORE.INTER.ROT>
0

>  <SCORE.INTER.SOLV>
12.7159

>  <SCORE.INTER.VDW>
-18.8962

>  <SCORE.INTER.norm>
-2.66854

>  <SCORE.INTRA>
0

>  <SCORE.INTRA.DIHEDRAL>
0

>  <SCORE.INTRA.DIHEDRAL.0>
0

>  <SCORE.INTRA.POLAR>
0

>  <SCORE.INTRA.POLAR.0>
0

>  <SCORE.INTRA.REPUL>
0

>  <SCORE.INTRA.REPUL.0>
0

>  <SCORE.INTRA.SOLV>
0

>  <SCORE.INTRA.SOLV.lig_0>
-16.9472

>  <SCORE.INTRA.VDW>
0

>  <SCORE.INTRA.VDW.0>
0

>  <SCORE.INTRA.norm>
0

>  <SCORE.RESTR>
0

>  <SCORE.RESTR.CAVITY>
0

>  <SCORE.RESTR.norm>
0

>  <SCORE.SYSTEM>
0

>  <SCORE.SYSTEM.CONST>
0

>  <SCORE.SYSTEM.DIHEDRAL>
0

>  <SCORE.SYSTEM.SOLV>
0

>  <SCORE.SYSTEM.norm>
0

>  <SCORE.heavy>
10

>  <SCORE.norm>
-2.66854

>  <RMSD>
0.670

$$$$
1y26_lig
 OpenBabel02141814133D
libRbt.so/2013.1/901 2013/11/27
 10 11  0  0  0  0  0  0  0  0999 V2000
   19.4436  -17.0385    2.9976 N   0  0  0  0  0  0  0  0  0  0  0  0
   18.7526  -18.1443    2.7100 C   0  0  0  0  0  0  0  0  0  0  0  0
   18.4487  -19.1615    3.5137 N   0  0  0  0  0  0  0  0  0  0  0  0
   18.9202  -18.9461    4.7625 C   0  0  0  0  0  0  0  0  0  0  0  0
   19.6353  -17.8510    5.2050 C   0  0  0  0  0  0  0  0  0  0  0  0
   19.9015  -16.8612    4.2542 C   0  0  0  0  0  0  0  0  0  0  0  0
   20.5930  -15.7761    4.5632 N   0  0  0  0  0  0  0  0  0  0  0  0
   19.9738  -17.9496    6.5347 N   0  0  0  0  0  0  0  0  0  0  0  0
   19.4277  -19.0979    6.8906 C   0  0  0  0  0  0  0  0  0  0  0  0
   18.7878  -19.7533    5.8608 N   0  0  0  0  0  0  0  0  0  0  0  0
  1  2  2  0  0  0  0
  2  3  1  0  0  0  0
  3  4  2  0  0  0  0
  5  4  1  0  0  0  0
  5  6  2  0  0  0  0
  6  1  1  0  0  0  0
  6  7  1  0  0  0  0
  8  5  1  0  0  0  0
  9  8  1  0  0  0  0
 10  4  1  0  0  0  0
 10  9  2  0  0  0  0
M  END
>  <CHROM.1>
19.38846503,-18.05729732,4.72765312,1.39683798,-1.01805985,-1.08697445

>  <Name>
1y26_lig

>  <RI>
224

>  <Rbt.Current_Directory>
/home/afrankz/demos/rdock_decoys_rna/rnas/1y26

>  <Rbt.Executable>
rbdock ($Id: //depot/dev/client3/rdock/2013.1/src/exe/rbdock.cxx#4 $)

>  <Rbt.Library>
libRbt.so (2013.1, Build901 2013/11/27)

>  <Rbt.Parameter_File>
/export/apps/rDock/src/rDock_2013.1_src/data/scripts/dock_solv.prm

>  <Rbt.Receptor>
prm/pocket_docking_7.prm

>  <SCORE>
-26.6591

>  <SCORE.INTER>
-26.6591

>  <SCORE.INTER.CONST>
1

>  <SCORE.INTER.POLAR>
-2.0198

>  <SCORE.INTER.ROT>
0

>  <SCORE.INTER.SOLV>
12.7932

>  <SCORE.INTER.VDW>
-18.9045

>  <SCORE.INTER.norm>
-2.66591

>  <SCORE.INTRA>
0

>  <SCORE.INTRA.DIHEDRAL>
0

>  <SCORE.INTRA.DIHEDRAL.0>
0

>  <SCORE.INTRA.POLAR>
0

>  <SCORE.INTRA.POLAR.0>
0

>  <SCORE.INTRA.REPUL>
0

>  <SCORE.INTRA.REPUL.0>
0

>  <SCORE.INTRA.SOLV>
0

>  <SCORE.INTRA.SOLV.lig_0>
-16.9472

>  <SCORE.INTRA.VDW>
0

>  <SCORE.INTRA.VDW.0>
0

>  <SCORE.INTRA.norm>
0

>  <SCORE.RESTR>
0

>  <SCORE.RESTR.CAVITY>
0

>  <SCORE.RESTR.norm>
0

>  <SCORE.SYSTEM>
0

>  <SCORE.SYSTEM.CONST>
0

>  <SCORE.SYSTEM.DIHEDRAL>
0

>  <SCORE.SYSTEM.SOLV>
0

>  <SCORE.SYSTEM.norm>
0

>  <SCORE.heavy>
10

>  <SCORE.norm>
-2.66591

>  <RMSD>
0.670

$$$$
1y26_lig
 OpenBabel02141814133D
libRbt.so/2013.1/901 2013/11/27
 10 11  0  0  0  0  0  0  0  0999 V2000
   19.5031  -17.0329    2.9966 N   0  0  0  0  0  0  0  0  0  0  0  0
   18.8060  -18.1333    2.7029 C   0  0  0  0  0  0  0  0  0  0  0  0
   18.4891  -19.1492    3.5031 N   0  0  0  0  0  0  0  0  0  0  0  0
   18.9537  -18.9388    4.7554 C   0  0  0  0  0  0  0  0  0  0  0  0
   19.6737  -17.8496    5.2042 C   0  0  0  0  0  0  0  0  0  0  0  0
   19.9537  -16.8606    4.2566 C   0  0  0  0  0  0  0  0  0  0  0  0
   20.6510  -15.7810    4.5717 N   0  0  0  0  0  0  0  0  0  0  0  0
   20.0023  -17.9524    6.5360 N   0  0  0  0  0  0  0  0  0  0  0  0
   19.4454  -19.0971    6.8867 C   0  0  0  0  0  0  0  0  0  0  0  0
   18.8078  -19.7465    5.8517 N   0  0  0  0  0  0  0  0  0  0  0  0
  1  2  2  0  0  0  0
  2  3  1  0  0  0  0
  3  4  2  0  0  0  0
  5  4  1  0  0  0  0
  5  6  2  0  0  0  0
  6  1  1  0  0  0  0
  6  7  1  0  0  0  0
  8  5  1  0  0  0  0
  9  8  1  0  0  0  0
 10  4  1  0  0  0  0
 10  9  2  0  0  0  0
M  END
>  <CHROM.1>
19.42865956,-18.05350004,4.72489833,1.37886451,-1.01467646,-1.10094579

>  <Name>
1y26_lig

>  <RI>
0

>  <Rbt.Current_Directory>
/home/afrankz/demos/rdock_decoys_rna/rnas/1y26

>  <Rbt.Executable>
rbdock ($Id: //depot/dev/client3/rdock/2013.1/src/exe/rbdock.cxx#4 $)

>  <Rbt.Library>
libRbt.so (2013.1, Build901 2013/11/27)

>  <Rbt.Parameter_File>
/export/apps/rDock/src/rDock_2013.1_src/data/scripts/dock_solv.prm

>  <Rbt.Receptor>
prm/pocket_docking_8.prm

>  <SCORE>
-26.6768

>  <SCORE.INTER>
-26.6768

>  <SCORE.INTER.CONST>
1

>  <SCORE.INTER.POLAR>
-2.0198

>  <SCORE.INTER.ROT>
0

>  <SCORE.INTER.SOLV>
12.6837

>  <SCORE.INTER.VDW>
-18.8798

>  <SCORE.INTER.norm>
-2.66768

>  <SCORE.INTRA>
0

>  <SCORE.INTRA.DIHEDRAL>
0

>  <SCORE.INTRA.DIHEDRAL.0>
0

>  <SCORE.INTRA.POLAR>
0

>  <SCORE.INTRA.POLAR.0>
0

>  <SCORE.INTRA.REPUL>
0

>  <SCORE.INTRA.REPUL.0>
0

>  <SCORE.INTRA.SOLV>
0

>  <SCORE.INTRA.SOLV.lig_0>
-16.9472

>  <SCORE.INTRA.VDW>
0

>  <SCORE.INTRA.VDW.0>
0

>  <SCORE.INTRA.norm>
0

>  <SCORE.RESTR>
0

>  <SCORE.RESTR.CAVITY>
0

>  <SCORE.RESTR.norm>
0

>  <SCORE.SYSTEM>
0

>  <SCORE.SYSTEM.CONST>
0

>  <SCORE.SYSTEM.DIHEDRAL>
0

>  <SCORE.SYSTEM.SOLV>
0

>  <SCORE.SYSTEM.norm>
0

>  <SCORE.heavy>
10

>  <SCORE.norm>
-2.66768

>  <RMSD>
0.671

$$$$
1y26_lig
 OpenBabel02141814133D
libRbt.so/2013.1/901 2013/11/27
 10 11  0  0  0  0  0  0  0  0999 V2000
   19.5051  -17.0338    2.9953 N   0  0  0  0  0  0  0  0  0  0  0  0
   18.8102  -18.1364    2.7045 C   0  0  0  0  0  0  0  0  0  0  0  0
   18.4960  -19.1511    3.5073 N   0  0  0  0  0  0  0  0  0  0  0  0
   18.9608  -18.9368    4.7588 C   0  0  0  0  0  0  0  0  0  0  0  0
   19.6786  -17.8450    5.2047 C   0  0  0  0  0  0  0  0  0  0  0  0
   19.9559  -16.8576    4.2547 C   0  0  0  0  0  0  0  0  0  0  0  0
   20.6510  -15.7757    4.5669 N   0  0  0  0  0  0  0  0  0  0  0  0
   20.0082  -17.9440    6.5366 N   0  0  0  0  0  0  0  0  0  0  0  0
   19.4540  -19.0891    6.8902 C   0  0  0  0  0  0  0  0  0  0  0  0
   18.8173  -19.7423    5.8570 N   0  0  0  0  0  0  0  0  0  0  0  0
  1  2  2  0  0  0  0
  2  3  1  0  0  0  0
  3  4  2  0  0  0  0
  5  4  1  0  0  0  0
  5  6  2  0  0  0  0
  6  1  1  0  0  0  0
  6  7  1  0  0  0  0
  8  5  1  0  0  0  0
  9  8  1  0  0  0  0
 10  4  1  0  0  0  0
 10  9  2  0  0  0  0
M  END
>  <CHROM.1>
19.43378276,-18.05054447,4.72603538,1.38168591,-1.01639635,-1.10086136

>  <Name>
1y26_lig

>  <RI>
224

>  <Rbt.Current_Directory>
/home/afrankz/demos/rdock_decoys_rna/rnas/1y26

>  <Rbt.Executable>
rbdock ($Id: //depot/dev/client3/rdock/2013.1/src/exe/rbdock.cxx#4 $)

>  <Rbt.Library>
libRbt.so (2013.1, Build901 2013/11/27)

>  <Rbt.Parameter_File>
/export/apps/rDock/src/rDock_2013.1_src/data/scripts/dock_solv.prm

>  <Rbt.Receptor>
prm/pocket_docking_3.prm

>  <SCORE>
-26.6708

>  <SCORE.INTER>
-26.6708

>  <SCORE.INTER.CONST>
1

>  <SCORE.INTER.POLAR>
-2.0198

>  <SCORE.INTER.ROT>
0

>  <SCORE.INTER.SOLV>
12.6792

>  <SCORE.INTER.VDW>
-18.8743

>  <SCORE.INTER.norm>
-2.66708

>  <SCORE.INTRA>
0

>  <SCORE.INTRA.DIHEDRAL>
0

>  <SCORE.INTRA.DIHEDRAL.0>
0

>  <SCORE.INTRA.POLAR>
0

>  <SCORE.INTRA.POLAR.0>
0

>  <SCORE.INTRA.REPUL>
0

>  <SCORE.INTRA.REPUL.0>
0

>  <SCORE.INTRA.SOLV>
0

>  <SCORE.INTRA.SOLV.lig_0>
-16.9472

>  <SCORE.INTRA.VDW>
0

>  <SCORE.INTRA.VDW.0>
0

>  <SCORE.INTRA.norm>
0

>  <SCORE.RESTR>
0

>  <SCORE.RESTR.CAVITY>
0

>  <SCORE.RESTR.norm>
0

>  <SCORE.SYSTEM>
0

>  <SCORE.SYSTEM.CONST>
0

>  <SCORE.SYSTEM.DIHEDRAL>
0

>  <SCORE.SYSTEM.SOLV>
0

>  <SCORE.SYSTEM.norm>
0

>  <SCORE.heavy>
10

>  <SCORE.norm>
-2.66708

>  <RMSD>
0.672

$$$$
1y26_lig
 OpenBabel02141814133D
libRbt.so/2013.1/901 2013/11/27
 10 11  0  0  0  0  0  0  0  0999 V2000
   19.5815  -17.0470    2.9902 N   0  0  0  0  0  0  0  0  0  0  0  0
   18.8746  -18.1392    2.6892 C   0  0  0  0  0  0  0  0  0  0  0  0
   18.5237  -19.1435    3.4900 N   0  0  0  0  0  0  0  0  0  0  0  0
   18.9623  -18.9296    4.7510 C   0  0  0  0  0  0  0  0  0  0  0  0
   19.6883  -17.8476    5.2077 C   0  0  0  0  0  0  0  0  0  0  0  0
   20.0053  -16.8710    4.2589 C   0  0  0  0  0  0  0  0  0  0  0  0
   20.7115  -15.7994    4.5815 N   0  0  0  0  0  0  0  0  0  0  0  0
   19.9843  -17.9441    6.5476 N   0  0  0  0  0  0  0  0  0  0  0  0
   19.4020  -19.0773    6.8945 C   0  0  0  0  0  0  0  0  0  0  0  0
   18.7787  -19.7257    5.8501 N   0  0  0  0  0  0  0  0  0  0  0  0
  1  2  2  0  0  0  0
  2  3  1  0  0  0  0
  3  4  2  0  0  0  0
  5  4  1  0  0  0  0
  5  6  2  0  0  0  0
  6  1  1  0  0  0  0
  6  7  1  0  0  0  0
  8  5  1  0  0  0  0
  9  8  1  0  0  0  0
 10  4  1  0  0  0  0
 10  9  2  0  0  0  0
M  END
>  <CHROM.1>
19.45132678,-18.05181742,4.72449328,1.32687296,-1.01092379,-1.15331800

>  <Name>
1y26_lig

>  <RI>
224

>  <Rbt.Current_Directory>
/home/afrankz/demos/rdock_decoys_rna/rnas/1y26

>  <Rbt.Executable>
rbdock ($Id: //depot/dev/client3/rdock/2013.1/src/exe/rbdock.cxx#4 $)

>  <Rbt.Library>
libRbt.so (2013.1, Build901 2013/11/27)

>  <Rbt.Parameter_File>
/export/apps/rDock/src/rDock_2013.1_src/data/scripts/dock_solv.prm

>  <Rbt.Receptor>
prm/pocket_docking_3.prm

>  <SCORE>
-26.6466

>  <SCORE.INTER>
-26.6466

>  <SCORE.INTER.CONST>
1

>  <SCORE.INTER.POLAR>
-2.0198

>  <SCORE.INTER.ROT>
0

>  <SCORE.INTER.SOLV>
12.5125

>  <SCORE.INTER.VDW>
-18.8026

>  <SCORE.INTER.norm>
-2.66466

>  <SCORE.INTRA>
0

>  <SCORE.INTRA.DIHEDRAL>
0

>  <SCORE.INTRA.DIHEDRAL.0>
0

>  <SCORE.INTRA.POLAR>
0

>  <SCORE.INTRA.POLAR.0>
0

>  <SCORE.INTRA.REPUL>
0

>  <SCORE.INTRA.REPUL.0>
0

>  <SCORE.INTRA.SOLV>
0

>  <SCORE.INTRA.SOLV.lig_0>
-16.9472

>  <SCORE.INTRA.VDW>
0

>  <SCORE.INTRA.VDW.0>
0

>  <SCORE.INTRA.norm>
0

>  <SCORE.RESTR>
0

>  <SCORE.RESTR.CAVITY>
0

>  <SCORE.RESTR.norm>
0

>  <SCORE.SYSTEM>
0

>  <SCORE.SYSTEM.CONST>
0

>  <SCORE.SYSTEM.DIHEDRAL>
0

>  <SCORE.SYSTEM.SOLV>
0

>  <SCORE.SYSTEM.norm>
0

>  <SCORE.heavy>
10

>  <SCORE.norm>
-2.66466

>  <RMSD>
0.672

$$$$
1y26_lig
 OpenBabel02141814133D
libRbt.so/2013.1/901 2013/11/27
 10 11  0  0  0  0  0  0  0  0999 V2000
   19.4665  -17.0543    2.9948 N   0  0  0  0  0  0  0  0  0  0  0  0
   18.7682  -18.1574    2.7142 C   0  0  0  0  0  0  0  0  0  0  0  0
   18.4572  -19.1672    3.5244 N   0  0  0  0  0  0  0  0  0  0  0  0
   18.9298  -18.9469    4.7719 C   0  0  0  0  0  0  0  0  0  0  0  0
   19.6521  -17.8537    5.2075 C   0  0  0  0  0  0  0  0  0  0  0  0
   19.9253  -16.8720    4.2504 C   0  0  0  0  0  0  0  0  0  0  0  0
   20.6239  -15.7896    4.5525 N   0  0  0  0  0  0  0  0  0  0  0  0
   19.9896  -17.9460    6.5379 N   0  0  0  0  0  0  0  0  0  0  0  0
   19.4357  -19.0883    6.9011 C   0  0  0  0  0  0  0  0  0  0  0  0
   18.7917  -19.7460    5.8754 N   0  0  0  0  0  0  0  0  0  0  0  0
  1  2  2  0  0  0  0
  2  3  1  0  0  0  0
  3  4  2  0  0  0  0
  5  4  1  0  0  0  0
  5  6  2  0  0  0  0
  6  1  1  0  0  0  0
  6  7  1  0  0  0  0
  8  5  1  0  0  0  0
  9  8  1  0  0  0  0
 10  4  1  0  0  0  0
 10  9  2  0  0  0  0
M  END
>  <CHROM.1>
19.40404885,-18.06151096,4.73140744,1.39046577,-1.01222750,-1.09888599

>  <Name>
1y26_lig

>  <RI>
224

>  <Rbt.Current_Directory>
/home/afrankz/demos/rdock_decoys_rna/rnas/1y26

>  <Rbt.Executable>
rbdock ($Id: //depot/dev/client3/rdock/2013.1/src/exe/rbdock.cxx#4 $)

>  <Rbt.Library>
libRbt.so (2013.1, Build901 2013/11/27)

>  <Rbt.Parameter_File>
/export/apps/rDock/src/rDock_2013.1_src/data/scripts/dock_solv.prm

>  <Rbt.Receptor>
prm/pocket_docking_6.prm

>  <SCORE>
-26.6886

>  <SCORE.INTER>
-26.6886

>  <SCORE.INTER.CONST>
1

>  <SCORE.INTER.POLAR>
-2.0198

>  <SCORE.INTER.ROT>
0

>  <SCORE.INTER.SOLV>
12.7158

>  <SCORE.INTER.VDW>
-18.8983

>  <SCORE.INTER.norm>
-2.66886

>  <SCORE.INTRA>
0

>  <SCORE.INTRA.DIHEDRAL>
0

>  <SCORE.INTRA.DIHEDRAL.0>
0

>  <SCORE.INTRA.POLAR>
0

>  <SCORE.INTRA.POLAR.0>
0

>  <SCORE.INTRA.REPUL>
0

>  <SCORE.INTRA.REPUL.0>
0

>  <SCORE.INTRA.SOLV>
0

>  <SCORE.INTRA.SOLV.lig_0>
-16.9472

>  <SCORE.INTRA.VDW>
0

>  <SCORE.INTRA.VDW.0>
0

>  <SCORE.INTRA.norm>
0

>  <SCORE.RESTR>
0

>  <SCORE.RESTR.CAVITY>
0

>  <SCORE.RESTR.norm>
0

>  <SCORE.SYSTEM>
0

>  <SCORE.SYSTEM.CONST>
0

>  <SCORE.SYSTEM.DIHEDRAL>
0

>  <SCORE.SYSTEM.SOLV>
0

>  <SCORE.SYSTEM.norm>
0

>  <SCORE.heavy>
10

>  <SCORE.norm>
-2.66886

>  <RMSD>
0.672

$$$$
1y26_lig
 OpenBabel02141814133D
libRbt.so/2013.1/901 2013/11/27
 10 11  0  0  0  0  0  0  0  0999 V2000
   19.5019  -17.0366    2.9978 N   0  0  0  0  0  0  0  0  0  0  0  0
   18.8060  -18.1379    2.7043 C   0  0  0  0  0  0  0  0  0  0  0  0
   18.4896  -19.1536    3.5050 N   0  0  0  0  0  0  0  0  0  0  0  0
   18.9532  -18.9421    4.7574 C   0  0  0  0  0  0  0  0  0  0  0  0
   19.6718  -17.8518    5.2060 C   0  0  0  0  0  0  0  0  0  0  0  0
   19.9514  -16.8631    4.2580 C   0  0  0  0  0  0  0  0  0  0  0  0
   20.6474  -15.7826    4.5729 N   0  0  0  0  0  0  0  0  0  0  0  0
   19.9997  -17.9535    6.5381 N   0  0  0  0  0  0  0  0  0  0  0  0
   19.4437  -19.0986    6.8891 C   0  0  0  0  0  0  0  0  0  0  0  0
   18.8074  -19.7492    5.8541 N   0  0  0  0  0  0  0  0  0  0  0  0
  1  2  2  0  0  0  0
  2  3  1  0  0  0  0
  3  4  2  0  0  0  0
  5  4  1  0  0  0  0
  5  6  2  0  0  0  0
  6  1  1  0  0  0  0
  6  7  1  0  0  0  0
  8  5  1  0  0  0  0
  9  8  1  0  0  0  0
 10  4  1  0  0  0  0
 10  9  2  0  0  0  0
M  END
>  <CHROM.1>
19.42729089,-18.05626881,4.72669705,1.37864882,-1.01586868,-1.10173615

>  <Name>
1y26_lig

>  <RI>
0

>  <Rbt.Current_Directory>
/home/afrankz/demos/rdock_decoys_rna/rnas/1y26

>  <Rbt.Executable>
rbdock ($Id: //depot/dev/client3/rdock/2013.1/src/exe/rbdock.cxx#4 $)

>  <Rbt.Library>
libRbt.so (2013.1, Build901 2013/11/27)

>  <Rbt.Parameter_File>
/export/apps/rDock/src/rDock_2013.1_src/data/scripts/dock_solv.prm

>  <Rbt.Receptor>
prm/blind_docking_100.prm

>  <SCORE>
-26.6775

>  <SCORE.INTER>
-26.6775

>  <SCORE.INTER.CONST>
1

>  <SCORE.INTER.POLAR>
-2.0198

>  <SCORE.INTER.ROT>
0

>  <SCORE.INTER.SOLV>
12.6869

>  <SCORE.INTER.VDW>
-18.8813

>  <SCORE.INTER.norm>
-2.66775

>  <SCORE.INTRA>
0

>  <SCORE.INTRA.DIHEDRAL>
0

>  <SCORE.INTRA.DIHEDRAL.0>
0

>  <SCORE.INTRA.POLAR>
0

>  <SCORE.INTRA.POLAR.0>
0

>  <SCORE.INTRA.REPUL>
0

>  <SCORE.INTRA.REPUL.0>
0

>  <SCORE.INTRA.SOLV>
0

>  <SCORE.INTRA.SOLV.lig_0>
-16.9472

>  <SCORE.INTRA.VDW>
0

>  <SCORE.INTRA.VDW.0>
0

>  <SCORE.INTRA.norm>
0

>  <SCORE.RESTR>
0

>  <SCORE.RESTR.CAVITY>
0

>  <SCORE.RESTR.norm>
0

>  <SCORE.SYSTEM>
0

>  <SCORE.SYSTEM.CONST>
0

>  <SCORE.SYSTEM.DIHEDRAL>
0

>  <SCORE.SYSTEM.SOLV>
0

>  <SCORE.SYSTEM.norm>
0

>  <SCORE.heavy>
10

>  <SCORE.norm>
-2.66775

>  <RMSD>
0.673

$$$$
1y26_lig
 OpenBabel02141814133D
libRbt.so/2013.1/901 2013/11/27
 10 11  0  0  0  0  0  0  0  0999 V2000
   19.6095  -17.0338    2.9898 N   0  0  0  0  0  0  0  0  0  0  0  0
   18.9187  -18.1322    2.6744 C   0  0  0  0  0  0  0  0  0  0  0  0
   18.5711  -19.1455    3.4650 N   0  0  0  0  0  0  0  0  0  0  0  0
   18.9936  -18.9347    4.7320 C   0  0  0  0  0  0  0  0  0  0  0  0
   19.7020  -17.8472    5.2033 C   0  0  0  0  0  0  0  0  0  0  0  0
   20.0176  -16.8609    4.2641 C   0  0  0  0  0  0  0  0  0  0  0  0
   20.7077  -15.7832    4.6010 N   0  0  0  0  0  0  0  0  0  0  0  0
   19.9848  -17.9489    6.5456 N   0  0  0  0  0  0  0  0  0  0  0  0
   19.4121  -19.0910    6.8791 C   0  0  0  0  0  0  0  0  0  0  0  0
   18.8077  -19.7399    5.8240 N   0  0  0  0  0  0  0  0  0  0  0  0
  1  2  2  0  0  0  0
  2  3  1  0  0  0  0
  3  4  2  0  0  0  0
  5  4  1  0  0  0  0
  5  6  2  0  0  0  0
  6  1  1  0  0  0  0
  6  7  1  0  0  0  0
  8  5  1  0  0  0  0
  9  8  1  0  0  0  0
 10  4  1  0  0  0  0
 10  9  2  0  0  0  0
M  END
>  <CHROM.1>
19.47259627,-18.05109140,4.71625093,1.31720699,-1.02597600,-1.15518843

>  <Name>
1y26_lig

>  <RI>
0

>  <Rbt.Current_Directory>
/home/afrankz/demos/rdock_decoys_rna/rnas/1y26

>  <Rbt.Executable>
rbdock ($Id: //depot/dev/client3/rdock/2013.1/src/exe/rbdock.cxx#4 $)

>  <Rbt.Library>
libRbt.so (2013.1, Build901 2013/11/27)

>  <Rbt.Parameter_File>
/export/apps/rDock/src/rDock_2013.1_src/data/scripts/dock_solv.prm

>  <Rbt.Receptor>
prm/blind_docking_40.prm

>  <SCORE>
-26.6105

>  <SCORE.INTER>
-26.6105

>  <SCORE.INTER.CONST>
1

>  <SCORE.INTER.POLAR>
-2.0198

>  <SCORE.INTER.ROT>
0

>  <SCORE.INTER.SOLV>
12.5206

>  <SCORE.INTER.VDW>
-18.7812

>  <SCORE.INTER.norm>
-2.66105

>  <SCORE.INTRA>
0

>  <SCORE.INTRA.DIHEDRAL>
0

>  <SCORE.INTRA.DIHEDRAL.0>
0

>  <SCORE.INTRA.POLAR>
0

>  <SCORE.INTRA.POLAR.0>
0

>  <SCORE.INTRA.REPUL>
0

>  <SCORE.INTRA.REPUL.0>
0

>  <SCORE.INTRA.SOLV>
0

>  <SCORE.INTRA.SOLV.lig_0>
-16.9472

>  <SCORE.INTRA.VDW>
0

>  <SCORE.INTRA.VDW.0>
0

>  <SCORE.INTRA.norm>
0

>  <SCORE.RESTR>
0

>  <SCORE.RESTR.CAVITY>
0

>  <SCORE.RESTR.norm>
0

>  <SCORE.SYSTEM>
0

>  <SCORE.SYSTEM.CONST>
0

>  <SCORE.SYSTEM.DIHEDRAL>
0

>  <SCORE.SYSTEM.SOLV>
0

>  <SCORE.SYSTEM.norm>
0

>  <SCORE.heavy>
10

>  <SCORE.norm>
-2.66105

>  <RMSD>
0.674

$$$$
1y26_lig
 OpenBabel02141814133D
libRbt.so/2013.1/901 2013/11/27
 10 11  0  0  0  0  0  0  0  0999 V2000
   19.4567  -17.0335    2.9993 N   0  0  0  0  0  0  0  0  0  0  0  0
   18.7692  -18.1420    2.7132 C   0  0  0  0  0  0  0  0  0  0  0  0
   18.4743  -19.1622    3.5165 N   0  0  0  0  0  0  0  0  0  0  0  0
   18.9516  -18.9471    4.7632 C   0  0  0  0  0  0  0  0  0  0  0  0
   19.6639  -17.8496    5.2040 C   0  0  0  0  0  0  0  0  0  0  0  0
   19.9205  -16.8567    4.2538 C   0  0  0  0  0  0  0  0  0  0  0  0
   20.6086  -15.7690    4.5613 N   0  0  0  0  0  0  0  0  0  0  0  0
   20.0100  -17.9493    6.5316 N   0  0  0  0  0  0  0  0  0  0  0  0
   19.4712  -19.1008    6.8882 C   0  0  0  0  0  0  0  0  0  0  0  0
   18.8288  -19.7571    5.8605 N   0  0  0  0  0  0  0  0  0  0  0  0
  1  2  2  0  0  0  0
  2  3  1  0  0  0  0
  3  4  2  0  0  0  0
  5  4  1  0  0  0  0
  5  6  2  0  0  0  0
  6  1  1  0  0  0  0
  6  7  1  0  0  0  0
  8  5  1  0  0  0  0
  9  8  1  0  0  0  0
 10  4  1  0  0  0  0
 10  9  2  0  0  0  0
M  END
>  <CHROM.1>
19.41551133,-18.05609088,4.72759395,1.41002052,-1.01960457,-1.07373121

>  <Name>
1y26_lig

>  <RI>
0

>  <Rbt.Current_Directory>
/home/afrankz/demos/rdock_decoys_rna/rnas/1y26

>  <Rbt.Executable>
rbdock ($Id: //depot/dev/client3/rdock/2013.1/src/exe/rbdock.cxx#4 $)

>  <Rbt.Library>
libRbt.so (2013.1, Build901 2013/11/27)

>  <Rbt.Parameter_File>
/export/apps/rDock/src/rDock_2013.1_src/data/scripts/dock_solv.prm

>  <Rbt.Receptor>
prm/pocket_docking_5.prm

>  <SCORE>
-26.6443

>  <SCORE.INTER>
-26.6443

>  <SCORE.INTER.CONST>
1

>  <SCORE.INTER.POLAR>
-2.0198

>  <SCORE.INTER.ROT>
0

>  <SCORE.INTER.SOLV>
12.7794

>  <SCORE.INTER.VDW>
-18.89

>  <SCORE.INTER.norm>
-2.66443

>  <SCORE.INTRA>
0

>  <SCORE.INTRA.DIHEDRAL>
0

>  <SCORE.INTRA.DIHEDRAL.0>
0

>  <SCORE.INTRA.POLAR>
0

>  <SCORE.INTRA.POLAR.0>
0

>  <SCORE.INTRA.REPUL>
0

>  <SCORE.INTRA.REPUL.0>
0

>  <SCORE.INTRA.SOLV>
0

>  <SCORE.INTRA.SOLV.lig_0>
-16.9472

>  <SCORE.INTRA.VDW>
0

>  <SCORE.INTRA.VDW.0>
0

>  <SCORE.INTRA.norm>
0

>  <SCORE.RESTR>
0

>  <SCORE.RESTR.CAVITY>
0

>  <SCORE.RESTR.norm>
0

>  <SCORE.SYSTEM>
0

>  <SCORE.SYSTEM.CONST>
0

>  <SCORE.SYSTEM.DIHEDRAL>
0

>  <SCORE.SYSTEM.SOLV>
0

>  <SCORE.SYSTEM.norm>
0

>  <SCORE.heavy>
10

>  <SCORE.norm>
-2.66443

>  <RMSD>
0.674

$$$$
1y26_lig
 OpenBabel02141814133D
libRbt.so/2013.1/901 2013/11/27
 10 11  0  0  0  0  0  0  0  0999 V2000
   19.5018  -17.0433    2.9975 N   0  0  0  0  0  0  0  0  0  0  0  0
   18.8038  -18.1439    2.7068 C   0  0  0  0  0  0  0  0  0  0  0  0
   18.4855  -19.1571    3.5099 N   0  0  0  0  0  0  0  0  0  0  0  0
   18.9497  -18.9434    4.7618 C   0  0  0  0  0  0  0  0  0  0  0  0
   19.6705  -17.8534    5.2076 C   0  0  0  0  0  0  0  0  0  0  0  0
   19.9519  -16.8676    4.2571 C   0  0  0  0  0  0  0  0  0  0  0  0
   20.6501  -15.7877    4.5693 N   0  0  0  0  0  0  0  0  0  0  0  0
   19.9984  -17.9525    6.5399 N   0  0  0  0  0  0  0  0  0  0  0  0
   19.4403  -19.0956    6.8938 C   0  0  0  0  0  0  0  0  0  0  0  0
   18.8025  -19.7475    5.8605 N   0  0  0  0  0  0  0  0  0  0  0  0
  1  2  2  0  0  0  0
  2  3  1  0  0  0  0
  3  4  2  0  0  0  0
  5  4  1  0  0  0  0
  5  6  2  0  0  0  0
  6  1  1  0  0  0  0
  6  7  1  0  0  0  0
  8  5  1  0  0  0  0
  9  8  1  0  0  0  0
 10  4  1  0  0  0  0
 10  9  2  0  0  0  0
M  END
>  <CHROM.1>
19.42551096,-18.05856352,4.72884223,1.37727621,-1.01404928,-1.10533672

>  <Name>
1y26_lig

>  <RI>
224

>  <Rbt.Current_Directory>
/home/afrankz/demos/rdock_decoys_rna/rnas/1y26

>  <Rbt.Executable>
rbdock ($Id: //depot/dev/client3/rdock/2013.1/src/exe/rbdock.cxx#4 $)

>  <Rbt.Library>
libRbt.so (2013.1, Build901 2013/11/27)

>  <Rbt.Parameter_File>
/export/apps/rDock/src/rDock_2013.1_src/data/scripts/dock_solv.prm

>  <Rbt.Receptor>
prm/pocket_docking_7.prm

>  <SCORE>
-26.6768

>  <SCORE.INTER>
-26.6768

>  <SCORE.INTER.CONST>
1

>  <SCORE.INTER.POLAR>
-2.0198

>  <SCORE.INTER.ROT>
0

>  <SCORE.INTER.SOLV>
12.6743

>  <SCORE.INTER.VDW>
-18.8766

>  <SCORE.INTER.norm>
-2.66768

>  <SCORE.INTRA>
0

>  <SCORE.INTRA.DIHEDRAL>
0

>  <SCORE.INTRA.DIHEDRAL.0>
0

>  <SCORE.INTRA.POLAR>
0

>  <SCORE.INTRA.POLAR.0>
0

>  <SCORE.INTRA.REPUL>
0

>  <SCORE.INTRA.REPUL.0>
0

>  <SCORE.INTRA.SOLV>
0

>  <SCORE.INTRA.SOLV.lig_0>
-16.9472

>  <SCORE.INTRA.VDW>
0

>  <SCORE.INTRA.VDW.0>
0

>  <SCORE.INTRA.norm>
0

>  <SCORE.RESTR>
0

>  <SCORE.RESTR.CAVITY>
0

>  <SCORE.RESTR.norm>
0

>  <SCORE.SYSTEM>
0

>  <SCORE.SYSTEM.CONST>
0

>  <SCORE.SYSTEM.DIHEDRAL>
0

>  <SCORE.SYSTEM.SOLV>
0

>  <SCORE.SYSTEM.norm>
0

>  <SCORE.heavy>
10

>  <SCORE.norm>
-2.66768

>  <RMSD>
0.674

$$$$
1y26_lig
 OpenBabel02141814133D
libRbt.so/2013.1/901 2013/11/27
 10 11  0  0  0  0  0  0  0  0999 V2000
   19.5090  -17.0141    3.0042 N   0  0  0  0  0  0  0  0  0  0  0  0
   18.8143  -18.1136    2.7014 C   0  0  0  0  0  0  0  0  0  0  0  0
   18.5005  -19.1372    3.4931 N   0  0  0  0  0  0  0  0  0  0  0  0
   18.9655  -18.9365    4.7468 C   0  0  0  0  0  0  0  0  0  0  0  0
   19.6832  -17.8495    5.2045 C   0  0  0  0  0  0  0  0  0  0  0  0
   19.9601  -16.8516    4.2652 C   0  0  0  0  0  0  0  0  0  0  0  0
   20.6550  -15.7731    4.5892 N   0  0  0  0  0  0  0  0  0  0  0  0
   20.0130  -17.9630    6.5351 N   0  0  0  0  0  0  0  0  0  0  0  0
   19.4592  -19.1121    6.8763 C   0  0  0  0  0  0  0  0  0  0  0  0
   18.8223  -19.7540    5.8361 N   0  0  0  0  0  0  0  0  0  0  0  0
  1  2  2  0  0  0  0
  2  3  1  0  0  0  0
  3  4  2  0  0  0  0
  5  4  1  0  0  0  0
  5  6  2  0  0  0  0
  6  1  1  0  0  0  0
  6  7  1  0  0  0  0
  8  5  1  0  0  0  0
  9  8  1  0  0  0  0
 10  4  1  0  0  0  0
 10  9  2  0  0  0  0
M  END
>  <CHROM.1>
19.43826508,-18.04982062,4.72362431,1.38221809,-1.01649115,-1.08943859

>  <Name>
1y26_lig

>  <RI>
0

>  <Rbt.Current_Directory>
/home/afrankz/demos/rdock_decoys_rna/rnas/1y26

>  <Rbt.Executable>
rbdock ($Id: //depot/dev/client3/rdock/2013.1/src/exe/rbdock.cxx#4 $)

>  <Rbt.Library>
libRbt.so (2013.1, Build901 2013/11/27)

>  <Rbt.Parameter_File>
/export/apps/rDock/src/rDock_2013.1_src/data/scripts/dock_solv.prm

>  <Rbt.Receptor>
prm/pocket_docking_8.prm

>  <SCORE>
-26.662

>  <SCORE.INTER>
-26.662

>  <SCORE.INTER.CONST>
1

>  <SCORE.INTER.POLAR>
-2.0198

>  <SCORE.INTER.ROT>
0

>  <SCORE.INTER.SOLV>
12.7032

>  <SCORE.INTER.VDW>
-18.8764

>  <SCORE.INTER.norm>
-2.6662

>  <SCORE.INTRA>
0

>  <SCORE.INTRA.DIHEDRAL>
0

>  <SCORE.INTRA.DIHEDRAL.0>
0

>  <SCORE.INTRA.POLAR>
0

>  <SCORE.INTRA.POLAR.0>
0

>  <SCORE.INTRA.REPUL>
0

>  <SCORE.INTRA.REPUL.0>
0

>  <SCORE.INTRA.SOLV>
0

>  <SCORE.INTRA.SOLV.lig_0>
-16.9472

>  <SCORE.INTRA.VDW>
0

>  <SCORE.INTRA.VDW.0>
0

>  <SCORE.INTRA.norm>
0

>  <SCORE.RESTR>
0

>  <SCORE.RESTR.CAVITY>
0

>  <SCORE.RESTR.norm>
0

>  <SCORE.SYSTEM>
0

>  <SCORE.SYSTEM.CONST>
0

>  <SCORE.SYSTEM.DIHEDRAL>
0

>  <SCORE.SYSTEM.SOLV>
0

>  <SCORE.SYSTEM.norm>
0

>  <SCORE.heavy>
10

>  <SCORE.norm>
-2.6662

>  <RMSD>
0.674

$$$$
1y26_lig
 OpenBabel02141814133D
libRbt.so/2013.1/901 2013/11/27
 10 11  0  0  0  0  0  0  0  0999 V2000
   19.4798  -17.0374    3.0008 N   0  0  0  0  0  0  0  0  0  0  0  0
   18.7867  -18.1414    2.7111 C   0  0  0  0  0  0  0  0  0  0  0  0
   18.4795  -19.1589    3.5131 N   0  0  0  0  0  0  0  0  0  0  0  0
   18.9500  -18.9461    4.7627 C   0  0  0  0  0  0  0  0  0  0  0  0
   19.6670  -17.8532    5.2075 C   0  0  0  0  0  0  0  0  0  0  0  0
   19.9366  -16.8628    4.2582 C   0  0  0  0  0  0  0  0  0  0  0  0
   20.6302  -15.7797    4.5695 N   0  0  0  0  0  0  0  0  0  0  0  0
   20.0037  -17.9543    6.5374 N   0  0  0  0  0  0  0  0  0  0  0  0
   19.4546  -19.1018    6.8912 C   0  0  0  0  0  0  0  0  0  0  0  0
   18.8145  -19.7545    5.8598 N   0  0  0  0  0  0  0  0  0  0  0  0
  1  2  2  0  0  0  0
  2  3  1  0  0  0  0
  3  4  2  0  0  0  0
  5  4  1  0  0  0  0
  5  6  2  0  0  0  0
  6  1  1  0  0  0  0
  6  7  1  0  0  0  0
  8  5  1  0  0  0  0
  9  8  1  0  0  0  0
 10  4  1  0  0  0  0
 10  9  2  0  0  0  0
M  END
>  <CHROM.1>
19.42031806,-18.05838116,4.72955284,1.39281367,-1.01663163,-1.08911673

>  <Name>
1y26_lig

>  <RI>
224

>  <Rbt.Current_Directory>
/home/afrankz/demos/rdock_decoys_rna/rnas/1y26

>  <Rbt.Executable>
rbdock ($Id: //depot/dev/client3/rdock/2013.1/src/exe/rbdock.cxx#4 $)

>  <Rbt.Library>
libRbt.so (2013.1, Build901 2013/11/27)

>  <Rbt.Parameter_File>
/export/apps/rDock/src/rDock_2013.1_src/data/scripts/dock_solv.prm

>  <Rbt.Receptor>
prm/blind_docking_80.prm

>  <SCORE>
-26.6655

>  <SCORE.INTER>
-26.6655

>  <SCORE.INTER.CONST>
1

>  <SCORE.INTER.POLAR>
-2.0198

>  <SCORE.INTER.ROT>
0

>  <SCORE.INTER.SOLV>
12.7285

>  <SCORE.INTER.VDW>
-18.8872

>  <SCORE.INTER.norm>
-2.66655

>  <SCORE.INTRA>
0

>  <SCORE.INTRA.DIHEDRAL>
0

>  <SCORE.INTRA.DIHEDRAL.0>
0

>  <SCORE.INTRA.POLAR>
0

>  <SCORE.INTRA.POLAR.0>
0

>  <SCORE.INTRA.REPUL>
0

>  <SCORE.INTRA.REPUL.0>
0

>  <SCORE.INTRA.SOLV>
0

>  <SCORE.INTRA.SOLV.lig_0>
-16.9472

>  <SCORE.INTRA.VDW>
0

>  <SCORE.INTRA.VDW.0>
0

>  <SCORE.INTRA.norm>
0

>  <SCORE.RESTR>
0

>  <SCORE.RESTR.CAVITY>
0

>  <SCORE.RESTR.norm>
0

>  <SCORE.SYSTEM>
0

>  <SCORE.SYSTEM.CONST>
0

>  <SCORE.SYSTEM.DIHEDRAL>
0

>  <SCORE.SYSTEM.SOLV>
0

>  <SCORE.SYSTEM.norm>
0

>  <SCORE.heavy>
10

>  <SCORE.norm>
-2.66655

>  <RMSD>
0.675

$$$$
1y26_lig
 OpenBabel02141814133D
libRbt.so/2013.1/901 2013/11/27
 10 11  0  0  0  0  0  0  0  0999 V2000
   19.4994  -17.0402    3.0008 N   0  0  0  0  0  0  0  0  0  0  0  0
   18.8028  -18.1404    2.7054 C   0  0  0  0  0  0  0  0  0  0  0  0
   18.4821  -19.1554    3.5053 N   0  0  0  0  0  0  0  0  0  0  0  0
   18.9420  -18.9442    4.7591 C   0  0  0  0  0  0  0  0  0  0  0  0
   19.6610  -17.8550    5.2097 C   0  0  0  0  0  0  0  0  0  0  0  0
   19.9453  -16.8670    4.2623 C   0  0  0  0  0  0  0  0  0  0  0  0
   20.6421  -15.7876    4.5792 N   0  0  0  0  0  0  0  0  0  0  0  0
   19.9845  -17.9568    6.5429 N   0  0  0  0  0  0  0  0  0  0  0  0
   19.4255  -19.1009    6.8925 C   0  0  0  0  0  0  0  0  0  0  0  0
   18.7914  -19.7508    5.8556 N   0  0  0  0  0  0  0  0  0  0  0  0
  1  2  2  0  0  0  0
  2  3  1  0  0  0  0
  3  4  2  0  0  0  0
  5  4  1  0  0  0  0
  5  6  2  0  0  0  0
  6  1  1  0  0  0  0
  6  7  1  0  0  0  0
  8  5  1  0  0  0  0
  9  8  1  0  0  0  0
 10  4  1  0  0  0  0
 10  9  2  0  0  0  0
M  END
>  <CHROM.1>
19.41767377,-18.05917784,4.72969896,1.37183230,-1.01583386,-1.10782086

>  <Name>
1y26_lig

>  <RI>
0

>  <Rbt.Current_Directory>
/home/afrankz/demos/rdock_decoys_rna/rnas/1y26

>  <Rbt.Executable>
rbdock ($Id: //depot/dev/client3/rdock/2013.1/src/exe/rbdock.cxx#4 $)

>  <Rbt.Library>
libRbt.so (2013.1, Build901 2013/11/27)

>  <Rbt.Parameter_File>
/export/apps/rDock/src/rDock_2013.1_src/data/scripts/dock_solv.prm

>  <Rbt.Receptor>
prm/pocket_docking_4.prm

>  <SCORE>
-26.6705

>  <SCORE.INTER>
-26.6705

>  <SCORE.INTER.CONST>
1

>  <SCORE.INTER.POLAR>
-2.0198

>  <SCORE.INTER.ROT>
0

>  <SCORE.INTER.SOLV>
12.6907

>  <SCORE.INTER.VDW>
-18.8779

>  <SCORE.INTER.norm>
-2.66705

>  <SCORE.INTRA>
0

>  <SCORE.INTRA.DIHEDRAL>
0

>  <SCORE.INTRA.DIHEDRAL.0>
0

>  <SCORE.INTRA.POLAR>
0

>  <SCORE.INTRA.POLAR.0>
0

>  <SCORE.INTRA.REPUL>
0

>  <SCORE.INTRA.REPUL.0>
0

>  <SCORE.INTRA.SOLV>
0

>  <SCORE.INTRA.SOLV.lig_0>
-16.9472

>  <SCORE.INTRA.VDW>
0

>  <SCORE.INTRA.VDW.0>
0

>  <SCORE.INTRA.norm>
0

>  <SCORE.RESTR>
0

>  <SCORE.RESTR.CAVITY>
0

>  <SCORE.RESTR.norm>
0

>  <SCORE.SYSTEM>
0

>  <SCORE.SYSTEM.CONST>
0

>  <SCORE.SYSTEM.DIHEDRAL>
0

>  <SCORE.SYSTEM.SOLV>
0

>  <SCORE.SYSTEM.norm>
0

>  <SCORE.heavy>
10

>  <SCORE.norm>
-2.66705

>  <RMSD>
0.675

$$$$
1y26_lig
 OpenBabel02141814133D
libRbt.so/2013.1/901 2013/11/27
 10 11  0  0  0  0  0  0  0  0999 V2000
   19.5055  -17.0281    3.0010 N   0  0  0  0  0  0  0  0  0  0  0  0
   18.8130  -18.1306    2.7044 C   0  0  0  0  0  0  0  0  0  0  0  0
   18.5004  -19.1500    3.5019 N   0  0  0  0  0  0  0  0  0  0  0  0
   18.9643  -18.9411    4.7547 C   0  0  0  0  0  0  0  0  0  0  0  0
   19.6799  -17.8501    5.2063 C   0  0  0  0  0  0  0  0  0  0  0  0
   19.9556  -16.8574    4.2614 C   0  0  0  0  0  0  0  0  0  0  0  0
   20.6485  -15.7758    4.5794 N   0  0  0  0  0  0  0  0  0  0  0  0
   20.0092  -17.9552    6.5378 N   0  0  0  0  0  0  0  0  0  0  0  0
   19.4571  -19.1032    6.8855 C   0  0  0  0  0  0  0  0  0  0  0  0
   18.8220  -19.7524    5.8488 N   0  0  0  0  0  0  0  0  0  0  0  0
  1  2  2  0  0  0  0
  2  3  1  0  0  0  0
  3  4  2  0  0  0  0
  5  4  1  0  0  0  0
  5  6  2  0  0  0  0
  6  1  1  0  0  0  0
  6  7  1  0  0  0  0
  8  5  1  0  0  0  0
  9  8  1  0  0  0  0
 10  4  1  0  0  0  0
 10  9  2  0  0  0  0
M  END
>  <CHROM.1>
19.43561879,-18.05374751,4.72653475,1.38276838,-1.01829418,-1.09488771

>  <Name>
1y26_lig

>  <RI>
0

>  <Rbt.Current_Directory>
/home/afrankz/demos/rdock_decoys_rna/rnas/1y26

>  <Rbt.Executable>
rbdock ($Id: //depot/dev/client3/rdock/2013.1/src/exe/rbdock.cxx#4 $)

>  <Rbt.Library>
libRbt.so (2013.1, Build901 2013/11/27)

>  <Rbt.Parameter_File>
/export/apps/rDock/src/rDock_2013.1_src/data/scripts/dock_solv.prm

>  <Rbt.Receptor>
prm/pocket_docking_5.prm

>  <SCORE>
-26.6741

>  <SCORE.INTER>
-26.6741

>  <SCORE.INTER.CONST>
1

>  <SCORE.INTER.POLAR>
-2.0198

>  <SCORE.INTER.ROT>
0

>  <SCORE.INTER.SOLV>
12.6973

>  <SCORE.INTER.VDW>
-18.8825

>  <SCORE.INTER.norm>
-2.66741

>  <SCORE.INTRA>
0

>  <SCORE.INTRA.DIHEDRAL>
0

>  <SCORE.INTRA.DIHEDRAL.0>
0

>  <SCORE.INTRA.POLAR>
0

>  <SCORE.INTRA.POLAR.0>
0

>  <SCORE.INTRA.REPUL>
0

>  <SCORE.INTRA.REPUL.0>
0

>  <SCORE.INTRA.SOLV>
0

>  <SCORE.INTRA.SOLV.lig_0>
-16.9472

>  <SCORE.INTRA.VDW>
0

>  <SCORE.INTRA.VDW.0>
0

>  <SCORE.INTRA.norm>
0

>  <SCORE.RESTR>
0

>  <SCORE.RESTR.CAVITY>
0

>  <SCORE.RESTR.norm>
0

>  <SCORE.SYSTEM>
0

>  <SCORE.SYSTEM.CONST>
0

>  <SCORE.SYSTEM.DIHEDRAL>
0

>  <SCORE.SYSTEM.SOLV>
0

>  <SCORE.SYSTEM.norm>
0

>  <SCORE.heavy>
10

>  <SCORE.norm>
-2.66741

>  <RMSD>
0.675

$$$$
1y26_lig
 OpenBabel02141814133D
libRbt.so/2013.1/901 2013/11/27
 10 11  0  0  0  0  0  0  0  0999 V2000
   19.4922  -17.0149    3.0082 N   0  0  0  0  0  0  0  0  0  0  0  0
   18.7963  -18.1133    2.7041 C   0  0  0  0  0  0  0  0  0  0  0  0
   18.4810  -19.1374    3.4945 N   0  0  0  0  0  0  0  0  0  0  0  0
   18.9458  -18.9386    4.7486 C   0  0  0  0  0  0  0  0  0  0  0  0
   19.6647  -17.8528    5.2077 C   0  0  0  0  0  0  0  0  0  0  0  0
   19.9430  -16.8543    4.2696 C   0  0  0  0  0  0  0  0  0  0  0  0
   20.6391  -15.7769    4.5949 N   0  0  0  0  0  0  0  0  0  0  0  0
   19.9940  -17.9682    6.5383 N   0  0  0  0  0  0  0  0  0  0  0  0
   19.4387  -19.1169    6.8781 C   0  0  0  0  0  0  0  0  0  0  0  0
   18.8014  -19.7570    5.8370 N   0  0  0  0  0  0  0  0  0  0  0  0
  1  2  2  0  0  0  0
  2  3  1  0  0  0  0
  3  4  2  0  0  0  0
  5  4  1  0  0  0  0
  5  6  2  0  0  0  0
  6  1  1  0  0  0  0
  6  7  1  0  0  0  0
  8  5  1  0  0  0  0
  9  8  1  0  0  0  0
 10  4  1  0  0  0  0
 10  9  2  0  0  0  0
M  END
>  <CHROM.1>
19.41969303,-18.05239261,4.72652276,1.38066923,-1.01561187,-1.08970346

>  <Name>
1y26_lig

>  <RI>
0

>  <Rbt.Current_Directory>
/home/afrankz/demos/rdock_decoys_rna/rnas/1y26

>  <Rbt.Executable>
rbdock ($Id: //depot/dev/client3/rdock/2013.1/src/exe/rbdock.cxx#4 $)

>  <Rbt.Library>
libRbt.so (2013.1, Build901 2013/11/27)

>  <Rbt.Parameter_File>
/export/apps/rDock/src/rDock_2013.1_src/data/scripts/dock_solv.prm

>  <Rbt.Receptor>
prm/pocket_docking_8.prm

>  <SCORE>
-26.6554

>  <SCORE.INTER>
-26.6554

>  <SCORE.INTER.CONST>
1

>  <SCORE.INTER.POLAR>
-2.0198

>  <SCORE.INTER.ROT>
0

>  <SCORE.INTER.SOLV>
12.7346

>  <SCORE.INTER.VDW>
-18.8824

>  <SCORE.INTER.norm>
-2.66554

>  <SCORE.INTRA>
0

>  <SCORE.INTRA.DIHEDRAL>
0

>  <SCORE.INTRA.DIHEDRAL.0>
0

>  <SCORE.INTRA.POLAR>
0

>  <SCORE.INTRA.POLAR.0>
0

>  <SCORE.INTRA.REPUL>
0

>  <SCORE.INTRA.REPUL.0>
0

>  <SCORE.INTRA.SOLV>
0

>  <SCORE.INTRA.SOLV.lig_0>
-16.9472

>  <SCORE.INTRA.VDW>
0

>  <SCORE.INTRA.VDW.0>
0

>  <SCORE.INTRA.norm>
0

>  <SCORE.RESTR>
0

>  <SCORE.RESTR.CAVITY>
0

>  <SCORE.RESTR.norm>
0

>  <SCORE.SYSTEM>
0

>  <SCORE.SYSTEM.CONST>
0

>  <SCORE.SYSTEM.DIHEDRAL>
0

>  <SCORE.SYSTEM.SOLV>
0

>  <SCORE.SYSTEM.norm>
0

>  <SCORE.heavy>
10

>  <SCORE.norm>
-2.66554

>  <RMSD>
0.675

$$$$
1y26_lig
 OpenBabel02141814133D
libRbt.so/2013.1/901 2013/11/27
 10 11  0  0  0  0  0  0  0  0999 V2000
   19.5049  -17.0410    2.9951 N   0  0  0  0  0  0  0  0  0  0  0  0
   18.8083  -18.1446    2.7123 C   0  0  0  0  0  0  0  0  0  0  0  0
   18.5019  -19.1582    3.5195 N   0  0  0  0  0  0  0  0  0  0  0  0
   18.9778  -18.9416    4.7665 C   0  0  0  0  0  0  0  0  0  0  0  0
   19.6989  -17.8486    5.2042 C   0  0  0  0  0  0  0  0  0  0  0  0
   19.9669  -16.8625    4.2501 C   0  0  0  0  0  0  0  0  0  0  0  0
   20.6641  -15.7797    4.5543 N   0  0  0  0  0  0  0  0  0  0  0  0
   20.0404  -17.9452    6.5332 N   0  0  0  0  0  0  0  0  0  0  0  0
   19.4902  -19.0901    6.8936 C   0  0  0  0  0  0  0  0  0  0  0  0
   18.8447  -19.7454    5.8672 N   0  0  0  0  0  0  0  0  0  0  0  0
  1  2  2  0  0  0  0
  2  3  1  0  0  0  0
  3  4  2  0  0  0  0
  5  4  1  0  0  0  0
  5  6  2  0  0  0  0
  6  1  1  0  0  0  0
  6  7  1  0  0  0  0
  8  5  1  0  0  0  0
  9  8  1  0  0  0  0
 10  4  1  0  0  0  0
 10  9  2  0  0  0  0
M  END
>  <CHROM.1>
19.44985911,-18.05506479,4.72801147,1.39738460,-1.01289640,-1.08913356

>  <Name>
1y26_lig

>  <RI>
0

>  <Rbt.Current_Directory>
/home/afrankz/demos/rdock_decoys_rna/rnas/1y26

>  <Rbt.Executable>
rbdock ($Id: //depot/dev/client3/rdock/2013.1/src/exe/rbdock.cxx#4 $)

>  <Rbt.Library>
libRbt.so (2013.1, Build901 2013/11/27)

>  <Rbt.Parameter_File>
/export/apps/rDock/src/rDock_2013.1_src/data/scripts/dock_solv.prm

>  <Rbt.Receptor>
prm/blind_docking_40.prm

>  <SCORE>
-26.6731

>  <SCORE.INTER>
-26.6731

>  <SCORE.INTER.CONST>
1

>  <SCORE.INTER.POLAR>
-2.0198

>  <SCORE.INTER.ROT>
0

>  <SCORE.INTER.SOLV>
12.6613

>  <SCORE.INTER.VDW>
-18.8698

>  <SCORE.INTER.norm>
-2.66731

>  <SCORE.INTRA>
0

>  <SCORE.INTRA.DIHEDRAL>
0

>  <SCORE.INTRA.DIHEDRAL.0>
0

>  <SCORE.INTRA.POLAR>
0

>  <SCORE.INTRA.POLAR.0>
0

>  <SCORE.INTRA.REPUL>
0

>  <SCORE.INTRA.REPUL.0>
0

>  <SCORE.INTRA.SOLV>
0

>  <SCORE.INTRA.SOLV.lig_0>
-16.9472

>  <SCORE.INTRA.VDW>
0

>  <SCORE.INTRA.VDW.0>
0

>  <SCORE.INTRA.norm>
0

>  <SCORE.RESTR>
0

>  <SCORE.RESTR.CAVITY>
0

>  <SCORE.RESTR.norm>
0

>  <SCORE.SYSTEM>
0

>  <SCORE.SYSTEM.CONST>
0

>  <SCORE.SYSTEM.DIHEDRAL>
0

>  <SCORE.SYSTEM.SOLV>
0

>  <SCORE.SYSTEM.norm>
0

>  <SCORE.heavy>
10

>  <SCORE.norm>
-2.66731

>  <RMSD>
0.676

$$$$
1y26_lig
 OpenBabel02141814133D
libRbt.so/2013.1/901 2013/11/27
 10 11  0  0  0  0  0  0  0  0999 V2000
   19.5076  -17.0237    3.0034 N   0  0  0  0  0  0  0  0  0  0  0  0
   18.8146  -18.1252    2.7043 C   0  0  0  0  0  0  0  0  0  0  0  0
   18.5025  -19.1467    3.4993 N   0  0  0  0  0  0  0  0  0  0  0  0
   18.9674  -18.9414    4.7522 C   0  0  0  0  0  0  0  0  0  0  0  0
   19.6835  -17.8517    5.2063 C   0  0  0  0  0  0  0  0  0  0  0  0
   19.9587  -16.8565    4.2639 C   0  0  0  0  0  0  0  0  0  0  0  0
   20.6519  -15.7758    4.5843 N   0  0  0  0  0  0  0  0  0  0  0  0
   20.0138  -17.9605    6.5373 N   0  0  0  0  0  0  0  0  0  0  0  0
   19.4618  -19.1093    6.8822 C   0  0  0  0  0  0  0  0  0  0  0  0
   18.8258  -19.7556    5.8442 N   0  0  0  0  0  0  0  0  0  0  0  0
  1  2  2  0  0  0  0
  2  3  1  0  0  0  0
  3  4  2  0  0  0  0
  5  4  1  0  0  0  0
  5  6  2  0  0  0  0
  6  1  1  0  0  0  0
  6  7  1  0  0  0  0
  8  5  1  0  0  0  0
  9  8  1  0  0  0  0
 10  4  1  0  0  0  0
 10  9  2  0  0  0  0
M  END
>  <CHROM.1>
19.43881943,-18.05399171,4.72615565,1.38389847,-1.01780664,-1.09121047

>  <Name>
1y26_lig

>  <RI>
224

>  <Rbt.Current_Directory>
/home/afrankz/demos/rdock_decoys_rna/rnas/1y26

>  <Rbt.Executable>
rbdock ($Id: //depot/dev/client3/rdock/2013.1/src/exe/rbdock.cxx#4 $)

>  <Rbt.Library>
libRbt.so (2013.1, Build901 2013/11/27)

>  <Rbt.Parameter_File>
/export/apps/rDock/src/rDock_2013.1_src/data/scripts/dock_solv.prm

>  <Rbt.Receptor>
prm/blind_docking_80.prm

>  <SCORE>
-26.7005

>  <SCORE.INTER>
-26.7005

>  <SCORE.INTER.CONST>
1

>  <SCORE.INTER.POLAR>
-2.0198

>  <SCORE.INTER.ROT>
0

>  <SCORE.INTER.SOLV>
12.6995

>  <SCORE.INTER.VDW>
-18.9008

>  <SCORE.INTER.norm>
-2.67005

>  <SCORE.INTRA>
0

>  <SCORE.INTRA.DIHEDRAL>
0

>  <SCORE.INTRA.DIHEDRAL.0>
0

>  <SCORE.INTRA.POLAR>
0

>  <SCORE.INTRA.POLAR.0>
0

>  <SCORE.INTRA.REPUL>
0

>  <SCORE.INTRA.REPUL.0>
0

>  <SCORE.INTRA.SOLV>
0

>  <SCORE.INTRA.SOLV.lig_0>
-16.9472

>  <SCORE.INTRA.VDW>
0

>  <SCORE.INTRA.VDW.0>
0

>  <SCORE.INTRA.norm>
0

>  <SCORE.RESTR>
0

>  <SCORE.RESTR.CAVITY>
0

>  <SCORE.RESTR.norm>
0

>  <SCORE.SYSTEM>
0

>  <SCORE.SYSTEM.CONST>
0

>  <SCORE.SYSTEM.DIHEDRAL>
0

>  <SCORE.SYSTEM.SOLV>
0

>  <SCORE.SYSTEM.norm>
0

>  <SCORE.heavy>
10

>  <SCORE.norm>
-2.67005

>  <RMSD>
0.676

$$$$
1y26_lig
 OpenBabel02141814133D
libRbt.so/2013.1/901 2013/11/27
 10 11  0  0  0  0  0  0  0  0999 V2000
   19.5054  -17.0256    3.0019 N   0  0  0  0  0  0  0  0  0  0  0  0
   18.8123  -18.1281    2.7063 C   0  0  0  0  0  0  0  0  0  0  0  0
   18.5031  -19.1487    3.5036 N   0  0  0  0  0  0  0  0  0  0  0  0
   18.9712  -18.9412    4.7550 C   0  0  0  0  0  0  0  0  0  0  0  0
   19.6878  -17.8504    5.2056 C   0  0  0  0  0  0  0  0  0  0  0  0
   19.9597  -16.8563    4.2609 C   0  0  0  0  0  0  0  0  0  0  0  0
   20.6531  -15.7747    4.5779 N   0  0  0  0  0  0  0  0  0  0  0  0
   20.0217  -17.9571    6.5358 N   0  0  0  0  0  0  0  0  0  0  0  0
   19.4714  -19.1057    6.8838 C   0  0  0  0  0  0  0  0  0  0  0  0
   18.8331  -19.7539    5.8485 N   0  0  0  0  0  0  0  0  0  0  0  0
  1  2  2  0  0  0  0
  2  3  1  0  0  0  0
  3  4  2  0  0  0  0
  5  4  1  0  0  0  0
  5  6  2  0  0  0  0
  6  1  1  0  0  0  0
  6  7  1  0  0  0  0
  8  5  1  0  0  0  0
  9  8  1  0  0  0  0
 10  4  1  0  0  0  0
 10  9  2  0  0  0  0
M  END
>  <CHROM.1>
19.44193846,-18.05353964,4.72634024,1.38906684,-1.01717090,-1.08824940

>  <Name>
1y26_lig

>  <RI>
224

>  <Rbt.Current_Directory>
/home/afrankz/demos/rdock_decoys_rna/rnas/1y26

>  <Rbt.Executable>
rbdock ($Id: //depot/dev/client3/rdock/2013.1/src/exe/rbdock.cxx#4 $)

>  <Rbt.Library>
libRbt.so (2013.1, Build901 2013/11/27)

>  <Rbt.Parameter_File>
/export/apps/rDock/src/rDock_2013.1_src/data/scripts/dock_solv.prm

>  <Rbt.Receptor>
prm/blind_docking_80.prm

>  <SCORE>
-26.6947

>  <SCORE.INTER>
-26.6947

>  <SCORE.INTER.CONST>
1

>  <SCORE.INTER.POLAR>
-2.0198

>  <SCORE.INTER.ROT>
0

>  <SCORE.INTER.SOLV>
12.6976

>  <SCORE.INTER.VDW>
-18.8963

>  <SCORE.INTER.norm>
-2.66947

>  <SCORE.INTRA>
0

>  <SCORE.INTRA.DIHEDRAL>
0

>  <SCORE.INTRA.DIHEDRAL.0>
0

>  <SCORE.INTRA.POLAR>
0

>  <SCORE.INTRA.POLAR.0>
0

>  <SCORE.INTRA.REPUL>
0

>  <SCORE.INTRA.REPUL.0>
0

>  <SCORE.INTRA.SOLV>
0

>  <SCORE.INTRA.SOLV.lig_0>
-16.9472

>  <SCORE.INTRA.VDW>
0

>  <SCORE.INTRA.VDW.0>
0

>  <SCORE.INTRA.norm>
0

>  <SCORE.RESTR>
0

>  <SCORE.RESTR.CAVITY>
0

>  <SCORE.RESTR.norm>
0

>  <SCORE.SYSTEM>
0

>  <SCORE.SYSTEM.CONST>
0

>  <SCORE.SYSTEM.DIHEDRAL>
0

>  <SCORE.SYSTEM.SOLV>
0

>  <SCORE.SYSTEM.norm>
0

>  <SCORE.heavy>
10

>  <SCORE.norm>
-2.66947

>  <RMSD>
0.676

$$$$
1y26_lig
 OpenBabel02141814133D
libRbt.so/2013.1/901 2013/11/27
 10 11  0  0  0  0  0  0  0  0999 V2000
   19.5029  -17.0315    3.0015 N   0  0  0  0  0  0  0  0  0  0  0  0
   18.8124  -18.1353    2.7050 C   0  0  0  0  0  0  0  0  0  0  0  0
   18.4963  -19.1523    3.5043 N   0  0  0  0  0  0  0  0  0  0  0  0
   18.9538  -18.9390    4.7587 C   0  0  0  0  0  0  0  0  0  0  0  0
   19.6665  -17.8462    5.2104 C   0  0  0  0  0  0  0  0  0  0  0  0
   19.9465  -16.8564    4.2636 C   0  0  0  0  0  0  0  0  0  0  0  0
   20.6373  -15.7734    4.5815 N   0  0  0  0  0  0  0  0  0  0  0  0
   19.9892  -17.9468    6.5439 N   0  0  0  0  0  0  0  0  0  0  0  0
   19.4359  -19.0939    6.8925 C   0  0  0  0  0  0  0  0  0  0  0  0
   18.8063  -19.7468    5.8547 N   0  0  0  0  0  0  0  0  0  0  0  0
  1  2  2  0  0  0  0
  2  3  1  0  0  0  0
  3  4  2  0  0  0  0
  5  4  1  0  0  0  0
  5  6  2  0  0  0  0
  6  1  1  0  0  0  0
  6  7  1  0  0  0  0
  8  5  1  0  0  0  0
  9  8  1  0  0  0  0
 10  4  1  0  0  0  0
 10  9  2  0  0  0  0
M  END
>  <CHROM.1>
19.42477535,-18.05152565,4.73003975,1.37461003,-1.02102492,-1.10513389

>  <Name>
1y26_lig

>  <RI>
224

>  <Rbt.Current_Directory>
/home/afrankz/demos/rdock_decoys_rna/rnas/1y26

>  <Rbt.Executable>
rbdock ($Id: //depot/dev/client3/rdock/2013.1/src/exe/rbdock.cxx#4 $)

>  <Rbt.Library>
libRbt.so (2013.1, Build901 2013/11/27)

>  <Rbt.Parameter_File>
/export/apps/rDock/src/rDock_2013.1_src/data/scripts/dock_solv.prm

>  <Rbt.Receptor>
prm/pocket_docking_6.prm

>  <SCORE>
-26.6953

>  <SCORE.INTER>
-26.6953

>  <SCORE.INTER.CONST>
1

>  <SCORE.INTER.POLAR>
-2.0198

>  <SCORE.INTER.ROT>
0

>  <SCORE.INTER.SOLV>
12.7029

>  <SCORE.INTER.VDW>
-18.8985

>  <SCORE.INTER.norm>
-2.66953

>  <SCORE.INTRA>
0

>  <SCORE.INTRA.DIHEDRAL>
0

>  <SCORE.INTRA.DIHEDRAL.0>
0

>  <SCORE.INTRA.POLAR>
0

>  <SCORE.INTRA.POLAR.0>
0

>  <SCORE.INTRA.REPUL>
0

>  <SCORE.INTRA.REPUL.0>
0

>  <SCORE.INTRA.SOLV>
0

>  <SCORE.INTRA.SOLV.lig_0>
-16.9472

>  <SCORE.INTRA.VDW>
0

>  <SCORE.INTRA.VDW.0>
0

>  <SCORE.INTRA.norm>
0

>  <SCORE.RESTR>
0

>  <SCORE.RESTR.CAVITY>
0

>  <SCORE.RESTR.norm>
0

>  <SCORE.SYSTEM>
0

>  <SCORE.SYSTEM.CONST>
0

>  <SCORE.SYSTEM.DIHEDRAL>
0

>  <SCORE.SYSTEM.SOLV>
0

>  <SCORE.SYSTEM.norm>
0

>  <SCORE.heavy>
10

>  <SCORE.norm>
-2.66953

>  <RMSD>
0.676

$$$$
1y26_lig
 OpenBabel02141814133D
libRbt.so/2013.1/901 2013/11/27
 10 11  0  0  0  0  0  0  0  0999 V2000
   19.4945  -17.0330    3.0031 N   0  0  0  0  0  0  0  0  0  0  0  0
   18.7944  -18.1322    2.7120 C   0  0  0  0  0  0  0  0  0  0  0  0
   18.4807  -19.1487    3.5128 N   0  0  0  0  0  0  0  0  0  0  0  0
   18.9525  -18.9403    4.7627 C   0  0  0  0  0  0  0  0  0  0  0  0
   19.6763  -17.8524    5.2088 C   0  0  0  0  0  0  0  0  0  0  0  0
   19.9522  -16.8627    4.2608 C   0  0  0  0  0  0  0  0  0  0  0  0
   20.6525  -15.7843    4.5733 N   0  0  0  0  0  0  0  0  0  0  0  0
   20.0121  -17.9572    6.5387 N   0  0  0  0  0  0  0  0  0  0  0  0
   19.4558  -19.1016    6.8911 C   0  0  0  0  0  0  0  0  0  0  0  0
   18.8117  -19.7491    5.8589 N   0  0  0  0  0  0  0  0  0  0  0  0
  1  2  2  0  0  0  0
  2  3  1  0  0  0  0
  3  4  2  0  0  0  0
  5  4  1  0  0  0  0
  5  6  2  0  0  0  0
  6  1  1  0  0  0  0
  6  7  1  0  0  0  0
  8  5  1  0  0  0  0
  9  8  1  0  0  0  0
 10  4  1  0  0  0  0
 10  9  2  0  0  0  0
M  END
>  <CHROM.1>
19.42833090,-18.05551312,4.73064512,1.38713738,-1.01110496,-1.09278020

>  <Name>
1y26_lig

>  <RI>
0

>  <Rbt.Current_Directory>
/home/afrankz/demos/rdock_decoys_rna/rnas/1y26

>  <Rbt.Executable>
rbdock ($Id: //depot/dev/client3/rdock/2013.1/src/exe/rbdock.cxx#4 $)

>  <Rbt.Library>
libRbt.so (2013.1, Build901 2013/11/27)

>  <Rbt.Parameter_File>
/export/apps/rDock/src/rDock_2013.1_src/data/scripts/dock_solv.prm

>  <Rbt.Receptor>
prm/pocket_docking_8.prm

>  <SCORE>
-26.6689

>  <SCORE.INTER>
-26.6689

>  <SCORE.INTER.CONST>
1

>  <SCORE.INTER.POLAR>
-2.0198

>  <SCORE.INTER.ROT>
0

>  <SCORE.INTER.SOLV>
12.6918

>  <SCORE.INTER.VDW>
-18.8772

>  <SCORE.INTER.norm>
-2.66689

>  <SCORE.INTRA>
0

>  <SCORE.INTRA.DIHEDRAL>
0

>  <SCORE.INTRA.DIHEDRAL.0>
0

>  <SCORE.INTRA.POLAR>
0

>  <SCORE.INTRA.POLAR.0>
0

>  <SCORE.INTRA.REPUL>
0

>  <SCORE.INTRA.REPUL.0>
0

>  <SCORE.INTRA.SOLV>
0

>  <SCORE.INTRA.SOLV.lig_0>
-16.9472

>  <SCORE.INTRA.VDW>
0

>  <SCORE.INTRA.VDW.0>
0

>  <SCORE.INTRA.norm>
0

>  <SCORE.RESTR>
0

>  <SCORE.RESTR.CAVITY>
0

>  <SCORE.RESTR.norm>
0

>  <SCORE.SYSTEM>
0

>  <SCORE.SYSTEM.CONST>
0

>  <SCORE.SYSTEM.DIHEDRAL>
0

>  <SCORE.SYSTEM.SOLV>
0

>  <SCORE.SYSTEM.norm>
0

>  <SCORE.heavy>
10

>  <SCORE.norm>
-2.66689

>  <RMSD>
0.676

$$$$
1y26_lig
 OpenBabel02141814133D
libRbt.so/2013.1/901 2013/11/27
 10 11  0  0  0  0  0  0  0  0999 V2000
   19.5014  -17.0220    3.0054 N   0  0  0  0  0  0  0  0  0  0  0  0
   18.8122  -18.1251    2.7037 C   0  0  0  0  0  0  0  0  0  0  0  0
   18.5021  -19.1488    3.4968 N   0  0  0  0  0  0  0  0  0  0  0  0
   18.9647  -18.9439    4.7507 C   0  0  0  0  0  0  0  0  0  0  0  0
   19.6769  -17.8528    5.2073 C   0  0  0  0  0  0  0  0  0  0  0  0
   19.9503  -16.8553    4.2667 C   0  0  0  0  0  0  0  0  0  0  0  0
   20.6399  -15.7730    4.5897 N   0  0  0  0  0  0  0  0  0  0  0  0
   20.0058  -17.9626    6.5385 N   0  0  0  0  0  0  0  0  0  0  0  0
   19.4568  -19.1136    6.8810 C   0  0  0  0  0  0  0  0  0  0  0  0
   18.8241  -19.7602    5.8412 N   0  0  0  0  0  0  0  0  0  0  0  0
  1  2  2  0  0  0  0
  2  3  1  0  0  0  0
  3  4  2  0  0  0  0
  5  4  1  0  0  0  0
  5  6  2  0  0  0  0
  6  1  1  0  0  0  0
  6  7  1  0  0  0  0
  8  5  1  0  0  0  0
  9  8  1  0  0  0  0
 10  4  1  0  0  0  0
 10  9  2  0  0  0  0
M  END
>  <CHROM.1>
19.43348283,-18.05508126,4.72653441,1.38432507,-1.02108861,-1.08934352

>  <Name>
1y26_lig

>  <RI>
0

>  <Rbt.Current_Directory>
/home/afrankz/demos/rdock_decoys_rna/rnas/1y26

>  <Rbt.Executable>
rbdock ($Id: //depot/dev/client3/rdock/2013.1/src/exe/rbdock.cxx#4 $)

>  <Rbt.Library>
libRbt.so (2013.1, Build901 2013/11/27)

>  <Rbt.Parameter_File>
/export/apps/rDock/src/rDock_2013.1_src/data/scripts/dock_solv.prm

>  <Rbt.Receptor>
prm/blind_docking_40.prm

>  <SCORE>
-26.6719

>  <SCORE.INTER>
-26.6719

>  <SCORE.INTER.CONST>
1

>  <SCORE.INTER.POLAR>
-2.0198

>  <SCORE.INTER.ROT>
0

>  <SCORE.INTER.SOLV>
12.7238

>  <SCORE.INTER.VDW>
-18.8898

>  <SCORE.INTER.norm>
-2.66719

>  <SCORE.INTRA>
0

>  <SCORE.INTRA.DIHEDRAL>
0

>  <SCORE.INTRA.DIHEDRAL.0>
0

>  <SCORE.INTRA.POLAR>
0

>  <SCORE.INTRA.POLAR.0>
0

>  <SCORE.INTRA.REPUL>
0

>  <SCORE.INTRA.REPUL.0>
0

>  <SCORE.INTRA.SOLV>
0

>  <SCORE.INTRA.SOLV.lig_0>
-16.9472

>  <SCORE.INTRA.VDW>
0

>  <SCORE.INTRA.VDW.0>
0

>  <SCORE.INTRA.norm>
0

>  <SCORE.RESTR>
0

>  <SCORE.RESTR.CAVITY>
0

>  <SCORE.RESTR.norm>
0

>  <SCORE.SYSTEM>
0

>  <SCORE.SYSTEM.CONST>
0

>  <SCORE.SYSTEM.DIHEDRAL>
0

>  <SCORE.SYSTEM.SOLV>
0

>  <SCORE.SYSTEM.norm>
0

>  <SCORE.heavy>
10

>  <SCORE.norm>
-2.66719

>  <RMSD>
0.677

$$$$
1y26_lig
 OpenBabel02141814133D
libRbt.so/2013.1/901 2013/11/27
 10 11  0  0  0  0  0  0  0  0999 V2000
   19.4784  -17.0184    3.0064 N   0  0  0  0  0  0  0  0  0  0  0  0
   18.7916  -18.1241    2.7082 C   0  0  0  0  0  0  0  0  0  0  0  0
   18.4915  -19.1501    3.5020 N   0  0  0  0  0  0  0  0  0  0  0  0
   18.9622  -18.9449    4.7529 C   0  0  0  0  0  0  0  0  0  0  0  0
   19.6731  -17.8514    5.2059 C   0  0  0  0  0  0  0  0  0  0  0  0
   19.9356  -16.8515    4.2647 C   0  0  0  0  0  0  0  0  0  0  0  0
   20.6229  -15.7668    4.5842 N   0  0  0  0  0  0  0  0  0  0  0  0
   20.0119  -17.9615    6.5346 N   0  0  0  0  0  0  0  0  0  0  0  0
   19.4701  -19.1153    6.8794 C   0  0  0  0  0  0  0  0  0  0  0  0
   18.8328  -19.7632    5.8433 N   0  0  0  0  0  0  0  0  0  0  0  0
  1  2  2  0  0  0  0
  2  3  1  0  0  0  0
  3  4  2  0  0  0  0
  5  4  1  0  0  0  0
  5  6  2  0  0  0  0
  6  1  1  0  0  0  0
  6  7  1  0  0  0  0
  8  5  1  0  0  0  0
  9  8  1  0  0  0  0
 10  4  1  0  0  0  0
 10  9  2  0  0  0  0
M  END
>  <CHROM.1>
19.42704302,-18.05405781,4.72658720,1.40017112,-1.02143017,-1.07450089

>  <Name>
1y26_lig

>  <RI>
0

>  <Rbt.Current_Directory>
/home/afrankz/demos/rdock_decoys_rna/rnas/1y26

>  <Rbt.Executable>
rbdock ($Id: //depot/dev/client3/rdock/2013.1/src/exe/rbdock.cxx#4 $)

>  <Rbt.Library>
libRbt.so (2013.1, Build901 2013/11/27)

>  <Rbt.Parameter_File>
/export/apps/rDock/src/rDock_2013.1_src/data/scripts/dock_solv.prm

>  <Rbt.Receptor>
prm/blind_docking_60.prm

>  <SCORE>
-26.653

>  <SCORE.INTER>
-26.653

>  <SCORE.INTER.CONST>
1

>  <SCORE.INTER.POLAR>
-2.0198

>  <SCORE.INTER.ROT>
0

>  <SCORE.INTER.SOLV>
12.7695

>  <SCORE.INTER.VDW>
-18.8925

>  <SCORE.INTER.norm>
-2.6653

>  <SCORE.INTRA>
0

>  <SCORE.INTRA.DIHEDRAL>
0

>  <SCORE.INTRA.DIHEDRAL.0>
0

>  <SCORE.INTRA.POLAR>
0

>  <SCORE.INTRA.POLAR.0>
0

>  <SCORE.INTRA.REPUL>
0

>  <SCORE.INTRA.REPUL.0>
0

>  <SCORE.INTRA.SOLV>
0

>  <SCORE.INTRA.SOLV.lig_0>
-16.9472

>  <SCORE.INTRA.VDW>
0

>  <SCORE.INTRA.VDW.0>
0

>  <SCORE.INTRA.norm>
0

>  <SCORE.RESTR>
0

>  <SCORE.RESTR.CAVITY>
0

>  <SCORE.RESTR.norm>
0

>  <SCORE.SYSTEM>
0

>  <SCORE.SYSTEM.CONST>
0

>  <SCORE.SYSTEM.DIHEDRAL>
0

>  <SCORE.SYSTEM.SOLV>
0

>  <SCORE.SYSTEM.norm>
0

>  <SCORE.heavy>
10

>  <SCORE.norm>
-2.6653

>  <RMSD>
0.677

$$$$
1y26_lig
 OpenBabel02141814133D
libRbt.so/2013.1/901 2013/11/27
 10 11  0  0  0  0  0  0  0  0999 V2000
   19.5857  -17.0304    2.9960 N   0  0  0  0  0  0  0  0  0  0  0  0
   18.8944  -18.1294    2.6841 C   0  0  0  0  0  0  0  0  0  0  0  0
   18.5561  -19.1455    3.4753 N   0  0  0  0  0  0  0  0  0  0  0  0
   18.9898  -18.9370    4.7389 C   0  0  0  0  0  0  0  0  0  0  0  0
   19.7002  -17.8493    5.2064 C   0  0  0  0  0  0  0  0  0  0  0  0
   20.0052  -16.8599    4.2669 C   0  0  0  0  0  0  0  0  0  0  0  0
   20.6962  -15.7817    4.6002 N   0  0  0  0  0  0  0  0  0  0  0  0
   19.9956  -17.9538    6.5459 N   0  0  0  0  0  0  0  0  0  0  0  0
   19.4283  -19.0979    6.8816 C   0  0  0  0  0  0  0  0  0  0  0  0
   18.8155  -19.7453    5.8305 N   0  0  0  0  0  0  0  0  0  0  0  0
  1  2  2  0  0  0  0
  2  3  1  0  0  0  0
  3  4  2  0  0  0  0
  5  4  1  0  0  0  0
  5  6  2  0  0  0  0
  6  1  1  0  0  0  0
  6  7  1  0  0  0  0
  8  5  1  0  0  0  0
  9  8  1  0  0  0  0
 10  4  1  0  0  0  0
 10  9  2  0  0  0  0
M  END
>  <CHROM.1>
19.46683003,-18.05239155,4.72100593,1.33496496,-1.02404812,-1.13746957

>  <Name>
1y26_lig

>  <RI>
224

>  <Rbt.Current_Directory>
/home/afrankz/demos/rdock_decoys_rna/rnas/1y26

>  <Rbt.Executable>
rbdock ($Id: //depot/dev/client3/rdock/2013.1/src/exe/rbdock.cxx#4 $)

>  <Rbt.Library>
libRbt.so (2013.1, Build901 2013/11/27)

>  <Rbt.Parameter_File>
/export/apps/rDock/src/rDock_2013.1_src/data/scripts/dock_solv.prm

>  <Rbt.Receptor>
prm/blind_docking_80.prm

>  <SCORE>
-26.6217

>  <SCORE.INTER>
-26.6217

>  <SCORE.INTER.CONST>
1

>  <SCORE.INTER.POLAR>
-2.0198

>  <SCORE.INTER.ROT>
0

>  <SCORE.INTER.SOLV>
12.5643

>  <SCORE.INTER.VDW>
-18.8032

>  <SCORE.INTER.norm>
-2.66217

>  <SCORE.INTRA>
0

>  <SCORE.INTRA.DIHEDRAL>
0

>  <SCORE.INTRA.DIHEDRAL.0>
0

>  <SCORE.INTRA.POLAR>
0

>  <SCORE.INTRA.POLAR.0>
0

>  <SCORE.INTRA.REPUL>
0

>  <SCORE.INTRA.REPUL.0>
0

>  <SCORE.INTRA.SOLV>
0

>  <SCORE.INTRA.SOLV.lig_0>
-16.9472

>  <SCORE.INTRA.VDW>
0

>  <SCORE.INTRA.VDW.0>
0

>  <SCORE.INTRA.norm>
0

>  <SCORE.RESTR>
0

>  <SCORE.RESTR.CAVITY>
0

>  <SCORE.RESTR.norm>
0

>  <SCORE.SYSTEM>
0

>  <SCORE.SYSTEM.CONST>
0

>  <SCORE.SYSTEM.DIHEDRAL>
0

>  <SCORE.SYSTEM.SOLV>
0

>  <SCORE.SYSTEM.norm>
0

>  <SCORE.heavy>
10

>  <SCORE.norm>
-2.66217

>  <RMSD>
0.677

$$$$
1y26_lig
 OpenBabel02141814133D
libRbt.so/2013.1/901 2013/11/27
 10 11  0  0  0  0  0  0  0  0999 V2000
   19.5038  -17.0200    3.0059 N   0  0  0  0  0  0  0  0  0  0  0  0
   18.8172  -18.1244    2.7024 C   0  0  0  0  0  0  0  0  0  0  0  0
   18.5084  -19.1494    3.4942 N   0  0  0  0  0  0  0  0  0  0  0  0
   18.9692  -18.9447    4.7488 C   0  0  0  0  0  0  0  0  0  0  0  0
   19.6787  -17.8526    5.2072 C   0  0  0  0  0  0  0  0  0  0  0  0
   19.9511  -16.8536    4.2678 C   0  0  0  0  0  0  0  0  0  0  0  0
   20.6381  -15.7703    4.5925 N   0  0  0  0  0  0  0  0  0  0  0  0
   20.0064  -17.9629    6.5387 N   0  0  0  0  0  0  0  0  0  0  0  0
   19.4594  -19.1153    6.8795 C   0  0  0  0  0  0  0  0  0  0  0  0
   18.8292  -19.7623    5.8384 N   0  0  0  0  0  0  0  0  0  0  0  0
  1  2  2  0  0  0  0
  2  3  1  0  0  0  0
  3  4  2  0  0  0  0
  5  4  1  0  0  0  0
  5  6  2  0  0  0  0
  6  1  1  0  0  0  0
  6  7  1  0  0  0  0
  8  5  1  0  0  0  0
  9  8  1  0  0  0  0
 10  4  1  0  0  0  0
 10  9  2  0  0  0  0
M  END
>  <CHROM.1>
19.43621382,-18.05490382,4.72596685,1.38436665,-1.02339697,-1.08838094

>  <Name>
1y26_lig

>  <RI>
224

>  <Rbt.Current_Directory>
/home/afrankz/demos/rdock_decoys_rna/rnas/1y26

>  <Rbt.Executable>
rbdock ($Id: //depot/dev/client3/rdock/2013.1/src/exe/rbdock.cxx#4 $)

>  <Rbt.Library>
libRbt.so (2013.1, Build901 2013/11/27)

>  <Rbt.Parameter_File>
/export/apps/rDock/src/rDock_2013.1_src/data/scripts/dock_solv.prm

>  <Rbt.Receptor>
prm/pocket_docking_3.prm

>  <SCORE>
-26.6981

>  <SCORE.INTER>
-26.6981

>  <SCORE.INTER.CONST>
1

>  <SCORE.INTER.POLAR>
-2.0198

>  <SCORE.INTER.ROT>
0

>  <SCORE.INTER.SOLV>
12.7285

>  <SCORE.INTER.VDW>
-18.9089

>  <SCORE.INTER.norm>
-2.66981

>  <SCORE.INTRA>
0

>  <SCORE.INTRA.DIHEDRAL>
0

>  <SCORE.INTRA.DIHEDRAL.0>
0

>  <SCORE.INTRA.POLAR>
0

>  <SCORE.INTRA.POLAR.0>
0

>  <SCORE.INTRA.REPUL>
0

>  <SCORE.INTRA.REPUL.0>
0

>  <SCORE.INTRA.SOLV>
0

>  <SCORE.INTRA.SOLV.lig_0>
-16.9472

>  <SCORE.INTRA.VDW>
0

>  <SCORE.INTRA.VDW.0>
0

>  <SCORE.INTRA.norm>
0

>  <SCORE.RESTR>
0

>  <SCORE.RESTR.CAVITY>
0

>  <SCORE.RESTR.norm>
0

>  <SCORE.SYSTEM>
0

>  <SCORE.SYSTEM.CONST>
0

>  <SCORE.SYSTEM.DIHEDRAL>
0

>  <SCORE.SYSTEM.SOLV>
0

>  <SCORE.SYSTEM.norm>
0

>  <SCORE.heavy>
10

>  <SCORE.norm>
-2.66981

>  <RMSD>
0.678

$$$$
1y26_lig
 OpenBabel02141814133D
libRbt.so/2013.1/901 2013/11/27
 10 11  0  0  0  0  0  0  0  0999 V2000
   19.5686  -17.0454    2.9973 N   0  0  0  0  0  0  0  0  0  0  0  0
   18.8639  -18.1393    2.6976 C   0  0  0  0  0  0  0  0  0  0  0  0
   18.5207  -19.1465    3.4980 N   0  0  0  0  0  0  0  0  0  0  0  0
   18.9653  -18.9341    4.7571 C   0  0  0  0  0  0  0  0  0  0  0  0
   19.6901  -17.8507    5.2124 C   0  0  0  0  0  0  0  0  0  0  0  0
   19.9986  -16.8708    4.2641 C   0  0  0  0  0  0  0  0  0  0  0  0
   20.7030  -15.7976    4.5854 N   0  0  0  0  0  0  0  0  0  0  0  0
   19.9936  -17.9493    6.5504 N   0  0  0  0  0  0  0  0  0  0  0  0
   19.4170  -19.0852    6.8978 C   0  0  0  0  0  0  0  0  0  0  0  0
   18.7903  -19.7333    5.8553 N   0  0  0  0  0  0  0  0  0  0  0  0
  1  2  2  0  0  0  0
  2  3  1  0  0  0  0
  3  4  2  0  0  0  0
  5  4  1  0  0  0  0
  5  6  2  0  0  0  0
  6  1  1  0  0  0  0
  6  7  1  0  0  0  0
  8  5  1  0  0  0  0
  9  8  1  0  0  0  0
 10  4  1  0  0  0  0
 10  9  2  0  0  0  0
M  END
>  <CHROM.1>
19.45120433,-18.05459209,4.72997489,1.33872303,-1.01180988,-1.14097317

>  <Name>
1y26_lig

>  <RI>
0

>  <Rbt.Current_Directory>
/home/afrankz/demos/rdock_decoys_rna/rnas/1y26

>  <Rbt.Executable>
rbdock ($Id: //depot/dev/client3/rdock/2013.1/src/exe/rbdock.cxx#4 $)

>  <Rbt.Library>
libRbt.so (2013.1, Build901 2013/11/27)

>  <Rbt.Parameter_File>
/export/apps/rDock/src/rDock_2013.1_src/data/scripts/dock_solv.prm

>  <Rbt.Receptor>
prm/pocket_docking_5.prm

>  <SCORE>
-26.6544

>  <SCORE.INTER>
-26.6544

>  <SCORE.INTER.CONST>
1

>  <SCORE.INTER.POLAR>
-2.0198

>  <SCORE.INTER.ROT>
0

>  <SCORE.INTER.SOLV>
12.5438

>  <SCORE.INTER.VDW>
-18.8182

>  <SCORE.INTER.norm>
-2.66544

>  <SCORE.INTRA>
0

>  <SCORE.INTRA.DIHEDRAL>
0

>  <SCORE.INTRA.DIHEDRAL.0>
0

>  <SCORE.INTRA.POLAR>
0

>  <SCORE.INTRA.POLAR.0>
0

>  <SCORE.INTRA.REPUL>
0

>  <SCORE.INTRA.REPUL.0>
0

>  <SCORE.INTRA.SOLV>
0

>  <SCORE.INTRA.SOLV.lig_0>
-16.9472

>  <SCORE.INTRA.VDW>
0

>  <SCORE.INTRA.VDW.0>
0

>  <SCORE.INTRA.norm>
0

>  <SCORE.RESTR>
0

>  <SCORE.RESTR.CAVITY>
0

>  <SCORE.RESTR.norm>
0

>  <SCORE.SYSTEM>
0

>  <SCORE.SYSTEM.CONST>
0

>  <SCORE.SYSTEM.DIHEDRAL>
0

>  <SCORE.SYSTEM.SOLV>
0

>  <SCORE.SYSTEM.norm>
0

>  <SCORE.heavy>
10

>  <SCORE.norm>
-2.66544

>  <RMSD>
0.678

$$$$
1y26_lig
 OpenBabel02141814133D
libRbt.so/2013.1/901 2013/11/27
 10 11  0  0  0  0  0  0  0  0999 V2000
   19.5064  -17.0228    3.0078 N   0  0  0  0  0  0  0  0  0  0  0  0
   18.8188  -18.1264    2.7039 C   0  0  0  0  0  0  0  0  0  0  0  0
   18.5003  -19.1468    3.4978 N   0  0  0  0  0  0  0  0  0  0  0  0
   18.9516  -18.9378    4.7551 C   0  0  0  0  0  0  0  0  0  0  0  0
   19.6607  -17.8457    5.2144 C   0  0  0  0  0  0  0  0  0  0  0  0
   19.9438  -16.8519    4.2726 C   0  0  0  0  0  0  0  0  0  0  0  0
   20.6316  -15.7692    4.5979 N   0  0  0  0  0  0  0  0  0  0  0  0
   19.9771  -17.9509    6.5489 N   0  0  0  0  0  0  0  0  0  0  0  0
   19.4237  -19.1000    6.8906 C   0  0  0  0  0  0  0  0  0  0  0  0
   18.8000  -19.7498    5.8474 N   0  0  0  0  0  0  0  0  0  0  0  0
  1  2  2  0  0  0  0
  2  3  1  0  0  0  0
  3  4  2  0  0  0  0
  5  4  1  0  0  0  0
  5  6  2  0  0  0  0
  6  1  1  0  0  0  0
  6  7  1  0  0  0  0
  8  5  1  0  0  0  0
  9  8  1  0  0  0  0
 10  4  1  0  0  0  0
 10  9  2  0  0  0  0
M  END
>  <CHROM.1>
19.42149293,-18.04949876,4.73207569,1.36762005,-1.02436352,-1.10729311

>  <Name>
1y26_lig

>  <RI>
224

>  <Rbt.Current_Directory>
/home/afrankz/demos/rdock_decoys_rna/rnas/1y26

>  <Rbt.Executable>
rbdock ($Id: //depot/dev/client3/rdock/2013.1/src/exe/rbdock.cxx#4 $)

>  <Rbt.Library>
libRbt.so (2013.1, Build901 2013/11/27)

>  <Rbt.Parameter_File>
/export/apps/rDock/src/rDock_2013.1_src/data/scripts/dock_solv.prm

>  <Rbt.Receptor>
prm/blind_docking_80.prm

>  <SCORE>
-26.6841

>  <SCORE.INTER>
-26.6841

>  <SCORE.INTER.CONST>
1

>  <SCORE.INTER.POLAR>
-2.0198

>  <SCORE.INTER.ROT>
0

>  <SCORE.INTER.SOLV>
12.7188

>  <SCORE.INTER.VDW>
-18.8963

>  <SCORE.INTER.norm>
-2.66841

>  <SCORE.INTRA>
0

>  <SCORE.INTRA.DIHEDRAL>
0

>  <SCORE.INTRA.DIHEDRAL.0>
0

>  <SCORE.INTRA.POLAR>
0

>  <SCORE.INTRA.POLAR.0>
0

>  <SCORE.INTRA.REPUL>
0

>  <SCORE.INTRA.REPUL.0>
0

>  <SCORE.INTRA.SOLV>
0

>  <SCORE.INTRA.SOLV.lig_0>
-16.9472

>  <SCORE.INTRA.VDW>
0

>  <SCORE.INTRA.VDW.0>
0

>  <SCORE.INTRA.norm>
0

>  <SCORE.RESTR>
0

>  <SCORE.RESTR.CAVITY>
0

>  <SCORE.RESTR.norm>
0

>  <SCORE.SYSTEM>
0

>  <SCORE.SYSTEM.CONST>
0

>  <SCORE.SYSTEM.DIHEDRAL>
0

>  <SCORE.SYSTEM.SOLV>
0

>  <SCORE.SYSTEM.norm>
0

>  <SCORE.heavy>
10

>  <SCORE.norm>
-2.66841

>  <RMSD>
0.679

$$$$
1y26_lig
 OpenBabel02141814133D
libRbt.so/2013.1/901 2013/11/27
 10 11  0  0  0  0  0  0  0  0999 V2000
   19.5047  -17.0174    3.0106 N   0  0  0  0  0  0  0  0  0  0  0  0
   18.8195  -18.1210    2.7014 C   0  0  0  0  0  0  0  0  0  0  0  0
   18.5061  -19.1475    3.4896 N   0  0  0  0  0  0  0  0  0  0  0  0
   18.9600  -18.9452    4.7470 C   0  0  0  0  0  0  0  0  0  0  0  0
   19.6672  -17.8540    5.2114 C   0  0  0  0  0  0  0  0  0  0  0  0
   19.9449  -16.8534    4.2753 C   0  0  0  0  0  0  0  0  0  0  0  0
   20.6304  -15.7708    4.6058 N   0  0  0  0  0  0  0  0  0  0  0  0
   19.9875  -17.9668    6.5444 N   0  0  0  0  0  0  0  0  0  0  0  0
   19.4383  -19.1198    6.8801 C   0  0  0  0  0  0  0  0  0  0  0  0
   18.8137  -19.7647    5.8344 N   0  0  0  0  0  0  0  0  0  0  0  0
  1  2  2  0  0  0  0
  2  3  1  0  0  0  0
  3  4  2  0  0  0  0
  5  4  1  0  0  0  0
  5  6  2  0  0  0  0
  6  1  1  0  0  0  0
  6  7  1  0  0  0  0
  8  5  1  0  0  0  0
  9  8  1  0  0  0  0
 10  4  1  0  0  0  0
 10  9  2  0  0  0  0
M  END
>  <CHROM.1>
19.42730008,-18.05539952,4.72842739,1.37471211,-1.02576879,-1.09481052

>  <Name>
1y26_lig

>  <RI>
0

>  <Rbt.Current_Directory>
/home/afrankz/demos/rdock_decoys_rna/rnas/1y26

>  <Rbt.Executable>
rbdock ($Id: //depot/dev/client3/rdock/2013.1/src/exe/rbdock.cxx#4 $)

>  <Rbt.Library>
libRbt.so (2013.1, Build901 2013/11/27)

>  <Rbt.Parameter_File>
/export/apps/rDock/src/rDock_2013.1_src/data/scripts/dock_solv.prm

>  <Rbt.Receptor>
prm/blind_docking_60.prm

>  <SCORE>
-26.6648

>  <SCORE.INTER>
-26.6648

>  <SCORE.INTER.CONST>
1

>  <SCORE.INTER.POLAR>
-2.0198

>  <SCORE.INTER.ROT>
0

>  <SCORE.INTER.SOLV>
12.7398

>  <SCORE.INTER.VDW>
-18.8905

>  <SCORE.INTER.norm>
-2.66648

>  <SCORE.INTRA>
0

>  <SCORE.INTRA.DIHEDRAL>
0

>  <SCORE.INTRA.DIHEDRAL.0>
0

>  <SCORE.INTRA.POLAR>
0

>  <SCORE.INTRA.POLAR.0>
0

>  <SCORE.INTRA.REPUL>
0

>  <SCORE.INTRA.REPUL.0>
0

>  <SCORE.INTRA.SOLV>
0

>  <SCORE.INTRA.SOLV.lig_0>
-16.9472

>  <SCORE.INTRA.VDW>
0

>  <SCORE.INTRA.VDW.0>
0

>  <SCORE.INTRA.norm>
0

>  <SCORE.RESTR>
0

>  <SCORE.RESTR.CAVITY>
0

>  <SCORE.RESTR.norm>
0

>  <SCORE.SYSTEM>
0

>  <SCORE.SYSTEM.CONST>
0

>  <SCORE.SYSTEM.DIHEDRAL>
0

>  <SCORE.SYSTEM.SOLV>
0

>  <SCORE.SYSTEM.norm>
0

>  <SCORE.heavy>
10

>  <SCORE.norm>
-2.66648

>  <RMSD>
0.680

$$$$
1y26_lig
 OpenBabel02141814133D
libRbt.so/2013.1/901 2013/11/27
 10 11  0  0  0  0  0  0  0  0999 V2000
   19.6412  -17.0049    2.9977 N   0  0  0  0  0  0  0  0  0  0  0  0
   18.9574  -18.1020    2.6630 C   0  0  0  0  0  0  0  0  0  0  0  0
   18.6071  -19.1263    3.4383 N   0  0  0  0  0  0  0  0  0  0  0  0
   19.0182  -18.9293    4.7113 C   0  0  0  0  0  0  0  0  0  0  0  0
   19.7184  -17.8451    5.2017 C   0  0  0  0  0  0  0  0  0  0  0  0
   20.0380  -16.8461    4.2773 C   0  0  0  0  0  0  0  0  0  0  0  0
   20.7211  -15.7701    4.6331 N   0  0  0  0  0  0  0  0  0  0  0  0
   19.9904  -17.9621    6.5451 N   0  0  0  0  0  0  0  0  0  0  0  0
   19.4194  -19.1103    6.8597 C   0  0  0  0  0  0  0  0  0  0  0  0
   18.8263  -19.7485    5.7918 N   0  0  0  0  0  0  0  0  0  0  0  0
  1  2  2  0  0  0  0
  2  3  1  0  0  0  0
  3  4  2  0  0  0  0
  5  4  1  0  0  0  0
  5  6  2  0  0  0  0
  6  1  1  0  0  0  0
  6  7  1  0  0  0  0
  8  5  1  0  0  0  0
  9  8  1  0  0  0  0
 10  4  1  0  0  0  0
 10  9  2  0  0  0  0
M  END
>  <CHROM.1>
19.49388173,-18.04382584,4.71035092,1.30535828,-1.03285475,-1.15312352

>  <Name>
1y26_lig

>  <RI>
224

>  <Rbt.Current_Directory>
/home/afrankz/demos/rdock_decoys_rna/rnas/1y26

>  <Rbt.Executable>
rbdock ($Id: //depot/dev/client3/rdock/2013.1/src/exe/rbdock.cxx#4 $)

>  <Rbt.Library>
libRbt.so (2013.1, Build901 2013/11/27)

>  <Rbt.Parameter_File>
/export/apps/rDock/src/rDock_2013.1_src/data/scripts/dock_solv.prm

>  <Rbt.Receptor>
prm/blind_docking_80.prm

>  <SCORE>
-26.5762

>  <SCORE.INTER>
-26.5762

>  <SCORE.INTER.CONST>
1

>  <SCORE.INTER.POLAR>
-2.0198

>  <SCORE.INTER.ROT>
0

>  <SCORE.INTER.SOLV>
12.5126

>  <SCORE.INTER.VDW>
-18.7556

>  <SCORE.INTER.norm>
-2.65762

>  <SCORE.INTRA>
0

>  <SCORE.INTRA.DIHEDRAL>
0

>  <SCORE.INTRA.DIHEDRAL.0>
0

>  <SCORE.INTRA.POLAR>
0

>  <SCORE.INTRA.POLAR.0>
0

>  <SCORE.INTRA.REPUL>
0

>  <SCORE.INTRA.REPUL.0>
0

>  <SCORE.INTRA.SOLV>
0

>  <SCORE.INTRA.SOLV.lig_0>
-16.9472

>  <SCORE.INTRA.VDW>
0

>  <SCORE.INTRA.VDW.0>
0

>  <SCORE.INTRA.norm>
0

>  <SCORE.RESTR>
0

>  <SCORE.RESTR.CAVITY>
0

>  <SCORE.RESTR.norm>
0

>  <SCORE.SYSTEM>
0

>  <SCORE.SYSTEM.CONST>
0

>  <SCORE.SYSTEM.DIHEDRAL>
0

>  <SCORE.SYSTEM.SOLV>
0

>  <SCORE.SYSTEM.norm>
0

>  <SCORE.heavy>
10

>  <SCORE.norm>
-2.65762

>  <RMSD>
0.680

$$$$
1y26_lig
 OpenBabel02141814133D
libRbt.so/2013.1/901 2013/11/27
 10 11  0  0  0  0  0  0  0  0999 V2000
   19.4796  -17.0651    2.9904 N   0  0  0  0  0  0  0  0  0  0  0  0
   18.8131  -18.1873    2.7082 C   0  0  0  0  0  0  0  0  0  0  0  0
   18.5233  -19.2027    3.5193 N   0  0  0  0  0  0  0  0  0  0  0  0
   18.9808  -18.9661    4.7695 C   0  0  0  0  0  0  0  0  0  0  0  0
   19.6705  -17.8528    5.2069 C   0  0  0  0  0  0  0  0  0  0  0  0
   19.9242  -16.8669    4.2487 C   0  0  0  0  0  0  0  0  0  0  0  0
   20.5915  -15.7653    4.5524 N   0  0  0  0  0  0  0  0  0  0  0  0
   20.0006  -17.9321    6.5399 N   0  0  0  0  0  0  0  0  0  0  0  0
   19.4748  -19.0877    6.9027 C   0  0  0  0  0  0  0  0  0  0  0  0
   18.8561  -19.7655    5.8745 N   0  0  0  0  0  0  0  0  0  0  0  0
  1  2  2  0  0  0  0
  2  3  1  0  0  0  0
  3  4  2  0  0  0  0
  5  4  1  0  0  0  0
  5  6  2  0  0  0  0
  6  1  1  0  0  0  0
  6  7  1  0  0  0  0
  8  5  1  0  0  0  0
  9  8  1  0  0  0  0
 10  4  1  0  0  0  0
 10  9  2  0  0  0  0
M  END
>  <CHROM.1>
19.43149213,-18.06854538,4.72966824,1.40168686,-1.03930855,-1.09231076

>  <Name>
1y26_lig

>  <RI>
0

>  <Rbt.Current_Directory>
/home/afrankz/demos/rdock_decoys_rna/rnas/1y26

>  <Rbt.Executable>
rbdock ($Id: //depot/dev/client3/rdock/2013.1/src/exe/rbdock.cxx#4 $)

>  <Rbt.Library>
libRbt.so (2013.1, Build901 2013/11/27)

>  <Rbt.Parameter_File>
/export/apps/rDock/src/rDock_2013.1_src/data/scripts/dock_solv.prm

>  <Rbt.Receptor>
prm/pocket_docking_5.prm

>  <SCORE>
-26.6199

>  <SCORE.INTER>
-26.6199

>  <SCORE.INTER.CONST>
1

>  <SCORE.INTER.POLAR>
-2.0198

>  <SCORE.INTER.ROT>
0

>  <SCORE.INTER.SOLV>
12.7532

>  <SCORE.INTER.VDW>
-18.865

>  <SCORE.INTER.norm>
-2.66199

>  <SCORE.INTRA>
0

>  <SCORE.INTRA.DIHEDRAL>
0

>  <SCORE.INTRA.DIHEDRAL.0>
0

>  <SCORE.INTRA.POLAR>
0

>  <SCORE.INTRA.POLAR.0>
0

>  <SCORE.INTRA.REPUL>
0

>  <SCORE.INTRA.REPUL.0>
0

>  <SCORE.INTRA.SOLV>
0

>  <SCORE.INTRA.SOLV.lig_0>
-16.9472

>  <SCORE.INTRA.VDW>
0

>  <SCORE.INTRA.VDW.0>
0

>  <SCORE.INTRA.norm>
0

>  <SCORE.RESTR>
0

>  <SCORE.RESTR.CAVITY>
0

>  <SCORE.RESTR.norm>
0

>  <SCORE.SYSTEM>
0

>  <SCORE.SYSTEM.CONST>
0

>  <SCORE.SYSTEM.DIHEDRAL>
0

>  <SCORE.SYSTEM.SOLV>
0

>  <SCORE.SYSTEM.norm>
0

>  <SCORE.heavy>
10

>  <SCORE.norm>
-2.66199

>  <RMSD>
0.680

$$$$
1y26_lig
 OpenBabel02141814133D
libRbt.so/2013.1/901 2013/11/27
 10 11  0  0  0  0  0  0  0  0999 V2000
   19.5808  -17.0318    2.9992 N   0  0  0  0  0  0  0  0  0  0  0  0
   18.8942  -18.1336    2.6865 C   0  0  0  0  0  0  0  0  0  0  0  0
   18.5589  -19.1509    3.4774 N   0  0  0  0  0  0  0  0  0  0  0  0
   18.9900  -18.9404    4.7416 C   0  0  0  0  0  0  0  0  0  0  0  0
   19.6954  -17.8499    5.2099 C   0  0  0  0  0  0  0  0  0  0  0  0
   19.9978  -16.8595    4.2707 C   0  0  0  0  0  0  0  0  0  0  0  0
   20.6841  -15.7785    4.6048 N   0  0  0  0  0  0  0  0  0  0  0  0
   19.9893  -17.9530    6.5498 N   0  0  0  0  0  0  0  0  0  0  0  0
   19.4261  -19.0993    6.8849 C   0  0  0  0  0  0  0  0  0  0  0  0
   18.8173  -19.7493    5.8331 N   0  0  0  0  0  0  0  0  0  0  0  0
  1  2  2  0  0  0  0
  2  3  1  0  0  0  0
  3  4  2  0  0  0  0
  5  4  1  0  0  0  0
  5  6  2  0  0  0  0
  6  1  1  0  0  0  0
  6  7  1  0  0  0  0
  8  5  1  0  0  0  0
  9  8  1  0  0  0  0
 10  4  1  0  0  0  0
 10  9  2  0  0  0  0
M  END
>  <CHROM.1>
19.46351218,-18.05396488,4.72421822,1.33570912,-1.02822050,-1.13698060

>  <Name>
1y26_lig

>  <RI>
224

>  <Rbt.Current_Directory>
/home/afrankz/demos/rdock_decoys_rna/rnas/1y26

>  <Rbt.Executable>
rbdock ($Id: //depot/dev/client3/rdock/2013.1/src/exe/rbdock.cxx#4 $)

>  <Rbt.Library>
libRbt.so (2013.1, Build901 2013/11/27)

>  <Rbt.Parameter_File>
/export/apps/rDock/src/rDock_2013.1_src/data/scripts/dock_solv.prm

>  <Rbt.Receptor>
prm/pocket_docking_7.prm

>  <SCORE>
-26.6216

>  <SCORE.INTER>
-26.6216

>  <SCORE.INTER.CONST>
1

>  <SCORE.INTER.POLAR>
-2.0198

>  <SCORE.INTER.ROT>
0

>  <SCORE.INTER.SOLV>
12.5852

>  <SCORE.INTER.VDW>
-18.8101

>  <SCORE.INTER.norm>
-2.66216

>  <SCORE.INTRA>
0

>  <SCORE.INTRA.DIHEDRAL>
0

>  <SCORE.INTRA.DIHEDRAL.0>
0

>  <SCORE.INTRA.POLAR>
0

>  <SCORE.INTRA.POLAR.0>
0

>  <SCORE.INTRA.REPUL>
0

>  <SCORE.INTRA.REPUL.0>
0

>  <SCORE.INTRA.SOLV>
0

>  <SCORE.INTRA.SOLV.lig_0>
-16.9472

>  <SCORE.INTRA.VDW>
0

>  <SCORE.INTRA.VDW.0>
0

>  <SCORE.INTRA.norm>
0

>  <SCORE.RESTR>
0

>  <SCORE.RESTR.CAVITY>
0

>  <SCORE.RESTR.norm>
0

>  <SCORE.SYSTEM>
0

>  <SCORE.SYSTEM.CONST>
0

>  <SCORE.SYSTEM.DIHEDRAL>
0

>  <SCORE.SYSTEM.SOLV>
0

>  <SCORE.SYSTEM.norm>
0

>  <SCORE.heavy>
10

>  <SCORE.norm>
-2.66216

>  <RMSD>
0.680

$$$$
1y26_lig
 OpenBabel02141814133D
libRbt.so/2013.1/901 2013/11/27
 10 11  0  0  0  0  0  0  0  0999 V2000
   19.4948  -17.0141    3.0116 N   0  0  0  0  0  0  0  0  0  0  0  0
   18.8117  -18.1199    2.7054 C   0  0  0  0  0  0  0  0  0  0  0  0
   18.5072  -19.1485    3.4943 N   0  0  0  0  0  0  0  0  0  0  0  0
   18.9686  -18.9461    4.7491 C   0  0  0  0  0  0  0  0  0  0  0  0
   19.6747  -17.8529    5.2102 C   0  0  0  0  0  0  0  0  0  0  0  0
   19.9426  -16.8501    4.2736 C   0  0  0  0  0  0  0  0  0  0  0  0
   20.6262  -15.7653    4.6010 N   0  0  0  0  0  0  0  0  0  0  0  0
   20.0041  -17.9662    6.5410 N   0  0  0  0  0  0  0  0  0  0  0  0
   19.4614  -19.1216    6.8788 C   0  0  0  0  0  0  0  0  0  0  0  0
   18.8324  -19.7675    5.8363 N   0  0  0  0  0  0  0  0  0  0  0  0
  1  2  2  0  0  0  0
  2  3  1  0  0  0  0
  3  4  2  0  0  0  0
  5  4  1  0  0  0  0
  5  6  2  0  0  0  0
  6  1  1  0  0  0  0
  6  7  1  0  0  0  0
  8  5  1  0  0  0  0
  9  8  1  0  0  0  0
 10  4  1  0  0  0  0
 10  9  2  0  0  0  0
M  END
>  <CHROM.1>
19.43243708,-18.05454902,4.72856500,1.38915718,-1.02602678,-1.08118631

>  <Name>
1y26_lig

>  <RI>
0

>  <Rbt.Current_Directory>
/home/afrankz/demos/rdock_decoys_rna/rnas/1y26

>  <Rbt.Executable>
rbdock ($Id: //depot/dev/client3/rdock/2013.1/src/exe/rbdock.cxx#4 $)

>  <Rbt.Library>
libRbt.so (2013.1, Build901 2013/11/27)

>  <Rbt.Parameter_File>
/export/apps/rDock/src/rDock_2013.1_src/data/scripts/dock_solv.prm

>  <Rbt.Receptor>
prm/blind_docking_60.prm

>  <SCORE>
-26.6865

>  <SCORE.INTER>
-26.6865

>  <SCORE.INTER.CONST>
1

>  <SCORE.INTER.POLAR>
-2.0198

>  <SCORE.INTER.ROT>
0

>  <SCORE.INTER.SOLV>
12.7611

>  <SCORE.INTER.VDW>
-18.9121

>  <SCORE.INTER.norm>
-2.66865

>  <SCORE.INTRA>
0

>  <SCORE.INTRA.DIHEDRAL>
0

>  <SCORE.INTRA.DIHEDRAL.0>
0

>  <SCORE.INTRA.POLAR>
0

>  <SCORE.INTRA.POLAR.0>
0

>  <SCORE.INTRA.REPUL>
0

>  <SCORE.INTRA.REPUL.0>
0

>  <SCORE.INTRA.SOLV>
0

>  <SCORE.INTRA.SOLV.lig_0>
-16.9472

>  <SCORE.INTRA.VDW>
0

>  <SCORE.INTRA.VDW.0>
0

>  <SCORE.INTRA.norm>
0

>  <SCORE.RESTR>
0

>  <SCORE.RESTR.CAVITY>
0

>  <SCORE.RESTR.norm>
0

>  <SCORE.SYSTEM>
0

>  <SCORE.SYSTEM.CONST>
0

>  <SCORE.SYSTEM.DIHEDRAL>
0

>  <SCORE.SYSTEM.SOLV>
0

>  <SCORE.SYSTEM.norm>
0

>  <SCORE.heavy>
10

>  <SCORE.norm>
-2.66865

>  <RMSD>
0.682

$$$$
1y26_lig
 OpenBabel02141814133D
libRbt.so/2013.1/901 2013/11/27
 10 11  0  0  0  0  0  0  0  0999 V2000
   19.5872  -17.0056    3.0134 N   0  0  0  0  0  0  0  0  0  0  0  0
   18.8672  -18.0863    2.7023 C   0  0  0  0  0  0  0  0  0  0  0  0
   18.5084  -19.0961    3.4925 N   0  0  0  0  0  0  0  0  0  0  0  0
   18.9542  -18.9022    4.7542 C   0  0  0  0  0  0  0  0  0  0  0  0
   19.6938  -17.8338    5.2208 C   0  0  0  0  0  0  0  0  0  0  0  0
   20.0179  -16.8494    4.2824 C   0  0  0  0  0  0  0  0  0  0  0  0
   20.7372  -15.7896    4.6149 N   0  0  0  0  0  0  0  0  0  0  0  0
   19.9940  -17.9496    6.5583 N   0  0  0  0  0  0  0  0  0  0  0  0
   19.4005  -19.0803    6.8939 C   0  0  0  0  0  0  0  0  0  0  0  0
   18.7660  -19.7093    5.8444 N   0  0  0  0  0  0  0  0  0  0  0  0
  1  2  2  0  0  0  0
  2  3  1  0  0  0  0
  3  4  2  0  0  0  0
  5  4  1  0  0  0  0
  5  6  2  0  0  0  0
  6  1  1  0  0  0  0
  6  7  1  0  0  0  0
  8  5  1  0  0  0  0
  9  8  1  0  0  0  0
 10  4  1  0  0  0  0
 10  9  2  0  0  0  0
M  END
>  <CHROM.1>
19.45274408,-18.02957324,4.73613694,1.32515735,-0.99926629,-1.14283558

>  <Name>
1y26_lig

>  <RI>
0

>  <Rbt.Current_Directory>
/home/afrankz/demos/rdock_decoys_rna/rnas/1y26

>  <Rbt.Executable>
rbdock ($Id: //depot/dev/client3/rdock/2013.1/src/exe/rbdock.cxx#4 $)

>  <Rbt.Library>
libRbt.so (2013.1, Build901 2013/11/27)

>  <Rbt.Parameter_File>
/export/apps/rDock/src/rDock_2013.1_src/data/scripts/dock_solv.prm

>  <Rbt.Receptor>
prm/blind_docking_60.prm

>  <SCORE>
-26.6159

>  <SCORE.INTER>
-26.6159

>  <SCORE.INTER.CONST>
1

>  <SCORE.INTER.POLAR>
-2.0198

>  <SCORE.INTER.ROT>
0

>  <SCORE.INTER.SOLV>
12.5064

>  <SCORE.INTER.VDW>
-18.78

>  <SCORE.INTER.norm>
-2.66159

>  <SCORE.INTRA>
0

>  <SCORE.INTRA.DIHEDRAL>
0

>  <SCORE.INTRA.DIHEDRAL.0>
0

>  <SCORE.INTRA.POLAR>
0

>  <SCORE.INTRA.POLAR.0>
0

>  <SCORE.INTRA.REPUL>
0

>  <SCORE.INTRA.REPUL.0>
0

>  <SCORE.INTRA.SOLV>
0

>  <SCORE.INTRA.SOLV.lig_0>
-16.9472

>  <SCORE.INTRA.VDW>
0

>  <SCORE.INTRA.VDW.0>
0

>  <SCORE.INTRA.norm>
0

>  <SCORE.RESTR>
0

>  <SCORE.RESTR.CAVITY>
0

>  <SCORE.RESTR.norm>
0

>  <SCORE.SYSTEM>
0

>  <SCORE.SYSTEM.CONST>
0

>  <SCORE.SYSTEM.DIHEDRAL>
0

>  <SCORE.SYSTEM.SOLV>
0

>  <SCORE.SYSTEM.norm>
0

>  <SCORE.heavy>
10

>  <SCORE.norm>
-2.66159

>  <RMSD>
0.683

$$$$
1y26_lig
 OpenBabel02141814133D
libRbt.so/2013.1/901 2013/11/27
 10 11  0  0  0  0  0  0  0  0999 V2000
   19.5506  -17.0322    3.0073 N   0  0  0  0  0  0  0  0  0  0  0  0
   18.8513  -18.1282    2.7026 C   0  0  0  0  0  0  0  0  0  0  0  0
   18.5227  -19.1460    3.4957 N   0  0  0  0  0  0  0  0  0  0  0  0
   18.9769  -18.9430    4.7529 C   0  0  0  0  0  0  0  0  0  0  0  0
   19.6976  -17.8589    5.2129 C   0  0  0  0  0  0  0  0  0  0  0  0
   19.9906  -16.8672    4.2720 C   0  0  0  0  0  0  0  0  0  0  0  0
   20.6898  -15.7921    4.5980 N   0  0  0  0  0  0  0  0  0  0  0  0
   20.0138  -17.9689    6.5471 N   0  0  0  0  0  0  0  0  0  0  0  0
   19.4486  -19.1125    6.8879 C   0  0  0  0  0  0  0  0  0  0  0  0
   18.8175  -19.7547    5.8444 N   0  0  0  0  0  0  0  0  0  0  0  0
  1  2  2  0  0  0  0
  2  3  1  0  0  0  0
  3  4  2  0  0  0  0
  5  4  1  0  0  0  0
  5  6  2  0  0  0  0
  6  1  1  0  0  0  0
  6  7  1  0  0  0  0
  8  5  1  0  0  0  0
  9  8  1  0  0  0  0
 10  4  1  0  0  0  0
 10  9  2  0  0  0  0
M  END
>  <CHROM.1>
19.45603109,-18.05973162,4.73052493,1.35982747,-1.01472615,-1.11287787

>  <Name>
1y26_lig

>  <RI>
224

>  <Rbt.Current_Directory>
/home/afrankz/demos/rdock_decoys_rna/rnas/1y26

>  <Rbt.Executable>
rbdock ($Id: //depot/dev/client3/rdock/2013.1/src/exe/rbdock.cxx#4 $)

>  <Rbt.Library>
libRbt.so (2013.1, Build901 2013/11/27)

>  <Rbt.Parameter_File>
/export/apps/rDock/src/rDock_2013.1_src/data/scripts/dock_solv.prm

>  <Rbt.Receptor>
prm/pocket_docking_3.prm

>  <SCORE>
-26.6535

>  <SCORE.INTER>
-26.6535

>  <SCORE.INTER.CONST>
1

>  <SCORE.INTER.POLAR>
-2.0198

>  <SCORE.INTER.ROT>
0

>  <SCORE.INTER.SOLV>
12.6082

>  <SCORE.INTER.VDW>
-18.8391

>  <SCORE.INTER.norm>
-2.66535

>  <SCORE.INTRA>
0

>  <SCORE.INTRA.DIHEDRAL>
0

>  <SCORE.INTRA.DIHEDRAL.0>
0

>  <SCORE.INTRA.POLAR>
0

>  <SCORE.INTRA.POLAR.0>
0

>  <SCORE.INTRA.REPUL>
0

>  <SCORE.INTRA.REPUL.0>
0

>  <SCORE.INTRA.SOLV>
0

>  <SCORE.INTRA.SOLV.lig_0>
-16.9472

>  <SCORE.INTRA.VDW>
0

>  <SCORE.INTRA.VDW.0>
0

>  <SCORE.INTRA.norm>
0

>  <SCORE.RESTR>
0

>  <SCORE.RESTR.CAVITY>
0

>  <SCORE.RESTR.norm>
0

>  <SCORE.SYSTEM>
0

>  <SCORE.SYSTEM.CONST>
0

>  <SCORE.SYSTEM.DIHEDRAL>
0

>  <SCORE.SYSTEM.SOLV>
0

>  <SCORE.SYSTEM.norm>
0

>  <SCORE.heavy>
10

>  <SCORE.norm>
-2.66535

>  <RMSD>
0.683

$$$$
1y26_lig
 OpenBabel02141814133D
libRbt.so/2013.1/901 2013/11/27
 10 11  0  0  0  0  0  0  0  0999 V2000
   19.5259  -17.0305    3.0084 N   0  0  0  0  0  0  0  0  0  0  0  0
   18.8314  -18.1311    2.7090 C   0  0  0  0  0  0  0  0  0  0  0  0
   18.5109  -19.1485    3.5058 N   0  0  0  0  0  0  0  0  0  0  0  0
   18.9683  -18.9398    4.7610 C   0  0  0  0  0  0  0  0  0  0  0  0
   19.6848  -17.8506    5.2156 C   0  0  0  0  0  0  0  0  0  0  0  0
   19.9692  -16.8599    4.2712 C   0  0  0  0  0  0  0  0  0  0  0  0
   20.6638  -15.7801    4.5920 N   0  0  0  0  0  0  0  0  0  0  0  0
   20.0060  -17.9553    6.5491 N   0  0  0  0  0  0  0  0  0  0  0  0
   19.4482  -19.1011    6.8948 C   0  0  0  0  0  0  0  0  0  0  0  0
   18.8170  -19.7493    5.8552 N   0  0  0  0  0  0  0  0  0  0  0  0
  1  2  2  0  0  0  0
  2  3  1  0  0  0  0
  3  4  2  0  0  0  0
  5  4  1  0  0  0  0
  5  6  2  0  0  0  0
  6  1  1  0  0  0  0
  6  7  1  0  0  0  0
  8  5  1  0  0  0  0
  9  8  1  0  0  0  0
 10  4  1  0  0  0  0
 10  9  2  0  0  0  0
M  END
>  <CHROM.1>
19.44262142,-18.05398852,4.73465178,1.37010544,-1.01800398,-1.10678845

>  <Name>
1y26_lig

>  <RI>
0

>  <Rbt.Current_Directory>
/home/afrankz/demos/rdock_decoys_rna/rnas/1y26

>  <Rbt.Executable>
rbdock ($Id: //depot/dev/client3/rdock/2013.1/src/exe/rbdock.cxx#4 $)

>  <Rbt.Library>
libRbt.so (2013.1, Build901 2013/11/27)

>  <Rbt.Parameter_File>
/export/apps/rDock/src/rDock_2013.1_src/data/scripts/dock_solv.prm

>  <Rbt.Receptor>
prm/blind_docking_60.prm

>  <SCORE>
-26.6814

>  <SCORE.INTER>
-26.6814

>  <SCORE.INTER.CONST>
1

>  <SCORE.INTER.POLAR>
-2.0198

>  <SCORE.INTER.ROT>
0

>  <SCORE.INTER.SOLV>
12.6587

>  <SCORE.INTER.VDW>
-18.8745

>  <SCORE.INTER.norm>
-2.66814

>  <SCORE.INTRA>
0

>  <SCORE.INTRA.DIHEDRAL>
0

>  <SCORE.INTRA.DIHEDRAL.0>
0

>  <SCORE.INTRA.POLAR>
0

>  <SCORE.INTRA.POLAR.0>
0

>  <SCORE.INTRA.REPUL>
0

>  <SCORE.INTRA.REPUL.0>
0

>  <SCORE.INTRA.SOLV>
0

>  <SCORE.INTRA.SOLV.lig_0>
-16.9472

>  <SCORE.INTRA.VDW>
0

>  <SCORE.INTRA.VDW.0>
0

>  <SCORE.INTRA.norm>
0

>  <SCORE.RESTR>
0

>  <SCORE.RESTR.CAVITY>
0

>  <SCORE.RESTR.norm>
0

>  <SCORE.SYSTEM>
0

>  <SCORE.SYSTEM.CONST>
0

>  <SCORE.SYSTEM.DIHEDRAL>
0

>  <SCORE.SYSTEM.SOLV>
0

>  <SCORE.SYSTEM.norm>
0

>  <SCORE.heavy>
10

>  <SCORE.norm>
-2.66814

>  <RMSD>
0.684

$$$$
1y26_lig
 OpenBabel02141814133D
libRbt.so/2013.1/901 2013/11/27
 10 11  0  0  0  0  0  0  0  0999 V2000
   19.5035  -17.0310    3.0061 N   0  0  0  0  0  0  0  0  0  0  0  0
   18.8192  -18.1403    2.7160 C   0  0  0  0  0  0  0  0  0  0  0  0
   18.5134  -19.1568    3.5198 N   0  0  0  0  0  0  0  0  0  0  0  0
   18.9748  -18.9366    4.7715 C   0  0  0  0  0  0  0  0  0  0  0  0
   19.6821  -17.8376    5.2167 C   0  0  0  0  0  0  0  0  0  0  0  0
   19.9514  -16.8489    4.2656 C   0  0  0  0  0  0  0  0  0  0  0  0
   20.6362  -15.7603    4.5772 N   0  0  0  0  0  0  0  0  0  0  0  0
   20.0111  -17.9318    6.5491 N   0  0  0  0  0  0  0  0  0  0  0  0
   19.4671  -19.0814    6.9037 C   0  0  0  0  0  0  0  0  0  0  0  0
   18.8375  -19.7418    5.8707 N   0  0  0  0  0  0  0  0  0  0  0  0
  1  2  2  0  0  0  0
  2  3  1  0  0  0  0
  3  4  2  0  0  0  0
  5  4  1  0  0  0  0
  5  6  2  0  0  0  0
  6  1  1  0  0  0  0
  6  7  1  0  0  0  0
  8  5  1  0  0  0  0
  9  8  1  0  0  0  0
 10  4  1  0  0  0  0
 10  9  2  0  0  0  0
M  END
>  <CHROM.1>
19.43968178,-18.04603098,4.73807308,1.38782656,-1.02507788,-1.09698637

>  <Name>
1y26_lig

>  <RI>
0

>  <Rbt.Current_Directory>
/home/afrankz/demos/rdock_decoys_rna/rnas/1y26

>  <Rbt.Executable>
rbdock ($Id: //depot/dev/client3/rdock/2013.1/src/exe/rbdock.cxx#4 $)

>  <Rbt.Library>
libRbt.so (2013.1, Build901 2013/11/27)

>  <Rbt.Parameter_File>
/export/apps/rDock/src/rDock_2013.1_src/data/scripts/dock_solv.prm

>  <Rbt.Receptor>
prm/pocket_docking_5.prm

>  <SCORE>
-26.6859

>  <SCORE.INTER>
-26.6859

>  <SCORE.INTER.CONST>
1

>  <SCORE.INTER.POLAR>
-2.0198

>  <SCORE.INTER.ROT>
0

>  <SCORE.INTER.SOLV>
12.7066

>  <SCORE.INTER.VDW>
-18.8935

>  <SCORE.INTER.norm>
-2.66859

>  <SCORE.INTRA>
0

>  <SCORE.INTRA.DIHEDRAL>
0

>  <SCORE.INTRA.DIHEDRAL.0>
0

>  <SCORE.INTRA.POLAR>
0

>  <SCORE.INTRA.POLAR.0>
0

>  <SCORE.INTRA.REPUL>
0

>  <SCORE.INTRA.REPUL.0>
0

>  <SCORE.INTRA.SOLV>
0

>  <SCORE.INTRA.SOLV.lig_0>
-16.9472

>  <SCORE.INTRA.VDW>
0

>  <SCORE.INTRA.VDW.0>
0

>  <SCORE.INTRA.norm>
0

>  <SCORE.RESTR>
0

>  <SCORE.RESTR.CAVITY>
0

>  <SCORE.RESTR.norm>
0

>  <SCORE.SYSTEM>
0

>  <SCORE.SYSTEM.CONST>
0

>  <SCORE.SYSTEM.DIHEDRAL>
0

>  <SCORE.SYSTEM.SOLV>
0

>  <SCORE.SYSTEM.norm>
0

>  <SCORE.heavy>
10

>  <SCORE.norm>
-2.66859

>  <RMSD>
0.685

$$$$
1y26_lig
 OpenBabel02141814133D
libRbt.so/2013.1/901 2013/11/27
 10 11  0  0  0  0  0  0  0  0999 V2000
   19.5937  -16.9945    3.0217 N   0  0  0  0  0  0  0  0  0  0  0  0
   18.8724  -18.0706    2.6977 C   0  0  0  0  0  0  0  0  0  0  0  0
   18.5119  -19.0891    3.4760 N   0  0  0  0  0  0  0  0  0  0  0  0
   18.9575  -18.9104    4.7400 C   0  0  0  0  0  0  0  0  0  0  0  0
   19.6984  -17.8484    5.2193 C   0  0  0  0  0  0  0  0  0  0  0  0
   20.0241  -16.8536    4.2925 C   0  0  0  0  0  0  0  0  0  0  0  0
   20.7446  -15.7987    4.6376 N   0  0  0  0  0  0  0  0  0  0  0  0
   19.9979  -17.9802    6.5554 N   0  0  0  0  0  0  0  0  0  0  0  0
   19.4029  -19.1140    6.8777 C   0  0  0  0  0  0  0  0  0  0  0  0
   18.7680  -19.7299    5.8207 N   0  0  0  0  0  0  0  0  0  0  0  0
  1  2  2  0  0  0  0
  2  3  1  0  0  0  0
  3  4  2  0  0  0  0
  5  4  1  0  0  0  0
  5  6  2  0  0  0  0
  6  1  1  0  0  0  0
  6  7  1  0  0  0  0
  8  5  1  0  0  0  0
  9  8  1  0  0  0  0
 10  4  1  0  0  0  0
 10  9  2  0  0  0  0
M  END
>  <CHROM.1>
19.45725658,-18.03827123,4.73230034,1.32355430,-0.99823909,-1.13254605

>  <Name>
1y26_lig

>  <RI>
0

>  <Rbt.Current_Directory>
/home/afrankz/demos/rdock_decoys_rna/rnas/1y26

>  <Rbt.Executable>
rbdock ($Id: //depot/dev/client3/rdock/2013.1/src/exe/rbdock.cxx#4 $)

>  <Rbt.Library>
libRbt.so (2013.1, Build901 2013/11/27)

>  <Rbt.Parameter_File>
/export/apps/rDock/src/rDock_2013.1_src/data/scripts/dock_solv.prm

>  <Rbt.Receptor>
prm/blind_docking_40.prm

>  <SCORE>
-26.6478

>  <SCORE.INTER>
-26.6478

>  <SCORE.INTER.CONST>
1

>  <SCORE.INTER.POLAR>
-2.0198

>  <SCORE.INTER.ROT>
0

>  <SCORE.INTER.SOLV>
12.5207

>  <SCORE.INTER.VDW>
-18.8061

>  <SCORE.INTER.norm>
-2.66478

>  <SCORE.INTRA>
0

>  <SCORE.INTRA.DIHEDRAL>
0

>  <SCORE.INTRA.DIHEDRAL.0>
0

>  <SCORE.INTRA.POLAR>
0

>  <SCORE.INTRA.POLAR.0>
0

>  <SCORE.INTRA.REPUL>
0

>  <SCORE.INTRA.REPUL.0>
0

>  <SCORE.INTRA.SOLV>
0

>  <SCORE.INTRA.SOLV.lig_0>
-16.9472

>  <SCORE.INTRA.VDW>
0

>  <SCORE.INTRA.VDW.0>
0

>  <SCORE.INTRA.norm>
0

>  <SCORE.RESTR>
0

>  <SCORE.RESTR.CAVITY>
0

>  <SCORE.RESTR.norm>
0

>  <SCORE.SYSTEM>
0

>  <SCORE.SYSTEM.CONST>
0

>  <SCORE.SYSTEM.DIHEDRAL>
0

>  <SCORE.SYSTEM.SOLV>
0

>  <SCORE.SYSTEM.norm>
0

>  <SCORE.heavy>
10

>  <SCORE.norm>
-2.66478

>  <RMSD>
0.686

$$$$
1y26_lig
 OpenBabel02141814133D
libRbt.so/2013.1/901 2013/11/27
 10 11  0  0  0  0  0  0  0  0999 V2000
   19.5965  -17.0299    3.0040 N   0  0  0  0  0  0  0  0  0  0  0  0
   18.9048  -18.1291    2.6939 C   0  0  0  0  0  0  0  0  0  0  0  0
   18.5559  -19.1382    3.4896 N   0  0  0  0  0  0  0  0  0  0  0  0
   18.9783  -18.9213    4.7556 C   0  0  0  0  0  0  0  0  0  0  0  0
   19.6876  -17.8323    5.2216 C   0  0  0  0  0  0  0  0  0  0  0  0
   20.0045  -16.8510    4.2775 C   0  0  0  0  0  0  0  0  0  0  0  0
   20.6956  -15.7723    4.6092 N   0  0  0  0  0  0  0  0  0  0  0  0
   19.9699  -17.9275    6.5645 N   0  0  0  0  0  0  0  0  0  0  0  0
   19.3960  -19.0673    6.9035 C   0  0  0  0  0  0  0  0  0  0  0  0
   18.7912  -19.7209    5.8516 N   0  0  0  0  0  0  0  0  0  0  0  0
  1  2  2  0  0  0  0
  2  3  1  0  0  0  0
  3  4  2  0  0  0  0
  5  4  1  0  0  0  0
  5  6  2  0  0  0  0
  6  1  1  0  0  0  0
  6  7  1  0  0  0  0
  8  5  1  0  0  0  0
  9  8  1  0  0  0  0
 10  4  1  0  0  0  0
 10  9  2  0  0  0  0
M  END
>  <CHROM.1>
19.45813957,-18.03834138,4.73554338,1.31590486,-1.02517529,-1.16133941

>  <Name>
1y26_lig

>  <RI>
0

>  <Rbt.Current_Directory>
/home/afrankz/demos/rdock_decoys_rna/rnas/1y26

>  <Rbt.Executable>
rbdock ($Id: //depot/dev/client3/rdock/2013.1/src/exe/rbdock.cxx#4 $)

>  <Rbt.Library>
libRbt.so (2013.1, Build901 2013/11/27)

>  <Rbt.Parameter_File>
/export/apps/rDock/src/rDock_2013.1_src/data/scripts/dock_solv.prm

>  <Rbt.Receptor>
prm/blind_docking_60.prm

>  <SCORE>
-26.619

>  <SCORE.INTER>
-26.619

>  <SCORE.INTER.CONST>
1

>  <SCORE.INTER.POLAR>
-2.0198

>  <SCORE.INTER.ROT>
0

>  <SCORE.INTER.SOLV>
12.5372

>  <SCORE.INTER.VDW>
-18.7923

>  <SCORE.INTER.norm>
-2.6619

>  <SCORE.INTRA>
0

>  <SCORE.INTRA.DIHEDRAL>
0

>  <SCORE.INTRA.DIHEDRAL.0>
0

>  <SCORE.INTRA.POLAR>
0

>  <SCORE.INTRA.POLAR.0>
0

>  <SCORE.INTRA.REPUL>
0

>  <SCORE.INTRA.REPUL.0>
0

>  <SCORE.INTRA.SOLV>
0

>  <SCORE.INTRA.SOLV.lig_0>
-16.9472

>  <SCORE.INTRA.VDW>
0

>  <SCORE.INTRA.VDW.0>
0

>  <SCORE.INTRA.norm>
0

>  <SCORE.RESTR>
0

>  <SCORE.RESTR.CAVITY>
0

>  <SCORE.RESTR.norm>
0

>  <SCORE.SYSTEM>
0

>  <SCORE.SYSTEM.CONST>
0

>  <SCORE.SYSTEM.DIHEDRAL>
0

>  <SCORE.SYSTEM.SOLV>
0

>  <SCORE.SYSTEM.norm>
0

>  <SCORE.heavy>
10

>  <SCORE.norm>
-2.6619

>  <RMSD>
0.686

$$$$
1y26_lig
 OpenBabel02141814133D
libRbt.so/2013.1/901 2013/11/27
 10 11  0  0  0  0  0  0  0  0999 V2000
   19.5651  -17.0197    3.0138 N   0  0  0  0  0  0  0  0  0  0  0  0
   18.8549  -18.1082    2.7071 C   0  0  0  0  0  0  0  0  0  0  0  0
   18.5124  -19.1220    3.4994 N   0  0  0  0  0  0  0  0  0  0  0  0
   18.9644  -18.9234    4.7582 C   0  0  0  0  0  0  0  0  0  0  0  0
   19.6954  -17.8471    5.2202 C   0  0  0  0  0  0  0  0  0  0  0  0
   20.0025  -16.8590    4.2799 C   0  0  0  0  0  0  0  0  0  0  0  0
   20.7123  -15.7915    4.6079 N   0  0  0  0  0  0  0  0  0  0  0  0
   20.0057  -17.9598    6.5556 N   0  0  0  0  0  0  0  0  0  0  0  0
   19.4269  -19.0971    6.8949 C   0  0  0  0  0  0  0  0  0  0  0  0
   18.7924  -19.7327    5.8495 N   0  0  0  0  0  0  0  0  0  0  0  0
  1  2  2  0  0  0  0
  2  3  1  0  0  0  0
  3  4  2  0  0  0  0
  5  4  1  0  0  0  0
  5  6  2  0  0  0  0
  6  1  1  0  0  0  0
  6  7  1  0  0  0  0
  8  5  1  0  0  0  0
  9  8  1  0  0  0  0
 10  4  1  0  0  0  0
 10  9  2  0  0  0  0
M  END
>  <CHROM.1>
19.45330719,-18.04540668,4.73706673,1.34496010,-1.00638562,-1.12590926

>  <Name>
1y26_lig

>  <RI>
0

>  <Rbt.Current_Directory>
/home/afrankz/demos/rdock_decoys_rna/rnas/1y26

>  <Rbt.Executable>
rbdock ($Id: //depot/dev/client3/rdock/2013.1/src/exe/rbdock.cxx#4 $)

>  <Rbt.Library>
libRbt.so (2013.1, Build901 2013/11/27)

>  <Rbt.Parameter_File>
/export/apps/rDock/src/rDock_2013.1_src/data/scripts/dock_solv.prm

>  <Rbt.Receptor>
prm/pocket_docking_4.prm

>  <SCORE>
-26.6462

>  <SCORE.INTER>
-26.6462

>  <SCORE.INTER.CONST>
1

>  <SCORE.INTER.POLAR>
-2.0198

>  <SCORE.INTER.ROT>
0

>  <SCORE.INTER.SOLV>
12.5637

>  <SCORE.INTER.VDW>
-18.8193

>  <SCORE.INTER.norm>
-2.66462

>  <SCORE.INTRA>
0

>  <SCORE.INTRA.DIHEDRAL>
0

>  <SCORE.INTRA.DIHEDRAL.0>
0

>  <SCORE.INTRA.POLAR>
0

>  <SCORE.INTRA.POLAR.0>
0

>  <SCORE.INTRA.REPUL>
0

>  <SCORE.INTRA.REPUL.0>
0

>  <SCORE.INTRA.SOLV>
0

>  <SCORE.INTRA.SOLV.lig_0>
-16.9472

>  <SCORE.INTRA.VDW>
0

>  <SCORE.INTRA.VDW.0>
0

>  <SCORE.INTRA.norm>
0

>  <SCORE.RESTR>
0

>  <SCORE.RESTR.CAVITY>
0

>  <SCORE.RESTR.norm>
0

>  <SCORE.SYSTEM>
0

>  <SCORE.SYSTEM.CONST>
0

>  <SCORE.SYSTEM.DIHEDRAL>
0

>  <SCORE.SYSTEM.SOLV>
0

>  <SCORE.SYSTEM.norm>
0

>  <SCORE.heavy>
10

>  <SCORE.norm>
-2.66462

>  <RMSD>
0.686

$$$$
1y26_lig
 OpenBabel02141814133D
libRbt.so/2013.1/901 2013/11/27
 10 11  0  0  0  0  0  0  0  0999 V2000
   19.5682  -17.0103    3.0187 N   0  0  0  0  0  0  0  0  0  0  0  0
   18.8620  -18.0996    2.7060 C   0  0  0  0  0  0  0  0  0  0  0  0
   18.5174  -19.1158    3.4943 N   0  0  0  0  0  0  0  0  0  0  0  0
   18.9620  -18.9189    4.7559 C   0  0  0  0  0  0  0  0  0  0  0  0
   19.6882  -17.8419    5.2241 C   0  0  0  0  0  0  0  0  0  0  0  0
   19.9982  -16.8513    4.2876 C   0  0  0  0  0  0  0  0  0  0  0  0
   20.7039  -15.7828    4.6217 N   0  0  0  0  0  0  0  0  0  0  0  0
   19.9914  -17.9567    6.5610 N   0  0  0  0  0  0  0  0  0  0  0  0
   19.4132  -19.0959    6.8947 C   0  0  0  0  0  0  0  0  0  0  0  0
   18.7858  -19.7308    5.8446 N   0  0  0  0  0  0  0  0  0  0  0  0
  1  2  2  0  0  0  0
  2  3  1  0  0  0  0
  3  4  2  0  0  0  0
  5  4  1  0  0  0  0
  5  6  2  0  0  0  0
  6  1  1  0  0  0  0
  6  7  1  0  0  0  0
  8  5  1  0  0  0  0
  9  8  1  0  0  0  0
 10  4  1  0  0  0  0
 10  9  2  0  0  0  0
M  END
>  <CHROM.1>
19.44912613,-18.03976581,4.73928086,1.33738219,-1.01069482,-1.13026942

>  <Name>
1y26_lig

>  <RI>
224

>  <Rbt.Current_Directory>
/home/afrankz/demos/rdock_decoys_rna/rnas/1y26

>  <Rbt.Executable>
rbdock ($Id: //depot/dev/client3/rdock/2013.1/src/exe/rbdock.cxx#4 $)

>  <Rbt.Library>
libRbt.so (2013.1, Build901 2013/11/27)

>  <Rbt.Parameter_File>
/export/apps/rDock/src/rDock_2013.1_src/data/scripts/dock_solv.prm

>  <Rbt.Receptor>
prm/blind_docking_80.prm

>  <SCORE>
-26.6077

>  <SCORE.INTER>
-26.6077

>  <SCORE.INTER.CONST>
1

>  <SCORE.INTER.POLAR>
-2.0198

>  <SCORE.INTER.ROT>
0

>  <SCORE.INTER.SOLV>
12.5797

>  <SCORE.INTER.VDW>
-18.799

>  <SCORE.INTER.norm>
-2.66077

>  <SCORE.INTRA>
0

>  <SCORE.INTRA.DIHEDRAL>
0

>  <SCORE.INTRA.DIHEDRAL.0>
0

>  <SCORE.INTRA.POLAR>
0

>  <SCORE.INTRA.POLAR.0>
0

>  <SCORE.INTRA.REPUL>
0

>  <SCORE.INTRA.REPUL.0>
0

>  <SCORE.INTRA.SOLV>
0

>  <SCORE.INTRA.SOLV.lig_0>
-16.9472

>  <SCORE.INTRA.VDW>
0

>  <SCORE.INTRA.VDW.0>
0

>  <SCORE.INTRA.norm>
0

>  <SCORE.RESTR>
0

>  <SCORE.RESTR.CAVITY>
0

>  <SCORE.RESTR.norm>
0

>  <SCORE.SYSTEM>
0

>  <SCORE.SYSTEM.CONST>
0

>  <SCORE.SYSTEM.DIHEDRAL>
0

>  <SCORE.SYSTEM.SOLV>
0

>  <SCORE.SYSTEM.norm>
0

>  <SCORE.heavy>
10

>  <SCORE.norm>
-2.66077

>  <RMSD>
0.688

$$$$
1y26_lig
 OpenBabel02141814133D
libRbt.so/2013.1/901 2013/11/27
 10 11  0  0  0  0  0  0  0  0999 V2000
   19.5039  -17.0229    3.0117 N   0  0  0  0  0  0  0  0  0  0  0  0
   18.8233  -18.1329    2.7153 C   0  0  0  0  0  0  0  0  0  0  0  0
   18.5169  -19.1529    3.5145 N   0  0  0  0  0  0  0  0  0  0  0  0
   18.9732  -18.9358    4.7687 C   0  0  0  0  0  0  0  0  0  0  0  0
   19.6762  -17.8367    5.2202 C   0  0  0  0  0  0  0  0  0  0  0  0
   19.9466  -16.8441    4.2735 C   0  0  0  0  0  0  0  0  0  0  0  0
   20.6276  -15.7549    4.5913 N   0  0  0  0  0  0  0  0  0  0  0  0
   20.0005  -17.9346    6.5535 N   0  0  0  0  0  0  0  0  0  0  0  0
   19.4579  -19.0868    6.9021 C   0  0  0  0  0  0  0  0  0  0  0  0
   18.8337  -19.7451    5.8645 N   0  0  0  0  0  0  0  0  0  0  0  0
  1  2  2  0  0  0  0
  2  3  1  0  0  0  0
  3  4  2  0  0  0  0
  5  4  1  0  0  0  0
  5  6  2  0  0  0  0
  6  1  1  0  0  0  0
  6  7  1  0  0  0  0
  8  5  1  0  0  0  0
  9  8  1  0  0  0  0
 10  4  1  0  0  0  0
 10  9  2  0  0  0  0
M  END
>  <CHROM.1>
19.43605598,-18.04403652,4.73995206,1.38354947,-1.02889392,-1.09722005

>  <Name>
1y26_lig

>  <RI>
0

>  <Rbt.Current_Directory>
/home/afrankz/demos/rdock_decoys_rna/rnas/1y26

>  <Rbt.Executable>
rbdock ($Id: //depot/dev/client3/rdock/2013.1/src/exe/rbdock.cxx#4 $)

>  <Rbt.Library>
libRbt.so (2013.1, Build901 2013/11/27)

>  <Rbt.Parameter_File>
/export/apps/rDock/src/rDock_2013.1_src/data/scripts/dock_solv.prm

>  <Rbt.Receptor>
prm/pocket_docking_4.prm

>  <SCORE>
-26.6831

>  <SCORE.INTER>
-26.6831

>  <SCORE.INTER.CONST>
1

>  <SCORE.INTER.POLAR>
-2.0198

>  <SCORE.INTER.ROT>
0

>  <SCORE.INTER.SOLV>
12.7281

>  <SCORE.INTER.VDW>
-18.8988

>  <SCORE.INTER.norm>
-2.66831

>  <SCORE.INTRA>
0

>  <SCORE.INTRA.DIHEDRAL>
0

>  <SCORE.INTRA.DIHEDRAL.0>
0

>  <SCORE.INTRA.POLAR>
0

>  <SCORE.INTRA.POLAR.0>
0

>  <SCORE.INTRA.REPUL>
0

>  <SCORE.INTRA.REPUL.0>
0

>  <SCORE.INTRA.SOLV>
0

>  <SCORE.INTRA.SOLV.lig_0>
-16.9472

>  <SCORE.INTRA.VDW>
0

>  <SCORE.INTRA.VDW.0>
0

>  <SCORE.INTRA.norm>
0

>  <SCORE.RESTR>
0

>  <SCORE.RESTR.CAVITY>
0

>  <SCORE.RESTR.norm>
0

>  <SCORE.SYSTEM>
0

>  <SCORE.SYSTEM.CONST>
0

>  <SCORE.SYSTEM.DIHEDRAL>
0

>  <SCORE.SYSTEM.SOLV>
0

>  <SCORE.SYSTEM.norm>
0

>  <SCORE.heavy>
10

>  <SCORE.norm>
-2.66831

>  <RMSD>
0.688

$$$$
1y26_lig
 OpenBabel02141814133D
libRbt.so/2013.1/901 2013/11/27
 10 11  0  0  0  0  0  0  0  0999 V2000
   19.5077  -17.0040    3.0106 N   0  0  0  0  0  0  0  0  0  0  0  0
   18.8425  -18.1223    2.7106 C   0  0  0  0  0  0  0  0  0  0  0  0
   18.5470  -19.1473    3.5074 N   0  0  0  0  0  0  0  0  0  0  0  0
   18.9964  -18.9260    4.7633 C   0  0  0  0  0  0  0  0  0  0  0  0
   19.6836  -17.8184    5.2186 C   0  0  0  0  0  0  0  0  0  0  0  0
   19.9440  -16.8212    4.2741 C   0  0  0  0  0  0  0  0  0  0  0  0
   20.6098  -15.7237    4.5955 N   0  0  0  0  0  0  0  0  0  0  0  0
   20.0049  -17.9140    6.5528 N   0  0  0  0  0  0  0  0  0  0  0  0
   19.4762  -19.0736    6.8981 C   0  0  0  0  0  0  0  0  0  0  0  0
   18.8640  -19.7386    5.8577 N   0  0  0  0  0  0  0  0  0  0  0  0
  1  2  2  0  0  0  0
  2  3  1  0  0  0  0
  3  4  2  0  0  0  0
  5  4  1  0  0  0  0
  5  6  2  0  0  0  0
  6  1  1  0  0  0  0
  6  7  1  0  0  0  0
  8  5  1  0  0  0  0
  9  8  1  0  0  0  0
 10  4  1  0  0  0  0
 10  9  2  0  0  0  0
M  END
>  <CHROM.1>
19.44766634,-18.02827741,4.73730147,1.38970540,-1.04192889,-1.09058538

>  <Name>
1y26_lig

>  <RI>
224

>  <Rbt.Current_Directory>
/home/afrankz/demos/rdock_decoys_rna/rnas/1y26

>  <Rbt.Executable>
rbdock ($Id: //depot/dev/client3/rdock/2013.1/src/exe/rbdock.cxx#4 $)

>  <Rbt.Library>
libRbt.so (2013.1, Build901 2013/11/27)

>  <Rbt.Parameter_File>
/export/apps/rDock/src/rDock_2013.1_src/data/scripts/dock_solv.prm

>  <Rbt.Receptor>
prm/blind_docking_80.prm

>  <SCORE>
-26.6023

>  <SCORE.INTER>
-26.6023

>  <SCORE.INTER.CONST>
1

>  <SCORE.INTER.POLAR>
-2.0198

>  <SCORE.INTER.ROT>
0

>  <SCORE.INTER.SOLV>
12.766

>  <SCORE.INTER.VDW>
-18.8575

>  <SCORE.INTER.norm>
-2.66023

>  <SCORE.INTRA>
0

>  <SCORE.INTRA.DIHEDRAL>
0

>  <SCORE.INTRA.DIHEDRAL.0>
0

>  <SCORE.INTRA.POLAR>
0

>  <SCORE.INTRA.POLAR.0>
0

>  <SCORE.INTRA.REPUL>
0

>  <SCORE.INTRA.REPUL.0>
0

>  <SCORE.INTRA.SOLV>
0

>  <SCORE.INTRA.SOLV.lig_0>
-16.9472

>  <SCORE.INTRA.VDW>
0

>  <SCORE.INTRA.VDW.0>
0

>  <SCORE.INTRA.norm>
0

>  <SCORE.RESTR>
0

>  <SCORE.RESTR.CAVITY>
0

>  <SCORE.RESTR.norm>
0

>  <SCORE.SYSTEM>
0

>  <SCORE.SYSTEM.CONST>
0

>  <SCORE.SYSTEM.DIHEDRAL>
0

>  <SCORE.SYSTEM.SOLV>
0

>  <SCORE.SYSTEM.norm>
0

>  <SCORE.heavy>
10

>  <SCORE.norm>
-2.66023

>  <RMSD>
0.689

$$$$
1y26_lig
 OpenBabel02141814133D
libRbt.so/2013.1/901 2013/11/27
 10 11  0  0  0  0  0  0  0  0999 V2000
   19.6735  -16.9917    3.0172 N   0  0  0  0  0  0  0  0  0  0  0  0
   18.9754  -18.0745    2.6662 C   0  0  0  0  0  0  0  0  0  0  0  0
   18.6048  -19.1018    3.4279 N   0  0  0  0  0  0  0  0  0  0  0  0
   19.0107  -18.9251    4.7055 C   0  0  0  0  0  0  0  0  0  0  0  0
   19.7240  -17.8570    5.2122 C   0  0  0  0  0  0  0  0  0  0  0  0
   20.0645  -16.8529    4.3009 C   0  0  0  0  0  0  0  0  0  0  0  0
   20.7615  -15.7913    4.6728 N   0  0  0  0  0  0  0  0  0  0  0  0
   19.9856  -17.9928    6.5559 N   0  0  0  0  0  0  0  0  0  0  0  0
   19.3954  -19.1357    6.8542 C   0  0  0  0  0  0  0  0  0  0  0  0
   18.7995  -19.7531    5.7757 N   0  0  0  0  0  0  0  0  0  0  0  0
  1  2  2  0  0  0  0
  2  3  1  0  0  0  0
  3  4  2  0  0  0  0
  5  4  1  0  0  0  0
  5  6  2  0  0  0  0
  6  1  1  0  0  0  0
  6  7  1  0  0  0  0
  8  5  1  0  0  0  0
  9  8  1  0  0  0  0
 10  4  1  0  0  0  0
 10  9  2  0  0  0  0
M  END
>  <CHROM.1>
19.49963976,-18.04693944,4.71729990,1.28248893,-1.02155596,-1.16169123

>  <Name>
1y26_lig

>  <RI>
224

>  <Rbt.Current_Directory>
/home/afrankz/demos/rdock_decoys_rna/rnas/1y26

>  <Rbt.Executable>
rbdock ($Id: //depot/dev/client3/rdock/2013.1/src/exe/rbdock.cxx#4 $)

>  <Rbt.Library>
libRbt.so (2013.1, Build901 2013/11/27)

>  <Rbt.Parameter_File>
/export/apps/rDock/src/rDock_2013.1_src/data/scripts/dock_solv.prm

>  <Rbt.Receptor>
prm/pocket_docking_3.prm

>  <SCORE>
-26.6115

>  <SCORE.INTER>
-26.6115

>  <SCORE.INTER.CONST>
1

>  <SCORE.INTER.POLAR>
-2.0198

>  <SCORE.INTER.ROT>
0

>  <SCORE.INTER.SOLV>
12.454

>  <SCORE.INTER.VDW>
-18.7596

>  <SCORE.INTER.norm>
-2.66115

>  <SCORE.INTRA>
0

>  <SCORE.INTRA.DIHEDRAL>
0

>  <SCORE.INTRA.DIHEDRAL.0>
0

>  <SCORE.INTRA.POLAR>
0

>  <SCORE.INTRA.POLAR.0>
0

>  <SCORE.INTRA.REPUL>
0

>  <SCORE.INTRA.REPUL.0>
0

>  <SCORE.INTRA.SOLV>
0

>  <SCORE.INTRA.SOLV.lig_0>
-16.9472

>  <SCORE.INTRA.VDW>
0

>  <SCORE.INTRA.VDW.0>
0

>  <SCORE.INTRA.norm>
0

>  <SCORE.RESTR>
0

>  <SCORE.RESTR.CAVITY>
0

>  <SCORE.RESTR.norm>
0

>  <SCORE.SYSTEM>
0

>  <SCORE.SYSTEM.CONST>
0

>  <SCORE.SYSTEM.DIHEDRAL>
0

>  <SCORE.SYSTEM.SOLV>
0

>  <SCORE.SYSTEM.norm>
0

>  <SCORE.heavy>
10

>  <SCORE.norm>
-2.66115

>  <RMSD>
0.693

$$$$
1y26_lig
 OpenBabel02141814133D
libRbt.so/2013.1/901 2013/11/27
 10 11  0  0  0  0  0  0  0  0999 V2000
   20.2690  -17.4314    2.0602 N   0  0  0  0  0  0  0  0  0  0  0  0
   19.3183  -18.2717    1.6443 C   0  0  0  0  0  0  0  0  0  0  0  0
   18.5270  -19.0526    2.3772 N   0  0  0  0  0  0  0  0  0  0  0  0
   18.7746  -18.8868    3.6961 C   0  0  0  0  0  0  0  0  0  0  0  0
   19.7117  -18.0498    4.2684 C   0  0  0  0  0  0  0  0  0  0  0  0
   20.4894  -17.2962    3.3843 C   0  0  0  0  0  0  0  0  0  0  0  0
   21.4292  -16.4735    3.8215 N   0  0  0  0  0  0  0  0  0  0  0  0
   19.7135  -18.1280    5.6418 N   0  0  0  0  0  0  0  0  0  0  0  0
   18.7481  -18.9950    5.8863 C   0  0  0  0  0  0  0  0  0  0  0  0
   18.1511  -19.4987    4.7507 N   0  0  0  0  0  0  0  0  0  0  0  0
  1  2  2  0  0  0  0
  2  3  1  0  0  0  0
  3  4  2  0  0  0  0
  5  4  1  0  0  0  0
  5  6  2  0  0  0  0
  6  1  1  0  0  0  0
  6  7  1  0  0  0  0
  8  5  1  0  0  0  0
  9  8  1  0  0  0  0
 10  4  1  0  0  0  0
 10  9  2  0  0  0  0
M  END
>  <CHROM.1>
19.51377131,-18.20793835,3.75155182,0.91700688,-0.73823706,-1.52171821

>  <Name>
1y26_lig

>  <RI>
224

>  <Rbt.Current_Directory>
/home/afrankz/demos/rdock_decoys_rna/rnas/1y26

>  <Rbt.Executable>
rbdock ($Id: //depot/dev/client3/rdock/2013.1/src/exe/rbdock.cxx#4 $)

>  <Rbt.Library>
libRbt.so (2013.1, Build901 2013/11/27)

>  <Rbt.Parameter_File>
/export/apps/rDock/src/rDock_2013.1_src/data/scripts/dock_solv.prm

>  <Rbt.Receptor>
prm/pocket_docking_6.prm

>  <SCORE>
-24.6049

>  <SCORE.INTER>
-24.6049

>  <SCORE.INTER.CONST>
1

>  <SCORE.INTER.POLAR>
-2.72813

>  <SCORE.INTER.ROT>
0

>  <SCORE.INTER.SOLV>
11.262

>  <SCORE.INTER.VDW>
-14.6635

>  <SCORE.INTER.norm>
-2.46049

>  <SCORE.INTRA>
0

>  <SCORE.INTRA.DIHEDRAL>
0

>  <SCORE.INTRA.DIHEDRAL.0>
0

>  <SCORE.INTRA.POLAR>
0

>  <SCORE.INTRA.POLAR.0>
0

>  <SCORE.INTRA.REPUL>
0

>  <SCORE.INTRA.REPUL.0>
0

>  <SCORE.INTRA.SOLV>
0

>  <SCORE.INTRA.SOLV.lig_0>
-16.9472

>  <SCORE.INTRA.VDW>
0

>  <SCORE.INTRA.VDW.0>
0

>  <SCORE.INTRA.norm>
0

>  <SCORE.RESTR>
0

>  <SCORE.RESTR.CAVITY>
0

>  <SCORE.RESTR.norm>
0

>  <SCORE.SYSTEM>
0

>  <SCORE.SYSTEM.CONST>
0

>  <SCORE.SYSTEM.DIHEDRAL>
0

>  <SCORE.SYSTEM.SOLV>
0

>  <SCORE.SYSTEM.norm>
0

>  <SCORE.heavy>
10

>  <SCORE.norm>
-2.46049

>  <RMSD>
0.721

$$$$
1y26_lig
 OpenBabel02141814133D
libRbt.so/2013.1/901 2013/11/27
 10 11  0  0  0  0  0  0  0  0999 V2000
   20.2297  -17.4636    1.9486 N   0  0  0  0  0  0  0  0  0  0  0  0
   19.2688  -18.3105    1.5710 C   0  0  0  0  0  0  0  0  0  0  0  0
   18.4950  -19.0773    2.3366 N   0  0  0  0  0  0  0  0  0  0  0  0
   18.7745  -18.8881    3.6460 C   0  0  0  0  0  0  0  0  0  0  0  0
   19.7255  -18.0419    4.1805 C   0  0  0  0  0  0  0  0  0  0  0  0
   20.4821  -17.3049    3.2644 C   0  0  0  0  0  0  0  0  0  0  0  0
   21.4325  -16.4754    3.6640 N   0  0  0  0  0  0  0  0  0  0  0  0
   19.7605  -18.0954    5.5546 N   0  0  0  0  0  0  0  0  0  0  0  0
   18.8009  -18.9571    5.8378 C   0  0  0  0  0  0  0  0  0  0  0  0
   18.1764  -19.4805    4.7262 N   0  0  0  0  0  0  0  0  0  0  0  0
  1  2  2  0  0  0  0
  2  3  1  0  0  0  0
  3  4  2  0  0  0  0
  5  4  1  0  0  0  0
  5  6  2  0  0  0  0
  6  1  1  0  0  0  0
  6  7  1  0  0  0  0
  8  5  1  0  0  0  0
  9  8  1  0  0  0  0
 10  4  1  0  0  0  0
 10  9  2  0  0  0  0
M  END
>  <CHROM.1>
19.51513710,-18.20907008,3.67140276,0.94953522,-0.73631623,-1.51778846

>  <Name>
1y26_lig

>  <RI>
224

>  <Rbt.Current_Directory>
/home/afrankz/demos/rdock_decoys_rna/rnas/1y26

>  <Rbt.Executable>
rbdock ($Id: //depot/dev/client3/rdock/2013.1/src/exe/rbdock.cxx#4 $)

>  <Rbt.Library>
libRbt.so (2013.1, Build901 2013/11/27)

>  <Rbt.Parameter_File>
/export/apps/rDock/src/rDock_2013.1_src/data/scripts/dock_solv.prm

>  <Rbt.Receptor>
prm/pocket_docking_6.prm

>  <SCORE>
-24.5789

>  <SCORE.INTER>
-24.5789

>  <SCORE.INTER.CONST>
1

>  <SCORE.INTER.POLAR>
-2.74811

>  <SCORE.INTER.ROT>
0

>  <SCORE.INTER.SOLV>
11.4342

>  <SCORE.INTER.VDW>
-14.637

>  <SCORE.INTER.norm>
-2.45789

>  <SCORE.INTRA>
0

>  <SCORE.INTRA.DIHEDRAL>
0

>  <SCORE.INTRA.DIHEDRAL.0>
0

>  <SCORE.INTRA.POLAR>
0

>  <SCORE.INTRA.POLAR.0>
0

>  <SCORE.INTRA.REPUL>
0

>  <SCORE.INTRA.REPUL.0>
0

>  <SCORE.INTRA.SOLV>
0

>  <SCORE.INTRA.SOLV.lig_0>
-16.9472

>  <SCORE.INTRA.VDW>
0

>  <SCORE.INTRA.VDW.0>
0

>  <SCORE.INTRA.norm>
0

>  <SCORE.RESTR>
0

>  <SCORE.RESTR.CAVITY>
0

>  <SCORE.RESTR.norm>
0

>  <SCORE.SYSTEM>
0

>  <SCORE.SYSTEM.CONST>
0

>  <SCORE.SYSTEM.DIHEDRAL>
0

>  <SCORE.SYSTEM.SOLV>
0

>  <SCORE.SYSTEM.norm>
0

>  <SCORE.heavy>
10

>  <SCORE.norm>
-2.45789

>  <RMSD>
0.737

$$$$
1y26_lig
 OpenBabel02141814133D
libRbt.so/2013.1/901 2013/11/27
 10 11  0  0  0  0  0  0  0  0999 V2000
   20.2522  -17.4773    2.0502 N   0  0  0  0  0  0  0  0  0  0  0  0
   19.2616  -18.2773    1.6478 C   0  0  0  0  0  0  0  0  0  0  0  0
   18.4590  -19.0368    2.3906 N   0  0  0  0  0  0  0  0  0  0  0  0
   18.7427  -18.8953    3.7051 C   0  0  0  0  0  0  0  0  0  0  0  0
   19.7231  -18.1001    4.2642 C   0  0  0  0  0  0  0  0  0  0  0  0
   20.5078  -17.3656    3.3702 C   0  0  0  0  0  0  0  0  0  0  0  0
   21.4872  -16.5831    3.7940 N   0  0  0  0  0  0  0  0  0  0  0  0
   19.7536  -18.1940    5.6363 N   0  0  0  0  0  0  0  0  0  0  0  0
   18.7626  -19.0276    5.8940 C   0  0  0  0  0  0  0  0  0  0  0  0
   18.1214  -19.4959    4.7675 N   0  0  0  0  0  0  0  0  0  0  0  0
  1  2  2  0  0  0  0
  2  3  1  0  0  0  0
  3  4  2  0  0  0  0
  5  4  1  0  0  0  0
  5  6  2  0  0  0  0
  6  1  1  0  0  0  0
  6  7  1  0  0  0  0
  8  5  1  0  0  0  0
  9  8  1  0  0  0  0
 10  4  1  0  0  0  0
 10  9  2  0  0  0  0
M  END
>  <CHROM.1>
19.50771071,-18.24487528,3.75042922,0.94461681,-0.69984406,-1.49249292

>  <Name>
1y26_lig

>  <RI>
0

>  <Rbt.Current_Directory>
/home/afrankz/demos/rdock_decoys_rna/rnas/1y26

>  <Rbt.Executable>
rbdock ($Id: //depot/dev/client3/rdock/2013.1/src/exe/rbdock.cxx#4 $)

>  <Rbt.Library>
libRbt.so (2013.1, Build901 2013/11/27)

>  <Rbt.Parameter_File>
/export/apps/rDock/src/rDock_2013.1_src/data/scripts/dock_solv.prm

>  <Rbt.Receptor>
prm/pocket_docking_4.prm

>  <SCORE>
-24.6171

>  <SCORE.INTER>
-24.6171

>  <SCORE.INTER.CONST>
1

>  <SCORE.INTER.POLAR>
-2.71387

>  <SCORE.INTER.ROT>
0

>  <SCORE.INTER.SOLV>
11.2483

>  <SCORE.INTER.VDW>
-14.7146

>  <SCORE.INTER.norm>
-2.46171

>  <SCORE.INTRA>
0

>  <SCORE.INTRA.DIHEDRAL>
0

>  <SCORE.INTRA.DIHEDRAL.0>
0

>  <SCORE.INTRA.POLAR>
0

>  <SCORE.INTRA.POLAR.0>
0

>  <SCORE.INTRA.REPUL>
0

>  <SCORE.INTRA.REPUL.0>
0

>  <SCORE.INTRA.SOLV>
0

>  <SCORE.INTRA.SOLV.lig_0>
-16.9472

>  <SCORE.INTRA.VDW>
0

>  <SCORE.INTRA.VDW.0>
0

>  <SCORE.INTRA.norm>
0

>  <SCORE.RESTR>
0

>  <SCORE.RESTR.CAVITY>
0

>  <SCORE.RESTR.norm>
0

>  <SCORE.SYSTEM>
0

>  <SCORE.SYSTEM.CONST>
0

>  <SCORE.SYSTEM.DIHEDRAL>
0

>  <SCORE.SYSTEM.SOLV>
0

>  <SCORE.SYSTEM.norm>
0

>  <SCORE.heavy>
10

>  <SCORE.norm>
-2.46171

>  <RMSD>
0.740

$$$$
1y26_lig
 OpenBabel02141814133D
libRbt.so/2013.1/901 2013/11/27
 10 11  0  0  0  0  0  0  0  0999 V2000
   20.2452  -17.4484    1.9730 N   0  0  0  0  0  0  0  0  0  0  0  0
   19.2766  -18.2821    1.5859 C   0  0  0  0  0  0  0  0  0  0  0  0
   18.5022  -19.0576    2.3422 N   0  0  0  0  0  0  0  0  0  0  0  0
   18.7903  -18.8936    3.6530 C   0  0  0  0  0  0  0  0  0  0  0  0
   19.7499  -18.0632    4.1970 C   0  0  0  0  0  0  0  0  0  0  0  0
   20.5060  -17.3149    3.2899 C   0  0  0  0  0  0  0  0  0  0  0  0
   21.4641  -16.4987    3.6987 N   0  0  0  0  0  0  0  0  0  0  0  0
   19.7923  -18.1416    5.5697 N   0  0  0  0  0  0  0  0  0  0  0  0
   18.8287  -19.0019    5.8430 C   0  0  0  0  0  0  0  0  0  0  0  0
   18.1945  -19.5013    4.7259 N   0  0  0  0  0  0  0  0  0  0  0  0
  1  2  2  0  0  0  0
  2  3  1  0  0  0  0
  3  4  2  0  0  0  0
  5  4  1  0  0  0  0
  5  6  2  0  0  0  0
  6  1  1  0  0  0  0
  6  7  1  0  0  0  0
  8  5  1  0  0  0  0
  9  8  1  0  0  0  0
 10  4  1  0  0  0  0
 10  9  2  0  0  0  0
M  END
>  <CHROM.1>
19.53552944,-18.21990023,3.68628385,0.95665241,-0.72946191,-1.49516067

>  <Name>
1y26_lig

>  <RI>
224

>  <Rbt.Current_Directory>
/home/afrankz/demos/rdock_decoys_rna/rnas/1y26

>  <Rbt.Executable>
rbdock ($Id: //depot/dev/client3/rdock/2013.1/src/exe/rbdock.cxx#4 $)

>  <Rbt.Library>
libRbt.so (2013.1, Build901 2013/11/27)

>  <Rbt.Parameter_File>
/export/apps/rDock/src/rDock_2013.1_src/data/scripts/dock_solv.prm

>  <Rbt.Receptor>
prm/pocket_docking_6.prm

>  <SCORE>
-24.5794

>  <SCORE.INTER>
-24.5794

>  <SCORE.INTER.CONST>
1

>  <SCORE.INTER.POLAR>
-2.74683

>  <SCORE.INTER.ROT>
0

>  <SCORE.INTER.SOLV>
11.4143

>  <SCORE.INTER.VDW>
-14.6349

>  <SCORE.INTER.norm>
-2.45794

>  <SCORE.INTRA>
0

>  <SCORE.INTRA.DIHEDRAL>
0

>  <SCORE.INTRA.DIHEDRAL.0>
0

>  <SCORE.INTRA.POLAR>
0

>  <SCORE.INTRA.POLAR.0>
0

>  <SCORE.INTRA.REPUL>
0

>  <SCORE.INTRA.REPUL.0>
0

>  <SCORE.INTRA.SOLV>
0

>  <SCORE.INTRA.SOLV.lig_0>
-16.9472

>  <SCORE.INTRA.VDW>
0

>  <SCORE.INTRA.VDW.0>
0

>  <SCORE.INTRA.norm>
0

>  <SCORE.RESTR>
0

>  <SCORE.RESTR.CAVITY>
0

>  <SCORE.RESTR.norm>
0

>  <SCORE.SYSTEM>
0

>  <SCORE.SYSTEM.CONST>
0

>  <SCORE.SYSTEM.DIHEDRAL>
0

>  <SCORE.SYSTEM.SOLV>
0

>  <SCORE.SYSTEM.norm>
0

>  <SCORE.heavy>
10

>  <SCORE.norm>
-2.45794

>  <RMSD>
0.740

$$$$
1y26_lig
 OpenBabel02141814133D
libRbt.so/2013.1/901 2013/11/27
 10 11  0  0  0  0  0  0  0  0999 V2000
   20.2534  -17.4974    2.0454 N   0  0  0  0  0  0  0  0  0  0  0  0
   19.2540  -18.2890    1.6484 C   0  0  0  0  0  0  0  0  0  0  0  0
   18.4500  -19.0430    2.3954 N   0  0  0  0  0  0  0  0  0  0  0  0
   18.7432  -18.9053    3.7082 C   0  0  0  0  0  0  0  0  0  0  0  0
   19.7334  -18.1185    4.2620 C   0  0  0  0  0  0  0  0  0  0  0  0
   20.5182  -17.3892    3.3638 C   0  0  0  0  0  0  0  0  0  0  0  0
   21.5064  -16.6149    3.7823 N   0  0  0  0  0  0  0  0  0  0  0  0
   19.7718  -18.2143    5.6337 N   0  0  0  0  0  0  0  0  0  0  0  0
   18.7758  -19.0403    5.8968 C   0  0  0  0  0  0  0  0  0  0  0  0
   18.1238  -19.5022    4.7738 N   0  0  0  0  0  0  0  0  0  0  0  0
  1  2  2  0  0  0  0
  2  3  1  0  0  0  0
  3  4  2  0  0  0  0
  5  4  1  0  0  0  0
  5  6  2  0  0  0  0
  6  1  1  0  0  0  0
  6  7  1  0  0  0  0
  8  5  1  0  0  0  0
  9  8  1  0  0  0  0
 10  4  1  0  0  0  0
 10  9  2  0  0  0  0
M  END
>  <CHROM.1>
19.51355426,-18.26097846,3.74944274,0.95197964,-0.69144581,-1.48663872

>  <Name>
1y26_lig

>  <RI>
0

>  <Rbt.Current_Directory>
/home/afrankz/demos/rdock_decoys_rna/rnas/1y26

>  <Rbt.Executable>
rbdock ($Id: //depot/dev/client3/rdock/2013.1/src/exe/rbdock.cxx#4 $)

>  <Rbt.Library>
libRbt.so (2013.1, Build901 2013/11/27)

>  <Rbt.Parameter_File>
/export/apps/rDock/src/rDock_2013.1_src/data/scripts/dock_solv.prm

>  <Rbt.Receptor>
prm/pocket_docking_8.prm

>  <SCORE>
-24.5815

>  <SCORE.INTER>
-24.5815

>  <SCORE.INTER.CONST>
1

>  <SCORE.INTER.POLAR>
-2.70245

>  <SCORE.INTER.ROT>
0

>  <SCORE.INTER.SOLV>
11.2648

>  <SCORE.INTER.VDW>
-14.7345

>  <SCORE.INTER.norm>
-2.45815

>  <SCORE.INTRA>
0

>  <SCORE.INTRA.DIHEDRAL>
0

>  <SCORE.INTRA.DIHEDRAL.0>
0

>  <SCORE.INTRA.POLAR>
0

>  <SCORE.INTRA.POLAR.0>
0

>  <SCORE.INTRA.REPUL>
0

>  <SCORE.INTRA.REPUL.0>
0

>  <SCORE.INTRA.SOLV>
0

>  <SCORE.INTRA.SOLV.lig_0>
-16.9472

>  <SCORE.INTRA.VDW>
0

>  <SCORE.INTRA.VDW.0>
0

>  <SCORE.INTRA.norm>
0

>  <SCORE.RESTR>
0

>  <SCORE.RESTR.CAVITY>
0

>  <SCORE.RESTR.norm>
0

>  <SCORE.SYSTEM>
0

>  <SCORE.SYSTEM.CONST>
0

>  <SCORE.SYSTEM.DIHEDRAL>
0

>  <SCORE.SYSTEM.SOLV>
0

>  <SCORE.SYSTEM.norm>
0

>  <SCORE.heavy>
10

>  <SCORE.norm>
-2.45815

>  <RMSD>
0.749

$$$$
1y26_lig
 OpenBabel02141814133D
libRbt.so/2013.1/901 2013/11/27
 10 11  0  0  0  0  0  0  0  0999 V2000
   19.7510  -17.8591    2.0992 N   0  0  0  0  0  0  0  0  0  0  0  0
   18.4978  -18.3201    2.1083 C   0  0  0  0  0  0  0  0  0  0  0  0
   17.7878  -18.7640    3.1436 N   0  0  0  0  0  0  0  0  0  0  0  0
   18.5002  -18.6755    4.2894 C   0  0  0  0  0  0  0  0  0  0  0  0
   19.7924  -18.2105    4.4326 C   0  0  0  0  0  0  0  0  0  0  0  0
   20.4312  -17.7897    3.2623 C   0  0  0  0  0  0  0  0  0  0  0  0
   21.6760  -17.3411    3.2791 N   0  0  0  0  0  0  0  0  0  0  0  0
   20.2261  -18.2639    5.7369 N   0  0  0  0  0  0  0  0  0  0  0  0
   19.1713  -18.7349    6.3764 C   0  0  0  0  0  0  0  0  0  0  0  0
   18.1009  -19.0149    5.5546 N   0  0  0  0  0  0  0  0  0  0  0  0
  1  2  2  0  0  0  0
  2  3  1  0  0  0  0
  3  4  2  0  0  0  0
  5  4  1  0  0  0  0
  5  6  2  0  0  0  0
  6  1  1  0  0  0  0
  6  7  1  0  0  0  0
  8  5  1  0  0  0  0
  9  8  1  0  0  0  0
 10  4  1  0  0  0  0
 10  9  2  0  0  0  0
M  END
>  <CHROM.1>
19.39362649,-18.29718961,4.02658224,1.26106344,-0.35057283,-1.41566446

>  <Name>
1y26_lig

>  <RI>
224

>  <Rbt.Current_Directory>
/home/afrankz/demos/rdock_decoys_rna/rnas/1y26

>  <Rbt.Executable>
rbdock ($Id: //depot/dev/client3/rdock/2013.1/src/exe/rbdock.cxx#4 $)

>  <Rbt.Library>
libRbt.so (2013.1, Build901 2013/11/27)

>  <Rbt.Parameter_File>
/export/apps/rDock/src/rDock_2013.1_src/data/scripts/dock_solv.prm

>  <Rbt.Receptor>
prm/pocket_docking_6.prm

>  <SCORE>
-25.4116

>  <SCORE.INTER>
-25.4116

>  <SCORE.INTER.CONST>
1

>  <SCORE.INTER.POLAR>
-2.53564

>  <SCORE.INTER.ROT>
0

>  <SCORE.INTER.SOLV>
11.5481

>  <SCORE.INTER.VDW>
-15.9383

>  <SCORE.INTER.norm>
-2.54116

>  <SCORE.INTRA>
0

>  <SCORE.INTRA.DIHEDRAL>
0

>  <SCORE.INTRA.DIHEDRAL.0>
0

>  <SCORE.INTRA.POLAR>
0

>  <SCORE.INTRA.POLAR.0>
0

>  <SCORE.INTRA.REPUL>
0

>  <SCORE.INTRA.REPUL.0>
0

>  <SCORE.INTRA.SOLV>
0

>  <SCORE.INTRA.SOLV.lig_0>
-16.9472

>  <SCORE.INTRA.VDW>
0

>  <SCORE.INTRA.VDW.0>
0

>  <SCORE.INTRA.norm>
0

>  <SCORE.RESTR>
0

>  <SCORE.RESTR.CAVITY>
0

>  <SCORE.RESTR.norm>
0

>  <SCORE.SYSTEM>
0

>  <SCORE.SYSTEM.CONST>
0

>  <SCORE.SYSTEM.DIHEDRAL>
0

>  <SCORE.SYSTEM.SOLV>
0

>  <SCORE.SYSTEM.norm>
0

>  <SCORE.heavy>
10

>  <SCORE.norm>
-2.54116

>  <RMSD>
0.835

$$$$
1y26_lig
 OpenBabel02141814133D
libRbt.so/2013.1/901 2013/11/27
 10 11  0  0  0  0  0  0  0  0999 V2000
   19.7540  -17.8725    2.1003 N   0  0  0  0  0  0  0  0  0  0  0  0
   18.5001  -18.3316    2.1097 C   0  0  0  0  0  0  0  0  0  0  0  0
   17.7887  -18.7719    3.1456 N   0  0  0  0  0  0  0  0  0  0  0  0
   18.5005  -18.6818    4.2916 C   0  0  0  0  0  0  0  0  0  0  0  0
   19.7933  -18.2185    4.4345 C   0  0  0  0  0  0  0  0  0  0  0  0
   20.4335  -17.8015    3.2637 C   0  0  0  0  0  0  0  0  0  0  0  0
   21.6790  -17.3548    3.2802 N   0  0  0  0  0  0  0  0  0  0  0  0
   20.2261  -18.2695    5.7393 N   0  0  0  0  0  0  0  0  0  0  0  0
   19.1701  -18.7374    6.3792 C   0  0  0  0  0  0  0  0  0  0  0  0
   18.0998  -19.0177    5.5574 N   0  0  0  0  0  0  0  0  0  0  0  0
  1  2  2  0  0  0  0
  2  3  1  0  0  0  0
  3  4  2  0  0  0  0
  5  4  1  0  0  0  0
  5  6  2  0  0  0  0
  6  1  1  0  0  0  0
  6  7  1  0  0  0  0
  8  5  1  0  0  0  0
  9  8  1  0  0  0  0
 10  4  1  0  0  0  0
 10  9  2  0  0  0  0
M  END
>  <CHROM.1>
19.39467609,-18.30555891,4.02846262,1.26012748,-0.34912048,-1.41831870

>  <Name>
1y26_lig

>  <RI>
0

>  <Rbt.Current_Directory>
/home/afrankz/demos/rdock_decoys_rna/rnas/1y26

>  <Rbt.Executable>
rbdock ($Id: //depot/dev/client3/rdock/2013.1/src/exe/rbdock.cxx#4 $)

>  <Rbt.Library>
libRbt.so (2013.1, Build901 2013/11/27)

>  <Rbt.Parameter_File>
/export/apps/rDock/src/rDock_2013.1_src/data/scripts/dock_solv.prm

>  <Rbt.Receptor>
prm/blind_docking_100.prm

>  <SCORE>
-25.4203

>  <SCORE.INTER>
-25.4203

>  <SCORE.INTER.CONST>
1

>  <SCORE.INTER.POLAR>
-2.5379

>  <SCORE.INTER.ROT>
0

>  <SCORE.INTER.SOLV>
11.5457

>  <SCORE.INTER.VDW>
-15.9358

>  <SCORE.INTER.norm>
-2.54203

>  <SCORE.INTRA>
0

>  <SCORE.INTRA.DIHEDRAL>
0

>  <SCORE.INTRA.DIHEDRAL.0>
0

>  <SCORE.INTRA.POLAR>
0

>  <SCORE.INTRA.POLAR.0>
0

>  <SCORE.INTRA.REPUL>
0

>  <SCORE.INTRA.REPUL.0>
0

>  <SCORE.INTRA.SOLV>
0

>  <SCORE.INTRA.SOLV.lig_0>
-16.9472

>  <SCORE.INTRA.VDW>
0

>  <SCORE.INTRA.VDW.0>
0

>  <SCORE.INTRA.norm>
0

>  <SCORE.RESTR>
0

>  <SCORE.RESTR.CAVITY>
0

>  <SCORE.RESTR.norm>
0

>  <SCORE.SYSTEM>
0

>  <SCORE.SYSTEM.CONST>
0

>  <SCORE.SYSTEM.DIHEDRAL>
0

>  <SCORE.SYSTEM.SOLV>
0

>  <SCORE.SYSTEM.norm>
0

>  <SCORE.heavy>
10

>  <SCORE.norm>
-2.54203

>  <RMSD>
0.841

$$$$
1y26_lig
 OpenBabel02141814133D
libRbt.so/2013.1/901 2013/11/27
 10 11  0  0  0  0  0  0  0  0999 V2000
   19.7454  -17.8567    2.1084 N   0  0  0  0  0  0  0  0  0  0  0  0
   18.4887  -18.3080    2.1186 C   0  0  0  0  0  0  0  0  0  0  0  0
   17.7776  -18.7502    3.1538 N   0  0  0  0  0  0  0  0  0  0  0  0
   18.4932  -18.6717    4.2983 C   0  0  0  0  0  0  0  0  0  0  0  0
   19.7893  -18.2174    4.4403 C   0  0  0  0  0  0  0  0  0  0  0  0
   20.4287  -17.7971    3.2702 C   0  0  0  0  0  0  0  0  0  0  0  0
   21.6770  -17.3582    3.2859 N   0  0  0  0  0  0  0  0  0  0  0  0
   20.2255  -18.2792    5.7434 N   0  0  0  0  0  0  0  0  0  0  0  0
   19.1685  -18.7444    6.3835 C   0  0  0  0  0  0  0  0  0  0  0  0
   18.0941  -19.0129    5.5631 N   0  0  0  0  0  0  0  0  0  0  0  0
  1  2  2  0  0  0  0
  2  3  1  0  0  0  0
  3  4  2  0  0  0  0
  5  4  1  0  0  0  0
  5  6  2  0  0  0  0
  6  1  1  0  0  0  0
  6  7  1  0  0  0  0
  8  5  1  0  0  0  0
  9  8  1  0  0  0  0
 10  4  1  0  0  0  0
 10  9  2  0  0  0  0
M  END
>  <CHROM.1>
19.38895299,-18.29939290,4.03488870,1.26214946,-0.34251967,-1.41143839

>  <Name>
1y26_lig

>  <RI>
0

>  <Rbt.Current_Directory>
/home/afrankz/demos/rdock_decoys_rna/rnas/1y26

>  <Rbt.Executable>
rbdock ($Id: //depot/dev/client3/rdock/2013.1/src/exe/rbdock.cxx#4 $)

>  <Rbt.Library>
libRbt.so (2013.1, Build901 2013/11/27)

>  <Rbt.Parameter_File>
/export/apps/rDock/src/rDock_2013.1_src/data/scripts/dock_solv.prm

>  <Rbt.Receptor>
prm/pocket_docking_5.prm

>  <SCORE>
-25.4127

>  <SCORE.INTER>
-25.4127

>  <SCORE.INTER.CONST>
1

>  <SCORE.INTER.POLAR>
-2.52837

>  <SCORE.INTER.ROT>
0

>  <SCORE.INTER.SOLV>
11.5342

>  <SCORE.INTER.VDW>
-15.9586

>  <SCORE.INTER.norm>
-2.54127

>  <SCORE.INTRA>
0

>  <SCORE.INTRA.DIHEDRAL>
0

>  <SCORE.INTRA.DIHEDRAL.0>
0

>  <SCORE.INTRA.POLAR>
0

>  <SCORE.INTRA.POLAR.0>
0

>  <SCORE.INTRA.REPUL>
0

>  <SCORE.INTRA.REPUL.0>
0

>  <SCORE.INTRA.SOLV>
0

>  <SCORE.INTRA.SOLV.lig_0>
-16.9472

>  <SCORE.INTRA.VDW>
0

>  <SCORE.INTRA.VDW.0>
0

>  <SCORE.INTRA.norm>
0

>  <SCORE.RESTR>
0

>  <SCORE.RESTR.CAVITY>
0

>  <SCORE.RESTR.norm>
0

>  <SCORE.SYSTEM>
0

>  <SCORE.SYSTEM.CONST>
0

>  <SCORE.SYSTEM.DIHEDRAL>
0

>  <SCORE.SYSTEM.SOLV>
0

>  <SCORE.SYSTEM.norm>
0

>  <SCORE.heavy>
10

>  <SCORE.norm>
-2.54127

>  <RMSD>
0.841

$$$$
1y26_lig
 OpenBabel02141814133D
libRbt.so/2013.1/901 2013/11/27
 10 11  0  0  0  0  0  0  0  0999 V2000
   19.7495  -17.8701    2.1091 N   0  0  0  0  0  0  0  0  0  0  0  0
   18.4937  -18.3241    2.1183 C   0  0  0  0  0  0  0  0  0  0  0  0
   17.7821  -18.7660    3.1534 N   0  0  0  0  0  0  0  0  0  0  0  0
   18.4960  -18.6838    4.2987 C   0  0  0  0  0  0  0  0  0  0  0  0
   19.7909  -18.2264    4.4417 C   0  0  0  0  0  0  0  0  0  0  0  0
   20.4310  -17.8069    3.2717 C   0  0  0  0  0  0  0  0  0  0  0  0
   21.6783  -17.3653    3.2883 N   0  0  0  0  0  0  0  0  0  0  0  0
   20.2254  -18.2848    5.7455 N   0  0  0  0  0  0  0  0  0  0  0  0
   19.1685  -18.7512    6.3850 C   0  0  0  0  0  0  0  0  0  0  0  0
   18.0958  -19.0235    5.5636 N   0  0  0  0  0  0  0  0  0  0  0  0
  1  2  2  0  0  0  0
  2  3  1  0  0  0  0
  3  4  2  0  0  0  0
  5  4  1  0  0  0  0
  5  6  2  0  0  0  0
  6  1  1  0  0  0  0
  6  7  1  0  0  0  0
  8  5  1  0  0  0  0
  9  8  1  0  0  0  0
 10  4  1  0  0  0  0
 10  9  2  0  0  0  0
M  END
>  <CHROM.1>
19.39127797,-18.31004392,4.03583247,1.26104929,-0.34486946,-1.41366379

>  <Name>
1y26_lig

>  <RI>
0

>  <Rbt.Current_Directory>
/home/afrankz/demos/rdock_decoys_rna/rnas/1y26

>  <Rbt.Executable>
rbdock ($Id: //depot/dev/client3/rdock/2013.1/src/exe/rbdock.cxx#4 $)

>  <Rbt.Library>
libRbt.so (2013.1, Build901 2013/11/27)

>  <Rbt.Parameter_File>
/export/apps/rDock/src/rDock_2013.1_src/data/scripts/dock_solv.prm

>  <Rbt.Receptor>
prm/pocket_docking_4.prm

>  <SCORE>
-25.42

>  <SCORE.INTER>
-25.42

>  <SCORE.INTER.CONST>
1

>  <SCORE.INTER.POLAR>
-2.5265

>  <SCORE.INTER.ROT>
0

>  <SCORE.INTER.SOLV>
11.538

>  <SCORE.INTER.VDW>
-15.971

>  <SCORE.INTER.norm>
-2.542

>  <SCORE.INTRA>
0

>  <SCORE.INTRA.DIHEDRAL>
0

>  <SCORE.INTRA.DIHEDRAL.0>
0

>  <SCORE.INTRA.POLAR>
0

>  <SCORE.INTRA.POLAR.0>
0

>  <SCORE.INTRA.REPUL>
0

>  <SCORE.INTRA.REPUL.0>
0

>  <SCORE.INTRA.SOLV>
0

>  <SCORE.INTRA.SOLV.lig_0>
-16.9472

>  <SCORE.INTRA.VDW>
0

>  <SCORE.INTRA.VDW.0>
0

>  <SCORE.INTRA.norm>
0

>  <SCORE.RESTR>
0

>  <SCORE.RESTR.CAVITY>
0

>  <SCORE.RESTR.norm>
0

>  <SCORE.SYSTEM>
0

>  <SCORE.SYSTEM.CONST>
0

>  <SCORE.SYSTEM.DIHEDRAL>
0

>  <SCORE.SYSTEM.SOLV>
0

>  <SCORE.SYSTEM.norm>
0

>  <SCORE.heavy>
10

>  <SCORE.norm>
-2.542

>  <RMSD>
0.844

$$$$
1y26_lig
 OpenBabel02141814133D
libRbt.so/2013.1/901 2013/11/27
 10 11  0  0  0  0  0  0  0  0999 V2000
   19.7313  -17.8575    2.1205 N   0  0  0  0  0  0  0  0  0  0  0  0
   18.4731  -18.3047    2.1327 C   0  0  0  0  0  0  0  0  0  0  0  0
   17.7642  -18.7502    3.1680 N   0  0  0  0  0  0  0  0  0  0  0  0
   18.4841  -18.6801    4.3104 C   0  0  0  0  0  0  0  0  0  0  0  0
   19.7821  -18.2308    4.4503 C   0  0  0  0  0  0  0  0  0  0  0  0
   20.4188  -17.8064    3.2802 C   0  0  0  0  0  0  0  0  0  0  0  0
   21.6686  -17.3717    3.2938 N   0  0  0  0  0  0  0  0  0  0  0  0
   20.2227  -18.3009    5.7515 N   0  0  0  0  0  0  0  0  0  0  0  0
   19.1664  -18.7661    6.3928 C   0  0  0  0  0  0  0  0  0  0  0  0
   18.0882  -19.0267    5.5748 N   0  0  0  0  0  0  0  0  0  0  0  0
  1  2  2  0  0  0  0
  2  3  1  0  0  0  0
  3  4  2  0  0  0  0
  5  4  1  0  0  0  0
  5  6  2  0  0  0  0
  6  1  1  0  0  0  0
  6  7  1  0  0  0  0
  8  5  1  0  0  0  0
  9  8  1  0  0  0  0
 10  4  1  0  0  0  0
 10  9  2  0  0  0  0
M  END
>  <CHROM.1>
19.38009089,-18.30931417,4.04582430,1.26524200,-0.33869868,-1.40508268

>  <Name>
1y26_lig

>  <RI>
224

>  <Rbt.Current_Directory>
/home/afrankz/demos/rdock_decoys_rna/rnas/1y26

>  <Rbt.Executable>
rbdock ($Id: //depot/dev/client3/rdock/2013.1/src/exe/rbdock.cxx#4 $)

>  <Rbt.Library>
libRbt.so (2013.1, Build901 2013/11/27)

>  <Rbt.Parameter_File>
/export/apps/rDock/src/rDock_2013.1_src/data/scripts/dock_solv.prm

>  <Rbt.Receptor>
prm/pocket_docking_7.prm

>  <SCORE>
-25.3492

>  <SCORE.INTER>
-25.3492

>  <SCORE.INTER.CONST>
1

>  <SCORE.INTER.POLAR>
-2.51085

>  <SCORE.INTER.ROT>
0

>  <SCORE.INTER.SOLV>
11.5305

>  <SCORE.INTER.VDW>
-15.9735

>  <SCORE.INTER.norm>
-2.53492

>  <SCORE.INTRA>
0

>  <SCORE.INTRA.DIHEDRAL>
0

>  <SCORE.INTRA.DIHEDRAL.0>
0

>  <SCORE.INTRA.POLAR>
0

>  <SCORE.INTRA.POLAR.0>
0

>  <SCORE.INTRA.REPUL>
0

>  <SCORE.INTRA.REPUL.0>
0

>  <SCORE.INTRA.SOLV>
0

>  <SCORE.INTRA.SOLV.lig_0>
-16.9472

>  <SCORE.INTRA.VDW>
0

>  <SCORE.INTRA.VDW.0>
0

>  <SCORE.INTRA.norm>
0

>  <SCORE.RESTR>
0

>  <SCORE.RESTR.CAVITY>
0

>  <SCORE.RESTR.norm>
0

>  <SCORE.SYSTEM>
0

>  <SCORE.SYSTEM.CONST>
0

>  <SCORE.SYSTEM.DIHEDRAL>
0

>  <SCORE.SYSTEM.SOLV>
0

>  <SCORE.SYSTEM.norm>
0

>  <SCORE.heavy>
10

>  <SCORE.norm>
-2.53492

>  <RMSD>
0.845

$$$$
1y26_lig
 OpenBabel02141814133D
libRbt.so/2013.1/901 2013/11/27
 10 11  0  0  0  0  0  0  0  0999 V2000
   19.7588  -17.8679    2.1109 N   0  0  0  0  0  0  0  0  0  0  0  0
   18.5019  -18.3185    2.1263 C   0  0  0  0  0  0  0  0  0  0  0  0
   17.7927  -18.7543    3.1655 N   0  0  0  0  0  0  0  0  0  0  0  0
   18.5107  -18.6695    4.3081 C   0  0  0  0  0  0  0  0  0  0  0  0
   19.8073  -18.2150    4.4448 C   0  0  0  0  0  0  0  0  0  0  0  0
   20.4445  -17.8019    3.2710 C   0  0  0  0  0  0  0  0  0  0  0  0
   21.6931  -17.3636    3.2815 N   0  0  0  0  0  0  0  0  0  0  0  0
   20.2462  -18.2694    5.7474 N   0  0  0  0  0  0  0  0  0  0  0  0
   19.1902  -18.7303    6.3923 C   0  0  0  0  0  0  0  0  0  0  0  0
   18.1140  -19.0031    5.5757 N   0  0  0  0  0  0  0  0  0  0  0  0
  1  2  2  0  0  0  0
  2  3  1  0  0  0  0
  3  4  2  0  0  0  0
  5  4  1  0  0  0  0
  5  6  2  0  0  0  0
  6  1  1  0  0  0  0
  6  7  1  0  0  0  0
  8  5  1  0  0  0  0
  9  8  1  0  0  0  0
 10  4  1  0  0  0  0
 10  9  2  0  0  0  0
M  END
>  <CHROM.1>
19.40607894,-18.29917781,4.04066866,1.26419920,-0.34168755,-1.41659055

>  <Name>
1y26_lig

>  <RI>
0

>  <Rbt.Current_Directory>
/home/afrankz/demos/rdock_decoys_rna/rnas/1y26

>  <Rbt.Executable>
rbdock ($Id: //depot/dev/client3/rdock/2013.1/src/exe/rbdock.cxx#4 $)

>  <Rbt.Library>
libRbt.so (2013.1, Build901 2013/11/27)

>  <Rbt.Parameter_File>
/export/apps/rDock/src/rDock_2013.1_src/data/scripts/dock_solv.prm

>  <Rbt.Receptor>
prm/pocket_docking_5.prm

>  <SCORE>
-25.3324

>  <SCORE.INTER>
-25.3324

>  <SCORE.INTER.CONST>
1

>  <SCORE.INTER.POLAR>
-2.54826

>  <SCORE.INTER.ROT>
0

>  <SCORE.INTER.SOLV>
11.5374

>  <SCORE.INTER.VDW>
-15.8398

>  <SCORE.INTER.norm>
-2.53324

>  <SCORE.INTRA>
0

>  <SCORE.INTRA.DIHEDRAL>
0

>  <SCORE.INTRA.DIHEDRAL.0>
0

>  <SCORE.INTRA.POLAR>
0

>  <SCORE.INTRA.POLAR.0>
0

>  <SCORE.INTRA.REPUL>
0

>  <SCORE.INTRA.REPUL.0>
0

>  <SCORE.INTRA.SOLV>
0

>  <SCORE.INTRA.SOLV.lig_0>
-16.9472

>  <SCORE.INTRA.VDW>
0

>  <SCORE.INTRA.VDW.0>
0

>  <SCORE.INTRA.norm>
0

>  <SCORE.RESTR>
0

>  <SCORE.RESTR.CAVITY>
0

>  <SCORE.RESTR.norm>
0

>  <SCORE.SYSTEM>
0

>  <SCORE.SYSTEM.CONST>
0

>  <SCORE.SYSTEM.DIHEDRAL>
0

>  <SCORE.SYSTEM.SOLV>
0

>  <SCORE.SYSTEM.norm>
0

>  <SCORE.heavy>
10

>  <SCORE.norm>
-2.53324

>  <RMSD>
0.846

$$$$
1y26_lig
 OpenBabel02141814133D
libRbt.so/2013.1/901 2013/11/27
 10 11  0  0  0  0  0  0  0  0999 V2000
   19.7821  -17.8725    2.1157 N   0  0  0  0  0  0  0  0  0  0  0  0
   18.5263  -18.3260    2.1373 C   0  0  0  0  0  0  0  0  0  0  0  0
   17.8208  -18.7568    3.1811 N   0  0  0  0  0  0  0  0  0  0  0  0
   18.5416  -18.6629    4.3212 C   0  0  0  0  0  0  0  0  0  0  0  0
   19.8374  -18.2045    4.4516 C   0  0  0  0  0  0  0  0  0  0  0  0
   20.4706  -17.7975    3.2735 C   0  0  0  0  0  0  0  0  0  0  0  0
   21.7181  -17.3561    3.2780 N   0  0  0  0  0  0  0  0  0  0  0  0
   20.2798  -18.2495    5.7534 N   0  0  0  0  0  0  0  0  0  0  0  0
   19.2266  -18.7088    6.4040 C   0  0  0  0  0  0  0  0  0  0  0  0
   18.1489  -18.9893    5.5920 N   0  0  0  0  0  0  0  0  0  0  0  0
  1  2  2  0  0  0  0
  2  3  1  0  0  0  0
  3  4  2  0  0  0  0
  5  4  1  0  0  0  0
  5  6  2  0  0  0  0
  6  1  1  0  0  0  0
  6  7  1  0  0  0  0
  8  5  1  0  0  0  0
  9  8  1  0  0  0  0
 10  4  1  0  0  0  0
 10  9  2  0  0  0  0
M  END
>  <CHROM.1>
19.43536165,-18.29225510,4.04909594,1.26730996,-0.34364402,-1.42196952

>  <Name>
1y26_lig

>  <RI>
224

>  <Rbt.Current_Directory>
/home/afrankz/demos/rdock_decoys_rna/rnas/1y26

>  <Rbt.Executable>
rbdock ($Id: //depot/dev/client3/rdock/2013.1/src/exe/rbdock.cxx#4 $)

>  <Rbt.Library>
libRbt.so (2013.1, Build901 2013/11/27)

>  <Rbt.Parameter_File>
/export/apps/rDock/src/rDock_2013.1_src/data/scripts/dock_solv.prm

>  <Rbt.Receptor>
prm/pocket_docking_6.prm

>  <SCORE>
-25.3908

>  <SCORE.INTER>
-25.3908

>  <SCORE.INTER.CONST>
1

>  <SCORE.INTER.POLAR>
-2.5693

>  <SCORE.INTER.ROT>
0

>  <SCORE.INTER.SOLV>
11.543

>  <SCORE.INTER.VDW>
-15.8105

>  <SCORE.INTER.norm>
-2.53908

>  <SCORE.INTRA>
0

>  <SCORE.INTRA.DIHEDRAL>
0

>  <SCORE.INTRA.DIHEDRAL.0>
0

>  <SCORE.INTRA.POLAR>
0

>  <SCORE.INTRA.POLAR.0>
0

>  <SCORE.INTRA.REPUL>
0

>  <SCORE.INTRA.REPUL.0>
0

>  <SCORE.INTRA.SOLV>
0

>  <SCORE.INTRA.SOLV.lig_0>
-16.9472

>  <SCORE.INTRA.VDW>
0

>  <SCORE.INTRA.VDW.0>
0

>  <SCORE.INTRA.norm>
0

>  <SCORE.RESTR>
0

>  <SCORE.RESTR.CAVITY>
0

>  <SCORE.RESTR.norm>
0

>  <SCORE.SYSTEM>
0

>  <SCORE.SYSTEM.CONST>
0

>  <SCORE.SYSTEM.DIHEDRAL>
0

>  <SCORE.SYSTEM.SOLV>
0

>  <SCORE.SYSTEM.norm>
0

>  <SCORE.heavy>
10

>  <SCORE.norm>
-2.53908

>  <RMSD>
0.847

$$$$
1y26_lig
 OpenBabel02141814133D
libRbt.so/2013.1/901 2013/11/27
 10 11  0  0  0  0  0  0  0  0999 V2000
   19.7549  -17.8684    2.1067 N   0  0  0  0  0  0  0  0  0  0  0  0
   18.4974  -18.3176    2.1161 C   0  0  0  0  0  0  0  0  0  0  0  0
   17.7836  -18.7551    3.1515 N   0  0  0  0  0  0  0  0  0  0  0  0
   18.4973  -18.6738    4.2970 C   0  0  0  0  0  0  0  0  0  0  0  0
   19.7938  -18.2212    4.4399 C   0  0  0  0  0  0  0  0  0  0  0  0
   20.4361  -17.8060    3.2696 C   0  0  0  0  0  0  0  0  0  0  0  0
   21.6851  -17.3692    3.2860 N   0  0  0  0  0  0  0  0  0  0  0  0
   20.2276  -18.2793    5.7440 N   0  0  0  0  0  0  0  0  0  0  0  0
   19.1686  -18.7405    6.3837 C   0  0  0  0  0  0  0  0  0  0  0  0
   18.0952  -19.0100    5.5623 N   0  0  0  0  0  0  0  0  0  0  0  0
  1  2  2  0  0  0  0
  2  3  1  0  0  0  0
  3  4  2  0  0  0  0
  5  4  1  0  0  0  0
  5  6  2  0  0  0  0
  6  1  1  0  0  0  0
  6  7  1  0  0  0  0
  8  5  1  0  0  0  0
  9  8  1  0  0  0  0
 10  4  1  0  0  0  0
 10  9  2  0  0  0  0
M  END
>  <CHROM.1>
19.39411748,-18.30394841,4.03399597,1.25991832,-0.34113557,-1.41562034

>  <Name>
1y26_lig

>  <RI>
224

>  <Rbt.Current_Directory>
/home/afrankz/demos/rdock_decoys_rna/rnas/1y26

>  <Rbt.Executable>
rbdock ($Id: //depot/dev/client3/rdock/2013.1/src/exe/rbdock.cxx#4 $)

>  <Rbt.Library>
libRbt.so (2013.1, Build901 2013/11/27)

>  <Rbt.Parameter_File>
/export/apps/rDock/src/rDock_2013.1_src/data/scripts/dock_solv.prm

>  <Rbt.Receptor>
prm/pocket_docking_7.prm

>  <SCORE>
-25.421

>  <SCORE.INTER>
-25.421

>  <SCORE.INTER.CONST>
1

>  <SCORE.INTER.POLAR>
-2.53432

>  <SCORE.INTER.ROT>
0

>  <SCORE.INTER.SOLV>
11.5328

>  <SCORE.INTER.VDW>
-15.9439

>  <SCORE.INTER.norm>
-2.5421

>  <SCORE.INTRA>
0

>  <SCORE.INTRA.DIHEDRAL>
0

>  <SCORE.INTRA.DIHEDRAL.0>
0

>  <SCORE.INTRA.POLAR>
0

>  <SCORE.INTRA.POLAR.0>
0

>  <SCORE.INTRA.REPUL>
0

>  <SCORE.INTRA.REPUL.0>
0

>  <SCORE.INTRA.SOLV>
0

>  <SCORE.INTRA.SOLV.lig_0>
-16.9472

>  <SCORE.INTRA.VDW>
0

>  <SCORE.INTRA.VDW.0>
0

>  <SCORE.INTRA.norm>
0

>  <SCORE.RESTR>
0

>  <SCORE.RESTR.CAVITY>
0

>  <SCORE.RESTR.norm>
0

>  <SCORE.SYSTEM>
0

>  <SCORE.SYSTEM.CONST>
0

>  <SCORE.SYSTEM.DIHEDRAL>
0

>  <SCORE.SYSTEM.SOLV>
0

>  <SCORE.SYSTEM.norm>
0

>  <SCORE.heavy>
10

>  <SCORE.norm>
-2.5421

>  <RMSD>
0.847

$$$$
1y26_lig
 OpenBabel02141814133D
libRbt.so/2013.1/901 2013/11/27
 10 11  0  0  0  0  0  0  0  0999 V2000
   19.7805  -17.8893    2.0895 N   0  0  0  0  0  0  0  0  0  0  0  0
   18.5259  -18.3465    2.0940 C   0  0  0  0  0  0  0  0  0  0  0  0
   17.8067  -18.7771    3.1285 N   0  0  0  0  0  0  0  0  0  0  0  0
   18.5106  -18.6784    4.2787 C   0  0  0  0  0  0  0  0  0  0  0  0
   19.8030  -18.2157    4.4268 C   0  0  0  0  0  0  0  0  0  0  0  0
   20.4519  -17.8094    3.2570 C   0  0  0  0  0  0  0  0  0  0  0  0
   21.6979  -17.3642    3.2785 N   0  0  0  0  0  0  0  0  0  0  0  0
   20.2267  -18.2563    5.7349 N   0  0  0  0  0  0  0  0  0  0  0  0
   19.1656  -18.7173    6.3713 C   0  0  0  0  0  0  0  0  0  0  0  0
   18.1006  -19.0031    5.5444 N   0  0  0  0  0  0  0  0  0  0  0  0
  1  2  2  0  0  0  0
  2  3  1  0  0  0  0
  3  4  2  0  0  0  0
  5  4  1  0  0  0  0
  5  6  2  0  0  0  0
  6  1  1  0  0  0  0
  6  7  1  0  0  0  0
  8  5  1  0  0  0  0
  9  8  1  0  0  0  0
 10  4  1  0  0  0  0
 10  9  2  0  0  0  0
M  END
>  <CHROM.1>
19.40710711,-18.30556654,4.01867744,1.25257467,-0.34877754,-1.42930533

>  <Name>
1y26_lig

>  <RI>
0

>  <Rbt.Current_Directory>
/home/afrankz/demos/rdock_decoys_rna/rnas/1y26

>  <Rbt.Executable>
rbdock ($Id: //depot/dev/client3/rdock/2013.1/src/exe/rbdock.cxx#4 $)

>  <Rbt.Library>
libRbt.so (2013.1, Build901 2013/11/27)

>  <Rbt.Parameter_File>
/export/apps/rDock/src/rDock_2013.1_src/data/scripts/dock_solv.prm

>  <Rbt.Receptor>
prm/blind_docking_40.prm

>  <SCORE>
-25.3841

>  <SCORE.INTER>
-25.3841

>  <SCORE.INTER.CONST>
1

>  <SCORE.INTER.POLAR>
-2.55014

>  <SCORE.INTER.ROT>
0

>  <SCORE.INTER.SOLV>
11.5433

>  <SCORE.INTER.VDW>
-15.87

>  <SCORE.INTER.norm>
-2.53841

>  <SCORE.INTRA>
0

>  <SCORE.INTRA.DIHEDRAL>
0

>  <SCORE.INTRA.DIHEDRAL.0>
0

>  <SCORE.INTRA.POLAR>
0

>  <SCORE.INTRA.POLAR.0>
0

>  <SCORE.INTRA.REPUL>
0

>  <SCORE.INTRA.REPUL.0>
0

>  <SCORE.INTRA.SOLV>
0

>  <SCORE.INTRA.SOLV.lig_0>
-16.9472

>  <SCORE.INTRA.VDW>
0

>  <SCORE.INTRA.VDW.0>
0

>  <SCORE.INTRA.norm>
0

>  <SCORE.RESTR>
0

>  <SCORE.RESTR.CAVITY>
0

>  <SCORE.RESTR.norm>
0

>  <SCORE.SYSTEM>
0

>  <SCORE.SYSTEM.CONST>
0

>  <SCORE.SYSTEM.DIHEDRAL>
0

>  <SCORE.SYSTEM.SOLV>
0

>  <SCORE.SYSTEM.norm>
0

>  <SCORE.heavy>
10

>  <SCORE.norm>
-2.53841

>  <RMSD>
0.848

$$$$
1y26_lig
 OpenBabel02141814133D
libRbt.so/2013.1/901 2013/11/27
 10 11  0  0  0  0  0  0  0  0999 V2000
   19.7836  -17.8922    2.0886 N   0  0  0  0  0  0  0  0  0  0  0  0
   18.5295  -18.3509    2.0909 C   0  0  0  0  0  0  0  0  0  0  0  0
   17.8079  -18.7794    3.1247 N   0  0  0  0  0  0  0  0  0  0  0  0
   18.5085  -18.6765    4.2765 C   0  0  0  0  0  0  0  0  0  0  0  0
   19.8000  -18.2118    4.4268 C   0  0  0  0  0  0  0  0  0  0  0  0
   20.4517  -17.8082    3.2577 C   0  0  0  0  0  0  0  0  0  0  0  0
   21.6971  -17.3614    3.2813 N   0  0  0  0  0  0  0  0  0  0  0  0
   20.2200  -18.2482    5.7362 N   0  0  0  0  0  0  0  0  0  0  0  0
   19.1577  -18.7086    6.3710 C   0  0  0  0  0  0  0  0  0  0  0  0
   18.0954  -18.9980    5.5420 N   0  0  0  0  0  0  0  0  0  0  0  0
  1  2  2  0  0  0  0
  2  3  1  0  0  0  0
  3  4  2  0  0  0  0
  5  4  1  0  0  0  0
  5  6  2  0  0  0  0
  6  1  1  0  0  0  0
  6  7  1  0  0  0  0
  8  5  1  0  0  0  0
  9  8  1  0  0  0  0
 10  4  1  0  0  0  0
 10  9  2  0  0  0  0
M  END
>  <CHROM.1>
19.40531444,-18.30336662,4.01789661,1.24981678,-0.35031367,-1.43312069

>  <Name>
1y26_lig

>  <RI>
0

>  <Rbt.Current_Directory>
/home/afrankz/demos/rdock_decoys_rna/rnas/1y26

>  <Rbt.Executable>
rbdock ($Id: //depot/dev/client3/rdock/2013.1/src/exe/rbdock.cxx#4 $)

>  <Rbt.Library>
libRbt.so (2013.1, Build901 2013/11/27)

>  <Rbt.Parameter_File>
/export/apps/rDock/src/rDock_2013.1_src/data/scripts/dock_solv.prm

>  <Rbt.Receptor>
prm/pocket_docking_8.prm

>  <SCORE>
-25.3898

>  <SCORE.INTER>
-25.3898

>  <SCORE.INTER.CONST>
1

>  <SCORE.INTER.POLAR>
-2.54331

>  <SCORE.INTER.ROT>
0

>  <SCORE.INTER.SOLV>
11.5391

>  <SCORE.INTER.VDW>
-15.8952

>  <SCORE.INTER.norm>
-2.53898

>  <SCORE.INTRA>
0

>  <SCORE.INTRA.DIHEDRAL>
0

>  <SCORE.INTRA.DIHEDRAL.0>
0

>  <SCORE.INTRA.POLAR>
0

>  <SCORE.INTRA.POLAR.0>
0

>  <SCORE.INTRA.REPUL>
0

>  <SCORE.INTRA.REPUL.0>
0

>  <SCORE.INTRA.SOLV>
0

>  <SCORE.INTRA.SOLV.lig_0>
-16.9472

>  <SCORE.INTRA.VDW>
0

>  <SCORE.INTRA.VDW.0>
0

>  <SCORE.INTRA.norm>
0

>  <SCORE.RESTR>
0

>  <SCORE.RESTR.CAVITY>
0

>  <SCORE.RESTR.norm>
0

>  <SCORE.SYSTEM>
0

>  <SCORE.SYSTEM.CONST>
0

>  <SCORE.SYSTEM.DIHEDRAL>
0

>  <SCORE.SYSTEM.SOLV>
0

>  <SCORE.SYSTEM.norm>
0

>  <SCORE.heavy>
10

>  <SCORE.norm>
-2.53898

>  <RMSD>
0.848

$$$$
1y26_lig
 OpenBabel02141814133D
libRbt.so/2013.1/901 2013/11/27
 10 11  0  0  0  0  0  0  0  0999 V2000
   19.7788  -17.8808    2.0975 N   0  0  0  0  0  0  0  0  0  0  0  0
   18.5225  -18.3333    2.0984 C   0  0  0  0  0  0  0  0  0  0  0  0
   17.8014  -18.7682    3.1298 N   0  0  0  0  0  0  0  0  0  0  0  0
   18.5053  -18.6800    4.2809 C   0  0  0  0  0  0  0  0  0  0  0  0
   19.7994  -18.2232    4.4324 C   0  0  0  0  0  0  0  0  0  0  0  0
   20.4502  -17.8114    3.2656 C   0  0  0  0  0  0  0  0  0  0  0  0
   21.6979  -17.3712    3.2905 N   0  0  0  0  0  0  0  0  0  0  0  0
   20.2225  -18.2744    5.7403 N   0  0  0  0  0  0  0  0  0  0  0  0
   19.1595  -18.7357    6.3733 C   0  0  0  0  0  0  0  0  0  0  0  0
   18.0937  -19.0117    5.5442 N   0  0  0  0  0  0  0  0  0  0  0  0
  1  2  2  0  0  0  0
  2  3  1  0  0  0  0
  3  4  2  0  0  0  0
  5  4  1  0  0  0  0
  5  6  2  0  0  0  0
  6  1  1  0  0  0  0
  6  7  1  0  0  0  0
  8  5  1  0  0  0  0
  9  8  1  0  0  0  0
 10  4  1  0  0  0  0
 10  9  2  0  0  0  0
M  END
>  <CHROM.1>
19.40329007,-18.30882396,4.02361449,1.25168744,-0.34504116,-1.42277221

>  <Name>
1y26_lig

>  <RI>
0

>  <Rbt.Current_Directory>
/home/afrankz/demos/rdock_decoys_rna/rnas/1y26

>  <Rbt.Executable>
rbdock ($Id: //depot/dev/client3/rdock/2013.1/src/exe/rbdock.cxx#4 $)

>  <Rbt.Library>
libRbt.so (2013.1, Build901 2013/11/27)

>  <Rbt.Parameter_File>
/export/apps/rDock/src/rDock_2013.1_src/data/scripts/dock_solv.prm

>  <Rbt.Receptor>
prm/blind_docking_60.prm

>  <SCORE>
-25.4178

>  <SCORE.INTER>
-25.4178

>  <SCORE.INTER.CONST>
1

>  <SCORE.INTER.POLAR>
-2.52959

>  <SCORE.INTER.ROT>
0

>  <SCORE.INTER.SOLV>
11.5321

>  <SCORE.INTER.VDW>
-15.9573

>  <SCORE.INTER.norm>
-2.54178

>  <SCORE.INTRA>
0

>  <SCORE.INTRA.DIHEDRAL>
0

>  <SCORE.INTRA.DIHEDRAL.0>
0

>  <SCORE.INTRA.POLAR>
0

>  <SCORE.INTRA.POLAR.0>
0

>  <SCORE.INTRA.REPUL>
0

>  <SCORE.INTRA.REPUL.0>
0

>  <SCORE.INTRA.SOLV>
0

>  <SCORE.INTRA.SOLV.lig_0>
-16.9472

>  <SCORE.INTRA.VDW>
0

>  <SCORE.INTRA.VDW.0>
0

>  <SCORE.INTRA.norm>
0

>  <SCORE.RESTR>
0

>  <SCORE.RESTR.CAVITY>
0

>  <SCORE.RESTR.norm>
0

>  <SCORE.SYSTEM>
0

>  <SCORE.SYSTEM.CONST>
0

>  <SCORE.SYSTEM.DIHEDRAL>
0

>  <SCORE.SYSTEM.SOLV>
0

>  <SCORE.SYSTEM.norm>
0

>  <SCORE.heavy>
10

>  <SCORE.norm>
-2.54178

>  <RMSD>
0.849

$$$$
1y26_lig
 OpenBabel02141814133D
libRbt.so/2013.1/901 2013/11/27
 10 11  0  0  0  0  0  0  0  0999 V2000
   19.7232  -17.8743    2.1350 N   0  0  0  0  0  0  0  0  0  0  0  0
   18.4660  -18.3233    2.1669 C   0  0  0  0  0  0  0  0  0  0  0  0
   17.7700  -18.7585    3.2152 N   0  0  0  0  0  0  0  0  0  0  0  0
   18.5032  -18.6750    4.3483 C   0  0  0  0  0  0  0  0  0  0  0  0
   19.8021  -18.2222    4.4679 C   0  0  0  0  0  0  0  0  0  0  0  0
   20.4242  -17.8095    3.2859 C   0  0  0  0  0  0  0  0  0  0  0  0
   21.6734  -17.3728    3.2801 N   0  0  0  0  0  0  0  0  0  0  0  0
   20.2581  -18.2775    5.7646 N   0  0  0  0  0  0  0  0  0  0  0  0
   19.2101  -18.7373    6.4233 C   0  0  0  0  0  0  0  0  0  0  0  0
   18.1229  -19.0085    5.6209 N   0  0  0  0  0  0  0  0  0  0  0  0
  1  2  2  0  0  0  0
  2  3  1  0  0  0  0
  3  4  2  0  0  0  0
  5  4  1  0  0  0  0
  5  6  2  0  0  0  0
  6  1  1  0  0  0  0
  6  7  1  0  0  0  0
  8  5  1  0  0  0  0
  9  8  1  0  0  0  0
 10  4  1  0  0  0  0
 10  9  2  0  0  0  0
M  END
>  <CHROM.1>
19.39544717,-18.30572306,4.06911304,1.27784392,-0.33836549,-1.41174573

>  <Name>
1y26_lig

>  <RI>
0

>  <Rbt.Current_Directory>
/home/afrankz/demos/rdock_decoys_rna/rnas/1y26

>  <Rbt.Executable>
rbdock ($Id: //depot/dev/client3/rdock/2013.1/src/exe/rbdock.cxx#4 $)

>  <Rbt.Library>
libRbt.so (2013.1, Build901 2013/11/27)

>  <Rbt.Parameter_File>
/export/apps/rDock/src/rDock_2013.1_src/data/scripts/dock_solv.prm

>  <Rbt.Receptor>
prm/pocket_docking_4.prm

>  <SCORE>
-25.3266

>  <SCORE.INTER>
-25.3266

>  <SCORE.INTER.CONST>
1

>  <SCORE.INTER.POLAR>
-2.53505

>  <SCORE.INTER.ROT>
0

>  <SCORE.INTER.SOLV>
11.5411

>  <SCORE.INTER.VDW>
-15.8813

>  <SCORE.INTER.norm>
-2.53266

>  <SCORE.INTRA>
0

>  <SCORE.INTRA.DIHEDRAL>
0

>  <SCORE.INTRA.DIHEDRAL.0>
0

>  <SCORE.INTRA.POLAR>
0

>  <SCORE.INTRA.POLAR.0>
0

>  <SCORE.INTRA.REPUL>
0

>  <SCORE.INTRA.REPUL.0>
0

>  <SCORE.INTRA.SOLV>
0

>  <SCORE.INTRA.SOLV.lig_0>
-16.9472

>  <SCORE.INTRA.VDW>
0

>  <SCORE.INTRA.VDW.0>
0

>  <SCORE.INTRA.norm>
0

>  <SCORE.RESTR>
0

>  <SCORE.RESTR.CAVITY>
0

>  <SCORE.RESTR.norm>
0

>  <SCORE.SYSTEM>
0

>  <SCORE.SYSTEM.CONST>
0

>  <SCORE.SYSTEM.DIHEDRAL>
0

>  <SCORE.SYSTEM.SOLV>
0

>  <SCORE.SYSTEM.norm>
0

>  <SCORE.heavy>
10

>  <SCORE.norm>
-2.53266

>  <RMSD>
0.849

$$$$
1y26_lig
 OpenBabel02141814133D
libRbt.so/2013.1/901 2013/11/27
 10 11  0  0  0  0  0  0  0  0999 V2000
   19.7739  -17.8711    2.1229 N   0  0  0  0  0  0  0  0  0  0  0  0
   18.5168  -18.3208    2.1419 C   0  0  0  0  0  0  0  0  0  0  0  0
   17.8101  -18.7557    3.1833 N   0  0  0  0  0  0  0  0  0  0  0  0
   18.5313  -18.6708    4.3239 C   0  0  0  0  0  0  0  0  0  0  0  0
   19.8286  -18.2172    4.4568 C   0  0  0  0  0  0  0  0  0  0  0  0
   20.4629  -17.8050    3.2810 C   0  0  0  0  0  0  0  0  0  0  0  0
   21.7117  -17.3676    3.2879 N   0  0  0  0  0  0  0  0  0  0  0  0
   20.2710  -18.2712    5.7581 N   0  0  0  0  0  0  0  0  0  0  0  0
   19.2166  -18.7312    6.4062 C   0  0  0  0  0  0  0  0  0  0  0  0
   18.1379  -19.0036    5.5927 N   0  0  0  0  0  0  0  0  0  0  0  0
  1  2  2  0  0  0  0
  2  3  1  0  0  0  0
  3  4  2  0  0  0  0
  5  4  1  0  0  0  0
  5  6  2  0  0  0  0
  6  1  1  0  0  0  0
  6  7  1  0  0  0  0
  8  5  1  0  0  0  0
  9  8  1  0  0  0  0
 10  4  1  0  0  0  0
 10  9  2  0  0  0  0
M  END
>  <CHROM.1>
19.42622288,-18.30124271,4.05378631,1.26698649,-0.34059037,-1.41612204

>  <Name>
1y26_lig

>  <RI>
0

>  <Rbt.Current_Directory>
/home/afrankz/demos/rdock_decoys_rna/rnas/1y26

>  <Rbt.Executable>
rbdock ($Id: //depot/dev/client3/rdock/2013.1/src/exe/rbdock.cxx#4 $)

>  <Rbt.Library>
libRbt.so (2013.1, Build901 2013/11/27)

>  <Rbt.Parameter_File>
/export/apps/rDock/src/rDock_2013.1_src/data/scripts/dock_solv.prm

>  <Rbt.Receptor>
prm/pocket_docking_4.prm

>  <SCORE>
-25.3389

>  <SCORE.INTER>
-25.3389

>  <SCORE.INTER.CONST>
1

>  <SCORE.INTER.POLAR>
-2.55036

>  <SCORE.INTER.ROT>
0

>  <SCORE.INTER.SOLV>
11.5354

>  <SCORE.INTER.VDW>
-15.8365

>  <SCORE.INTER.norm>
-2.53389

>  <SCORE.INTRA>
0

>  <SCORE.INTRA.DIHEDRAL>
0

>  <SCORE.INTRA.DIHEDRAL.0>
0

>  <SCORE.INTRA.POLAR>
0

>  <SCORE.INTRA.POLAR.0>
0

>  <SCORE.INTRA.REPUL>
0

>  <SCORE.INTRA.REPUL.0>
0

>  <SCORE.INTRA.SOLV>
0

>  <SCORE.INTRA.SOLV.lig_0>
-16.9472

>  <SCORE.INTRA.VDW>
0

>  <SCORE.INTRA.VDW.0>
0

>  <SCORE.INTRA.norm>
0

>  <SCORE.RESTR>
0

>  <SCORE.RESTR.CAVITY>
0

>  <SCORE.RESTR.norm>
0

>  <SCORE.SYSTEM>
0

>  <SCORE.SYSTEM.CONST>
0

>  <SCORE.SYSTEM.DIHEDRAL>
0

>  <SCORE.SYSTEM.SOLV>
0

>  <SCORE.SYSTEM.norm>
0

>  <SCORE.heavy>
10

>  <SCORE.norm>
-2.53389

>  <RMSD>
0.849

$$$$
1y26_lig
 OpenBabel02141814133D
libRbt.so/2013.1/901 2013/11/27
 10 11  0  0  0  0  0  0  0  0999 V2000
   19.7534  -17.8800    2.1058 N   0  0  0  0  0  0  0  0  0  0  0  0
   18.4966  -18.3312    2.1161 C   0  0  0  0  0  0  0  0  0  0  0  0
   17.7834  -18.7672    3.1526 N   0  0  0  0  0  0  0  0  0  0  0  0
   18.4968  -18.6818    4.2980 C   0  0  0  0  0  0  0  0  0  0  0  0
   19.7926  -18.2267    4.4398 C   0  0  0  0  0  0  0  0  0  0  0  0
   20.4343  -17.8135    3.2685 C   0  0  0  0  0  0  0  0  0  0  0  0
   21.6826  -17.3746    3.2840 N   0  0  0  0  0  0  0  0  0  0  0  0
   20.2262  -18.2807    5.7442 N   0  0  0  0  0  0  0  0  0  0  0  0
   19.1679  -18.7420    6.3850 C   0  0  0  0  0  0  0  0  0  0  0  0
   18.0951  -19.0154    5.5640 N   0  0  0  0  0  0  0  0  0  0  0  0
  1  2  2  0  0  0  0
  2  3  1  0  0  0  0
  3  4  2  0  0  0  0
  5  4  1  0  0  0  0
  5  6  2  0  0  0  0
  6  1  1  0  0  0  0
  6  7  1  0  0  0  0
  8  5  1  0  0  0  0
  9  8  1  0  0  0  0
 10  4  1  0  0  0  0
 10  9  2  0  0  0  0
M  END
>  <CHROM.1>
19.39303582,-18.31114015,4.03412399,1.26004597,-0.34276520,-1.41816387

>  <Name>
1y26_lig

>  <RI>
0

>  <Rbt.Current_Directory>
/home/afrankz/demos/rdock_decoys_rna/rnas/1y26

>  <Rbt.Executable>
rbdock ($Id: //depot/dev/client3/rdock/2013.1/src/exe/rbdock.cxx#4 $)

>  <Rbt.Library>
libRbt.so (2013.1, Build901 2013/11/27)

>  <Rbt.Parameter_File>
/export/apps/rDock/src/rDock_2013.1_src/data/scripts/dock_solv.prm

>  <Rbt.Receptor>
prm/pocket_docking_8.prm

>  <SCORE>
-25.4238

>  <SCORE.INTER>
-25.4238

>  <SCORE.INTER.CONST>
1

>  <SCORE.INTER.POLAR>
-2.53691

>  <SCORE.INTER.ROT>
0

>  <SCORE.INTER.SOLV>
11.5386

>  <SCORE.INTER.VDW>
-15.939

>  <SCORE.INTER.norm>
-2.54238

>  <SCORE.INTRA>
0

>  <SCORE.INTRA.DIHEDRAL>
0

>  <SCORE.INTRA.DIHEDRAL.0>
0

>  <SCORE.INTRA.POLAR>
0

>  <SCORE.INTRA.POLAR.0>
0

>  <SCORE.INTRA.REPUL>
0

>  <SCORE.INTRA.REPUL.0>
0

>  <SCORE.INTRA.SOLV>
0

>  <SCORE.INTRA.SOLV.lig_0>
-16.9472

>  <SCORE.INTRA.VDW>
0

>  <SCORE.INTRA.VDW.0>
0

>  <SCORE.INTRA.norm>
0

>  <SCORE.RESTR>
0

>  <SCORE.RESTR.CAVITY>
0

>  <SCORE.RESTR.norm>
0

>  <SCORE.SYSTEM>
0

>  <SCORE.SYSTEM.CONST>
0

>  <SCORE.SYSTEM.DIHEDRAL>
0

>  <SCORE.SYSTEM.SOLV>
0

>  <SCORE.SYSTEM.norm>
0

>  <SCORE.heavy>
10

>  <SCORE.norm>
-2.54238

>  <RMSD>
0.849

$$$$
1y26_lig
 OpenBabel02141814133D
libRbt.so/2013.1/901 2013/11/27
 10 11  0  0  0  0  0  0  0  0999 V2000
   19.7551  -17.8792    2.1154 N   0  0  0  0  0  0  0  0  0  0  0  0
   18.4985  -18.3309    2.1218 C   0  0  0  0  0  0  0  0  0  0  0  0
   17.7845  -18.7736    3.1548 N   0  0  0  0  0  0  0  0  0  0  0  0
   18.4967  -18.6950    4.3014 C   0  0  0  0  0  0  0  0  0  0  0  0
   19.7922  -18.2402    4.4473 C   0  0  0  0  0  0  0  0  0  0  0  0
   20.4349  -17.8195    3.2792 C   0  0  0  0  0  0  0  0  0  0  0  0
   21.6830  -17.3802    3.2986 N   0  0  0  0  0  0  0  0  0  0  0  0
   20.2246  -18.3020    5.7517 N   0  0  0  0  0  0  0  0  0  0  0  0
   19.1659  -18.7677    6.3886 C   0  0  0  0  0  0  0  0  0  0  0  0
   18.0940  -19.0365    5.5650 N   0  0  0  0  0  0  0  0  0  0  0  0
  1  2  2  0  0  0  0
  2  3  1  0  0  0  0
  3  4  2  0  0  0  0
  5  4  1  0  0  0  0
  5  6  2  0  0  0  0
  6  1  1  0  0  0  0
  6  7  1  0  0  0  0
  8  5  1  0  0  0  0
  9  8  1  0  0  0  0
 10  4  1  0  0  0  0
 10  9  2  0  0  0  0
M  END
>  <CHROM.1>
19.39310821,-18.32230603,4.04070639,1.25911293,-0.34335418,-1.41232703

>  <Name>
1y26_lig

>  <RI>
0

>  <Rbt.Current_Directory>
/home/afrankz/demos/rdock_decoys_rna/rnas/1y26

>  <Rbt.Executable>
rbdock ($Id: //depot/dev/client3/rdock/2013.1/src/exe/rbdock.cxx#4 $)

>  <Rbt.Library>
libRbt.so (2013.1, Build901 2013/11/27)

>  <Rbt.Parameter_File>
/export/apps/rDock/src/rDock_2013.1_src/data/scripts/dock_solv.prm

>  <Rbt.Receptor>
prm/blind_docking_40.prm

>  <SCORE>
-25.3978

>  <SCORE.INTER>
-25.3978

>  <SCORE.INTER.CONST>
1

>  <SCORE.INTER.POLAR>
-2.51263

>  <SCORE.INTER.ROT>
0

>  <SCORE.INTER.SOLV>
11.5341

>  <SCORE.INTER.VDW>
-16.0012

>  <SCORE.INTER.norm>
-2.53978

>  <SCORE.INTRA>
0

>  <SCORE.INTRA.DIHEDRAL>
0

>  <SCORE.INTRA.DIHEDRAL.0>
0

>  <SCORE.INTRA.POLAR>
0

>  <SCORE.INTRA.POLAR.0>
0

>  <SCORE.INTRA.REPUL>
0

>  <SCORE.INTRA.REPUL.0>
0

>  <SCORE.INTRA.SOLV>
0

>  <SCORE.INTRA.SOLV.lig_0>
-16.9472

>  <SCORE.INTRA.VDW>
0

>  <SCORE.INTRA.VDW.0>
0

>  <SCORE.INTRA.norm>
0

>  <SCORE.RESTR>
0

>  <SCORE.RESTR.CAVITY>
0

>  <SCORE.RESTR.norm>
0

>  <SCORE.SYSTEM>
0

>  <SCORE.SYSTEM.CONST>
0

>  <SCORE.SYSTEM.DIHEDRAL>
0

>  <SCORE.SYSTEM.SOLV>
0

>  <SCORE.SYSTEM.norm>
0

>  <SCORE.heavy>
10

>  <SCORE.norm>
-2.53978

>  <RMSD>
0.850

$$$$
1y26_lig
 OpenBabel02141814133D
libRbt.so/2013.1/901 2013/11/27
 10 11  0  0  0  0  0  0  0  0999 V2000
   19.7507  -17.8690    2.1112 N   0  0  0  0  0  0  0  0  0  0  0  0
   18.4915  -18.3134    2.1216 C   0  0  0  0  0  0  0  0  0  0  0  0
   17.7775  -18.7501    3.1572 N   0  0  0  0  0  0  0  0  0  0  0  0
   18.4931  -18.6737    4.3019 C   0  0  0  0  0  0  0  0  0  0  0  0
   19.7916  -18.2262    4.4437 C   0  0  0  0  0  0  0  0  0  0  0  0
   20.4338  -17.8113    3.2732 C   0  0  0  0  0  0  0  0  0  0  0  0
   21.6845  -17.3792    3.2887 N   0  0  0  0  0  0  0  0  0  0  0  0
   20.2269  -18.2883    5.7471 N   0  0  0  0  0  0  0  0  0  0  0  0
   19.1671  -18.7467    6.3875 C   0  0  0  0  0  0  0  0  0  0  0  0
   18.0916  -19.0107    5.5670 N   0  0  0  0  0  0  0  0  0  0  0  0
  1  2  2  0  0  0  0
  2  3  1  0  0  0  0
  3  4  2  0  0  0  0
  5  4  1  0  0  0  0
  5  6  2  0  0  0  0
  6  1  1  0  0  0  0
  6  7  1  0  0  0  0
  8  5  1  0  0  0  0
  9  8  1  0  0  0  0
 10  4  1  0  0  0  0
 10  9  2  0  0  0  0
M  END
>  <CHROM.1>
19.39097843,-18.30666919,4.03821869,1.26078508,-0.33717583,-1.41348462

>  <Name>
1y26_lig

>  <RI>
0

>  <Rbt.Current_Directory>
/home/afrankz/demos/rdock_decoys_rna/rnas/1y26

>  <Rbt.Executable>
rbdock ($Id: //depot/dev/client3/rdock/2013.1/src/exe/rbdock.cxx#4 $)

>  <Rbt.Library>
libRbt.so (2013.1, Build901 2013/11/27)

>  <Rbt.Parameter_File>
/export/apps/rDock/src/rDock_2013.1_src/data/scripts/dock_solv.prm

>  <Rbt.Receptor>
prm/blind_docking_40.prm

>  <SCORE>
-25.4183

>  <SCORE.INTER>
-25.4183

>  <SCORE.INTER.CONST>
1

>  <SCORE.INTER.POLAR>
-2.53132

>  <SCORE.INTER.ROT>
0

>  <SCORE.INTER.SOLV>
11.5295

>  <SCORE.INTER.VDW>
-15.951

>  <SCORE.INTER.norm>
-2.54183

>  <SCORE.INTRA>
0

>  <SCORE.INTRA.DIHEDRAL>
0

>  <SCORE.INTRA.DIHEDRAL.0>
0

>  <SCORE.INTRA.POLAR>
0

>  <SCORE.INTRA.POLAR.0>
0

>  <SCORE.INTRA.REPUL>
0

>  <SCORE.INTRA.REPUL.0>
0

>  <SCORE.INTRA.SOLV>
0

>  <SCORE.INTRA.SOLV.lig_0>
-16.9472

>  <SCORE.INTRA.VDW>
0

>  <SCORE.INTRA.VDW.0>
0

>  <SCORE.INTRA.norm>
0

>  <SCORE.RESTR>
0

>  <SCORE.RESTR.CAVITY>
0

>  <SCORE.RESTR.norm>
0

>  <SCORE.SYSTEM>
0

>  <SCORE.SYSTEM.CONST>
0

>  <SCORE.SYSTEM.DIHEDRAL>
0

>  <SCORE.SYSTEM.SOLV>
0

>  <SCORE.SYSTEM.norm>
0

>  <SCORE.heavy>
10

>  <SCORE.norm>
-2.54183

>  <RMSD>
0.850

$$$$
1y26_lig
 OpenBabel02141814133D
libRbt.so/2013.1/901 2013/11/27
 10 11  0  0  0  0  0  0  0  0999 V2000
   19.7146  -17.8705    2.1416 N   0  0  0  0  0  0  0  0  0  0  0  0
   18.4556  -18.3139    2.1784 C   0  0  0  0  0  0  0  0  0  0  0  0
   17.7608  -18.7432    3.2300 N   0  0  0  0  0  0  0  0  0  0  0  0
   18.4976  -18.6596    4.3607 C   0  0  0  0  0  0  0  0  0  0  0  0
   19.7987  -18.2121    4.4753 C   0  0  0  0  0  0  0  0  0  0  0  0
   20.4193  -17.8055    3.2903 C   0  0  0  0  0  0  0  0  0  0  0  0
   21.6702  -17.3742    3.2796 N   0  0  0  0  0  0  0  0  0  0  0  0
   20.2583  -18.2658    5.7707 N   0  0  0  0  0  0  0  0  0  0  0  0
   19.2103  -18.7192    6.4338 C   0  0  0  0  0  0  0  0  0  0  0  0
   18.1195  -18.9879    5.6353 N   0  0  0  0  0  0  0  0  0  0  0  0
  1  2  2  0  0  0  0
  2  3  1  0  0  0  0
  3  4  2  0  0  0  0
  5  4  1  0  0  0  0
  5  6  2  0  0  0  0
  6  1  1  0  0  0  0
  6  7  1  0  0  0  0
  8  5  1  0  0  0  0
  9  8  1  0  0  0  0
 10  4  1  0  0  0  0
 10  9  2  0  0  0  0
M  END
>  <CHROM.1>
19.39060880,-18.29504214,4.07788746,1.28017391,-0.33363359,-1.41380346

>  <Name>
1y26_lig

>  <RI>
0

>  <Rbt.Current_Directory>
/home/afrankz/demos/rdock_decoys_rna/rnas/1y26

>  <Rbt.Executable>
rbdock ($Id: //depot/dev/client3/rdock/2013.1/src/exe/rbdock.cxx#4 $)

>  <Rbt.Library>
libRbt.so (2013.1, Build901 2013/11/27)

>  <Rbt.Parameter_File>
/export/apps/rDock/src/rDock_2013.1_src/data/scripts/dock_solv.prm

>  <Rbt.Receptor>
prm/pocket_docking_5.prm

>  <SCORE>
-25.3976

>  <SCORE.INTER>
-25.3976

>  <SCORE.INTER.CONST>
1

>  <SCORE.INTER.POLAR>
-2.53327

>  <SCORE.INTER.ROT>
0

>  <SCORE.INTER.SOLV>
11.5307

>  <SCORE.INTER.VDW>
-15.9311

>  <SCORE.INTER.norm>
-2.53976

>  <SCORE.INTRA>
0

>  <SCORE.INTRA.DIHEDRAL>
0

>  <SCORE.INTRA.DIHEDRAL.0>
0

>  <SCORE.INTRA.POLAR>
0

>  <SCORE.INTRA.POLAR.0>
0

>  <SCORE.INTRA.REPUL>
0

>  <SCORE.INTRA.REPUL.0>
0

>  <SCORE.INTRA.SOLV>
0

>  <SCORE.INTRA.SOLV.lig_0>
-16.9472

>  <SCORE.INTRA.VDW>
0

>  <SCORE.INTRA.VDW.0>
0

>  <SCORE.INTRA.norm>
0

>  <SCORE.RESTR>
0

>  <SCORE.RESTR.CAVITY>
0

>  <SCORE.RESTR.norm>
0

>  <SCORE.SYSTEM>
0

>  <SCORE.SYSTEM.CONST>
0

>  <SCORE.SYSTEM.DIHEDRAL>
0

>  <SCORE.SYSTEM.SOLV>
0

>  <SCORE.SYSTEM.norm>
0

>  <SCORE.heavy>
10

>  <SCORE.norm>
-2.53976

>  <RMSD>
0.850

$$$$
1y26_lig
 OpenBabel02141814133D
libRbt.so/2013.1/901 2013/11/27
 10 11  0  0  0  0  0  0  0  0999 V2000
   19.7062  -17.8690    2.1349 N   0  0  0  0  0  0  0  0  0  0  0  0
   18.4473  -18.3125    2.1761 C   0  0  0  0  0  0  0  0  0  0  0  0
   17.7568  -18.7432    3.2300 N   0  0  0  0  0  0  0  0  0  0  0  0
   18.4981  -18.6610    4.3578 C   0  0  0  0  0  0  0  0  0  0  0  0
   19.7996  -18.2135    4.4678 C   0  0  0  0  0  0  0  0  0  0  0  0
   20.4154  -17.8054    3.2808 C   0  0  0  0  0  0  0  0  0  0  0  0
   21.6663  -17.3740    3.2657 N   0  0  0  0  0  0  0  0  0  0  0  0
   20.2643  -18.2688    5.7613 N   0  0  0  0  0  0  0  0  0  0  0  0
   19.2190  -18.7231    6.4280 C   0  0  0  0  0  0  0  0  0  0  0  0
   18.1251  -18.9909    5.6335 N   0  0  0  0  0  0  0  0  0  0  0  0
  1  2  2  0  0  0  0
  2  3  1  0  0  0  0
  3  4  2  0  0  0  0
  5  4  1  0  0  0  0
  5  6  2  0  0  0  0
  6  1  1  0  0  0  0
  6  7  1  0  0  0  0
  8  5  1  0  0  0  0
  9  8  1  0  0  0  0
 10  4  1  0  0  0  0
 10  9  2  0  0  0  0
M  END
>  <CHROM.1>
19.38992359,-18.29597181,4.07190952,1.28434493,-0.33307366,-1.41117833

>  <Name>
1y26_lig

>  <RI>
224

>  <Rbt.Current_Directory>
/home/afrankz/demos/rdock_decoys_rna/rnas/1y26

>  <Rbt.Executable>
rbdock ($Id: //depot/dev/client3/rdock/2013.1/src/exe/rbdock.cxx#4 $)

>  <Rbt.Library>
libRbt.so (2013.1, Build901 2013/11/27)

>  <Rbt.Parameter_File>
/export/apps/rDock/src/rDock_2013.1_src/data/scripts/dock_solv.prm

>  <Rbt.Receptor>
prm/pocket_docking_6.prm

>  <SCORE>
-25.3558

>  <SCORE.INTER>
-25.3558

>  <SCORE.INTER.CONST>
1

>  <SCORE.INTER.POLAR>
-2.55039

>  <SCORE.INTER.ROT>
0

>  <SCORE.INTER.SOLV>
11.5466

>  <SCORE.INTER.VDW>
-15.8515

>  <SCORE.INTER.norm>
-2.53558

>  <SCORE.INTRA>
0

>  <SCORE.INTRA.DIHEDRAL>
0

>  <SCORE.INTRA.DIHEDRAL.0>
0

>  <SCORE.INTRA.POLAR>
0

>  <SCORE.INTRA.POLAR.0>
0

>  <SCORE.INTRA.REPUL>
0

>  <SCORE.INTRA.REPUL.0>
0

>  <SCORE.INTRA.SOLV>
0

>  <SCORE.INTRA.SOLV.lig_0>
-16.9472

>  <SCORE.INTRA.VDW>
0

>  <SCORE.INTRA.VDW.0>
0

>  <SCORE.INTRA.norm>
0

>  <SCORE.RESTR>
0

>  <SCORE.RESTR.CAVITY>
0

>  <SCORE.RESTR.norm>
0

>  <SCORE.SYSTEM>
0

>  <SCORE.SYSTEM.CONST>
0

>  <SCORE.SYSTEM.DIHEDRAL>
0

>  <SCORE.SYSTEM.SOLV>
0

>  <SCORE.SYSTEM.norm>
0

>  <SCORE.heavy>
10

>  <SCORE.norm>
-2.53558

>  <RMSD>
0.850

$$$$
1y26_lig
 OpenBabel02141814133D
libRbt.so/2013.1/901 2013/11/27
 10 11  0  0  0  0  0  0  0  0999 V2000
   19.7540  -17.8780    2.1059 N   0  0  0  0  0  0  0  0  0  0  0  0
   18.4968  -18.3280    2.1163 C   0  0  0  0  0  0  0  0  0  0  0  0
   17.7833  -18.7637    3.1526 N   0  0  0  0  0  0  0  0  0  0  0  0
   18.4969  -18.6795    4.2980 C   0  0  0  0  0  0  0  0  0  0  0  0
   19.7932  -18.2257    4.4399 C   0  0  0  0  0  0  0  0  0  0  0  0
   20.4352  -17.8127    3.2687 C   0  0  0  0  0  0  0  0  0  0  0  0
   21.6839  -17.3750    3.2842 N   0  0  0  0  0  0  0  0  0  0  0  0
   20.2269  -18.2807    5.7441 N   0  0  0  0  0  0  0  0  0  0  0  0
   19.1682  -18.7412    6.3849 C   0  0  0  0  0  0  0  0  0  0  0  0
   18.0951  -19.0132    5.5640 N   0  0  0  0  0  0  0  0  0  0  0  0
  1  2  2  0  0  0  0
  2  3  1  0  0  0  0
  3  4  2  0  0  0  0
  5  4  1  0  0  0  0
  5  6  2  0  0  0  0
  6  1  1  0  0  0  0
  6  7  1  0  0  0  0
  8  5  1  0  0  0  0
  9  8  1  0  0  0  0
 10  4  1  0  0  0  0
 10  9  2  0  0  0  0
M  END
>  <CHROM.1>
19.39351111,-18.30959321,4.03416922,1.26001198,-0.34177243,-1.41775871

>  <Name>
1y26_lig

>  <RI>
224

>  <Rbt.Current_Directory>
/home/afrankz/demos/rdock_decoys_rna/rnas/1y26

>  <Rbt.Executable>
rbdock ($Id: //depot/dev/client3/rdock/2013.1/src/exe/rbdock.cxx#4 $)

>  <Rbt.Library>
libRbt.so (2013.1, Build901 2013/11/27)

>  <Rbt.Parameter_File>
/export/apps/rDock/src/rDock_2013.1_src/data/scripts/dock_solv.prm

>  <Rbt.Receptor>
prm/pocket_docking_7.prm

>  <SCORE>
-25.426

>  <SCORE.INTER>
-25.426

>  <SCORE.INTER.CONST>
1

>  <SCORE.INTER.POLAR>
-2.53777

>  <SCORE.INTER.ROT>
0

>  <SCORE.INTER.SOLV>
11.5371

>  <SCORE.INTER.VDW>
-15.9371

>  <SCORE.INTER.norm>
-2.5426

>  <SCORE.INTRA>
0

>  <SCORE.INTRA.DIHEDRAL>
0

>  <SCORE.INTRA.DIHEDRAL.0>
0

>  <SCORE.INTRA.POLAR>
0

>  <SCORE.INTRA.POLAR.0>
0

>  <SCORE.INTRA.REPUL>
0

>  <SCORE.INTRA.REPUL.0>
0

>  <SCORE.INTRA.SOLV>
0

>  <SCORE.INTRA.SOLV.lig_0>
-16.9472

>  <SCORE.INTRA.VDW>
0

>  <SCORE.INTRA.VDW.0>
0

>  <SCORE.INTRA.norm>
0

>  <SCORE.RESTR>
0

>  <SCORE.RESTR.CAVITY>
0

>  <SCORE.RESTR.norm>
0

>  <SCORE.SYSTEM>
0

>  <SCORE.SYSTEM.CONST>
0

>  <SCORE.SYSTEM.DIHEDRAL>
0

>  <SCORE.SYSTEM.SOLV>
0

>  <SCORE.SYSTEM.norm>
0

>  <SCORE.heavy>
10

>  <SCORE.norm>
-2.5426

>  <RMSD>
0.850

$$$$
1y26_lig
 OpenBabel02141814133D
libRbt.so/2013.1/901 2013/11/27
 10 11  0  0  0  0  0  0  0  0999 V2000
   19.7610  -17.8803    2.1027 N   0  0  0  0  0  0  0  0  0  0  0  0
   18.5035  -18.3295    2.1117 C   0  0  0  0  0  0  0  0  0  0  0  0
   17.7879  -18.7627    3.1476 N   0  0  0  0  0  0  0  0  0  0  0  0
   18.4994  -18.6765    4.2942 C   0  0  0  0  0  0  0  0  0  0  0  0
   19.7956  -18.2231    4.4374 C   0  0  0  0  0  0  0  0  0  0  0  0
   20.4401  -17.8128    3.2666 C   0  0  0  0  0  0  0  0  0  0  0  0
   21.6890  -17.3758    3.2835 N   0  0  0  0  0  0  0  0  0  0  0  0
   20.2270  -18.2755    5.7426 N   0  0  0  0  0  0  0  0  0  0  0  0
   19.1668  -18.7341    6.3824 C   0  0  0  0  0  0  0  0  0  0  0  0
   18.0951  -19.0073    5.5601 N   0  0  0  0  0  0  0  0  0  0  0  0
  1  2  2  0  0  0  0
  2  3  1  0  0  0  0
  3  4  2  0  0  0  0
  5  4  1  0  0  0  0
  5  6  2  0  0  0  0
  6  1  1  0  0  0  0
  6  7  1  0  0  0  0
  8  5  1  0  0  0  0
  9  8  1  0  0  0  0
 10  4  1  0  0  0  0
 10  9  2  0  0  0  0
M  END
>  <CHROM.1>
19.39668704,-18.30757948,4.03118535,1.25799495,-0.34153779,-1.42054872

>  <Name>
1y26_lig

>  <RI>
224

>  <Rbt.Current_Directory>
/home/afrankz/demos/rdock_decoys_rna/rnas/1y26

>  <Rbt.Executable>
rbdock ($Id: //depot/dev/client3/rdock/2013.1/src/exe/rbdock.cxx#4 $)

>  <Rbt.Library>
libRbt.so (2013.1, Build901 2013/11/27)

>  <Rbt.Parameter_File>
/export/apps/rDock/src/rDock_2013.1_src/data/scripts/dock_solv.prm

>  <Rbt.Receptor>
prm/pocket_docking_7.prm

>  <SCORE>
-25.4232

>  <SCORE.INTER>
-25.4232

>  <SCORE.INTER.CONST>
1

>  <SCORE.INTER.POLAR>
-2.54138

>  <SCORE.INTER.ROT>
0

>  <SCORE.INTER.SOLV>
11.5351

>  <SCORE.INTER.VDW>
-15.9226

>  <SCORE.INTER.norm>
-2.54232

>  <SCORE.INTRA>
0

>  <SCORE.INTRA.DIHEDRAL>
0

>  <SCORE.INTRA.DIHEDRAL.0>
0

>  <SCORE.INTRA.POLAR>
0

>  <SCORE.INTRA.POLAR.0>
0

>  <SCORE.INTRA.REPUL>
0

>  <SCORE.INTRA.REPUL.0>
0

>  <SCORE.INTRA.SOLV>
0

>  <SCORE.INTRA.SOLV.lig_0>
-16.9472

>  <SCORE.INTRA.VDW>
0

>  <SCORE.INTRA.VDW.0>
0

>  <SCORE.INTRA.norm>
0

>  <SCORE.RESTR>
0

>  <SCORE.RESTR.CAVITY>
0

>  <SCORE.RESTR.norm>
0

>  <SCORE.SYSTEM>
0

>  <SCORE.SYSTEM.CONST>
0

>  <SCORE.SYSTEM.DIHEDRAL>
0

>  <SCORE.SYSTEM.SOLV>
0

>  <SCORE.SYSTEM.norm>
0

>  <SCORE.heavy>
10

>  <SCORE.norm>
-2.54232

>  <RMSD>
0.851

$$$$
1y26_lig
 OpenBabel02141814133D
libRbt.so/2013.1/901 2013/11/27
 10 11  0  0  0  0  0  0  0  0999 V2000
   19.7572  -17.8862    2.1055 N   0  0  0  0  0  0  0  0  0  0  0  0
   18.5003  -18.3371    2.1150 C   0  0  0  0  0  0  0  0  0  0  0  0
   17.7859  -18.7719    3.1512 N   0  0  0  0  0  0  0  0  0  0  0  0
   18.4981  -18.6854    4.2973 C   0  0  0  0  0  0  0  0  0  0  0  0
   19.7938  -18.2303    4.4400 C   0  0  0  0  0  0  0  0  0  0  0  0
   20.4369  -17.8185    3.2689 C   0  0  0  0  0  0  0  0  0  0  0  0
   21.6852  -17.3798    3.2853 N   0  0  0  0  0  0  0  0  0  0  0  0
   20.2261  -18.2829    5.7449 N   0  0  0  0  0  0  0  0  0  0  0  0
   19.1670  -18.7433    6.3850 C   0  0  0  0  0  0  0  0  0  0  0  0
   18.0950  -19.0175    5.5633 N   0  0  0  0  0  0  0  0  0  0  0  0
  1  2  2  0  0  0  0
  2  3  1  0  0  0  0
  3  4  2  0  0  0  0
  5  4  1  0  0  0  0
  5  6  2  0  0  0  0
  6  1  1  0  0  0  0
  6  7  1  0  0  0  0
  8  5  1  0  0  0  0
  9  8  1  0  0  0  0
 10  4  1  0  0  0  0
 10  9  2  0  0  0  0
M  END
>  <CHROM.1>
19.39471166,-18.31513111,4.03394499,1.25890393,-0.34277141,-1.41964878

>  <Name>
1y26_lig

>  <RI>
0

>  <Rbt.Current_Directory>
/home/afrankz/demos/rdock_decoys_rna/rnas/1y26

>  <Rbt.Executable>
rbdock ($Id: //depot/dev/client3/rdock/2013.1/src/exe/rbdock.cxx#4 $)

>  <Rbt.Library>
libRbt.so (2013.1, Build901 2013/11/27)

>  <Rbt.Parameter_File>
/export/apps/rDock/src/rDock_2013.1_src/data/scripts/dock_solv.prm

>  <Rbt.Receptor>
prm/blind_docking_40.prm

>  <SCORE>
-25.4242

>  <SCORE.INTER>
-25.4242

>  <SCORE.INTER.CONST>
1

>  <SCORE.INTER.POLAR>
-2.53736

>  <SCORE.INTER.ROT>
0

>  <SCORE.INTER.SOLV>
11.539

>  <SCORE.INTER.VDW>
-15.9379

>  <SCORE.INTER.norm>
-2.54242

>  <SCORE.INTRA>
0

>  <SCORE.INTRA.DIHEDRAL>
0

>  <SCORE.INTRA.DIHEDRAL.0>
0

>  <SCORE.INTRA.POLAR>
0

>  <SCORE.INTRA.POLAR.0>
0

>  <SCORE.INTRA.REPUL>
0

>  <SCORE.INTRA.REPUL.0>
0

>  <SCORE.INTRA.SOLV>
0

>  <SCORE.INTRA.SOLV.lig_0>
-16.9472

>  <SCORE.INTRA.VDW>
0

>  <SCORE.INTRA.VDW.0>
0

>  <SCORE.INTRA.norm>
0

>  <SCORE.RESTR>
0

>  <SCORE.RESTR.CAVITY>
0

>  <SCORE.RESTR.norm>
0

>  <SCORE.SYSTEM>
0

>  <SCORE.SYSTEM.CONST>
0

>  <SCORE.SYSTEM.DIHEDRAL>
0

>  <SCORE.SYSTEM.SOLV>
0

>  <SCORE.SYSTEM.norm>
0

>  <SCORE.heavy>
10

>  <SCORE.norm>
-2.54242

>  <RMSD>
0.852

$$$$
1y26_lig
 OpenBabel02141814133D
libRbt.so/2013.1/901 2013/11/27
 10 11  0  0  0  0  0  0  0  0999 V2000
   19.7229  -17.8755    2.1250 N   0  0  0  0  0  0  0  0  0  0  0  0
   18.4646  -18.3223    2.1394 C   0  0  0  0  0  0  0  0  0  0  0  0
   17.7571  -18.7667    3.1761 N   0  0  0  0  0  0  0  0  0  0  0  0
   18.4787  -18.6959    4.3174 C   0  0  0  0  0  0  0  0  0  0  0  0
   19.7771  -18.2469    4.4549 C   0  0  0  0  0  0  0  0  0  0  0  0
   20.4122  -17.8237    3.2836 C   0  0  0  0  0  0  0  0  0  0  0  0
   21.6622  -17.3894    3.2950 N   0  0  0  0  0  0  0  0  0  0  0  0
   20.2196  -18.3162    5.7556 N   0  0  0  0  0  0  0  0  0  0  0  0
   19.1641  -18.7805    6.3989 C   0  0  0  0  0  0  0  0  0  0  0  0
   18.0847  -19.0414    5.5826 N   0  0  0  0  0  0  0  0  0  0  0  0
  1  2  2  0  0  0  0
  2  3  1  0  0  0  0
  3  4  2  0  0  0  0
  5  4  1  0  0  0  0
  5  6  2  0  0  0  0
  6  1  1  0  0  0  0
  6  7  1  0  0  0  0
  8  5  1  0  0  0  0
  9  8  1  0  0  0  0
 10  4  1  0  0  0  0
 10  9  2  0  0  0  0
M  END
>  <CHROM.1>
19.37447791,-18.32564927,4.05116795,1.26675828,-0.33812550,-1.40537509

>  <Name>
1y26_lig

>  <RI>
0

>  <Rbt.Current_Directory>
/home/afrankz/demos/rdock_decoys_rna/rnas/1y26

>  <Rbt.Executable>
rbdock ($Id: //depot/dev/client3/rdock/2013.1/src/exe/rbdock.cxx#4 $)

>  <Rbt.Library>
libRbt.so (2013.1, Build901 2013/11/27)

>  <Rbt.Parameter_File>
/export/apps/rDock/src/rDock_2013.1_src/data/scripts/dock_solv.prm

>  <Rbt.Receptor>
prm/blind_docking_60.prm

>  <SCORE>
-25.3187

>  <SCORE.INTER>
-25.3187

>  <SCORE.INTER.CONST>
1

>  <SCORE.INTER.POLAR>
-2.50448

>  <SCORE.INTER.ROT>
0

>  <SCORE.INTER.SOLV>
11.5367

>  <SCORE.INTER.VDW>
-15.9764

>  <SCORE.INTER.norm>
-2.53187

>  <SCORE.INTRA>
0

>  <SCORE.INTRA.DIHEDRAL>
0

>  <SCORE.INTRA.DIHEDRAL.0>
0

>  <SCORE.INTRA.POLAR>
0

>  <SCORE.INTRA.POLAR.0>
0

>  <SCORE.INTRA.REPUL>
0

>  <SCORE.INTRA.REPUL.0>
0

>  <SCORE.INTRA.SOLV>
0

>  <SCORE.INTRA.SOLV.lig_0>
-16.9472

>  <SCORE.INTRA.VDW>
0

>  <SCORE.INTRA.VDW.0>
0

>  <SCORE.INTRA.norm>
0

>  <SCORE.RESTR>
0

>  <SCORE.RESTR.CAVITY>
0

>  <SCORE.RESTR.norm>
0

>  <SCORE.SYSTEM>
0

>  <SCORE.SYSTEM.CONST>
0

>  <SCORE.SYSTEM.DIHEDRAL>
0

>  <SCORE.SYSTEM.SOLV>
0

>  <SCORE.SYSTEM.norm>
0

>  <SCORE.heavy>
10

>  <SCORE.norm>
-2.53187

>  <RMSD>
0.852

$$$$
1y26_lig
 OpenBabel02141814133D
libRbt.so/2013.1/901 2013/11/27
 10 11  0  0  0  0  0  0  0  0999 V2000
   19.7570  -17.8820    2.1072 N   0  0  0  0  0  0  0  0  0  0  0  0
   18.4995  -18.3311    2.1167 C   0  0  0  0  0  0  0  0  0  0  0  0
   17.7850  -18.7663    3.1526 N   0  0  0  0  0  0  0  0  0  0  0  0
   18.4979  -18.6825    4.2985 C   0  0  0  0  0  0  0  0  0  0  0  0
   19.7943  -18.2296    4.4412 C   0  0  0  0  0  0  0  0  0  0  0  0
   20.4375  -17.8170    3.2704 C   0  0  0  0  0  0  0  0  0  0  0  0
   21.6865  -17.3802    3.2868 N   0  0  0  0  0  0  0  0  0  0  0  0
   20.2272  -18.2848    5.7458 N   0  0  0  0  0  0  0  0  0  0  0  0
   19.1677  -18.7446    6.3858 C   0  0  0  0  0  0  0  0  0  0  0  0
   18.0949  -19.0160    5.5641 N   0  0  0  0  0  0  0  0  0  0  0  0
  1  2  2  0  0  0  0
  2  3  1  0  0  0  0
  3  4  2  0  0  0  0
  5  4  1  0  0  0  0
  5  6  2  0  0  0  0
  6  1  1  0  0  0  0
  6  7  1  0  0  0  0
  8  5  1  0  0  0  0
  9  8  1  0  0  0  0
 10  4  1  0  0  0  0
 10  9  2  0  0  0  0
M  END
>  <CHROM.1>
19.39490543,-18.31324717,4.03523339,1.25918589,-0.34122133,-1.41806031

>  <Name>
1y26_lig

>  <RI>
0

>  <Rbt.Current_Directory>
/home/afrankz/demos/rdock_decoys_rna/rnas/1y26

>  <Rbt.Executable>
rbdock ($Id: //depot/dev/client3/rdock/2013.1/src/exe/rbdock.cxx#4 $)

>  <Rbt.Library>
libRbt.so (2013.1, Build901 2013/11/27)

>  <Rbt.Parameter_File>
/export/apps/rDock/src/rDock_2013.1_src/data/scripts/dock_solv.prm

>  <Rbt.Receptor>
prm/pocket_docking_5.prm

>  <SCORE>
-25.424

>  <SCORE.INTER>
-25.424

>  <SCORE.INTER.CONST>
1

>  <SCORE.INTER.POLAR>
-2.53542

>  <SCORE.INTER.ROT>
0

>  <SCORE.INTER.SOLV>
11.5359

>  <SCORE.INTER.VDW>
-15.9433

>  <SCORE.INTER.norm>
-2.5424

>  <SCORE.INTRA>
0

>  <SCORE.INTRA.DIHEDRAL>
0

>  <SCORE.INTRA.DIHEDRAL.0>
0

>  <SCORE.INTRA.POLAR>
0

>  <SCORE.INTRA.POLAR.0>
0

>  <SCORE.INTRA.REPUL>
0

>  <SCORE.INTRA.REPUL.0>
0

>  <SCORE.INTRA.SOLV>
0

>  <SCORE.INTRA.SOLV.lig_0>
-16.9472

>  <SCORE.INTRA.VDW>
0

>  <SCORE.INTRA.VDW.0>
0

>  <SCORE.INTRA.norm>
0

>  <SCORE.RESTR>
0

>  <SCORE.RESTR.CAVITY>
0

>  <SCORE.RESTR.norm>
0

>  <SCORE.SYSTEM>
0

>  <SCORE.SYSTEM.CONST>
0

>  <SCORE.SYSTEM.DIHEDRAL>
0

>  <SCORE.SYSTEM.SOLV>
0

>  <SCORE.SYSTEM.norm>
0

>  <SCORE.heavy>
10

>  <SCORE.norm>
-2.5424

>  <RMSD>
0.852

$$$$
1y26_lig
 OpenBabel02141814133D
libRbt.so/2013.1/901 2013/11/27
 10 11  0  0  0  0  0  0  0  0999 V2000
   19.7579  -17.8879    2.1050 N   0  0  0  0  0  0  0  0  0  0  0  0
   18.5010  -18.3385    2.1150 C   0  0  0  0  0  0  0  0  0  0  0  0
   17.7865  -18.7723    3.1515 N   0  0  0  0  0  0  0  0  0  0  0  0
   18.4988  -18.6852    4.2975 C   0  0  0  0  0  0  0  0  0  0  0  0
   19.7947  -18.2304    4.4398 C   0  0  0  0  0  0  0  0  0  0  0  0
   20.4378  -17.8196    3.2684 C   0  0  0  0  0  0  0  0  0  0  0  0
   21.6862  -17.3812    3.2843 N   0  0  0  0  0  0  0  0  0  0  0  0
   20.2270  -18.2821    5.7447 N   0  0  0  0  0  0  0  0  0  0  0  0
   19.1678  -18.7418    6.3852 C   0  0  0  0  0  0  0  0  0  0  0  0
   18.0957  -19.0163    5.5637 N   0  0  0  0  0  0  0  0  0  0  0  0
  1  2  2  0  0  0  0
  2  3  1  0  0  0  0
  3  4  2  0  0  0  0
  5  4  1  0  0  0  0
  5  6  2  0  0  0  0
  6  1  1  0  0  0  0
  6  7  1  0  0  0  0
  8  5  1  0  0  0  0
  9  8  1  0  0  0  0
 10  4  1  0  0  0  0
 10  9  2  0  0  0  0
M  END
>  <CHROM.1>
19.39550251,-18.31534778,4.03382913,1.25893093,-0.34248943,-1.42035666

>  <Name>
1y26_lig

>  <RI>
224

>  <Rbt.Current_Directory>
/home/afrankz/demos/rdock_decoys_rna/rnas/1y26

>  <Rbt.Executable>
rbdock ($Id: //depot/dev/client3/rdock/2013.1/src/exe/rbdock.cxx#4 $)

>  <Rbt.Library>
libRbt.so (2013.1, Build901 2013/11/27)

>  <Rbt.Parameter_File>
/export/apps/rDock/src/rDock_2013.1_src/data/scripts/dock_solv.prm

>  <Rbt.Receptor>
prm/pocket_docking_7.prm

>  <SCORE>
-25.4265

>  <SCORE.INTER>
-25.4265

>  <SCORE.INTER.CONST>
1

>  <SCORE.INTER.POLAR>
-2.53987

>  <SCORE.INTER.ROT>
0

>  <SCORE.INTER.SOLV>
11.5396

>  <SCORE.INTER.VDW>
-15.9313

>  <SCORE.INTER.norm>
-2.54265

>  <SCORE.INTRA>
0

>  <SCORE.INTRA.DIHEDRAL>
0

>  <SCORE.INTRA.DIHEDRAL.0>
0

>  <SCORE.INTRA.POLAR>
0

>  <SCORE.INTRA.POLAR.0>
0

>  <SCORE.INTRA.REPUL>
0

>  <SCORE.INTRA.REPUL.0>
0

>  <SCORE.INTRA.SOLV>
0

>  <SCORE.INTRA.SOLV.lig_0>
-16.9472

>  <SCORE.INTRA.VDW>
0

>  <SCORE.INTRA.VDW.0>
0

>  <SCORE.INTRA.norm>
0

>  <SCORE.RESTR>
0

>  <SCORE.RESTR.CAVITY>
0

>  <SCORE.RESTR.norm>
0

>  <SCORE.SYSTEM>
0

>  <SCORE.SYSTEM.CONST>
0

>  <SCORE.SYSTEM.DIHEDRAL>
0

>  <SCORE.SYSTEM.SOLV>
0

>  <SCORE.SYSTEM.norm>
0

>  <SCORE.heavy>
10

>  <SCORE.norm>
-2.54265

>  <RMSD>
0.853

$$$$
1y26_lig
 OpenBabel02141814133D
libRbt.so/2013.1/901 2013/11/27
 10 11  0  0  0  0  0  0  0  0999 V2000
   19.7715  -17.8918    2.0967 N   0  0  0  0  0  0  0  0  0  0  0  0
   18.5150  -18.3437    2.1038 C   0  0  0  0  0  0  0  0  0  0  0  0
   17.7971  -18.7737    3.1395 N   0  0  0  0  0  0  0  0  0  0  0  0
   18.5049  -18.6808    4.2878 C   0  0  0  0  0  0  0  0  0  0  0  0
   19.7997  -18.2241    4.4330 C   0  0  0  0  0  0  0  0  0  0  0  0
   20.4468  -17.8177    3.2623 C   0  0  0  0  0  0  0  0  0  0  0  0
   21.6948  -17.3779    3.2811 N   0  0  0  0  0  0  0  0  0  0  0  0
   20.2271  -18.2697    5.7398 N   0  0  0  0  0  0  0  0  0  0  0  0
   19.1660  -18.7277    6.3783 C   0  0  0  0  0  0  0  0  0  0  0  0
   18.0973  -19.0068    5.5539 N   0  0  0  0  0  0  0  0  0  0  0  0
  1  2  2  0  0  0  0
  2  3  1  0  0  0  0
  3  4  2  0  0  0  0
  5  4  1  0  0  0  0
  5  6  2  0  0  0  0
  6  1  1  0  0  0  0
  6  7  1  0  0  0  0
  8  5  1  0  0  0  0
  9  8  1  0  0  0  0
 10  4  1  0  0  0  0
 10  9  2  0  0  0  0
M  END
>  <CHROM.1>
19.40216053,-18.31123899,4.02593379,1.25509394,-0.34408835,-1.42601677

>  <Name>
1y26_lig

>  <RI>
0

>  <Rbt.Current_Directory>
/home/afrankz/demos/rdock_decoys_rna/rnas/1y26

>  <Rbt.Executable>
rbdock ($Id: //depot/dev/client3/rdock/2013.1/src/exe/rbdock.cxx#4 $)

>  <Rbt.Library>
libRbt.so (2013.1, Build901 2013/11/27)

>  <Rbt.Parameter_File>
/export/apps/rDock/src/rDock_2013.1_src/data/scripts/dock_solv.prm

>  <Rbt.Receptor>
prm/pocket_docking_8.prm

>  <SCORE>
-25.4162

>  <SCORE.INTER>
-25.4162

>  <SCORE.INTER.CONST>
1

>  <SCORE.INTER.POLAR>
-2.54781

>  <SCORE.INTER.ROT>
0

>  <SCORE.INTER.SOLV>
11.5398

>  <SCORE.INTER.VDW>
-15.898

>  <SCORE.INTER.norm>
-2.54162

>  <SCORE.INTRA>
0

>  <SCORE.INTRA.DIHEDRAL>
0

>  <SCORE.INTRA.DIHEDRAL.0>
0

>  <SCORE.INTRA.POLAR>
0

>  <SCORE.INTRA.POLAR.0>
0

>  <SCORE.INTRA.REPUL>
0

>  <SCORE.INTRA.REPUL.0>
0

>  <SCORE.INTRA.SOLV>
0

>  <SCORE.INTRA.SOLV.lig_0>
-16.9472

>  <SCORE.INTRA.VDW>
0

>  <SCORE.INTRA.VDW.0>
0

>  <SCORE.INTRA.norm>
0

>  <SCORE.RESTR>
0

>  <SCORE.RESTR.CAVITY>
0

>  <SCORE.RESTR.norm>
0

>  <SCORE.SYSTEM>
0

>  <SCORE.SYSTEM.CONST>
0

>  <SCORE.SYSTEM.DIHEDRAL>
0

>  <SCORE.SYSTEM.SOLV>
0

>  <SCORE.SYSTEM.norm>
0

>  <SCORE.heavy>
10

>  <SCORE.norm>
-2.54162

>  <RMSD>
0.853

$$$$
1y26_lig
 OpenBabel02141814133D
libRbt.so/2013.1/901 2013/11/27
 10 11  0  0  0  0  0  0  0  0999 V2000
   19.7554  -17.8780    2.0951 N   0  0  0  0  0  0  0  0  0  0  0  0
   18.4940  -18.3160    2.1032 C   0  0  0  0  0  0  0  0  0  0  0  0
   17.7731  -18.7406    3.1390 N   0  0  0  0  0  0  0  0  0  0  0  0
   18.4837  -18.6583    4.2863 C   0  0  0  0  0  0  0  0  0  0  0  0
   19.7837  -18.2162    4.4305 C   0  0  0  0  0  0  0  0  0  0  0  0
   20.4334  -17.8141    3.2597 C   0  0  0  0  0  0  0  0  0  0  0  0
   21.6862  -17.3882    3.2775 N   0  0  0  0  0  0  0  0  0  0  0  0
   20.2127  -18.2697    5.7365 N   0  0  0  0  0  0  0  0  0  0  0  0
   19.1476  -18.7175    6.3756 C   0  0  0  0  0  0  0  0  0  0  0  0
   18.0746  -18.9829    5.5523 N   0  0  0  0  0  0  0  0  0  0  0  0
  1  2  2  0  0  0  0
  2  3  1  0  0  0  0
  3  4  2  0  0  0  0
  5  4  1  0  0  0  0
  5  6  2  0  0  0  0
  6  1  1  0  0  0  0
  6  7  1  0  0  0  0
  8  5  1  0  0  0  0
  9  8  1  0  0  0  0
 10  4  1  0  0  0  0
 10  9  2  0  0  0  0
M  END
>  <CHROM.1>
19.38459240,-18.29797394,4.02388788,1.25509709,-0.33293348,-1.42358691

>  <Name>
1y26_lig

>  <RI>
224

>  <Rbt.Current_Directory>
/home/afrankz/demos/rdock_decoys_rna/rnas/1y26

>  <Rbt.Executable>
rbdock ($Id: //depot/dev/client3/rdock/2013.1/src/exe/rbdock.cxx#4 $)

>  <Rbt.Library>
libRbt.so (2013.1, Build901 2013/11/27)

>  <Rbt.Parameter_File>
/export/apps/rDock/src/rDock_2013.1_src/data/scripts/dock_solv.prm

>  <Rbt.Receptor>
prm/pocket_docking_6.prm

>  <SCORE>
-25.3768

>  <SCORE.INTER>
-25.3768

>  <SCORE.INTER.CONST>
1

>  <SCORE.INTER.POLAR>
-2.55034

>  <SCORE.INTER.ROT>
0

>  <SCORE.INTER.SOLV>
11.5304

>  <SCORE.INTER.VDW>
-15.8602

>  <SCORE.INTER.norm>
-2.53768

>  <SCORE.INTRA>
0

>  <SCORE.INTRA.DIHEDRAL>
0

>  <SCORE.INTRA.DIHEDRAL.0>
0

>  <SCORE.INTRA.POLAR>
0

>  <SCORE.INTRA.POLAR.0>
0

>  <SCORE.INTRA.REPUL>
0

>  <SCORE.INTRA.REPUL.0>
0

>  <SCORE.INTRA.SOLV>
0

>  <SCORE.INTRA.SOLV.lig_0>
-16.9472

>  <SCORE.INTRA.VDW>
0

>  <SCORE.INTRA.VDW.0>
0

>  <SCORE.INTRA.norm>
0

>  <SCORE.RESTR>
0

>  <SCORE.RESTR.CAVITY>
0

>  <SCORE.RESTR.norm>
0

>  <SCORE.SYSTEM>
0

>  <SCORE.SYSTEM.CONST>
0

>  <SCORE.SYSTEM.DIHEDRAL>
0

>  <SCORE.SYSTEM.SOLV>
0

>  <SCORE.SYSTEM.norm>
0

>  <SCORE.heavy>
10

>  <SCORE.norm>
-2.53768

>  <RMSD>
0.856

$$$$
1y26_lig
 OpenBabel02141814133D
libRbt.so/2013.1/901 2013/11/27
 10 11  0  0  0  0  0  0  0  0999 V2000
   19.7540  -17.8688    2.1013 N   0  0  0  0  0  0  0  0  0  0  0  0
   18.4929  -18.3077    2.1122 C   0  0  0  0  0  0  0  0  0  0  0  0
   17.7786  -18.7447    3.1475 N   0  0  0  0  0  0  0  0  0  0  0  0
   18.4964  -18.6752    4.2913 C   0  0  0  0  0  0  0  0  0  0  0  0
   19.7970  -18.2340    4.4325 C   0  0  0  0  0  0  0  0  0  0  0  0
   20.4392  -17.8180    3.2624 C   0  0  0  0  0  0  0  0  0  0  0  0
   21.6917  -17.3915    3.2773 N   0  0  0  0  0  0  0  0  0  0  0  0
   20.2341  -18.3023    5.7350 N   0  0  0  0  0  0  0  0  0  0  0  0
   19.1733  -18.7582    6.3755 C   0  0  0  0  0  0  0  0  0  0  0  0
   18.0954  -19.0147    5.5559 N   0  0  0  0  0  0  0  0  0  0  0  0
  1  2  2  0  0  0  0
  2  3  1  0  0  0  0
  3  4  2  0  0  0  0
  5  4  1  0  0  0  0
  5  6  2  0  0  0  0
  6  1  1  0  0  0  0
  6  7  1  0  0  0  0
  8  5  1  0  0  0  0
  9  8  1  0  0  0  0
 10  4  1  0  0  0  0
 10  9  2  0  0  0  0
M  END
>  <CHROM.1>
19.39540741,-18.31133623,4.02738418,1.26171267,-0.33258594,-1.40987494

>  <Name>
1y26_lig

>  <RI>
224

>  <Rbt.Current_Directory>
/home/afrankz/demos/rdock_decoys_rna/rnas/1y26

>  <Rbt.Executable>
rbdock ($Id: //depot/dev/client3/rdock/2013.1/src/exe/rbdock.cxx#4 $)

>  <Rbt.Library>
libRbt.so (2013.1, Build901 2013/11/27)

>  <Rbt.Parameter_File>
/export/apps/rDock/src/rDock_2013.1_src/data/scripts/dock_solv.prm

>  <Rbt.Receptor>
prm/pocket_docking_7.prm

>  <SCORE>
-25.3937

>  <SCORE.INTER>
-25.3937

>  <SCORE.INTER.CONST>
1

>  <SCORE.INTER.POLAR>
-2.55556

>  <SCORE.INTER.ROT>
0

>  <SCORE.INTER.SOLV>
11.5442

>  <SCORE.INTER.VDW>
-15.8587

>  <SCORE.INTER.norm>
-2.53937

>  <SCORE.INTRA>
0

>  <SCORE.INTRA.DIHEDRAL>
0

>  <SCORE.INTRA.DIHEDRAL.0>
0

>  <SCORE.INTRA.POLAR>
0

>  <SCORE.INTRA.POLAR.0>
0

>  <SCORE.INTRA.REPUL>
0

>  <SCORE.INTRA.REPUL.0>
0

>  <SCORE.INTRA.SOLV>
0

>  <SCORE.INTRA.SOLV.lig_0>
-16.9472

>  <SCORE.INTRA.VDW>
0

>  <SCORE.INTRA.VDW.0>
0

>  <SCORE.INTRA.norm>
0

>  <SCORE.RESTR>
0

>  <SCORE.RESTR.CAVITY>
0

>  <SCORE.RESTR.norm>
0

>  <SCORE.SYSTEM>
0

>  <SCORE.SYSTEM.CONST>
0

>  <SCORE.SYSTEM.DIHEDRAL>
0

>  <SCORE.SYSTEM.SOLV>
0

>  <SCORE.SYSTEM.norm>
0

>  <SCORE.heavy>
10

>  <SCORE.norm>
-2.53937

>  <RMSD>
0.856

$$$$
1y26_lig
 OpenBabel02141814133D
libRbt.so/2013.1/901 2013/11/27
 10 11  0  0  0  0  0  0  0  0999 V2000
   19.7218  -17.8732    2.1424 N   0  0  0  0  0  0  0  0  0  0  0  0
   18.4590  -18.3059    2.1780 C   0  0  0  0  0  0  0  0  0  0  0  0
   17.7590  -18.7275    3.2293 N   0  0  0  0  0  0  0  0  0  0  0  0
   18.4947  -18.6481    4.3609 C   0  0  0  0  0  0  0  0  0  0  0  0
   19.7994  -18.2115    4.4768 C   0  0  0  0  0  0  0  0  0  0  0  0
   20.4252  -17.8122    3.2920 C   0  0  0  0  0  0  0  0  0  0  0  0
   21.6798  -17.3915    3.2825 N   0  0  0  0  0  0  0  0  0  0  0  0
   20.2565  -18.2667    5.7730 N   0  0  0  0  0  0  0  0  0  0  0  0
   19.2037  -18.7101    6.4353 C   0  0  0  0  0  0  0  0  0  0  0  0
   18.1119  -18.9710    5.6356 N   0  0  0  0  0  0  0  0  0  0  0  0
  1  2  2  0  0  0  0
  2  3  1  0  0  0  0
  3  4  2  0  0  0  0
  5  4  1  0  0  0  0
  5  6  2  0  0  0  0
  6  1  1  0  0  0  0
  6  7  1  0  0  0  0
  8  5  1  0  0  0  0
  9  8  1  0  0  0  0
 10  4  1  0  0  0  0
 10  9  2  0  0  0  0
M  END
>  <CHROM.1>
19.39121467,-18.29161870,4.07888829,1.27716529,-0.32552460,-1.41652835

>  <Name>
1y26_lig

>  <RI>
0

>  <Rbt.Current_Directory>
/home/afrankz/demos/rdock_decoys_rna/rnas/1y26

>  <Rbt.Executable>
rbdock ($Id: //depot/dev/client3/rdock/2013.1/src/exe/rbdock.cxx#4 $)

>  <Rbt.Library>
libRbt.so (2013.1, Build901 2013/11/27)

>  <Rbt.Parameter_File>
/export/apps/rDock/src/rDock_2013.1_src/data/scripts/dock_solv.prm

>  <Rbt.Receptor>
prm/pocket_docking_4.prm

>  <SCORE>
-25.3876

>  <SCORE.INTER>
-25.3876

>  <SCORE.INTER.CONST>
1

>  <SCORE.INTER.POLAR>
-2.53772

>  <SCORE.INTER.ROT>
0

>  <SCORE.INTER.SOLV>
11.5188

>  <SCORE.INTER.VDW>
-15.9056

>  <SCORE.INTER.norm>
-2.53876

>  <SCORE.INTRA>
0

>  <SCORE.INTRA.DIHEDRAL>
0

>  <SCORE.INTRA.DIHEDRAL.0>
0

>  <SCORE.INTRA.POLAR>
0

>  <SCORE.INTRA.POLAR.0>
0

>  <SCORE.INTRA.REPUL>
0

>  <SCORE.INTRA.REPUL.0>
0

>  <SCORE.INTRA.SOLV>
0

>  <SCORE.INTRA.SOLV.lig_0>
-16.9472

>  <SCORE.INTRA.VDW>
0

>  <SCORE.INTRA.VDW.0>
0

>  <SCORE.INTRA.norm>
0

>  <SCORE.RESTR>
0

>  <SCORE.RESTR.CAVITY>
0

>  <SCORE.RESTR.norm>
0

>  <SCORE.SYSTEM>
0

>  <SCORE.SYSTEM.CONST>
0

>  <SCORE.SYSTEM.DIHEDRAL>
0

>  <SCORE.SYSTEM.SOLV>
0

>  <SCORE.SYSTEM.norm>
0

>  <SCORE.heavy>
10

>  <SCORE.norm>
-2.53876

>  <RMSD>
0.858

$$$$
1y26_lig
 OpenBabel02141814133D
libRbt.so/2013.1/901 2013/11/27
 10 11  0  0  0  0  0  0  0  0999 V2000
   19.7397  -17.8702    2.1081 N   0  0  0  0  0  0  0  0  0  0  0  0
   18.4777  -18.3064    2.1219 C   0  0  0  0  0  0  0  0  0  0  0  0
   17.7662  -18.7456    3.1581 N   0  0  0  0  0  0  0  0  0  0  0  0
   18.4880  -18.6817    4.2996 C   0  0  0  0  0  0  0  0  0  0  0  0
   19.7901  -18.2437    4.4379 C   0  0  0  0  0  0  0  0  0  0  0  0
   20.4290  -17.8249    3.2670 C   0  0  0  0  0  0  0  0  0  0  0  0
   21.6826  -17.4011    3.2791 N   0  0  0  0  0  0  0  0  0  0  0  0
   20.2316  -18.3176    5.7386 N   0  0  0  0  0  0  0  0  0  0  0  0
   19.1721  -18.7735    6.3812 C   0  0  0  0  0  0  0  0  0  0  0  0
   18.0907  -19.0248    5.5645 N   0  0  0  0  0  0  0  0  0  0  0  0
  1  2  2  0  0  0  0
  2  3  1  0  0  0  0
  3  4  2  0  0  0  0
  5  4  1  0  0  0  0
  5  6  2  0  0  0  0
  6  1  1  0  0  0  0
  6  7  1  0  0  0  0
  8  5  1  0  0  0  0
  9  8  1  0  0  0  0
 10  4  1  0  0  0  0
 10  9  2  0  0  0  0
M  END
>  <CHROM.1>
19.38690229,-18.31876196,4.03390913,1.26499162,-0.32992760,-1.40523946

>  <Name>
1y26_lig

>  <RI>
0

>  <Rbt.Current_Directory>
/home/afrankz/demos/rdock_decoys_rna/rnas/1y26

>  <Rbt.Executable>
rbdock ($Id: //depot/dev/client3/rdock/2013.1/src/exe/rbdock.cxx#4 $)

>  <Rbt.Library>
libRbt.so (2013.1, Build901 2013/11/27)

>  <Rbt.Parameter_File>
/export/apps/rDock/src/rDock_2013.1_src/data/scripts/dock_solv.prm

>  <Rbt.Receptor>
prm/blind_docking_100.prm

>  <SCORE>
-25.3311

>  <SCORE.INTER>
-25.3311

>  <SCORE.INTER.CONST>
1

>  <SCORE.INTER.POLAR>
-2.54562

>  <SCORE.INTER.ROT>
0

>  <SCORE.INTER.SOLV>
11.5459

>  <SCORE.INTER.VDW>
-15.8507

>  <SCORE.INTER.norm>
-2.53311

>  <SCORE.INTRA>
0

>  <SCORE.INTRA.DIHEDRAL>
0

>  <SCORE.INTRA.DIHEDRAL.0>
0

>  <SCORE.INTRA.POLAR>
0

>  <SCORE.INTRA.POLAR.0>
0

>  <SCORE.INTRA.REPUL>
0

>  <SCORE.INTRA.REPUL.0>
0

>  <SCORE.INTRA.SOLV>
0

>  <SCORE.INTRA.SOLV.lig_0>
-16.9472

>  <SCORE.INTRA.VDW>
0

>  <SCORE.INTRA.VDW.0>
0

>  <SCORE.INTRA.norm>
0

>  <SCORE.RESTR>
0

>  <SCORE.RESTR.CAVITY>
0

>  <SCORE.RESTR.norm>
0

>  <SCORE.SYSTEM>
0

>  <SCORE.SYSTEM.CONST>
0

>  <SCORE.SYSTEM.DIHEDRAL>
0

>  <SCORE.SYSTEM.SOLV>
0

>  <SCORE.SYSTEM.norm>
0

>  <SCORE.heavy>
10

>  <SCORE.norm>
-2.53311

>  <RMSD>
0.859

$$$$
1y26_lig
 OpenBabel02141814133D
libRbt.so/2013.1/901 2013/11/27
 10 11  0  0  0  0  0  0  0  0999 V2000
   19.7189  -17.8573    2.1248 N   0  0  0  0  0  0  0  0  0  0  0  0
   18.4556  -18.2893    2.1473 C   0  0  0  0  0  0  0  0  0  0  0  0
   17.7526  -18.7345    3.1869 N   0  0  0  0  0  0  0  0  0  0  0  0
   18.4858  -18.6824    4.3217 C   0  0  0  0  0  0  0  0  0  0  0  0
   19.7907  -18.2501    4.4508 C   0  0  0  0  0  0  0  0  0  0  0  0
   20.4197  -17.8240    3.2772 C   0  0  0  0  0  0  0  0  0  0  0  0
   21.6748  -17.4046    3.2804 N   0  0  0  0  0  0  0  0  0  0  0  0
   20.2447  -18.3362    5.7465 N   0  0  0  0  0  0  0  0  0  0  0  0
   19.1899  -18.7937    6.3957 C   0  0  0  0  0  0  0  0  0  0  0  0
   18.0997  -19.0345    5.5876 N   0  0  0  0  0  0  0  0  0  0  0  0
  1  2  2  0  0  0  0
  2  3  1  0  0  0  0
  3  4  2  0  0  0  0
  5  4  1  0  0  0  0
  5  6  2  0  0  0  0
  6  1  1  0  0  0  0
  6  7  1  0  0  0  0
  8  5  1  0  0  0  0
  9  8  1  0  0  0  0
 10  4  1  0  0  0  0
 10  9  2  0  0  0  0
M  END
>  <CHROM.1>
19.38336357,-18.32045036,4.05020490,1.27455058,-0.32480902,-1.39399321

>  <Name>
1y26_lig

>  <RI>
0

>  <Rbt.Current_Directory>
/home/afrankz/demos/rdock_decoys_rna/rnas/1y26

>  <Rbt.Executable>
rbdock ($Id: //depot/dev/client3/rdock/2013.1/src/exe/rbdock.cxx#4 $)

>  <Rbt.Library>
libRbt.so (2013.1, Build901 2013/11/27)

>  <Rbt.Parameter_File>
/export/apps/rDock/src/rDock_2013.1_src/data/scripts/dock_solv.prm

>  <Rbt.Receptor>
prm/blind_docking_60.prm

>  <SCORE>
-25.2797

>  <SCORE.INTER>
-25.2797

>  <SCORE.INTER.CONST>
1

>  <SCORE.INTER.POLAR>
-2.53714

>  <SCORE.INTER.ROT>
0

>  <SCORE.INTER.SOLV>
11.5482

>  <SCORE.INTER.VDW>
-15.8454

>  <SCORE.INTER.norm>
-2.52797

>  <SCORE.INTRA>
0

>  <SCORE.INTRA.DIHEDRAL>
0

>  <SCORE.INTRA.DIHEDRAL.0>
0

>  <SCORE.INTRA.POLAR>
0

>  <SCORE.INTRA.POLAR.0>
0

>  <SCORE.INTRA.REPUL>
0

>  <SCORE.INTRA.REPUL.0>
0

>  <SCORE.INTRA.SOLV>
0

>  <SCORE.INTRA.SOLV.lig_0>
-16.9472

>  <SCORE.INTRA.VDW>
0

>  <SCORE.INTRA.VDW.0>
0

>  <SCORE.INTRA.norm>
0

>  <SCORE.RESTR>
0

>  <SCORE.RESTR.CAVITY>
0

>  <SCORE.RESTR.norm>
0

>  <SCORE.SYSTEM>
0

>  <SCORE.SYSTEM.CONST>
0

>  <SCORE.SYSTEM.DIHEDRAL>
0

>  <SCORE.SYSTEM.SOLV>
0

>  <SCORE.SYSTEM.norm>
0

>  <SCORE.heavy>
10

>  <SCORE.norm>
-2.52797

>  <RMSD>
0.859

$$$$
1y26_lig
 OpenBabel02141814133D
libRbt.so/2013.1/901 2013/11/27
 10 11  0  0  0  0  0  0  0  0999 V2000
   19.7576  -17.8801    2.0988 N   0  0  0  0  0  0  0  0  0  0  0  0
   18.4976  -18.3221    2.1087 C   0  0  0  0  0  0  0  0  0  0  0  0
   17.7835  -18.7605    3.1435 N   0  0  0  0  0  0  0  0  0  0  0  0
   18.5000  -18.6887    4.2880 C   0  0  0  0  0  0  0  0  0  0  0  0
   19.7994  -18.2441    4.4302 C   0  0  0  0  0  0  0  0  0  0  0  0
   20.4416  -17.8271    3.2605 C   0  0  0  0  0  0  0  0  0  0  0  0
   21.6931  -17.3974    3.2764 N   0  0  0  0  0  0  0  0  0  0  0  0
   20.2355  -18.3108    5.7331 N   0  0  0  0  0  0  0  0  0  0  0  0
   19.1752  -18.7691    6.3729 C   0  0  0  0  0  0  0  0  0  0  0  0
   18.0987  -19.0286    5.5524 N   0  0  0  0  0  0  0  0  0  0  0  0
  1  2  2  0  0  0  0
  2  3  1  0  0  0  0
  3  4  2  0  0  0  0
  5  4  1  0  0  0  0
  5  6  2  0  0  0  0
  6  1  1  0  0  0  0
  6  7  1  0  0  0  0
  8  5  1  0  0  0  0
  9  8  1  0  0  0  0
 10  4  1  0  0  0  0
 10  9  2  0  0  0  0
M  END
>  <CHROM.1>
19.39838528,-18.32266973,4.02476695,1.26116499,-0.33518709,-1.41046578

>  <Name>
1y26_lig

>  <RI>
0

>  <Rbt.Current_Directory>
/home/afrankz/demos/rdock_decoys_rna/rnas/1y26

>  <Rbt.Executable>
rbdock ($Id: //depot/dev/client3/rdock/2013.1/src/exe/rbdock.cxx#4 $)

>  <Rbt.Library>
libRbt.so (2013.1, Build901 2013/11/27)

>  <Rbt.Parameter_File>
/export/apps/rDock/src/rDock_2013.1_src/data/scripts/dock_solv.prm

>  <Rbt.Receptor>
prm/blind_docking_60.prm

>  <SCORE>
-25.3976

>  <SCORE.INTER>
-25.3976

>  <SCORE.INTER.CONST>
1

>  <SCORE.INTER.POLAR>
-2.55833

>  <SCORE.INTER.ROT>
0

>  <SCORE.INTER.SOLV>
11.5535

>  <SCORE.INTER.VDW>
-15.8551

>  <SCORE.INTER.norm>
-2.53976

>  <SCORE.INTRA>
0

>  <SCORE.INTRA.DIHEDRAL>
0

>  <SCORE.INTRA.DIHEDRAL.0>
0

>  <SCORE.INTRA.POLAR>
0

>  <SCORE.INTRA.POLAR.0>
0

>  <SCORE.INTRA.REPUL>
0

>  <SCORE.INTRA.REPUL.0>
0

>  <SCORE.INTRA.SOLV>
0

>  <SCORE.INTRA.SOLV.lig_0>
-16.9472

>  <SCORE.INTRA.VDW>
0

>  <SCORE.INTRA.VDW.0>
0

>  <SCORE.INTRA.norm>
0

>  <SCORE.RESTR>
0

>  <SCORE.RESTR.CAVITY>
0

>  <SCORE.RESTR.norm>
0

>  <SCORE.SYSTEM>
0

>  <SCORE.SYSTEM.CONST>
0

>  <SCORE.SYSTEM.DIHEDRAL>
0

>  <SCORE.SYSTEM.SOLV>
0

>  <SCORE.SYSTEM.norm>
0

>  <SCORE.heavy>
10

>  <SCORE.norm>
-2.53976

>  <RMSD>
0.859

$$$$
1y26_lig
 OpenBabel02141814133D
libRbt.so/2013.1/901 2013/11/27
 10 11  0  0  0  0  0  0  0  0999 V2000
   19.7501  -17.8734    2.1013 N   0  0  0  0  0  0  0  0  0  0  0  0
   18.4890  -18.3120    2.1194 C   0  0  0  0  0  0  0  0  0  0  0  0
   17.7808  -18.7492    3.1588 N   0  0  0  0  0  0  0  0  0  0  0  0
   18.5052  -18.6802    4.2984 C   0  0  0  0  0  0  0  0  0  0  0  0
   19.8068  -18.2392    4.4321 C   0  0  0  0  0  0  0  0  0  0  0  0
   20.4421  -17.8230    3.2583 C   0  0  0  0  0  0  0  0  0  0  0  0
   21.6949  -17.3968    3.2660 N   0  0  0  0  0  0  0  0  0  0  0  0
   20.2516  -18.3080    5.7319 N   0  0  0  0  0  0  0  0  0  0  0  0
   19.1944  -18.7638    6.3786 C   0  0  0  0  0  0  0  0  0  0  0  0
   18.1116  -19.0199    5.5653 N   0  0  0  0  0  0  0  0  0  0  0  0
  1  2  2  0  0  0  0
  2  3  1  0  0  0  0
  3  4  2  0  0  0  0
  5  4  1  0  0  0  0
  5  6  2  0  0  0  0
  6  1  1  0  0  0  0
  6  7  1  0  0  0  0
  8  5  1  0  0  0  0
  9  8  1  0  0  0  0
 10  4  1  0  0  0  0
 10  9  2  0  0  0  0
M  END
>  <CHROM.1>
19.40279281,-18.31637467,4.02931698,1.26781332,-0.33144055,-1.40759909

>  <Name>
1y26_lig

>  <RI>
224

>  <Rbt.Current_Directory>
/home/afrankz/demos/rdock_decoys_rna/rnas/1y26

>  <Rbt.Executable>
rbdock ($Id: //depot/dev/client3/rdock/2013.1/src/exe/rbdock.cxx#4 $)

>  <Rbt.Library>
libRbt.so (2013.1, Build901 2013/11/27)

>  <Rbt.Parameter_File>
/export/apps/rDock/src/rDock_2013.1_src/data/scripts/dock_solv.prm

>  <Rbt.Receptor>
prm/pocket_docking_6.prm

>  <SCORE>
-25.3266

>  <SCORE.INTER>
-25.3266

>  <SCORE.INTER.CONST>
1

>  <SCORE.INTER.POLAR>
-2.57555

>  <SCORE.INTER.ROT>
0

>  <SCORE.INTER.SOLV>
11.5611

>  <SCORE.INTER.VDW>
-15.7529

>  <SCORE.INTER.norm>
-2.53266

>  <SCORE.INTRA>
0

>  <SCORE.INTRA.DIHEDRAL>
0

>  <SCORE.INTRA.DIHEDRAL.0>
0

>  <SCORE.INTRA.POLAR>
0

>  <SCORE.INTRA.POLAR.0>
0

>  <SCORE.INTRA.REPUL>
0

>  <SCORE.INTRA.REPUL.0>
0

>  <SCORE.INTRA.SOLV>
0

>  <SCORE.INTRA.SOLV.lig_0>
-16.9472

>  <SCORE.INTRA.VDW>
0

>  <SCORE.INTRA.VDW.0>
0

>  <SCORE.INTRA.norm>
0

>  <SCORE.RESTR>
0

>  <SCORE.RESTR.CAVITY>
0

>  <SCORE.RESTR.norm>
0

>  <SCORE.SYSTEM>
0

>  <SCORE.SYSTEM.CONST>
0

>  <SCORE.SYSTEM.DIHEDRAL>
0

>  <SCORE.SYSTEM.SOLV>
0

>  <SCORE.SYSTEM.norm>
0

>  <SCORE.heavy>
10

>  <SCORE.norm>
-2.53266

>  <RMSD>
0.859

$$$$
1y26_lig
 OpenBabel02141814133D
libRbt.so/2013.1/901 2013/11/27
 10 11  0  0  0  0  0  0  0  0999 V2000
   19.7677  -17.8950    2.0917 N   0  0  0  0  0  0  0  0  0  0  0  0
   18.5074  -18.3362    2.0994 C   0  0  0  0  0  0  0  0  0  0  0  0
   17.7850  -18.7566    3.1359 N   0  0  0  0  0  0  0  0  0  0  0  0
   18.4926  -18.6657    4.2845 C   0  0  0  0  0  0  0  0  0  0  0  0
   19.7912  -18.2194    4.4292 C   0  0  0  0  0  0  0  0  0  0  0  0
   20.4427  -17.8225    3.2577 C   0  0  0  0  0  0  0  0  0  0  0  0
   21.6943  -17.3932    3.2760 N   0  0  0  0  0  0  0  0  0  0  0  0
   20.2171  -18.2641    5.7365 N   0  0  0  0  0  0  0  0  0  0  0  0
   19.1516  -18.7110    6.3757 C   0  0  0  0  0  0  0  0  0  0  0  0
   18.0813  -18.9839    5.5514 N   0  0  0  0  0  0  0  0  0  0  0  0
  1  2  2  0  0  0  0
  2  3  1  0  0  0  0
  3  4  2  0  0  0  0
  5  4  1  0  0  0  0
  5  6  2  0  0  0  0
  6  1  1  0  0  0  0
  6  7  1  0  0  0  0
  8  5  1  0  0  0  0
  9  8  1  0  0  0  0
 10  4  1  0  0  0  0
 10  9  2  0  0  0  0
M  END
>  <CHROM.1>
19.39324501,-18.30461098,4.02209569,1.25294763,-0.33584108,-1.43015189

>  <Name>
1y26_lig

>  <RI>
0

>  <Rbt.Current_Directory>
/home/afrankz/demos/rdock_decoys_rna/rnas/1y26

>  <Rbt.Executable>
rbdock ($Id: //depot/dev/client3/rdock/2013.1/src/exe/rbdock.cxx#4 $)

>  <Rbt.Library>
libRbt.so (2013.1, Build901 2013/11/27)

>  <Rbt.Parameter_File>
/export/apps/rDock/src/rDock_2013.1_src/data/scripts/dock_solv.prm

>  <Rbt.Receptor>
prm/blind_docking_40.prm

>  <SCORE>
-25.3866

>  <SCORE.INTER>
-25.3866

>  <SCORE.INTER.CONST>
1

>  <SCORE.INTER.POLAR>
-2.558

>  <SCORE.INTER.ROT>
0

>  <SCORE.INTER.SOLV>
11.5337

>  <SCORE.INTER.VDW>
-15.8423

>  <SCORE.INTER.norm>
-2.53866

>  <SCORE.INTRA>
0

>  <SCORE.INTRA.DIHEDRAL>
0

>  <SCORE.INTRA.DIHEDRAL.0>
0

>  <SCORE.INTRA.POLAR>
0

>  <SCORE.INTRA.POLAR.0>
0

>  <SCORE.INTRA.REPUL>
0

>  <SCORE.INTRA.REPUL.0>
0

>  <SCORE.INTRA.SOLV>
0

>  <SCORE.INTRA.SOLV.lig_0>
-16.9472

>  <SCORE.INTRA.VDW>
0

>  <SCORE.INTRA.VDW.0>
0

>  <SCORE.INTRA.norm>
0

>  <SCORE.RESTR>
0

>  <SCORE.RESTR.CAVITY>
0

>  <SCORE.RESTR.norm>
0

>  <SCORE.SYSTEM>
0

>  <SCORE.SYSTEM.CONST>
0

>  <SCORE.SYSTEM.DIHEDRAL>
0

>  <SCORE.SYSTEM.SOLV>
0

>  <SCORE.SYSTEM.norm>
0

>  <SCORE.heavy>
10

>  <SCORE.norm>
-2.53866

>  <RMSD>
0.860

$$$$
1y26_lig
 OpenBabel02141814133D
libRbt.so/2013.1/901 2013/11/27
 10 11  0  0  0  0  0  0  0  0999 V2000
   19.7593  -17.8739    2.1038 N   0  0  0  0  0  0  0  0  0  0  0  0
   18.4979  -18.3118    2.1168 C   0  0  0  0  0  0  0  0  0  0  0  0
   17.7851  -18.7483    3.1534 N   0  0  0  0  0  0  0  0  0  0  0  0
   18.5049  -18.6794    4.2959 C   0  0  0  0  0  0  0  0  0  0  0  0
   19.8061  -18.2392    4.4349 C   0  0  0  0  0  0  0  0  0  0  0  0
   20.4465  -17.8236    3.2637 C   0  0  0  0  0  0  0  0  0  0  0  0
   21.6995  -17.3981    3.2765 N   0  0  0  0  0  0  0  0  0  0  0  0
   20.2454  -18.3079    5.7366 N   0  0  0  0  0  0  0  0  0  0  0  0
   19.1854  -18.7630    6.3790 C   0  0  0  0  0  0  0  0  0  0  0  0
   18.1058  -19.0186    5.5613 N   0  0  0  0  0  0  0  0  0  0  0  0
  1  2  2  0  0  0  0
  2  3  1  0  0  0  0
  3  4  2  0  0  0  0
  5  4  1  0  0  0  0
  5  6  2  0  0  0  0
  6  1  1  0  0  0  0
  6  7  1  0  0  0  0
  8  5  1  0  0  0  0
  9  8  1  0  0  0  0
 10  4  1  0  0  0  0
 10  9  2  0  0  0  0
M  END
>  <CHROM.1>
19.40373918,-18.31620290,4.03050393,1.26339515,-0.33155021,-1.40926370

>  <Name>
1y26_lig

>  <RI>
224

>  <Rbt.Current_Directory>
/home/afrankz/demos/rdock_decoys_rna/rnas/1y26

>  <Rbt.Executable>
rbdock ($Id: //depot/dev/client3/rdock/2013.1/src/exe/rbdock.cxx#4 $)

>  <Rbt.Library>
libRbt.so (2013.1, Build901 2013/11/27)

>  <Rbt.Parameter_File>
/export/apps/rDock/src/rDock_2013.1_src/data/scripts/dock_solv.prm

>  <Rbt.Receptor>
prm/pocket_docking_6.prm

>  <SCORE>
-25.3697

>  <SCORE.INTER>
-25.3697

>  <SCORE.INTER.CONST>
1

>  <SCORE.INTER.POLAR>
-2.56356

>  <SCORE.INTER.ROT>
0

>  <SCORE.INTER.SOLV>
11.5487

>  <SCORE.INTER.VDW>
-15.8175

>  <SCORE.INTER.norm>
-2.53697

>  <SCORE.INTRA>
0

>  <SCORE.INTRA.DIHEDRAL>
0

>  <SCORE.INTRA.DIHEDRAL.0>
0

>  <SCORE.INTRA.POLAR>
0

>  <SCORE.INTRA.POLAR.0>
0

>  <SCORE.INTRA.REPUL>
0

>  <SCORE.INTRA.REPUL.0>
0

>  <SCORE.INTRA.SOLV>
0

>  <SCORE.INTRA.SOLV.lig_0>
-16.9472

>  <SCORE.INTRA.VDW>
0

>  <SCORE.INTRA.VDW.0>
0

>  <SCORE.INTRA.norm>
0

>  <SCORE.RESTR>
0

>  <SCORE.RESTR.CAVITY>
0

>  <SCORE.RESTR.norm>
0

>  <SCORE.SYSTEM>
0

>  <SCORE.SYSTEM.CONST>
0

>  <SCORE.SYSTEM.DIHEDRAL>
0

>  <SCORE.SYSTEM.SOLV>
0

>  <SCORE.SYSTEM.norm>
0

>  <SCORE.heavy>
10

>  <SCORE.norm>
-2.53697

>  <RMSD>
0.860

$$$$
1y26_lig
 OpenBabel02141814133D
libRbt.so/2013.1/901 2013/11/27
 10 11  0  0  0  0  0  0  0  0999 V2000
   19.7605  -17.8821    2.0986 N   0  0  0  0  0  0  0  0  0  0  0  0
   18.4998  -18.3219    2.1090 C   0  0  0  0  0  0  0  0  0  0  0  0
   17.7839  -18.7549    3.1449 N   0  0  0  0  0  0  0  0  0  0  0  0
   18.4995  -18.6798    4.2897 C   0  0  0  0  0  0  0  0  0  0  0  0
   19.7995  -18.2369    4.4314 C   0  0  0  0  0  0  0  0  0  0  0  0
   20.4435  -17.8256    3.2607 C   0  0  0  0  0  0  0  0  0  0  0  0
   21.6957  -17.3980    3.2761 N   0  0  0  0  0  0  0  0  0  0  0  0
   20.2342  -18.2991    5.7350 N   0  0  0  0  0  0  0  0  0  0  0  0
   19.1726  -18.7530    6.3756 C   0  0  0  0  0  0  0  0  0  0  0  0
   18.0964  -19.0140    5.5552 N   0  0  0  0  0  0  0  0  0  0  0  0
  1  2  2  0  0  0  0
  2  3  1  0  0  0  0
  3  4  2  0  0  0  0
  5  4  1  0  0  0  0
  5  6  2  0  0  0  0
  6  1  1  0  0  0  0
  6  7  1  0  0  0  0
  8  5  1  0  0  0  0
  9  8  1  0  0  0  0
 10  4  1  0  0  0  0
 10  9  2  0  0  0  0
M  END
>  <CHROM.1>
19.39870816,-18.31636672,4.02595299,1.25988963,-0.33365123,-1.41487273

>  <Name>
1y26_lig

>  <RI>
0

>  <Rbt.Current_Directory>
/home/afrankz/demos/rdock_decoys_rna/rnas/1y26

>  <Rbt.Executable>
rbdock ($Id: //depot/dev/client3/rdock/2013.1/src/exe/rbdock.cxx#4 $)

>  <Rbt.Library>
libRbt.so (2013.1, Build901 2013/11/27)

>  <Rbt.Parameter_File>
/export/apps/rDock/src/rDock_2013.1_src/data/scripts/dock_solv.prm

>  <Rbt.Receptor>
prm/pocket_docking_8.prm

>  <SCORE>
-25.4025

>  <SCORE.INTER>
-25.4025

>  <SCORE.INTER.CONST>
1

>  <SCORE.INTER.POLAR>
-2.5609

>  <SCORE.INTER.ROT>
0

>  <SCORE.INTER.SOLV>
11.5461

>  <SCORE.INTER.VDW>
-15.8474

>  <SCORE.INTER.norm>
-2.54025

>  <SCORE.INTRA>
0

>  <SCORE.INTRA.DIHEDRAL>
0

>  <SCORE.INTRA.DIHEDRAL.0>
0

>  <SCORE.INTRA.POLAR>
0

>  <SCORE.INTRA.POLAR.0>
0

>  <SCORE.INTRA.REPUL>
0

>  <SCORE.INTRA.REPUL.0>
0

>  <SCORE.INTRA.SOLV>
0

>  <SCORE.INTRA.SOLV.lig_0>
-16.9472

>  <SCORE.INTRA.VDW>
0

>  <SCORE.INTRA.VDW.0>
0

>  <SCORE.INTRA.norm>
0

>  <SCORE.RESTR>
0

>  <SCORE.RESTR.CAVITY>
0

>  <SCORE.RESTR.norm>
0

>  <SCORE.SYSTEM>
0

>  <SCORE.SYSTEM.CONST>
0

>  <SCORE.SYSTEM.DIHEDRAL>
0

>  <SCORE.SYSTEM.SOLV>
0

>  <SCORE.SYSTEM.norm>
0

>  <SCORE.heavy>
10

>  <SCORE.norm>
-2.54025

>  <RMSD>
0.860

$$$$
1y26_lig
 OpenBabel02141814133D
libRbt.so/2013.1/901 2013/11/27
 10 11  0  0  0  0  0  0  0  0999 V2000
   19.7648  -17.8844    2.0964 N   0  0  0  0  0  0  0  0  0  0  0  0
   18.5039  -18.3239    2.1063 C   0  0  0  0  0  0  0  0  0  0  0  0
   17.7872  -18.7558    3.1421 N   0  0  0  0  0  0  0  0  0  0  0  0
   18.5019  -18.6798    4.2874 C   0  0  0  0  0  0  0  0  0  0  0  0
   19.8019  -18.2371    4.4296 C   0  0  0  0  0  0  0  0  0  0  0  0
   20.4469  -17.8270    3.2590 C   0  0  0  0  0  0  0  0  0  0  0  0
   21.6992  -17.3997    3.2750 N   0  0  0  0  0  0  0  0  0  0  0  0
   20.2357  -18.2982    5.7336 N   0  0  0  0  0  0  0  0  0  0  0  0
   19.1734  -18.7513    6.3738 C   0  0  0  0  0  0  0  0  0  0  0  0
   18.0978  -19.0128    5.5528 N   0  0  0  0  0  0  0  0  0  0  0  0
  1  2  2  0  0  0  0
  2  3  1  0  0  0  0
  3  4  2  0  0  0  0
  5  4  1  0  0  0  0
  5  6  2  0  0  0  0
  6  1  1  0  0  0  0
  6  7  1  0  0  0  0
  8  5  1  0  0  0  0
  9  8  1  0  0  0  0
 10  4  1  0  0  0  0
 10  9  2  0  0  0  0
M  END
>  <CHROM.1>
19.40142768,-18.31682242,4.02392528,1.25906764,-0.33356041,-1.41606266

>  <Name>
1y26_lig

>  <RI>
0

>  <Rbt.Current_Directory>
/home/afrankz/demos/rdock_decoys_rna/rnas/1y26

>  <Rbt.Executable>
rbdock ($Id: //depot/dev/client3/rdock/2013.1/src/exe/rbdock.cxx#4 $)

>  <Rbt.Library>
libRbt.so (2013.1, Build901 2013/11/27)

>  <Rbt.Parameter_File>
/export/apps/rDock/src/rDock_2013.1_src/data/scripts/dock_solv.prm

>  <Rbt.Receptor>
prm/pocket_docking_8.prm

>  <SCORE>
-25.4021

>  <SCORE.INTER>
-25.4021

>  <SCORE.INTER.CONST>
1

>  <SCORE.INTER.POLAR>
-2.5646

>  <SCORE.INTER.ROT>
0

>  <SCORE.INTER.SOLV>
11.5475

>  <SCORE.INTER.VDW>
-15.8352

>  <SCORE.INTER.norm>
-2.54021

>  <SCORE.INTRA>
0

>  <SCORE.INTRA.DIHEDRAL>
0

>  <SCORE.INTRA.DIHEDRAL.0>
0

>  <SCORE.INTRA.POLAR>
0

>  <SCORE.INTRA.POLAR.0>
0

>  <SCORE.INTRA.REPUL>
0

>  <SCORE.INTRA.REPUL.0>
0

>  <SCORE.INTRA.SOLV>
0

>  <SCORE.INTRA.SOLV.lig_0>
-16.9472

>  <SCORE.INTRA.VDW>
0

>  <SCORE.INTRA.VDW.0>
0

>  <SCORE.INTRA.norm>
0

>  <SCORE.RESTR>
0

>  <SCORE.RESTR.CAVITY>
0

>  <SCORE.RESTR.norm>
0

>  <SCORE.SYSTEM>
0

>  <SCORE.SYSTEM.CONST>
0

>  <SCORE.SYSTEM.DIHEDRAL>
0

>  <SCORE.SYSTEM.SOLV>
0

>  <SCORE.SYSTEM.norm>
0

>  <SCORE.heavy>
10

>  <SCORE.norm>
-2.54021

>  <RMSD>
0.861

$$$$
1y26_lig
 OpenBabel02141814133D
libRbt.so/2013.1/901 2013/11/27
 10 11  0  0  0  0  0  0  0  0999 V2000
   19.7446  -17.8648    2.1045 N   0  0  0  0  0  0  0  0  0  0  0  0
   18.4809  -18.2963    2.1156 C   0  0  0  0  0  0  0  0  0  0  0  0
   17.7686  -18.7416    3.1486 N   0  0  0  0  0  0  0  0  0  0  0  0
   18.4916  -18.6902    4.2900 C   0  0  0  0  0  0  0  0  0  0  0  0
   19.7954  -18.2583    4.4309 C   0  0  0  0  0  0  0  0  0  0  0  0
   20.4350  -17.8320    3.2631 C   0  0  0  0  0  0  0  0  0  0  0  0
   21.6901  -17.4131    3.2777 N   0  0  0  0  0  0  0  0  0  0  0  0
   20.2377  -18.3449    5.7306 N   0  0  0  0  0  0  0  0  0  0  0  0
   19.1770  -18.8023    6.3702 C   0  0  0  0  0  0  0  0  0  0  0  0
   18.0940  -19.0425    5.5523 N   0  0  0  0  0  0  0  0  0  0  0  0
  1  2  2  0  0  0  0
  2  3  1  0  0  0  0
  3  4  2  0  0  0  0
  5  4  1  0  0  0  0
  5  6  2  0  0  0  0
  6  1  1  0  0  0  0
  6  7  1  0  0  0  0
  8  5  1  0  0  0  0
  9  8  1  0  0  0  0
 10  4  1  0  0  0  0
 10  9  2  0  0  0  0
M  END
>  <CHROM.1>
19.39162720,-18.32840640,4.02667733,1.26517207,-0.32604908,-1.39666826

>  <Name>
1y26_lig

>  <RI>
224

>  <Rbt.Current_Directory>
/home/afrankz/demos/rdock_decoys_rna/rnas/1y26

>  <Rbt.Executable>
rbdock ($Id: //depot/dev/client3/rdock/2013.1/src/exe/rbdock.cxx#4 $)

>  <Rbt.Library>
libRbt.so (2013.1, Build901 2013/11/27)

>  <Rbt.Parameter_File>
/export/apps/rDock/src/rDock_2013.1_src/data/scripts/dock_solv.prm

>  <Rbt.Receptor>
prm/blind_docking_80.prm

>  <SCORE>
-25.382

>  <SCORE.INTER>
-25.382

>  <SCORE.INTER.CONST>
1

>  <SCORE.INTER.POLAR>
-2.55434

>  <SCORE.INTER.ROT>
0

>  <SCORE.INTER.SOLV>
11.5566

>  <SCORE.INTER.VDW>
-15.859

>  <SCORE.INTER.norm>
-2.5382

>  <SCORE.INTRA>
0

>  <SCORE.INTRA.DIHEDRAL>
0

>  <SCORE.INTRA.DIHEDRAL.0>
0

>  <SCORE.INTRA.POLAR>
0

>  <SCORE.INTRA.POLAR.0>
0

>  <SCORE.INTRA.REPUL>
0

>  <SCORE.INTRA.REPUL.0>
0

>  <SCORE.INTRA.SOLV>
0

>  <SCORE.INTRA.SOLV.lig_0>
-16.9472

>  <SCORE.INTRA.VDW>
0

>  <SCORE.INTRA.VDW.0>
0

>  <SCORE.INTRA.norm>
0

>  <SCORE.RESTR>
0

>  <SCORE.RESTR.CAVITY>
0

>  <SCORE.RESTR.norm>
0

>  <SCORE.SYSTEM>
0

>  <SCORE.SYSTEM.CONST>
0

>  <SCORE.SYSTEM.DIHEDRAL>
0

>  <SCORE.SYSTEM.SOLV>
0

>  <SCORE.SYSTEM.norm>
0

>  <SCORE.heavy>
10

>  <SCORE.norm>
-2.5382

>  <RMSD>
0.864

$$$$
1y26_lig
 OpenBabel02141814133D
libRbt.so/2013.1/901 2013/11/27
 10 11  0  0  0  0  0  0  0  0999 V2000
   19.7509  -17.8934    2.0800 N   0  0  0  0  0  0  0  0  0  0  0  0
   18.4860  -18.3209    2.0980 C   0  0  0  0  0  0  0  0  0  0  0  0
   17.7708  -18.7428    3.1389 N   0  0  0  0  0  0  0  0  0  0  0  0
   18.4923  -18.6701    4.2801 C   0  0  0  0  0  0  0  0  0  0  0  0
   19.7972  -18.2393    4.4141 C   0  0  0  0  0  0  0  0  0  0  0  0
   20.4398  -17.8389    3.2388 C   0  0  0  0  0  0  0  0  0  0  0  0
   21.6961  -17.4235    3.2467 N   0  0  0  0  0  0  0  0  0  0  0  0
   20.2373  -18.3005    5.7159 N   0  0  0  0  0  0  0  0  0  0  0  0
   19.1743  -18.7415    6.3632 C   0  0  0  0  0  0  0  0  0  0  0  0
   18.0918  -18.9953    5.5487 N   0  0  0  0  0  0  0  0  0  0  0  0
  1  2  2  0  0  0  0
  2  3  1  0  0  0  0
  3  4  2  0  0  0  0
  5  4  1  0  0  0  0
  5  6  2  0  0  0  0
  6  1  1  0  0  0  0
  6  7  1  0  0  0  0
  8  5  1  0  0  0  0
  9  8  1  0  0  0  0
 10  4  1  0  0  0  0
 10  9  2  0  0  0  0
M  END
>  <CHROM.1>
19.39379752,-18.31646668,4.01075067,1.26310518,-0.32335259,-1.41784958

>  <Name>
1y26_lig

>  <RI>
224

>  <Rbt.Current_Directory>
/home/afrankz/demos/rdock_decoys_rna/rnas/1y26

>  <Rbt.Executable>
rbdock ($Id: //depot/dev/client3/rdock/2013.1/src/exe/rbdock.cxx#4 $)

>  <Rbt.Library>
libRbt.so (2013.1, Build901 2013/11/27)

>  <Rbt.Parameter_File>
/export/apps/rDock/src/rDock_2013.1_src/data/scripts/dock_solv.prm

>  <Rbt.Receptor>
prm/blind_docking_80.prm

>  <SCORE>
-25.335

>  <SCORE.INTER>
-25.335

>  <SCORE.INTER.CONST>
1

>  <SCORE.INTER.POLAR>
-2.60772

>  <SCORE.INTER.ROT>
0

>  <SCORE.INTER.SOLV>
11.5671

>  <SCORE.INTER.VDW>
-15.6533

>  <SCORE.INTER.norm>
-2.5335

>  <SCORE.INTRA>
0

>  <SCORE.INTRA.DIHEDRAL>
0

>  <SCORE.INTRA.DIHEDRAL.0>
0

>  <SCORE.INTRA.POLAR>
0

>  <SCORE.INTRA.POLAR.0>
0

>  <SCORE.INTRA.REPUL>
0

>  <SCORE.INTRA.REPUL.0>
0

>  <SCORE.INTRA.SOLV>
0

>  <SCORE.INTRA.SOLV.lig_0>
-16.9472

>  <SCORE.INTRA.VDW>
0

>  <SCORE.INTRA.VDW.0>
0

>  <SCORE.INTRA.norm>
0

>  <SCORE.RESTR>
0

>  <SCORE.RESTR.CAVITY>
0

>  <SCORE.RESTR.norm>
0

>  <SCORE.SYSTEM>
0

>  <SCORE.SYSTEM.CONST>
0

>  <SCORE.SYSTEM.DIHEDRAL>
0

>  <SCORE.SYSTEM.SOLV>
0

>  <SCORE.SYSTEM.norm>
0

>  <SCORE.heavy>
10

>  <SCORE.norm>
-2.5335

>  <RMSD>
0.873

$$$$
1y26_lig
 OpenBabel02141814133D
libRbt.so/2013.1/901 2013/11/27
 10 11  0  0  0  0  0  0  0  0999 V2000
   19.3053  -16.7651    2.6925 N   0  0  0  0  0  0  0  0  0  0  0  0
   20.0279  -16.1653    3.6418 C   0  0  0  0  0  0  0  0  0  0  0  0
   20.2810  -16.5880    4.8789 N   0  0  0  0  0  0  0  0  0  0  0  0
   19.7140  -17.7952    5.1008 C   0  0  0  0  0  0  0  0  0  0  0  0
   18.9558  -18.5344    4.2147 C   0  0  0  0  0  0  0  0  0  0  0  0
   18.7518  -17.9675    2.9531 C   0  0  0  0  0  0  0  0  0  0  0  0
   18.0273  -18.5802    2.0307 N   0  0  0  0  0  0  0  0  0  0  0  0
   18.5187  -19.7186    4.7614 N   0  0  0  0  0  0  0  0  0  0  0  0
   19.0486  -19.6952    5.9706 C   0  0  0  0  0  0  0  0  0  0  0  0
   19.7716  -18.5532    6.2399 N   0  0  0  0  0  0  0  0  0  0  0  0
  1  2  2  0  0  0  0
  2  3  1  0  0  0  0
  3  4  2  0  0  0  0
  5  4  1  0  0  0  0
  5  6  2  0  0  0  0
  6  1  1  0  0  0  0
  6  7  1  0  0  0  0
  8  5  1  0  0  0  0
  9  8  1  0  0  0  0
 10  4  1  0  0  0  0
 10  9  2  0  0  0  0
M  END
>  <CHROM.1>
19.24026254,-18.03502714,4.24729263,-1.63473136,0.97043896,2.21189497

>  <Name>
1y26_lig

>  <RI>
224

>  <Rbt.Current_Directory>
/home/afrankz/demos/rdock_decoys_rna/rnas/1y26

>  <Rbt.Executable>
rbdock ($Id: //depot/dev/client3/rdock/2013.1/src/exe/rbdock.cxx#4 $)

>  <Rbt.Library>
libRbt.so (2013.1, Build901 2013/11/27)

>  <Rbt.Parameter_File>
/export/apps/rDock/src/rDock_2013.1_src/data/scripts/dock_solv.prm

>  <Rbt.Receptor>
prm/blind_docking_80.prm

>  <SCORE>
-25.2015

>  <SCORE.INTER>
-25.2015

>  <SCORE.INTER.CONST>
1

>  <SCORE.INTER.POLAR>
-1.93135

>  <SCORE.INTER.ROT>
0

>  <SCORE.INTER.SOLV>
13.0494

>  <SCORE.INTER.VDW>
-18.3129

>  <SCORE.INTER.norm>
-2.52015

>  <SCORE.INTRA>
0

>  <SCORE.INTRA.DIHEDRAL>
0

>  <SCORE.INTRA.DIHEDRAL.0>
0

>  <SCORE.INTRA.POLAR>
0

>  <SCORE.INTRA.POLAR.0>
0

>  <SCORE.INTRA.REPUL>
0

>  <SCORE.INTRA.REPUL.0>
0

>  <SCORE.INTRA.SOLV>
0

>  <SCORE.INTRA.SOLV.lig_0>
-16.9472

>  <SCORE.INTRA.VDW>
0

>  <SCORE.INTRA.VDW.0>
0

>  <SCORE.INTRA.norm>
0

>  <SCORE.RESTR>
0

>  <SCORE.RESTR.CAVITY>
0

>  <SCORE.RESTR.norm>
0

>  <SCORE.SYSTEM>
0

>  <SCORE.SYSTEM.CONST>
0

>  <SCORE.SYSTEM.DIHEDRAL>
0

>  <SCORE.SYSTEM.SOLV>
0

>  <SCORE.SYSTEM.norm>
0

>  <SCORE.heavy>
10

>  <SCORE.norm>
-2.52015

>  <RMSD>
2.409

$$$$
1y26_lig
 OpenBabel02141814133D
libRbt.so/2013.1/901 2013/11/27
 10 11  0  0  0  0  0  0  0  0999 V2000
   19.3066  -16.7722    2.6960 N   0  0  0  0  0  0  0  0  0  0  0  0
   20.0086  -16.1735    3.6614 C   0  0  0  0  0  0  0  0  0  0  0  0
   20.2580  -16.6103    4.8943 N   0  0  0  0  0  0  0  0  0  0  0  0
   19.7121  -17.8314    5.0922 C   0  0  0  0  0  0  0  0  0  0  0  0
   18.9767  -18.5711    4.1876 C   0  0  0  0  0  0  0  0  0  0  0  0
   18.7737  -17.9888    2.9329 C   0  0  0  0  0  0  0  0  0  0  0  0
   18.0699  -18.6008    1.9942 N   0  0  0  0  0  0  0  0  0  0  0  0
   18.5572  -19.7717    4.7119 N   0  0  0  0  0  0  0  0  0  0  0  0
   19.0750  -19.7569    5.9264 C   0  0  0  0  0  0  0  0  0  0  0  0
   19.7734  -18.6056    6.2202 N   0  0  0  0  0  0  0  0  0  0  0  0
  1  2  2  0  0  0  0
  2  3  1  0  0  0  0
  3  4  2  0  0  0  0
  5  4  1  0  0  0  0
  5  6  2  0  0  0  0
  6  1  1  0  0  0  0
  6  7  1  0  0  0  0
  8  5  1  0  0  0  0
  9  8  1  0  0  0  0
 10  4  1  0  0  0  0
 10  9  2  0  0  0  0
M  END
>  <CHROM.1>
19.25116423,-18.06697436,4.23059162,-1.64178327,0.99145608,2.23308424

>  <Name>
1y26_lig

>  <RI>
0

>  <Rbt.Current_Directory>
/home/afrankz/demos/rdock_decoys_rna/rnas/1y26

>  <Rbt.Executable>
rbdock ($Id: //depot/dev/client3/rdock/2013.1/src/exe/rbdock.cxx#4 $)

>  <Rbt.Library>
libRbt.so (2013.1, Build901 2013/11/27)

>  <Rbt.Parameter_File>
/export/apps/rDock/src/rDock_2013.1_src/data/scripts/dock_solv.prm

>  <Rbt.Receptor>
prm/blind_docking_40.prm

>  <SCORE>
-25.2326

>  <SCORE.INTER>
-25.2326

>  <SCORE.INTER.CONST>
1

>  <SCORE.INTER.POLAR>
-1.94209

>  <SCORE.INTER.ROT>
0

>  <SCORE.INTER.SOLV>
13.1354

>  <SCORE.INTER.VDW>
-18.3265

>  <SCORE.INTER.norm>
-2.52326

>  <SCORE.INTRA>
0

>  <SCORE.INTRA.DIHEDRAL>
0

>  <SCORE.INTRA.DIHEDRAL.0>
0

>  <SCORE.INTRA.POLAR>
0

>  <SCORE.INTRA.POLAR.0>
0

>  <SCORE.INTRA.REPUL>
0

>  <SCORE.INTRA.REPUL.0>
0

>  <SCORE.INTRA.SOLV>
0

>  <SCORE.INTRA.SOLV.lig_0>
-16.9472

>  <SCORE.INTRA.VDW>
0

>  <SCORE.INTRA.VDW.0>
0

>  <SCORE.INTRA.norm>
0

>  <SCORE.RESTR>
0

>  <SCORE.RESTR.CAVITY>
0

>  <SCORE.RESTR.norm>
0

>  <SCORE.SYSTEM>
0

>  <SCORE.SYSTEM.CONST>
0

>  <SCORE.SYSTEM.DIHEDRAL>
0

>  <SCORE.SYSTEM.SOLV>
0

>  <SCORE.SYSTEM.norm>
0

>  <SCORE.heavy>
10

>  <SCORE.norm>
-2.52326

>  <RMSD>
2.410

$$$$
1y26_lig
 OpenBabel02141814133D
libRbt.so/2013.1/901 2013/11/27
 10 11  0  0  0  0  0  0  0  0999 V2000
   19.3072  -16.7803    2.6792 N   0  0  0  0  0  0  0  0  0  0  0  0
   20.0189  -16.1869    3.6407 C   0  0  0  0  0  0  0  0  0  0  0  0
   20.2690  -16.6240    4.8733 N   0  0  0  0  0  0  0  0  0  0  0  0
   19.7118  -17.8393    5.0756 C   0  0  0  0  0  0  0  0  0  0  0  0
   18.9654  -18.5732    4.1753 C   0  0  0  0  0  0  0  0  0  0  0  0
   18.7632  -17.9911    2.9203 C   0  0  0  0  0  0  0  0  0  0  0  0
   18.0495  -18.5977    1.9855 N   0  0  0  0  0  0  0  0  0  0  0  0
   18.5361  -19.7687    4.7034 N   0  0  0  0  0  0  0  0  0  0  0  0
   19.0589  -19.7569    5.9158 C   0  0  0  0  0  0  0  0  0  0  0  0
   19.7699  -18.6121    6.2047 N   0  0  0  0  0  0  0  0  0  0  0  0
  1  2  2  0  0  0  0
  2  3  1  0  0  0  0
  3  4  2  0  0  0  0
  5  4  1  0  0  0  0
  5  6  2  0  0  0  0
  6  1  1  0  0  0  0
  6  7  1  0  0  0  0
  8  5  1  0  0  0  0
  9  8  1  0  0  0  0
 10  4  1  0  0  0  0
 10  9  2  0  0  0  0
M  END
>  <CHROM.1>
19.24503938,-18.07175527,4.21625447,-1.63651674,0.98114071,2.22693814

>  <Name>
1y26_lig

>  <RI>
0

>  <Rbt.Current_Directory>
/home/afrankz/demos/rdock_decoys_rna/rnas/1y26

>  <Rbt.Executable>
rbdock ($Id: //depot/dev/client3/rdock/2013.1/src/exe/rbdock.cxx#4 $)

>  <Rbt.Library>
libRbt.so (2013.1, Build901 2013/11/27)

>  <Rbt.Parameter_File>
/export/apps/rDock/src/rDock_2013.1_src/data/scripts/dock_solv.prm

>  <Rbt.Receptor>
prm/blind_docking_60.prm

>  <SCORE>
-25.2388

>  <SCORE.INTER>
-25.2388

>  <SCORE.INTER.CONST>
1

>  <SCORE.INTER.POLAR>
-1.97242

>  <SCORE.INTER.ROT>
0

>  <SCORE.INTER.SOLV>
13.1158

>  <SCORE.INTER.VDW>
-18.2231

>  <SCORE.INTER.norm>
-2.52388

>  <SCORE.INTRA>
0

>  <SCORE.INTRA.DIHEDRAL>
0

>  <SCORE.INTRA.DIHEDRAL.0>
0

>  <SCORE.INTRA.POLAR>
0

>  <SCORE.INTRA.POLAR.0>
0

>  <SCORE.INTRA.REPUL>
0

>  <SCORE.INTRA.REPUL.0>
0

>  <SCORE.INTRA.SOLV>
0

>  <SCORE.INTRA.SOLV.lig_0>
-16.9472

>  <SCORE.INTRA.VDW>
0

>  <SCORE.INTRA.VDW.0>
0

>  <SCORE.INTRA.norm>
0

>  <SCORE.RESTR>
0

>  <SCORE.RESTR.CAVITY>
0

>  <SCORE.RESTR.norm>
0

>  <SCORE.SYSTEM>
0

>  <SCORE.SYSTEM.CONST>
0

>  <SCORE.SYSTEM.DIHEDRAL>
0

>  <SCORE.SYSTEM.SOLV>
0

>  <SCORE.SYSTEM.norm>
0

>  <SCORE.heavy>
10

>  <SCORE.norm>
-2.52388

>  <RMSD>
2.410

$$$$
1y26_lig
 OpenBabel02141814133D
libRbt.so/2013.1/901 2013/11/27
 10 11  0  0  0  0  0  0  0  0999 V2000
   19.3096  -16.7740    2.6955 N   0  0  0  0  0  0  0  0  0  0  0  0
   20.0116  -16.1737    3.6599 C   0  0  0  0  0  0  0  0  0  0  0  0
   20.2602  -16.6080    4.8938 N   0  0  0  0  0  0  0  0  0  0  0  0
   19.7132  -17.8282    5.0941 C   0  0  0  0  0  0  0  0  0  0  0  0
   18.9776  -18.5693    4.1909 C   0  0  0  0  0  0  0  0  0  0  0  0
   18.7757  -17.9896    2.9348 C   0  0  0  0  0  0  0  0  0  0  0  0
   18.0717  -18.6031    1.9971 N   0  0  0  0  0  0  0  0  0  0  0  0
   18.5569  -19.7684    4.7176 N   0  0  0  0  0  0  0  0  0  0  0  0
   19.0742  -19.7514    5.9323 C   0  0  0  0  0  0  0  0  0  0  0  0
   19.7734  -18.6000    6.2238 N   0  0  0  0  0  0  0  0  0  0  0  0
  1  2  2  0  0  0  0
  2  3  1  0  0  0  0
  3  4  2  0  0  0  0
  5  4  1  0  0  0  0
  5  6  2  0  0  0  0
  6  1  1  0  0  0  0
  6  7  1  0  0  0  0
  8  5  1  0  0  0  0
  9  8  1  0  0  0  0
 10  4  1  0  0  0  0
 10  9  2  0  0  0  0
M  END
>  <CHROM.1>
19.25245332,-18.06529514,4.23284132,-1.64025845,0.99108085,2.22962160

>  <Name>
1y26_lig

>  <RI>
224

>  <Rbt.Current_Directory>
/home/afrankz/demos/rdock_decoys_rna/rnas/1y26

>  <Rbt.Executable>
rbdock ($Id: //depot/dev/client3/rdock/2013.1/src/exe/rbdock.cxx#4 $)

>  <Rbt.Library>
libRbt.so (2013.1, Build901 2013/11/27)

>  <Rbt.Parameter_File>
/export/apps/rDock/src/rDock_2013.1_src/data/scripts/dock_solv.prm

>  <Rbt.Receptor>
prm/blind_docking_80.prm

>  <SCORE>
-25.2315

>  <SCORE.INTER>
-25.2315

>  <SCORE.INTER.CONST>
1

>  <SCORE.INTER.POLAR>
-1.9387

>  <SCORE.INTER.ROT>
0

>  <SCORE.INTER.SOLV>
13.1238

>  <SCORE.INTER.VDW>
-18.3333

>  <SCORE.INTER.norm>
-2.52315

>  <SCORE.INTRA>
0

>  <SCORE.INTRA.DIHEDRAL>
0

>  <SCORE.INTRA.DIHEDRAL.0>
0

>  <SCORE.INTRA.POLAR>
0

>  <SCORE.INTRA.POLAR.0>
0

>  <SCORE.INTRA.REPUL>
0

>  <SCORE.INTRA.REPUL.0>
0

>  <SCORE.INTRA.SOLV>
0

>  <SCORE.INTRA.SOLV.lig_0>
-16.9472

>  <SCORE.INTRA.VDW>
0

>  <SCORE.INTRA.VDW.0>
0

>  <SCORE.INTRA.norm>
0

>  <SCORE.RESTR>
0

>  <SCORE.RESTR.CAVITY>
0

>  <SCORE.RESTR.norm>
0

>  <SCORE.SYSTEM>
0

>  <SCORE.SYSTEM.CONST>
0

>  <SCORE.SYSTEM.DIHEDRAL>
0

>  <SCORE.SYSTEM.SOLV>
0

>  <SCORE.SYSTEM.norm>
0

>  <SCORE.heavy>
10

>  <SCORE.norm>
-2.52315

>  <RMSD>
2.410

$$$$
1y26_lig
 OpenBabel02141814133D
libRbt.so/2013.1/901 2013/11/27
 10 11  0  0  0  0  0  0  0  0999 V2000
   19.3086  -16.7683    2.6989 N   0  0  0  0  0  0  0  0  0  0  0  0
   20.0049  -16.1686    3.6677 C   0  0  0  0  0  0  0  0  0  0  0  0
   20.2525  -16.6069    4.9004 N   0  0  0  0  0  0  0  0  0  0  0  0
   19.7113  -17.8307    5.0941 C   0  0  0  0  0  0  0  0  0  0  0  0
   18.9818  -18.5717    4.1857 C   0  0  0  0  0  0  0  0  0  0  0  0
   18.7802  -17.9876    2.9316 C   0  0  0  0  0  0  0  0  0  0  0  0
   18.0819  -18.6007    1.9894 N   0  0  0  0  0  0  0  0  0  0  0  0
   18.5659  -19.7752    4.7061 N   0  0  0  0  0  0  0  0  0  0  0  0
   19.0799  -19.7607    5.9223 C   0  0  0  0  0  0  0  0  0  0  0  0
   19.7724  -18.6070    6.2206 N   0  0  0  0  0  0  0  0  0  0  0  0
  1  2  2  0  0  0  0
  2  3  1  0  0  0  0
  3  4  2  0  0  0  0
  5  4  1  0  0  0  0
  5  6  2  0  0  0  0
  6  1  1  0  0  0  0
  6  7  1  0  0  0  0
  8  5  1  0  0  0  0
  9  8  1  0  0  0  0
 10  4  1  0  0  0  0
 10  9  2  0  0  0  0
M  END
>  <CHROM.1>
19.25397042,-18.06646038,4.23056437,-1.64221423,0.99674396,2.23555511

>  <Name>
1y26_lig

>  <RI>
0

>  <Rbt.Current_Directory>
/home/afrankz/demos/rdock_decoys_rna/rnas/1y26

>  <Rbt.Executable>
rbdock ($Id: //depot/dev/client3/rdock/2013.1/src/exe/rbdock.cxx#4 $)

>  <Rbt.Library>
libRbt.so (2013.1, Build901 2013/11/27)

>  <Rbt.Parameter_File>
/export/apps/rDock/src/rDock_2013.1_src/data/scripts/dock_solv.prm

>  <Rbt.Receptor>
prm/pocket_docking_4.prm

>  <SCORE>
-25.2279

>  <SCORE.INTER>
-25.2279

>  <SCORE.INTER.CONST>
1

>  <SCORE.INTER.POLAR>
-1.93066

>  <SCORE.INTER.ROT>
0

>  <SCORE.INTER.SOLV>
13.1451

>  <SCORE.INTER.VDW>
-18.3647

>  <SCORE.INTER.norm>
-2.52279

>  <SCORE.INTRA>
0

>  <SCORE.INTRA.DIHEDRAL>
0

>  <SCORE.INTRA.DIHEDRAL.0>
0

>  <SCORE.INTRA.POLAR>
0

>  <SCORE.INTRA.POLAR.0>
0

>  <SCORE.INTRA.REPUL>
0

>  <SCORE.INTRA.REPUL.0>
0

>  <SCORE.INTRA.SOLV>
0

>  <SCORE.INTRA.SOLV.lig_0>
-16.9472

>  <SCORE.INTRA.VDW>
0

>  <SCORE.INTRA.VDW.0>
0

>  <SCORE.INTRA.norm>
0

>  <SCORE.RESTR>
0

>  <SCORE.RESTR.CAVITY>
0

>  <SCORE.RESTR.norm>
0

>  <SCORE.SYSTEM>
0

>  <SCORE.SYSTEM.CONST>
0

>  <SCORE.SYSTEM.DIHEDRAL>
0

>  <SCORE.SYSTEM.SOLV>
0

>  <SCORE.SYSTEM.norm>
0

>  <SCORE.heavy>
10

>  <SCORE.norm>
-2.52279

>  <RMSD>
2.410

$$$$
1y26_lig
 OpenBabel02141814133D
libRbt.so/2013.1/901 2013/11/27
 10 11  0  0  0  0  0  0  0  0999 V2000
   19.3089  -16.7737    2.6973 N   0  0  0  0  0  0  0  0  0  0  0  0
   20.0105  -16.1736    3.6621 C   0  0  0  0  0  0  0  0  0  0  0  0
   20.2580  -16.6078    4.8963 N   0  0  0  0  0  0  0  0  0  0  0  0
   19.7104  -17.8278    5.0964 C   0  0  0  0  0  0  0  0  0  0  0  0
   18.9750  -18.5686    4.1927 C   0  0  0  0  0  0  0  0  0  0  0  0
   18.7742  -17.9890    2.9364 C   0  0  0  0  0  0  0  0  0  0  0  0
   18.0706  -18.6023    1.9983 N   0  0  0  0  0  0  0  0  0  0  0  0
   18.5534  -19.7675    4.7193 N   0  0  0  0  0  0  0  0  0  0  0  0
   19.0699  -19.7505    5.9344 C   0  0  0  0  0  0  0  0  0  0  0  0
   19.7694  -18.5994    6.2262 N   0  0  0  0  0  0  0  0  0  0  0  0
  1  2  2  0  0  0  0
  2  3  1  0  0  0  0
  3  4  2  0  0  0  0
  5  4  1  0  0  0  0
  5  6  2  0  0  0  0
  6  1  1  0  0  0  0
  6  7  1  0  0  0  0
  8  5  1  0  0  0  0
  9  8  1  0  0  0  0
 10  4  1  0  0  0  0
 10  9  2  0  0  0  0
M  END
>  <CHROM.1>
19.25007169,-18.06474529,4.23482268,-1.63875877,0.99113829,2.22823490

>  <Name>
1y26_lig

>  <RI>
0

>  <Rbt.Current_Directory>
/home/afrankz/demos/rdock_decoys_rna/rnas/1y26

>  <Rbt.Executable>
rbdock ($Id: //depot/dev/client3/rdock/2013.1/src/exe/rbdock.cxx#4 $)

>  <Rbt.Library>
libRbt.so (2013.1, Build901 2013/11/27)

>  <Rbt.Parameter_File>
/export/apps/rDock/src/rDock_2013.1_src/data/scripts/dock_solv.prm

>  <Rbt.Receptor>
prm/pocket_docking_4.prm

>  <SCORE>
-25.2309

>  <SCORE.INTER>
-25.2309

>  <SCORE.INTER.CONST>
1

>  <SCORE.INTER.POLAR>
-1.94009

>  <SCORE.INTER.ROT>
0

>  <SCORE.INTER.SOLV>
13.124

>  <SCORE.INTER.VDW>
-18.3283

>  <SCORE.INTER.norm>
-2.52309

>  <SCORE.INTRA>
0

>  <SCORE.INTRA.DIHEDRAL>
0

>  <SCORE.INTRA.DIHEDRAL.0>
0

>  <SCORE.INTRA.POLAR>
0

>  <SCORE.INTRA.POLAR.0>
0

>  <SCORE.INTRA.REPUL>
0

>  <SCORE.INTRA.REPUL.0>
0

>  <SCORE.INTRA.SOLV>
0

>  <SCORE.INTRA.SOLV.lig_0>
-16.9472

>  <SCORE.INTRA.VDW>
0

>  <SCORE.INTRA.VDW.0>
0

>  <SCORE.INTRA.norm>
0

>  <SCORE.RESTR>
0

>  <SCORE.RESTR.CAVITY>
0

>  <SCORE.RESTR.norm>
0

>  <SCORE.SYSTEM>
0

>  <SCORE.SYSTEM.CONST>
0

>  <SCORE.SYSTEM.DIHEDRAL>
0

>  <SCORE.SYSTEM.SOLV>
0

>  <SCORE.SYSTEM.norm>
0

>  <SCORE.heavy>
10

>  <SCORE.norm>
-2.52309

>  <RMSD>
2.410

$$$$
1y26_lig
 OpenBabel02141814133D
libRbt.so/2013.1/901 2013/11/27
 10 11  0  0  0  0  0  0  0  0999 V2000
   19.3075  -16.7756    2.6883 N   0  0  0  0  0  0  0  0  0  0  0  0
   20.0148  -16.1772    3.6500 C   0  0  0  0  0  0  0  0  0  0  0  0
   20.2667  -16.6119    4.8830 N   0  0  0  0  0  0  0  0  0  0  0  0
   19.7170  -17.8306    5.0857 C   0  0  0  0  0  0  0  0  0  0  0  0
   18.9759  -18.5697    4.1853 C   0  0  0  0  0  0  0  0  0  0  0  0
   18.7709  -17.9897    2.9298 C   0  0  0  0  0  0  0  0  0  0  0  0
   18.0618  -18.6013    1.9949 N   0  0  0  0  0  0  0  0  0  0  0  0
   18.5537  -19.7675    4.7138 N   0  0  0  0  0  0  0  0  0  0  0  0
   19.0756  -19.7517    5.9266 C   0  0  0  0  0  0  0  0  0  0  0  0
   19.7791  -18.6023    6.2153 N   0  0  0  0  0  0  0  0  0  0  0  0
  1  2  2  0  0  0  0
  2  3  1  0  0  0  0
  3  4  2  0  0  0  0
  5  4  1  0  0  0  0
  5  6  2  0  0  0  0
  6  1  1  0  0  0  0
  6  7  1  0  0  0  0
  8  5  1  0  0  0  0
  9  8  1  0  0  0  0
 10  4  1  0  0  0  0
 10  9  2  0  0  0  0
M  END
>  <CHROM.1>
19.25234432,-18.06647571,4.22613810,-1.64241646,0.98653516,2.23122973

>  <Name>
1y26_lig

>  <RI>
0

>  <Rbt.Current_Directory>
/home/afrankz/demos/rdock_decoys_rna/rnas/1y26

>  <Rbt.Executable>
rbdock ($Id: //depot/dev/client3/rdock/2013.1/src/exe/rbdock.cxx#4 $)

>  <Rbt.Library>
libRbt.so (2013.1, Build901 2013/11/27)

>  <Rbt.Parameter_File>
/export/apps/rDock/src/rDock_2013.1_src/data/scripts/dock_solv.prm

>  <Rbt.Receptor>
prm/pocket_docking_4.prm

>  <SCORE>
-25.2294

>  <SCORE.INTER>
-25.2294

>  <SCORE.INTER.CONST>
1

>  <SCORE.INTER.POLAR>
-1.94824

>  <SCORE.INTER.ROT>
0

>  <SCORE.INTER.SOLV>
13.1208

>  <SCORE.INTER.VDW>
-18.299

>  <SCORE.INTER.norm>
-2.52294

>  <SCORE.INTRA>
0

>  <SCORE.INTRA.DIHEDRAL>
0

>  <SCORE.INTRA.DIHEDRAL.0>
0

>  <SCORE.INTRA.POLAR>
0

>  <SCORE.INTRA.POLAR.0>
0

>  <SCORE.INTRA.REPUL>
0

>  <SCORE.INTRA.REPUL.0>
0

>  <SCORE.INTRA.SOLV>
0

>  <SCORE.INTRA.SOLV.lig_0>
-16.9472

>  <SCORE.INTRA.VDW>
0

>  <SCORE.INTRA.VDW.0>
0

>  <SCORE.INTRA.norm>
0

>  <SCORE.RESTR>
0

>  <SCORE.RESTR.CAVITY>
0

>  <SCORE.RESTR.norm>
0

>  <SCORE.SYSTEM>
0

>  <SCORE.SYSTEM.CONST>
0

>  <SCORE.SYSTEM.DIHEDRAL>
0

>  <SCORE.SYSTEM.SOLV>
0

>  <SCORE.SYSTEM.norm>
0

>  <SCORE.heavy>
10

>  <SCORE.norm>
-2.52294

>  <RMSD>
2.410

$$$$
1y26_lig
 OpenBabel02141814133D
libRbt.so/2013.1/901 2013/11/27
 10 11  0  0  0  0  0  0  0  0999 V2000
   19.3059  -16.7727    2.6926 N   0  0  0  0  0  0  0  0  0  0  0  0
   20.0100  -16.1742    3.6565 C   0  0  0  0  0  0  0  0  0  0  0  0
   20.2612  -16.6107    4.8891 N   0  0  0  0  0  0  0  0  0  0  0  0
   19.7148  -17.8314    5.0884 C   0  0  0  0  0  0  0  0  0  0  0  0
   18.9772  -18.5708    4.1853 C   0  0  0  0  0  0  0  0  0  0  0  0
   18.7726  -17.9888    2.9307 C   0  0  0  0  0  0  0  0  0  0  0  0
   18.0666  -18.6006    1.9934 N   0  0  0  0  0  0  0  0  0  0  0  0
   18.5578  -19.7710    4.7107 N   0  0  0  0  0  0  0  0  0  0  0  0
   19.0777  -19.7561    5.9243 C   0  0  0  0  0  0  0  0  0  0  0  0
   19.7774  -18.6053    6.2165 N   0  0  0  0  0  0  0  0  0  0  0  0
  1  2  2  0  0  0  0
  2  3  1  0  0  0  0
  3  4  2  0  0  0  0
  5  4  1  0  0  0  0
  5  6  2  0  0  0  0
  6  1  1  0  0  0  0
  6  7  1  0  0  0  0
  8  5  1  0  0  0  0
  9  8  1  0  0  0  0
 10  4  1  0  0  0  0
 10  9  2  0  0  0  0
M  END
>  <CHROM.1>
19.25216062,-18.06688070,4.22762065,-1.64345530,0.98981318,2.23416449

>  <Name>
1y26_lig

>  <RI>
0

>  <Rbt.Current_Directory>
/home/afrankz/demos/rdock_decoys_rna/rnas/1y26

>  <Rbt.Executable>
rbdock ($Id: //depot/dev/client3/rdock/2013.1/src/exe/rbdock.cxx#4 $)

>  <Rbt.Library>
libRbt.so (2013.1, Build901 2013/11/27)

>  <Rbt.Parameter_File>
/export/apps/rDock/src/rDock_2013.1_src/data/scripts/dock_solv.prm

>  <Rbt.Receptor>
prm/pocket_docking_4.prm

>  <SCORE>
-25.2316

>  <SCORE.INTER>
-25.2316

>  <SCORE.INTER.CONST>
1

>  <SCORE.INTER.POLAR>
-1.94409

>  <SCORE.INTER.ROT>
0

>  <SCORE.INTER.SOLV>
13.1335

>  <SCORE.INTER.VDW>
-18.3186

>  <SCORE.INTER.norm>
-2.52316

>  <SCORE.INTRA>
0

>  <SCORE.INTRA.DIHEDRAL>
0

>  <SCORE.INTRA.DIHEDRAL.0>
0

>  <SCORE.INTRA.POLAR>
0

>  <SCORE.INTRA.POLAR.0>
0

>  <SCORE.INTRA.REPUL>
0

>  <SCORE.INTRA.REPUL.0>
0

>  <SCORE.INTRA.SOLV>
0

>  <SCORE.INTRA.SOLV.lig_0>
-16.9472

>  <SCORE.INTRA.VDW>
0

>  <SCORE.INTRA.VDW.0>
0

>  <SCORE.INTRA.norm>
0

>  <SCORE.RESTR>
0

>  <SCORE.RESTR.CAVITY>
0

>  <SCORE.RESTR.norm>
0

>  <SCORE.SYSTEM>
0

>  <SCORE.SYSTEM.CONST>
0

>  <SCORE.SYSTEM.DIHEDRAL>
0

>  <SCORE.SYSTEM.SOLV>
0

>  <SCORE.SYSTEM.norm>
0

>  <SCORE.heavy>
10

>  <SCORE.norm>
-2.52316

>  <RMSD>
2.410

$$$$
1y26_lig
 OpenBabel02141814133D
libRbt.so/2013.1/901 2013/11/27
 10 11  0  0  0  0  0  0  0  0999 V2000
   19.3111  -16.7699    2.6996 N   0  0  0  0  0  0  0  0  0  0  0  0
   20.0077  -16.1721    3.6694 C   0  0  0  0  0  0  0  0  0  0  0  0
   20.2520  -16.6110    4.9025 N   0  0  0  0  0  0  0  0  0  0  0  0
   19.7070  -17.8333    5.0955 C   0  0  0  0  0  0  0  0  0  0  0  0
   18.9769  -18.5723    4.1860 C   0  0  0  0  0  0  0  0  0  0  0  0
   18.7790  -17.9878    2.9315 C   0  0  0  0  0  0  0  0  0  0  0  0
   18.0804  -18.5989    1.9883 N   0  0  0  0  0  0  0  0  0  0  0  0
   18.5568  -19.7746    4.7059 N   0  0  0  0  0  0  0  0  0  0  0  0
   19.0689  -19.7614    5.9229 C   0  0  0  0  0  0  0  0  0  0  0  0
   19.7642  -18.6096    6.2222 N   0  0  0  0  0  0  0  0  0  0  0  0
  1  2  2  0  0  0  0
  2  3  1  0  0  0  0
  3  4  2  0  0  0  0
  5  4  1  0  0  0  0
  5  6  2  0  0  0  0
  6  1  1  0  0  0  0
  6  7  1  0  0  0  0
  8  5  1  0  0  0  0
  9  8  1  0  0  0  0
 10  4  1  0  0  0  0
 10  9  2  0  0  0  0
M  END
>  <CHROM.1>
19.25044470,-18.06781338,4.23126024,-1.63672092,0.99549464,2.23084163

>  <Name>
1y26_lig

>  <RI>
224

>  <Rbt.Current_Directory>
/home/afrankz/demos/rdock_decoys_rna/rnas/1y26

>  <Rbt.Executable>
rbdock ($Id: //depot/dev/client3/rdock/2013.1/src/exe/rbdock.cxx#4 $)

>  <Rbt.Library>
libRbt.so (2013.1, Build901 2013/11/27)

>  <Rbt.Parameter_File>
/export/apps/rDock/src/rDock_2013.1_src/data/scripts/dock_solv.prm

>  <Rbt.Receptor>
prm/pocket_docking_7.prm

>  <SCORE>
-25.2283

>  <SCORE.INTER>
-25.2283

>  <SCORE.INTER.CONST>
1

>  <SCORE.INTER.POLAR>
-1.93706

>  <SCORE.INTER.ROT>
0

>  <SCORE.INTER.SOLV>
13.1393

>  <SCORE.INTER.VDW>
-18.3418

>  <SCORE.INTER.norm>
-2.52283

>  <SCORE.INTRA>
0

>  <SCORE.INTRA.DIHEDRAL>
0

>  <SCORE.INTRA.DIHEDRAL.0>
0

>  <SCORE.INTRA.POLAR>
0

>  <SCORE.INTRA.POLAR.0>
0

>  <SCORE.INTRA.REPUL>
0

>  <SCORE.INTRA.REPUL.0>
0

>  <SCORE.INTRA.SOLV>
0

>  <SCORE.INTRA.SOLV.lig_0>
-16.9472

>  <SCORE.INTRA.VDW>
0

>  <SCORE.INTRA.VDW.0>
0

>  <SCORE.INTRA.norm>
0

>  <SCORE.RESTR>
0

>  <SCORE.RESTR.CAVITY>
0

>  <SCORE.RESTR.norm>
0

>  <SCORE.SYSTEM>
0

>  <SCORE.SYSTEM.CONST>
0

>  <SCORE.SYSTEM.DIHEDRAL>
0

>  <SCORE.SYSTEM.SOLV>
0

>  <SCORE.SYSTEM.norm>
0

>  <SCORE.heavy>
10

>  <SCORE.norm>
-2.52283

>  <RMSD>
2.410

$$$$
1y26_lig
 OpenBabel02141814133D
libRbt.so/2013.1/901 2013/11/27
 10 11  0  0  0  0  0  0  0  0999 V2000
   19.3009  -16.7744    2.6944 N   0  0  0  0  0  0  0  0  0  0  0  0
   20.0062  -16.1756    3.6573 C   0  0  0  0  0  0  0  0  0  0  0  0
   20.2588  -16.6117    4.8898 N   0  0  0  0  0  0  0  0  0  0  0  0
   19.7123  -17.8322    5.0902 C   0  0  0  0  0  0  0  0  0  0  0  0
   18.9735  -18.5718    4.1883 C   0  0  0  0  0  0  0  0  0  0  0  0
   18.7675  -17.9903    2.9338 C   0  0  0  0  0  0  0  0  0  0  0  0
   18.0603  -18.6023    1.9976 N   0  0  0  0  0  0  0  0  0  0  0  0
   18.5545  -19.7717    4.7147 N   0  0  0  0  0  0  0  0  0  0  0  0
   19.0758  -19.7564    5.9277 C   0  0  0  0  0  0  0  0  0  0  0  0
   19.7762  -18.6056    6.2185 N   0  0  0  0  0  0  0  0  0  0  0  0
  1  2  2  0  0  0  0
  2  3  1  0  0  0  0
  3  4  2  0  0  0  0
  5  4  1  0  0  0  0
  5  6  2  0  0  0  0
  6  1  1  0  0  0  0
  6  7  1  0  0  0  0
  8  5  1  0  0  0  0
  9  8  1  0  0  0  0
 10  4  1  0  0  0  0
 10  9  2  0  0  0  0
M  END
>  <CHROM.1>
19.24864840,-18.06792227,4.23011037,-1.64493073,0.98890288,2.23498213

>  <Name>
1y26_lig

>  <RI>
224

>  <Rbt.Current_Directory>
/home/afrankz/demos/rdock_decoys_rna/rnas/1y26

>  <Rbt.Executable>
rbdock ($Id: //depot/dev/client3/rdock/2013.1/src/exe/rbdock.cxx#4 $)

>  <Rbt.Library>
libRbt.so (2013.1, Build901 2013/11/27)

>  <Rbt.Parameter_File>
/export/apps/rDock/src/rDock_2013.1_src/data/scripts/dock_solv.prm

>  <Rbt.Receptor>
prm/pocket_docking_7.prm

>  <SCORE>
-25.2317

>  <SCORE.INTER>
-25.2317

>  <SCORE.INTER.CONST>
1

>  <SCORE.INTER.POLAR>
-1.9512

>  <SCORE.INTER.ROT>
0

>  <SCORE.INTER.SOLV>
13.1387

>  <SCORE.INTER.VDW>
-18.2967

>  <SCORE.INTER.norm>
-2.52317

>  <SCORE.INTRA>
0

>  <SCORE.INTRA.DIHEDRAL>
0

>  <SCORE.INTRA.DIHEDRAL.0>
0

>  <SCORE.INTRA.POLAR>
0

>  <SCORE.INTRA.POLAR.0>
0

>  <SCORE.INTRA.REPUL>
0

>  <SCORE.INTRA.REPUL.0>
0

>  <SCORE.INTRA.SOLV>
0

>  <SCORE.INTRA.SOLV.lig_0>
-16.9472

>  <SCORE.INTRA.VDW>
0

>  <SCORE.INTRA.VDW.0>
0

>  <SCORE.INTRA.norm>
0

>  <SCORE.RESTR>
0

>  <SCORE.RESTR.CAVITY>
0

>  <SCORE.RESTR.norm>
0

>  <SCORE.SYSTEM>
0

>  <SCORE.SYSTEM.CONST>
0

>  <SCORE.SYSTEM.DIHEDRAL>
0

>  <SCORE.SYSTEM.SOLV>
0

>  <SCORE.SYSTEM.norm>
0

>  <SCORE.heavy>
10

>  <SCORE.norm>
-2.52317

>  <RMSD>
2.410

$$$$
1y26_lig
 OpenBabel02141814133D
libRbt.so/2013.1/901 2013/11/27
 10 11  0  0  0  0  0  0  0  0999 V2000
   19.3058  -16.7732    2.6969 N   0  0  0  0  0  0  0  0  0  0  0  0
   20.0077  -16.1741    3.6621 C   0  0  0  0  0  0  0  0  0  0  0  0
   20.2567  -16.6101    4.8953 N   0  0  0  0  0  0  0  0  0  0  0  0
   19.7104  -17.8309    5.0939 C   0  0  0  0  0  0  0  0  0  0  0  0
   18.9749  -18.5710    4.1897 C   0  0  0  0  0  0  0  0  0  0  0  0
   18.7725  -17.9895    2.9345 C   0  0  0  0  0  0  0  0  0  0  0  0
   18.0687  -18.6019    1.9960 N   0  0  0  0  0  0  0  0  0  0  0  0
   18.5549  -19.7711    4.7146 N   0  0  0  0  0  0  0  0  0  0  0  0
   19.0724  -19.7556    5.9293 C   0  0  0  0  0  0  0  0  0  0  0  0
   19.7711  -18.6044    6.2224 N   0  0  0  0  0  0  0  0  0  0  0  0
  1  2  2  0  0  0  0
  2  3  1  0  0  0  0
  3  4  2  0  0  0  0
  5  4  1  0  0  0  0
  5  6  2  0  0  0  0
  6  1  1  0  0  0  0
  6  7  1  0  0  0  0
  8  5  1  0  0  0  0
  9  8  1  0  0  0  0
 10  4  1  0  0  0  0
 10  9  2  0  0  0  0
M  END
>  <CHROM.1>
19.24955337,-18.06691132,4.23235119,-1.64108577,0.99134927,2.23183220

>  <Name>
1y26_lig

>  <RI>
0

>  <Rbt.Current_Directory>
/home/afrankz/demos/rdock_decoys_rna/rnas/1y26

>  <Rbt.Executable>
rbdock ($Id: //depot/dev/client3/rdock/2013.1/src/exe/rbdock.cxx#4 $)

>  <Rbt.Library>
libRbt.so (2013.1, Build901 2013/11/27)

>  <Rbt.Parameter_File>
/export/apps/rDock/src/rDock_2013.1_src/data/scripts/dock_solv.prm

>  <Rbt.Receptor>
prm/pocket_docking_8.prm

>  <SCORE>
-25.232

>  <SCORE.INTER>
-25.232

>  <SCORE.INTER.CONST>
1

>  <SCORE.INTER.POLAR>
-1.94404

>  <SCORE.INTER.ROT>
0

>  <SCORE.INTER.SOLV>
13.1343

>  <SCORE.INTER.VDW>
-18.3193

>  <SCORE.INTER.norm>
-2.5232

>  <SCORE.INTRA>
0

>  <SCORE.INTRA.DIHEDRAL>
0

>  <SCORE.INTRA.DIHEDRAL.0>
0

>  <SCORE.INTRA.POLAR>
0

>  <SCORE.INTRA.POLAR.0>
0

>  <SCORE.INTRA.REPUL>
0

>  <SCORE.INTRA.REPUL.0>
0

>  <SCORE.INTRA.SOLV>
0

>  <SCORE.INTRA.SOLV.lig_0>
-16.9472

>  <SCORE.INTRA.VDW>
0

>  <SCORE.INTRA.VDW.0>
0

>  <SCORE.INTRA.norm>
0

>  <SCORE.RESTR>
0

>  <SCORE.RESTR.CAVITY>
0

>  <SCORE.RESTR.norm>
0

>  <SCORE.SYSTEM>
0

>  <SCORE.SYSTEM.CONST>
0

>  <SCORE.SYSTEM.DIHEDRAL>
0

>  <SCORE.SYSTEM.SOLV>
0

>  <SCORE.SYSTEM.norm>
0

>  <SCORE.heavy>
10

>  <SCORE.norm>
-2.5232

>  <RMSD>
2.410

$$$$
1y26_lig
 OpenBabel02141814133D
libRbt.so/2013.1/901 2013/11/27
 10 11  0  0  0  0  0  0  0  0999 V2000
   19.3088  -16.7741    2.6935 N   0  0  0  0  0  0  0  0  0  0  0  0
   20.0136  -16.1732    3.6555 C   0  0  0  0  0  0  0  0  0  0  0  0
   20.2647  -16.6062    4.8894 N   0  0  0  0  0  0  0  0  0  0  0  0
   19.7173  -17.8258    5.0925 C   0  0  0  0  0  0  0  0  0  0  0  0
   18.9789  -18.5674    4.1918 C   0  0  0  0  0  0  0  0  0  0  0  0
   18.7745  -17.9890    2.9355 C   0  0  0  0  0  0  0  0  0  0  0  0
   18.0679  -18.6031    2.0003 N   0  0  0  0  0  0  0  0  0  0  0  0
   18.5586  -19.7655    4.7210 N   0  0  0  0  0  0  0  0  0  0  0  0
   19.0788  -19.7474    5.9345 C   0  0  0  0  0  0  0  0  0  0  0  0
   19.7795  -18.5962    6.2229 N   0  0  0  0  0  0  0  0  0  0  0  0
  1  2  2  0  0  0  0
  2  3  1  0  0  0  0
  3  4  2  0  0  0  0
  5  4  1  0  0  0  0
  5  6  2  0  0  0  0
  6  1  1  0  0  0  0
  6  7  1  0  0  0  0
  8  5  1  0  0  0  0
  9  8  1  0  0  0  0
 10  4  1  0  0  0  0
 10  9  2  0  0  0  0
M  END
>  <CHROM.1>
19.25429929,-18.06350676,4.23255761,-1.64282159,0.98902228,2.23056531

>  <Name>
1y26_lig

>  <RI>
0

>  <Rbt.Current_Directory>
/home/afrankz/demos/rdock_decoys_rna/rnas/1y26

>  <Rbt.Executable>
rbdock ($Id: //depot/dev/client3/rdock/2013.1/src/exe/rbdock.cxx#4 $)

>  <Rbt.Library>
libRbt.so (2013.1, Build901 2013/11/27)

>  <Rbt.Parameter_File>
/export/apps/rDock/src/rDock_2013.1_src/data/scripts/dock_solv.prm

>  <Rbt.Receptor>
prm/pocket_docking_8.prm

>  <SCORE>
-25.231

>  <SCORE.INTER>
-25.231

>  <SCORE.INTER.CONST>
1

>  <SCORE.INTER.POLAR>
-1.93742

>  <SCORE.INTER.ROT>
0

>  <SCORE.INTER.SOLV>
13.1184

>  <SCORE.INTER.VDW>
-18.3354

>  <SCORE.INTER.norm>
-2.5231

>  <SCORE.INTRA>
0

>  <SCORE.INTRA.DIHEDRAL>
0

>  <SCORE.INTRA.DIHEDRAL.0>
0

>  <SCORE.INTRA.POLAR>
0

>  <SCORE.INTRA.POLAR.0>
0

>  <SCORE.INTRA.REPUL>
0

>  <SCORE.INTRA.REPUL.0>
0

>  <SCORE.INTRA.SOLV>
0

>  <SCORE.INTRA.SOLV.lig_0>
-16.9472

>  <SCORE.INTRA.VDW>
0

>  <SCORE.INTRA.VDW.0>
0

>  <SCORE.INTRA.norm>
0

>  <SCORE.RESTR>
0

>  <SCORE.RESTR.CAVITY>
0

>  <SCORE.RESTR.norm>
0

>  <SCORE.SYSTEM>
0

>  <SCORE.SYSTEM.CONST>
0

>  <SCORE.SYSTEM.DIHEDRAL>
0

>  <SCORE.SYSTEM.SOLV>
0

>  <SCORE.SYSTEM.norm>
0

>  <SCORE.heavy>
10

>  <SCORE.norm>
-2.5231

>  <RMSD>
2.410

$$$$
1y26_lig
 OpenBabel02141814133D
libRbt.so/2013.1/901 2013/11/27
 10 11  0  0  0  0  0  0  0  0999 V2000
   19.2947  -16.7637    2.6907 N   0  0  0  0  0  0  0  0  0  0  0  0
   20.0190  -16.1776    3.6472 C   0  0  0  0  0  0  0  0  0  0  0  0
   20.2795  -16.6210    4.8755 N   0  0  0  0  0  0  0  0  0  0  0  0
   19.7186  -17.8344    5.0785 C   0  0  0  0  0  0  0  0  0  0  0  0
   18.9596  -18.5611    4.1828 C   0  0  0  0  0  0  0  0  0  0  0  0
   18.7474  -17.9729    2.9324 C   0  0  0  0  0  0  0  0  0  0  0  0
   18.0214  -18.5722    2.0025 N   0  0  0  0  0  0  0  0  0  0  0  0
   18.5300  -19.7567    4.7104 N   0  0  0  0  0  0  0  0  0  0  0  0
   19.0652  -19.7524    5.9175 C   0  0  0  0  0  0  0  0  0  0  0  0
   19.7846  -18.6122    6.2037 N   0  0  0  0  0  0  0  0  0  0  0  0
  1  2  2  0  0  0  0
  2  3  1  0  0  0  0
  3  4  2  0  0  0  0
  5  4  1  0  0  0  0
  5  6  2  0  0  0  0
  6  1  1  0  0  0  0
  6  7  1  0  0  0  0
  8  5  1  0  0  0  0
  9  8  1  0  0  0  0
 10  4  1  0  0  0  0
 10  9  2  0  0  0  0
M  END
>  <CHROM.1>
19.24205855,-18.06113949,4.22300286,-1.64567539,0.97111585,2.23862525

>  <Name>
1y26_lig

>  <RI>
0

>  <Rbt.Current_Directory>
/home/afrankz/demos/rdock_decoys_rna/rnas/1y26

>  <Rbt.Executable>
rbdock ($Id: //depot/dev/client3/rdock/2013.1/src/exe/rbdock.cxx#4 $)

>  <Rbt.Library>
libRbt.so (2013.1, Build901 2013/11/27)

>  <Rbt.Parameter_File>
/export/apps/rDock/src/rDock_2013.1_src/data/scripts/dock_solv.prm

>  <Rbt.Receptor>
prm/blind_docking_40.prm

>  <SCORE>
-25.2483

>  <SCORE.INTER>
-25.2483

>  <SCORE.INTER.CONST>
1

>  <SCORE.INTER.POLAR>
-1.9651

>  <SCORE.INTER.ROT>
0

>  <SCORE.INTER.SOLV>
13.1258

>  <SCORE.INTER.VDW>
-18.2571

>  <SCORE.INTER.norm>
-2.52483

>  <SCORE.INTRA>
0

>  <SCORE.INTRA.DIHEDRAL>
0

>  <SCORE.INTRA.DIHEDRAL.0>
0

>  <SCORE.INTRA.POLAR>
0

>  <SCORE.INTRA.POLAR.0>
0

>  <SCORE.INTRA.REPUL>
0

>  <SCORE.INTRA.REPUL.0>
0

>  <SCORE.INTRA.SOLV>
0

>  <SCORE.INTRA.SOLV.lig_0>
-16.9472

>  <SCORE.INTRA.VDW>
0

>  <SCORE.INTRA.VDW.0>
0

>  <SCORE.INTRA.norm>
0

>  <SCORE.RESTR>
0

>  <SCORE.RESTR.CAVITY>
0

>  <SCORE.RESTR.norm>
0

>  <SCORE.SYSTEM>
0

>  <SCORE.SYSTEM.CONST>
0

>  <SCORE.SYSTEM.DIHEDRAL>
0

>  <SCORE.SYSTEM.SOLV>
0

>  <SCORE.SYSTEM.norm>
0

>  <SCORE.heavy>
10

>  <SCORE.norm>
-2.52483

>  <RMSD>
2.411

$$$$
1y26_lig
 OpenBabel02141814133D
libRbt.so/2013.1/901 2013/11/27
 10 11  0  0  0  0  0  0  0  0999 V2000
   19.2914  -16.7541    2.6878 N   0  0  0  0  0  0  0  0  0  0  0  0
   20.0188  -16.1678    3.6419 C   0  0  0  0  0  0  0  0  0  0  0  0
   20.2840  -16.6113    4.8691 N   0  0  0  0  0  0  0  0  0  0  0  0
   19.7246  -17.8251    5.0738 C   0  0  0  0  0  0  0  0  0  0  0  0
   18.9628  -18.5521    4.1808 C   0  0  0  0  0  0  0  0  0  0  0  0
   18.7458  -17.9638    2.9312 C   0  0  0  0  0  0  0  0  0  0  0  0
   18.0168  -18.5634    2.0038 N   0  0  0  0  0  0  0  0  0  0  0  0
   18.5359  -19.7480    4.7096 N   0  0  0  0  0  0  0  0  0  0  0  0
   19.0754  -19.7436    5.9148 C   0  0  0  0  0  0  0  0  0  0  0  0
   19.7950  -18.6030    6.1987 N   0  0  0  0  0  0  0  0  0  0  0  0
  1  2  2  0  0  0  0
  2  3  1  0  0  0  0
  3  4  2  0  0  0  0
  5  4  1  0  0  0  0
  5  6  2  0  0  0  0
  6  1  1  0  0  0  0
  6  7  1  0  0  0  0
  8  5  1  0  0  0  0
  9  8  1  0  0  0  0
 10  4  1  0  0  0  0
 10  9  2  0  0  0  0
M  END
>  <CHROM.1>
19.24508038,-18.05193026,4.22002328,-1.65129762,0.96940040,2.24345454

>  <Name>
1y26_lig

>  <RI>
0

>  <Rbt.Current_Directory>
/home/afrankz/demos/rdock_decoys_rna/rnas/1y26

>  <Rbt.Executable>
rbdock ($Id: //depot/dev/client3/rdock/2013.1/src/exe/rbdock.cxx#4 $)

>  <Rbt.Library>
libRbt.so (2013.1, Build901 2013/11/27)

>  <Rbt.Parameter_File>
/export/apps/rDock/src/rDock_2013.1_src/data/scripts/dock_solv.prm

>  <Rbt.Receptor>
prm/blind_docking_60.prm

>  <SCORE>
-25.2411

>  <SCORE.INTER>
-25.2411

>  <SCORE.INTER.CONST>
1

>  <SCORE.INTER.POLAR>
-1.95183

>  <SCORE.INTER.ROT>
0

>  <SCORE.INTER.SOLV>
13.125

>  <SCORE.INTER.VDW>
-18.2964

>  <SCORE.INTER.norm>
-2.52411

>  <SCORE.INTRA>
0

>  <SCORE.INTRA.DIHEDRAL>
0

>  <SCORE.INTRA.DIHEDRAL.0>
0

>  <SCORE.INTRA.POLAR>
0

>  <SCORE.INTRA.POLAR.0>
0

>  <SCORE.INTRA.REPUL>
0

>  <SCORE.INTRA.REPUL.0>
0

>  <SCORE.INTRA.SOLV>
0

>  <SCORE.INTRA.SOLV.lig_0>
-16.9472

>  <SCORE.INTRA.VDW>
0

>  <SCORE.INTRA.VDW.0>
0

>  <SCORE.INTRA.norm>
0

>  <SCORE.RESTR>
0

>  <SCORE.RESTR.CAVITY>
0

>  <SCORE.RESTR.norm>
0

>  <SCORE.SYSTEM>
0

>  <SCORE.SYSTEM.CONST>
0

>  <SCORE.SYSTEM.DIHEDRAL>
0

>  <SCORE.SYSTEM.SOLV>
0

>  <SCORE.SYSTEM.norm>
0

>  <SCORE.heavy>
10

>  <SCORE.norm>
-2.52411

>  <RMSD>
2.411

$$$$
1y26_lig
 OpenBabel02141814133D
libRbt.so/2013.1/901 2013/11/27
 10 11  0  0  0  0  0  0  0  0999 V2000
   19.2861  -16.7438    2.7133 N   0  0  0  0  0  0  0  0  0  0  0  0
   20.0097  -16.1598    3.6717 C   0  0  0  0  0  0  0  0  0  0  0  0
   20.2735  -16.6081    4.8974 N   0  0  0  0  0  0  0  0  0  0  0  0
   19.7170  -17.8244    5.0954 C   0  0  0  0  0  0  0  0  0  0  0  0
   18.9592  -18.5494    4.1974 C   0  0  0  0  0  0  0  0  0  0  0  0
   18.7432  -17.9560    2.9501 C   0  0  0  0  0  0  0  0  0  0  0  0
   18.0179  -18.5534    2.0183 N   0  0  0  0  0  0  0  0  0  0  0  0
   18.5344  -19.7489    4.7199 N   0  0  0  0  0  0  0  0  0  0  0  0
   19.0712  -19.7485    5.9262 C   0  0  0  0  0  0  0  0  0  0  0  0
   19.7871  -18.6072    6.2169 N   0  0  0  0  0  0  0  0  0  0  0  0
  1  2  2  0  0  0  0
  2  3  1  0  0  0  0
  3  4  2  0  0  0  0
  5  4  1  0  0  0  0
  5  6  2  0  0  0  0
  6  1  1  0  0  0  0
  6  7  1  0  0  0  0
  8  5  1  0  0  0  0
  9  8  1  0  0  0  0
 10  4  1  0  0  0  0
 10  9  2  0  0  0  0
M  END
>  <CHROM.1>
19.23997415,-18.04865727,4.23954158,-1.65132858,0.97290524,2.24803009

>  <Name>
1y26_lig

>  <RI>
0

>  <Rbt.Current_Directory>
/home/afrankz/demos/rdock_decoys_rna/rnas/1y26

>  <Rbt.Executable>
rbdock ($Id: //depot/dev/client3/rdock/2013.1/src/exe/rbdock.cxx#4 $)

>  <Rbt.Library>
libRbt.so (2013.1, Build901 2013/11/27)

>  <Rbt.Parameter_File>
/export/apps/rDock/src/rDock_2013.1_src/data/scripts/dock_solv.prm

>  <Rbt.Receptor>
prm/pocket_docking_5.prm

>  <SCORE>
-25.2256

>  <SCORE.INTER>
-25.2256

>  <SCORE.INTER.CONST>
1

>  <SCORE.INTER.POLAR>
-1.93841

>  <SCORE.INTER.ROT>
0

>  <SCORE.INTER.SOLV>
13.1469

>  <SCORE.INTER.VDW>
-18.338

>  <SCORE.INTER.norm>
-2.52256

>  <SCORE.INTRA>
0

>  <SCORE.INTRA.DIHEDRAL>
0

>  <SCORE.INTRA.DIHEDRAL.0>
0

>  <SCORE.INTRA.POLAR>
0

>  <SCORE.INTRA.POLAR.0>
0

>  <SCORE.INTRA.REPUL>
0

>  <SCORE.INTRA.REPUL.0>
0

>  <SCORE.INTRA.SOLV>
0

>  <SCORE.INTRA.SOLV.lig_0>
-16.9472

>  <SCORE.INTRA.VDW>
0

>  <SCORE.INTRA.VDW.0>
0

>  <SCORE.INTRA.norm>
0

>  <SCORE.RESTR>
0

>  <SCORE.RESTR.CAVITY>
0

>  <SCORE.RESTR.norm>
0

>  <SCORE.SYSTEM>
0

>  <SCORE.SYSTEM.CONST>
0

>  <SCORE.SYSTEM.DIHEDRAL>
0

>  <SCORE.SYSTEM.SOLV>
0

>  <SCORE.SYSTEM.norm>
0

>  <SCORE.heavy>
10

>  <SCORE.norm>
-2.52256

>  <RMSD>
2.412

$$$$
1y26_lig
 OpenBabel02141814133D
libRbt.so/2013.1/901 2013/11/27
 10 11  0  0  0  0  0  0  0  0999 V2000
   19.2888  -16.7514    2.7109 N   0  0  0  0  0  0  0  0  0  0  0  0
   20.0111  -16.1645    3.6684 C   0  0  0  0  0  0  0  0  0  0  0  0
   20.2728  -16.6088    4.8961 N   0  0  0  0  0  0  0  0  0  0  0  0
   19.7156  -17.8243    5.0972 C   0  0  0  0  0  0  0  0  0  0  0  0
   18.9590  -18.5520    4.2004 C   0  0  0  0  0  0  0  0  0  0  0  0
   18.7452  -17.9627    2.9508 C   0  0  0  0  0  0  0  0  0  0  0  0
   18.0212  -18.5629    2.0199 N   0  0  0  0  0  0  0  0  0  0  0  0
   18.5331  -19.7497    4.7262 N   0  0  0  0  0  0  0  0  0  0  0  0
   19.0681  -19.7454    5.9333 C   0  0  0  0  0  0  0  0  0  0  0  0
   19.7838  -18.6034    6.2214 N   0  0  0  0  0  0  0  0  0  0  0  0
  1  2  2  0  0  0  0
  2  3  1  0  0  0  0
  3  4  2  0  0  0  0
  5  4  1  0  0  0  0
  5  6  2  0  0  0  0
  6  1  1  0  0  0  0
  6  7  1  0  0  0  0
  8  5  1  0  0  0  0
  9  8  1  0  0  0  0
 10  4  1  0  0  0  0
 10  9  2  0  0  0  0
M  END
>  <CHROM.1>
19.23992228,-18.05121287,4.24133156,-1.64884673,0.97367088,2.24268109

>  <Name>
1y26_lig

>  <RI>
0

>  <Rbt.Current_Directory>
/home/afrankz/demos/rdock_decoys_rna/rnas/1y26

>  <Rbt.Executable>
rbdock ($Id: //depot/dev/client3/rdock/2013.1/src/exe/rbdock.cxx#4 $)

>  <Rbt.Library>
libRbt.so (2013.1, Build901 2013/11/27)

>  <Rbt.Parameter_File>
/export/apps/rDock/src/rDock_2013.1_src/data/scripts/dock_solv.prm

>  <Rbt.Receptor>
prm/pocket_docking_5.prm

>  <SCORE>
-25.2254

>  <SCORE.INTER>
-25.2254

>  <SCORE.INTER.CONST>
1

>  <SCORE.INTER.POLAR>
-1.94306

>  <SCORE.INTER.ROT>
0

>  <SCORE.INTER.SOLV>
13.1367

>  <SCORE.INTER.VDW>
-18.3189

>  <SCORE.INTER.norm>
-2.52254

>  <SCORE.INTRA>
0

>  <SCORE.INTRA.DIHEDRAL>
0

>  <SCORE.INTRA.DIHEDRAL.0>
0

>  <SCORE.INTRA.POLAR>
0

>  <SCORE.INTRA.POLAR.0>
0

>  <SCORE.INTRA.REPUL>
0

>  <SCORE.INTRA.REPUL.0>
0

>  <SCORE.INTRA.SOLV>
0

>  <SCORE.INTRA.SOLV.lig_0>
-16.9472

>  <SCORE.INTRA.VDW>
0

>  <SCORE.INTRA.VDW.0>
0

>  <SCORE.INTRA.norm>
0

>  <SCORE.RESTR>
0

>  <SCORE.RESTR.CAVITY>
0

>  <SCORE.RESTR.norm>
0

>  <SCORE.SYSTEM>
0

>  <SCORE.SYSTEM.CONST>
0

>  <SCORE.SYSTEM.DIHEDRAL>
0

>  <SCORE.SYSTEM.SOLV>
0

>  <SCORE.SYSTEM.norm>
0

>  <SCORE.heavy>
10

>  <SCORE.norm>
-2.52254

>  <RMSD>
2.412

$$$$
1y26_lig
 OpenBabel02141814133D
libRbt.so/2013.1/901 2013/11/27
 10 11  0  0  0  0  0  0  0  0999 V2000
   19.2869  -16.7510    2.7093 N   0  0  0  0  0  0  0  0  0  0  0  0
   20.0109  -16.1660    3.6667 C   0  0  0  0  0  0  0  0  0  0  0  0
   20.2735  -16.6120    4.8935 N   0  0  0  0  0  0  0  0  0  0  0  0
   19.7152  -17.8270    5.0939 C   0  0  0  0  0  0  0  0  0  0  0  0
   18.9567  -18.5529    4.1972 C   0  0  0  0  0  0  0  0  0  0  0  0
   18.7422  -17.9619    2.9485 C   0  0  0  0  0  0  0  0  0  0  0  0
   18.0164  -18.5603    2.0177 N   0  0  0  0  0  0  0  0  0  0  0  0
   18.5300  -19.7507    4.7221 N   0  0  0  0  0  0  0  0  0  0  0  0
   19.0664  -19.7484    5.9286 C   0  0  0  0  0  0  0  0  0  0  0  0
   19.7837  -18.6075    6.2172 N   0  0  0  0  0  0  0  0  0  0  0  0
  1  2  2  0  0  0  0
  2  3  1  0  0  0  0
  3  4  2  0  0  0  0
  5  4  1  0  0  0  0
  5  6  2  0  0  0  0
  6  1  1  0  0  0  0
  6  7  1  0  0  0  0
  8  5  1  0  0  0  0
  9  8  1  0  0  0  0
 10  4  1  0  0  0  0
 10  9  2  0  0  0  0
M  END
>  <CHROM.1>
19.23823544,-18.05249671,4.23834940,-1.64916179,0.97206716,2.24406803

>  <Name>
1y26_lig

>  <RI>
224

>  <Rbt.Current_Directory>
/home/afrankz/demos/rdock_decoys_rna/rnas/1y26

>  <Rbt.Executable>
rbdock ($Id: //depot/dev/client3/rdock/2013.1/src/exe/rbdock.cxx#4 $)

>  <Rbt.Library>
libRbt.so (2013.1, Build901 2013/11/27)

>  <Rbt.Parameter_File>
/export/apps/rDock/src/rDock_2013.1_src/data/scripts/dock_solv.prm

>  <Rbt.Receptor>
prm/pocket_docking_6.prm

>  <SCORE>
-25.2241

>  <SCORE.INTER>
-25.2241

>  <SCORE.INTER.CONST>
1

>  <SCORE.INTER.POLAR>
-1.94878

>  <SCORE.INTER.ROT>
0

>  <SCORE.INTER.SOLV>
13.1406

>  <SCORE.INTER.VDW>
-18.3003

>  <SCORE.INTER.norm>
-2.52241

>  <SCORE.INTRA>
0

>  <SCORE.INTRA.DIHEDRAL>
0

>  <SCORE.INTRA.DIHEDRAL.0>
0

>  <SCORE.INTRA.POLAR>
0

>  <SCORE.INTRA.POLAR.0>
0

>  <SCORE.INTRA.REPUL>
0

>  <SCORE.INTRA.REPUL.0>
0

>  <SCORE.INTRA.SOLV>
0

>  <SCORE.INTRA.SOLV.lig_0>
-16.9472

>  <SCORE.INTRA.VDW>
0

>  <SCORE.INTRA.VDW.0>
0

>  <SCORE.INTRA.norm>
0

>  <SCORE.RESTR>
0

>  <SCORE.RESTR.CAVITY>
0

>  <SCORE.RESTR.norm>
0

>  <SCORE.SYSTEM>
0

>  <SCORE.SYSTEM.CONST>
0

>  <SCORE.SYSTEM.DIHEDRAL>
0

>  <SCORE.SYSTEM.SOLV>
0

>  <SCORE.SYSTEM.norm>
0

>  <SCORE.heavy>
10

>  <SCORE.norm>
-2.52241

>  <RMSD>
2.412

$$$$
1y26_lig
 OpenBabel02141814133D
libRbt.so/2013.1/901 2013/11/27
 10 11  0  0  0  0  0  0  0  0999 V2000
   19.2880  -16.7509    2.7120 N   0  0  0  0  0  0  0  0  0  0  0  0
   20.0064  -16.1634    3.6722 C   0  0  0  0  0  0  0  0  0  0  0  0
   20.2664  -16.6088    4.8997 N   0  0  0  0  0  0  0  0  0  0  0  0
   19.7123  -17.8262    5.0978 C   0  0  0  0  0  0  0  0  0  0  0  0
   18.9599  -18.5547    4.1981 C   0  0  0  0  0  0  0  0  0  0  0  0
   18.7474  -17.9641    2.9489 C   0  0  0  0  0  0  0  0  0  0  0  0
   18.0273  -18.5650    2.0153 N   0  0  0  0  0  0  0  0  0  0  0  0
   18.5361  -19.7544    4.7210 N   0  0  0  0  0  0  0  0  0  0  0  0
   19.0682  -19.7504    5.9295 C   0  0  0  0  0  0  0  0  0  0  0  0
   19.7800  -18.6068    6.2209 N   0  0  0  0  0  0  0  0  0  0  0  0
  1  2  2  0  0  0  0
  2  3  1  0  0  0  0
  3  4  2  0  0  0  0
  5  4  1  0  0  0  0
  5  6  2  0  0  0  0
  6  1  1  0  0  0  0
  6  7  1  0  0  0  0
  8  5  1  0  0  0  0
  9  8  1  0  0  0  0
 10  4  1  0  0  0  0
 10  9  2  0  0  0  0
M  END
>  <CHROM.1>
19.23923006,-18.05318408,4.24042639,-1.64869945,0.97736926,2.24405454

>  <Name>
1y26_lig

>  <RI>
224

>  <Rbt.Current_Directory>
/home/afrankz/demos/rdock_decoys_rna/rnas/1y26

>  <Rbt.Executable>
rbdock ($Id: //depot/dev/client3/rdock/2013.1/src/exe/rbdock.cxx#4 $)

>  <Rbt.Library>
libRbt.so (2013.1, Build901 2013/11/27)

>  <Rbt.Parameter_File>
/export/apps/rDock/src/rDock_2013.1_src/data/scripts/dock_solv.prm

>  <Rbt.Receptor>
prm/pocket_docking_6.prm

>  <SCORE>
-25.2254

>  <SCORE.INTER>
-25.2254

>  <SCORE.INTER.CONST>
1

>  <SCORE.INTER.POLAR>
-1.94349

>  <SCORE.INTER.ROT>
0

>  <SCORE.INTER.SOLV>
13.1483

>  <SCORE.INTER.VDW>
-18.3214

>  <SCORE.INTER.norm>
-2.52254

>  <SCORE.INTRA>
0

>  <SCORE.INTRA.DIHEDRAL>
0

>  <SCORE.INTRA.DIHEDRAL.0>
0

>  <SCORE.INTRA.POLAR>
0

>  <SCORE.INTRA.POLAR.0>
0

>  <SCORE.INTRA.REPUL>
0

>  <SCORE.INTRA.REPUL.0>
0

>  <SCORE.INTRA.SOLV>
0

>  <SCORE.INTRA.SOLV.lig_0>
-16.9472

>  <SCORE.INTRA.VDW>
0

>  <SCORE.INTRA.VDW.0>
0

>  <SCORE.INTRA.norm>
0

>  <SCORE.RESTR>
0

>  <SCORE.RESTR.CAVITY>
0

>  <SCORE.RESTR.norm>
0

>  <SCORE.SYSTEM>
0

>  <SCORE.SYSTEM.CONST>
0

>  <SCORE.SYSTEM.DIHEDRAL>
0

>  <SCORE.SYSTEM.SOLV>
0

>  <SCORE.SYSTEM.norm>
0

>  <SCORE.heavy>
10

>  <SCORE.norm>
-2.52254

>  <RMSD>
2.412

$$$$
1y26_lig
 OpenBabel02141814133D
libRbt.so/2013.1/901 2013/11/27
 10 11  0  0  0  0  0  0  0  0999 V2000
   19.2841  -16.7511    2.7080 N   0  0  0  0  0  0  0  0  0  0  0  0
   20.0093  -16.1647    3.6637 C   0  0  0  0  0  0  0  0  0  0  0  0
   20.2745  -16.6096    4.8903 N   0  0  0  0  0  0  0  0  0  0  0  0
   19.7178  -17.8251    5.0926 C   0  0  0  0  0  0  0  0  0  0  0  0
   18.9585  -18.5523    4.1976 C   0  0  0  0  0  0  0  0  0  0  0  0
   18.7411  -17.9624    2.9489 C   0  0  0  0  0  0  0  0  0  0  0  0
   18.0143  -18.5622    2.0199 N   0  0  0  0  0  0  0  0  0  0  0  0
   18.5340  -19.7502    4.7241 N   0  0  0  0  0  0  0  0  0  0  0  0
   19.0725  -19.7466    5.9297 C   0  0  0  0  0  0  0  0  0  0  0  0
   19.7892  -18.6047    6.2162 N   0  0  0  0  0  0  0  0  0  0  0  0
  1  2  2  0  0  0  0
  2  3  1  0  0  0  0
  3  4  2  0  0  0  0
  5  4  1  0  0  0  0
  5  6  2  0  0  0  0
  6  1  1  0  0  0  0
  6  7  1  0  0  0  0
  8  5  1  0  0  0  0
  9  8  1  0  0  0  0
 10  4  1  0  0  0  0
 10  9  2  0  0  0  0
M  END
>  <CHROM.1>
19.23957870,-18.05159722,4.23797324,-1.65280384,0.97176412,2.24641347

>  <Name>
1y26_lig

>  <RI>
0

>  <Rbt.Current_Directory>
/home/afrankz/demos/rdock_decoys_rna/rnas/1y26

>  <Rbt.Executable>
rbdock ($Id: //depot/dev/client3/rdock/2013.1/src/exe/rbdock.cxx#4 $)

>  <Rbt.Library>
libRbt.so (2013.1, Build901 2013/11/27)

>  <Rbt.Parameter_File>
/export/apps/rDock/src/rDock_2013.1_src/data/scripts/dock_solv.prm

>  <Rbt.Receptor>
prm/pocket_docking_8.prm

>  <SCORE>
-25.2237

>  <SCORE.INTER>
-25.2237

>  <SCORE.INTER.CONST>
1

>  <SCORE.INTER.POLAR>
-1.94786

>  <SCORE.INTER.ROT>
0

>  <SCORE.INTER.SOLV>
13.1422

>  <SCORE.INTER.VDW>
-18.3037

>  <SCORE.INTER.norm>
-2.52237

>  <SCORE.INTRA>
0

>  <SCORE.INTRA.DIHEDRAL>
0

>  <SCORE.INTRA.DIHEDRAL.0>
0

>  <SCORE.INTRA.POLAR>
0

>  <SCORE.INTRA.POLAR.0>
0

>  <SCORE.INTRA.REPUL>
0

>  <SCORE.INTRA.REPUL.0>
0

>  <SCORE.INTRA.SOLV>
0

>  <SCORE.INTRA.SOLV.lig_0>
-16.9472

>  <SCORE.INTRA.VDW>
0

>  <SCORE.INTRA.VDW.0>
0

>  <SCORE.INTRA.norm>
0

>  <SCORE.RESTR>
0

>  <SCORE.RESTR.CAVITY>
0

>  <SCORE.RESTR.norm>
0

>  <SCORE.SYSTEM>
0

>  <SCORE.SYSTEM.CONST>
0

>  <SCORE.SYSTEM.DIHEDRAL>
0

>  <SCORE.SYSTEM.SOLV>
0

>  <SCORE.SYSTEM.norm>
0

>  <SCORE.heavy>
10

>  <SCORE.norm>
-2.52237

>  <RMSD>
2.412

$$$$
1y26_lig
 OpenBabel02141814133D
libRbt.so/2013.1/901 2013/11/27
 10 11  0  0  0  0  0  0  0  0999 V2000
   19.2862  -16.7498    2.7083 N   0  0  0  0  0  0  0  0  0  0  0  0
   20.0099  -16.1639    3.6654 C   0  0  0  0  0  0  0  0  0  0  0  0
   20.2737  -16.6097    4.8921 N   0  0  0  0  0  0  0  0  0  0  0  0
   19.7173  -17.8256    5.0925 C   0  0  0  0  0  0  0  0  0  0  0  0
   18.9595  -18.5524    4.1960 C   0  0  0  0  0  0  0  0  0  0  0  0
   18.7435  -17.9616    2.9475 C   0  0  0  0  0  0  0  0  0  0  0  0
   18.0182  -18.5609    2.0170 N   0  0  0  0  0  0  0  0  0  0  0  0
   18.5349  -19.7510    4.7209 N   0  0  0  0  0  0  0  0  0  0  0  0
   19.0718  -19.7481    5.9272 C   0  0  0  0  0  0  0  0  0  0  0  0
   19.7876  -18.6062    6.2156 N   0  0  0  0  0  0  0  0  0  0  0  0
  1  2  2  0  0  0  0
  2  3  1  0  0  0  0
  3  4  2  0  0  0  0
  5  4  1  0  0  0  0
  5  6  2  0  0  0  0
  6  1  1  0  0  0  0
  6  7  1  0  0  0  0
  8  5  1  0  0  0  0
  9  8  1  0  0  0  0
 10  4  1  0  0  0  0
 10  9  2  0  0  0  0
M  END
>  <CHROM.1>
19.24031277,-18.05161751,4.23712869,-1.65152338,0.97294508,2.24620005

>  <Name>
1y26_lig

>  <RI>
0

>  <Rbt.Current_Directory>
/home/afrankz/demos/rdock_decoys_rna/rnas/1y26

>  <Rbt.Executable>
rbdock ($Id: //depot/dev/client3/rdock/2013.1/src/exe/rbdock.cxx#4 $)

>  <Rbt.Library>
libRbt.so (2013.1, Build901 2013/11/27)

>  <Rbt.Parameter_File>
/export/apps/rDock/src/rDock_2013.1_src/data/scripts/dock_solv.prm

>  <Rbt.Receptor>
prm/pocket_docking_8.prm

>  <SCORE>
-25.2247

>  <SCORE.INTER>
-25.2247

>  <SCORE.INTER.CONST>
1

>  <SCORE.INTER.POLAR>
-1.94531

>  <SCORE.INTER.ROT>
0

>  <SCORE.INTER.SOLV>
13.1433

>  <SCORE.INTER.VDW>
-18.3132

>  <SCORE.INTER.norm>
-2.52247

>  <SCORE.INTRA>
0

>  <SCORE.INTRA.DIHEDRAL>
0

>  <SCORE.INTRA.DIHEDRAL.0>
0

>  <SCORE.INTRA.POLAR>
0

>  <SCORE.INTRA.POLAR.0>
0

>  <SCORE.INTRA.REPUL>
0

>  <SCORE.INTRA.REPUL.0>
0

>  <SCORE.INTRA.SOLV>
0

>  <SCORE.INTRA.SOLV.lig_0>
-16.9472

>  <SCORE.INTRA.VDW>
0

>  <SCORE.INTRA.VDW.0>
0

>  <SCORE.INTRA.norm>
0

>  <SCORE.RESTR>
0

>  <SCORE.RESTR.CAVITY>
0

>  <SCORE.RESTR.norm>
0

>  <SCORE.SYSTEM>
0

>  <SCORE.SYSTEM.CONST>
0

>  <SCORE.SYSTEM.DIHEDRAL>
0

>  <SCORE.SYSTEM.SOLV>
0

>  <SCORE.SYSTEM.norm>
0

>  <SCORE.heavy>
10

>  <SCORE.norm>
-2.52247

>  <RMSD>
2.412

$$$$
1y26_lig
 OpenBabel02141814133D
libRbt.so/2013.1/901 2013/11/27
 10 11  0  0  0  0  0  0  0  0999 V2000
   19.2877  -16.7503    2.7107 N   0  0  0  0  0  0  0  0  0  0  0  0
   20.0054  -16.1646    3.6724 C   0  0  0  0  0  0  0  0  0  0  0  0
   20.2651  -16.6126    4.8991 N   0  0  0  0  0  0  0  0  0  0  0  0
   19.7115  -17.8306    5.0942 C   0  0  0  0  0  0  0  0  0  0  0  0
   18.9598  -18.5575    4.1926 C   0  0  0  0  0  0  0  0  0  0  0  0
   18.7475  -17.9643    2.9446 C   0  0  0  0  0  0  0  0  0  0  0  0
   18.0281  -18.5635    2.0094 N   0  0  0  0  0  0  0  0  0  0  0  0
   18.5364  -19.7586    4.7127 N   0  0  0  0  0  0  0  0  0  0  0  0
   19.0680  -19.7571    5.9213 C   0  0  0  0  0  0  0  0  0  0  0  0
   19.7791  -18.6137    6.2156 N   0  0  0  0  0  0  0  0  0  0  0  0
  1  2  2  0  0  0  0
  2  3  1  0  0  0  0
  3  4  2  0  0  0  0
  5  4  1  0  0  0  0
  5  6  2  0  0  0  0
  6  1  1  0  0  0  0
  6  7  1  0  0  0  0
  8  5  1  0  0  0  0
  9  8  1  0  0  0  0
 10  4  1  0  0  0  0
 10  9  2  0  0  0  0
M  END
>  <CHROM.1>
19.23888649,-18.05599110,4.23613681,-1.64866847,0.97801524,2.24626064

>  <Name>
1y26_lig

>  <RI>
0

>  <Rbt.Current_Directory>
/home/afrankz/demos/rdock_decoys_rna/rnas/1y26

>  <Rbt.Executable>
rbdock ($Id: //depot/dev/client3/rdock/2013.1/src/exe/rbdock.cxx#4 $)

>  <Rbt.Library>
libRbt.so (2013.1, Build901 2013/11/27)

>  <Rbt.Parameter_File>
/export/apps/rDock/src/rDock_2013.1_src/data/scripts/dock_solv.prm

>  <Rbt.Receptor>
prm/pocket_docking_8.prm

>  <SCORE>
-25.225

>  <SCORE.INTER>
-25.225

>  <SCORE.INTER.CONST>
1

>  <SCORE.INTER.POLAR>
-1.94773

>  <SCORE.INTER.ROT>
0

>  <SCORE.INTER.SOLV>
13.1571

>  <SCORE.INTER.VDW>
-18.31

>  <SCORE.INTER.norm>
-2.5225

>  <SCORE.INTRA>
0

>  <SCORE.INTRA.DIHEDRAL>
0

>  <SCORE.INTRA.DIHEDRAL.0>
0

>  <SCORE.INTRA.POLAR>
0

>  <SCORE.INTRA.POLAR.0>
0

>  <SCORE.INTRA.REPUL>
0

>  <SCORE.INTRA.REPUL.0>
0

>  <SCORE.INTRA.SOLV>
0

>  <SCORE.INTRA.SOLV.lig_0>
-16.9472

>  <SCORE.INTRA.VDW>
0

>  <SCORE.INTRA.VDW.0>
0

>  <SCORE.INTRA.norm>
0

>  <SCORE.RESTR>
0

>  <SCORE.RESTR.CAVITY>
0

>  <SCORE.RESTR.norm>
0

>  <SCORE.SYSTEM>
0

>  <SCORE.SYSTEM.CONST>
0

>  <SCORE.SYSTEM.DIHEDRAL>
0

>  <SCORE.SYSTEM.SOLV>
0

>  <SCORE.SYSTEM.norm>
0

>  <SCORE.heavy>
10

>  <SCORE.norm>
-2.5225

>  <RMSD>
2.412

$$$$
1y26_lig
 OpenBabel02141814133D
libRbt.so/2013.1/901 2013/11/27
 10 11  0  0  0  0  0  0  0  0999 V2000
   19.2725  -16.7438    2.7132 N   0  0  0  0  0  0  0  0  0  0  0  0
   19.9992  -16.1603    3.6695 C   0  0  0  0  0  0  0  0  0  0  0  0
   20.2692  -16.6105    4.8932 N   0  0  0  0  0  0  0  0  0  0  0  0
   19.7160  -17.8283    5.0912 C   0  0  0  0  0  0  0  0  0  0  0  0
   18.9557  -18.5530    4.1951 C   0  0  0  0  0  0  0  0  0  0  0  0
   18.7331  -17.9575    2.9499 C   0  0  0  0  0  0  0  0  0  0  0  0
   18.0049  -18.5545    2.0202 N   0  0  0  0  0  0  0  0  0  0  0  0
   18.5356  -19.7544    4.7170 N   0  0  0  0  0  0  0  0  0  0  0  0
   19.0778  -19.7554    5.9209 C   0  0  0  0  0  0  0  0  0  0  0  0
   19.7927  -18.6133    6.2108 N   0  0  0  0  0  0  0  0  0  0  0  0
  1  2  2  0  0  0  0
  2  3  1  0  0  0  0
  3  4  2  0  0  0  0
  5  4  1  0  0  0  0
  5  6  2  0  0  0  0
  6  1  1  0  0  0  0
  6  7  1  0  0  0  0
  8  5  1  0  0  0  0
  9  8  1  0  0  0  0
 10  4  1  0  0  0  0
 10  9  2  0  0  0  0
M  END
>  <CHROM.1>
19.23570704,-18.05180789,4.23699835,-1.65966149,0.97166290,2.25694410

>  <Name>
1y26_lig

>  <RI>
224

>  <Rbt.Current_Directory>
/home/afrankz/demos/rdock_decoys_rna/rnas/1y26

>  <Rbt.Executable>
rbdock ($Id: //depot/dev/client3/rdock/2013.1/src/exe/rbdock.cxx#4 $)

>  <Rbt.Library>
libRbt.so (2013.1, Build901 2013/11/27)

>  <Rbt.Parameter_File>
/export/apps/rDock/src/rDock_2013.1_src/data/scripts/dock_solv.prm

>  <Rbt.Receptor>
prm/pocket_docking_6.prm

>  <SCORE>
-25.2234

>  <SCORE.INTER>
-25.2234

>  <SCORE.INTER.CONST>
1

>  <SCORE.INTER.POLAR>
-1.952

>  <SCORE.INTER.ROT>
0

>  <SCORE.INTER.SOLV>
13.1714

>  <SCORE.INTER.VDW>
-18.2994

>  <SCORE.INTER.norm>
-2.52234

>  <SCORE.INTRA>
0

>  <SCORE.INTRA.DIHEDRAL>
0

>  <SCORE.INTRA.DIHEDRAL.0>
0

>  <SCORE.INTRA.POLAR>
0

>  <SCORE.INTRA.POLAR.0>
0

>  <SCORE.INTRA.REPUL>
0

>  <SCORE.INTRA.REPUL.0>
0

>  <SCORE.INTRA.SOLV>
0

>  <SCORE.INTRA.SOLV.lig_0>
-16.9472

>  <SCORE.INTRA.VDW>
0

>  <SCORE.INTRA.VDW.0>
0

>  <SCORE.INTRA.norm>
0

>  <SCORE.RESTR>
0

>  <SCORE.RESTR.CAVITY>
0

>  <SCORE.RESTR.norm>
0

>  <SCORE.SYSTEM>
0

>  <SCORE.SYSTEM.CONST>
0

>  <SCORE.SYSTEM.DIHEDRAL>
0

>  <SCORE.SYSTEM.SOLV>
0

>  <SCORE.SYSTEM.norm>
0

>  <SCORE.heavy>
10

>  <SCORE.norm>
-2.52234

>  <RMSD>
2.413

$$$$
1y26_lig
 OpenBabel02141814133D
libRbt.so/2013.1/901 2013/11/27
 10 11  0  0  0  0  0  0  0  0999 V2000
   19.2790  -16.7403    2.7181 N   0  0  0  0  0  0  0  0  0  0  0  0
   20.0012  -16.1574    3.6781 C   0  0  0  0  0  0  0  0  0  0  0  0
   20.2664  -16.6087    4.9024 N   0  0  0  0  0  0  0  0  0  0  0  0
   19.7132  -17.8271    5.0968 C   0  0  0  0  0  0  0  0  0  0  0  0
   18.9572  -18.5513    4.1967 C   0  0  0  0  0  0  0  0  0  0  0  0
   18.7395  -17.9547    2.9512 C   0  0  0  0  0  0  0  0  0  0  0  0
   18.0156  -18.5512    2.0177 N   0  0  0  0  0  0  0  0  0  0  0  0
   18.5357  -19.7536    4.7155 N   0  0  0  0  0  0  0  0  0  0  0  0
   19.0727  -19.7555    5.9218 C   0  0  0  0  0  0  0  0  0  0  0  0
   19.7856  -18.6132    6.2158 N   0  0  0  0  0  0  0  0  0  0  0  0
  1  2  2  0  0  0  0
  2  3  1  0  0  0  0
  3  4  2  0  0  0  0
  5  4  1  0  0  0  0
  5  6  2  0  0  0  0
  6  1  1  0  0  0  0
  6  7  1  0  0  0  0
  8  5  1  0  0  0  0
  9  8  1  0  0  0  0
 10  4  1  0  0  0  0
 10  9  2  0  0  0  0
M  END
>  <CHROM.1>
19.23664006,-18.05000564,4.24029784,-1.65454832,0.97489634,2.25376972

>  <Name>
1y26_lig

>  <RI>
224

>  <Rbt.Current_Directory>
/home/afrankz/demos/rdock_decoys_rna/rnas/1y26

>  <Rbt.Executable>
rbdock ($Id: //depot/dev/client3/rdock/2013.1/src/exe/rbdock.cxx#4 $)

>  <Rbt.Library>
libRbt.so (2013.1, Build901 2013/11/27)

>  <Rbt.Parameter_File>
/export/apps/rDock/src/rDock_2013.1_src/data/scripts/dock_solv.prm

>  <Rbt.Receptor>
prm/pocket_docking_7.prm

>  <SCORE>
-25.2251

>  <SCORE.INTER>
-25.2251

>  <SCORE.INTER.CONST>
1

>  <SCORE.INTER.POLAR>
-1.9418

>  <SCORE.INTER.ROT>
0

>  <SCORE.INTER.SOLV>
13.1684

>  <SCORE.INTER.VDW>
-18.3336

>  <SCORE.INTER.norm>
-2.52251

>  <SCORE.INTRA>
0

>  <SCORE.INTRA.DIHEDRAL>
0

>  <SCORE.INTRA.DIHEDRAL.0>
0

>  <SCORE.INTRA.POLAR>
0

>  <SCORE.INTRA.POLAR.0>
0

>  <SCORE.INTRA.REPUL>
0

>  <SCORE.INTRA.REPUL.0>
0

>  <SCORE.INTRA.SOLV>
0

>  <SCORE.INTRA.SOLV.lig_0>
-16.9472

>  <SCORE.INTRA.VDW>
0

>  <SCORE.INTRA.VDW.0>
0

>  <SCORE.INTRA.norm>
0

>  <SCORE.RESTR>
0

>  <SCORE.RESTR.CAVITY>
0

>  <SCORE.RESTR.norm>
0

>  <SCORE.SYSTEM>
0

>  <SCORE.SYSTEM.CONST>
0

>  <SCORE.SYSTEM.DIHEDRAL>
0

>  <SCORE.SYSTEM.SOLV>
0

>  <SCORE.SYSTEM.norm>
0

>  <SCORE.heavy>
10

>  <SCORE.norm>
-2.52251

>  <RMSD>
2.413

$$$$
1y26_lig
 OpenBabel02141814133D
libRbt.so/2013.1/901 2013/11/27
 10 11  0  0  0  0  0  0  0  0999 V2000
   19.2542  -16.7261    2.7096 N   0  0  0  0  0  0  0  0  0  0  0  0
   20.0021  -16.1581    3.6589 C   0  0  0  0  0  0  0  0  0  0  0  0
   20.2860  -16.6208    4.8747 N   0  0  0  0  0  0  0  0  0  0  0  0
   19.7224  -17.8339    5.0721 C   0  0  0  0  0  0  0  0  0  0  0  0
   18.9403  -18.5432    4.1824 C   0  0  0  0  0  0  0  0  0  0  0  0
   18.7051  -17.9356    2.9454 C   0  0  0  0  0  0  0  0  0  0  0  0
   17.9560  -18.5173    2.0226 N   0  0  0  0  0  0  0  0  0  0  0  0
   18.5149  -19.7439    4.7016 N   0  0  0  0  0  0  0  0  0  0  0  0
   19.0756  -19.7602    5.8970 C   0  0  0  0  0  0  0  0  0  0  0  0
   19.8076  -18.6283    6.1843 N   0  0  0  0  0  0  0  0  0  0  0  0
  1  2  2  0  0  0  0
  2  3  1  0  0  0  0
  3  4  2  0  0  0  0
  5  4  1  0  0  0  0
  5  6  2  0  0  0  0
  6  1  1  0  0  0  0
  6  7  1  0  0  0  0
  8  5  1  0  0  0  0
  9  8  1  0  0  0  0
 10  4  1  0  0  0  0
 10  9  2  0  0  0  0
M  END
>  <CHROM.1>
19.22646460,-18.04542475,4.22375254,-1.66812329,0.95322134,2.27156429

>  <Name>
1y26_lig

>  <RI>
0

>  <Rbt.Current_Directory>
/home/afrankz/demos/rdock_decoys_rna/rnas/1y26

>  <Rbt.Executable>
rbdock ($Id: //depot/dev/client3/rdock/2013.1/src/exe/rbdock.cxx#4 $)

>  <Rbt.Library>
libRbt.so (2013.1, Build901 2013/11/27)

>  <Rbt.Parameter_File>
/export/apps/rDock/src/rDock_2013.1_src/data/scripts/dock_solv.prm

>  <Rbt.Receptor>
prm/pocket_docking_4.prm

>  <SCORE>
-25.2169

>  <SCORE.INTER>
-25.2169

>  <SCORE.INTER.CONST>
1

>  <SCORE.INTER.POLAR>
-1.96804

>  <SCORE.INTER.ROT>
0

>  <SCORE.INTER.SOLV>
13.1975

>  <SCORE.INTER.VDW>
-18.2503

>  <SCORE.INTER.norm>
-2.52169

>  <SCORE.INTRA>
0

>  <SCORE.INTRA.DIHEDRAL>
0

>  <SCORE.INTRA.DIHEDRAL.0>
0

>  <SCORE.INTRA.POLAR>
0

>  <SCORE.INTRA.POLAR.0>
0

>  <SCORE.INTRA.REPUL>
0

>  <SCORE.INTRA.REPUL.0>
0

>  <SCORE.INTRA.SOLV>
0

>  <SCORE.INTRA.SOLV.lig_0>
-16.9472

>  <SCORE.INTRA.VDW>
0

>  <SCORE.INTRA.VDW.0>
0

>  <SCORE.INTRA.norm>
0

>  <SCORE.RESTR>
0

>  <SCORE.RESTR.CAVITY>
0

>  <SCORE.RESTR.norm>
0

>  <SCORE.SYSTEM>
0

>  <SCORE.SYSTEM.CONST>
0

>  <SCORE.SYSTEM.DIHEDRAL>
0

>  <SCORE.SYSTEM.SOLV>
0

>  <SCORE.SYSTEM.norm>
0

>  <SCORE.heavy>
10

>  <SCORE.norm>
-2.52169

>  <RMSD>
2.414

$$$$
1y26_lig
 OpenBabel02141814133D
libRbt.so/2013.1/901 2013/11/27
 10 11  0  0  0  0  0  0  0  0999 V2000
   19.2409  -16.7235    2.7046 N   0  0  0  0  0  0  0  0  0  0  0  0
   19.9825  -16.1489    3.6549 C   0  0  0  0  0  0  0  0  0  0  0  0
   20.2726  -16.6112    4.8694 N   0  0  0  0  0  0  0  0  0  0  0  0
   19.7238  -17.8315    5.0641 C   0  0  0  0  0  0  0  0  0  0  0  0
   18.9497  -18.5479    4.1731 C   0  0  0  0  0  0  0  0  0  0  0  0
   18.7065  -17.9401    2.9377 C   0  0  0  0  0  0  0  0  0  0  0  0
   17.9639  -18.5284    2.0139 N   0  0  0  0  0  0  0  0  0  0  0  0
   18.5392  -19.7549    4.6895 N   0  0  0  0  0  0  0  0  0  0  0  0
   19.1007  -19.7674    5.8845 C   0  0  0  0  0  0  0  0  0  0  0  0
   19.8192  -18.6275    6.1743 N   0  0  0  0  0  0  0  0  0  0  0  0
  1  2  2  0  0  0  0
  2  3  1  0  0  0  0
  3  4  2  0  0  0  0
  5  4  1  0  0  0  0
  5  6  2  0  0  0  0
  6  1  1  0  0  0  0
  6  7  1  0  0  0  0
  8  5  1  0  0  0  0
  9  8  1  0  0  0  0
 10  4  1  0  0  0  0
 10  9  2  0  0  0  0
M  END
>  <CHROM.1>
19.22992345,-18.04683980,4.21550632,-1.68248796,0.96198756,2.28580886

>  <Name>
1y26_lig

>  <RI>
0

>  <Rbt.Current_Directory>
/home/afrankz/demos/rdock_decoys_rna/rnas/1y26

>  <Rbt.Executable>
rbdock ($Id: //depot/dev/client3/rdock/2013.1/src/exe/rbdock.cxx#4 $)

>  <Rbt.Library>
libRbt.so (2013.1, Build901 2013/11/27)

>  <Rbt.Parameter_File>
/export/apps/rDock/src/rDock_2013.1_src/data/scripts/dock_solv.prm

>  <Rbt.Receptor>
prm/blind_docking_100.prm

>  <SCORE>
-25.2508

>  <SCORE.INTER>
-25.2508

>  <SCORE.INTER.CONST>
1

>  <SCORE.INTER.POLAR>
-1.96835

>  <SCORE.INTER.ROT>
0

>  <SCORE.INTER.SOLV>
13.232

>  <SCORE.INTER.VDW>
-18.2834

>  <SCORE.INTER.norm>
-2.52508

>  <SCORE.INTRA>
0

>  <SCORE.INTRA.DIHEDRAL>
0

>  <SCORE.INTRA.DIHEDRAL.0>
0

>  <SCORE.INTRA.POLAR>
0

>  <SCORE.INTRA.POLAR.0>
0

>  <SCORE.INTRA.REPUL>
0

>  <SCORE.INTRA.REPUL.0>
0

>  <SCORE.INTRA.SOLV>
0

>  <SCORE.INTRA.SOLV.lig_0>
-16.9472

>  <SCORE.INTRA.VDW>
0

>  <SCORE.INTRA.VDW.0>
0

>  <SCORE.INTRA.norm>
0

>  <SCORE.RESTR>
0

>  <SCORE.RESTR.CAVITY>
0

>  <SCORE.RESTR.norm>
0

>  <SCORE.SYSTEM>
0

>  <SCORE.SYSTEM.CONST>
0

>  <SCORE.SYSTEM.DIHEDRAL>
0

>  <SCORE.SYSTEM.SOLV>
0

>  <SCORE.SYSTEM.norm>
0

>  <SCORE.heavy>
10

>  <SCORE.norm>
-2.52508

>  <RMSD>
2.415

$$$$
1y26_lig
 OpenBabel02141814133D
libRbt.so/2013.1/901 2013/11/27
 10 11  0  0  0  0  0  0  0  0999 V2000
   19.2781  -16.7331    2.7645 N   0  0  0  0  0  0  0  0  0  0  0  0
   20.0013  -16.1350    3.7144 C   0  0  0  0  0  0  0  0  0  0  0  0
   20.2619  -16.5636    4.9478 N   0  0  0  0  0  0  0  0  0  0  0  0
   19.7026  -17.7754    5.1648 C   0  0  0  0  0  0  0  0  0  0  0  0
   18.9449  -18.5135    4.2774 C   0  0  0  0  0  0  0  0  0  0  0  0
   18.7324  -17.9402    3.0201 C   0  0  0  0  0  0  0  0  0  0  0  0
   18.0076  -18.5513    2.0970 N   0  0  0  0  0  0  0  0  0  0  0  0
   18.5168  -19.7034    4.8187 N   0  0  0  0  0  0  0  0  0  0  0  0
   19.0515  -19.6843    6.0258 C   0  0  0  0  0  0  0  0  0  0  0  0
   19.7692  -18.5398    6.2991 N   0  0  0  0  0  0  0  0  0  0  0  0
  1  2  2  0  0  0  0
  2  3  1  0  0  0  0
  3  4  2  0  0  0  0
  5  4  1  0  0  0  0
  5  6  2  0  0  0  0
  6  1  1  0  0  0  0
  6  7  1  0  0  0  0
  8  5  1  0  0  0  0
  9  8  1  0  0  0  0
 10  4  1  0  0  0  0
 10  9  2  0  0  0  0
M  END
>  <CHROM.1>
19.22667455,-18.01269441,4.31181689,-1.64662871,0.97244030,2.22774946

>  <Name>
1y26_lig

>  <RI>
0

>  <Rbt.Current_Directory>
/home/afrankz/demos/rdock_decoys_rna/rnas/1y26

>  <Rbt.Executable>
rbdock ($Id: //depot/dev/client3/rdock/2013.1/src/exe/rbdock.cxx#4 $)

>  <Rbt.Library>
libRbt.so (2013.1, Build901 2013/11/27)

>  <Rbt.Parameter_File>
/export/apps/rDock/src/rDock_2013.1_src/data/scripts/dock_solv.prm

>  <Rbt.Receptor>
prm/pocket_docking_4.prm

>  <SCORE>
-25.2358

>  <SCORE.INTER>
-25.2358

>  <SCORE.INTER.CONST>
1

>  <SCORE.INTER.POLAR>
-1.889

>  <SCORE.INTER.ROT>
0

>  <SCORE.INTER.SOLV>
13.1068

>  <SCORE.INTER.VDW>
-18.4962

>  <SCORE.INTER.norm>
-2.52358

>  <SCORE.INTRA>
0

>  <SCORE.INTRA.DIHEDRAL>
0

>  <SCORE.INTRA.DIHEDRAL.0>
0

>  <SCORE.INTRA.POLAR>
0

>  <SCORE.INTRA.POLAR.0>
0

>  <SCORE.INTRA.REPUL>
0

>  <SCORE.INTRA.REPUL.0>
0

>  <SCORE.INTRA.SOLV>
0

>  <SCORE.INTRA.SOLV.lig_0>
-16.9472

>  <SCORE.INTRA.VDW>
0

>  <SCORE.INTRA.VDW.0>
0

>  <SCORE.INTRA.norm>
0

>  <SCORE.RESTR>
0

>  <SCORE.RESTR.CAVITY>
0

>  <SCORE.RESTR.norm>
0

>  <SCORE.SYSTEM>
0

>  <SCORE.SYSTEM.CONST>
0

>  <SCORE.SYSTEM.DIHEDRAL>
0

>  <SCORE.SYSTEM.SOLV>
0

>  <SCORE.SYSTEM.norm>
0

>  <SCORE.heavy>
10

>  <SCORE.norm>
-2.52358

>  <RMSD>
2.415

$$$$
1y26_lig
 OpenBabel02141814133D
libRbt.so/2013.1/901 2013/11/27
 10 11  0  0  0  0  0  0  0  0999 V2000
   19.2390  -16.7157    2.7102 N   0  0  0  0  0  0  0  0  0  0  0  0
   19.9725  -16.1383    3.6651 C   0  0  0  0  0  0  0  0  0  0  0  0
   20.2584  -16.6002    4.8807 N   0  0  0  0  0  0  0  0  0  0  0  0
   19.7147  -17.8234    5.0713 C   0  0  0  0  0  0  0  0  0  0  0  0
   18.9491  -18.5429    4.1754 C   0  0  0  0  0  0  0  0  0  0  0  0
   18.7095  -17.9352    2.9394 C   0  0  0  0  0  0  0  0  0  0  0  0
   17.9749  -18.5264    2.0110 N   0  0  0  0  0  0  0  0  0  0  0  0
   18.5418  -19.7525    4.6886 N   0  0  0  0  0  0  0  0  0  0  0  0
   19.0969  -19.7633    5.8866 C   0  0  0  0  0  0  0  0  0  0  0  0
   19.8081  -18.6201    6.1813 N   0  0  0  0  0  0  0  0  0  0  0  0
  1  2  2  0  0  0  0
  2  3  1  0  0  0  0
  3  4  2  0  0  0  0
  5  4  1  0  0  0  0
  5  6  2  0  0  0  0
  6  1  1  0  0  0  0
  6  7  1  0  0  0  0
  8  5  1  0  0  0  0
  9  8  1  0  0  0  0
 10  4  1  0  0  0  0
 10  9  2  0  0  0  0
M  END
>  <CHROM.1>
19.22650856,-18.04050746,4.21985623,-1.68108468,0.96934979,2.28556518

>  <Name>
1y26_lig

>  <RI>
0

>  <Rbt.Current_Directory>
/home/afrankz/demos/rdock_decoys_rna/rnas/1y26

>  <Rbt.Executable>
rbdock ($Id: //depot/dev/client3/rdock/2013.1/src/exe/rbdock.cxx#4 $)

>  <Rbt.Library>
libRbt.so (2013.1, Build901 2013/11/27)

>  <Rbt.Parameter_File>
/export/apps/rDock/src/rDock_2013.1_src/data/scripts/dock_solv.prm

>  <Rbt.Receptor>
prm/pocket_docking_4.prm

>  <SCORE>
-25.2502

>  <SCORE.INTER>
-25.2502

>  <SCORE.INTER.CONST>
1

>  <SCORE.INTER.POLAR>
-1.95631

>  <SCORE.INTER.ROT>
0

>  <SCORE.INTER.SOLV>
13.2449

>  <SCORE.INTER.VDW>
-18.3274

>  <SCORE.INTER.norm>
-2.52502

>  <SCORE.INTRA>
0

>  <SCORE.INTRA.DIHEDRAL>
0

>  <SCORE.INTRA.DIHEDRAL.0>
0

>  <SCORE.INTRA.POLAR>
0

>  <SCORE.INTRA.POLAR.0>
0

>  <SCORE.INTRA.REPUL>
0

>  <SCORE.INTRA.REPUL.0>
0

>  <SCORE.INTRA.SOLV>
0

>  <SCORE.INTRA.SOLV.lig_0>
-16.9472

>  <SCORE.INTRA.VDW>
0

>  <SCORE.INTRA.VDW.0>
0

>  <SCORE.INTRA.norm>
0

>  <SCORE.RESTR>
0

>  <SCORE.RESTR.CAVITY>
0

>  <SCORE.RESTR.norm>
0

>  <SCORE.SYSTEM>
0

>  <SCORE.SYSTEM.CONST>
0

>  <SCORE.SYSTEM.DIHEDRAL>
0

>  <SCORE.SYSTEM.SOLV>
0

>  <SCORE.SYSTEM.norm>
0

>  <SCORE.heavy>
10

>  <SCORE.norm>
-2.52502

>  <RMSD>
2.415

$$$$
1y26_lig
 OpenBabel02141814133D
libRbt.so/2013.1/901 2013/11/27
 10 11  0  0  0  0  0  0  0  0999 V2000
   19.2402  -16.7169    2.7078 N   0  0  0  0  0  0  0  0  0  0  0  0
   19.9771  -16.1404    3.6605 C   0  0  0  0  0  0  0  0  0  0  0  0
   20.2632  -16.6012    4.8766 N   0  0  0  0  0  0  0  0  0  0  0  0
   19.7156  -17.8222    5.0700 C   0  0  0  0  0  0  0  0  0  0  0  0
   18.9461  -18.5405    4.1766 C   0  0  0  0  0  0  0  0  0  0  0  0
   18.7068  -17.9342    2.9398 C   0  0  0  0  0  0  0  0  0  0  0  0
   17.9687  -18.5245    2.0136 N   0  0  0  0  0  0  0  0  0  0  0  0
   18.5354  -19.7478    4.6925 N   0  0  0  0  0  0  0  0  0  0  0  0
   19.0923  -19.7584    5.8897 C   0  0  0  0  0  0  0  0  0  0  0  0
   19.8079  -18.6172    6.1813 N   0  0  0  0  0  0  0  0  0  0  0  0
  1  2  2  0  0  0  0
  2  3  1  0  0  0  0
  3  4  2  0  0  0  0
  5  4  1  0  0  0  0
  5  6  2  0  0  0  0
  6  1  1  0  0  0  0
  6  7  1  0  0  0  0
  8  5  1  0  0  0  0
  9  8  1  0  0  0  0
 10  4  1  0  0  0  0
 10  9  2  0  0  0  0
M  END
>  <CHROM.1>
19.22535613,-18.03902561,4.21974593,-1.67909269,0.96574649,2.28218078

>  <Name>
1y26_lig

>  <RI>
0

>  <Rbt.Current_Directory>
/home/afrankz/demos/rdock_decoys_rna/rnas/1y26

>  <Rbt.Executable>
rbdock ($Id: //depot/dev/client3/rdock/2013.1/src/exe/rbdock.cxx#4 $)

>  <Rbt.Library>
libRbt.so (2013.1, Build901 2013/11/27)

>  <Rbt.Parameter_File>
/export/apps/rDock/src/rDock_2013.1_src/data/scripts/dock_solv.prm

>  <Rbt.Receptor>
prm/pocket_docking_5.prm

>  <SCORE>
-25.2479

>  <SCORE.INTER>
-25.2479

>  <SCORE.INTER.CONST>
1

>  <SCORE.INTER.POLAR>
-1.95848

>  <SCORE.INTER.ROT>
0

>  <SCORE.INTER.SOLV>
13.2337

>  <SCORE.INTER.VDW>
-18.3149

>  <SCORE.INTER.norm>
-2.52479

>  <SCORE.INTRA>
0

>  <SCORE.INTRA.DIHEDRAL>
0

>  <SCORE.INTRA.DIHEDRAL.0>
0

>  <SCORE.INTRA.POLAR>
0

>  <SCORE.INTRA.POLAR.0>
0

>  <SCORE.INTRA.REPUL>
0

>  <SCORE.INTRA.REPUL.0>
0

>  <SCORE.INTRA.SOLV>
0

>  <SCORE.INTRA.SOLV.lig_0>
-16.9472

>  <SCORE.INTRA.VDW>
0

>  <SCORE.INTRA.VDW.0>
0

>  <SCORE.INTRA.norm>
0

>  <SCORE.RESTR>
0

>  <SCORE.RESTR.CAVITY>
0

>  <SCORE.RESTR.norm>
0

>  <SCORE.SYSTEM>
0

>  <SCORE.SYSTEM.CONST>
0

>  <SCORE.SYSTEM.DIHEDRAL>
0

>  <SCORE.SYSTEM.SOLV>
0

>  <SCORE.SYSTEM.norm>
0

>  <SCORE.heavy>
10

>  <SCORE.norm>
-2.52479

>  <RMSD>
2.415

$$$$
1y26_lig
 OpenBabel02141814133D
libRbt.so/2013.1/901 2013/11/27
 10 11  0  0  0  0  0  0  0  0999 V2000
   19.2390  -16.7227    2.7098 N   0  0  0  0  0  0  0  0  0  0  0  0
   19.9888  -16.1529    3.6565 C   0  0  0  0  0  0  0  0  0  0  0  0
   20.2798  -16.6159    4.8706 N   0  0  0  0  0  0  0  0  0  0  0  0
   19.7220  -17.8315    5.0688 C   0  0  0  0  0  0  0  0  0  0  0  0
   18.9388  -18.5429    4.1817 C   0  0  0  0  0  0  0  0  0  0  0  0
   18.6958  -17.9347    2.9465 C   0  0  0  0  0  0  0  0  0  0  0  0
   17.9450  -18.5183    2.0263 N   0  0  0  0  0  0  0  0  0  0  0  0
   18.5206  -19.7459    4.7013 N   0  0  0  0  0  0  0  0  0  0  0  0
   19.0866  -19.7614    5.8942 C   0  0  0  0  0  0  0  0  0  0  0  0
   19.8153  -18.6270    6.1797 N   0  0  0  0  0  0  0  0  0  0  0  0
  1  2  2  0  0  0  0
  2  3  1  0  0  0  0
  3  4  2  0  0  0  0
  5  4  1  0  0  0  0
  5  6  2  0  0  0  0
  6  1  1  0  0  0  0
  6  7  1  0  0  0  0
  8  5  1  0  0  0  0
  9  8  1  0  0  0  0
 10  4  1  0  0  0  0
 10  9  2  0  0  0  0
M  END
>  <CHROM.1>
19.22318665,-18.04402716,4.22245122,-1.67838798,0.95344794,2.28117125

>  <Name>
1y26_lig

>  <RI>
0

>  <Rbt.Current_Directory>
/home/afrankz/demos/rdock_decoys_rna/rnas/1y26

>  <Rbt.Executable>
rbdock ($Id: //depot/dev/client3/rdock/2013.1/src/exe/rbdock.cxx#4 $)

>  <Rbt.Library>
libRbt.so (2013.1, Build901 2013/11/27)

>  <Rbt.Parameter_File>
/export/apps/rDock/src/rDock_2013.1_src/data/scripts/dock_solv.prm

>  <Rbt.Receptor>
prm/pocket_docking_8.prm

>  <SCORE>
-25.2675

>  <SCORE.INTER>
-25.2675

>  <SCORE.INTER.CONST>
1

>  <SCORE.INTER.POLAR>
-1.973

>  <SCORE.INTER.ROT>
0

>  <SCORE.INTER.SOLV>
13.2216

>  <SCORE.INTER.VDW>
-18.2756

>  <SCORE.INTER.norm>
-2.52675

>  <SCORE.INTRA>
0

>  <SCORE.INTRA.DIHEDRAL>
0

>  <SCORE.INTRA.DIHEDRAL.0>
0

>  <SCORE.INTRA.POLAR>
0

>  <SCORE.INTRA.POLAR.0>
0

>  <SCORE.INTRA.REPUL>
0

>  <SCORE.INTRA.REPUL.0>
0

>  <SCORE.INTRA.SOLV>
0

>  <SCORE.INTRA.SOLV.lig_0>
-16.9472

>  <SCORE.INTRA.VDW>
0

>  <SCORE.INTRA.VDW.0>
0

>  <SCORE.INTRA.norm>
0

>  <SCORE.RESTR>
0

>  <SCORE.RESTR.CAVITY>
0

>  <SCORE.RESTR.norm>
0

>  <SCORE.SYSTEM>
0

>  <SCORE.SYSTEM.CONST>
0

>  <SCORE.SYSTEM.DIHEDRAL>
0

>  <SCORE.SYSTEM.SOLV>
0

>  <SCORE.SYSTEM.norm>
0

>  <SCORE.heavy>
10

>  <SCORE.norm>
-2.52675

>  <RMSD>
2.415

$$$$
1y26_lig
 OpenBabel02141814133D
libRbt.so/2013.1/901 2013/11/27
 10 11  0  0  0  0  0  0  0  0999 V2000
   19.2942  -16.7361    2.7633 N   0  0  0  0  0  0  0  0  0  0  0  0
   20.0114  -16.1602    3.7314 C   0  0  0  0  0  0  0  0  0  0  0  0
   20.2741  -16.6227    4.9521 N   0  0  0  0  0  0  0  0  0  0  0  0
   19.7244  -17.8448    5.1326 C   0  0  0  0  0  0  0  0  0  0  0  0
   18.9738  -18.5627    4.2229 C   0  0  0  0  0  0  0  0  0  0  0  0
   18.7581  -17.9545    2.9827 C   0  0  0  0  0  0  0  0  0  0  0  0
   18.0393  -18.5442    2.0410 N   0  0  0  0  0  0  0  0  0  0  0  0
   18.5547  -19.7714    4.7284 N   0  0  0  0  0  0  0  0  0  0  0  0
   19.0879  -19.7834    5.9364 C   0  0  0  0  0  0  0  0  0  0  0  0
   19.7959  -18.6417    6.2441 N   0  0  0  0  0  0  0  0  0  0  0  0
  1  2  2  0  0  0  0
  2  3  1  0  0  0  0
  3  4  2  0  0  0  0
  5  4  1  0  0  0  0
  5  6  2  0  0  0  0
  6  1  1  0  0  0  0
  6  7  1  0  0  0  0
  8  5  1  0  0  0  0
  9  8  1  0  0  0  0
 10  4  1  0  0  0  0
 10  9  2  0  0  0  0
M  END
>  <CHROM.1>
19.25142153,-18.06086485,4.27238195,-1.65390829,0.97958475,2.26311828

>  <Name>
1y26_lig

>  <RI>
0

>  <Rbt.Current_Directory>
/home/afrankz/demos/rdock_decoys_rna/rnas/1y26

>  <Rbt.Executable>
rbdock ($Id: //depot/dev/client3/rdock/2013.1/src/exe/rbdock.cxx#4 $)

>  <Rbt.Library>
libRbt.so (2013.1, Build901 2013/11/27)

>  <Rbt.Parameter_File>
/export/apps/rDock/src/rDock_2013.1_src/data/scripts/dock_solv.prm

>  <Rbt.Receptor>
prm/blind_docking_100.prm

>  <SCORE>
-25.1892

>  <SCORE.INTER>
-25.1892

>  <SCORE.INTER.CONST>
1

>  <SCORE.INTER.POLAR>
-1.90912

>  <SCORE.INTER.ROT>
0

>  <SCORE.INTER.SOLV>
13.1898

>  <SCORE.INTER.VDW>
-18.4257

>  <SCORE.INTER.norm>
-2.51892

>  <SCORE.INTRA>
0

>  <SCORE.INTRA.DIHEDRAL>
0

>  <SCORE.INTRA.DIHEDRAL.0>
0

>  <SCORE.INTRA.POLAR>
0

>  <SCORE.INTRA.POLAR.0>
0

>  <SCORE.INTRA.REPUL>
0

>  <SCORE.INTRA.REPUL.0>
0

>  <SCORE.INTRA.SOLV>
0

>  <SCORE.INTRA.SOLV.lig_0>
-16.9472

>  <SCORE.INTRA.VDW>
0

>  <SCORE.INTRA.VDW.0>
0

>  <SCORE.INTRA.norm>
0

>  <SCORE.RESTR>
0

>  <SCORE.RESTR.CAVITY>
0

>  <SCORE.RESTR.norm>
0

>  <SCORE.SYSTEM>
0

>  <SCORE.SYSTEM.CONST>
0

>  <SCORE.SYSTEM.DIHEDRAL>
0

>  <SCORE.SYSTEM.SOLV>
0

>  <SCORE.SYSTEM.norm>
0

>  <SCORE.heavy>
10

>  <SCORE.norm>
-2.51892

>  <RMSD>
2.416

$$$$
1y26_lig
 OpenBabel02141814133D
libRbt.so/2013.1/901 2013/11/27
 10 11  0  0  0  0  0  0  0  0999 V2000
   19.2353  -16.7204    2.7120 N   0  0  0  0  0  0  0  0  0  0  0  0
   19.9816  -16.1503    3.6613 C   0  0  0  0  0  0  0  0  0  0  0  0
   20.2737  -16.6159    4.8741 N   0  0  0  0  0  0  0  0  0  0  0  0
   19.7211  -17.8346    5.0679 C   0  0  0  0  0  0  0  0  0  0  0  0
   18.9420  -18.5466    4.1778 C   0  0  0  0  0  0  0  0  0  0  0  0
   18.6973  -17.9356    2.9443 C   0  0  0  0  0  0  0  0  0  0  0  0
   17.9500  -18.5195    2.0215 N   0  0  0  0  0  0  0  0  0  0  0  0
   18.5287  -19.7532    4.6931 N   0  0  0  0  0  0  0  0  0  0  0  0
   19.0937  -19.7700    5.8864 C   0  0  0  0  0  0  0  0  0  0  0  0
   19.8170  -18.6332    6.1763 N   0  0  0  0  0  0  0  0  0  0  0  0
  1  2  2  0  0  0  0
  2  3  1  0  0  0  0
  3  4  2  0  0  0  0
  5  4  1  0  0  0  0
  5  6  2  0  0  0  0
  6  1  1  0  0  0  0
  6  7  1  0  0  0  0
  8  5  1  0  0  0  0
  9  8  1  0  0  0  0
 10  4  1  0  0  0  0
 10  9  2  0  0  0  0
M  END
>  <CHROM.1>
19.22405833,-18.04663755,4.22036814,-1.68229310,0.95743905,2.28758964

>  <Name>
1y26_lig

>  <RI>
0

>  <Rbt.Current_Directory>
/home/afrankz/demos/rdock_decoys_rna/rnas/1y26

>  <Rbt.Executable>
rbdock ($Id: //depot/dev/client3/rdock/2013.1/src/exe/rbdock.cxx#4 $)

>  <Rbt.Library>
libRbt.so (2013.1, Build901 2013/11/27)

>  <Rbt.Parameter_File>
/export/apps/rDock/src/rDock_2013.1_src/data/scripts/dock_solv.prm

>  <Rbt.Receptor>
prm/blind_docking_40.prm

>  <SCORE>
-25.271

>  <SCORE.INTER>
-25.271

>  <SCORE.INTER.CONST>
1

>  <SCORE.INTER.POLAR>
-1.97398

>  <SCORE.INTER.ROT>
0

>  <SCORE.INTER.SOLV>
13.2408

>  <SCORE.INTER.VDW>
-18.281

>  <SCORE.INTER.norm>
-2.5271

>  <SCORE.INTRA>
0

>  <SCORE.INTRA.DIHEDRAL>
0

>  <SCORE.INTRA.DIHEDRAL.0>
0

>  <SCORE.INTRA.POLAR>
0

>  <SCORE.INTRA.POLAR.0>
0

>  <SCORE.INTRA.REPUL>
0

>  <SCORE.INTRA.REPUL.0>
0

>  <SCORE.INTRA.SOLV>
0

>  <SCORE.INTRA.SOLV.lig_0>
-16.9472

>  <SCORE.INTRA.VDW>
0

>  <SCORE.INTRA.VDW.0>
0

>  <SCORE.INTRA.norm>
0

>  <SCORE.RESTR>
0

>  <SCORE.RESTR.CAVITY>
0

>  <SCORE.RESTR.norm>
0

>  <SCORE.SYSTEM>
0

>  <SCORE.SYSTEM.CONST>
0

>  <SCORE.SYSTEM.DIHEDRAL>
0

>  <SCORE.SYSTEM.SOLV>
0

>  <SCORE.SYSTEM.norm>
0

>  <SCORE.heavy>
10

>  <SCORE.norm>
-2.5271

>  <RMSD>
2.416

$$$$
1y26_lig
 OpenBabel02141814133D
libRbt.so/2013.1/901 2013/11/27
 10 11  0  0  0  0  0  0  0  0999 V2000
   19.2370  -16.7221    2.7142 N   0  0  0  0  0  0  0  0  0  0  0  0
   19.9867  -16.1522    3.6609 C   0  0  0  0  0  0  0  0  0  0  0  0
   20.2760  -16.6140    4.8758 N   0  0  0  0  0  0  0  0  0  0  0  0
   19.7161  -17.8286    5.0751 C   0  0  0  0  0  0  0  0  0  0  0  0
   18.9327  -18.5399    4.1882 C   0  0  0  0  0  0  0  0  0  0  0  0
   18.6917  -17.9330    2.9520 C   0  0  0  0  0  0  0  0  0  0  0  0
   17.9409  -18.5166    2.0318 N   0  0  0  0  0  0  0  0  0  0  0  0
   18.5123  -19.7417    4.7089 N   0  0  0  0  0  0  0  0  0  0  0  0
   19.0771  -19.7564    5.9023 C   0  0  0  0  0  0  0  0  0  0  0  0
   19.8072  -18.6227    6.1871 N   0  0  0  0  0  0  0  0  0  0  0  0
  1  2  2  0  0  0  0
  2  3  1  0  0  0  0
  3  4  2  0  0  0  0
  5  4  1  0  0  0  0
  5  6  2  0  0  0  0
  6  1  1  0  0  0  0
  6  7  1  0  0  0  0
  8  5  1  0  0  0  0
  9  8  1  0  0  0  0
 10  4  1  0  0  0  0
 10  9  2  0  0  0  0
M  END
>  <CHROM.1>
19.21780655,-18.04140699,4.22851462,-1.67551461,0.95293292,2.27753265

>  <Name>
1y26_lig

>  <RI>
0

>  <Rbt.Current_Directory>
/home/afrankz/demos/rdock_decoys_rna/rnas/1y26

>  <Rbt.Executable>
rbdock ($Id: //depot/dev/client3/rdock/2013.1/src/exe/rbdock.cxx#4 $)

>  <Rbt.Library>
libRbt.so (2013.1, Build901 2013/11/27)

>  <Rbt.Parameter_File>
/export/apps/rDock/src/rDock_2013.1_src/data/scripts/dock_solv.prm

>  <Rbt.Receptor>
prm/blind_docking_60.prm

>  <SCORE>
-25.2636

>  <SCORE.INTER>
-25.2636

>  <SCORE.INTER.CONST>
1

>  <SCORE.INTER.POLAR>
-1.97295

>  <SCORE.INTER.ROT>
0

>  <SCORE.INTER.SOLV>
13.2199

>  <SCORE.INTER.VDW>
-18.2726

>  <SCORE.INTER.norm>
-2.52636

>  <SCORE.INTRA>
0

>  <SCORE.INTRA.DIHEDRAL>
0

>  <SCORE.INTRA.DIHEDRAL.0>
0

>  <SCORE.INTRA.POLAR>
0

>  <SCORE.INTRA.POLAR.0>
0

>  <SCORE.INTRA.REPUL>
0

>  <SCORE.INTRA.REPUL.0>
0

>  <SCORE.INTRA.SOLV>
0

>  <SCORE.INTRA.SOLV.lig_0>
-16.9472

>  <SCORE.INTRA.VDW>
0

>  <SCORE.INTRA.VDW.0>
0

>  <SCORE.INTRA.norm>
0

>  <SCORE.RESTR>
0

>  <SCORE.RESTR.CAVITY>
0

>  <SCORE.RESTR.norm>
0

>  <SCORE.SYSTEM>
0

>  <SCORE.SYSTEM.CONST>
0

>  <SCORE.SYSTEM.DIHEDRAL>
0

>  <SCORE.SYSTEM.SOLV>
0

>  <SCORE.SYSTEM.norm>
0

>  <SCORE.heavy>
10

>  <SCORE.norm>
-2.52636

>  <RMSD>
2.416

$$$$
1y26_lig
 OpenBabel02141814133D
libRbt.so/2013.1/901 2013/11/27
 10 11  0  0  0  0  0  0  0  0999 V2000
   19.2351  -16.7232    2.7157 N   0  0  0  0  0  0  0  0  0  0  0  0
   19.9872  -16.1539    3.6608 C   0  0  0  0  0  0  0  0  0  0  0  0
   20.2808  -16.6171    4.8741 N   0  0  0  0  0  0  0  0  0  0  0  0
   19.7229  -17.8325    5.0735 C   0  0  0  0  0  0  0  0  0  0  0  0
   18.9374  -18.5434    4.1881 C   0  0  0  0  0  0  0  0  0  0  0  0
   18.6918  -17.9351    2.9536 C   0  0  0  0  0  0  0  0  0  0  0  0
   17.9387  -18.5182    2.0349 N   0  0  0  0  0  0  0  0  0  0  0  0
   18.5198  -19.7463    4.7086 N   0  0  0  0  0  0  0  0  0  0  0  0
   19.0885  -19.7621    5.9002 C   0  0  0  0  0  0  0  0  0  0  0  0
   19.8183  -18.6280    6.1842 N   0  0  0  0  0  0  0  0  0  0  0  0
  1  2  2  0  0  0  0
  2  3  1  0  0  0  0
  3  4  2  0  0  0  0
  5  4  1  0  0  0  0
  5  6  2  0  0  0  0
  6  1  1  0  0  0  0
  6  7  1  0  0  0  0
  8  5  1  0  0  0  0
  9  8  1  0  0  0  0
 10  4  1  0  0  0  0
 10  9  2  0  0  0  0
M  END
>  <CHROM.1>
19.22205361,-18.04467616,4.22826194,-1.68083157,0.95165065,2.28324040

>  <Name>
1y26_lig

>  <RI>
224

>  <Rbt.Current_Directory>
/home/afrankz/demos/rdock_decoys_rna/rnas/1y26

>  <Rbt.Executable>
rbdock ($Id: //depot/dev/client3/rdock/2013.1/src/exe/rbdock.cxx#4 $)

>  <Rbt.Library>
libRbt.so (2013.1, Build901 2013/11/27)

>  <Rbt.Parameter_File>
/export/apps/rDock/src/rDock_2013.1_src/data/scripts/dock_solv.prm

>  <Rbt.Receptor>
prm/pocket_docking_3.prm

>  <SCORE>
-25.268

>  <SCORE.INTER>
-25.268

>  <SCORE.INTER.CONST>
1

>  <SCORE.INTER.POLAR>
-1.97358

>  <SCORE.INTER.ROT>
0

>  <SCORE.INTER.SOLV>
13.226

>  <SCORE.INTER.VDW>
-18.2754

>  <SCORE.INTER.norm>
-2.5268

>  <SCORE.INTRA>
0

>  <SCORE.INTRA.DIHEDRAL>
0

>  <SCORE.INTRA.DIHEDRAL.0>
0

>  <SCORE.INTRA.POLAR>
0

>  <SCORE.INTRA.POLAR.0>
0

>  <SCORE.INTRA.REPUL>
0

>  <SCORE.INTRA.REPUL.0>
0

>  <SCORE.INTRA.SOLV>
0

>  <SCORE.INTRA.SOLV.lig_0>
-16.9472

>  <SCORE.INTRA.VDW>
0

>  <SCORE.INTRA.VDW.0>
0

>  <SCORE.INTRA.norm>
0

>  <SCORE.RESTR>
0

>  <SCORE.RESTR.CAVITY>
0

>  <SCORE.RESTR.norm>
0

>  <SCORE.SYSTEM>
0

>  <SCORE.SYSTEM.CONST>
0

>  <SCORE.SYSTEM.DIHEDRAL>
0

>  <SCORE.SYSTEM.SOLV>
0

>  <SCORE.SYSTEM.norm>
0

>  <SCORE.heavy>
10

>  <SCORE.norm>
-2.5268

>  <RMSD>
2.416

$$$$
1y26_lig
 OpenBabel02141814133D
libRbt.so/2013.1/901 2013/11/27
 10 11  0  0  0  0  0  0  0  0999 V2000
   19.2282  -16.7102    2.7223 N   0  0  0  0  0  0  0  0  0  0  0  0
   19.9703  -16.1386    3.6741 C   0  0  0  0  0  0  0  0  0  0  0  0
   20.2592  -16.6036    4.8878 N   0  0  0  0  0  0  0  0  0  0  0  0
   19.7082  -17.8234    5.0799 C   0  0  0  0  0  0  0  0  0  0  0  0
   18.9334  -18.5369    4.1872 C   0  0  0  0  0  0  0  0  0  0  0  0
   18.6917  -17.9264    2.9529 C   0  0  0  0  0  0  0  0  0  0  0  0
   17.9486  -18.5118    2.0276 N   0  0  0  0  0  0  0  0  0  0  0  0
   18.5207  -19.7443    4.7012 N   0  0  0  0  0  0  0  0  0  0  0  0
   19.0817  -19.7600    5.8964 C   0  0  0  0  0  0  0  0  0  0  0  0
   19.8019  -18.6218    6.1886 N   0  0  0  0  0  0  0  0  0  0  0  0
  1  2  2  0  0  0  0
  2  3  1  0  0  0  0
  3  4  2  0  0  0  0
  5  4  1  0  0  0  0
  5  6  2  0  0  0  0
  6  1  1  0  0  0  0
  6  7  1  0  0  0  0
  8  5  1  0  0  0  0
  9  8  1  0  0  0  0
 10  4  1  0  0  0  0
 10  9  2  0  0  0  0
M  END
>  <CHROM.1>
19.21441089,-18.03639096,4.23069904,-1.68003983,0.96106415,2.28570331

>  <Name>
1y26_lig

>  <RI>
0

>  <Rbt.Current_Directory>
/home/afrankz/demos/rdock_decoys_rna/rnas/1y26

>  <Rbt.Executable>
rbdock ($Id: //depot/dev/client3/rdock/2013.1/src/exe/rbdock.cxx#4 $)

>  <Rbt.Library>
libRbt.so (2013.1, Build901 2013/11/27)

>  <Rbt.Parameter_File>
/export/apps/rDock/src/rDock_2013.1_src/data/scripts/dock_solv.prm

>  <Rbt.Receptor>
prm/pocket_docking_4.prm

>  <SCORE>
-25.2589

>  <SCORE.INTER>
-25.2589

>  <SCORE.INTER.CONST>
1

>  <SCORE.INTER.POLAR>
-1.96355

>  <SCORE.INTER.ROT>
0

>  <SCORE.INTER.SOLV>
13.2548

>  <SCORE.INTER.VDW>
-18.3123

>  <SCORE.INTER.norm>
-2.52589

>  <SCORE.INTRA>
0

>  <SCORE.INTRA.DIHEDRAL>
0

>  <SCORE.INTRA.DIHEDRAL.0>
0

>  <SCORE.INTRA.POLAR>
0

>  <SCORE.INTRA.POLAR.0>
0

>  <SCORE.INTRA.REPUL>
0

>  <SCORE.INTRA.REPUL.0>
0

>  <SCORE.INTRA.SOLV>
0

>  <SCORE.INTRA.SOLV.lig_0>
-16.9472

>  <SCORE.INTRA.VDW>
0

>  <SCORE.INTRA.VDW.0>
0

>  <SCORE.INTRA.norm>
0

>  <SCORE.RESTR>
0

>  <SCORE.RESTR.CAVITY>
0

>  <SCORE.RESTR.norm>
0

>  <SCORE.SYSTEM>
0

>  <SCORE.SYSTEM.CONST>
0

>  <SCORE.SYSTEM.DIHEDRAL>
0

>  <SCORE.SYSTEM.SOLV>
0

>  <SCORE.SYSTEM.norm>
0

>  <SCORE.heavy>
10

>  <SCORE.norm>
-2.52589

>  <RMSD>
2.416

$$$$
1y26_lig
 OpenBabel02141814133D
libRbt.so/2013.1/901 2013/11/27
 10 11  0  0  0  0  0  0  0  0999 V2000
   19.2318  -16.7175    2.7253 N   0  0  0  0  0  0  0  0  0  0  0  0
   19.9735  -16.1435    3.6758 C   0  0  0  0  0  0  0  0  0  0  0  0
   20.2627  -16.6058    4.8906 N   0  0  0  0  0  0  0  0  0  0  0  0
   19.7127  -17.8256    5.0851 C   0  0  0  0  0  0  0  0  0  0  0  0
   18.9384  -18.5414    4.1939 C   0  0  0  0  0  0  0  0  0  0  0  0
   18.6963  -17.9337    2.9584 C   0  0  0  0  0  0  0  0  0  0  0  0
   17.9535  -18.5215    2.0343 N   0  0  0  0  0  0  0  0  0  0  0  0
   18.5266  -19.7481    4.7104 N   0  0  0  0  0  0  0  0  0  0  0  0
   19.0877  -19.7609    5.9056 C   0  0  0  0  0  0  0  0  0  0  0  0
   19.8070  -18.6216    6.1955 N   0  0  0  0  0  0  0  0  0  0  0  0
  1  2  2  0  0  0  0
  2  3  1  0  0  0  0
  3  4  2  0  0  0  0
  5  4  1  0  0  0  0
  5  6  2  0  0  0  0
  6  1  1  0  0  0  0
  6  7  1  0  0  0  0
  8  5  1  0  0  0  0
  9  8  1  0  0  0  0
 10  4  1  0  0  0  0
 10  9  2  0  0  0  0
M  END
>  <CHROM.1>
19.21903495,-18.04064052,4.23639350,-1.68092934,0.96161816,2.28438544

>  <Name>
1y26_lig

>  <RI>
0

>  <Rbt.Current_Directory>
/home/afrankz/demos/rdock_decoys_rna/rnas/1y26

>  <Rbt.Executable>
rbdock ($Id: //depot/dev/client3/rdock/2013.1/src/exe/rbdock.cxx#4 $)

>  <Rbt.Library>
libRbt.so (2013.1, Build901 2013/11/27)

>  <Rbt.Parameter_File>
/export/apps/rDock/src/rDock_2013.1_src/data/scripts/dock_solv.prm

>  <Rbt.Receptor>
prm/pocket_docking_4.prm

>  <SCORE>
-25.2537

>  <SCORE.INTER>
-25.2537

>  <SCORE.INTER.CONST>
1

>  <SCORE.INTER.POLAR>
-1.96214

>  <SCORE.INTER.ROT>
0

>  <SCORE.INTER.SOLV>
13.243

>  <SCORE.INTER.VDW>
-18.3096

>  <SCORE.INTER.norm>
-2.52537

>  <SCORE.INTRA>
0

>  <SCORE.INTRA.DIHEDRAL>
0

>  <SCORE.INTRA.DIHEDRAL.0>
0

>  <SCORE.INTRA.POLAR>
0

>  <SCORE.INTRA.POLAR.0>
0

>  <SCORE.INTRA.REPUL>
0

>  <SCORE.INTRA.REPUL.0>
0

>  <SCORE.INTRA.SOLV>
0

>  <SCORE.INTRA.SOLV.lig_0>
-16.9472

>  <SCORE.INTRA.VDW>
0

>  <SCORE.INTRA.VDW.0>
0

>  <SCORE.INTRA.norm>
0

>  <SCORE.RESTR>
0

>  <SCORE.RESTR.CAVITY>
0

>  <SCORE.RESTR.norm>
0

>  <SCORE.SYSTEM>
0

>  <SCORE.SYSTEM.CONST>
0

>  <SCORE.SYSTEM.DIHEDRAL>
0

>  <SCORE.SYSTEM.SOLV>
0

>  <SCORE.SYSTEM.norm>
0

>  <SCORE.heavy>
10

>  <SCORE.norm>
-2.52537

>  <RMSD>
2.416

$$$$
1y26_lig
 OpenBabel02141814133D
libRbt.so/2013.1/901 2013/11/27
 10 11  0  0  0  0  0  0  0  0999 V2000
   19.2373  -16.7129    2.7133 N   0  0  0  0  0  0  0  0  0  0  0  0
   19.9833  -16.1380    3.6600 C   0  0  0  0  0  0  0  0  0  0  0  0
   20.2796  -16.6002    4.8731 N   0  0  0  0  0  0  0  0  0  0  0  0
   19.7322  -17.8208    5.0703 C   0  0  0  0  0  0  0  0  0  0  0  0
   18.9542  -18.5375    4.1831 C   0  0  0  0  0  0  0  0  0  0  0  0
   18.7047  -17.9298    2.9490 C   0  0  0  0  0  0  0  0  0  0  0  0
   17.9578  -18.5185    2.0287 N   0  0  0  0  0  0  0  0  0  0  0  0
   18.5468  -19.7448    4.7015 N   0  0  0  0  0  0  0  0  0  0  0  0
   19.1141  -19.7571    5.8937 C   0  0  0  0  0  0  0  0  0  0  0  0
   19.8335  -18.6168    6.1800 N   0  0  0  0  0  0  0  0  0  0  0  0
  1  2  2  0  0  0  0
  2  3  1  0  0  0  0
  3  4  2  0  0  0  0
  5  4  1  0  0  0  0
  5  6  2  0  0  0  0
  6  1  1  0  0  0  0
  6  7  1  0  0  0  0
  8  5  1  0  0  0  0
  9  8  1  0  0  0  0
 10  4  1  0  0  0  0
 10  9  2  0  0  0  0
M  END
>  <CHROM.1>
19.23435099,-18.03634086,4.22417196,-1.68945121,0.95914872,2.29154914

>  <Name>
1y26_lig

>  <RI>
0

>  <Rbt.Current_Directory>
/home/afrankz/demos/rdock_decoys_rna/rnas/1y26

>  <Rbt.Executable>
rbdock ($Id: //depot/dev/client3/rdock/2013.1/src/exe/rbdock.cxx#4 $)

>  <Rbt.Library>
libRbt.so (2013.1, Build901 2013/11/27)

>  <Rbt.Parameter_File>
/export/apps/rDock/src/rDock_2013.1_src/data/scripts/dock_solv.prm

>  <Rbt.Receptor>
prm/pocket_docking_5.prm

>  <SCORE>
-25.2128

>  <SCORE.INTER>
-25.2128

>  <SCORE.INTER.CONST>
1

>  <SCORE.INTER.POLAR>
-1.94552

>  <SCORE.INTER.ROT>
0

>  <SCORE.INTER.SOLV>
13.2339

>  <SCORE.INTER.VDW>
-18.3348

>  <SCORE.INTER.norm>
-2.52128

>  <SCORE.INTRA>
0

>  <SCORE.INTRA.DIHEDRAL>
0

>  <SCORE.INTRA.DIHEDRAL.0>
0

>  <SCORE.INTRA.POLAR>
0

>  <SCORE.INTRA.POLAR.0>
0

>  <SCORE.INTRA.REPUL>
0

>  <SCORE.INTRA.REPUL.0>
0

>  <SCORE.INTRA.SOLV>
0

>  <SCORE.INTRA.SOLV.lig_0>
-16.9472

>  <SCORE.INTRA.VDW>
0

>  <SCORE.INTRA.VDW.0>
0

>  <SCORE.INTRA.norm>
0

>  <SCORE.RESTR>
0

>  <SCORE.RESTR.CAVITY>
0

>  <SCORE.RESTR.norm>
0

>  <SCORE.SYSTEM>
0

>  <SCORE.SYSTEM.CONST>
0

>  <SCORE.SYSTEM.DIHEDRAL>
0

>  <SCORE.SYSTEM.SOLV>
0

>  <SCORE.SYSTEM.norm>
0

>  <SCORE.heavy>
10

>  <SCORE.norm>
-2.52128

>  <RMSD>
2.416

$$$$
1y26_lig
 OpenBabel02141814133D
libRbt.so/2013.1/901 2013/11/27
 10 11  0  0  0  0  0  0  0  0999 V2000
   19.2363  -16.7219    2.7157 N   0  0  0  0  0  0  0  0  0  0  0  0
   19.9827  -16.1535    3.6659 C   0  0  0  0  0  0  0  0  0  0  0  0
   20.2734  -16.6205    4.8785 N   0  0  0  0  0  0  0  0  0  0  0  0
   19.7193  -17.8387    5.0710 C   0  0  0  0  0  0  0  0  0  0  0  0
   18.9399  -18.5490    4.1798 C   0  0  0  0  0  0  0  0  0  0  0  0
   18.6967  -17.9367    2.9467 C   0  0  0  0  0  0  0  0  0  0  0  0
   17.9493  -18.5190    2.0229 N   0  0  0  0  0  0  0  0  0  0  0  0
   18.5249  -19.7556    4.6938 N   0  0  0  0  0  0  0  0  0  0  0  0
   19.0891  -19.7741    5.8875 C   0  0  0  0  0  0  0  0  0  0  0  0
   19.8135  -18.6383    6.1788 N   0  0  0  0  0  0  0  0  0  0  0  0
  1  2  2  0  0  0  0
  2  3  1  0  0  0  0
  3  4  2  0  0  0  0
  5  4  1  0  0  0  0
  5  6  2  0  0  0  0
  6  1  1  0  0  0  0
  6  7  1  0  0  0  0
  8  5  1  0  0  0  0
  9  8  1  0  0  0  0
 10  4  1  0  0  0  0
 10  9  2  0  0  0  0
M  END
>  <CHROM.1>
19.22252446,-18.04943017,4.22296480,-1.68013985,0.95698724,2.28666640

>  <Name>
1y26_lig

>  <RI>
224

>  <Rbt.Current_Directory>
/home/afrankz/demos/rdock_decoys_rna/rnas/1y26

>  <Rbt.Executable>
rbdock ($Id: //depot/dev/client3/rdock/2013.1/src/exe/rbdock.cxx#4 $)

>  <Rbt.Library>
libRbt.so (2013.1, Build901 2013/11/27)

>  <Rbt.Parameter_File>
/export/apps/rDock/src/rDock_2013.1_src/data/scripts/dock_solv.prm

>  <Rbt.Receptor>
prm/pocket_docking_7.prm

>  <SCORE>
-25.2746

>  <SCORE.INTER>
-25.2746

>  <SCORE.INTER.CONST>
1

>  <SCORE.INTER.POLAR>
-1.97759

>  <SCORE.INTER.ROT>
0

>  <SCORE.INTER.SOLV>
13.2419

>  <SCORE.INTER.VDW>
-18.2717

>  <SCORE.INTER.norm>
-2.52746

>  <SCORE.INTRA>
0

>  <SCORE.INTRA.DIHEDRAL>
0

>  <SCORE.INTRA.DIHEDRAL.0>
0

>  <SCORE.INTRA.POLAR>
0

>  <SCORE.INTRA.POLAR.0>
0

>  <SCORE.INTRA.REPUL>
0

>  <SCORE.INTRA.REPUL.0>
0

>  <SCORE.INTRA.SOLV>
0

>  <SCORE.INTRA.SOLV.lig_0>
-16.9472

>  <SCORE.INTRA.VDW>
0

>  <SCORE.INTRA.VDW.0>
0

>  <SCORE.INTRA.norm>
0

>  <SCORE.RESTR>
0

>  <SCORE.RESTR.CAVITY>
0

>  <SCORE.RESTR.norm>
0

>  <SCORE.SYSTEM>
0

>  <SCORE.SYSTEM.CONST>
0

>  <SCORE.SYSTEM.DIHEDRAL>
0

>  <SCORE.SYSTEM.SOLV>
0

>  <SCORE.SYSTEM.norm>
0

>  <SCORE.heavy>
10

>  <SCORE.norm>
-2.52746

>  <RMSD>
2.416

$$$$
1y26_lig
 OpenBabel02141814133D
libRbt.so/2013.1/901 2013/11/27
 10 11  0  0  0  0  0  0  0  0999 V2000
   19.2354  -16.7245    2.7151 N   0  0  0  0  0  0  0  0  0  0  0  0
   19.9837  -16.1552    3.6633 C   0  0  0  0  0  0  0  0  0  0  0  0
   20.2741  -16.6195    4.8770 N   0  0  0  0  0  0  0  0  0  0  0  0
   19.7174  -17.8360    5.0731 C   0  0  0  0  0  0  0  0  0  0  0  0
   18.9358  -18.5470    4.1843 C   0  0  0  0  0  0  0  0  0  0  0  0
   18.6932  -17.9374    2.9497 C   0  0  0  0  0  0  0  0  0  0  0  0
   17.9439  -18.5205    2.0280 N   0  0  0  0  0  0  0  0  0  0  0  0
   18.5184  -19.7512    4.7019 N   0  0  0  0  0  0  0  0  0  0  0  0
   19.0833  -19.7677    5.8952 C   0  0  0  0  0  0  0  0  0  0  0  0
   19.8105  -18.6329    6.1830 N   0  0  0  0  0  0  0  0  0  0  0  0
  1  2  2  0  0  0  0
  2  3  1  0  0  0  0
  3  4  2  0  0  0  0
  5  4  1  0  0  0  0
  5  6  2  0  0  0  0
  6  1  1  0  0  0  0
  6  7  1  0  0  0  0
  8  5  1  0  0  0  0
  9  8  1  0  0  0  0
 10  4  1  0  0  0  0
 10  9  2  0  0  0  0
M  END
>  <CHROM.1>
19.21961087,-18.04789402,4.22596129,-1.67840462,0.95485330,2.28254830

>  <Name>
1y26_lig

>  <RI>
0

>  <Rbt.Current_Directory>
/home/afrankz/demos/rdock_decoys_rna/rnas/1y26

>  <Rbt.Executable>
rbdock ($Id: //depot/dev/client3/rdock/2013.1/src/exe/rbdock.cxx#4 $)

>  <Rbt.Library>
libRbt.so (2013.1, Build901 2013/11/27)

>  <Rbt.Parameter_File>
/export/apps/rDock/src/rDock_2013.1_src/data/scripts/dock_solv.prm

>  <Rbt.Receptor>
prm/pocket_docking_8.prm

>  <SCORE>
-25.271

>  <SCORE.INTER>
-25.271

>  <SCORE.INTER.CONST>
1

>  <SCORE.INTER.POLAR>
-1.97974

>  <SCORE.INTER.ROT>
0

>  <SCORE.INTER.SOLV>
13.2324

>  <SCORE.INTER.VDW>
-18.259

>  <SCORE.INTER.norm>
-2.5271

>  <SCORE.INTRA>
0

>  <SCORE.INTRA.DIHEDRAL>
0

>  <SCORE.INTRA.DIHEDRAL.0>
0

>  <SCORE.INTRA.POLAR>
0

>  <SCORE.INTRA.POLAR.0>
0

>  <SCORE.INTRA.REPUL>
0

>  <SCORE.INTRA.REPUL.0>
0

>  <SCORE.INTRA.SOLV>
0

>  <SCORE.INTRA.SOLV.lig_0>
-16.9472

>  <SCORE.INTRA.VDW>
0

>  <SCORE.INTRA.VDW.0>
0

>  <SCORE.INTRA.norm>
0

>  <SCORE.RESTR>
0

>  <SCORE.RESTR.CAVITY>
0

>  <SCORE.RESTR.norm>
0

>  <SCORE.SYSTEM>
0

>  <SCORE.SYSTEM.CONST>
0

>  <SCORE.SYSTEM.DIHEDRAL>
0

>  <SCORE.SYSTEM.SOLV>
0

>  <SCORE.SYSTEM.norm>
0

>  <SCORE.heavy>
10

>  <SCORE.norm>
-2.5271

>  <RMSD>
2.416

$$$$
1y26_lig
 OpenBabel02141814133D
libRbt.so/2013.1/901 2013/11/27
 10 11  0  0  0  0  0  0  0  0999 V2000
   19.2333  -16.7434    2.7228 N   0  0  0  0  0  0  0  0  0  0  0  0
   19.9645  -16.1602    3.6759 C   0  0  0  0  0  0  0  0  0  0  0  0
   20.2474  -16.6147    4.8950 N   0  0  0  0  0  0  0  0  0  0  0  0
   19.7032  -17.8368    5.0916 C   0  0  0  0  0  0  0  0  0  0  0  0
   18.9398  -18.5617    4.1983 C   0  0  0  0  0  0  0  0  0  0  0  0
   18.7032  -17.9615    2.9580 C   0  0  0  0  0  0  0  0  0  0  0  0
   17.9708  -18.5583    2.0314 N   0  0  0  0  0  0  0  0  0  0  0  0
   18.5313  -19.7681    4.7178 N   0  0  0  0  0  0  0  0  0  0  0  0
   19.0835  -19.7717    5.9172 C   0  0  0  0  0  0  0  0  0  0  0  0
   19.7939  -18.6267    6.2066 N   0  0  0  0  0  0  0  0  0  0  0  0
  1  2  2  0  0  0  0
  2  3  1  0  0  0  0
  3  4  2  0  0  0  0
  5  4  1  0  0  0  0
  5  6  2  0  0  0  0
  6  1  1  0  0  0  0
  6  7  1  0  0  0  0
  8  5  1  0  0  0  0
  9  8  1  0  0  0  0
 10  4  1  0  0  0  0
 10  9  2  0  0  0  0
M  END
>  <CHROM.1>
19.21712438,-18.05900929,4.24035698,-1.67785279,0.97093129,2.27685424

>  <Name>
1y26_lig

>  <RI>
0

>  <Rbt.Current_Directory>
/home/afrankz/demos/rdock_decoys_rna/rnas/1y26

>  <Rbt.Executable>
rbdock ($Id: //depot/dev/client3/rdock/2013.1/src/exe/rbdock.cxx#4 $)

>  <Rbt.Library>
libRbt.so (2013.1, Build901 2013/11/27)

>  <Rbt.Parameter_File>
/export/apps/rDock/src/rDock_2013.1_src/data/scripts/dock_solv.prm

>  <Rbt.Receptor>
prm/pocket_docking_8.prm

>  <SCORE>
-25.2231

>  <SCORE.INTER>
-25.2231

>  <SCORE.INTER.CONST>
1

>  <SCORE.INTER.POLAR>
-1.98791

>  <SCORE.INTER.ROT>
0

>  <SCORE.INTER.SOLV>
13.2395

>  <SCORE.INTER.VDW>
-18.2022

>  <SCORE.INTER.norm>
-2.52231

>  <SCORE.INTRA>
0

>  <SCORE.INTRA.DIHEDRAL>
0

>  <SCORE.INTRA.DIHEDRAL.0>
0

>  <SCORE.INTRA.POLAR>
0

>  <SCORE.INTRA.POLAR.0>
0

>  <SCORE.INTRA.REPUL>
0

>  <SCORE.INTRA.REPUL.0>
0

>  <SCORE.INTRA.SOLV>
0

>  <SCORE.INTRA.SOLV.lig_0>
-16.9472

>  <SCORE.INTRA.VDW>
0

>  <SCORE.INTRA.VDW.0>
0

>  <SCORE.INTRA.norm>
0

>  <SCORE.RESTR>
0

>  <SCORE.RESTR.CAVITY>
0

>  <SCORE.RESTR.norm>
0

>  <SCORE.SYSTEM>
0

>  <SCORE.SYSTEM.CONST>
0

>  <SCORE.SYSTEM.DIHEDRAL>
0

>  <SCORE.SYSTEM.SOLV>
0

>  <SCORE.SYSTEM.norm>
0

>  <SCORE.heavy>
10

>  <SCORE.norm>
-2.52231

>  <RMSD>
2.416

$$$$
1y26_lig
 OpenBabel02141814133D
libRbt.so/2013.1/901 2013/11/27
 10 11  0  0  0  0  0  0  0  0999 V2000
   19.2276  -16.7359    2.7357 N   0  0  0  0  0  0  0  0  0  0  0  0
   19.9499  -16.1463    3.6915 C   0  0  0  0  0  0  0  0  0  0  0  0
   20.2352  -16.5998    4.9105 N   0  0  0  0  0  0  0  0  0  0  0  0
   19.7045  -17.8284    5.1036 C   0  0  0  0  0  0  0  0  0  0  0  0
   18.9514  -18.5602    4.2072 C   0  0  0  0  0  0  0  0  0  0  0  0
   18.7108  -17.9604    2.9675 C   0  0  0  0  0  0  0  0  0  0  0  0
   17.9874  -18.5638    2.0381 N   0  0  0  0  0  0  0  0  0  0  0  0
   18.5554  -19.7722    4.7235 N   0  0  0  0  0  0  0  0  0  0  0  0
   19.1050  -19.7717    5.9242 C   0  0  0  0  0  0  0  0  0  0  0  0
   19.8017  -18.6193    6.2174 N   0  0  0  0  0  0  0  0  0  0  0  0
  1  2  2  0  0  0  0
  2  3  1  0  0  0  0
  3  4  2  0  0  0  0
  5  4  1  0  0  0  0
  5  6  2  0  0  0  0
  6  1  1  0  0  0  0
  6  7  1  0  0  0  0
  8  5  1  0  0  0  0
  9  8  1  0  0  0  0
 10  4  1  0  0  0  0
 10  9  2  0  0  0  0
M  END
>  <CHROM.1>
19.22289236,-18.05449554,4.25082049,-1.68800111,0.98101997,2.28711556

>  <Name>
1y26_lig

>  <RI>
0

>  <Rbt.Current_Directory>
/home/afrankz/demos/rdock_decoys_rna/rnas/1y26

>  <Rbt.Executable>
rbdock ($Id: //depot/dev/client3/rdock/2013.1/src/exe/rbdock.cxx#4 $)

>  <Rbt.Library>
libRbt.so (2013.1, Build901 2013/11/27)

>  <Rbt.Parameter_File>
/export/apps/rDock/src/rDock_2013.1_src/data/scripts/dock_solv.prm

>  <Rbt.Receptor>
prm/blind_docking_100.prm

>  <SCORE>
-25.1896

>  <SCORE.INTER>
-25.1896

>  <SCORE.INTER.CONST>
1

>  <SCORE.INTER.POLAR>
-1.96471

>  <SCORE.INTER.ROT>
0

>  <SCORE.INTER.SOLV>
13.2651

>  <SCORE.INTER.VDW>
-18.2657

>  <SCORE.INTER.norm>
-2.51896

>  <SCORE.INTRA>
0

>  <SCORE.INTRA.DIHEDRAL>
0

>  <SCORE.INTRA.DIHEDRAL.0>
0

>  <SCORE.INTRA.POLAR>
0

>  <SCORE.INTRA.POLAR.0>
0

>  <SCORE.INTRA.REPUL>
0

>  <SCORE.INTRA.REPUL.0>
0

>  <SCORE.INTRA.SOLV>
0

>  <SCORE.INTRA.SOLV.lig_0>
-16.9472

>  <SCORE.INTRA.VDW>
0

>  <SCORE.INTRA.VDW.0>
0

>  <SCORE.INTRA.norm>
0

>  <SCORE.RESTR>
0

>  <SCORE.RESTR.CAVITY>
0

>  <SCORE.RESTR.norm>
0

>  <SCORE.SYSTEM>
0

>  <SCORE.SYSTEM.CONST>
0

>  <SCORE.SYSTEM.DIHEDRAL>
0

>  <SCORE.SYSTEM.SOLV>
0

>  <SCORE.SYSTEM.norm>
0

>  <SCORE.heavy>
10

>  <SCORE.norm>
-2.51896

>  <RMSD>
2.417

$$$$
1y26_lig
 OpenBabel02141814133D
libRbt.so/2013.1/901 2013/11/27
 10 11  0  0  0  0  0  0  0  0999 V2000
   19.2347  -16.7236    2.7198 N   0  0  0  0  0  0  0  0  0  0  0  0
   19.9850  -16.1571    3.6681 C   0  0  0  0  0  0  0  0  0  0  0  0
   20.2796  -16.6259    4.8790 N   0  0  0  0  0  0  0  0  0  0  0  0
   19.7251  -17.8439    5.0719 C   0  0  0  0  0  0  0  0  0  0  0  0
   18.9419  -18.5524    4.1826 C   0  0  0  0  0  0  0  0  0  0  0  0
   18.6949  -17.9383    2.9512 C   0  0  0  0  0  0  0  0  0  0  0  0
   17.9437  -18.5187    2.0293 N   0  0  0  0  0  0  0  0  0  0  0  0
   18.5277  -19.7592    4.6965 N   0  0  0  0  0  0  0  0  0  0  0  0
   19.0961  -19.7797    5.8882 C   0  0  0  0  0  0  0  0  0  0  0  0
   19.8226  -18.6450    6.1783 N   0  0  0  0  0  0  0  0  0  0  0  0
  1  2  2  0  0  0  0
  2  3  1  0  0  0  0
  3  4  2  0  0  0  0
  5  4  1  0  0  0  0
  5  6  2  0  0  0  0
  6  1  1  0  0  0  0
  6  7  1  0  0  0  0
  8  5  1  0  0  0  0
  9  8  1  0  0  0  0
 10  4  1  0  0  0  0
 10  9  2  0  0  0  0
M  END
>  <CHROM.1>
19.22514352,-18.05308169,4.22539812,-1.68376937,0.95397612,2.29091702

>  <Name>
1y26_lig

>  <RI>
0

>  <Rbt.Current_Directory>
/home/afrankz/demos/rdock_decoys_rna/rnas/1y26

>  <Rbt.Executable>
rbdock ($Id: //depot/dev/client3/rdock/2013.1/src/exe/rbdock.cxx#4 $)

>  <Rbt.Library>
libRbt.so (2013.1, Build901 2013/11/27)

>  <Rbt.Parameter_File>
/export/apps/rDock/src/rDock_2013.1_src/data/scripts/dock_solv.prm

>  <Rbt.Receptor>
prm/blind_docking_100.prm

>  <SCORE>
-25.2382

>  <SCORE.INTER>
-25.2382

>  <SCORE.INTER.CONST>
1

>  <SCORE.INTER.POLAR>
-1.97951

>  <SCORE.INTER.ROT>
0

>  <SCORE.INTER.SOLV>
13.2457

>  <SCORE.INTER.VDW>
-18.2424

>  <SCORE.INTER.norm>
-2.52382

>  <SCORE.INTRA>
0

>  <SCORE.INTRA.DIHEDRAL>
0

>  <SCORE.INTRA.DIHEDRAL.0>
0

>  <SCORE.INTRA.POLAR>
0

>  <SCORE.INTRA.POLAR.0>
0

>  <SCORE.INTRA.REPUL>
0

>  <SCORE.INTRA.REPUL.0>
0

>  <SCORE.INTRA.SOLV>
0

>  <SCORE.INTRA.SOLV.lig_0>
-16.9472

>  <SCORE.INTRA.VDW>
0

>  <SCORE.INTRA.VDW.0>
0

>  <SCORE.INTRA.norm>
0

>  <SCORE.RESTR>
0

>  <SCORE.RESTR.CAVITY>
0

>  <SCORE.RESTR.norm>
0

>  <SCORE.SYSTEM>
0

>  <SCORE.SYSTEM.CONST>
0

>  <SCORE.SYSTEM.DIHEDRAL>
0

>  <SCORE.SYSTEM.SOLV>
0

>  <SCORE.SYSTEM.norm>
0

>  <SCORE.heavy>
10

>  <SCORE.norm>
-2.52382

>  <RMSD>
2.417

$$$$
1y26_lig
 OpenBabel02141814133D
libRbt.so/2013.1/901 2013/11/27
 10 11  0  0  0  0  0  0  0  0999 V2000
   19.2278  -16.7097    2.7333 N   0  0  0  0  0  0  0  0  0  0  0  0
   19.9564  -16.1344    3.6932 C   0  0  0  0  0  0  0  0  0  0  0  0
   20.2395  -16.6010    4.9077 N   0  0  0  0  0  0  0  0  0  0  0  0
   19.6988  -17.8267    5.0909 C   0  0  0  0  0  0  0  0  0  0  0  0
   18.9383  -18.5443    4.1892 C   0  0  0  0  0  0  0  0  0  0  0  0
   18.7011  -17.9318    2.9551 C   0  0  0  0  0  0  0  0  0  0  0  0
   17.9713  -18.5209    2.0216 N   0  0  0  0  0  0  0  0  0  0  0  0
   18.5330  -19.7574    4.6955 N   0  0  0  0  0  0  0  0  0  0  0  0
   19.0841  -19.7720    5.8953 C   0  0  0  0  0  0  0  0  0  0  0  0
   19.7909  -18.6280    6.1975 N   0  0  0  0  0  0  0  0  0  0  0  0
  1  2  2  0  0  0  0
  2  3  1  0  0  0  0
  3  4  2  0  0  0  0
  5  4  1  0  0  0  0
  5  6  2  0  0  0  0
  6  1  1  0  0  0  0
  6  7  1  0  0  0  0
  8  5  1  0  0  0  0
  9  8  1  0  0  0  0
 10  4  1  0  0  0  0
 10  9  2  0  0  0  0
M  END
>  <CHROM.1>
19.21413488,-18.04132811,4.23682861,-1.68005439,0.97378478,2.28924740

>  <Name>
1y26_lig

>  <RI>
0

>  <Rbt.Current_Directory>
/home/afrankz/demos/rdock_decoys_rna/rnas/1y26

>  <Rbt.Executable>
rbdock ($Id: //depot/dev/client3/rdock/2013.1/src/exe/rbdock.cxx#4 $)

>  <Rbt.Library>
libRbt.so (2013.1, Build901 2013/11/27)

>  <Rbt.Parameter_File>
/export/apps/rDock/src/rDock_2013.1_src/data/scripts/dock_solv.prm

>  <Rbt.Receptor>
prm/blind_docking_40.prm

>  <SCORE>
-25.2405

>  <SCORE.INTER>
-25.2405

>  <SCORE.INTER.CONST>
1

>  <SCORE.INTER.POLAR>
-1.95869

>  <SCORE.INTER.ROT>
0

>  <SCORE.INTER.SOLV>
13.2783

>  <SCORE.INTER.VDW>
-18.3241

>  <SCORE.INTER.norm>
-2.52405

>  <SCORE.INTRA>
0

>  <SCORE.INTRA.DIHEDRAL>
0

>  <SCORE.INTRA.DIHEDRAL.0>
0

>  <SCORE.INTRA.POLAR>
0

>  <SCORE.INTRA.POLAR.0>
0

>  <SCORE.INTRA.REPUL>
0

>  <SCORE.INTRA.REPUL.0>
0

>  <SCORE.INTRA.SOLV>
0

>  <SCORE.INTRA.SOLV.lig_0>
-16.9472

>  <SCORE.INTRA.VDW>
0

>  <SCORE.INTRA.VDW.0>
0

>  <SCORE.INTRA.norm>
0

>  <SCORE.RESTR>
0

>  <SCORE.RESTR.CAVITY>
0

>  <SCORE.RESTR.norm>
0

>  <SCORE.SYSTEM>
0

>  <SCORE.SYSTEM.CONST>
0

>  <SCORE.SYSTEM.DIHEDRAL>
0

>  <SCORE.SYSTEM.SOLV>
0

>  <SCORE.SYSTEM.norm>
0

>  <SCORE.heavy>
10

>  <SCORE.norm>
-2.52405

>  <RMSD>
2.417

$$$$
1y26_lig
 OpenBabel02141814133D
libRbt.so/2013.1/901 2013/11/27
 10 11  0  0  0  0  0  0  0  0999 V2000
   19.2322  -16.7218    2.7210 N   0  0  0  0  0  0  0  0  0  0  0  0
   19.9819  -16.1533    3.6685 C   0  0  0  0  0  0  0  0  0  0  0  0
   20.2743  -16.6187    4.8813 N   0  0  0  0  0  0  0  0  0  0  0  0
   19.7180  -17.8353    5.0773 C   0  0  0  0  0  0  0  0  0  0  0  0
   18.9350  -18.5455    4.1891 C   0  0  0  0  0  0  0  0  0  0  0  0
   18.6904  -17.9349    2.9554 C   0  0  0  0  0  0  0  0  0  0  0  0
   17.9396  -18.5172    2.0344 N   0  0  0  0  0  0  0  0  0  0  0  0
   18.5184  -19.7502    4.7063 N   0  0  0  0  0  0  0  0  0  0  0  0
   19.0853  -19.7678    5.8987 C   0  0  0  0  0  0  0  0  0  0  0  0
   19.8129  -18.6331    6.1863 N   0  0  0  0  0  0  0  0  0  0  0  0
  1  2  2  0  0  0  0
  2  3  1  0  0  0  0
  3  4  2  0  0  0  0
  5  4  1  0  0  0  0
  5  6  2  0  0  0  0
  6  1  1  0  0  0  0
  6  7  1  0  0  0  0
  8  5  1  0  0  0  0
  9  8  1  0  0  0  0
 10  4  1  0  0  0  0
 10  9  2  0  0  0  0
M  END
>  <CHROM.1>
19.21882432,-18.04649744,4.23072604,-1.68051285,0.95384020,2.28514295

>  <Name>
1y26_lig

>  <RI>
224

>  <Rbt.Current_Directory>
/home/afrankz/demos/rdock_decoys_rna/rnas/1y26

>  <Rbt.Executable>
rbdock ($Id: //depot/dev/client3/rdock/2013.1/src/exe/rbdock.cxx#4 $)

>  <Rbt.Library>
libRbt.so (2013.1, Build901 2013/11/27)

>  <Rbt.Parameter_File>
/export/apps/rDock/src/rDock_2013.1_src/data/scripts/dock_solv.prm

>  <Rbt.Receptor>
prm/blind_docking_80.prm

>  <SCORE>
-25.2698

>  <SCORE.INTER>
-25.2698

>  <SCORE.INTER.CONST>
1

>  <SCORE.INTER.POLAR>
-1.97647

>  <SCORE.INTER.ROT>
0

>  <SCORE.INTER.SOLV>
13.2396

>  <SCORE.INTER.VDW>
-18.2715

>  <SCORE.INTER.norm>
-2.52698

>  <SCORE.INTRA>
0

>  <SCORE.INTRA.DIHEDRAL>
0

>  <SCORE.INTRA.DIHEDRAL.0>
0

>  <SCORE.INTRA.POLAR>
0

>  <SCORE.INTRA.POLAR.0>
0

>  <SCORE.INTRA.REPUL>
0

>  <SCORE.INTRA.REPUL.0>
0

>  <SCORE.INTRA.SOLV>
0

>  <SCORE.INTRA.SOLV.lig_0>
-16.9472

>  <SCORE.INTRA.VDW>
0

>  <SCORE.INTRA.VDW.0>
0

>  <SCORE.INTRA.norm>
0

>  <SCORE.RESTR>
0

>  <SCORE.RESTR.CAVITY>
0

>  <SCORE.RESTR.norm>
0

>  <SCORE.SYSTEM>
0

>  <SCORE.SYSTEM.CONST>
0

>  <SCORE.SYSTEM.DIHEDRAL>
0

>  <SCORE.SYSTEM.SOLV>
0

>  <SCORE.SYSTEM.norm>
0

>  <SCORE.heavy>
10

>  <SCORE.norm>
-2.52698

>  <RMSD>
2.417

$$$$
1y26_lig
 OpenBabel02141814133D
libRbt.so/2013.1/901 2013/11/27
 10 11  0  0  0  0  0  0  0  0999 V2000
   19.2318  -16.7131    2.7200 N   0  0  0  0  0  0  0  0  0  0  0  0
   19.9735  -16.1444    3.6737 C   0  0  0  0  0  0  0  0  0  0  0  0
   20.2653  -16.6149    4.8847 N   0  0  0  0  0  0  0  0  0  0  0  0
   19.7179  -17.8372    5.0712 C   0  0  0  0  0  0  0  0  0  0  0  0
   18.9439  -18.5481    4.1758 C   0  0  0  0  0  0  0  0  0  0  0  0
   18.6989  -17.9319    2.9450 C   0  0  0  0  0  0  0  0  0  0  0  0
   17.9561  -18.5145    2.0177 N   0  0  0  0  0  0  0  0  0  0  0  0
   18.5351  -19.7592    4.6841 N   0  0  0  0  0  0  0  0  0  0  0  0
   19.0977  -19.7796    5.8785 C   0  0  0  0  0  0  0  0  0  0  0  0
   19.8152  -18.6410    6.1757 N   0  0  0  0  0  0  0  0  0  0  0  0
  1  2  2  0  0  0  0
  2  3  1  0  0  0  0
  3  4  2  0  0  0  0
  5  4  1  0  0  0  0
  5  6  2  0  0  0  0
  6  1  1  0  0  0  0
  6  7  1  0  0  0  0
  8  5  1  0  0  0  0
  9  8  1  0  0  0  0
 10  4  1  0  0  0  0
 10  9  2  0  0  0  0
M  END
>  <CHROM.1>
19.22355717,-18.04707569,4.22154731,-1.68490587,0.96223629,2.29485595

>  <Name>
1y26_lig

>  <RI>
0

>  <Rbt.Current_Directory>
/home/afrankz/demos/rdock_decoys_rna/rnas/1y26

>  <Rbt.Executable>
rbdock ($Id: //depot/dev/client3/rdock/2013.1/src/exe/rbdock.cxx#4 $)

>  <Rbt.Library>
libRbt.so (2013.1, Build901 2013/11/27)

>  <Rbt.Parameter_File>
/export/apps/rDock/src/rDock_2013.1_src/data/scripts/dock_solv.prm

>  <Rbt.Receptor>
prm/pocket_docking_5.prm

>  <SCORE>
-25.27

>  <SCORE.INTER>
-25.27

>  <SCORE.INTER.CONST>
1

>  <SCORE.INTER.POLAR>
-1.9696

>  <SCORE.INTER.ROT>
0

>  <SCORE.INTER.SOLV>
13.2674

>  <SCORE.INTER.VDW>
-18.3038

>  <SCORE.INTER.norm>
-2.527

>  <SCORE.INTRA>
0

>  <SCORE.INTRA.DIHEDRAL>
0

>  <SCORE.INTRA.DIHEDRAL.0>
0

>  <SCORE.INTRA.POLAR>
0

>  <SCORE.INTRA.POLAR.0>
0

>  <SCORE.INTRA.REPUL>
0

>  <SCORE.INTRA.REPUL.0>
0

>  <SCORE.INTRA.SOLV>
0

>  <SCORE.INTRA.SOLV.lig_0>
-16.9472

>  <SCORE.INTRA.VDW>
0

>  <SCORE.INTRA.VDW.0>
0

>  <SCORE.INTRA.norm>
0

>  <SCORE.RESTR>
0

>  <SCORE.RESTR.CAVITY>
0

>  <SCORE.RESTR.norm>
0

>  <SCORE.SYSTEM>
0

>  <SCORE.SYSTEM.CONST>
0

>  <SCORE.SYSTEM.DIHEDRAL>
0

>  <SCORE.SYSTEM.SOLV>
0

>  <SCORE.SYSTEM.norm>
0

>  <SCORE.heavy>
10

>  <SCORE.norm>
-2.527

>  <RMSD>
2.417

$$$$
1y26_lig
 OpenBabel02141814133D
libRbt.so/2013.1/901 2013/11/27
 10 11  0  0  0  0  0  0  0  0999 V2000
   19.2334  -16.7222    2.7209 N   0  0  0  0  0  0  0  0  0  0  0  0
   19.9813  -16.1544    3.6703 C   0  0  0  0  0  0  0  0  0  0  0  0
   20.2723  -16.6212    4.8829 N   0  0  0  0  0  0  0  0  0  0  0  0
   19.7166  -17.8386    5.0764 C   0  0  0  0  0  0  0  0  0  0  0  0
   18.9356  -18.5482    4.1861 C   0  0  0  0  0  0  0  0  0  0  0  0
   18.6923  -17.9361    2.9529 C   0  0  0  0  0  0  0  0  0  0  0  0
   17.9434  -18.5178    2.0299 N   0  0  0  0  0  0  0  0  0  0  0  0
   18.5193  -19.7539    4.7010 N   0  0  0  0  0  0  0  0  0  0  0  0
   19.0843  -19.7726    5.8942 C   0  0  0  0  0  0  0  0  0  0  0  0
   19.8105  -18.6378    6.1845 N   0  0  0  0  0  0  0  0  0  0  0  0
  1  2  2  0  0  0  0
  2  3  1  0  0  0  0
  3  4  2  0  0  0  0
  5  4  1  0  0  0  0
  5  6  2  0  0  0  0
  6  1  1  0  0  0  0
  6  7  1  0  0  0  0
  8  5  1  0  0  0  0
  9  8  1  0  0  0  0
 10  4  1  0  0  0  0
 10  9  2  0  0  0  0
M  END
>  <CHROM.1>
19.21893115,-18.04897573,4.22879917,-1.67952362,0.95544755,2.28568541

>  <Name>
1y26_lig

>  <RI>
0

>  <Rbt.Current_Directory>
/home/afrankz/demos/rdock_decoys_rna/rnas/1y26

>  <Rbt.Executable>
rbdock ($Id: //depot/dev/client3/rdock/2013.1/src/exe/rbdock.cxx#4 $)

>  <Rbt.Library>
libRbt.so (2013.1, Build901 2013/11/27)

>  <Rbt.Parameter_File>
/export/apps/rDock/src/rDock_2013.1_src/data/scripts/dock_solv.prm

>  <Rbt.Receptor>
prm/pocket_docking_5.prm

>  <SCORE>
-25.2725

>  <SCORE.INTER>
-25.2725

>  <SCORE.INTER.CONST>
1

>  <SCORE.INTER.POLAR>
-1.97909

>  <SCORE.INTER.ROT>
0

>  <SCORE.INTER.SOLV>
13.2435

>  <SCORE.INTER.VDW>
-18.2659

>  <SCORE.INTER.norm>
-2.52725

>  <SCORE.INTRA>
0

>  <SCORE.INTRA.DIHEDRAL>
0

>  <SCORE.INTRA.DIHEDRAL.0>
0

>  <SCORE.INTRA.POLAR>
0

>  <SCORE.INTRA.POLAR.0>
0

>  <SCORE.INTRA.REPUL>
0

>  <SCORE.INTRA.REPUL.0>
0

>  <SCORE.INTRA.SOLV>
0

>  <SCORE.INTRA.SOLV.lig_0>
-16.9472

>  <SCORE.INTRA.VDW>
0

>  <SCORE.INTRA.VDW.0>
0

>  <SCORE.INTRA.norm>
0

>  <SCORE.RESTR>
0

>  <SCORE.RESTR.CAVITY>
0

>  <SCORE.RESTR.norm>
0

>  <SCORE.SYSTEM>
0

>  <SCORE.SYSTEM.CONST>
0

>  <SCORE.SYSTEM.DIHEDRAL>
0

>  <SCORE.SYSTEM.SOLV>
0

>  <SCORE.SYSTEM.norm>
0

>  <SCORE.heavy>
10

>  <SCORE.norm>
-2.52725

>  <RMSD>
2.417

$$$$
1y26_lig
 OpenBabel02141814133D
libRbt.so/2013.1/901 2013/11/27
 10 11  0  0  0  0  0  0  0  0999 V2000
   19.2266  -16.7219    2.7173 N   0  0  0  0  0  0  0  0  0  0  0  0
   19.9701  -16.1505    3.6680 C   0  0  0  0  0  0  0  0  0  0  0  0
   20.2609  -16.6157    4.8812 N   0  0  0  0  0  0  0  0  0  0  0  0
   19.7103  -17.8355    5.0740 C   0  0  0  0  0  0  0  0  0  0  0  0
   18.9340  -18.5488    4.1824 C   0  0  0  0  0  0  0  0  0  0  0  0
   18.6904  -17.9381    2.9486 C   0  0  0  0  0  0  0  0  0  0  0  0
   17.9458  -18.5233    2.0244 N   0  0  0  0  0  0  0  0  0  0  0  0
   18.5220  -19.7562    4.6969 N   0  0  0  0  0  0  0  0  0  0  0  0
   19.0849  -19.7721    5.8912 C   0  0  0  0  0  0  0  0  0  0  0  0
   19.8056  -18.6340    6.1825 N   0  0  0  0  0  0  0  0  0  0  0  0
  1  2  2  0  0  0  0
  2  3  1  0  0  0  0
  3  4  2  0  0  0  0
  5  4  1  0  0  0  0
  5  6  2  0  0  0  0
  6  1  1  0  0  0  0
  6  7  1  0  0  0  0
  8  5  1  0  0  0  0
  9  8  1  0  0  0  0
 10  4  1  0  0  0  0
 10  9  2  0  0  0  0
M  END
>  <CHROM.1>
19.21507022,-18.04831640,4.22553262,-1.68207140,0.96000216,2.28750935

>  <Name>
1y26_lig

>  <RI>
0

>  <Rbt.Current_Directory>
/home/afrankz/demos/rdock_decoys_rna/rnas/1y26

>  <Rbt.Executable>
rbdock ($Id: //depot/dev/client3/rdock/2013.1/src/exe/rbdock.cxx#4 $)

>  <Rbt.Library>
libRbt.so (2013.1, Build901 2013/11/27)

>  <Rbt.Parameter_File>
/export/apps/rDock/src/rDock_2013.1_src/data/scripts/dock_solv.prm

>  <Rbt.Receptor>
prm/pocket_docking_8.prm

>  <SCORE>
-25.2655

>  <SCORE.INTER>
-25.2655

>  <SCORE.INTER.CONST>
1

>  <SCORE.INTER.POLAR>
-1.98387

>  <SCORE.INTER.ROT>
0

>  <SCORE.INTER.SOLV>
13.2554

>  <SCORE.INTER.VDW>
-18.2492

>  <SCORE.INTER.norm>
-2.52655

>  <SCORE.INTRA>
0

>  <SCORE.INTRA.DIHEDRAL>
0

>  <SCORE.INTRA.DIHEDRAL.0>
0

>  <SCORE.INTRA.POLAR>
0

>  <SCORE.INTRA.POLAR.0>
0

>  <SCORE.INTRA.REPUL>
0

>  <SCORE.INTRA.REPUL.0>
0

>  <SCORE.INTRA.SOLV>
0

>  <SCORE.INTRA.SOLV.lig_0>
-16.9472

>  <SCORE.INTRA.VDW>
0

>  <SCORE.INTRA.VDW.0>
0

>  <SCORE.INTRA.norm>
0

>  <SCORE.RESTR>
0

>  <SCORE.RESTR.CAVITY>
0

>  <SCORE.RESTR.norm>
0

>  <SCORE.SYSTEM>
0

>  <SCORE.SYSTEM.CONST>
0

>  <SCORE.SYSTEM.DIHEDRAL>
0

>  <SCORE.SYSTEM.SOLV>
0

>  <SCORE.SYSTEM.norm>
0

>  <SCORE.heavy>
10

>  <SCORE.norm>
-2.52655

>  <RMSD>
2.417

$$$$
1y26_lig
 OpenBabel02141814133D
libRbt.so/2013.1/901 2013/11/27
 10 11  0  0  0  0  0  0  0  0999 V2000
   19.2193  -16.7125    2.7217 N   0  0  0  0  0  0  0  0  0  0  0  0
   19.9651  -16.1397    3.6698 C   0  0  0  0  0  0  0  0  0  0  0  0
   20.2628  -16.6055    4.8812 N   0  0  0  0  0  0  0  0  0  0  0  0
   19.7173  -17.8275    5.0747 C   0  0  0  0  0  0  0  0  0  0  0  0
   18.9396  -18.5423    4.1856 C   0  0  0  0  0  0  0  0  0  0  0  0
   18.6884  -17.9309    2.9537 C   0  0  0  0  0  0  0  0  0  0  0  0
   17.9418  -18.5175    2.0320 N   0  0  0  0  0  0  0  0  0  0  0  0
   18.5341  -19.7519    4.7003 N   0  0  0  0  0  0  0  0  0  0  0  0
   19.1023  -19.7673    5.8921 C   0  0  0  0  0  0  0  0  0  0  0  0
   19.8203  -18.6271    6.1817 N   0  0  0  0  0  0  0  0  0  0  0  0
  1  2  2  0  0  0  0
  2  3  1  0  0  0  0
  3  4  2  0  0  0  0
  5  4  1  0  0  0  0
  5  6  2  0  0  0  0
  6  1  1  0  0  0  0
  6  7  1  0  0  0  0
  8  5  1  0  0  0  0
  9  8  1  0  0  0  0
 10  4  1  0  0  0  0
 10  9  2  0  0  0  0
M  END
>  <CHROM.1>
19.21911077,-18.04091363,4.22819801,-1.69184549,0.95972452,2.29683849

>  <Name>
1y26_lig

>  <RI>
0

>  <Rbt.Current_Directory>
/home/afrankz/demos/rdock_decoys_rna/rnas/1y26

>  <Rbt.Executable>
rbdock ($Id: //depot/dev/client3/rdock/2013.1/src/exe/rbdock.cxx#4 $)

>  <Rbt.Library>
libRbt.so (2013.1, Build901 2013/11/27)

>  <Rbt.Parameter_File>
/export/apps/rDock/src/rDock_2013.1_src/data/scripts/dock_solv.prm

>  <Rbt.Receptor>
prm/pocket_docking_8.prm

>  <SCORE>
-25.2576

>  <SCORE.INTER>
-25.2576

>  <SCORE.INTER.CONST>
1

>  <SCORE.INTER.POLAR>
-1.96835

>  <SCORE.INTER.ROT>
0

>  <SCORE.INTER.SOLV>
13.2703

>  <SCORE.INTER.VDW>
-18.3007

>  <SCORE.INTER.norm>
-2.52576

>  <SCORE.INTRA>
0

>  <SCORE.INTRA.DIHEDRAL>
0

>  <SCORE.INTRA.DIHEDRAL.0>
0

>  <SCORE.INTRA.POLAR>
0

>  <SCORE.INTRA.POLAR.0>
0

>  <SCORE.INTRA.REPUL>
0

>  <SCORE.INTRA.REPUL.0>
0

>  <SCORE.INTRA.SOLV>
0

>  <SCORE.INTRA.SOLV.lig_0>
-16.9472

>  <SCORE.INTRA.VDW>
0

>  <SCORE.INTRA.VDW.0>
0

>  <SCORE.INTRA.norm>
0

>  <SCORE.RESTR>
0

>  <SCORE.RESTR.CAVITY>
0

>  <SCORE.RESTR.norm>
0

>  <SCORE.SYSTEM>
0

>  <SCORE.SYSTEM.CONST>
0

>  <SCORE.SYSTEM.DIHEDRAL>
0

>  <SCORE.SYSTEM.SOLV>
0

>  <SCORE.SYSTEM.norm>
0

>  <SCORE.heavy>
10

>  <SCORE.norm>
-2.52576

>  <RMSD>
2.417

$$$$
1y26_lig
 OpenBabel02141814133D
libRbt.so/2013.1/901 2013/11/27
 10 11  0  0  0  0  0  0  0  0999 V2000
   19.2213  -16.7111    2.7266 N   0  0  0  0  0  0  0  0  0  0  0  0
   19.9658  -16.1401    3.6767 C   0  0  0  0  0  0  0  0  0  0  0  0
   20.2603  -16.6071    4.8883 N   0  0  0  0  0  0  0  0  0  0  0  0
   19.7126  -17.8284    5.0799 C   0  0  0  0  0  0  0  0  0  0  0  0
   18.9358  -18.5415    4.1887 C   0  0  0  0  0  0  0  0  0  0  0  0
   18.6882  -17.9289    2.9566 C   0  0  0  0  0  0  0  0  0  0  0  0
   17.9427  -18.5138    2.0330 N   0  0  0  0  0  0  0  0  0  0  0  0
   18.5276  -19.7508    4.7017 N   0  0  0  0  0  0  0  0  0  0  0  0
   19.0932  -19.7679    5.8947 C   0  0  0  0  0  0  0  0  0  0  0  0
   19.8122  -18.6289    6.1866 N   0  0  0  0  0  0  0  0  0  0  0  0
  1  2  2  0  0  0  0
  2  3  1  0  0  0  0
  3  4  2  0  0  0  0
  5  4  1  0  0  0  0
  5  6  2  0  0  0  0
  6  1  1  0  0  0  0
  6  7  1  0  0  0  0
  8  5  1  0  0  0  0
  9  8  1  0  0  0  0
 10  4  1  0  0  0  0
 10  9  2  0  0  0  0
M  END
>  <CHROM.1>
19.21597760,-18.04055146,4.23217748,-1.68746370,0.96007887,2.29391884

>  <Name>
1y26_lig

>  <RI>
0

>  <Rbt.Current_Directory>
/home/afrankz/demos/rdock_decoys_rna/rnas/1y26

>  <Rbt.Executable>
rbdock ($Id: //depot/dev/client3/rdock/2013.1/src/exe/rbdock.cxx#4 $)

>  <Rbt.Library>
libRbt.so (2013.1, Build901 2013/11/27)

>  <Rbt.Parameter_File>
/export/apps/rDock/src/rDock_2013.1_src/data/scripts/dock_solv.prm

>  <Rbt.Receptor>
prm/pocket_docking_8.prm

>  <SCORE>
-25.2599

>  <SCORE.INTER>
-25.2599

>  <SCORE.INTER.CONST>
1

>  <SCORE.INTER.POLAR>
-1.96779

>  <SCORE.INTER.ROT>
0

>  <SCORE.INTER.SOLV>
13.2708

>  <SCORE.INTER.VDW>
-18.3043

>  <SCORE.INTER.norm>
-2.52599

>  <SCORE.INTRA>
0

>  <SCORE.INTRA.DIHEDRAL>
0

>  <SCORE.INTRA.DIHEDRAL.0>
0

>  <SCORE.INTRA.POLAR>
0

>  <SCORE.INTRA.POLAR.0>
0

>  <SCORE.INTRA.REPUL>
0

>  <SCORE.INTRA.REPUL.0>
0

>  <SCORE.INTRA.SOLV>
0

>  <SCORE.INTRA.SOLV.lig_0>
-16.9472

>  <SCORE.INTRA.VDW>
0

>  <SCORE.INTRA.VDW.0>
0

>  <SCORE.INTRA.norm>
0

>  <SCORE.RESTR>
0

>  <SCORE.RESTR.CAVITY>
0

>  <SCORE.RESTR.norm>
0

>  <SCORE.SYSTEM>
0

>  <SCORE.SYSTEM.CONST>
0

>  <SCORE.SYSTEM.DIHEDRAL>
0

>  <SCORE.SYSTEM.SOLV>
0

>  <SCORE.SYSTEM.norm>
0

>  <SCORE.heavy>
10

>  <SCORE.norm>
-2.52599

>  <RMSD>
2.417

$$$$
1y26_lig
 OpenBabel02141814133D
libRbt.so/2013.1/901 2013/11/27
 10 11  0  0  0  0  0  0  0  0999 V2000
   19.2182  -16.7119    2.7529 N   0  0  0  0  0  0  0  0  0  0  0  0
   19.9479  -16.1432    3.7158 C   0  0  0  0  0  0  0  0  0  0  0  0
   20.2290  -16.6161    4.9284 N   0  0  0  0  0  0  0  0  0  0  0  0
   19.6845  -17.8410    5.1057 C   0  0  0  0  0  0  0  0  0  0  0  0
   18.9225  -18.5523    4.2004 C   0  0  0  0  0  0  0  0  0  0  0  0
   18.6878  -17.9334    2.9689 C   0  0  0  0  0  0  0  0  0  0  0  0
   17.9568  -18.5162    2.0323 N   0  0  0  0  0  0  0  0  0  0  0  0
   18.5132  -19.7665    4.7009 N   0  0  0  0  0  0  0  0  0  0  0  0
   19.0636  -19.7881    5.9010 C   0  0  0  0  0  0  0  0  0  0  0  0
   19.7735  -18.6476    6.2088 N   0  0  0  0  0  0  0  0  0  0  0  0
  1  2  2  0  0  0  0
  2  3  1  0  0  0  0
  3  4  2  0  0  0  0
  5  4  1  0  0  0  0
  5  6  2  0  0  0  0
  6  1  1  0  0  0  0
  6  7  1  0  0  0  0
  8  5  1  0  0  0  0
  9  8  1  0  0  0  0
 10  4  1  0  0  0  0
 10  9  2  0  0  0  0
M  END
>  <CHROM.1>
19.19971222,-18.05032065,4.25042819,-1.67581556,0.97194724,2.29028365

>  <Name>
1y26_lig

>  <RI>
0

>  <Rbt.Current_Directory>
/home/afrankz/demos/rdock_decoys_rna/rnas/1y26

>  <Rbt.Executable>
rbdock ($Id: //depot/dev/client3/rdock/2013.1/src/exe/rbdock.cxx#4 $)

>  <Rbt.Library>
libRbt.so (2013.1, Build901 2013/11/27)

>  <Rbt.Parameter_File>
/export/apps/rDock/src/rDock_2013.1_src/data/scripts/dock_solv.prm

>  <Rbt.Receptor>
prm/blind_docking_60.prm

>  <SCORE>
-25.2669

>  <SCORE.INTER>
-25.2669

>  <SCORE.INTER.CONST>
1

>  <SCORE.INTER.POLAR>
-1.97946

>  <SCORE.INTER.ROT>
0

>  <SCORE.INTER.SOLV>
13.306

>  <SCORE.INTER.VDW>
-18.2818

>  <SCORE.INTER.norm>
-2.52669

>  <SCORE.INTRA>
0

>  <SCORE.INTRA.DIHEDRAL>
0

>  <SCORE.INTRA.DIHEDRAL.0>
0

>  <SCORE.INTRA.POLAR>
0

>  <SCORE.INTRA.POLAR.0>
0

>  <SCORE.INTRA.REPUL>
0

>  <SCORE.INTRA.REPUL.0>
0

>  <SCORE.INTRA.SOLV>
0

>  <SCORE.INTRA.SOLV.lig_0>
-16.9472

>  <SCORE.INTRA.VDW>
0

>  <SCORE.INTRA.VDW.0>
0

>  <SCORE.INTRA.norm>
0

>  <SCORE.RESTR>
0

>  <SCORE.RESTR.CAVITY>
0

>  <SCORE.RESTR.norm>
0

>  <SCORE.SYSTEM>
0

>  <SCORE.SYSTEM.CONST>
0

>  <SCORE.SYSTEM.DIHEDRAL>
0

>  <SCORE.SYSTEM.SOLV>
0

>  <SCORE.SYSTEM.norm>
0

>  <SCORE.heavy>
10

>  <SCORE.norm>
-2.52669

>  <RMSD>
2.419

$$$$
1y26_lig
 OpenBabel02141814133D
libRbt.so/2013.1/901 2013/11/27
 10 11  0  0  0  0  0  0  0  0999 V2000
   19.2193  -16.7195    2.7476 N   0  0  0  0  0  0  0  0  0  0  0  0
   19.9573  -16.1508    3.7042 C   0  0  0  0  0  0  0  0  0  0  0  0
   20.2410  -16.6193    4.9178 N   0  0  0  0  0  0  0  0  0  0  0  0
   19.6892  -17.8396    5.1040 C   0  0  0  0  0  0  0  0  0  0  0  0
   18.9181  -18.5504    4.2059 C   0  0  0  0  0  0  0  0  0  0  0  0
   18.6817  -17.9363    2.9724 C   0  0  0  0  0  0  0  0  0  0  0  0
   17.9425  -18.5190    2.0423 N   0  0  0  0  0  0  0  0  0  0  0  0
   18.5031  -19.7592    4.7147 N   0  0  0  0  0  0  0  0  0  0  0  0
   19.0590  -19.7784    5.9122 C   0  0  0  0  0  0  0  0  0  0  0  0
   19.7780  -18.6411    6.2108 N   0  0  0  0  0  0  0  0  0  0  0  0
  1  2  2  0  0  0  0
  2  3  1  0  0  0  0
  3  4  2  0  0  0  0
  5  4  1  0  0  0  0
  5  6  2  0  0  0  0
  6  1  1  0  0  0  0
  6  7  1  0  0  0  0
  8  5  1  0  0  0  0
  9  8  1  0  0  0  0
 10  4  1  0  0  0  0
 10  9  2  0  0  0  0
M  END
>  <CHROM.1>
19.19893110,-18.05006143,4.25210559,-1.67431367,0.96379998,2.28388549

>  <Name>
1y26_lig

>  <RI>
0

>  <Rbt.Current_Directory>
/home/afrankz/demos/rdock_decoys_rna/rnas/1y26

>  <Rbt.Executable>
rbdock ($Id: //depot/dev/client3/rdock/2013.1/src/exe/rbdock.cxx#4 $)

>  <Rbt.Library>
libRbt.so (2013.1, Build901 2013/11/27)

>  <Rbt.Parameter_File>
/export/apps/rDock/src/rDock_2013.1_src/data/scripts/dock_solv.prm

>  <Rbt.Receptor>
prm/pocket_docking_4.prm

>  <SCORE>
-25.2073

>  <SCORE.INTER>
-25.2073

>  <SCORE.INTER.CONST>
1

>  <SCORE.INTER.POLAR>
-1.98626

>  <SCORE.INTER.ROT>
0

>  <SCORE.INTER.SOLV>
13.2814

>  <SCORE.INTER.VDW>
-18.2111

>  <SCORE.INTER.norm>
-2.52073

>  <SCORE.INTRA>
0

>  <SCORE.INTRA.DIHEDRAL>
0

>  <SCORE.INTRA.DIHEDRAL.0>
0

>  <SCORE.INTRA.POLAR>
0

>  <SCORE.INTRA.POLAR.0>
0

>  <SCORE.INTRA.REPUL>
0

>  <SCORE.INTRA.REPUL.0>
0

>  <SCORE.INTRA.SOLV>
0

>  <SCORE.INTRA.SOLV.lig_0>
-16.9472

>  <SCORE.INTRA.VDW>
0

>  <SCORE.INTRA.VDW.0>
0

>  <SCORE.INTRA.norm>
0

>  <SCORE.RESTR>
0

>  <SCORE.RESTR.CAVITY>
0

>  <SCORE.RESTR.norm>
0

>  <SCORE.SYSTEM>
0

>  <SCORE.SYSTEM.CONST>
0

>  <SCORE.SYSTEM.DIHEDRAL>
0

>  <SCORE.SYSTEM.SOLV>
0

>  <SCORE.SYSTEM.norm>
0

>  <SCORE.heavy>
10

>  <SCORE.norm>
-2.52073

>  <RMSD>
2.419

$$$$
1y26_lig
 OpenBabel02141814133D
libRbt.so/2013.1/901 2013/11/27
 10 11  0  0  0  0  0  0  0  0999 V2000
   19.4997  -16.7623    2.8291 N   0  0  0  0  0  0  0  0  0  0  0  0
   20.1796  -16.0442    3.7265 C   0  0  0  0  0  0  0  0  0  0  0  0
   20.4234  -16.3334    5.0032 N   0  0  0  0  0  0  0  0  0  0  0  0
   19.8983  -17.5348    5.3336 C   0  0  0  0  0  0  0  0  0  0  0  0
   19.1869  -18.3867    4.5123 C   0  0  0  0  0  0  0  0  0  0  0  0
   18.9871  -17.9545    3.1978 C   0  0  0  0  0  0  0  0  0  0  0  0
   18.3053  -18.6828    2.3284 N   0  0  0  0  0  0  0  0  0  0  0  0
   18.7842  -19.5282    5.1657 N   0  0  0  0  0  0  0  0  0  0  0  0
   19.2881  -19.3656    6.3753 C   0  0  0  0  0  0  0  0  0  0  0  0
   19.9615  -18.1748    6.5427 N   0  0  0  0  0  0  0  0  0  0  0  0
  1  2  2  0  0  0  0
  2  3  1  0  0  0  0
  3  4  2  0  0  0  0
  5  4  1  0  0  0  0
  5  6  2  0  0  0  0
  6  1  1  0  0  0  0
  6  7  1  0  0  0  0
  8  5  1  0  0  0  0
  9  8  1  0  0  0  0
 10  4  1  0  0  0  0
 10  9  2  0  0  0  0
M  END
>  <CHROM.1>
19.45143161,-17.87558050,4.50021433,-1.64698112,1.01302743,2.12376708

>  <Name>
1y26_lig

>  <RI>
224

>  <Rbt.Current_Directory>
/home/afrankz/demos/rdock_decoys_rna/rnas/1y26

>  <Rbt.Executable>
rbdock ($Id: //depot/dev/client3/rdock/2013.1/src/exe/rbdock.cxx#4 $)

>  <Rbt.Library>
libRbt.so (2013.1, Build901 2013/11/27)

>  <Rbt.Parameter_File>
/export/apps/rDock/src/rDock_2013.1_src/data/scripts/dock_solv.prm

>  <Rbt.Receptor>
prm/pocket_docking_6.prm

>  <SCORE>
-25.8876

>  <SCORE.INTER>
-25.8876

>  <SCORE.INTER.CONST>
1

>  <SCORE.INTER.POLAR>
-2.01598

>  <SCORE.INTER.ROT>
0

>  <SCORE.INTER.SOLV>
12.7065

>  <SCORE.INTER.VDW>
-18.374

>  <SCORE.INTER.norm>
-2.58876

>  <SCORE.INTRA>
0

>  <SCORE.INTRA.DIHEDRAL>
0

>  <SCORE.INTRA.DIHEDRAL.0>
0

>  <SCORE.INTRA.POLAR>
0

>  <SCORE.INTRA.POLAR.0>
0

>  <SCORE.INTRA.REPUL>
0

>  <SCORE.INTRA.REPUL.0>
0

>  <SCORE.INTRA.SOLV>
0

>  <SCORE.INTRA.SOLV.lig_0>
-16.9472

>  <SCORE.INTRA.VDW>
0

>  <SCORE.INTRA.VDW.0>
0

>  <SCORE.INTRA.norm>
0

>  <SCORE.RESTR>
0

>  <SCORE.RESTR.CAVITY>
0

>  <SCORE.RESTR.norm>
0

>  <SCORE.SYSTEM>
0

>  <SCORE.SYSTEM.CONST>
0

>  <SCORE.SYSTEM.DIHEDRAL>
0

>  <SCORE.SYSTEM.SOLV>
0

>  <SCORE.SYSTEM.norm>
0

>  <SCORE.heavy>
10

>  <SCORE.norm>
-2.58876

>  <RMSD>
2.434

$$$$
1y26_lig
 OpenBabel02141814133D
libRbt.so/2013.1/901 2013/11/27
 10 11  0  0  0  0  0  0  0  0999 V2000
   19.4968  -16.7619    2.8303 N   0  0  0  0  0  0  0  0  0  0  0  0
   20.1698  -16.0397    3.7296 C   0  0  0  0  0  0  0  0  0  0  0  0
   20.4080  -16.3252    5.0081 N   0  0  0  0  0  0  0  0  0  0  0  0
   19.8850  -17.5275    5.3386 C   0  0  0  0  0  0  0  0  0  0  0  0
   19.1805  -18.3835    4.5156 C   0  0  0  0  0  0  0  0  0  0  0  0
   18.9861  -17.9549    3.1991 C   0  0  0  0  0  0  0  0  0  0  0  0
   18.3110  -18.6873    2.3279 N   0  0  0  0  0  0  0  0  0  0  0  0
   18.7780  -19.5248    5.1695 N   0  0  0  0  0  0  0  0  0  0  0  0
   19.2752  -19.3579    6.3813 C   0  0  0  0  0  0  0  0  0  0  0  0
   19.9440  -18.1645    6.5494 N   0  0  0  0  0  0  0  0  0  0  0  0
  1  2  2  0  0  0  0
  2  3  1  0  0  0  0
  3  4  2  0  0  0  0
  5  4  1  0  0  0  0
  5  6  2  0  0  0  0
  6  1  1  0  0  0  0
  6  7  1  0  0  0  0
  8  5  1  0  0  0  0
  9  8  1  0  0  0  0
 10  4  1  0  0  0  0
 10  9  2  0  0  0  0
M  END
>  <CHROM.1>
19.44347349,-17.87158660,4.50368065,-1.64182906,1.01840999,2.11713097

>  <Name>
1y26_lig

>  <RI>
0

>  <Rbt.Current_Directory>
/home/afrankz/demos/rdock_decoys_rna/rnas/1y26

>  <Rbt.Executable>
rbdock ($Id: //depot/dev/client3/rdock/2013.1/src/exe/rbdock.cxx#4 $)

>  <Rbt.Library>
libRbt.so (2013.1, Build901 2013/11/27)

>  <Rbt.Parameter_File>
/export/apps/rDock/src/rDock_2013.1_src/data/scripts/dock_solv.prm

>  <Rbt.Receptor>
prm/pocket_docking_8.prm

>  <SCORE>
-25.8733

>  <SCORE.INTER>
-25.8733

>  <SCORE.INTER.CONST>
1

>  <SCORE.INTER.POLAR>
-2.01566

>  <SCORE.INTER.ROT>
0

>  <SCORE.INTER.SOLV>
12.7145

>  <SCORE.INTER.VDW>
-18.3682

>  <SCORE.INTER.norm>
-2.58733

>  <SCORE.INTRA>
0

>  <SCORE.INTRA.DIHEDRAL>
0

>  <SCORE.INTRA.DIHEDRAL.0>
0

>  <SCORE.INTRA.POLAR>
0

>  <SCORE.INTRA.POLAR.0>
0

>  <SCORE.INTRA.REPUL>
0

>  <SCORE.INTRA.REPUL.0>
0

>  <SCORE.INTRA.SOLV>
0

>  <SCORE.INTRA.SOLV.lig_0>
-16.9472

>  <SCORE.INTRA.VDW>
0

>  <SCORE.INTRA.VDW.0>
0

>  <SCORE.INTRA.norm>
0

>  <SCORE.RESTR>
0

>  <SCORE.RESTR.CAVITY>
0

>  <SCORE.RESTR.norm>
0

>  <SCORE.SYSTEM>
0

>  <SCORE.SYSTEM.CONST>
0

>  <SCORE.SYSTEM.DIHEDRAL>
0

>  <SCORE.SYSTEM.SOLV>
0

>  <SCORE.SYSTEM.norm>
0

>  <SCORE.heavy>
10

>  <SCORE.norm>
-2.58733

>  <RMSD>
2.434

$$$$
1y26_lig
 OpenBabel02141814133D
libRbt.so/2013.1/901 2013/11/27
 10 11  0  0  0  0  0  0  0  0999 V2000
   19.5162  -16.7676    2.8338 N   0  0  0  0  0  0  0  0  0  0  0  0
   20.2090  -16.0597    3.7293 C   0  0  0  0  0  0  0  0  0  0  0  0
   20.4497  -16.3510    5.0060 N   0  0  0  0  0  0  0  0  0  0  0  0
   19.9051  -17.5430    5.3389 C   0  0  0  0  0  0  0  0  0  0  0  0
   19.1785  -18.3841    4.5198 C   0  0  0  0  0  0  0  0  0  0  0  0
   18.9842  -17.9506    3.2049 C   0  0  0  0  0  0  0  0  0  0  0  0
   18.2892  -18.6687    2.3375 N   0  0  0  0  0  0  0  0  0  0  0  0
   18.7576  -19.5179    5.1754 N   0  0  0  0  0  0  0  0  0  0  0  0
   19.2658  -19.3619    6.3841 C   0  0  0  0  0  0  0  0  0  0  0  0
   19.9592  -18.1822    6.5488 N   0  0  0  0  0  0  0  0  0  0  0  0
  1  2  2  0  0  0  0
  2  3  1  0  0  0  0
  3  4  2  0  0  0  0
  5  4  1  0  0  0  0
  5  6  2  0  0  0  0
  6  1  1  0  0  0  0
  6  7  1  0  0  0  0
  8  5  1  0  0  0  0
  9  8  1  0  0  0  0
 10  4  1  0  0  0  0
 10  9  2  0  0  0  0
M  END
>  <CHROM.1>
19.45150779,-17.87754087,4.50658588,-1.63287008,0.99810980,2.11040217

>  <Name>
1y26_lig

>  <RI>
0

>  <Rbt.Current_Directory>
/home/afrankz/demos/rdock_decoys_rna/rnas/1y26

>  <Rbt.Executable>
rbdock ($Id: //depot/dev/client3/rdock/2013.1/src/exe/rbdock.cxx#4 $)

>  <Rbt.Library>
libRbt.so (2013.1, Build901 2013/11/27)

>  <Rbt.Parameter_File>
/export/apps/rDock/src/rDock_2013.1_src/data/scripts/dock_solv.prm

>  <Rbt.Receptor>
prm/blind_docking_100.prm

>  <SCORE>
-25.8848

>  <SCORE.INTER>
-25.8848

>  <SCORE.INTER.CONST>
1

>  <SCORE.INTER.POLAR>
-2.01946

>  <SCORE.INTER.ROT>
0

>  <SCORE.INTER.SOLV>
12.6627

>  <SCORE.INTER.VDW>
-18.3459

>  <SCORE.INTER.norm>
-2.58848

>  <SCORE.INTRA>
0

>  <SCORE.INTRA.DIHEDRAL>
0

>  <SCORE.INTRA.DIHEDRAL.0>
0

>  <SCORE.INTRA.POLAR>
0

>  <SCORE.INTRA.POLAR.0>
0

>  <SCORE.INTRA.REPUL>
0

>  <SCORE.INTRA.REPUL.0>
0

>  <SCORE.INTRA.SOLV>
0

>  <SCORE.INTRA.SOLV.lig_0>
-16.9472

>  <SCORE.INTRA.VDW>
0

>  <SCORE.INTRA.VDW.0>
0

>  <SCORE.INTRA.norm>
0

>  <SCORE.RESTR>
0

>  <SCORE.RESTR.CAVITY>
0

>  <SCORE.RESTR.norm>
0

>  <SCORE.SYSTEM>
0

>  <SCORE.SYSTEM.CONST>
0

>  <SCORE.SYSTEM.DIHEDRAL>
0

>  <SCORE.SYSTEM.SOLV>
0

>  <SCORE.SYSTEM.norm>
0

>  <SCORE.heavy>
10

>  <SCORE.norm>
-2.58848

>  <RMSD>
2.435

$$$$
1y26_lig
 OpenBabel02141814133D
libRbt.so/2013.1/901 2013/11/27
 10 11  0  0  0  0  0  0  0  0999 V2000
   19.5089  -16.7640    2.8315 N   0  0  0  0  0  0  0  0  0  0  0  0
   20.2043  -16.0567    3.7256 C   0  0  0  0  0  0  0  0  0  0  0  0
   20.4538  -16.3521    4.9997 N   0  0  0  0  0  0  0  0  0  0  0  0
   19.9159  -17.5475    5.3311 C   0  0  0  0  0  0  0  0  0  0  0  0
   19.1878  -18.3884    4.5131 C   0  0  0  0  0  0  0  0  0  0  0  0
   18.9839  -17.9505    3.2012 C   0  0  0  0  0  0  0  0  0  0  0  0
   18.2866  -18.6680    2.3351 N   0  0  0  0  0  0  0  0  0  0  0  0
   18.7754  -19.5263    5.1668 N   0  0  0  0  0  0  0  0  0  0  0  0
   19.2902  -19.3730    6.3730 C   0  0  0  0  0  0  0  0  0  0  0  0
   19.9798  -18.1912    6.5382 N   0  0  0  0  0  0  0  0  0  0  0  0
  1  2  2  0  0  0  0
  2  3  1  0  0  0  0
  3  4  2  0  0  0  0
  5  4  1  0  0  0  0
  5  6  2  0  0  0  0
  6  1  1  0  0  0  0
  6  7  1  0  0  0  0
  8  5  1  0  0  0  0
  9  8  1  0  0  0  0
 10  4  1  0  0  0  0
 10  9  2  0  0  0  0
M  END
>  <CHROM.1>
19.45871323,-17.88062227,4.50028075,-1.64613883,0.99840693,2.12544486

>  <Name>
1y26_lig

>  <RI>
0

>  <Rbt.Current_Directory>
/home/afrankz/demos/rdock_decoys_rna/rnas/1y26

>  <Rbt.Executable>
rbdock ($Id: //depot/dev/client3/rdock/2013.1/src/exe/rbdock.cxx#4 $)

>  <Rbt.Library>
libRbt.so (2013.1, Build901 2013/11/27)

>  <Rbt.Parameter_File>
/export/apps/rDock/src/rDock_2013.1_src/data/scripts/dock_solv.prm

>  <Rbt.Receptor>
prm/blind_docking_100.prm

>  <SCORE>
-25.9064

>  <SCORE.INTER>
-25.9064

>  <SCORE.INTER.CONST>
1

>  <SCORE.INTER.POLAR>
-2.01953

>  <SCORE.INTER.ROT>
0

>  <SCORE.INTER.SOLV>
12.6808

>  <SCORE.INTER.VDW>
-18.3661

>  <SCORE.INTER.norm>
-2.59064

>  <SCORE.INTRA>
0

>  <SCORE.INTRA.DIHEDRAL>
0

>  <SCORE.INTRA.DIHEDRAL.0>
0

>  <SCORE.INTRA.POLAR>
0

>  <SCORE.INTRA.POLAR.0>
0

>  <SCORE.INTRA.REPUL>
0

>  <SCORE.INTRA.REPUL.0>
0

>  <SCORE.INTRA.SOLV>
0

>  <SCORE.INTRA.SOLV.lig_0>
-16.9472

>  <SCORE.INTRA.VDW>
0

>  <SCORE.INTRA.VDW.0>
0

>  <SCORE.INTRA.norm>
0

>  <SCORE.RESTR>
0

>  <SCORE.RESTR.CAVITY>
0

>  <SCORE.RESTR.norm>
0

>  <SCORE.SYSTEM>
0

>  <SCORE.SYSTEM.CONST>
0

>  <SCORE.SYSTEM.DIHEDRAL>
0

>  <SCORE.SYSTEM.SOLV>
0

>  <SCORE.SYSTEM.norm>
0

>  <SCORE.heavy>
10

>  <SCORE.norm>
-2.59064

>  <RMSD>
2.435

$$$$
1y26_lig
 OpenBabel02141814133D
libRbt.so/2013.1/901 2013/11/27
 10 11  0  0  0  0  0  0  0  0999 V2000
   19.5209  -16.7729    2.8320 N   0  0  0  0  0  0  0  0  0  0  0  0
   20.2097  -16.0619    3.7281 C   0  0  0  0  0  0  0  0  0  0  0  0
   20.4512  -16.3526    5.0049 N   0  0  0  0  0  0  0  0  0  0  0  0
   19.9123  -17.5474    5.3369 C   0  0  0  0  0  0  0  0  0  0  0  0
   19.1904  -18.3918    4.5170 C   0  0  0  0  0  0  0  0  0  0  0  0
   18.9947  -17.9587    3.2023 C   0  0  0  0  0  0  0  0  0  0  0  0
   18.3038  -18.6798    2.3341 N   0  0  0  0  0  0  0  0  0  0  0  0
   18.7749  -19.5279    5.1719 N   0  0  0  0  0  0  0  0  0  0  0  0
   19.2816  -19.3699    6.3810 C   0  0  0  0  0  0  0  0  0  0  0  0
   19.9690  -18.1868    6.5466 N   0  0  0  0  0  0  0  0  0  0  0  0
  1  2  2  0  0  0  0
  2  3  1  0  0  0  0
  3  4  2  0  0  0  0
  5  4  1  0  0  0  0
  5  6  2  0  0  0  0
  6  1  1  0  0  0  0
  6  7  1  0  0  0  0
  8  5  1  0  0  0  0
  9  8  1  0  0  0  0
 10  4  1  0  0  0  0
 10  9  2  0  0  0  0
M  END
>  <CHROM.1>
19.46088785,-17.88382016,4.50421886,-1.63677898,1.00268832,2.11411457

>  <Name>
1y26_lig

>  <RI>
0

>  <Rbt.Current_Directory>
/home/afrankz/demos/rdock_decoys_rna/rnas/1y26

>  <Rbt.Executable>
rbdock ($Id: //depot/dev/client3/rdock/2013.1/src/exe/rbdock.cxx#4 $)

>  <Rbt.Library>
libRbt.so (2013.1, Build901 2013/11/27)

>  <Rbt.Parameter_File>
/export/apps/rDock/src/rDock_2013.1_src/data/scripts/dock_solv.prm

>  <Rbt.Receptor>
prm/blind_docking_60.prm

>  <SCORE>
-25.9133

>  <SCORE.INTER>
-25.9133

>  <SCORE.INTER.CONST>
1

>  <SCORE.INTER.POLAR>
-2.01978

>  <SCORE.INTER.ROT>
0

>  <SCORE.INTER.SOLV>
12.6641

>  <SCORE.INTER.VDW>
-18.3643

>  <SCORE.INTER.norm>
-2.59133

>  <SCORE.INTRA>
0

>  <SCORE.INTRA.DIHEDRAL>
0

>  <SCORE.INTRA.DIHEDRAL.0>
0

>  <SCORE.INTRA.POLAR>
0

>  <SCORE.INTRA.POLAR.0>
0

>  <SCORE.INTRA.REPUL>
0

>  <SCORE.INTRA.REPUL.0>
0

>  <SCORE.INTRA.SOLV>
0

>  <SCORE.INTRA.SOLV.lig_0>
-16.9472

>  <SCORE.INTRA.VDW>
0

>  <SCORE.INTRA.VDW.0>
0

>  <SCORE.INTRA.norm>
0

>  <SCORE.RESTR>
0

>  <SCORE.RESTR.CAVITY>
0

>  <SCORE.RESTR.norm>
0

>  <SCORE.SYSTEM>
0

>  <SCORE.SYSTEM.CONST>
0

>  <SCORE.SYSTEM.DIHEDRAL>
0

>  <SCORE.SYSTEM.SOLV>
0

>  <SCORE.SYSTEM.norm>
0

>  <SCORE.heavy>
10

>  <SCORE.norm>
-2.59133

>  <RMSD>
2.435

$$$$
1y26_lig
 OpenBabel02141814133D
libRbt.so/2013.1/901 2013/11/27
 10 11  0  0  0  0  0  0  0  0999 V2000
   19.5175  -16.7694    2.8349 N   0  0  0  0  0  0  0  0  0  0  0  0
   20.2117  -16.0627    3.7304 C   0  0  0  0  0  0  0  0  0  0  0  0
   20.4565  -16.3573    5.0056 N   0  0  0  0  0  0  0  0  0  0  0  0
   19.9149  -17.5511    5.3367 C   0  0  0  0  0  0  0  0  0  0  0  0
   19.1875  -18.3912    4.5173 C   0  0  0  0  0  0  0  0  0  0  0  0
   18.9887  -17.9543    3.2042 C   0  0  0  0  0  0  0  0  0  0  0  0
   18.2925  -18.6712    2.3367 N   0  0  0  0  0  0  0  0  0  0  0  0
   18.7704  -19.5275    5.1709 N   0  0  0  0  0  0  0  0  0  0  0  0
   19.2817  -19.3740    6.3786 C   0  0  0  0  0  0  0  0  0  0  0  0
   19.9736  -18.1936    6.5447 N   0  0  0  0  0  0  0  0  0  0  0  0
  1  2  2  0  0  0  0
  2  3  1  0  0  0  0
  3  4  2  0  0  0  0
  5  4  1  0  0  0  0
  5  6  2  0  0  0  0
  6  1  1  0  0  0  0
  6  7  1  0  0  0  0
  8  5  1  0  0  0  0
  9  8  1  0  0  0  0
 10  4  1  0  0  0  0
 10  9  2  0  0  0  0
M  END
>  <CHROM.1>
19.45954846,-17.88408946,4.50474515,-1.63901330,0.99813956,2.11835791

>  <Name>
1y26_lig

>  <RI>
224

>  <Rbt.Current_Directory>
/home/afrankz/demos/rdock_decoys_rna/rnas/1y26

>  <Rbt.Executable>
rbdock ($Id: //depot/dev/client3/rdock/2013.1/src/exe/rbdock.cxx#4 $)

>  <Rbt.Library>
libRbt.so (2013.1, Build901 2013/11/27)

>  <Rbt.Parameter_File>
/export/apps/rDock/src/rDock_2013.1_src/data/scripts/dock_solv.prm

>  <Rbt.Receptor>
prm/blind_docking_80.prm

>  <SCORE>
-25.9107

>  <SCORE.INTER>
-25.9107

>  <SCORE.INTER.CONST>
1

>  <SCORE.INTER.POLAR>
-2.01941

>  <SCORE.INTER.ROT>
0

>  <SCORE.INTER.SOLV>
12.6683

>  <SCORE.INTER.VDW>
-18.3652

>  <SCORE.INTER.norm>
-2.59107

>  <SCORE.INTRA>
0

>  <SCORE.INTRA.DIHEDRAL>
0

>  <SCORE.INTRA.DIHEDRAL.0>
0

>  <SCORE.INTRA.POLAR>
0

>  <SCORE.INTRA.POLAR.0>
0

>  <SCORE.INTRA.REPUL>
0

>  <SCORE.INTRA.REPUL.0>
0

>  <SCORE.INTRA.SOLV>
0

>  <SCORE.INTRA.SOLV.lig_0>
-16.9472

>  <SCORE.INTRA.VDW>
0

>  <SCORE.INTRA.VDW.0>
0

>  <SCORE.INTRA.norm>
0

>  <SCORE.RESTR>
0

>  <SCORE.RESTR.CAVITY>
0

>  <SCORE.RESTR.norm>
0

>  <SCORE.SYSTEM>
0

>  <SCORE.SYSTEM.CONST>
0

>  <SCORE.SYSTEM.DIHEDRAL>
0

>  <SCORE.SYSTEM.SOLV>
0

>  <SCORE.SYSTEM.norm>
0

>  <SCORE.heavy>
10

>  <SCORE.norm>
-2.59107

>  <RMSD>
2.435

$$$$
1y26_lig
 OpenBabel02141814133D
libRbt.so/2013.1/901 2013/11/27
 10 11  0  0  0  0  0  0  0  0999 V2000
   19.5084  -16.7638    2.8311 N   0  0  0  0  0  0  0  0  0  0  0  0
   20.1943  -16.0501    3.7273 C   0  0  0  0  0  0  0  0  0  0  0  0
   20.4320  -16.3371    5.0056 N   0  0  0  0  0  0  0  0  0  0  0  0
   19.8926  -17.5312    5.3393 C   0  0  0  0  0  0  0  0  0  0  0  0
   19.1734  -18.3781    4.5197 C   0  0  0  0  0  0  0  0  0  0  0  0
   18.9814  -17.9488    3.2031 C   0  0  0  0  0  0  0  0  0  0  0  0
   18.2934  -18.6726    2.3349 N   0  0  0  0  0  0  0  0  0  0  0  0
   18.7562  -19.5125    5.1765 N   0  0  0  0  0  0  0  0  0  0  0  0
   19.2592  -19.3509    6.3866 C   0  0  0  0  0  0  0  0  0  0  0  0
   19.9458  -18.1672    6.5510 N   0  0  0  0  0  0  0  0  0  0  0  0
  1  2  2  0  0  0  0
  2  3  1  0  0  0  0
  3  4  2  0  0  0  0
  5  4  1  0  0  0  0
  5  6  2  0  0  0  0
  6  1  1  0  0  0  0
  6  7  1  0  0  0  0
  8  5  1  0  0  0  0
  9  8  1  0  0  0  0
 10  4  1  0  0  0  0
 10  9  2  0  0  0  0
M  END
>  <CHROM.1>
19.44372005,-17.87008940,4.50625695,-1.63228508,1.00449919,2.10750932

>  <Name>
1y26_lig

>  <RI>
224

>  <Rbt.Current_Directory>
/home/afrankz/demos/rdock_decoys_rna/rnas/1y26

>  <Rbt.Executable>
rbdock ($Id: //depot/dev/client3/rdock/2013.1/src/exe/rbdock.cxx#4 $)

>  <Rbt.Library>
libRbt.so (2013.1, Build901 2013/11/27)

>  <Rbt.Parameter_File>
/export/apps/rDock/src/rDock_2013.1_src/data/scripts/dock_solv.prm

>  <Rbt.Receptor>
prm/blind_docking_80.prm

>  <SCORE>
-25.8775

>  <SCORE.INTER>
-25.8775

>  <SCORE.INTER.CONST>
1

>  <SCORE.INTER.POLAR>
-2.0198

>  <SCORE.INTER.ROT>
0

>  <SCORE.INTER.SOLV>
12.6741

>  <SCORE.INTER.VDW>
-18.3437

>  <SCORE.INTER.norm>
-2.58775

>  <SCORE.INTRA>
0

>  <SCORE.INTRA.DIHEDRAL>
0

>  <SCORE.INTRA.DIHEDRAL.0>
0

>  <SCORE.INTRA.POLAR>
0

>  <SCORE.INTRA.POLAR.0>
0

>  <SCORE.INTRA.REPUL>
0

>  <SCORE.INTRA.REPUL.0>
0

>  <SCORE.INTRA.SOLV>
0

>  <SCORE.INTRA.SOLV.lig_0>
-16.9472

>  <SCORE.INTRA.VDW>
0

>  <SCORE.INTRA.VDW.0>
0

>  <SCORE.INTRA.norm>
0

>  <SCORE.RESTR>
0

>  <SCORE.RESTR.CAVITY>
0

>  <SCORE.RESTR.norm>
0

>  <SCORE.SYSTEM>
0

>  <SCORE.SYSTEM.CONST>
0

>  <SCORE.SYSTEM.DIHEDRAL>
0

>  <SCORE.SYSTEM.SOLV>
0

>  <SCORE.SYSTEM.norm>
0

>  <SCORE.heavy>
10

>  <SCORE.norm>
-2.58775

>  <RMSD>
2.435

$$$$
1y26_lig
 OpenBabel02141814133D
libRbt.so/2013.1/901 2013/11/27
 10 11  0  0  0  0  0  0  0  0999 V2000
   19.5175  -16.7698    2.8337 N   0  0  0  0  0  0  0  0  0  0  0  0
   20.2115  -16.0627    3.7290 C   0  0  0  0  0  0  0  0  0  0  0  0
   20.4568  -16.3570    5.0042 N   0  0  0  0  0  0  0  0  0  0  0  0
   19.9160  -17.5512    5.3354 C   0  0  0  0  0  0  0  0  0  0  0  0
   19.1889  -18.3918    4.5162 C   0  0  0  0  0  0  0  0  0  0  0  0
   18.9895  -17.9551    3.2032 C   0  0  0  0  0  0  0  0  0  0  0  0
   18.2935  -18.6724    2.3359 N   0  0  0  0  0  0  0  0  0  0  0  0
   18.7727  -19.5283    5.1700 N   0  0  0  0  0  0  0  0  0  0  0  0
   19.2843  -19.3744    6.3775 C   0  0  0  0  0  0  0  0  0  0  0  0
   19.9754  -18.1936    6.5434 N   0  0  0  0  0  0  0  0  0  0  0  0
  1  2  2  0  0  0  0
  2  3  1  0  0  0  0
  3  4  2  0  0  0  0
  5  4  1  0  0  0  0
  5  6  2  0  0  0  0
  6  1  1  0  0  0  0
  6  7  1  0  0  0  0
  8  5  1  0  0  0  0
  9  8  1  0  0  0  0
 10  4  1  0  0  0  0
 10  9  2  0  0  0  0
M  END
>  <CHROM.1>
19.46066290,-17.88447421,4.50360687,-1.64001102,0.99853014,2.11916663

>  <Name>
1y26_lig

>  <RI>
224

>  <Rbt.Current_Directory>
/home/afrankz/demos/rdock_decoys_rna/rnas/1y26

>  <Rbt.Executable>
rbdock ($Id: //depot/dev/client3/rdock/2013.1/src/exe/rbdock.cxx#4 $)

>  <Rbt.Library>
libRbt.so (2013.1, Build901 2013/11/27)

>  <Rbt.Parameter_File>
/export/apps/rDock/src/rDock_2013.1_src/data/scripts/dock_solv.prm

>  <Rbt.Receptor>
prm/pocket_docking_3.prm

>  <SCORE>
-25.9096

>  <SCORE.INTER>
-25.9096

>  <SCORE.INTER.CONST>
1

>  <SCORE.INTER.POLAR>
-2.01956

>  <SCORE.INTER.ROT>
0

>  <SCORE.INTER.SOLV>
12.6686

>  <SCORE.INTER.VDW>
-18.3641

>  <SCORE.INTER.norm>
-2.59096

>  <SCORE.INTRA>
0

>  <SCORE.INTRA.DIHEDRAL>
0

>  <SCORE.INTRA.DIHEDRAL.0>
0

>  <SCORE.INTRA.POLAR>
0

>  <SCORE.INTRA.POLAR.0>
0

>  <SCORE.INTRA.REPUL>
0

>  <SCORE.INTRA.REPUL.0>
0

>  <SCORE.INTRA.SOLV>
0

>  <SCORE.INTRA.SOLV.lig_0>
-16.9472

>  <SCORE.INTRA.VDW>
0

>  <SCORE.INTRA.VDW.0>
0

>  <SCORE.INTRA.norm>
0

>  <SCORE.RESTR>
0

>  <SCORE.RESTR.CAVITY>
0

>  <SCORE.RESTR.norm>
0

>  <SCORE.SYSTEM>
0

>  <SCORE.SYSTEM.CONST>
0

>  <SCORE.SYSTEM.DIHEDRAL>
0

>  <SCORE.SYSTEM.SOLV>
0

>  <SCORE.SYSTEM.norm>
0

>  <SCORE.heavy>
10

>  <SCORE.norm>
-2.59096

>  <RMSD>
2.435

$$$$
1y26_lig
 OpenBabel02141814133D
libRbt.so/2013.1/901 2013/11/27
 10 11  0  0  0  0  0  0  0  0999 V2000
   19.5149  -16.7673    2.8334 N   0  0  0  0  0  0  0  0  0  0  0  0
   20.2095  -16.0598    3.7279 C   0  0  0  0  0  0  0  0  0  0  0  0
   20.4561  -16.3539    5.0029 N   0  0  0  0  0  0  0  0  0  0  0  0
   19.9161  -17.5482    5.3348 C   0  0  0  0  0  0  0  0  0  0  0  0
   19.1884  -18.3892    4.5165 C   0  0  0  0  0  0  0  0  0  0  0  0
   18.9876  -17.9527    3.2036 C   0  0  0  0  0  0  0  0  0  0  0  0
   18.2910  -18.6704    2.3370 N   0  0  0  0  0  0  0  0  0  0  0  0
   18.7733  -19.5257    5.1708 N   0  0  0  0  0  0  0  0  0  0  0  0
   19.2859  -19.3715    6.3778 C   0  0  0  0  0  0  0  0  0  0  0  0
   19.9768  -18.1904    6.5428 N   0  0  0  0  0  0  0  0  0  0  0  0
  1  2  2  0  0  0  0
  2  3  1  0  0  0  0
  3  4  2  0  0  0  0
  5  4  1  0  0  0  0
  5  6  2  0  0  0  0
  6  1  1  0  0  0  0
  6  7  1  0  0  0  0
  8  5  1  0  0  0  0
  9  8  1  0  0  0  0
 10  4  1  0  0  0  0
 10  9  2  0  0  0  0
M  END
>  <CHROM.1>
19.46001292,-17.88178183,4.50349714,-1.64187571,0.99832206,2.12059090

>  <Name>
1y26_lig

>  <RI>
224

>  <Rbt.Current_Directory>
/home/afrankz/demos/rdock_decoys_rna/rnas/1y26

>  <Rbt.Executable>
rbdock ($Id: //depot/dev/client3/rdock/2013.1/src/exe/rbdock.cxx#4 $)

>  <Rbt.Library>
libRbt.so (2013.1, Build901 2013/11/27)

>  <Rbt.Parameter_File>
/export/apps/rDock/src/rDock_2013.1_src/data/scripts/dock_solv.prm

>  <Rbt.Receptor>
prm/pocket_docking_3.prm

>  <SCORE>
-25.9074

>  <SCORE.INTER>
-25.9074

>  <SCORE.INTER.CONST>
1

>  <SCORE.INTER.POLAR>
-2.0198

>  <SCORE.INTER.ROT>
0

>  <SCORE.INTER.SOLV>
12.671

>  <SCORE.INTER.VDW>
-18.3626

>  <SCORE.INTER.norm>
-2.59074

>  <SCORE.INTRA>
0

>  <SCORE.INTRA.DIHEDRAL>
0

>  <SCORE.INTRA.DIHEDRAL.0>
0

>  <SCORE.INTRA.POLAR>
0

>  <SCORE.INTRA.POLAR.0>
0

>  <SCORE.INTRA.REPUL>
0

>  <SCORE.INTRA.REPUL.0>
0

>  <SCORE.INTRA.SOLV>
0

>  <SCORE.INTRA.SOLV.lig_0>
-16.9472

>  <SCORE.INTRA.VDW>
0

>  <SCORE.INTRA.VDW.0>
0

>  <SCORE.INTRA.norm>
0

>  <SCORE.RESTR>
0

>  <SCORE.RESTR.CAVITY>
0

>  <SCORE.RESTR.norm>
0

>  <SCORE.SYSTEM>
0

>  <SCORE.SYSTEM.CONST>
0

>  <SCORE.SYSTEM.DIHEDRAL>
0

>  <SCORE.SYSTEM.SOLV>
0

>  <SCORE.SYSTEM.norm>
0

>  <SCORE.heavy>
10

>  <SCORE.norm>
-2.59074

>  <RMSD>
2.435

$$$$
1y26_lig
 OpenBabel02141814133D
libRbt.so/2013.1/901 2013/11/27
 10 11  0  0  0  0  0  0  0  0999 V2000
   19.5068  -16.7648    2.8336 N   0  0  0  0  0  0  0  0  0  0  0  0
   20.1938  -16.0521    3.7299 C   0  0  0  0  0  0  0  0  0  0  0  0
   20.4390  -16.3442    5.0056 N   0  0  0  0  0  0  0  0  0  0  0  0
   19.9068  -17.5424    5.3362 C   0  0  0  0  0  0  0  0  0  0  0  0
   19.1876  -18.3887    4.5160 C   0  0  0  0  0  0  0  0  0  0  0  0
   18.9872  -17.9539    3.2024 C   0  0  0  0  0  0  0  0  0  0  0  0
   18.2983  -18.6768    2.3341 N   0  0  0  0  0  0  0  0  0  0  0  0
   18.7789  -19.5282    5.1693 N   0  0  0  0  0  0  0  0  0  0  0  0
   19.2870  -19.3702    6.3777 C   0  0  0  0  0  0  0  0  0  0  0  0
   19.9688  -18.1840    6.5445 N   0  0  0  0  0  0  0  0  0  0  0  0
  1  2  2  0  0  0  0
  2  3  1  0  0  0  0
  3  4  2  0  0  0  0
  5  4  1  0  0  0  0
  5  6  2  0  0  0  0
  6  1  1  0  0  0  0
  6  7  1  0  0  0  0
  8  5  1  0  0  0  0
  9  8  1  0  0  0  0
 10  4  1  0  0  0  0
 10  9  2  0  0  0  0
M  END
>  <CHROM.1>
19.45545801,-17.87939777,4.50368427,-1.64455338,1.00598076,2.12271525

>  <Name>
1y26_lig

>  <RI>
0

>  <Rbt.Current_Directory>
/home/afrankz/demos/rdock_decoys_rna/rnas/1y26

>  <Rbt.Executable>
rbdock ($Id: //depot/dev/client3/rdock/2013.1/src/exe/rbdock.cxx#4 $)

>  <Rbt.Library>
libRbt.so (2013.1, Build901 2013/11/27)

>  <Rbt.Parameter_File>
/export/apps/rDock/src/rDock_2013.1_src/data/scripts/dock_solv.prm

>  <Rbt.Receptor>
prm/pocket_docking_5.prm

>  <SCORE>
-25.9035

>  <SCORE.INTER>
-25.9035

>  <SCORE.INTER.CONST>
1

>  <SCORE.INTER.POLAR>
-2.0193

>  <SCORE.INTER.ROT>
0

>  <SCORE.INTER.SOLV>
12.6916

>  <SCORE.INTER.VDW>
-18.3685

>  <SCORE.INTER.norm>
-2.59035

>  <SCORE.INTRA>
0

>  <SCORE.INTRA.DIHEDRAL>
0

>  <SCORE.INTRA.DIHEDRAL.0>
0

>  <SCORE.INTRA.POLAR>
0

>  <SCORE.INTRA.POLAR.0>
0

>  <SCORE.INTRA.REPUL>
0

>  <SCORE.INTRA.REPUL.0>
0

>  <SCORE.INTRA.SOLV>
0

>  <SCORE.INTRA.SOLV.lig_0>
-16.9472

>  <SCORE.INTRA.VDW>
0

>  <SCORE.INTRA.VDW.0>
0

>  <SCORE.INTRA.norm>
0

>  <SCORE.RESTR>
0

>  <SCORE.RESTR.CAVITY>
0

>  <SCORE.RESTR.norm>
0

>  <SCORE.SYSTEM>
0

>  <SCORE.SYSTEM.CONST>
0

>  <SCORE.SYSTEM.DIHEDRAL>
0

>  <SCORE.SYSTEM.SOLV>
0

>  <SCORE.SYSTEM.norm>
0

>  <SCORE.heavy>
10

>  <SCORE.norm>
-2.59035

>  <RMSD>
2.435

$$$$
1y26_lig
 OpenBabel02141814133D
libRbt.so/2013.1/901 2013/11/27
 10 11  0  0  0  0  0  0  0  0999 V2000
   19.5155  -16.7675    2.8327 N   0  0  0  0  0  0  0  0  0  0  0  0
   20.2064  -16.0577    3.7282 C   0  0  0  0  0  0  0  0  0  0  0  0
   20.4456  -16.3472    5.0057 N   0  0  0  0  0  0  0  0  0  0  0  0
   19.9017  -17.5393    5.3393 C   0  0  0  0  0  0  0  0  0  0  0  0
   19.1771  -18.3822    4.5203 C   0  0  0  0  0  0  0  0  0  0  0  0
   18.9842  -17.9506    3.2046 C   0  0  0  0  0  0  0  0  0  0  0  0
   18.2911  -18.6705    2.3371 N   0  0  0  0  0  0  0  0  0  0  0  0
   18.7565  -19.5155    5.1768 N   0  0  0  0  0  0  0  0  0  0  0  0
   19.2628  -19.3574    6.3860 C   0  0  0  0  0  0  0  0  0  0  0  0
   19.9548  -18.1769    6.5501 N   0  0  0  0  0  0  0  0  0  0  0  0
  1  2  2  0  0  0  0
  2  3  1  0  0  0  0
  3  4  2  0  0  0  0
  5  4  1  0  0  0  0
  5  6  2  0  0  0  0
  6  1  1  0  0  0  0
  6  7  1  0  0  0  0
  8  5  1  0  0  0  0
  9  8  1  0  0  0  0
 10  4  1  0  0  0  0
 10  9  2  0  0  0  0
M  END
>  <CHROM.1>
19.44964699,-17.87533597,4.50683138,-1.63163933,0.99967654,2.10805468

>  <Name>
1y26_lig

>  <RI>
224

>  <Rbt.Current_Directory>
/home/afrankz/demos/rdock_decoys_rna/rnas/1y26

>  <Rbt.Executable>
rbdock ($Id: //depot/dev/client3/rdock/2013.1/src/exe/rbdock.cxx#4 $)

>  <Rbt.Library>
libRbt.so (2013.1, Build901 2013/11/27)

>  <Rbt.Parameter_File>
/export/apps/rDock/src/rDock_2013.1_src/data/scripts/dock_solv.prm

>  <Rbt.Receptor>
prm/pocket_docking_6.prm

>  <SCORE>
-25.8819

>  <SCORE.INTER>
-25.8819

>  <SCORE.INTER.CONST>
1

>  <SCORE.INTER.POLAR>
-2.0198

>  <SCORE.INTER.ROT>
0

>  <SCORE.INTER.SOLV>
12.6622

>  <SCORE.INTER.VDW>
-18.3426

>  <SCORE.INTER.norm>
-2.58819

>  <SCORE.INTRA>
0

>  <SCORE.INTRA.DIHEDRAL>
0

>  <SCORE.INTRA.DIHEDRAL.0>
0

>  <SCORE.INTRA.POLAR>
0

>  <SCORE.INTRA.POLAR.0>
0

>  <SCORE.INTRA.REPUL>
0

>  <SCORE.INTRA.REPUL.0>
0

>  <SCORE.INTRA.SOLV>
0

>  <SCORE.INTRA.SOLV.lig_0>
-16.9472

>  <SCORE.INTRA.VDW>
0

>  <SCORE.INTRA.VDW.0>
0

>  <SCORE.INTRA.norm>
0

>  <SCORE.RESTR>
0

>  <SCORE.RESTR.CAVITY>
0

>  <SCORE.RESTR.norm>
0

>  <SCORE.SYSTEM>
0

>  <SCORE.SYSTEM.CONST>
0

>  <SCORE.SYSTEM.DIHEDRAL>
0

>  <SCORE.SYSTEM.SOLV>
0

>  <SCORE.SYSTEM.norm>
0

>  <SCORE.heavy>
10

>  <SCORE.norm>
-2.58819

>  <RMSD>
2.435

$$$$
1y26_lig
 OpenBabel02141814133D
libRbt.so/2013.1/901 2013/11/27
 10 11  0  0  0  0  0  0  0  0999 V2000
   19.5168  -16.7697    2.8333 N   0  0  0  0  0  0  0  0  0  0  0  0
   20.2061  -16.0587    3.7292 C   0  0  0  0  0  0  0  0  0  0  0  0
   20.4494  -16.3503    5.0054 N   0  0  0  0  0  0  0  0  0  0  0  0
   19.9123  -17.5460    5.3370 C   0  0  0  0  0  0  0  0  0  0  0  0
   19.1903  -18.3905    4.5173 C   0  0  0  0  0  0  0  0  0  0  0  0
   18.9924  -17.9564    3.2032 C   0  0  0  0  0  0  0  0  0  0  0  0
   18.3011  -18.6775    2.3353 N   0  0  0  0  0  0  0  0  0  0  0  0
   18.7768  -19.5276    5.1717 N   0  0  0  0  0  0  0  0  0  0  0  0
   19.2848  -19.3701    6.3803 C   0  0  0  0  0  0  0  0  0  0  0  0
   19.9712  -18.1865    6.5461 N   0  0  0  0  0  0  0  0  0  0  0  0
  1  2  2  0  0  0  0
  2  3  1  0  0  0  0
  3  4  2  0  0  0  0
  5  4  1  0  0  0  0
  5  6  2  0  0  0  0
  6  1  1  0  0  0  0
  6  7  1  0  0  0  0
  8  5  1  0  0  0  0
  9  8  1  0  0  0  0
 10  4  1  0  0  0  0
 10  9  2  0  0  0  0
M  END
>  <CHROM.1>
19.46016337,-17.88219216,4.50462362,-1.63983939,1.00293559,2.11759014

>  <Name>
1y26_lig

>  <RI>
224

>  <Rbt.Current_Directory>
/home/afrankz/demos/rdock_decoys_rna/rnas/1y26

>  <Rbt.Executable>
rbdock ($Id: //depot/dev/client3/rdock/2013.1/src/exe/rbdock.cxx#4 $)

>  <Rbt.Library>
libRbt.so (2013.1, Build901 2013/11/27)

>  <Rbt.Parameter_File>
/export/apps/rDock/src/rDock_2013.1_src/data/scripts/dock_solv.prm

>  <Rbt.Receptor>
prm/pocket_docking_7.prm

>  <SCORE>
-25.9109

>  <SCORE.INTER>
-25.9109

>  <SCORE.INTER.CONST>
1

>  <SCORE.INTER.POLAR>
-2.01962

>  <SCORE.INTER.ROT>
0

>  <SCORE.INTER.SOLV>
12.6721

>  <SCORE.INTER.VDW>
-18.3659

>  <SCORE.INTER.norm>
-2.59109

>  <SCORE.INTRA>
0

>  <SCORE.INTRA.DIHEDRAL>
0

>  <SCORE.INTRA.DIHEDRAL.0>
0

>  <SCORE.INTRA.POLAR>
0

>  <SCORE.INTRA.POLAR.0>
0

>  <SCORE.INTRA.REPUL>
0

>  <SCORE.INTRA.REPUL.0>
0

>  <SCORE.INTRA.SOLV>
0

>  <SCORE.INTRA.SOLV.lig_0>
-16.9472

>  <SCORE.INTRA.VDW>
0

>  <SCORE.INTRA.VDW.0>
0

>  <SCORE.INTRA.norm>
0

>  <SCORE.RESTR>
0

>  <SCORE.RESTR.CAVITY>
0

>  <SCORE.RESTR.norm>
0

>  <SCORE.SYSTEM>
0

>  <SCORE.SYSTEM.CONST>
0

>  <SCORE.SYSTEM.DIHEDRAL>
0

>  <SCORE.SYSTEM.SOLV>
0

>  <SCORE.SYSTEM.norm>
0

>  <SCORE.heavy>
10

>  <SCORE.norm>
-2.59109

>  <RMSD>
2.435

$$$$
1y26_lig
 OpenBabel02141814133D
libRbt.so/2013.1/901 2013/11/27
 10 11  0  0  0  0  0  0  0  0999 V2000
   19.5164  -16.7679    2.8320 N   0  0  0  0  0  0  0  0  0  0  0  0
   20.2092  -16.0595    3.7272 C   0  0  0  0  0  0  0  0  0  0  0  0
   20.4495  -16.3502    5.0042 N   0  0  0  0  0  0  0  0  0  0  0  0
   19.9048  -17.5420    5.3376 C   0  0  0  0  0  0  0  0  0  0  0  0
   19.1783  -18.3835    4.5188 C   0  0  0  0  0  0  0  0  0  0  0  0
   18.9843  -17.9507    3.2036 C   0  0  0  0  0  0  0  0  0  0  0  0
   18.2894  -18.6692    2.3364 N   0  0  0  0  0  0  0  0  0  0  0  0
   18.7572  -19.5168    5.1749 N   0  0  0  0  0  0  0  0  0  0  0  0
   19.2651  -19.3602    6.3836 C   0  0  0  0  0  0  0  0  0  0  0  0
   19.9586  -18.1805    6.5479 N   0  0  0  0  0  0  0  0  0  0  0  0
  1  2  2  0  0  0  0
  2  3  1  0  0  0  0
  3  4  2  0  0  0  0
  5  4  1  0  0  0  0
  5  6  2  0  0  0  0
  6  1  1  0  0  0  0
  6  7  1  0  0  0  0
  8  5  1  0  0  0  0
  9  8  1  0  0  0  0
 10  4  1  0  0  0  0
 10  9  2  0  0  0  0
M  END
>  <CHROM.1>
19.45133638,-17.87692419,4.50535211,-1.63246248,0.99815944,2.10950257

>  <Name>
1y26_lig

>  <RI>
224

>  <Rbt.Current_Directory>
/home/afrankz/demos/rdock_decoys_rna/rnas/1y26

>  <Rbt.Executable>
rbdock ($Id: //depot/dev/client3/rdock/2013.1/src/exe/rbdock.cxx#4 $)

>  <Rbt.Library>
libRbt.so (2013.1, Build901 2013/11/27)

>  <Rbt.Parameter_File>
/export/apps/rDock/src/rDock_2013.1_src/data/scripts/dock_solv.prm

>  <Rbt.Receptor>
prm/pocket_docking_7.prm

>  <SCORE>
-25.8844

>  <SCORE.INTER>
-25.8844

>  <SCORE.INTER.CONST>
1

>  <SCORE.INTER.POLAR>
-2.01932

>  <SCORE.INTER.ROT>
0

>  <SCORE.INTER.SOLV>
12.6606

>  <SCORE.INTER.VDW>
-18.3454

>  <SCORE.INTER.norm>
-2.58844

>  <SCORE.INTRA>
0

>  <SCORE.INTRA.DIHEDRAL>
0

>  <SCORE.INTRA.DIHEDRAL.0>
0

>  <SCORE.INTRA.POLAR>
0

>  <SCORE.INTRA.POLAR.0>
0

>  <SCORE.INTRA.REPUL>
0

>  <SCORE.INTRA.REPUL.0>
0

>  <SCORE.INTRA.SOLV>
0

>  <SCORE.INTRA.SOLV.lig_0>
-16.9472

>  <SCORE.INTRA.VDW>
0

>  <SCORE.INTRA.VDW.0>
0

>  <SCORE.INTRA.norm>
0

>  <SCORE.RESTR>
0

>  <SCORE.RESTR.CAVITY>
0

>  <SCORE.RESTR.norm>
0

>  <SCORE.SYSTEM>
0

>  <SCORE.SYSTEM.CONST>
0

>  <SCORE.SYSTEM.DIHEDRAL>
0

>  <SCORE.SYSTEM.SOLV>
0

>  <SCORE.SYSTEM.norm>
0

>  <SCORE.heavy>
10

>  <SCORE.norm>
-2.58844

>  <RMSD>
2.435

$$$$
1y26_lig
 OpenBabel02141814133D
libRbt.so/2013.1/901 2013/11/27
 10 11  0  0  0  0  0  0  0  0999 V2000
   19.5148  -16.7686    2.8336 N   0  0  0  0  0  0  0  0  0  0  0  0
   20.2055  -16.0590    3.7295 C   0  0  0  0  0  0  0  0  0  0  0  0
   20.4501  -16.3521    5.0051 N   0  0  0  0  0  0  0  0  0  0  0  0
   19.9125  -17.5478    5.3361 C   0  0  0  0  0  0  0  0  0  0  0  0
   19.1890  -18.3909    4.5164 C   0  0  0  0  0  0  0  0  0  0  0  0
   18.9899  -17.9553    3.2029 C   0  0  0  0  0  0  0  0  0  0  0  0
   18.2972  -18.6751    2.3350 N   0  0  0  0  0  0  0  0  0  0  0  0
   18.7755  -19.5284    5.1701 N   0  0  0  0  0  0  0  0  0  0  0  0
   19.2850  -19.3725    6.3782 C   0  0  0  0  0  0  0  0  0  0  0  0
   19.9723  -18.1896    6.5444 N   0  0  0  0  0  0  0  0  0  0  0  0
  1  2  2  0  0  0  0
  2  3  1  0  0  0  0
  3  4  2  0  0  0  0
  5  4  1  0  0  0  0
  5  6  2  0  0  0  0
  6  1  1  0  0  0  0
  6  7  1  0  0  0  0
  8  5  1  0  0  0  0
  9  8  1  0  0  0  0
 10  4  1  0  0  0  0
 10  9  2  0  0  0  0
M  END
>  <CHROM.1>
19.45923281,-17.88278456,4.50386782,-1.64096101,1.00178683,2.11957160

>  <Name>
1y26_lig

>  <RI>
224

>  <Rbt.Current_Directory>
/home/afrankz/demos/rdock_decoys_rna/rnas/1y26

>  <Rbt.Executable>
rbdock ($Id: //depot/dev/client3/rdock/2013.1/src/exe/rbdock.cxx#4 $)

>  <Rbt.Library>
libRbt.so (2013.1, Build901 2013/11/27)

>  <Rbt.Parameter_File>
/export/apps/rDock/src/rDock_2013.1_src/data/scripts/dock_solv.prm

>  <Rbt.Receptor>
prm/pocket_docking_7.prm

>  <SCORE>
-25.9103

>  <SCORE.INTER>
-25.9103

>  <SCORE.INTER.CONST>
1

>  <SCORE.INTER.POLAR>
-2.01941

>  <SCORE.INTER.ROT>
0

>  <SCORE.INTER.SOLV>
12.6756

>  <SCORE.INTER.VDW>
-18.3674

>  <SCORE.INTER.norm>
-2.59103

>  <SCORE.INTRA>
0

>  <SCORE.INTRA.DIHEDRAL>
0

>  <SCORE.INTRA.DIHEDRAL.0>
0

>  <SCORE.INTRA.POLAR>
0

>  <SCORE.INTRA.POLAR.0>
0

>  <SCORE.INTRA.REPUL>
0

>  <SCORE.INTRA.REPUL.0>
0

>  <SCORE.INTRA.SOLV>
0

>  <SCORE.INTRA.SOLV.lig_0>
-16.9472

>  <SCORE.INTRA.VDW>
0

>  <SCORE.INTRA.VDW.0>
0

>  <SCORE.INTRA.norm>
0

>  <SCORE.RESTR>
0

>  <SCORE.RESTR.CAVITY>
0

>  <SCORE.RESTR.norm>
0

>  <SCORE.SYSTEM>
0

>  <SCORE.SYSTEM.CONST>
0

>  <SCORE.SYSTEM.DIHEDRAL>
0

>  <SCORE.SYSTEM.SOLV>
0

>  <SCORE.SYSTEM.norm>
0

>  <SCORE.heavy>
10

>  <SCORE.norm>
-2.59103

>  <RMSD>
2.435

$$$$
1y26_lig
 OpenBabel02141814133D
libRbt.so/2013.1/901 2013/11/27
 10 11  0  0  0  0  0  0  0  0999 V2000
   19.5169  -16.7717    2.8365 N   0  0  0  0  0  0  0  0  0  0  0  0
   20.1966  -16.0558    3.7356 C   0  0  0  0  0  0  0  0  0  0  0  0
   20.4323  -16.3435    5.0141 N   0  0  0  0  0  0  0  0  0  0  0  0
   19.8982  -17.5409    5.3446 C   0  0  0  0  0  0  0  0  0  0  0  0
   19.1857  -18.3904    4.5218 C   0  0  0  0  0  0  0  0  0  0  0  0
   18.9951  -17.9600    3.2053 C   0  0  0  0  0  0  0  0  0  0  0  0
   18.3132  -18.6861    2.3342 N   0  0  0  0  0  0  0  0  0  0  0  0
   18.7728  -19.5279    5.1757 N   0  0  0  0  0  0  0  0  0  0  0  0
   19.2716  -19.3656    6.3875 C   0  0  0  0  0  0  0  0  0  0  0  0
   19.9515  -18.1785    6.5555 N   0  0  0  0  0  0  0  0  0  0  0  0
  1  2  2  0  0  0  0
  2  3  1  0  0  0  0
  3  4  2  0  0  0  0
  5  4  1  0  0  0  0
  5  6  2  0  0  0  0
  6  1  1  0  0  0  0
  6  7  1  0  0  0  0
  8  5  1  0  0  0  0
  9  8  1  0  0  0  0
 10  4  1  0  0  0  0
 10  9  2  0  0  0  0
M  END
>  <CHROM.1>
19.45343722,-17.88089657,4.50982113,-1.63294986,1.01040369,2.10959465

>  <Name>
1y26_lig

>  <RI>
224

>  <Rbt.Current_Directory>
/home/afrankz/demos/rdock_decoys_rna/rnas/1y26

>  <Rbt.Executable>
rbdock ($Id: //depot/dev/client3/rdock/2013.1/src/exe/rbdock.cxx#4 $)

>  <Rbt.Library>
libRbt.so (2013.1, Build901 2013/11/27)

>  <Rbt.Parameter_File>
/export/apps/rDock/src/rDock_2013.1_src/data/scripts/dock_solv.prm

>  <Rbt.Receptor>
prm/pocket_docking_7.prm

>  <SCORE>
-25.9063

>  <SCORE.INTER>
-25.9063

>  <SCORE.INTER.CONST>
1

>  <SCORE.INTER.POLAR>
-2.01831

>  <SCORE.INTER.ROT>
0

>  <SCORE.INTER.SOLV>
12.6795

>  <SCORE.INTER.VDW>
-18.3696

>  <SCORE.INTER.norm>
-2.59063

>  <SCORE.INTRA>
0

>  <SCORE.INTRA.DIHEDRAL>
0

>  <SCORE.INTRA.DIHEDRAL.0>
0

>  <SCORE.INTRA.POLAR>
0

>  <SCORE.INTRA.POLAR.0>
0

>  <SCORE.INTRA.REPUL>
0

>  <SCORE.INTRA.REPUL.0>
0

>  <SCORE.INTRA.SOLV>
0

>  <SCORE.INTRA.SOLV.lig_0>
-16.9472

>  <SCORE.INTRA.VDW>
0

>  <SCORE.INTRA.VDW.0>
0

>  <SCORE.INTRA.norm>
0

>  <SCORE.RESTR>
0

>  <SCORE.RESTR.CAVITY>
0

>  <SCORE.RESTR.norm>
0

>  <SCORE.SYSTEM>
0

>  <SCORE.SYSTEM.CONST>
0

>  <SCORE.SYSTEM.DIHEDRAL>
0

>  <SCORE.SYSTEM.SOLV>
0

>  <SCORE.SYSTEM.norm>
0

>  <SCORE.heavy>
10

>  <SCORE.norm>
-2.59063

>  <RMSD>
2.435

$$$$
1y26_lig
 OpenBabel02141814133D
libRbt.so/2013.1/901 2013/11/27
 10 11  0  0  0  0  0  0  0  0999 V2000
   19.5179  -16.7694    2.8418 N   0  0  0  0  0  0  0  0  0  0  0  0
   20.2091  -16.0624    3.7393 C   0  0  0  0  0  0  0  0  0  0  0  0
   20.4504  -16.3569    5.0152 N   0  0  0  0  0  0  0  0  0  0  0  0
   19.9086  -17.5511    5.3446 C   0  0  0  0  0  0  0  0  0  0  0  0
   19.1839  -18.3915    4.5231 C   0  0  0  0  0  0  0  0  0  0  0  0
   18.9886  -17.9547    3.2095 C   0  0  0  0  0  0  0  0  0  0  0  0
   18.2953  -18.6718    2.3400 N   0  0  0  0  0  0  0  0  0  0  0  0
   18.7657  -19.5281    5.1754 N   0  0  0  0  0  0  0  0  0  0  0  0
   19.2734  -19.3744    6.3846 C   0  0  0  0  0  0  0  0  0  0  0  0
   19.9641  -18.1936    6.5527 N   0  0  0  0  0  0  0  0  0  0  0  0
  1  2  2  0  0  0  0
  2  3  1  0  0  0  0
  3  4  2  0  0  0  0
  5  4  1  0  0  0  0
  5  6  2  0  0  0  0
  6  1  1  0  0  0  0
  6  7  1  0  0  0  0
  8  5  1  0  0  0  0
  9  8  1  0  0  0  0
 10  4  1  0  0  0  0
 10  9  2  0  0  0  0
M  END
>  <CHROM.1>
19.45576835,-17.88424289,4.51136787,-1.63504428,1.00009587,2.11510462

>  <Name>
1y26_lig

>  <RI>
0

>  <Rbt.Current_Directory>
/home/afrankz/demos/rdock_decoys_rna/rnas/1y26

>  <Rbt.Executable>
rbdock ($Id: //depot/dev/client3/rdock/2013.1/src/exe/rbdock.cxx#4 $)

>  <Rbt.Library>
libRbt.so (2013.1, Build901 2013/11/27)

>  <Rbt.Parameter_File>
/export/apps/rDock/src/rDock_2013.1_src/data/scripts/dock_solv.prm

>  <Rbt.Receptor>
prm/blind_docking_100.prm

>  <SCORE>
-25.9131

>  <SCORE.INTER>
-25.9131

>  <SCORE.INTER.CONST>
1

>  <SCORE.INTER.POLAR>
-2.01953

>  <SCORE.INTER.ROT>
0

>  <SCORE.INTER.SOLV>
12.6726

>  <SCORE.INTER.VDW>
-18.3678

>  <SCORE.INTER.norm>
-2.59131

>  <SCORE.INTRA>
0

>  <SCORE.INTRA.DIHEDRAL>
0

>  <SCORE.INTRA.DIHEDRAL.0>
0

>  <SCORE.INTRA.POLAR>
0

>  <SCORE.INTRA.POLAR.0>
0

>  <SCORE.INTRA.REPUL>
0

>  <SCORE.INTRA.REPUL.0>
0

>  <SCORE.INTRA.SOLV>
0

>  <SCORE.INTRA.SOLV.lig_0>
-16.9472

>  <SCORE.INTRA.VDW>
0

>  <SCORE.INTRA.VDW.0>
0

>  <SCORE.INTRA.norm>
0

>  <SCORE.RESTR>
0

>  <SCORE.RESTR.CAVITY>
0

>  <SCORE.RESTR.norm>
0

>  <SCORE.SYSTEM>
0

>  <SCORE.SYSTEM.CONST>
0

>  <SCORE.SYSTEM.DIHEDRAL>
0

>  <SCORE.SYSTEM.SOLV>
0

>  <SCORE.SYSTEM.norm>
0

>  <SCORE.heavy>
10

>  <SCORE.norm>
-2.59131

>  <RMSD>
2.436

$$$$
1y26_lig
 OpenBabel02141814133D
libRbt.so/2013.1/901 2013/11/27
 10 11  0  0  0  0  0  0  0  0999 V2000
   19.5110  -16.7641    2.8372 N   0  0  0  0  0  0  0  0  0  0  0  0
   20.2099  -16.0608    3.7317 C   0  0  0  0  0  0  0  0  0  0  0  0
   20.4594  -16.3590    5.0052 N   0  0  0  0  0  0  0  0  0  0  0  0
   19.9173  -17.5529    5.3353 C   0  0  0  0  0  0  0  0  0  0  0  0
   19.1853  -18.3898    4.5167 C   0  0  0  0  0  0  0  0  0  0  0  0
   18.9819  -17.9492    3.2055 C   0  0  0  0  0  0  0  0  0  0  0  0
   18.2811  -18.6627    2.3390 N   0  0  0  0  0  0  0  0  0  0  0  0
   18.7691  -19.5271    5.1690 N   0  0  0  0  0  0  0  0  0  0  0  0
   19.2855  -19.3775    6.3750 C   0  0  0  0  0  0  0  0  0  0  0  0
   19.9798  -18.1986    6.5414 N   0  0  0  0  0  0  0  0  0  0  0  0
  1  2  2  0  0  0  0
  2  3  1  0  0  0  0
  3  4  2  0  0  0  0
  5  4  1  0  0  0  0
  5  6  2  0  0  0  0
  6  1  1  0  0  0  0
  6  7  1  0  0  0  0
  8  5  1  0  0  0  0
  9  8  1  0  0  0  0
 10  4  1  0  0  0  0
 10  9  2  0  0  0  0
M  END
>  <CHROM.1>
19.45806878,-17.88302527,4.50432819,-1.64384304,0.99473386,2.12500299

>  <Name>
1y26_lig

>  <RI>
0

>  <Rbt.Current_Directory>
/home/afrankz/demos/rdock_decoys_rna/rnas/1y26

>  <Rbt.Executable>
rbdock ($Id: //depot/dev/client3/rdock/2013.1/src/exe/rbdock.cxx#4 $)

>  <Rbt.Library>
libRbt.so (2013.1, Build901 2013/11/27)

>  <Rbt.Parameter_File>
/export/apps/rDock/src/rDock_2013.1_src/data/scripts/dock_solv.prm

>  <Rbt.Receptor>
prm/blind_docking_60.prm

>  <SCORE>
-25.9066

>  <SCORE.INTER>
-25.9066

>  <SCORE.INTER.CONST>
1

>  <SCORE.INTER.POLAR>
-2.01928

>  <SCORE.INTER.ROT>
0

>  <SCORE.INTER.SOLV>
12.6789

>  <SCORE.INTER.VDW>
-18.3665

>  <SCORE.INTER.norm>
-2.59066

>  <SCORE.INTRA>
0

>  <SCORE.INTRA.DIHEDRAL>
0

>  <SCORE.INTRA.DIHEDRAL.0>
0

>  <SCORE.INTRA.POLAR>
0

>  <SCORE.INTRA.POLAR.0>
0

>  <SCORE.INTRA.REPUL>
0

>  <SCORE.INTRA.REPUL.0>
0

>  <SCORE.INTRA.SOLV>
0

>  <SCORE.INTRA.SOLV.lig_0>
-16.9472

>  <SCORE.INTRA.VDW>
0

>  <SCORE.INTRA.VDW.0>
0

>  <SCORE.INTRA.norm>
0

>  <SCORE.RESTR>
0

>  <SCORE.RESTR.CAVITY>
0

>  <SCORE.RESTR.norm>
0

>  <SCORE.SYSTEM>
0

>  <SCORE.SYSTEM.CONST>
0

>  <SCORE.SYSTEM.DIHEDRAL>
0

>  <SCORE.SYSTEM.SOLV>
0

>  <SCORE.SYSTEM.norm>
0

>  <SCORE.heavy>
10

>  <SCORE.norm>
-2.59066

>  <RMSD>
2.436

$$$$
1y26_lig
 OpenBabel02141814133D
libRbt.so/2013.1/901 2013/11/27
 10 11  0  0  0  0  0  0  0  0999 V2000
   19.5138  -16.7691    2.8407 N   0  0  0  0  0  0  0  0  0  0  0  0
   20.1946  -16.0544    3.7402 C   0  0  0  0  0  0  0  0  0  0  0  0
   20.4313  -16.3438    5.0181 N   0  0  0  0  0  0  0  0  0  0  0  0
   19.8970  -17.5414    5.3476 C   0  0  0  0  0  0  0  0  0  0  0  0
   19.1836  -18.3896    4.5243 C   0  0  0  0  0  0  0  0  0  0  0  0
   18.9920  -17.9576    3.2086 C   0  0  0  0  0  0  0  0  0  0  0  0
   18.3091  -18.6824    2.3371 N   0  0  0  0  0  0  0  0  0  0  0  0
   18.7707  -19.5278    5.1773 N   0  0  0  0  0  0  0  0  0  0  0  0
   19.2707  -19.3670    6.3888 C   0  0  0  0  0  0  0  0  0  0  0  0
   19.9511  -18.1804    6.5576 N   0  0  0  0  0  0  0  0  0  0  0  0
  1  2  2  0  0  0  0
  2  3  1  0  0  0  0
  3  4  2  0  0  0  0
  5  4  1  0  0  0  0
  5  6  2  0  0  0  0
  6  1  1  0  0  0  0
  6  7  1  0  0  0  0
  8  5  1  0  0  0  0
  9  8  1  0  0  0  0
 10  4  1  0  0  0  0
 10  9  2  0  0  0  0
M  END
>  <CHROM.1>
19.45144110,-17.88019178,4.51276676,-1.63396497,1.00967005,2.11165922

>  <Name>
1y26_lig

>  <RI>
0

>  <Rbt.Current_Directory>
/home/afrankz/demos/rdock_decoys_rna/rnas/1y26

>  <Rbt.Executable>
rbdock ($Id: //depot/dev/client3/rdock/2013.1/src/exe/rbdock.cxx#4 $)

>  <Rbt.Library>
libRbt.so (2013.1, Build901 2013/11/27)

>  <Rbt.Parameter_File>
/export/apps/rDock/src/rDock_2013.1_src/data/scripts/dock_solv.prm

>  <Rbt.Receptor>
prm/blind_docking_60.prm

>  <SCORE>
-25.9087

>  <SCORE.INTER>
-25.9087

>  <SCORE.INTER.CONST>
1

>  <SCORE.INTER.POLAR>
-2.0193

>  <SCORE.INTER.ROT>
0

>  <SCORE.INTER.SOLV>
12.6843

>  <SCORE.INTER.VDW>
-18.3696

>  <SCORE.INTER.norm>
-2.59087

>  <SCORE.INTRA>
0

>  <SCORE.INTRA.DIHEDRAL>
0

>  <SCORE.INTRA.DIHEDRAL.0>
0

>  <SCORE.INTRA.POLAR>
0

>  <SCORE.INTRA.POLAR.0>
0

>  <SCORE.INTRA.REPUL>
0

>  <SCORE.INTRA.REPUL.0>
0

>  <SCORE.INTRA.SOLV>
0

>  <SCORE.INTRA.SOLV.lig_0>
-16.9472

>  <SCORE.INTRA.VDW>
0

>  <SCORE.INTRA.VDW.0>
0

>  <SCORE.INTRA.norm>
0

>  <SCORE.RESTR>
0

>  <SCORE.RESTR.CAVITY>
0

>  <SCORE.RESTR.norm>
0

>  <SCORE.SYSTEM>
0

>  <SCORE.SYSTEM.CONST>
0

>  <SCORE.SYSTEM.DIHEDRAL>
0

>  <SCORE.SYSTEM.SOLV>
0

>  <SCORE.SYSTEM.norm>
0

>  <SCORE.heavy>
10

>  <SCORE.norm>
-2.59087

>  <RMSD>
2.436

$$$$
1y26_lig
 OpenBabel02141814133D
libRbt.so/2013.1/901 2013/11/27
 10 11  0  0  0  0  0  0  0  0999 V2000
   19.5110  -16.7652    2.8366 N   0  0  0  0  0  0  0  0  0  0  0  0
   20.2034  -16.0570    3.7323 C   0  0  0  0  0  0  0  0  0  0  0  0
   20.4492  -16.3514    5.0074 N   0  0  0  0  0  0  0  0  0  0  0  0
   19.9110  -17.5469    5.3380 C   0  0  0  0  0  0  0  0  0  0  0  0
   19.1857  -18.3886    4.5183 C   0  0  0  0  0  0  0  0  0  0  0  0
   18.9855  -17.9517    3.2055 C   0  0  0  0  0  0  0  0  0  0  0  0
   18.2911  -18.6701    2.3378 N   0  0  0  0  0  0  0  0  0  0  0  0
   18.7719  -19.5263    5.1715 N   0  0  0  0  0  0  0  0  0  0  0  0
   19.2829  -19.3719    6.3792 C   0  0  0  0  0  0  0  0  0  0  0  0
   19.9715  -18.1897    6.5457 N   0  0  0  0  0  0  0  0  0  0  0  0
  1  2  2  0  0  0  0
  2  3  1  0  0  0  0
  3  4  2  0  0  0  0
  5  4  1  0  0  0  0
  5  6  2  0  0  0  0
  6  1  1  0  0  0  0
  6  7  1  0  0  0  0
  8  5  1  0  0  0  0
  9  8  1  0  0  0  0
 10  4  1  0  0  0  0
 10  9  2  0  0  0  0
M  END
>  <CHROM.1>
19.45638192,-17.88073819,4.50597794,-1.64189439,1.00039107,2.12121107

>  <Name>
1y26_lig

>  <RI>
224

>  <Rbt.Current_Directory>
/home/afrankz/demos/rdock_decoys_rna/rnas/1y26

>  <Rbt.Executable>
rbdock ($Id: //depot/dev/client3/rdock/2013.1/src/exe/rbdock.cxx#4 $)

>  <Rbt.Library>
libRbt.so (2013.1, Build901 2013/11/27)

>  <Rbt.Parameter_File>
/export/apps/rDock/src/rDock_2013.1_src/data/scripts/dock_solv.prm

>  <Rbt.Receptor>
prm/blind_docking_80.prm

>  <SCORE>
-25.91

>  <SCORE.INTER>
-25.91

>  <SCORE.INTER.CONST>
1

>  <SCORE.INTER.POLAR>
-2.0198

>  <SCORE.INTER.ROT>
0

>  <SCORE.INTER.SOLV>
12.681

>  <SCORE.INTER.VDW>
-18.3677

>  <SCORE.INTER.norm>
-2.591

>  <SCORE.INTRA>
0

>  <SCORE.INTRA.DIHEDRAL>
0

>  <SCORE.INTRA.DIHEDRAL.0>
0

>  <SCORE.INTRA.POLAR>
0

>  <SCORE.INTRA.POLAR.0>
0

>  <SCORE.INTRA.REPUL>
0

>  <SCORE.INTRA.REPUL.0>
0

>  <SCORE.INTRA.SOLV>
0

>  <SCORE.INTRA.SOLV.lig_0>
-16.9472

>  <SCORE.INTRA.VDW>
0

>  <SCORE.INTRA.VDW.0>
0

>  <SCORE.INTRA.norm>
0

>  <SCORE.RESTR>
0

>  <SCORE.RESTR.CAVITY>
0

>  <SCORE.RESTR.norm>
0

>  <SCORE.SYSTEM>
0

>  <SCORE.SYSTEM.CONST>
0

>  <SCORE.SYSTEM.DIHEDRAL>
0

>  <SCORE.SYSTEM.SOLV>
0

>  <SCORE.SYSTEM.norm>
0

>  <SCORE.heavy>
10

>  <SCORE.norm>
-2.591

>  <RMSD>
2.436

$$$$
1y26_lig
 OpenBabel02141814133D
libRbt.so/2013.1/901 2013/11/27
 10 11  0  0  0  0  0  0  0  0999 V2000
   19.5088  -16.7638    2.8376 N   0  0  0  0  0  0  0  0  0  0  0  0
   20.2003  -16.0555    3.7339 C   0  0  0  0  0  0  0  0  0  0  0  0
   20.4461  -16.3504    5.0089 N   0  0  0  0  0  0  0  0  0  0  0  0
   19.9088  -17.5466    5.3386 C   0  0  0  0  0  0  0  0  0  0  0  0
   19.1845  -18.3885    4.5183 C   0  0  0  0  0  0  0  0  0  0  0  0
   18.9843  -17.9510    3.2056 C   0  0  0  0  0  0  0  0  0  0  0  0
   18.2908  -18.6695    2.3373 N   0  0  0  0  0  0  0  0  0  0  0  0
   18.7715  -19.5270    5.1707 N   0  0  0  0  0  0  0  0  0  0  0  0
   19.2821  -19.3729    6.3786 C   0  0  0  0  0  0  0  0  0  0  0  0
   19.9696  -18.1901    6.5460 N   0  0  0  0  0  0  0  0  0  0  0  0
  1  2  2  0  0  0  0
  2  3  1  0  0  0  0
  3  4  2  0  0  0  0
  5  4  1  0  0  0  0
  5  6  2  0  0  0  0
  6  1  1  0  0  0  0
  6  7  1  0  0  0  0
  8  5  1  0  0  0  0
  9  8  1  0  0  0  0
 10  4  1  0  0  0  0
 10  9  2  0  0  0  0
M  END
>  <CHROM.1>
19.45473359,-17.88037810,4.50629897,-1.64234874,1.00130976,2.12219171

>  <Name>
1y26_lig

>  <RI>
224

>  <Rbt.Current_Directory>
/home/afrankz/demos/rdock_decoys_rna/rnas/1y26

>  <Rbt.Executable>
rbdock ($Id: //depot/dev/client3/rdock/2013.1/src/exe/rbdock.cxx#4 $)

>  <Rbt.Library>
libRbt.so (2013.1, Build901 2013/11/27)

>  <Rbt.Parameter_File>
/export/apps/rDock/src/rDock_2013.1_src/data/scripts/dock_solv.prm

>  <Rbt.Receptor>
prm/blind_docking_80.prm

>  <SCORE>
-25.9078

>  <SCORE.INTER>
-25.9078

>  <SCORE.INTER.CONST>
1

>  <SCORE.INTER.POLAR>
-2.01838

>  <SCORE.INTER.ROT>
0

>  <SCORE.INTER.SOLV>
12.6865

>  <SCORE.INTER.VDW>
-18.3728

>  <SCORE.INTER.norm>
-2.59078

>  <SCORE.INTRA>
0

>  <SCORE.INTRA.DIHEDRAL>
0

>  <SCORE.INTRA.DIHEDRAL.0>
0

>  <SCORE.INTRA.POLAR>
0

>  <SCORE.INTRA.POLAR.0>
0

>  <SCORE.INTRA.REPUL>
0

>  <SCORE.INTRA.REPUL.0>
0

>  <SCORE.INTRA.SOLV>
0

>  <SCORE.INTRA.SOLV.lig_0>
-16.9472

>  <SCORE.INTRA.VDW>
0

>  <SCORE.INTRA.VDW.0>
0

>  <SCORE.INTRA.norm>
0

>  <SCORE.RESTR>
0

>  <SCORE.RESTR.CAVITY>
0

>  <SCORE.RESTR.norm>
0

>  <SCORE.SYSTEM>
0

>  <SCORE.SYSTEM.CONST>
0

>  <SCORE.SYSTEM.DIHEDRAL>
0

>  <SCORE.SYSTEM.SOLV>
0

>  <SCORE.SYSTEM.norm>
0

>  <SCORE.heavy>
10

>  <SCORE.norm>
-2.59078

>  <RMSD>
2.436

$$$$
1y26_lig
 OpenBabel02141814133D
libRbt.so/2013.1/901 2013/11/27
 10 11  0  0  0  0  0  0  0  0999 V2000
   19.5148  -16.7686    2.8403 N   0  0  0  0  0  0  0  0  0  0  0  0
   20.2038  -16.0594    3.7378 C   0  0  0  0  0  0  0  0  0  0  0  0
   20.4474  -16.3538    5.0134 N   0  0  0  0  0  0  0  0  0  0  0  0
   19.9107  -17.5505    5.3423 C   0  0  0  0  0  0  0  0  0  0  0  0
   19.1889  -18.3933    4.5207 C   0  0  0  0  0  0  0  0  0  0  0  0
   18.9908  -17.9563    3.2076 C   0  0  0  0  0  0  0  0  0  0  0  0
   18.2998  -18.6757    2.3381 N   0  0  0  0  0  0  0  0  0  0  0  0
   18.7759  -19.5321    5.1726 N   0  0  0  0  0  0  0  0  0  0  0  0
   19.2840  -19.3772    6.3814 C   0  0  0  0  0  0  0  0  0  0  0  0
   19.9699  -18.1937    6.5499 N   0  0  0  0  0  0  0  0  0  0  0  0
  1  2  2  0  0  0  0
  2  3  1  0  0  0  0
  3  4  2  0  0  0  0
  5  4  1  0  0  0  0
  5  6  2  0  0  0  0
  6  1  1  0  0  0  0
  6  7  1  0  0  0  0
  8  5  1  0  0  0  0
  9  8  1  0  0  0  0
 10  4  1  0  0  0  0
 10  9  2  0  0  0  0
M  END
>  <CHROM.1>
19.45865424,-17.88491631,4.50915672,-1.64028614,1.00324017,2.12023995

>  <Name>
1y26_lig

>  <RI>
224

>  <Rbt.Current_Directory>
/home/afrankz/demos/rdock_decoys_rna/rnas/1y26

>  <Rbt.Executable>
rbdock ($Id: //depot/dev/client3/rdock/2013.1/src/exe/rbdock.cxx#4 $)

>  <Rbt.Library>
libRbt.so (2013.1, Build901 2013/11/27)

>  <Rbt.Parameter_File>
/export/apps/rDock/src/rDock_2013.1_src/data/scripts/dock_solv.prm

>  <Rbt.Receptor>
prm/blind_docking_80.prm

>  <SCORE>
-25.911

>  <SCORE.INTER>
-25.911

>  <SCORE.INTER.CONST>
1

>  <SCORE.INTER.POLAR>
-2.0197

>  <SCORE.INTER.ROT>
0

>  <SCORE.INTER.SOLV>
12.6829

>  <SCORE.INTER.VDW>
-18.3693

>  <SCORE.INTER.norm>
-2.5911

>  <SCORE.INTRA>
0

>  <SCORE.INTRA.DIHEDRAL>
0

>  <SCORE.INTRA.DIHEDRAL.0>
0

>  <SCORE.INTRA.POLAR>
0

>  <SCORE.INTRA.POLAR.0>
0

>  <SCORE.INTRA.REPUL>
0

>  <SCORE.INTRA.REPUL.0>
0

>  <SCORE.INTRA.SOLV>
0

>  <SCORE.INTRA.SOLV.lig_0>
-16.9472

>  <SCORE.INTRA.VDW>
0

>  <SCORE.INTRA.VDW.0>
0

>  <SCORE.INTRA.norm>
0

>  <SCORE.RESTR>
0

>  <SCORE.RESTR.CAVITY>
0

>  <SCORE.RESTR.norm>
0

>  <SCORE.SYSTEM>
0

>  <SCORE.SYSTEM.CONST>
0

>  <SCORE.SYSTEM.DIHEDRAL>
0

>  <SCORE.SYSTEM.SOLV>
0

>  <SCORE.SYSTEM.norm>
0

>  <SCORE.heavy>
10

>  <SCORE.norm>
-2.5911

>  <RMSD>
2.436

$$$$
1y26_lig
 OpenBabel02141814133D
libRbt.so/2013.1/901 2013/11/27
 10 11  0  0  0  0  0  0  0  0999 V2000
   19.5134  -16.7667    2.8365 N   0  0  0  0  0  0  0  0  0  0  0  0
   20.2074  -16.0595    3.7317 C   0  0  0  0  0  0  0  0  0  0  0  0
   20.4573  -16.3563    5.0054 N   0  0  0  0  0  0  0  0  0  0  0  0
   19.9217  -17.5532    5.3350 C   0  0  0  0  0  0  0  0  0  0  0  0
   19.1952  -18.3942    4.5157 C   0  0  0  0  0  0  0  0  0  0  0  0
   18.9906  -17.9548    3.2043 C   0  0  0  0  0  0  0  0  0  0  0  0
   18.2947  -18.6722    2.3371 N   0  0  0  0  0  0  0  0  0  0  0  0
   18.7848  -19.5339    5.1676 N   0  0  0  0  0  0  0  0  0  0  0  0
   19.2992  -19.3814    6.3741 C   0  0  0  0  0  0  0  0  0  0  0  0
   19.9866  -18.1986    6.5411 N   0  0  0  0  0  0  0  0  0  0  0  0
  1  2  2  0  0  0  0
  2  3  1  0  0  0  0
  3  4  2  0  0  0  0
  5  4  1  0  0  0  0
  5  6  2  0  0  0  0
  6  1  1  0  0  0  0
  6  7  1  0  0  0  0
  8  5  1  0  0  0  0
  9  8  1  0  0  0  0
 10  4  1  0  0  0  0
 10  9  2  0  0  0  0
M  END
>  <CHROM.1>
19.46513163,-17.88594061,4.50361428,-1.64781097,1.00004266,2.12835443

>  <Name>
1y26_lig

>  <RI>
224

>  <Rbt.Current_Directory>
/home/afrankz/demos/rdock_decoys_rna/rnas/1y26

>  <Rbt.Executable>
rbdock ($Id: //depot/dev/client3/rdock/2013.1/src/exe/rbdock.cxx#4 $)

>  <Rbt.Library>
libRbt.so (2013.1, Build901 2013/11/27)

>  <Rbt.Parameter_File>
/export/apps/rDock/src/rDock_2013.1_src/data/scripts/dock_solv.prm

>  <Rbt.Receptor>
prm/blind_docking_80.prm

>  <SCORE>
-25.9003

>  <SCORE.INTER>
-25.9003

>  <SCORE.INTER.CONST>
1

>  <SCORE.INTER.POLAR>
-2.01899

>  <SCORE.INTER.ROT>
0

>  <SCORE.INTER.SOLV>
12.6837

>  <SCORE.INTER.VDW>
-18.3649

>  <SCORE.INTER.norm>
-2.59003

>  <SCORE.INTRA>
0

>  <SCORE.INTRA.DIHEDRAL>
0

>  <SCORE.INTRA.DIHEDRAL.0>
0

>  <SCORE.INTRA.POLAR>
0

>  <SCORE.INTRA.POLAR.0>
0

>  <SCORE.INTRA.REPUL>
0

>  <SCORE.INTRA.REPUL.0>
0

>  <SCORE.INTRA.SOLV>
0

>  <SCORE.INTRA.SOLV.lig_0>
-16.9472

>  <SCORE.INTRA.VDW>
0

>  <SCORE.INTRA.VDW.0>
0

>  <SCORE.INTRA.norm>
0

>  <SCORE.RESTR>
0

>  <SCORE.RESTR.CAVITY>
0

>  <SCORE.RESTR.norm>
0

>  <SCORE.SYSTEM>
0

>  <SCORE.SYSTEM.CONST>
0

>  <SCORE.SYSTEM.DIHEDRAL>
0

>  <SCORE.SYSTEM.SOLV>
0

>  <SCORE.SYSTEM.norm>
0

>  <SCORE.heavy>
10

>  <SCORE.norm>
-2.59003

>  <RMSD>
2.436

$$$$
1y26_lig
 OpenBabel02141814133D
libRbt.so/2013.1/901 2013/11/27
 10 11  0  0  0  0  0  0  0  0999 V2000
   19.5178  -16.7696    2.8389 N   0  0  0  0  0  0  0  0  0  0  0  0
   20.2073  -16.0602    3.7358 C   0  0  0  0  0  0  0  0  0  0  0  0
   20.4494  -16.3531    5.0120 N   0  0  0  0  0  0  0  0  0  0  0  0
   19.9105  -17.5484    5.3423 C   0  0  0  0  0  0  0  0  0  0  0  0
   19.1880  -18.3913    4.5215 C   0  0  0  0  0  0  0  0  0  0  0  0
   18.9915  -17.9559    3.2075 C   0  0  0  0  0  0  0  0  0  0  0  0
   18.3000  -18.6755    2.3386 N   0  0  0  0  0  0  0  0  0  0  0  0
   18.7726  -19.5284    5.1747 N   0  0  0  0  0  0  0  0  0  0  0  0
   19.2801  -19.3725    6.3837 C   0  0  0  0  0  0  0  0  0  0  0  0
   19.9678  -18.1898    6.5509 N   0  0  0  0  0  0  0  0  0  0  0  0
  1  2  2  0  0  0  0
  2  3  1  0  0  0  0
  3  4  2  0  0  0  0
  5  4  1  0  0  0  0
  5  6  2  0  0  0  0
  6  1  1  0  0  0  0
  6  7  1  0  0  0  0
  8  5  1  0  0  0  0
  9  8  1  0  0  0  0
 10  4  1  0  0  0  0
 10  9  2  0  0  0  0
M  END
>  <CHROM.1>
19.45852982,-17.88332345,4.50934127,-1.63754121,1.00222702,2.11642558

>  <Name>
1y26_lig

>  <RI>
224

>  <Rbt.Current_Directory>
/home/afrankz/demos/rdock_decoys_rna/rnas/1y26

>  <Rbt.Executable>
rbdock ($Id: //depot/dev/client3/rdock/2013.1/src/exe/rbdock.cxx#4 $)

>  <Rbt.Library>
libRbt.so (2013.1, Build901 2013/11/27)

>  <Rbt.Parameter_File>
/export/apps/rDock/src/rDock_2013.1_src/data/scripts/dock_solv.prm

>  <Rbt.Receptor>
prm/blind_docking_80.prm

>  <SCORE>
-25.9123

>  <SCORE.INTER>
-25.9123

>  <SCORE.INTER.CONST>
1

>  <SCORE.INTER.POLAR>
-2.01979

>  <SCORE.INTER.ROT>
0

>  <SCORE.INTER.SOLV>
12.6735

>  <SCORE.INTER.VDW>
-18.3667

>  <SCORE.INTER.norm>
-2.59123

>  <SCORE.INTRA>
0

>  <SCORE.INTRA.DIHEDRAL>
0

>  <SCORE.INTRA.DIHEDRAL.0>
0

>  <SCORE.INTRA.POLAR>
0

>  <SCORE.INTRA.POLAR.0>
0

>  <SCORE.INTRA.REPUL>
0

>  <SCORE.INTRA.REPUL.0>
0

>  <SCORE.INTRA.SOLV>
0

>  <SCORE.INTRA.SOLV.lig_0>
-16.9472

>  <SCORE.INTRA.VDW>
0

>  <SCORE.INTRA.VDW.0>
0

>  <SCORE.INTRA.norm>
0

>  <SCORE.RESTR>
0

>  <SCORE.RESTR.CAVITY>
0

>  <SCORE.RESTR.norm>
0

>  <SCORE.SYSTEM>
0

>  <SCORE.SYSTEM.CONST>
0

>  <SCORE.SYSTEM.DIHEDRAL>
0

>  <SCORE.SYSTEM.SOLV>
0

>  <SCORE.SYSTEM.norm>
0

>  <SCORE.heavy>
10

>  <SCORE.norm>
-2.59123

>  <RMSD>
2.436

$$$$
1y26_lig
 OpenBabel02141814133D
libRbt.so/2013.1/901 2013/11/27
 10 11  0  0  0  0  0  0  0  0999 V2000
   19.5251  -16.7753    2.8449 N   0  0  0  0  0  0  0  0  0  0  0  0
   20.2123  -16.0666    3.7442 C   0  0  0  0  0  0  0  0  0  0  0  0
   20.4508  -16.3602    5.0208 N   0  0  0  0  0  0  0  0  0  0  0  0
   19.9108  -17.5556    5.3490 C   0  0  0  0  0  0  0  0  0  0  0  0
   19.1903  -18.3978    4.5257 C   0  0  0  0  0  0  0  0  0  0  0  0
   18.9976  -17.9617    3.2114 C   0  0  0  0  0  0  0  0  0  0  0  0
   18.3083  -18.6806    2.3402 N   0  0  0  0  0  0  0  0  0  0  0  0
   18.7728  -19.5352    5.1771 N   0  0  0  0  0  0  0  0  0  0  0  0
   19.2769  -19.3801    6.3876 C   0  0  0  0  0  0  0  0  0  0  0  0
   19.9645  -18.1978    6.5574 N   0  0  0  0  0  0  0  0  0  0  0  0
  1  2  2  0  0  0  0
  2  3  1  0  0  0  0
  3  4  2  0  0  0  0
  5  4  1  0  0  0  0
  5  6  2  0  0  0  0
  6  1  1  0  0  0  0
  6  7  1  0  0  0  0
  8  5  1  0  0  0  0
  9  8  1  0  0  0  0
 10  4  1  0  0  0  0
 10  9  2  0  0  0  0
M  END
>  <CHROM.1>
19.46099310,-17.88993585,4.51456370,-1.63287677,1.00344027,2.11306855

>  <Name>
1y26_lig

>  <RI>
224

>  <Rbt.Current_Directory>
/home/afrankz/demos/rdock_decoys_rna/rnas/1y26

>  <Rbt.Executable>
rbdock ($Id: //depot/dev/client3/rdock/2013.1/src/exe/rbdock.cxx#4 $)

>  <Rbt.Library>
libRbt.so (2013.1, Build901 2013/11/27)

>  <Rbt.Parameter_File>
/export/apps/rDock/src/rDock_2013.1_src/data/scripts/dock_solv.prm

>  <Rbt.Receptor>
prm/pocket_docking_3.prm

>  <SCORE>
-25.8739

>  <SCORE.INTER>
-25.8739

>  <SCORE.INTER.CONST>
1

>  <SCORE.INTER.POLAR>
-2.01977

>  <SCORE.INTER.ROT>
0

>  <SCORE.INTER.SOLV>
12.6697

>  <SCORE.INTER.VDW>
-18.3399

>  <SCORE.INTER.norm>
-2.58739

>  <SCORE.INTRA>
0

>  <SCORE.INTRA.DIHEDRAL>
0

>  <SCORE.INTRA.DIHEDRAL.0>
0

>  <SCORE.INTRA.POLAR>
0

>  <SCORE.INTRA.POLAR.0>
0

>  <SCORE.INTRA.REPUL>
0

>  <SCORE.INTRA.REPUL.0>
0

>  <SCORE.INTRA.SOLV>
0

>  <SCORE.INTRA.SOLV.lig_0>
-16.9472

>  <SCORE.INTRA.VDW>
0

>  <SCORE.INTRA.VDW.0>
0

>  <SCORE.INTRA.norm>
0

>  <SCORE.RESTR>
0

>  <SCORE.RESTR.CAVITY>
0

>  <SCORE.RESTR.norm>
0

>  <SCORE.SYSTEM>
0

>  <SCORE.SYSTEM.CONST>
0

>  <SCORE.SYSTEM.DIHEDRAL>
0

>  <SCORE.SYSTEM.SOLV>
0

>  <SCORE.SYSTEM.norm>
0

>  <SCORE.heavy>
10

>  <SCORE.norm>
-2.58739

>  <RMSD>
2.436

$$$$
1y26_lig
 OpenBabel02141814133D
libRbt.so/2013.1/901 2013/11/27
 10 11  0  0  0  0  0  0  0  0999 V2000
   19.5143  -16.7680    2.8374 N   0  0  0  0  0  0  0  0  0  0  0  0
   20.2035  -16.0579    3.7341 C   0  0  0  0  0  0  0  0  0  0  0  0
   20.4470  -16.3510    5.0100 N   0  0  0  0  0  0  0  0  0  0  0  0
   19.9102  -17.5472    5.3402 C   0  0  0  0  0  0  0  0  0  0  0  0
   19.1883  -18.3908    4.5196 C   0  0  0  0  0  0  0  0  0  0  0  0
   18.9902  -17.9552    3.2060 C   0  0  0  0  0  0  0  0  0  0  0  0
   18.2990  -18.6755    2.3373 N   0  0  0  0  0  0  0  0  0  0  0  0
   18.7751  -19.5289    5.1727 N   0  0  0  0  0  0  0  0  0  0  0  0
   19.2832  -19.3727    6.3813 C   0  0  0  0  0  0  0  0  0  0  0  0
   19.9693  -18.1891    6.5485 N   0  0  0  0  0  0  0  0  0  0  0  0
  1  2  2  0  0  0  0
  2  3  1  0  0  0  0
  3  4  2  0  0  0  0
  5  4  1  0  0  0  0
  5  6  2  0  0  0  0
  6  1  1  0  0  0  0
  6  7  1  0  0  0  0
  8  5  1  0  0  0  0
  9  8  1  0  0  0  0
 10  4  1  0  0  0  0
 10  9  2  0  0  0  0
M  END
>  <CHROM.1>
19.45804233,-17.88249046,4.50745787,-1.64018066,1.00311026,2.11907357

>  <Name>
1y26_lig

>  <RI>
224

>  <Rbt.Current_Directory>
/home/afrankz/demos/rdock_decoys_rna/rnas/1y26

>  <Rbt.Executable>
rbdock ($Id: //depot/dev/client3/rdock/2013.1/src/exe/rbdock.cxx#4 $)

>  <Rbt.Library>
libRbt.so (2013.1, Build901 2013/11/27)

>  <Rbt.Parameter_File>
/export/apps/rDock/src/rDock_2013.1_src/data/scripts/dock_solv.prm

>  <Rbt.Receptor>
prm/pocket_docking_3.prm

>  <SCORE>
-25.9115

>  <SCORE.INTER>
-25.9115

>  <SCORE.INTER.CONST>
1

>  <SCORE.INTER.POLAR>
-2.0198

>  <SCORE.INTER.ROT>
0

>  <SCORE.INTER.SOLV>
12.6796

>  <SCORE.INTER.VDW>
-18.3682

>  <SCORE.INTER.norm>
-2.59115

>  <SCORE.INTRA>
0

>  <SCORE.INTRA.DIHEDRAL>
0

>  <SCORE.INTRA.DIHEDRAL.0>
0

>  <SCORE.INTRA.POLAR>
0

>  <SCORE.INTRA.POLAR.0>
0

>  <SCORE.INTRA.REPUL>
0

>  <SCORE.INTRA.REPUL.0>
0

>  <SCORE.INTRA.SOLV>
0

>  <SCORE.INTRA.SOLV.lig_0>
-16.9472

>  <SCORE.INTRA.VDW>
0

>  <SCORE.INTRA.VDW.0>
0

>  <SCORE.INTRA.norm>
0

>  <SCORE.RESTR>
0

>  <SCORE.RESTR.CAVITY>
0

>  <SCORE.RESTR.norm>
0

>  <SCORE.SYSTEM>
0

>  <SCORE.SYSTEM.CONST>
0

>  <SCORE.SYSTEM.DIHEDRAL>
0

>  <SCORE.SYSTEM.SOLV>
0

>  <SCORE.SYSTEM.norm>
0

>  <SCORE.heavy>
10

>  <SCORE.norm>
-2.59115

>  <RMSD>
2.436

$$$$
1y26_lig
 OpenBabel02141814133D
libRbt.so/2013.1/901 2013/11/27
 10 11  0  0  0  0  0  0  0  0999 V2000
   19.5140  -16.7682    2.8432 N   0  0  0  0  0  0  0  0  0  0  0  0
   20.1964  -16.0552    3.7427 C   0  0  0  0  0  0  0  0  0  0  0  0
   20.4335  -16.3457    5.0203 N   0  0  0  0  0  0  0  0  0  0  0  0
   19.8976  -17.5427    5.3493 C   0  0  0  0  0  0  0  0  0  0  0  0
   19.1823  -18.3893    4.5260 C   0  0  0  0  0  0  0  0  0  0  0  0
   18.9905  -17.9561    3.2106 C   0  0  0  0  0  0  0  0  0  0  0  0
   18.3059  -18.6793    2.3391 N   0  0  0  0  0  0  0  0  0  0  0  0
   18.7681  -19.5273    5.1785 N   0  0  0  0  0  0  0  0  0  0  0  0
   19.2691  -19.3681    6.3897 C   0  0  0  0  0  0  0  0  0  0  0  0
   19.9515  -18.1826    6.5589 N   0  0  0  0  0  0  0  0  0  0  0  0
  1  2  2  0  0  0  0
  2  3  1  0  0  0  0
  3  4  2  0  0  0  0
  5  4  1  0  0  0  0
  5  6  2  0  0  0  0
  6  1  1  0  0  0  0
  6  7  1  0  0  0  0
  8  5  1  0  0  0  0
  9  8  1  0  0  0  0
 10  4  1  0  0  0  0
 10  9  2  0  0  0  0
M  END
>  <CHROM.1>
19.45093904,-17.88029780,4.51457028,-1.63353542,1.00800429,2.11194771

>  <Name>
1y26_lig

>  <RI>
224

>  <Rbt.Current_Directory>
/home/afrankz/demos/rdock_decoys_rna/rnas/1y26

>  <Rbt.Executable>
rbdock ($Id: //depot/dev/client3/rdock/2013.1/src/exe/rbdock.cxx#4 $)

>  <Rbt.Library>
libRbt.so (2013.1, Build901 2013/11/27)

>  <Rbt.Parameter_File>
/export/apps/rDock/src/rDock_2013.1_src/data/scripts/dock_solv.prm

>  <Rbt.Receptor>
prm/pocket_docking_3.prm

>  <SCORE>
-25.9116

>  <SCORE.INTER>
-25.9116

>  <SCORE.INTER.CONST>
1

>  <SCORE.INTER.POLAR>
-2.0198

>  <SCORE.INTER.ROT>
0

>  <SCORE.INTER.SOLV>
12.684

>  <SCORE.INTER.VDW>
-18.3697

>  <SCORE.INTER.norm>
-2.59116

>  <SCORE.INTRA>
0

>  <SCORE.INTRA.DIHEDRAL>
0

>  <SCORE.INTRA.DIHEDRAL.0>
0

>  <SCORE.INTRA.POLAR>
0

>  <SCORE.INTRA.POLAR.0>
0

>  <SCORE.INTRA.REPUL>
0

>  <SCORE.INTRA.REPUL.0>
0

>  <SCORE.INTRA.SOLV>
0

>  <SCORE.INTRA.SOLV.lig_0>
-16.9472

>  <SCORE.INTRA.VDW>
0

>  <SCORE.INTRA.VDW.0>
0

>  <SCORE.INTRA.norm>
0

>  <SCORE.RESTR>
0

>  <SCORE.RESTR.CAVITY>
0

>  <SCORE.RESTR.norm>
0

>  <SCORE.SYSTEM>
0

>  <SCORE.SYSTEM.CONST>
0

>  <SCORE.SYSTEM.DIHEDRAL>
0

>  <SCORE.SYSTEM.SOLV>
0

>  <SCORE.SYSTEM.norm>
0

>  <SCORE.heavy>
10

>  <SCORE.norm>
-2.59116

>  <RMSD>
2.436

$$$$
1y26_lig
 OpenBabel02141814133D
libRbt.so/2013.1/901 2013/11/27
 10 11  0  0  0  0  0  0  0  0999 V2000
   19.5189  -16.7706    2.8381 N   0  0  0  0  0  0  0  0  0  0  0  0
   20.2084  -16.0614    3.7351 C   0  0  0  0  0  0  0  0  0  0  0  0
   20.4495  -16.3539    5.0116 N   0  0  0  0  0  0  0  0  0  0  0  0
   19.9096  -17.5486    5.3421 C   0  0  0  0  0  0  0  0  0  0  0  0
   19.1869  -18.3913    4.5212 C   0  0  0  0  0  0  0  0  0  0  0  0
   18.9915  -17.9564    3.2069 C   0  0  0  0  0  0  0  0  0  0  0  0
   18.3000  -18.6758    2.3379 N   0  0  0  0  0  0  0  0  0  0  0  0
   18.7702  -19.5278    5.1747 N   0  0  0  0  0  0  0  0  0  0  0  0
   19.2771  -19.3718    6.3839 C   0  0  0  0  0  0  0  0  0  0  0  0
   19.9656  -18.1896    6.5510 N   0  0  0  0  0  0  0  0  0  0  0  0
  1  2  2  0  0  0  0
  2  3  1  0  0  0  0
  3  4  2  0  0  0  0
  5  4  1  0  0  0  0
  5  6  2  0  0  0  0
  6  1  1  0  0  0  0
  6  7  1  0  0  0  0
  8  5  1  0  0  0  0
  9  8  1  0  0  0  0
 10  4  1  0  0  0  0
 10  9  2  0  0  0  0
M  END
>  <CHROM.1>
19.45782146,-17.88356765,4.50898984,-1.63583334,1.00188034,2.11455598

>  <Name>
1y26_lig

>  <RI>
0

>  <Rbt.Current_Directory>
/home/afrankz/demos/rdock_decoys_rna/rnas/1y26

>  <Rbt.Executable>
rbdock ($Id: //depot/dev/client3/rdock/2013.1/src/exe/rbdock.cxx#4 $)

>  <Rbt.Library>
libRbt.so (2013.1, Build901 2013/11/27)

>  <Rbt.Parameter_File>
/export/apps/rDock/src/rDock_2013.1_src/data/scripts/dock_solv.prm

>  <Rbt.Receptor>
prm/pocket_docking_4.prm

>  <SCORE>
-25.9138

>  <SCORE.INTER>
-25.9138

>  <SCORE.INTER.CONST>
1

>  <SCORE.INTER.POLAR>
-2.0198

>  <SCORE.INTER.ROT>
0

>  <SCORE.INTER.SOLV>
12.6701

>  <SCORE.INTER.VDW>
-18.3666

>  <SCORE.INTER.norm>
-2.59138

>  <SCORE.INTRA>
0

>  <SCORE.INTRA.DIHEDRAL>
0

>  <SCORE.INTRA.DIHEDRAL.0>
0

>  <SCORE.INTRA.POLAR>
0

>  <SCORE.INTRA.POLAR.0>
0

>  <SCORE.INTRA.REPUL>
0

>  <SCORE.INTRA.REPUL.0>
0

>  <SCORE.INTRA.SOLV>
0

>  <SCORE.INTRA.SOLV.lig_0>
-16.9472

>  <SCORE.INTRA.VDW>
0

>  <SCORE.INTRA.VDW.0>
0

>  <SCORE.INTRA.norm>
0

>  <SCORE.RESTR>
0

>  <SCORE.RESTR.CAVITY>
0

>  <SCORE.RESTR.norm>
0

>  <SCORE.SYSTEM>
0

>  <SCORE.SYSTEM.CONST>
0

>  <SCORE.SYSTEM.DIHEDRAL>
0

>  <SCORE.SYSTEM.SOLV>
0

>  <SCORE.SYSTEM.norm>
0

>  <SCORE.heavy>
10

>  <SCORE.norm>
-2.59138

>  <RMSD>
2.436

$$$$
1y26_lig
 OpenBabel02141814133D
libRbt.so/2013.1/901 2013/11/27
 10 11  0  0  0  0  0  0  0  0999 V2000
   19.5167  -16.7689    2.8408 N   0  0  0  0  0  0  0  0  0  0  0  0
   20.2091  -16.0626    3.7379 C   0  0  0  0  0  0  0  0  0  0  0  0
   20.4519  -16.3579    5.0133 N   0  0  0  0  0  0  0  0  0  0  0  0
   19.9104  -17.5522    5.3426 C   0  0  0  0  0  0  0  0  0  0  0  0
   19.1847  -18.3921    4.5214 C   0  0  0  0  0  0  0  0  0  0  0  0
   18.9879  -17.9544    3.2083 C   0  0  0  0  0  0  0  0  0  0  0  0
   18.2935  -18.6710    2.3392 N   0  0  0  0  0  0  0  0  0  0  0  0
   18.7672  -19.5291    5.1736 N   0  0  0  0  0  0  0  0  0  0  0  0
   19.2764  -19.3762    6.3822 C   0  0  0  0  0  0  0  0  0  0  0  0
   19.9674  -18.1956    6.5502 N   0  0  0  0  0  0  0  0  0  0  0  0
  1  2  2  0  0  0  0
  2  3  1  0  0  0  0
  3  4  2  0  0  0  0
  5  4  1  0  0  0  0
  5  6  2  0  0  0  0
  6  1  1  0  0  0  0
  6  7  1  0  0  0  0
  8  5  1  0  0  0  0
  9  8  1  0  0  0  0
 10  4  1  0  0  0  0
 10  9  2  0  0  0  0
M  END
>  <CHROM.1>
19.45657060,-17.88484931,4.50969789,-1.63689291,0.99941964,2.11728695

>  <Name>
1y26_lig

>  <RI>
0

>  <Rbt.Current_Directory>
/home/afrankz/demos/rdock_decoys_rna/rnas/1y26

>  <Rbt.Executable>
rbdock ($Id: //depot/dev/client3/rdock/2013.1/src/exe/rbdock.cxx#4 $)

>  <Rbt.Library>
libRbt.so (2013.1, Build901 2013/11/27)

>  <Rbt.Parameter_File>
/export/apps/rDock/src/rDock_2013.1_src/data/scripts/dock_solv.prm

>  <Rbt.Receptor>
prm/pocket_docking_4.prm

>  <SCORE>
-25.9109

>  <SCORE.INTER>
-25.9109

>  <SCORE.INTER.CONST>
1

>  <SCORE.INTER.POLAR>
-2.01923

>  <SCORE.INTER.ROT>
0

>  <SCORE.INTER.SOLV>
12.6745

>  <SCORE.INTER.VDW>
-18.368

>  <SCORE.INTER.norm>
-2.59109

>  <SCORE.INTRA>
0

>  <SCORE.INTRA.DIHEDRAL>
0

>  <SCORE.INTRA.DIHEDRAL.0>
0

>  <SCORE.INTRA.POLAR>
0

>  <SCORE.INTRA.POLAR.0>
0

>  <SCORE.INTRA.REPUL>
0

>  <SCORE.INTRA.REPUL.0>
0

>  <SCORE.INTRA.SOLV>
0

>  <SCORE.INTRA.SOLV.lig_0>
-16.9472

>  <SCORE.INTRA.VDW>
0

>  <SCORE.INTRA.VDW.0>
0

>  <SCORE.INTRA.norm>
0

>  <SCORE.RESTR>
0

>  <SCORE.RESTR.CAVITY>
0

>  <SCORE.RESTR.norm>
0

>  <SCORE.SYSTEM>
0

>  <SCORE.SYSTEM.CONST>
0

>  <SCORE.SYSTEM.DIHEDRAL>
0

>  <SCORE.SYSTEM.SOLV>
0

>  <SCORE.SYSTEM.norm>
0

>  <SCORE.heavy>
10

>  <SCORE.norm>
-2.59109

>  <RMSD>
2.436

$$$$
1y26_lig
 OpenBabel02141814133D
libRbt.so/2013.1/901 2013/11/27
 10 11  0  0  0  0  0  0  0  0999 V2000
   19.5191  -16.7703    2.8404 N   0  0  0  0  0  0  0  0  0  0  0  0
   20.2094  -16.0621    3.7377 C   0  0  0  0  0  0  0  0  0  0  0  0
   20.4510  -16.3558    5.0137 N   0  0  0  0  0  0  0  0  0  0  0  0
   19.9106  -17.5506    5.3435 C   0  0  0  0  0  0  0  0  0  0  0  0
   19.1871  -18.3922    4.5222 C   0  0  0  0  0  0  0  0  0  0  0  0
   18.9914  -17.9561    3.2084 C   0  0  0  0  0  0  0  0  0  0  0  0
   18.2990  -18.6745    2.3391 N   0  0  0  0  0  0  0  0  0  0  0  0
   18.7703  -19.5291    5.1749 N   0  0  0  0  0  0  0  0  0  0  0  0
   19.2777  -19.3743    6.3841 C   0  0  0  0  0  0  0  0  0  0  0  0
   19.9669  -18.1926    6.5518 N   0  0  0  0  0  0  0  0  0  0  0  0
  1  2  2  0  0  0  0
  2  3  1  0  0  0  0
  3  4  2  0  0  0  0
  5  4  1  0  0  0  0
  5  6  2  0  0  0  0
  6  1  1  0  0  0  0
  6  7  1  0  0  0  0
  8  5  1  0  0  0  0
  9  8  1  0  0  0  0
 10  4  1  0  0  0  0
 10  9  2  0  0  0  0
M  END
>  <CHROM.1>
19.45829028,-17.88460384,4.51032394,-1.63615557,1.00123096,2.11567546

>  <Name>
1y26_lig

>  <RI>
0

>  <Rbt.Current_Directory>
/home/afrankz/demos/rdock_decoys_rna/rnas/1y26

>  <Rbt.Executable>
rbdock ($Id: //depot/dev/client3/rdock/2013.1/src/exe/rbdock.cxx#4 $)

>  <Rbt.Library>
libRbt.so (2013.1, Build901 2013/11/27)

>  <Rbt.Parameter_File>
/export/apps/rDock/src/rDock_2013.1_src/data/scripts/dock_solv.prm

>  <Rbt.Receptor>
prm/pocket_docking_5.prm

>  <SCORE>
-25.9121

>  <SCORE.INTER>
-25.9121

>  <SCORE.INTER.CONST>
1

>  <SCORE.INTER.POLAR>
-2.01928

>  <SCORE.INTER.ROT>
0

>  <SCORE.INTER.SOLV>
12.6717

>  <SCORE.INTER.VDW>
-18.3677

>  <SCORE.INTER.norm>
-2.59121

>  <SCORE.INTRA>
0

>  <SCORE.INTRA.DIHEDRAL>
0

>  <SCORE.INTRA.DIHEDRAL.0>
0

>  <SCORE.INTRA.POLAR>
0

>  <SCORE.INTRA.POLAR.0>
0

>  <SCORE.INTRA.REPUL>
0

>  <SCORE.INTRA.REPUL.0>
0

>  <SCORE.INTRA.SOLV>
0

>  <SCORE.INTRA.SOLV.lig_0>
-16.9472

>  <SCORE.INTRA.VDW>
0

>  <SCORE.INTRA.VDW.0>
0

>  <SCORE.INTRA.norm>
0

>  <SCORE.RESTR>
0

>  <SCORE.RESTR.CAVITY>
0

>  <SCORE.RESTR.norm>
0

>  <SCORE.SYSTEM>
0

>  <SCORE.SYSTEM.CONST>
0

>  <SCORE.SYSTEM.DIHEDRAL>
0

>  <SCORE.SYSTEM.SOLV>
0

>  <SCORE.SYSTEM.norm>
0

>  <SCORE.heavy>
10

>  <SCORE.norm>
-2.59121

>  <RMSD>
2.436

$$$$
1y26_lig
 OpenBabel02141814133D
libRbt.so/2013.1/901 2013/11/27
 10 11  0  0  0  0  0  0  0  0999 V2000
   19.5120  -16.7662    2.8390 N   0  0  0  0  0  0  0  0  0  0  0  0
   20.2042  -16.0586    3.7353 C   0  0  0  0  0  0  0  0  0  0  0  0
   20.4505  -16.3543    5.0100 N   0  0  0  0  0  0  0  0  0  0  0  0
   19.9130  -17.5504    5.3394 C   0  0  0  0  0  0  0  0  0  0  0  0
   19.1881  -18.3917    4.5190 C   0  0  0  0  0  0  0  0  0  0  0  0
   18.9873  -17.9535    3.2067 C   0  0  0  0  0  0  0  0  0  0  0  0
   18.2932  -18.6714    2.3384 N   0  0  0  0  0  0  0  0  0  0  0  0
   18.7751  -19.5304    5.1711 N   0  0  0  0  0  0  0  0  0  0  0  0
   19.2864  -19.3770    6.3788 C   0  0  0  0  0  0  0  0  0  0  0  0
   19.9743  -18.1946    6.5464 N   0  0  0  0  0  0  0  0  0  0  0  0
  1  2  2  0  0  0  0
  2  3  1  0  0  0  0
  3  4  2  0  0  0  0
  5  4  1  0  0  0  0
  5  6  2  0  0  0  0
  6  1  1  0  0  0  0
  6  7  1  0  0  0  0
  8  5  1  0  0  0  0
  9  8  1  0  0  0  0
 10  4  1  0  0  0  0
 10  9  2  0  0  0  0
M  END
>  <CHROM.1>
19.45843948,-17.88367267,4.50713250,-1.64286405,1.00079809,2.12312065

>  <Name>
1y26_lig

>  <RI>
0

>  <Rbt.Current_Directory>
/home/afrankz/demos/rdock_decoys_rna/rnas/1y26

>  <Rbt.Executable>
rbdock ($Id: //depot/dev/client3/rdock/2013.1/src/exe/rbdock.cxx#4 $)

>  <Rbt.Library>
libRbt.so (2013.1, Build901 2013/11/27)

>  <Rbt.Parameter_File>
/export/apps/rDock/src/rDock_2013.1_src/data/scripts/dock_solv.prm

>  <Rbt.Receptor>
prm/pocket_docking_5.prm

>  <SCORE>
-25.9084

>  <SCORE.INTER>
-25.9084

>  <SCORE.INTER.CONST>
1

>  <SCORE.INTER.POLAR>
-2.0198

>  <SCORE.INTER.ROT>
0

>  <SCORE.INTER.SOLV>
12.6842

>  <SCORE.INTER.VDW>
-18.3677

>  <SCORE.INTER.norm>
-2.59084

>  <SCORE.INTRA>
0

>  <SCORE.INTRA.DIHEDRAL>
0

>  <SCORE.INTRA.DIHEDRAL.0>
0

>  <SCORE.INTRA.POLAR>
0

>  <SCORE.INTRA.POLAR.0>
0

>  <SCORE.INTRA.REPUL>
0

>  <SCORE.INTRA.REPUL.0>
0

>  <SCORE.INTRA.SOLV>
0

>  <SCORE.INTRA.SOLV.lig_0>
-16.9472

>  <SCORE.INTRA.VDW>
0

>  <SCORE.INTRA.VDW.0>
0

>  <SCORE.INTRA.norm>
0

>  <SCORE.RESTR>
0

>  <SCORE.RESTR.CAVITY>
0

>  <SCORE.RESTR.norm>
0

>  <SCORE.SYSTEM>
0

>  <SCORE.SYSTEM.CONST>
0

>  <SCORE.SYSTEM.DIHEDRAL>
0

>  <SCORE.SYSTEM.SOLV>
0

>  <SCORE.SYSTEM.norm>
0

>  <SCORE.heavy>
10

>  <SCORE.norm>
-2.59084

>  <RMSD>
2.436

$$$$
1y26_lig
 OpenBabel02141814133D
libRbt.so/2013.1/901 2013/11/27
 10 11  0  0  0  0  0  0  0  0999 V2000
   19.5786  -16.8194    2.8314 N   0  0  0  0  0  0  0  0  0  0  0  0
   20.2080  -16.0657    3.7363 C   0  0  0  0  0  0  0  0  0  0  0  0
   20.4110  -16.3206    5.0273 N   0  0  0  0  0  0  0  0  0  0  0  0
   19.9019  -17.5267    5.3658 C   0  0  0  0  0  0  0  0  0  0  0  0
   19.2413  -18.4133    4.5389 C   0  0  0  0  0  0  0  0  0  0  0  0
   19.0804  -18.0152    3.2084 C   0  0  0  0  0  0  0  0  0  0  0  0
   18.4483  -18.7786    2.3316 N   0  0  0  0  0  0  0  0  0  0  0  0
   18.8411  -19.5494    5.2032 N   0  0  0  0  0  0  0  0  0  0  0  0
   19.2959  -19.3481    6.4263 C   0  0  0  0  0  0  0  0  0  0  0  0
   19.9350  -18.1381    6.5908 N   0  0  0  0  0  0  0  0  0  0  0  0
  1  2  2  0  0  0  0
  2  3  1  0  0  0  0
  3  4  2  0  0  0  0
  5  4  1  0  0  0  0
  5  6  2  0  0  0  0
  6  1  1  0  0  0  0
  6  7  1  0  0  0  0
  8  5  1  0  0  0  0
  9  8  1  0  0  0  0
 10  4  1  0  0  0  0
 10  9  2  0  0  0  0
M  END
>  <CHROM.1>
19.49420498,-17.89639655,4.52471922,-1.60784957,1.05185165,2.06763128

>  <Name>
1y26_lig

>  <RI>
0

>  <Rbt.Current_Directory>
/home/afrankz/demos/rdock_decoys_rna/rnas/1y26

>  <Rbt.Executable>
rbdock ($Id: //depot/dev/client3/rdock/2013.1/src/exe/rbdock.cxx#4 $)

>  <Rbt.Library>
libRbt.so (2013.1, Build901 2013/11/27)

>  <Rbt.Parameter_File>
/export/apps/rDock/src/rDock_2013.1_src/data/scripts/dock_solv.prm

>  <Rbt.Receptor>
prm/pocket_docking_5.prm

>  <SCORE>
-25.764

>  <SCORE.INTER>
-25.764

>  <SCORE.INTER.CONST>
1

>  <SCORE.INTER.POLAR>
-2.00104

>  <SCORE.INTER.ROT>
0

>  <SCORE.INTER.SOLV>
12.7064

>  <SCORE.INTER.VDW>
-18.3413

>  <SCORE.INTER.norm>
-2.5764

>  <SCORE.INTRA>
0

>  <SCORE.INTRA.DIHEDRAL>
0

>  <SCORE.INTRA.DIHEDRAL.0>
0

>  <SCORE.INTRA.POLAR>
0

>  <SCORE.INTRA.POLAR.0>
0

>  <SCORE.INTRA.REPUL>
0

>  <SCORE.INTRA.REPUL.0>
0

>  <SCORE.INTRA.SOLV>
0

>  <SCORE.INTRA.SOLV.lig_0>
-16.9472

>  <SCORE.INTRA.VDW>
0

>  <SCORE.INTRA.VDW.0>
0

>  <SCORE.INTRA.norm>
0

>  <SCORE.RESTR>
0

>  <SCORE.RESTR.CAVITY>
0

>  <SCORE.RESTR.norm>
0

>  <SCORE.SYSTEM>
0

>  <SCORE.SYSTEM.CONST>
0

>  <SCORE.SYSTEM.DIHEDRAL>
0

>  <SCORE.SYSTEM.SOLV>
0

>  <SCORE.SYSTEM.norm>
0

>  <SCORE.heavy>
10

>  <SCORE.norm>
-2.5764

>  <RMSD>
2.436

$$$$
1y26_lig
 OpenBabel02141814133D
libRbt.so/2013.1/901 2013/11/27
 10 11  0  0  0  0  0  0  0  0999 V2000
   19.5182  -16.7707    2.8348 N   0  0  0  0  0  0  0  0  0  0  0  0
   20.2091  -16.0615    3.7308 C   0  0  0  0  0  0  0  0  0  0  0  0
   20.4542  -16.3553    5.0062 N   0  0  0  0  0  0  0  0  0  0  0  0
   19.9170  -17.5512    5.3367 C   0  0  0  0  0  0  0  0  0  0  0  0
   19.1933  -18.3940    4.5167 C   0  0  0  0  0  0  0  0  0  0  0  0
   18.9937  -17.9577    3.2036 C   0  0  0  0  0  0  0  0  0  0  0  0
   18.3008  -18.6772    2.3355 N   0  0  0  0  0  0  0  0  0  0  0  0
   18.7803  -19.5320    5.1699 N   0  0  0  0  0  0  0  0  0  0  0  0
   19.2902  -19.3767    6.3780 C   0  0  0  0  0  0  0  0  0  0  0  0
   19.9773  -18.1937    6.5446 N   0  0  0  0  0  0  0  0  0  0  0  0
  1  2  2  0  0  0  0
  2  3  1  0  0  0  0
  3  4  2  0  0  0  0
  5  4  1  0  0  0  0
  5  6  2  0  0  0  0
  6  1  1  0  0  0  0
  6  7  1  0  0  0  0
  8  5  1  0  0  0  0
  9  8  1  0  0  0  0
 10  4  1  0  0  0  0
 10  9  2  0  0  0  0
M  END
>  <CHROM.1>
19.46345652,-17.88584723,4.50441802,-1.64171133,1.00175666,2.12075863

>  <Name>
1y26_lig

>  <RI>
224

>  <Rbt.Current_Directory>
/home/afrankz/demos/rdock_decoys_rna/rnas/1y26

>  <Rbt.Executable>
rbdock ($Id: //depot/dev/client3/rdock/2013.1/src/exe/rbdock.cxx#4 $)

>  <Rbt.Library>
libRbt.so (2013.1, Build901 2013/11/27)

>  <Rbt.Parameter_File>
/export/apps/rDock/src/rDock_2013.1_src/data/scripts/dock_solv.prm

>  <Rbt.Receptor>
prm/pocket_docking_6.prm

>  <SCORE>
-25.9089

>  <SCORE.INTER>
-25.9089

>  <SCORE.INTER.CONST>
1

>  <SCORE.INTER.POLAR>
-2.01947

>  <SCORE.INTER.ROT>
0

>  <SCORE.INTER.SOLV>
12.6736

>  <SCORE.INTER.VDW>
-18.3656

>  <SCORE.INTER.norm>
-2.59089

>  <SCORE.INTRA>
0

>  <SCORE.INTRA.DIHEDRAL>
0

>  <SCORE.INTRA.DIHEDRAL.0>
0

>  <SCORE.INTRA.POLAR>
0

>  <SCORE.INTRA.POLAR.0>
0

>  <SCORE.INTRA.REPUL>
0

>  <SCORE.INTRA.REPUL.0>
0

>  <SCORE.INTRA.SOLV>
0

>  <SCORE.INTRA.SOLV.lig_0>
-16.9472

>  <SCORE.INTRA.VDW>
0

>  <SCORE.INTRA.VDW.0>
0

>  <SCORE.INTRA.norm>
0

>  <SCORE.RESTR>
0

>  <SCORE.RESTR.CAVITY>
0

>  <SCORE.RESTR.norm>
0

>  <SCORE.SYSTEM>
0

>  <SCORE.SYSTEM.CONST>
0

>  <SCORE.SYSTEM.DIHEDRAL>
0

>  <SCORE.SYSTEM.SOLV>
0

>  <SCORE.SYSTEM.norm>
0

>  <SCORE.heavy>
10

>  <SCORE.norm>
-2.59089

>  <RMSD>
2.436

$$$$
1y26_lig
 OpenBabel02141814133D
libRbt.so/2013.1/901 2013/11/27
 10 11  0  0  0  0  0  0  0  0999 V2000
   19.5165  -16.7699    2.8413 N   0  0  0  0  0  0  0  0  0  0  0  0
   20.2016  -16.0585    3.7400 C   0  0  0  0  0  0  0  0  0  0  0  0
   20.4415  -16.3508    5.0167 N   0  0  0  0  0  0  0  0  0  0  0  0
   19.9054  -17.5477    5.3456 C   0  0  0  0  0  0  0  0  0  0  0  0
   19.1874  -18.3927    4.5229 C   0  0  0  0  0  0  0  0  0  0  0  0
   18.9929  -17.9578    3.2085 C   0  0  0  0  0  0  0  0  0  0  0  0
   18.3057  -18.6794    2.3378 N   0  0  0  0  0  0  0  0  0  0  0  0
   18.7738  -19.5311    5.1750 N   0  0  0  0  0  0  0  0  0  0  0  0
   19.2778  -19.3738    6.3853 C   0  0  0  0  0  0  0  0  0  0  0  0
   19.9615  -18.1891    6.5543 N   0  0  0  0  0  0  0  0  0  0  0  0
  1  2  2  0  0  0  0
  2  3  1  0  0  0  0
  3  4  2  0  0  0  0
  5  4  1  0  0  0  0
  5  6  2  0  0  0  0
  6  1  1  0  0  0  0
  6  7  1  0  0  0  0
  8  5  1  0  0  0  0
  9  8  1  0  0  0  0
 10  4  1  0  0  0  0
 10  9  2  0  0  0  0
M  END
>  <CHROM.1>
19.45645771,-17.88393956,4.51150317,-1.63648412,1.00608048,2.11561795

>  <Name>
1y26_lig

>  <RI>
224

>  <Rbt.Current_Directory>
/home/afrankz/demos/rdock_decoys_rna/rnas/1y26

>  <Rbt.Executable>
rbdock ($Id: //depot/dev/client3/rdock/2013.1/src/exe/rbdock.cxx#4 $)

>  <Rbt.Library>
libRbt.so (2013.1, Build901 2013/11/27)

>  <Rbt.Parameter_File>
/export/apps/rDock/src/rDock_2013.1_src/data/scripts/dock_solv.prm

>  <Rbt.Receptor>
prm/pocket_docking_6.prm

>  <SCORE>
-25.9112

>  <SCORE.INTER>
-25.9112

>  <SCORE.INTER.CONST>
1

>  <SCORE.INTER.POLAR>
-2.01888

>  <SCORE.INTER.ROT>
0

>  <SCORE.INTER.SOLV>
12.6813

>  <SCORE.INTER.VDW>
-18.3716

>  <SCORE.INTER.norm>
-2.59112

>  <SCORE.INTRA>
0

>  <SCORE.INTRA.DIHEDRAL>
0

>  <SCORE.INTRA.DIHEDRAL.0>
0

>  <SCORE.INTRA.POLAR>
0

>  <SCORE.INTRA.POLAR.0>
0

>  <SCORE.INTRA.REPUL>
0

>  <SCORE.INTRA.REPUL.0>
0

>  <SCORE.INTRA.SOLV>
0

>  <SCORE.INTRA.SOLV.lig_0>
-16.9472

>  <SCORE.INTRA.VDW>
0

>  <SCORE.INTRA.VDW.0>
0

>  <SCORE.INTRA.norm>
0

>  <SCORE.RESTR>
0

>  <SCORE.RESTR.CAVITY>
0

>  <SCORE.RESTR.norm>
0

>  <SCORE.SYSTEM>
0

>  <SCORE.SYSTEM.CONST>
0

>  <SCORE.SYSTEM.DIHEDRAL>
0

>  <SCORE.SYSTEM.SOLV>
0

>  <SCORE.SYSTEM.norm>
0

>  <SCORE.heavy>
10

>  <SCORE.norm>
-2.59112

>  <RMSD>
2.436

$$$$
1y26_lig
 OpenBabel02141814133D
libRbt.so/2013.1/901 2013/11/27
 10 11  0  0  0  0  0  0  0  0999 V2000
   19.5127  -16.7666    2.8395 N   0  0  0  0  0  0  0  0  0  0  0  0
   20.2015  -16.0569    3.7368 C   0  0  0  0  0  0  0  0  0  0  0  0
   20.4440  -16.3502    5.0127 N   0  0  0  0  0  0  0  0  0  0  0  0
   19.9064  -17.5463    5.3425 C   0  0  0  0  0  0  0  0  0  0  0  0
   19.1847  -18.3895    4.5212 C   0  0  0  0  0  0  0  0  0  0  0  0
   18.9877  -17.9536    3.2075 C   0  0  0  0  0  0  0  0  0  0  0  0
   18.2969  -18.6735    2.3382 N   0  0  0  0  0  0  0  0  0  0  0  0
   18.7705  -19.5274    5.1739 N   0  0  0  0  0  0  0  0  0  0  0  0
   19.2779  -19.3716    6.3829 C   0  0  0  0  0  0  0  0  0  0  0  0
   19.9643  -18.1883    6.5507 N   0  0  0  0  0  0  0  0  0  0  0  0
  1  2  2  0  0  0  0
  2  3  1  0  0  0  0
  3  4  2  0  0  0  0
  5  4  1  0  0  0  0
  5  6  2  0  0  0  0
  6  1  1  0  0  0  0
  6  7  1  0  0  0  0
  8  5  1  0  0  0  0
  9  8  1  0  0  0  0
 10  4  1  0  0  0  0
 10  9  2  0  0  0  0
M  END
>  <CHROM.1>
19.45469904,-17.88124910,4.50934376,-1.63862279,1.00309973,2.11787362

>  <Name>
1y26_lig

>  <RI>
0

>  <Rbt.Current_Directory>
/home/afrankz/demos/rdock_decoys_rna/rnas/1y26

>  <Rbt.Executable>
rbdock ($Id: //depot/dev/client3/rdock/2013.1/src/exe/rbdock.cxx#4 $)

>  <Rbt.Library>
libRbt.so (2013.1, Build901 2013/11/27)

>  <Rbt.Parameter_File>
/export/apps/rDock/src/rDock_2013.1_src/data/scripts/dock_solv.prm

>  <Rbt.Receptor>
prm/pocket_docking_8.prm

>  <SCORE>
-25.9126

>  <SCORE.INTER>
-25.9126

>  <SCORE.INTER.CONST>
1

>  <SCORE.INTER.POLAR>
-2.01955

>  <SCORE.INTER.ROT>
0

>  <SCORE.INTER.SOLV>
12.6821

>  <SCORE.INTER.VDW>
-18.3706

>  <SCORE.INTER.norm>
-2.59126

>  <SCORE.INTRA>
0

>  <SCORE.INTRA.DIHEDRAL>
0

>  <SCORE.INTRA.DIHEDRAL.0>
0

>  <SCORE.INTRA.POLAR>
0

>  <SCORE.INTRA.POLAR.0>
0

>  <SCORE.INTRA.REPUL>
0

>  <SCORE.INTRA.REPUL.0>
0

>  <SCORE.INTRA.SOLV>
0

>  <SCORE.INTRA.SOLV.lig_0>
-16.9472

>  <SCORE.INTRA.VDW>
0

>  <SCORE.INTRA.VDW.0>
0

>  <SCORE.INTRA.norm>
0

>  <SCORE.RESTR>
0

>  <SCORE.RESTR.CAVITY>
0

>  <SCORE.RESTR.norm>
0

>  <SCORE.SYSTEM>
0

>  <SCORE.SYSTEM.CONST>
0

>  <SCORE.SYSTEM.DIHEDRAL>
0

>  <SCORE.SYSTEM.SOLV>
0

>  <SCORE.SYSTEM.norm>
0

>  <SCORE.heavy>
10

>  <SCORE.norm>
-2.59126

>  <RMSD>
2.436

$$$$
1y26_lig
 OpenBabel02141814133D
libRbt.so/2013.1/901 2013/11/27
 10 11  0  0  0  0  0  0  0  0999 V2000
   19.5180  -16.7694    2.8392 N   0  0  0  0  0  0  0  0  0  0  0  0
   20.2078  -16.0603    3.7361 C   0  0  0  0  0  0  0  0  0  0  0  0
   20.4498  -16.3531    5.0123 N   0  0  0  0  0  0  0  0  0  0  0  0
   19.9103  -17.5481    5.3428 C   0  0  0  0  0  0  0  0  0  0  0  0
   19.1873  -18.3907    4.5220 C   0  0  0  0  0  0  0  0  0  0  0  0
   18.9911  -17.9554    3.2080 C   0  0  0  0  0  0  0  0  0  0  0  0
   18.2991  -18.6747    2.3392 N   0  0  0  0  0  0  0  0  0  0  0  0
   18.7713  -19.5275    5.1754 N   0  0  0  0  0  0  0  0  0  0  0  0
   19.2788  -19.3717    6.3844 C   0  0  0  0  0  0  0  0  0  0  0  0
   19.9671  -18.1894    6.5515 N   0  0  0  0  0  0  0  0  0  0  0  0
  1  2  2  0  0  0  0
  2  3  1  0  0  0  0
  3  4  2  0  0  0  0
  5  4  1  0  0  0  0
  5  6  2  0  0  0  0
  6  1  1  0  0  0  0
  6  7  1  0  0  0  0
  8  5  1  0  0  0  0
  9  8  1  0  0  0  0
 10  4  1  0  0  0  0
 10  9  2  0  0  0  0
M  END
>  <CHROM.1>
19.45808995,-17.88286651,4.50983557,-1.63698117,1.00176583,2.11581555

>  <Name>
1y26_lig

>  <RI>
0

>  <Rbt.Current_Directory>
/home/afrankz/demos/rdock_decoys_rna/rnas/1y26

>  <Rbt.Executable>
rbdock ($Id: //depot/dev/client3/rdock/2013.1/src/exe/rbdock.cxx#4 $)

>  <Rbt.Library>
libRbt.so (2013.1, Build901 2013/11/27)

>  <Rbt.Parameter_File>
/export/apps/rDock/src/rDock_2013.1_src/data/scripts/dock_solv.prm

>  <Rbt.Receptor>
prm/pocket_docking_8.prm

>  <SCORE>
-25.9121

>  <SCORE.INTER>
-25.9121

>  <SCORE.INTER.CONST>
1

>  <SCORE.INTER.POLAR>
-2.01978

>  <SCORE.INTER.ROT>
0

>  <SCORE.INTER.SOLV>
12.6722

>  <SCORE.INTER.VDW>
-18.3662

>  <SCORE.INTER.norm>
-2.59121

>  <SCORE.INTRA>
0

>  <SCORE.INTRA.DIHEDRAL>
0

>  <SCORE.INTRA.DIHEDRAL.0>
0

>  <SCORE.INTRA.POLAR>
0

>  <SCORE.INTRA.POLAR.0>
0

>  <SCORE.INTRA.REPUL>
0

>  <SCORE.INTRA.REPUL.0>
0

>  <SCORE.INTRA.SOLV>
0

>  <SCORE.INTRA.SOLV.lig_0>
-16.9472

>  <SCORE.INTRA.VDW>
0

>  <SCORE.INTRA.VDW.0>
0

>  <SCORE.INTRA.norm>
0

>  <SCORE.RESTR>
0

>  <SCORE.RESTR.CAVITY>
0

>  <SCORE.RESTR.norm>
0

>  <SCORE.SYSTEM>
0

>  <SCORE.SYSTEM.CONST>
0

>  <SCORE.SYSTEM.DIHEDRAL>
0

>  <SCORE.SYSTEM.SOLV>
0

>  <SCORE.SYSTEM.norm>
0

>  <SCORE.heavy>
10

>  <SCORE.norm>
-2.59121

>  <RMSD>
2.436

$$$$
1y26_lig
 OpenBabel02141814133D
libRbt.so/2013.1/901 2013/11/27
 10 11  0  0  0  0  0  0  0  0999 V2000
   19.5192  -16.7697    2.8381 N   0  0  0  0  0  0  0  0  0  0  0  0
   20.2157  -16.0655    3.7337 C   0  0  0  0  0  0  0  0  0  0  0  0
   20.4606  -16.3617    5.0085 N   0  0  0  0  0  0  0  0  0  0  0  0
   19.9163  -17.5545    5.3389 C   0  0  0  0  0  0  0  0  0  0  0  0
   19.1862  -18.3921    4.5193 C   0  0  0  0  0  0  0  0  0  0  0  0
   18.9876  -17.9537    3.2067 C   0  0  0  0  0  0  0  0  0  0  0  0
   18.2891  -18.6681    2.3391 N   0  0  0  0  0  0  0  0  0  0  0  0
   18.7668  -19.5279    5.1723 N   0  0  0  0  0  0  0  0  0  0  0  0
   19.2793  -19.3766    6.3798 C   0  0  0  0  0  0  0  0  0  0  0  0
   19.9741  -18.1981    6.5463 N   0  0  0  0  0  0  0  0  0  0  0  0
  1  2  2  0  0  0  0
  2  3  1  0  0  0  0
  3  4  2  0  0  0  0
  5  4  1  0  0  0  0
  5  6  2  0  0  0  0
  6  1  1  0  0  0  0
  6  7  1  0  0  0  0
  8  5  1  0  0  0  0
  9  8  1  0  0  0  0
 10  4  1  0  0  0  0
 10  9  2  0  0  0  0
M  END
>  <CHROM.1>
19.45953998,-17.88562465,4.50702270,-1.63767012,0.99567891,2.11804615

>  <Name>
1y26_lig

>  <RI>
0

>  <Rbt.Current_Directory>
/home/afrankz/demos/rdock_decoys_rna/rnas/1y26

>  <Rbt.Executable>
rbdock ($Id: //depot/dev/client3/rdock/2013.1/src/exe/rbdock.cxx#4 $)

>  <Rbt.Library>
libRbt.so (2013.1, Build901 2013/11/27)

>  <Rbt.Parameter_File>
/export/apps/rDock/src/rDock_2013.1_src/data/scripts/dock_solv.prm

>  <Rbt.Receptor>
prm/pocket_docking_8.prm

>  <SCORE>
-25.9111

>  <SCORE.INTER>
-25.9111

>  <SCORE.INTER.CONST>
1

>  <SCORE.INTER.POLAR>
-2.01973

>  <SCORE.INTER.ROT>
0

>  <SCORE.INTER.SOLV>
12.6656

>  <SCORE.INTER.VDW>
-18.3635

>  <SCORE.INTER.norm>
-2.59111

>  <SCORE.INTRA>
0

>  <SCORE.INTRA.DIHEDRAL>
0

>  <SCORE.INTRA.DIHEDRAL.0>
0

>  <SCORE.INTRA.POLAR>
0

>  <SCORE.INTRA.POLAR.0>
0

>  <SCORE.INTRA.REPUL>
0

>  <SCORE.INTRA.REPUL.0>
0

>  <SCORE.INTRA.SOLV>
0

>  <SCORE.INTRA.SOLV.lig_0>
-16.9472

>  <SCORE.INTRA.VDW>
0

>  <SCORE.INTRA.VDW.0>
0

>  <SCORE.INTRA.norm>
0

>  <SCORE.RESTR>
0

>  <SCORE.RESTR.CAVITY>
0

>  <SCORE.RESTR.norm>
0

>  <SCORE.SYSTEM>
0

>  <SCORE.SYSTEM.CONST>
0

>  <SCORE.SYSTEM.DIHEDRAL>
0

>  <SCORE.SYSTEM.SOLV>
0

>  <SCORE.SYSTEM.norm>
0

>  <SCORE.heavy>
10

>  <SCORE.norm>
-2.59111

>  <RMSD>
2.436

$$$$
1y26_lig
 OpenBabel02141814133D
libRbt.so/2013.1/901 2013/11/27
 10 11  0  0  0  0  0  0  0  0999 V2000
   19.4872  -16.7481    2.8577 N   0  0  0  0  0  0  0  0  0  0  0  0
   20.1799  -16.0441    3.7564 C   0  0  0  0  0  0  0  0  0  0  0  0
   20.4323  -16.3478    5.0280 N   0  0  0  0  0  0  0  0  0  0  0  0
   19.9011  -17.5486    5.3508 C   0  0  0  0  0  0  0  0  0  0  0  0
   19.1765  -18.3870    4.5272 C   0  0  0  0  0  0  0  0  0  0  0  0
   18.9689  -17.9402    3.2188 C   0  0  0  0  0  0  0  0  0  0  0  0
   18.2744  -18.6547    2.3480 N   0  0  0  0  0  0  0  0  0  0  0  0
   18.7708  -19.5320    5.1726 N   0  0  0  0  0  0  0  0  0  0  0  0
   19.2861  -19.3852    6.3794 C   0  0  0  0  0  0  0  0  0  0  0  0
   19.9697  -18.2011    6.5529 N   0  0  0  0  0  0  0  0  0  0  0  0
  1  2  2  0  0  0  0
  2  3  1  0  0  0  0
  3  4  2  0  0  0  0
  5  4  1  0  0  0  0
  5  6  2  0  0  0  0
  6  1  1  0  0  0  0
  6  7  1  0  0  0  0
  8  5  1  0  0  0  0
  9  8  1  0  0  0  0
 10  4  1  0  0  0  0
 10  9  2  0  0  0  0
M  END
>  <CHROM.1>
19.44473774,-17.87770655,4.51793434,-1.65301714,1.00228425,2.13886846

>  <Name>
1y26_lig

>  <RI>
224

>  <Rbt.Current_Directory>
/home/afrankz/demos/rdock_decoys_rna/rnas/1y26

>  <Rbt.Executable>
rbdock ($Id: //depot/dev/client3/rdock/2013.1/src/exe/rbdock.cxx#4 $)

>  <Rbt.Library>
libRbt.so (2013.1, Build901 2013/11/27)

>  <Rbt.Parameter_File>
/export/apps/rDock/src/rDock_2013.1_src/data/scripts/dock_solv.prm

>  <Rbt.Receptor>
prm/pocket_docking_7.prm

>  <SCORE>
-25.8595

>  <SCORE.INTER>
-25.8595

>  <SCORE.INTER.CONST>
1

>  <SCORE.INTER.POLAR>
-2.01896

>  <SCORE.INTER.ROT>
0

>  <SCORE.INTER.SOLV>
12.7395

>  <SCORE.INTER.VDW>
-18.3563

>  <SCORE.INTER.norm>
-2.58595

>  <SCORE.INTRA>
0

>  <SCORE.INTRA.DIHEDRAL>
0

>  <SCORE.INTRA.DIHEDRAL.0>
0

>  <SCORE.INTRA.POLAR>
0

>  <SCORE.INTRA.POLAR.0>
0

>  <SCORE.INTRA.REPUL>
0

>  <SCORE.INTRA.REPUL.0>
0

>  <SCORE.INTRA.SOLV>
0

>  <SCORE.INTRA.SOLV.lig_0>
-16.9472

>  <SCORE.INTRA.VDW>
0

>  <SCORE.INTRA.VDW.0>
0

>  <SCORE.INTRA.norm>
0

>  <SCORE.RESTR>
0

>  <SCORE.RESTR.CAVITY>
0

>  <SCORE.RESTR.norm>
0

>  <SCORE.SYSTEM>
0

>  <SCORE.SYSTEM.CONST>
0

>  <SCORE.SYSTEM.DIHEDRAL>
0

>  <SCORE.SYSTEM.SOLV>
0

>  <SCORE.SYSTEM.norm>
0

>  <SCORE.heavy>
10

>  <SCORE.norm>
-2.58595

>  <RMSD>
2.438

$$$$
1y26_lig
 OpenBabel02141814133D
libRbt.so/2013.1/901 2013/11/27
 10 11  0  0  0  0  0  0  0  0999 V2000
   19.5021  -16.7583    2.8573 N   0  0  0  0  0  0  0  0  0  0  0  0
   20.1909  -16.0519    3.7571 C   0  0  0  0  0  0  0  0  0  0  0  0
   20.4372  -16.3520    5.0308 N   0  0  0  0  0  0  0  0  0  0  0  0
   19.9040  -17.5516    5.3547 C   0  0  0  0  0  0  0  0  0  0  0  0
   19.1829  -18.3921    4.5301 C   0  0  0  0  0  0  0  0  0  0  0  0
   18.9815  -17.9491    3.2195 C   0  0  0  0  0  0  0  0  0  0  0  0
   18.2908  -18.6658    2.3476 N   0  0  0  0  0  0  0  0  0  0  0  0
   18.7736  -19.5350    5.1770 N   0  0  0  0  0  0  0  0  0  0  0  0
   19.2833  -19.3849    6.3858 C   0  0  0  0  0  0  0  0  0  0  0  0
   19.9666  -18.2006    6.5590 N   0  0  0  0  0  0  0  0  0  0  0  0
  1  2  2  0  0  0  0
  2  3  1  0  0  0  0
  3  4  2  0  0  0  0
  5  4  1  0  0  0  0
  5  6  2  0  0  0  0
  6  1  1  0  0  0  0
  6  7  1  0  0  0  0
  8  5  1  0  0  0  0
  9  8  1  0  0  0  0
 10  4  1  0  0  0  0
 10  9  2  0  0  0  0
M  END
>  <CHROM.1>
19.45132940,-17.88296361,4.52062854,-1.64520845,1.00440967,2.12933588

>  <Name>
1y26_lig

>  <RI>
224

>  <Rbt.Current_Directory>
/home/afrankz/demos/rdock_decoys_rna/rnas/1y26

>  <Rbt.Executable>
rbdock ($Id: //depot/dev/client3/rdock/2013.1/src/exe/rbdock.cxx#4 $)

>  <Rbt.Library>
libRbt.so (2013.1, Build901 2013/11/27)

>  <Rbt.Parameter_File>
/export/apps/rDock/src/rDock_2013.1_src/data/scripts/dock_solv.prm

>  <Rbt.Receptor>
prm/pocket_docking_7.prm

>  <SCORE>
-25.8651

>  <SCORE.INTER>
-25.8651

>  <SCORE.INTER.CONST>
1

>  <SCORE.INTER.POLAR>
-2.01954

>  <SCORE.INTER.ROT>
0

>  <SCORE.INTER.SOLV>
12.7164

>  <SCORE.INTER.VDW>
-18.3504

>  <SCORE.INTER.norm>
-2.58651

>  <SCORE.INTRA>
0

>  <SCORE.INTRA.DIHEDRAL>
0

>  <SCORE.INTRA.DIHEDRAL.0>
0

>  <SCORE.INTRA.POLAR>
0

>  <SCORE.INTRA.POLAR.0>
0

>  <SCORE.INTRA.REPUL>
0

>  <SCORE.INTRA.REPUL.0>
0

>  <SCORE.INTRA.SOLV>
0

>  <SCORE.INTRA.SOLV.lig_0>
-16.9472

>  <SCORE.INTRA.VDW>
0

>  <SCORE.INTRA.VDW.0>
0

>  <SCORE.INTRA.norm>
0

>  <SCORE.RESTR>
0

>  <SCORE.RESTR.CAVITY>
0

>  <SCORE.RESTR.norm>
0

>  <SCORE.SYSTEM>
0

>  <SCORE.SYSTEM.CONST>
0

>  <SCORE.SYSTEM.DIHEDRAL>
0

>  <SCORE.SYSTEM.SOLV>
0

>  <SCORE.SYSTEM.norm>
0

>  <SCORE.heavy>
10

>  <SCORE.norm>
-2.58651

>  <RMSD>
2.438

$$$$
1y26_lig
 OpenBabel02141814133D
libRbt.so/2013.1/901 2013/11/27
 10 11  0  0  0  0  0  0  0  0999 V2000
   19.6034  -16.8225    2.8608 N   0  0  0  0  0  0  0  0  0  0  0  0
   20.2972  -16.1263    3.7646 C   0  0  0  0  0  0  0  0  0  0  0  0
   20.5125  -16.4186    5.0457 N   0  0  0  0  0  0  0  0  0  0  0  0
   19.9383  -17.5980    5.3736 C   0  0  0  0  0  0  0  0  0  0  0  0
   19.2069  -18.4264    4.5459 C   0  0  0  0  0  0  0  0  0  0  0  0
   19.0414  -17.9931    3.2271 C   0  0  0  0  0  0  0  0  0  0  0  0
   18.3449  -18.6993    2.3512 N   0  0  0  0  0  0  0  0  0  0  0  0
   18.7527  -19.5492    5.1982 N   0  0  0  0  0  0  0  0  0  0  0  0
   19.2457  -19.4000    6.4141 C   0  0  0  0  0  0  0  0  0  0  0  0
   19.9608  -18.2344    6.5860 N   0  0  0  0  0  0  0  0  0  0  0  0
  1  2  2  0  0  0  0
  2  3  1  0  0  0  0
  3  4  2  0  0  0  0
  5  4  1  0  0  0  0
  5  6  2  0  0  0  0
  6  1  1  0  0  0  0
  6  7  1  0  0  0  0
  8  5  1  0  0  0  0
  9  8  1  0  0  0  0
 10  4  1  0  0  0  0
 10  9  2  0  0  0  0
M  END
>  <CHROM.1>
19.49045978,-17.92562378,4.53545292,-1.58998172,0.98765157,2.07151567

>  <Name>
1y26_lig

>  <RI>
0

>  <Rbt.Current_Directory>
/home/afrankz/demos/rdock_decoys_rna/rnas/1y26

>  <Rbt.Executable>
rbdock ($Id: //depot/dev/client3/rdock/2013.1/src/exe/rbdock.cxx#4 $)

>  <Rbt.Library>
libRbt.so (2013.1, Build901 2013/11/27)

>  <Rbt.Parameter_File>
/export/apps/rDock/src/rDock_2013.1_src/data/scripts/dock_solv.prm

>  <Rbt.Receptor>
prm/blind_docking_100.prm

>  <SCORE>
-25.7664

>  <SCORE.INTER>
-25.7664

>  <SCORE.INTER.CONST>
1

>  <SCORE.INTER.POLAR>
-2.01506

>  <SCORE.INTER.ROT>
0

>  <SCORE.INTER.SOLV>
12.5554

>  <SCORE.INTER.VDW>
-18.2459

>  <SCORE.INTER.norm>
-2.57664

>  <SCORE.INTRA>
0

>  <SCORE.INTRA.DIHEDRAL>
0

>  <SCORE.INTRA.DIHEDRAL.0>
0

>  <SCORE.INTRA.POLAR>
0

>  <SCORE.INTRA.POLAR.0>
0

>  <SCORE.INTRA.REPUL>
0

>  <SCORE.INTRA.REPUL.0>
0

>  <SCORE.INTRA.SOLV>
0

>  <SCORE.INTRA.SOLV.lig_0>
-16.9472

>  <SCORE.INTRA.VDW>
0

>  <SCORE.INTRA.VDW.0>
0

>  <SCORE.INTRA.norm>
0

>  <SCORE.RESTR>
0

>  <SCORE.RESTR.CAVITY>
0

>  <SCORE.RESTR.norm>
0

>  <SCORE.SYSTEM>
0

>  <SCORE.SYSTEM.CONST>
0

>  <SCORE.SYSTEM.DIHEDRAL>
0

>  <SCORE.SYSTEM.SOLV>
0

>  <SCORE.SYSTEM.norm>
0

>  <SCORE.heavy>
10

>  <SCORE.norm>
-2.57664

>  <RMSD>
2.440

$$$$
1y26_lig
 OpenBabel02141814133D
libRbt.so/2013.1/901 2013/11/27
 10 11  0  0  0  0  0  0  0  0999 V2000
   19.4200  -16.6960    2.8577 N   0  0  0  0  0  0  0  0  0  0  0  0
   20.1849  -16.0345    3.7298 C   0  0  0  0  0  0  0  0  0  0  0  0
   20.4837  -16.3655    4.9844 N   0  0  0  0  0  0  0  0  0  0  0  0
   19.9160  -17.5461    5.3193 C   0  0  0  0  0  0  0  0  0  0  0  0
   19.1169  -18.3413    4.5222 C   0  0  0  0  0  0  0  0  0  0  0  0
   18.8673  -17.8690    3.2303 C   0  0  0  0  0  0  0  0  0  0  0  0
   18.1015  -18.5412    2.3860 N   0  0  0  0  0  0  0  0  0  0  0  0
   18.6921  -19.4759    5.1738 N   0  0  0  0  0  0  0  0  0  0  0  0
   19.2700  -19.3674    6.3561 C   0  0  0  0  0  0  0  0  0  0  0  0
   20.0127  -18.2165    6.5095 N   0  0  0  0  0  0  0  0  0  0  0  0
  1  2  2  0  0  0  0
  2  3  1  0  0  0  0
  3  4  2  0  0  0  0
  5  4  1  0  0  0  0
  5  6  2  0  0  0  0
  6  1  1  0  0  0  0
  6  7  1  0  0  0  0
  8  5  1  0  0  0  0
  9  8  1  0  0  0  0
 10  4  1  0  0  0  0
 10  9  2  0  0  0  0
M  END
>  <CHROM.1>
19.40651884,-17.84417784,4.50565517,-1.68055286,0.93936660,2.17356632

>  <Name>
1y26_lig

>  <RI>
0

>  <Rbt.Current_Directory>
/home/afrankz/demos/rdock_decoys_rna/rnas/1y26

>  <Rbt.Executable>
rbdock ($Id: //depot/dev/client3/rdock/2013.1/src/exe/rbdock.cxx#4 $)

>  <Rbt.Library>
libRbt.so (2013.1, Build901 2013/11/27)

>  <Rbt.Parameter_File>
/export/apps/rDock/src/rDock_2013.1_src/data/scripts/dock_solv.prm

>  <Rbt.Receptor>
prm/blind_docking_60.prm

>  <SCORE>
-25.8072

>  <SCORE.INTER>
-25.8072

>  <SCORE.INTER.CONST>
1

>  <SCORE.INTER.POLAR>
-2.01954

>  <SCORE.INTER.ROT>
0

>  <SCORE.INTER.SOLV>
12.7751

>  <SCORE.INTER.VDW>
-18.3314

>  <SCORE.INTER.norm>
-2.58072

>  <SCORE.INTRA>
0

>  <SCORE.INTRA.DIHEDRAL>
0

>  <SCORE.INTRA.DIHEDRAL.0>
0

>  <SCORE.INTRA.POLAR>
0

>  <SCORE.INTRA.POLAR.0>
0

>  <SCORE.INTRA.REPUL>
0

>  <SCORE.INTRA.REPUL.0>
0

>  <SCORE.INTRA.SOLV>
0

>  <SCORE.INTRA.SOLV.lig_0>
-16.9472

>  <SCORE.INTRA.VDW>
0

>  <SCORE.INTRA.VDW.0>
0

>  <SCORE.INTRA.norm>
0

>  <SCORE.RESTR>
0

>  <SCORE.RESTR.CAVITY>
0

>  <SCORE.RESTR.norm>
0

>  <SCORE.SYSTEM>
0

>  <SCORE.SYSTEM.CONST>
0

>  <SCORE.SYSTEM.DIHEDRAL>
0

>  <SCORE.SYSTEM.SOLV>
0

>  <SCORE.SYSTEM.norm>
0

>  <SCORE.heavy>
10

>  <SCORE.norm>
-2.58072

>  <RMSD>
2.440

$$$$
1y26_lig
 OpenBabel02141814133D
libRbt.so/2013.1/901 2013/11/27
 10 11  0  0  0  0  0  0  0  0999 V2000
   19.4451  -16.7118    2.8643 N   0  0  0  0  0  0  0  0  0  0  0  0
   20.1977  -16.0464    3.7440 C   0  0  0  0  0  0  0  0  0  0  0  0
   20.4803  -16.3725    5.0037 N   0  0  0  0  0  0  0  0  0  0  0  0
   19.9093  -17.5525    5.3352 C   0  0  0  0  0  0  0  0  0  0  0  0
   19.1216  -18.3515    4.5305 C   0  0  0  0  0  0  0  0  0  0  0  0
   18.8887  -17.8840    3.2337 C   0  0  0  0  0  0  0  0  0  0  0  0
   18.1348  -18.5601    2.3818 N   0  0  0  0  0  0  0  0  0  0  0  0
   18.6895  -19.4842    5.1805 N   0  0  0  0  0  0  0  0  0  0  0  0
   19.2516  -19.3708    6.3699 C   0  0  0  0  0  0  0  0  0  0  0  0
   19.9910  -18.2186    6.5290 N   0  0  0  0  0  0  0  0  0  0  0  0
  1  2  2  0  0  0  0
  2  3  1  0  0  0  0
  3  4  2  0  0  0  0
  5  4  1  0  0  0  0
  5  6  2  0  0  0  0
  6  1  1  0  0  0  0
  6  7  1  0  0  0  0
  8  5  1  0  0  0  0
  9  8  1  0  0  0  0
 10  4  1  0  0  0  0
 10  9  2  0  0  0  0
M  END
>  <CHROM.1>
19.41098496,-17.85408047,4.51603318,-1.66288292,0.94761735,2.15568834

>  <Name>
1y26_lig

>  <RI>
224

>  <Rbt.Current_Directory>
/home/afrankz/demos/rdock_decoys_rna/rnas/1y26

>  <Rbt.Executable>
rbdock ($Id: //depot/dev/client3/rdock/2013.1/src/exe/rbdock.cxx#4 $)

>  <Rbt.Library>
libRbt.so (2013.1, Build901 2013/11/27)

>  <Rbt.Parameter_File>
/export/apps/rDock/src/rDock_2013.1_src/data/scripts/dock_solv.prm

>  <Rbt.Receptor>
prm/pocket_docking_6.prm

>  <SCORE>
-25.7712

>  <SCORE.INTER>
-25.7712

>  <SCORE.INTER.CONST>
1

>  <SCORE.INTER.POLAR>
-2.01929

>  <SCORE.INTER.ROT>
0

>  <SCORE.INTER.SOLV>
12.7475

>  <SCORE.INTER.VDW>
-18.299

>  <SCORE.INTER.norm>
-2.57712

>  <SCORE.INTRA>
0

>  <SCORE.INTRA.DIHEDRAL>
0

>  <SCORE.INTRA.DIHEDRAL.0>
0

>  <SCORE.INTRA.POLAR>
0

>  <SCORE.INTRA.POLAR.0>
0

>  <SCORE.INTRA.REPUL>
0

>  <SCORE.INTRA.REPUL.0>
0

>  <SCORE.INTRA.SOLV>
0

>  <SCORE.INTRA.SOLV.lig_0>
-16.9472

>  <SCORE.INTRA.VDW>
0

>  <SCORE.INTRA.VDW.0>
0

>  <SCORE.INTRA.norm>
0

>  <SCORE.RESTR>
0

>  <SCORE.RESTR.CAVITY>
0

>  <SCORE.RESTR.norm>
0

>  <SCORE.SYSTEM>
0

>  <SCORE.SYSTEM.CONST>
0

>  <SCORE.SYSTEM.DIHEDRAL>
0

>  <SCORE.SYSTEM.SOLV>
0

>  <SCORE.SYSTEM.norm>
0

>  <SCORE.heavy>
10

>  <SCORE.norm>
-2.57712

>  <RMSD>
2.440

$$$$
1y26_lig
 OpenBabel02141814133D
libRbt.so/2013.1/901 2013/11/27
 10 11  0  0  0  0  0  0  0  0999 V2000
   19.4026  -16.6854    2.8651 N   0  0  0  0  0  0  0  0  0  0  0  0
   20.1593  -16.0188    3.7404 C   0  0  0  0  0  0  0  0  0  0  0  0
   20.4572  -16.3492    4.9954 N   0  0  0  0  0  0  0  0  0  0  0  0
   19.8985  -17.5351    5.3268 C   0  0  0  0  0  0  0  0  0  0  0  0
   19.1086  -18.3358    4.5262 C   0  0  0  0  0  0  0  0  0  0  0  0
   18.8588  -17.8636    3.2342 C   0  0  0  0  0  0  0  0  0  0  0  0
   18.1011  -18.5410    2.3867 N   0  0  0  0  0  0  0  0  0  0  0  0
   18.6915  -19.4750    5.1748 N   0  0  0  0  0  0  0  0  0  0  0  0
   19.2650  -19.3634    6.3589 C   0  0  0  0  0  0  0  0  0  0  0  0
   19.9974  -18.2065    6.5163 N   0  0  0  0  0  0  0  0  0  0  0  0
  1  2  2  0  0  0  0
  2  3  1  0  0  0  0
  3  4  2  0  0  0  0
  5  4  1  0  0  0  0
  5  6  2  0  0  0  0
  6  1  1  0  0  0  0
  6  7  1  0  0  0  0
  8  5  1  0  0  0  0
  9  8  1  0  0  0  0
 10  4  1  0  0  0  0
 10  9  2  0  0  0  0
M  END
>  <CHROM.1>
19.39403622,-17.83621528,4.51125242,-1.68465893,0.94800586,2.17844410

>  <Name>
1y26_lig

>  <RI>
0

>  <Rbt.Current_Directory>
/home/afrankz/demos/rdock_decoys_rna/rnas/1y26

>  <Rbt.Executable>
rbdock ($Id: //depot/dev/client3/rdock/2013.1/src/exe/rbdock.cxx#4 $)

>  <Rbt.Library>
libRbt.so (2013.1, Build901 2013/11/27)

>  <Rbt.Parameter_File>
/export/apps/rDock/src/rDock_2013.1_src/data/scripts/dock_solv.prm

>  <Rbt.Receptor>
prm/blind_docking_100.prm

>  <SCORE>
-25.7669

>  <SCORE.INTER>
-25.7669

>  <SCORE.INTER.CONST>
1

>  <SCORE.INTER.POLAR>
-2.0198

>  <SCORE.INTER.ROT>
0

>  <SCORE.INTER.SOLV>
12.813

>  <SCORE.INTER.VDW>
-18.3163

>  <SCORE.INTER.norm>
-2.57669

>  <SCORE.INTRA>
0

>  <SCORE.INTRA.DIHEDRAL>
0

>  <SCORE.INTRA.DIHEDRAL.0>
0

>  <SCORE.INTRA.POLAR>
0

>  <SCORE.INTRA.POLAR.0>
0

>  <SCORE.INTRA.REPUL>
0

>  <SCORE.INTRA.REPUL.0>
0

>  <SCORE.INTRA.SOLV>
0

>  <SCORE.INTRA.SOLV.lig_0>
-16.9472

>  <SCORE.INTRA.VDW>
0

>  <SCORE.INTRA.VDW.0>
0

>  <SCORE.INTRA.norm>
0

>  <SCORE.RESTR>
0

>  <SCORE.RESTR.CAVITY>
0

>  <SCORE.RESTR.norm>
0

>  <SCORE.SYSTEM>
0

>  <SCORE.SYSTEM.CONST>
0

>  <SCORE.SYSTEM.DIHEDRAL>
0

>  <SCORE.SYSTEM.SOLV>
0

>  <SCORE.SYSTEM.norm>
0

>  <SCORE.heavy>
10

>  <SCORE.norm>
-2.57669

>  <RMSD>
2.441

$$$$
1y26_lig
 OpenBabel02141814133D
libRbt.so/2013.1/901 2013/11/27
 10 11  0  0  0  0  0  0  0  0999 V2000
   19.4119  -16.6922    2.8729 N   0  0  0  0  0  0  0  0  0  0  0  0
   20.1548  -16.0197    3.7554 C   0  0  0  0  0  0  0  0  0  0  0  0
   20.4469  -16.3499    5.0119 N   0  0  0  0  0  0  0  0  0  0  0  0
   19.8985  -17.5425    5.3362 C   0  0  0  0  0  0  0  0  0  0  0  0
   19.1232  -18.3497    4.5278 C   0  0  0  0  0  0  0  0  0  0  0  0
   18.8780  -17.8771    3.2351 C   0  0  0  0  0  0  0  0  0  0  0  0
   18.1341  -18.5605    2.3804 N   0  0  0  0  0  0  0  0  0  0  0  0
   18.7136  -19.4949    5.1706 N   0  0  0  0  0  0  0  0  0  0  0  0
   19.2770  -19.3800    6.3593 C   0  0  0  0  0  0  0  0  0  0  0  0
   19.9957  -18.2157    6.5248 N   0  0  0  0  0  0  0  0  0  0  0  0
  1  2  2  0  0  0  0
  2  3  1  0  0  0  0
  3  4  2  0  0  0  0
  5  4  1  0  0  0  0
  5  6  2  0  0  0  0
  6  1  1  0  0  0  0
  6  7  1  0  0  0  0
  8  5  1  0  0  0  0
  9  8  1  0  0  0  0
 10  4  1  0  0  0  0
 10  9  2  0  0  0  0
M  END
>  <CHROM.1>
19.40338523,-17.84704361,4.51620848,-1.68462612,0.96110399,2.18079740

>  <Name>
1y26_lig

>  <RI>
224

>  <Rbt.Current_Directory>
/home/afrankz/demos/rdock_decoys_rna/rnas/1y26

>  <Rbt.Executable>
rbdock ($Id: //depot/dev/client3/rdock/2013.1/src/exe/rbdock.cxx#4 $)

>  <Rbt.Library>
libRbt.so (2013.1, Build901 2013/11/27)

>  <Rbt.Parameter_File>
/export/apps/rDock/src/rDock_2013.1_src/data/scripts/dock_solv.prm

>  <Rbt.Receptor>
prm/pocket_docking_6.prm

>  <SCORE>
-25.7924

>  <SCORE.INTER>
-25.7924

>  <SCORE.INTER.CONST>
1

>  <SCORE.INTER.POLAR>
-2.0198

>  <SCORE.INTER.ROT>
0

>  <SCORE.INTER.SOLV>
12.8241

>  <SCORE.INTER.VDW>
-18.3369

>  <SCORE.INTER.norm>
-2.57924

>  <SCORE.INTRA>
0

>  <SCORE.INTRA.DIHEDRAL>
0

>  <SCORE.INTRA.DIHEDRAL.0>
0

>  <SCORE.INTRA.POLAR>
0

>  <SCORE.INTRA.POLAR.0>
0

>  <SCORE.INTRA.REPUL>
0

>  <SCORE.INTRA.REPUL.0>
0

>  <SCORE.INTRA.SOLV>
0

>  <SCORE.INTRA.SOLV.lig_0>
-16.9472

>  <SCORE.INTRA.VDW>
0

>  <SCORE.INTRA.VDW.0>
0

>  <SCORE.INTRA.norm>
0

>  <SCORE.RESTR>
0

>  <SCORE.RESTR.CAVITY>
0

>  <SCORE.RESTR.norm>
0

>  <SCORE.SYSTEM>
0

>  <SCORE.SYSTEM.CONST>
0

>  <SCORE.SYSTEM.DIHEDRAL>
0

>  <SCORE.SYSTEM.SOLV>
0

>  <SCORE.SYSTEM.norm>
0

>  <SCORE.heavy>
10

>  <SCORE.norm>
-2.57924

>  <RMSD>
2.441

$$$$
1y26_lig
 OpenBabel02141814133D
libRbt.so/2013.1/901 2013/11/27
 10 11  0  0  0  0  0  0  0  0999 V2000
   17.6819  -18.7477    2.8445 N   0  0  0  0  0  0  0  0  0  0  0  0
   18.3519  -18.3782    1.7501 C   0  0  0  0  0  0  0  0  0  0  0  0
   19.5252  -17.7537    1.6706 N   0  0  0  0  0  0  0  0  0  0  0  0
   20.0357  -17.5296    2.9024 C   0  0  0  0  0  0  0  0  0  0  0  0
   19.4649  -17.8653    4.1140 C   0  0  0  0  0  0  0  0  0  0  0  0
   18.2222  -18.5031    4.0562 C   0  0  0  0  0  0  0  0  0  0  0  0
   17.5759  -18.8552    5.1560 N   0  0  0  0  0  0  0  0  0  0  0  0
   20.2433  -17.4846    5.1824 N   0  0  0  0  0  0  0  0  0  0  0  0
   21.2985  -16.9472    4.5982 C   0  0  0  0  0  0  0  0  0  0  0  0
   21.2265  -16.9335    3.2219 N   0  0  0  0  0  0  0  0  0  0  0  0
  1  2  2  0  0  0  0
  2  3  1  0  0  0  0
  3  4  2  0  0  0  0
  5  4  1  0  0  0  0
  5  6  2  0  0  0  0
  6  1  1  0  0  0  0
  6  7  1  0  0  0  0
  8  5  1  0  0  0  0
  9  8  1  0  0  0  0
 10  4  1  0  0  0  0
 10  9  2  0  0  0  0
M  END
>  <CHROM.1>
19.36119152,-17.90034833,3.54883476,-2.91409068,0.47413616,1.59818063

>  <Name>
1y26_lig

>  <RI>
0

>  <Rbt.Current_Directory>
/home/afrankz/demos/rdock_decoys_rna/rnas/1y26

>  <Rbt.Executable>
rbdock ($Id: //depot/dev/client3/rdock/2013.1/src/exe/rbdock.cxx#4 $)

>  <Rbt.Library>
libRbt.so (2013.1, Build901 2013/11/27)

>  <Rbt.Parameter_File>
/export/apps/rDock/src/rDock_2013.1_src/data/scripts/dock_solv.prm

>  <Rbt.Receptor>
prm/pocket_docking_8.prm

>  <SCORE>
-22.3341

>  <SCORE.INTER>
-22.3341

>  <SCORE.INTER.CONST>
1

>  <SCORE.INTER.POLAR>
-2.39375

>  <SCORE.INTER.ROT>
0

>  <SCORE.INTER.SOLV>
12.2075

>  <SCORE.INTER.VDW>
-14.5794

>  <SCORE.INTER.norm>
-2.23341

>  <SCORE.INTRA>
0

>  <SCORE.INTRA.DIHEDRAL>
0

>  <SCORE.INTRA.DIHEDRAL.0>
0

>  <SCORE.INTRA.POLAR>
0

>  <SCORE.INTRA.POLAR.0>
0

>  <SCORE.INTRA.REPUL>
0

>  <SCORE.INTRA.REPUL.0>
0

>  <SCORE.INTRA.SOLV>
0

>  <SCORE.INTRA.SOLV.lig_0>
-16.9472

>  <SCORE.INTRA.VDW>
0

>  <SCORE.INTRA.VDW.0>
0

>  <SCORE.INTRA.norm>
0

>  <SCORE.RESTR>
0

>  <SCORE.RESTR.CAVITY>
0

>  <SCORE.RESTR.norm>
0

>  <SCORE.SYSTEM>
0

>  <SCORE.SYSTEM.CONST>
0

>  <SCORE.SYSTEM.DIHEDRAL>
0

>  <SCORE.SYSTEM.SOLV>
0

>  <SCORE.SYSTEM.norm>
0

>  <SCORE.heavy>
10

>  <SCORE.norm>
-2.23341

>  <RMSD>
2.700

$$$$
1y26_lig
 OpenBabel02141814133D
libRbt.so/2013.1/901 2013/11/27
 10 11  0  0  0  0  0  0  0  0999 V2000
   17.6722  -18.7442    2.8449 N   0  0  0  0  0  0  0  0  0  0  0  0
   18.3418  -18.3674    1.7528 C   0  0  0  0  0  0  0  0  0  0  0  0
   19.5100  -17.7329    1.6774 N   0  0  0  0  0  0  0  0  0  0  0  0
   20.0155  -17.5064    2.9108 C   0  0  0  0  0  0  0  0  0  0  0  0
   19.4445  -17.8487    4.1204 C   0  0  0  0  0  0  0  0  0  0  0  0
   18.2073  -18.4969    4.0585 C   0  0  0  0  0  0  0  0  0  0  0  0
   17.5611  -18.8561    5.1560 N   0  0  0  0  0  0  0  0  0  0  0  0
   20.2168  -17.4632    5.1914 N   0  0  0  0  0  0  0  0  0  0  0  0
   21.2689  -16.9160    4.6107 C   0  0  0  0  0  0  0  0  0  0  0  0
   21.2004  -16.9007    3.2343 N   0  0  0  0  0  0  0  0  0  0  0  0
  1  2  2  0  0  0  0
  2  3  1  0  0  0  0
  3  4  2  0  0  0  0
  5  4  1  0  0  0  0
  5  6  2  0  0  0  0
  6  1  1  0  0  0  0
  6  7  1  0  0  0  0
  8  5  1  0  0  0  0
  9  8  1  0  0  0  0
 10  4  1  0  0  0  0
 10  9  2  0  0  0  0
M  END
>  <CHROM.1>
19.34246812,-17.88381034,3.55493288,-2.91145658,0.48263775,1.59849821

>  <Name>
1y26_lig

>  <RI>
0

>  <Rbt.Current_Directory>
/home/afrankz/demos/rdock_decoys_rna/rnas/1y26

>  <Rbt.Executable>
rbdock ($Id: //depot/dev/client3/rdock/2013.1/src/exe/rbdock.cxx#4 $)

>  <Rbt.Library>
libRbt.so (2013.1, Build901 2013/11/27)

>  <Rbt.Parameter_File>
/export/apps/rDock/src/rDock_2013.1_src/data/scripts/dock_solv.prm

>  <Rbt.Receptor>
prm/blind_docking_60.prm

>  <SCORE>
-22.2694

>  <SCORE.INTER>
-22.2694

>  <SCORE.INTER.CONST>
1

>  <SCORE.INTER.POLAR>
-2.39334

>  <SCORE.INTER.ROT>
0

>  <SCORE.INTER.SOLV>
12.2322

>  <SCORE.INTER.VDW>
-14.5459

>  <SCORE.INTER.norm>
-2.22694

>  <SCORE.INTRA>
0

>  <SCORE.INTRA.DIHEDRAL>
0

>  <SCORE.INTRA.DIHEDRAL.0>
0

>  <SCORE.INTRA.POLAR>
0

>  <SCORE.INTRA.POLAR.0>
0

>  <SCORE.INTRA.REPUL>
0

>  <SCORE.INTRA.REPUL.0>
0

>  <SCORE.INTRA.SOLV>
0

>  <SCORE.INTRA.SOLV.lig_0>
-16.9472

>  <SCORE.INTRA.VDW>
0

>  <SCORE.INTRA.VDW.0>
0

>  <SCORE.INTRA.norm>
0

>  <SCORE.RESTR>
0

>  <SCORE.RESTR.CAVITY>
0

>  <SCORE.RESTR.norm>
0

>  <SCORE.SYSTEM>
0

>  <SCORE.SYSTEM.CONST>
0

>  <SCORE.SYSTEM.DIHEDRAL>
0

>  <SCORE.SYSTEM.SOLV>
0

>  <SCORE.SYSTEM.norm>
0

>  <SCORE.heavy>
10

>  <SCORE.norm>
-2.22694

>  <RMSD>
2.701

$$$$
1y26_lig
 OpenBabel02141814133D
libRbt.so/2013.1/901 2013/11/27
 10 11  0  0  0  0  0  0  0  0999 V2000
   17.6778  -18.7484    2.8436 N   0  0  0  0  0  0  0  0  0  0  0  0
   18.3461  -18.3792    1.7481 C   0  0  0  0  0  0  0  0  0  0  0  0
   19.5189  -17.7540    1.6666 N   0  0  0  0  0  0  0  0  0  0  0  0
   20.0309  -17.5286    2.8976 C   0  0  0  0  0  0  0  0  0  0  0  0
   19.4620  -17.8639    4.1101 C   0  0  0  0  0  0  0  0  0  0  0  0
   18.2196  -18.5026    4.0545 C   0  0  0  0  0  0  0  0  0  0  0  0
   17.5750  -18.8544    5.1553 N   0  0  0  0  0  0  0  0  0  0  0  0
   20.2415  -17.4820    5.1773 N   0  0  0  0  0  0  0  0  0  0  0  0
   21.2956  -16.9443    4.5913 C   0  0  0  0  0  0  0  0  0  0  0  0
   21.2218  -16.9315    3.2151 N   0  0  0  0  0  0  0  0  0  0  0  0
  1  2  2  0  0  0  0
  2  3  1  0  0  0  0
  3  4  2  0  0  0  0
  5  4  1  0  0  0  0
  5  6  2  0  0  0  0
  6  1  1  0  0  0  0
  6  7  1  0  0  0  0
  8  5  1  0  0  0  0
  9  8  1  0  0  0  0
 10  4  1  0  0  0  0
 10  9  2  0  0  0  0
M  END
>  <CHROM.1>
19.35750185,-17.89944051,3.54517386,-2.91562407,0.47476851,1.59821527

>  <Name>
1y26_lig

>  <RI>
0

>  <Rbt.Current_Directory>
/home/afrankz/demos/rdock_decoys_rna/rnas/1y26

>  <Rbt.Executable>
rbdock ($Id: //depot/dev/client3/rdock/2013.1/src/exe/rbdock.cxx#4 $)

>  <Rbt.Library>
libRbt.so (2013.1, Build901 2013/11/27)

>  <Rbt.Parameter_File>
/export/apps/rDock/src/rDock_2013.1_src/data/scripts/dock_solv.prm

>  <Rbt.Receptor>
prm/blind_docking_60.prm

>  <SCORE>
-22.3249

>  <SCORE.INTER>
-22.3249

>  <SCORE.INTER.CONST>
1

>  <SCORE.INTER.POLAR>
-2.39377

>  <SCORE.INTER.ROT>
0

>  <SCORE.INTER.SOLV>
12.209

>  <SCORE.INTER.VDW>
-14.5737

>  <SCORE.INTER.norm>
-2.23249

>  <SCORE.INTRA>
0

>  <SCORE.INTRA.DIHEDRAL>
0

>  <SCORE.INTRA.DIHEDRAL.0>
0

>  <SCORE.INTRA.POLAR>
0

>  <SCORE.INTRA.POLAR.0>
0

>  <SCORE.INTRA.REPUL>
0

>  <SCORE.INTRA.REPUL.0>
0

>  <SCORE.INTRA.SOLV>
0

>  <SCORE.INTRA.SOLV.lig_0>
-16.9472

>  <SCORE.INTRA.VDW>
0

>  <SCORE.INTRA.VDW.0>
0

>  <SCORE.INTRA.norm>
0

>  <SCORE.RESTR>
0

>  <SCORE.RESTR.CAVITY>
0

>  <SCORE.RESTR.norm>
0

>  <SCORE.SYSTEM>
0

>  <SCORE.SYSTEM.CONST>
0

>  <SCORE.SYSTEM.DIHEDRAL>
0

>  <SCORE.SYSTEM.SOLV>
0

>  <SCORE.SYSTEM.norm>
0

>  <SCORE.heavy>
10

>  <SCORE.norm>
-2.23249

>  <RMSD>
2.701

$$$$
1y26_lig
 OpenBabel02141814133D
libRbt.so/2013.1/901 2013/11/27
 10 11  0  0  0  0  0  0  0  0999 V2000
   17.6782  -18.7503    2.8103 N   0  0  0  0  0  0  0  0  0  0  0  0
   18.3560  -18.3728    1.7234 C   0  0  0  0  0  0  0  0  0  0  0  0
   19.5273  -17.7430    1.6570 N   0  0  0  0  0  0  0  0  0  0  0  0
   20.0263  -17.5226    2.8942 C   0  0  0  0  0  0  0  0  0  0  0  0
   19.4465  -17.8663    4.0992 C   0  0  0  0  0  0  0  0  0  0  0  0
   18.2070  -18.5091    4.0278 C   0  0  0  0  0  0  0  0  0  0  0  0
   17.5528  -18.8690    5.1202 N   0  0  0  0  0  0  0  0  0  0  0  0
   20.2141  -17.4875    5.1760 N   0  0  0  0  0  0  0  0  0  0  0  0
   21.2719  -16.9429    4.6035 C   0  0  0  0  0  0  0  0  0  0  0  0
   21.2118  -16.9230    3.2267 N   0  0  0  0  0  0  0  0  0  0  0  0
  1  2  2  0  0  0  0
  2  3  1  0  0  0  0
  3  4  2  0  0  0  0
  5  4  1  0  0  0  0
  5  6  2  0  0  0  0
  6  1  1  0  0  0  0
  6  7  1  0  0  0  0
  8  5  1  0  0  0  0
  9  8  1  0  0  0  0
 10  4  1  0  0  0  0
 10  9  2  0  0  0  0
M  END
>  <CHROM.1>
19.34777662,-17.89919425,3.53302680,-2.90455250,0.47857909,1.59849905

>  <Name>
1y26_lig

>  <RI>
224

>  <Rbt.Current_Directory>
/home/afrankz/demos/rdock_decoys_rna/rnas/1y26

>  <Rbt.Executable>
rbdock ($Id: //depot/dev/client3/rdock/2013.1/src/exe/rbdock.cxx#4 $)

>  <Rbt.Library>
libRbt.so (2013.1, Build901 2013/11/27)

>  <Rbt.Parameter_File>
/export/apps/rDock/src/rDock_2013.1_src/data/scripts/dock_solv.prm

>  <Rbt.Receptor>
prm/pocket_docking_7.prm

>  <SCORE>
-22.3048

>  <SCORE.INTER>
-22.3048

>  <SCORE.INTER.CONST>
1

>  <SCORE.INTER.POLAR>
-2.40189

>  <SCORE.INTER.ROT>
0

>  <SCORE.INTER.SOLV>
12.2453

>  <SCORE.INTER.VDW>
-14.5453

>  <SCORE.INTER.norm>
-2.23048

>  <SCORE.INTRA>
0

>  <SCORE.INTRA.DIHEDRAL>
0

>  <SCORE.INTRA.DIHEDRAL.0>
0

>  <SCORE.INTRA.POLAR>
0

>  <SCORE.INTRA.POLAR.0>
0

>  <SCORE.INTRA.REPUL>
0

>  <SCORE.INTRA.REPUL.0>
0

>  <SCORE.INTRA.SOLV>
0

>  <SCORE.INTRA.SOLV.lig_0>
-16.9472

>  <SCORE.INTRA.VDW>
0

>  <SCORE.INTRA.VDW.0>
0

>  <SCORE.INTRA.norm>
0

>  <SCORE.RESTR>
0

>  <SCORE.RESTR.CAVITY>
0

>  <SCORE.RESTR.norm>
0

>  <SCORE.SYSTEM>
0

>  <SCORE.SYSTEM.CONST>
0

>  <SCORE.SYSTEM.DIHEDRAL>
0

>  <SCORE.SYSTEM.SOLV>
0

>  <SCORE.SYSTEM.norm>
0

>  <SCORE.heavy>
10

>  <SCORE.norm>
-2.23048

>  <RMSD>
2.702

$$$$
1y26_lig
 OpenBabel02141814133D
libRbt.so/2013.1/901 2013/11/27
 10 11  0  0  0  0  0  0  0  0999 V2000
   17.6851  -18.7656    2.8317 N   0  0  0  0  0  0  0  0  0  0  0  0
   18.3553  -18.3917    1.7389 C   0  0  0  0  0  0  0  0  0  0  0  0
   19.5254  -17.7610    1.6624 N   0  0  0  0  0  0  0  0  0  0  0  0
   20.0324  -17.5352    2.8953 C   0  0  0  0  0  0  0  0  0  0  0  0
   19.4609  -17.8749    4.1055 C   0  0  0  0  0  0  0  0  0  0  0  0
   18.2217  -18.5192    4.0447 C   0  0  0  0  0  0  0  0  0  0  0  0
   17.5750  -18.8756    5.1429 N   0  0  0  0  0  0  0  0  0  0  0  0
   20.2352  -17.4911    5.1758 N   0  0  0  0  0  0  0  0  0  0  0  0
   21.2887  -16.9476    4.5941 C   0  0  0  0  0  0  0  0  0  0  0  0
   21.2194  -16.9331    3.2177 N   0  0  0  0  0  0  0  0  0  0  0  0
  1  2  2  0  0  0  0
  2  3  1  0  0  0  0
  3  4  2  0  0  0  0
  5  4  1  0  0  0  0
  5  6  2  0  0  0  0
  6  1  1  0  0  0  0
  6  7  1  0  0  0  0
  8  5  1  0  0  0  0
  9  8  1  0  0  0  0
 10  4  1  0  0  0  0
 10  9  2  0  0  0  0
M  END
>  <CHROM.1>
19.35849360,-17.91005374,3.54011146,-2.91201013,0.47942924,1.59806224

>  <Name>
1y26_lig

>  <RI>
0

>  <Rbt.Current_Directory>
/home/afrankz/demos/rdock_decoys_rna/rnas/1y26

>  <Rbt.Executable>
rbdock ($Id: //depot/dev/client3/rdock/2013.1/src/exe/rbdock.cxx#4 $)

>  <Rbt.Library>
libRbt.so (2013.1, Build901 2013/11/27)

>  <Rbt.Parameter_File>
/export/apps/rDock/src/rDock_2013.1_src/data/scripts/dock_solv.prm

>  <Rbt.Receptor>
prm/blind_docking_100.prm

>  <SCORE>
-22.3021

>  <SCORE.INTER>
-22.3021

>  <SCORE.INTER.CONST>
1

>  <SCORE.INTER.POLAR>
-2.3855

>  <SCORE.INTER.ROT>
0

>  <SCORE.INTER.SOLV>
12.2083

>  <SCORE.INTER.VDW>
-14.5858

>  <SCORE.INTER.norm>
-2.23021

>  <SCORE.INTRA>
0

>  <SCORE.INTRA.DIHEDRAL>
0

>  <SCORE.INTRA.DIHEDRAL.0>
0

>  <SCORE.INTRA.POLAR>
0

>  <SCORE.INTRA.POLAR.0>
0

>  <SCORE.INTRA.REPUL>
0

>  <SCORE.INTRA.REPUL.0>
0

>  <SCORE.INTRA.SOLV>
0

>  <SCORE.INTRA.SOLV.lig_0>
-16.9472

>  <SCORE.INTRA.VDW>
0

>  <SCORE.INTRA.VDW.0>
0

>  <SCORE.INTRA.norm>
0

>  <SCORE.RESTR>
0

>  <SCORE.RESTR.CAVITY>
0

>  <SCORE.RESTR.norm>
0

>  <SCORE.SYSTEM>
0

>  <SCORE.SYSTEM.CONST>
0

>  <SCORE.SYSTEM.DIHEDRAL>
0

>  <SCORE.SYSTEM.SOLV>
0

>  <SCORE.SYSTEM.norm>
0

>  <SCORE.heavy>
10

>  <SCORE.norm>
-2.23021

>  <RMSD>
2.703

$$$$
1y26_lig
 OpenBabel02141814133D
libRbt.so/2013.1/901 2013/11/27
 10 11  0  0  0  0  0  0  0  0999 V2000
   17.7058  -18.7663    2.8347 N   0  0  0  0  0  0  0  0  0  0  0  0
   18.3729  -18.3911    1.7405 C   0  0  0  0  0  0  0  0  0  0  0  0
   19.5423  -17.7594    1.6614 N   0  0  0  0  0  0  0  0  0  0  0  0
   20.0522  -17.5339    2.8932 C   0  0  0  0  0  0  0  0  0  0  0  0
   19.4841  -17.8748    4.1045 C   0  0  0  0  0  0  0  0  0  0  0  0
   18.2452  -18.5201    4.0466 C   0  0  0  0  0  0  0  0  0  0  0  0
   17.6016  -18.8777    5.1461 N   0  0  0  0  0  0  0  0  0  0  0  0
   20.2607  -17.4910    5.1731 N   0  0  0  0  0  0  0  0  0  0  0  0
   21.3123  -16.9463    4.5892 C   0  0  0  0  0  0  0  0  0  0  0  0
   21.2395  -16.9310    3.2129 N   0  0  0  0  0  0  0  0  0  0  0  0
  1  2  2  0  0  0  0
  2  3  1  0  0  0  0
  3  4  2  0  0  0  0
  5  4  1  0  0  0  0
  5  6  2  0  0  0  0
  6  1  1  0  0  0  0
  6  7  1  0  0  0  0
  8  5  1  0  0  0  0
  9  8  1  0  0  0  0
 10  4  1  0  0  0  0
 10  9  2  0  0  0  0
M  END
>  <CHROM.1>
19.38026930,-17.90969754,3.53943442,-2.91488569,0.48020028,1.59999558

>  <Name>
1y26_lig

>  <RI>
224

>  <Rbt.Current_Directory>
/home/afrankz/demos/rdock_decoys_rna/rnas/1y26

>  <Rbt.Executable>
rbdock ($Id: //depot/dev/client3/rdock/2013.1/src/exe/rbdock.cxx#4 $)

>  <Rbt.Library>
libRbt.so (2013.1, Build901 2013/11/27)

>  <Rbt.Parameter_File>
/export/apps/rDock/src/rDock_2013.1_src/data/scripts/dock_solv.prm

>  <Rbt.Receptor>
prm/pocket_docking_7.prm

>  <SCORE>
-22.3008

>  <SCORE.INTER>
-22.3008

>  <SCORE.INTER.CONST>
1

>  <SCORE.INTER.POLAR>
-2.35576

>  <SCORE.INTER.ROT>
0

>  <SCORE.INTER.SOLV>
12.1807

>  <SCORE.INTER.VDW>
-14.6749

>  <SCORE.INTER.norm>
-2.23008

>  <SCORE.INTRA>
0

>  <SCORE.INTRA.DIHEDRAL>
0

>  <SCORE.INTRA.DIHEDRAL.0>
0

>  <SCORE.INTRA.POLAR>
0

>  <SCORE.INTRA.POLAR.0>
0

>  <SCORE.INTRA.REPUL>
0

>  <SCORE.INTRA.REPUL.0>
0

>  <SCORE.INTRA.SOLV>
0

>  <SCORE.INTRA.SOLV.lig_0>
-16.9472

>  <SCORE.INTRA.VDW>
0

>  <SCORE.INTRA.VDW.0>
0

>  <SCORE.INTRA.norm>
0

>  <SCORE.RESTR>
0

>  <SCORE.RESTR.CAVITY>
0

>  <SCORE.RESTR.norm>
0

>  <SCORE.SYSTEM>
0

>  <SCORE.SYSTEM.CONST>
0

>  <SCORE.SYSTEM.DIHEDRAL>
0

>  <SCORE.SYSTEM.SOLV>
0

>  <SCORE.SYSTEM.norm>
0

>  <SCORE.heavy>
10

>  <SCORE.norm>
-2.23008

>  <RMSD>
2.704

$$$$
1y26_lig
 OpenBabel02141814133D
libRbt.so/2013.1/901 2013/11/27
 10 11  0  0  0  0  0  0  0  0999 V2000
   17.6618  -18.7645    2.8545 N   0  0  0  0  0  0  0  0  0  0  0  0
   18.3239  -18.3997    1.7537 C   0  0  0  0  0  0  0  0  0  0  0  0
   19.4949  -17.7725    1.6631 N   0  0  0  0  0  0  0  0  0  0  0  0
   20.0126  -17.5396    2.8903 C   0  0  0  0  0  0  0  0  0  0  0  0
   19.4505  -17.8697    4.1074 C   0  0  0  0  0  0  0  0  0  0  0  0
   18.2091  -18.5112    4.0614 C   0  0  0  0  0  0  0  0  0  0  0  0
   17.5707  -18.8585    5.1672 N   0  0  0  0  0  0  0  0  0  0  0  0
   20.2345  -17.4806    5.1686 N   0  0  0  0  0  0  0  0  0  0  0  0
   21.2845  -16.9438    4.5746 C   0  0  0  0  0  0  0  0  0  0  0  0
   21.2038  -16.9384    3.1987 N   0  0  0  0  0  0  0  0  0  0  0  0
  1  2  2  0  0  0  0
  2  3  1  0  0  0  0
  3  4  2  0  0  0  0
  5  4  1  0  0  0  0
  5  6  2  0  0  0  0
  6  1  1  0  0  0  0
  6  7  1  0  0  0  0
  8  5  1  0  0  0  0
  9  8  1  0  0  0  0
 10  4  1  0  0  0  0
 10  9  2  0  0  0  0
M  END
>  <CHROM.1>
19.34322505,-17.90840318,3.54319120,-2.92129346,0.47670284,1.59554864

>  <Name>
1y26_lig

>  <RI>
0

>  <Rbt.Current_Directory>
/home/afrankz/demos/rdock_decoys_rna/rnas/1y26

>  <Rbt.Executable>
rbdock ($Id: //depot/dev/client3/rdock/2013.1/src/exe/rbdock.cxx#4 $)

>  <Rbt.Library>
libRbt.so (2013.1, Build901 2013/11/27)

>  <Rbt.Parameter_File>
/export/apps/rDock/src/rDock_2013.1_src/data/scripts/dock_solv.prm

>  <Rbt.Receptor>
prm/pocket_docking_8.prm

>  <SCORE>
-22.2656

>  <SCORE.INTER>
-22.2656

>  <SCORE.INTER.CONST>
1

>  <SCORE.INTER.POLAR>
-2.39827

>  <SCORE.INTER.ROT>
0

>  <SCORE.INTER.SOLV>
12.2036

>  <SCORE.INTER.VDW>
-14.5174

>  <SCORE.INTER.norm>
-2.22656

>  <SCORE.INTRA>
0

>  <SCORE.INTRA.DIHEDRAL>
0

>  <SCORE.INTRA.DIHEDRAL.0>
0

>  <SCORE.INTRA.POLAR>
0

>  <SCORE.INTRA.POLAR.0>
0

>  <SCORE.INTRA.REPUL>
0

>  <SCORE.INTRA.REPUL.0>
0

>  <SCORE.INTRA.SOLV>
0

>  <SCORE.INTRA.SOLV.lig_0>
-16.9472

>  <SCORE.INTRA.VDW>
0

>  <SCORE.INTRA.VDW.0>
0

>  <SCORE.INTRA.norm>
0

>  <SCORE.RESTR>
0

>  <SCORE.RESTR.CAVITY>
0

>  <SCORE.RESTR.norm>
0

>  <SCORE.SYSTEM>
0

>  <SCORE.SYSTEM.CONST>
0

>  <SCORE.SYSTEM.DIHEDRAL>
0

>  <SCORE.SYSTEM.SOLV>
0

>  <SCORE.SYSTEM.norm>
0

>  <SCORE.heavy>
10

>  <SCORE.norm>
-2.22656

>  <RMSD>
2.704

$$$$
1y26_lig
 OpenBabel02141814133D
libRbt.so/2013.1/901 2013/11/27
 10 11  0  0  0  0  0  0  0  0999 V2000
   17.6919  -18.8007    2.8686 N   0  0  0  0  0  0  0  0  0  0  0  0
   18.3615  -18.4350    1.7727 C   0  0  0  0  0  0  0  0  0  0  0  0
   19.5162  -17.7770    1.6906 N   0  0  0  0  0  0  0  0  0  0  0  0
   20.0073  -17.5106    2.9219 C   0  0  0  0  0  0  0  0  0  0  0  0
   19.4346  -17.8369    4.1351 C   0  0  0  0  0  0  0  0  0  0  0  0
   18.2123  -18.5133    4.0798 C   0  0  0  0  0  0  0  0  0  0  0  0
   17.5658  -18.8607    5.1809 N   0  0  0  0  0  0  0  0  0  0  0  0
   20.1903  -17.4096    5.2021 N   0  0  0  0  0  0  0  0  0  0  0  0
   21.2346  -16.8532    4.6162 C   0  0  0  0  0  0  0  0  0  0  0  0
   21.1763  -16.8718    3.2393 N   0  0  0  0  0  0  0  0  0  0  0  0
  1  2  2  0  0  0  0
  2  3  1  0  0  0  0
  3  4  2  0  0  0  0
  5  4  1  0  0  0  0
  5  6  2  0  0  0  0
  6  1  1  0  0  0  0
  6  7  1  0  0  0  0
  8  5  1  0  0  0  0
  9  8  1  0  0  0  0
 10  4  1  0  0  0  0
 10  9  2  0  0  0  0
M  END
>  <CHROM.1>
19.33768855,-17.88748150,3.56993227,-2.90347723,0.50453823,1.57119178

>  <Name>
1y26_lig

>  <RI>
0

>  <Rbt.Current_Directory>
/home/afrankz/demos/rdock_decoys_rna/rnas/1y26

>  <Rbt.Executable>
rbdock ($Id: //depot/dev/client3/rdock/2013.1/src/exe/rbdock.cxx#4 $)

>  <Rbt.Library>
libRbt.so (2013.1, Build901 2013/11/27)

>  <Rbt.Parameter_File>
/export/apps/rDock/src/rDock_2013.1_src/data/scripts/dock_solv.prm

>  <Rbt.Receptor>
prm/pocket_docking_4.prm

>  <SCORE>
-22.2528

>  <SCORE.INTER>
-22.2528

>  <SCORE.INTER.CONST>
1

>  <SCORE.INTER.POLAR>
-2.36958

>  <SCORE.INTER.ROT>
0

>  <SCORE.INTER.SOLV>
12.1983

>  <SCORE.INTER.VDW>
-14.6027

>  <SCORE.INTER.norm>
-2.22528

>  <SCORE.INTRA>
0

>  <SCORE.INTRA.DIHEDRAL>
0

>  <SCORE.INTRA.DIHEDRAL.0>
0

>  <SCORE.INTRA.POLAR>
0

>  <SCORE.INTRA.POLAR.0>
0

>  <SCORE.INTRA.REPUL>
0

>  <SCORE.INTRA.REPUL.0>
0

>  <SCORE.INTRA.SOLV>
0

>  <SCORE.INTRA.SOLV.lig_0>
-16.9472

>  <SCORE.INTRA.VDW>
0

>  <SCORE.INTRA.VDW.0>
0

>  <SCORE.INTRA.norm>
0

>  <SCORE.RESTR>
0

>  <SCORE.RESTR.CAVITY>
0

>  <SCORE.RESTR.norm>
0

>  <SCORE.SYSTEM>
0

>  <SCORE.SYSTEM.CONST>
0

>  <SCORE.SYSTEM.DIHEDRAL>
0

>  <SCORE.SYSTEM.SOLV>
0

>  <SCORE.SYSTEM.norm>
0

>  <SCORE.heavy>
10

>  <SCORE.norm>
-2.22528

>  <RMSD>
2.705

$$$$
1y26_lig
 OpenBabel02141814133D
libRbt.so/2013.1/901 2013/11/27
 10 11  0  0  0  0  0  0  0  0999 V2000
   17.6911  -18.8100    2.9052 N   0  0  0  0  0  0  0  0  0  0  0  0
   18.3689  -18.3760    1.8396 C   0  0  0  0  0  0  0  0  0  0  0  0
   19.4500  -17.5995    1.8076 N   0  0  0  0  0  0  0  0  0  0  0  0
   19.8518  -17.2817    3.0589 C   0  0  0  0  0  0  0  0  0  0  0  0
   19.2607  -17.6661    4.2460 C   0  0  0  0  0  0  0  0  0  0  0  0
   18.1208  -18.4683    4.1376 C   0  0  0  0  0  0  0  0  0  0  0  0
   17.4638  -18.8816    5.2093 N   0  0  0  0  0  0  0  0  0  0  0  0
   19.9160  -17.1604    5.3447 N   0  0  0  0  0  0  0  0  0  0  0  0
   20.9219  -16.4968    4.8049 C   0  0  0  0  0  0  0  0  0  0  0  0
   20.9305  -16.5223    3.4269 N   0  0  0  0  0  0  0  0  0  0  0  0
  1  2  2  0  0  0  0
  2  3  1  0  0  0  0
  3  4  2  0  0  0  0
  5  4  1  0  0  0  0
  5  6  2  0  0  0  0
  6  1  1  0  0  0  0
  6  7  1  0  0  0  0
  8  5  1  0  0  0  0
  9  8  1  0  0  0  0
 10  4  1  0  0  0  0
 10  9  2  0  0  0  0
M  END
>  <CHROM.1>
19.19627896,-17.72701271,3.67723005,-2.84628214,0.60996761,1.53775571

>  <Name>
1y26_lig

>  <RI>
224

>  <Rbt.Current_Directory>
/home/afrankz/demos/rdock_decoys_rna/rnas/1y26

>  <Rbt.Executable>
rbdock ($Id: //depot/dev/client3/rdock/2013.1/src/exe/rbdock.cxx#4 $)

>  <Rbt.Library>
libRbt.so (2013.1, Build901 2013/11/27)

>  <Rbt.Parameter_File>
/export/apps/rDock/src/rDock_2013.1_src/data/scripts/dock_solv.prm

>  <Rbt.Receptor>
prm/pocket_docking_6.prm

>  <SCORE>
-22.0413

>  <SCORE.INTER>
-22.0413

>  <SCORE.INTER.CONST>
1

>  <SCORE.INTER.POLAR>
-2.43649

>  <SCORE.INTER.ROT>
0

>  <SCORE.INTER.SOLV>
12.4856

>  <SCORE.INTER.VDW>
-14.3344

>  <SCORE.INTER.norm>
-2.20413

>  <SCORE.INTRA>
0

>  <SCORE.INTRA.DIHEDRAL>
0

>  <SCORE.INTRA.DIHEDRAL.0>
0

>  <SCORE.INTRA.POLAR>
0

>  <SCORE.INTRA.POLAR.0>
0

>  <SCORE.INTRA.REPUL>
0

>  <SCORE.INTRA.REPUL.0>
0

>  <SCORE.INTRA.SOLV>
0

>  <SCORE.INTRA.SOLV.lig_0>
-16.9472

>  <SCORE.INTRA.VDW>
0

>  <SCORE.INTRA.VDW.0>
0

>  <SCORE.INTRA.norm>
0

>  <SCORE.RESTR>
0

>  <SCORE.RESTR.CAVITY>
0

>  <SCORE.RESTR.norm>
0

>  <SCORE.SYSTEM>
0

>  <SCORE.SYSTEM.CONST>
0

>  <SCORE.SYSTEM.DIHEDRAL>
0

>  <SCORE.SYSTEM.SOLV>
0

>  <SCORE.SYSTEM.norm>
0

>  <SCORE.heavy>
10

>  <SCORE.norm>
-2.20413

>  <RMSD>
2.722

$$$$
1y26_lig
 OpenBabel02141814133D
libRbt.so/2013.1/901 2013/11/27
 10 11  0  0  0  0  0  0  0  0999 V2000
   17.7818  -18.8468    2.8694 N   0  0  0  0  0  0  0  0  0  0  0  0
   18.4932  -18.4752    1.8021 C   0  0  0  0  0  0  0  0  0  0  0  0
   19.5851  -17.7143    1.7606 N   0  0  0  0  0  0  0  0  0  0  0  0
   19.9580  -17.3389    3.0048 C   0  0  0  0  0  0  0  0  0  0  0  0
   19.3307  -17.6559    4.1932 C   0  0  0  0  0  0  0  0  0  0  0  0
   18.1834  -18.4487    4.0943 C   0  0  0  0  0  0  0  0  0  0  0  0
   17.4928  -18.7996    5.1672 N   0  0  0  0  0  0  0  0  0  0  0  0
   19.9635  -17.1035    5.2825 N   0  0  0  0  0  0  0  0  0  0  0  0
   20.9921  -16.4801    4.7376 C   0  0  0  0  0  0  0  0  0  0  0  0
   21.0367  -16.5751    3.3634 N   0  0  0  0  0  0  0  0  0  0  0  0
  1  2  2  0  0  0  0
  2  3  1  0  0  0  0
  3  4  2  0  0  0  0
  5  4  1  0  0  0  0
  5  6  2  0  0  0  0
  6  1  1  0  0  0  0
  6  7  1  0  0  0  0
  8  5  1  0  0  0  0
  9  8  1  0  0  0  0
 10  4  1  0  0  0  0
 10  9  2  0  0  0  0
M  END
>  <CHROM.1>
19.28047788,-17.74458552,3.62667016,-2.81497552,0.59544977,1.46982227

>  <Name>
1y26_lig

>  <RI>
0

>  <Rbt.Current_Directory>
/home/afrankz/demos/rdock_decoys_rna/rnas/1y26

>  <Rbt.Executable>
rbdock ($Id: //depot/dev/client3/rdock/2013.1/src/exe/rbdock.cxx#4 $)

>  <Rbt.Library>
libRbt.so (2013.1, Build901 2013/11/27)

>  <Rbt.Parameter_File>
/export/apps/rDock/src/rDock_2013.1_src/data/scripts/dock_solv.prm

>  <Rbt.Receptor>
prm/blind_docking_60.prm

>  <SCORE>
-22.0181

>  <SCORE.INTER>
-22.0181

>  <SCORE.INTER.CONST>
1

>  <SCORE.INTER.POLAR>
-2.36104

>  <SCORE.INTER.ROT>
0

>  <SCORE.INTER.SOLV>
12.3979

>  <SCORE.INTER.VDW>
-14.5412

>  <SCORE.INTER.norm>
-2.20181

>  <SCORE.INTRA>
0

>  <SCORE.INTRA.DIHEDRAL>
0

>  <SCORE.INTRA.DIHEDRAL.0>
0

>  <SCORE.INTRA.POLAR>
0

>  <SCORE.INTRA.POLAR.0>
0

>  <SCORE.INTRA.REPUL>
0

>  <SCORE.INTRA.REPUL.0>
0

>  <SCORE.INTRA.SOLV>
0

>  <SCORE.INTRA.SOLV.lig_0>
-16.9472

>  <SCORE.INTRA.VDW>
0

>  <SCORE.INTRA.VDW.0>
0

>  <SCORE.INTRA.norm>
0

>  <SCORE.RESTR>
0

>  <SCORE.RESTR.CAVITY>
0

>  <SCORE.RESTR.norm>
0

>  <SCORE.SYSTEM>
0

>  <SCORE.SYSTEM.CONST>
0

>  <SCORE.SYSTEM.DIHEDRAL>
0

>  <SCORE.SYSTEM.SOLV>
0

>  <SCORE.SYSTEM.norm>
0

>  <SCORE.heavy>
10

>  <SCORE.norm>
-2.20181

>  <RMSD>
2.723

$$$$
1y26_lig
 OpenBabel02141814133D
libRbt.so/2013.1/901 2013/11/27
 10 11  0  0  0  0  0  0  0  0999 V2000
   17.7183  -18.8197    2.9057 N   0  0  0  0  0  0  0  0  0  0  0  0
   18.4068  -18.4133    1.8361 C   0  0  0  0  0  0  0  0  0  0  0  0
   19.4910  -17.6413    1.7954 N   0  0  0  0  0  0  0  0  0  0  0  0
   19.8831  -17.2955    3.0423 C   0  0  0  0  0  0  0  0  0  0  0  0
   19.2803  -17.6499    4.2329 C   0  0  0  0  0  0  0  0  0  0  0  0
   18.1385  -18.4505    4.1334 C   0  0  0  0  0  0  0  0  0  0  0  0
   17.4708  -18.8363    5.2088 N   0  0  0  0  0  0  0  0  0  0  0  0
   19.9279  -17.1206    5.3250 N   0  0  0  0  0  0  0  0  0  0  0  0
   20.9408  -16.4734    4.7786 C   0  0  0  0  0  0  0  0  0  0  0  0
   20.9612  -16.5314    3.4018 N   0  0  0  0  0  0  0  0  0  0  0  0
  1  2  2  0  0  0  0
  2  3  1  0  0  0  0
  3  4  2  0  0  0  0
  5  4  1  0  0  0  0
  5  6  2  0  0  0  0
  6  1  1  0  0  0  0
  6  7  1  0  0  0  0
  8  5  1  0  0  0  0
  9  8  1  0  0  0  0
 10  4  1  0  0  0  0
 10  9  2  0  0  0  0
M  END
>  <CHROM.1>
19.22062652,-17.72395602,3.66514866,-2.83589628,0.60606332,1.50829597

>  <Name>
1y26_lig

>  <RI>
0

>  <Rbt.Current_Directory>
/home/afrankz/demos/rdock_decoys_rna/rnas/1y26

>  <Rbt.Executable>
rbdock ($Id: //depot/dev/client3/rdock/2013.1/src/exe/rbdock.cxx#4 $)

>  <Rbt.Library>
libRbt.so (2013.1, Build901 2013/11/27)

>  <Rbt.Parameter_File>
/export/apps/rDock/src/rDock_2013.1_src/data/scripts/dock_solv.prm

>  <Rbt.Receptor>
prm/blind_docking_60.prm

>  <SCORE>
-22.0156

>  <SCORE.INTER>
-22.0156

>  <SCORE.INTER.CONST>
1

>  <SCORE.INTER.POLAR>
-2.41745

>  <SCORE.INTER.ROT>
0

>  <SCORE.INTER.SOLV>
12.4687

>  <SCORE.INTER.VDW>
-14.3752

>  <SCORE.INTER.norm>
-2.20156

>  <SCORE.INTRA>
0

>  <SCORE.INTRA.DIHEDRAL>
0

>  <SCORE.INTRA.DIHEDRAL.0>
0

>  <SCORE.INTRA.POLAR>
0

>  <SCORE.INTRA.POLAR.0>
0

>  <SCORE.INTRA.REPUL>
0

>  <SCORE.INTRA.REPUL.0>
0

>  <SCORE.INTRA.SOLV>
0

>  <SCORE.INTRA.SOLV.lig_0>
-16.9472

>  <SCORE.INTRA.VDW>
0

>  <SCORE.INTRA.VDW.0>
0

>  <SCORE.INTRA.norm>
0

>  <SCORE.RESTR>
0

>  <SCORE.RESTR.CAVITY>
0

>  <SCORE.RESTR.norm>
0

>  <SCORE.SYSTEM>
0

>  <SCORE.SYSTEM.CONST>
0

>  <SCORE.SYSTEM.DIHEDRAL>
0

>  <SCORE.SYSTEM.SOLV>
0

>  <SCORE.SYSTEM.norm>
0

>  <SCORE.heavy>
10

>  <SCORE.norm>
-2.20156

>  <RMSD>
2.723

$$$$
1y26_lig
 OpenBabel02141814133D
libRbt.so/2013.1/901 2013/11/27
 10 11  0  0  0  0  0  0  0  0999 V2000
   17.8165  -18.8653    2.8350 N   0  0  0  0  0  0  0  0  0  0  0  0
   18.5248  -18.4469    1.7831 C   0  0  0  0  0  0  0  0  0  0  0  0
   19.5882  -17.6457    1.7684 N   0  0  0  0  0  0  0  0  0  0  0  0
   19.9339  -17.2814    3.0238 C   0  0  0  0  0  0  0  0  0  0  0  0
   19.3063  -17.6446    4.1988 C   0  0  0  0  0  0  0  0  0  0  0  0
   18.1902  -18.4769    4.0718 C   0  0  0  0  0  0  0  0  0  0  0  0
   17.5019  -18.8740    5.1299 N   0  0  0  0  0  0  0  0  0  0  0  0
   19.9068  -17.0907    5.3055 N   0  0  0  0  0  0  0  0  0  0  0  0
   20.9173  -16.4194    4.7843 C   0  0  0  0  0  0  0  0  0  0  0  0
   20.9797  -16.4856    3.4091 N   0  0  0  0  0  0  0  0  0  0  0  0
  1  2  2  0  0  0  0
  2  3  1  0  0  0  0
  3  4  2  0  0  0  0
  5  4  1  0  0  0  0
  5  6  2  0  0  0  0
  6  1  1  0  0  0  0
  6  7  1  0  0  0  0
  8  5  1  0  0  0  0
  9  8  1  0  0  0  0
 10  4  1  0  0  0  0
 10  9  2  0  0  0  0
M  END
>  <CHROM.1>
19.26534511,-17.72384974,3.63009191,-2.79746381,0.63112669,1.47921987

>  <Name>
1y26_lig

>  <RI>
0

>  <Rbt.Current_Directory>
/home/afrankz/demos/rdock_decoys_rna/rnas/1y26

>  <Rbt.Executable>
rbdock ($Id: //depot/dev/client3/rdock/2013.1/src/exe/rbdock.cxx#4 $)

>  <Rbt.Library>
libRbt.so (2013.1, Build901 2013/11/27)

>  <Rbt.Parameter_File>
/export/apps/rDock/src/rDock_2013.1_src/data/scripts/dock_solv.prm

>  <Rbt.Receptor>
prm/blind_docking_40.prm

>  <SCORE>
-22.0152

>  <SCORE.INTER>
-22.0152

>  <SCORE.INTER.CONST>
1

>  <SCORE.INTER.POLAR>
-2.34635

>  <SCORE.INTER.ROT>
0

>  <SCORE.INTER.SOLV>
12.4667

>  <SCORE.INTER.VDW>
-14.6112

>  <SCORE.INTER.norm>
-2.20152

>  <SCORE.INTRA>
0

>  <SCORE.INTRA.DIHEDRAL>
0

>  <SCORE.INTRA.DIHEDRAL.0>
0

>  <SCORE.INTRA.POLAR>
0

>  <SCORE.INTRA.POLAR.0>
0

>  <SCORE.INTRA.REPUL>
0

>  <SCORE.INTRA.REPUL.0>
0

>  <SCORE.INTRA.SOLV>
0

>  <SCORE.INTRA.SOLV.lig_0>
-16.9472

>  <SCORE.INTRA.VDW>
0

>  <SCORE.INTRA.VDW.0>
0

>  <SCORE.INTRA.norm>
0

>  <SCORE.RESTR>
0

>  <SCORE.RESTR.CAVITY>
0

>  <SCORE.RESTR.norm>
0

>  <SCORE.SYSTEM>
0

>  <SCORE.SYSTEM.CONST>
0

>  <SCORE.SYSTEM.DIHEDRAL>
0

>  <SCORE.SYSTEM.SOLV>
0

>  <SCORE.SYSTEM.norm>
0

>  <SCORE.heavy>
10

>  <SCORE.norm>
-2.20152

>  <RMSD>
2.732

$$$$
1y26_lig
 OpenBabel02141814133D
libRbt.so/2013.1/901 2013/11/27
 10 11  0  0  0  0  0  0  0  0999 V2000
   17.9085  -18.8539    2.9887 N   0  0  0  0  0  0  0  0  0  0  0  0
   18.4911  -18.4663    1.8514 C   0  0  0  0  0  0  0  0  0  0  0  0
   19.6309  -17.7965    1.6930 N   0  0  0  0  0  0  0  0  0  0  0  0
   20.2106  -17.5432    2.8880 C   0  0  0  0  0  0  0  0  0  0  0  0
   19.7332  -17.8923    4.1356 C   0  0  0  0  0  0  0  0  0  0  0  0
   18.5158  -18.5791    4.1617 C   0  0  0  0  0  0  0  0  0  0  0  0
   17.9564  -18.9483    5.3027 N   0  0  0  0  0  0  0  0  0  0  0  0
   20.5631  -17.4732    5.1495 N   0  0  0  0  0  0  0  0  0  0  0  0
   21.5560  -16.8988    4.4955 C   0  0  0  0  0  0  0  0  0  0  0  0
   21.3948  -16.8981    3.1267 N   0  0  0  0  0  0  0  0  0  0  0  0
  1  2  2  0  0  0  0
  2  3  1  0  0  0  0
  3  4  2  0  0  0  0
  5  4  1  0  0  0  0
  5  6  2  0  0  0  0
  6  1  1  0  0  0  0
  6  7  1  0  0  0  0
  8  5  1  0  0  0  0
  9  8  1  0  0  0  0
 10  4  1  0  0  0  0
 10  9  2  0  0  0  0
M  END
>  <CHROM.1>
19.59460236,-17.93559289,3.57860548,-2.98946715,0.51118304,1.62772535

>  <Name>
1y26_lig

>  <RI>
224

>  <Rbt.Current_Directory>
/home/afrankz/demos/rdock_decoys_rna/rnas/1y26

>  <Rbt.Executable>
rbdock ($Id: //depot/dev/client3/rdock/2013.1/src/exe/rbdock.cxx#4 $)

>  <Rbt.Library>
libRbt.so (2013.1, Build901 2013/11/27)

>  <Rbt.Parameter_File>
/export/apps/rDock/src/rDock_2013.1_src/data/scripts/dock_solv.prm

>  <Rbt.Receptor>
prm/pocket_docking_3.prm

>  <SCORE>
-22.5041

>  <SCORE.INTER>
-22.5041

>  <SCORE.INTER.CONST>
1

>  <SCORE.INTER.POLAR>
-2.33547

>  <SCORE.INTER.ROT>
0

>  <SCORE.INTER.SOLV>
11.7486

>  <SCORE.INTER.VDW>
-14.734

>  <SCORE.INTER.norm>
-2.25041

>  <SCORE.INTRA>
0

>  <SCORE.INTRA.DIHEDRAL>
0

>  <SCORE.INTRA.DIHEDRAL.0>
0

>  <SCORE.INTRA.POLAR>
0

>  <SCORE.INTRA.POLAR.0>
0

>  <SCORE.INTRA.REPUL>
0

>  <SCORE.INTRA.REPUL.0>
0

>  <SCORE.INTRA.SOLV>
0

>  <SCORE.INTRA.SOLV.lig_0>
-16.9472

>  <SCORE.INTRA.VDW>
0

>  <SCORE.INTRA.VDW.0>
0

>  <SCORE.INTRA.norm>
0

>  <SCORE.RESTR>
0

>  <SCORE.RESTR.CAVITY>
0

>  <SCORE.RESTR.norm>
0

>  <SCORE.SYSTEM>
0

>  <SCORE.SYSTEM.CONST>
0

>  <SCORE.SYSTEM.DIHEDRAL>
0

>  <SCORE.SYSTEM.SOLV>
0

>  <SCORE.SYSTEM.norm>
0

>  <SCORE.heavy>
10

>  <SCORE.norm>
-2.25041

>  <RMSD>
2.737

$$$$
1y26_lig
 OpenBabel02141814133D
libRbt.so/2013.1/901 2013/11/27
 10 11  0  0  0  0  0  0  0  0999 V2000
   17.9121  -18.8648    3.0028 N   0  0  0  0  0  0  0  0  0  0  0  0
   18.4921  -18.4832    1.8621 C   0  0  0  0  0  0  0  0  0  0  0  0
   19.6288  -17.8095    1.6978 N   0  0  0  0  0  0  0  0  0  0  0  0
   20.2083  -17.5446    2.8904 C   0  0  0  0  0  0  0  0  0  0  0  0
   19.7334  -17.8864    4.1410 C   0  0  0  0  0  0  0  0  0  0  0  0
   18.5191  -18.5785    4.1732 C   0  0  0  0  0  0  0  0  0  0  0  0
   17.9623  -18.9416    5.3174 N   0  0  0  0  0  0  0  0  0  0  0  0
   20.5622  -17.4560    5.1510 N   0  0  0  0  0  0  0  0  0  0  0  0
   21.5520  -16.8821    4.4919 C   0  0  0  0  0  0  0  0  0  0  0  0
   21.3897  -16.8924    3.1233 N   0  0  0  0  0  0  0  0  0  0  0  0
  1  2  2  0  0  0  0
  2  3  1  0  0  0  0
  3  4  2  0  0  0  0
  5  4  1  0  0  0  0
  5  6  2  0  0  0  0
  6  1  1  0  0  0  0
  6  7  1  0  0  0  0
  8  5  1  0  0  0  0
  9  8  1  0  0  0  0
 10  4  1  0  0  0  0
 10  9  2  0  0  0  0
M  END
>  <CHROM.1>
19.59456462,-17.93452625,3.58439897,-2.99066641,0.51562111,1.62079949

>  <Name>
1y26_lig

>  <RI>
0

>  <Rbt.Current_Directory>
/home/afrankz/demos/rdock_decoys_rna/rnas/1y26

>  <Rbt.Executable>
rbdock ($Id: //depot/dev/client3/rdock/2013.1/src/exe/rbdock.cxx#4 $)

>  <Rbt.Library>
libRbt.so (2013.1, Build901 2013/11/27)

>  <Rbt.Parameter_File>
/export/apps/rDock/src/rDock_2013.1_src/data/scripts/dock_solv.prm

>  <Rbt.Receptor>
prm/pocket_docking_8.prm

>  <SCORE>
-22.509

>  <SCORE.INTER>
-22.509

>  <SCORE.INTER.CONST>
1

>  <SCORE.INTER.POLAR>
-2.33236

>  <SCORE.INTER.ROT>
0

>  <SCORE.INTER.SOLV>
11.7323

>  <SCORE.INTER.VDW>
-14.7422

>  <SCORE.INTER.norm>
-2.2509

>  <SCORE.INTRA>
0

>  <SCORE.INTRA.DIHEDRAL>
0

>  <SCORE.INTRA.DIHEDRAL.0>
0

>  <SCORE.INTRA.POLAR>
0

>  <SCORE.INTRA.POLAR.0>
0

>  <SCORE.INTRA.REPUL>
0

>  <SCORE.INTRA.REPUL.0>
0

>  <SCORE.INTRA.SOLV>
0

>  <SCORE.INTRA.SOLV.lig_0>
-16.9472

>  <SCORE.INTRA.VDW>
0

>  <SCORE.INTRA.VDW.0>
0

>  <SCORE.INTRA.norm>
0

>  <SCORE.RESTR>
0

>  <SCORE.RESTR.CAVITY>
0

>  <SCORE.RESTR.norm>
0

>  <SCORE.SYSTEM>
0

>  <SCORE.SYSTEM.CONST>
0

>  <SCORE.SYSTEM.DIHEDRAL>
0

>  <SCORE.SYSTEM.SOLV>
0

>  <SCORE.SYSTEM.norm>
0

>  <SCORE.heavy>
10

>  <SCORE.norm>
-2.2509

>  <RMSD>
2.737

$$$$
1y26_lig
 OpenBabel02141814133D
libRbt.so/2013.1/901 2013/11/27
 10 11  0  0  0  0  0  0  0  0999 V2000
   17.9190  -18.8709    3.0006 N   0  0  0  0  0  0  0  0  0  0  0  0
   18.4990  -18.4859    1.8611 C   0  0  0  0  0  0  0  0  0  0  0  0
   19.6362  -17.8127    1.6987 N   0  0  0  0  0  0  0  0  0  0  0  0
   20.2163  -17.5524    2.8921 C   0  0  0  0  0  0  0  0  0  0  0  0
   19.7414  -17.8979    4.1416 C   0  0  0  0  0  0  0  0  0  0  0  0
   18.5265  -18.5890    4.1718 C   0  0  0  0  0  0  0  0  0  0  0  0
   17.9696  -18.9555    5.3150 N   0  0  0  0  0  0  0  0  0  0  0  0
   20.5709  -17.4717    5.1528 N   0  0  0  0  0  0  0  0  0  0  0  0
   21.5610  -16.8964    4.4954 C   0  0  0  0  0  0  0  0  0  0  0  0
   21.3984  -16.9021    3.1268 N   0  0  0  0  0  0  0  0  0  0  0  0
  1  2  2  0  0  0  0
  2  3  1  0  0  0  0
  3  4  2  0  0  0  0
  5  4  1  0  0  0  0
  5  6  2  0  0  0  0
  6  1  1  0  0  0  0
  6  7  1  0  0  0  0
  8  5  1  0  0  0  0
  9  8  1  0  0  0  0
 10  4  1  0  0  0  0
 10  9  2  0  0  0  0
M  END
>  <CHROM.1>
19.60239044,-17.94406492,3.58491907,-2.99089114,0.51469576,1.62424896

>  <Name>
1y26_lig

>  <RI>
0

>  <Rbt.Current_Directory>
/home/afrankz/demos/rdock_decoys_rna/rnas/1y26

>  <Rbt.Executable>
rbdock ($Id: //depot/dev/client3/rdock/2013.1/src/exe/rbdock.cxx#4 $)

>  <Rbt.Library>
libRbt.so (2013.1, Build901 2013/11/27)

>  <Rbt.Parameter_File>
/export/apps/rDock/src/rDock_2013.1_src/data/scripts/dock_solv.prm

>  <Rbt.Receptor>
prm/blind_docking_40.prm

>  <SCORE>
-22.5132

>  <SCORE.INTER>
-22.5132

>  <SCORE.INTER.CONST>
1

>  <SCORE.INTER.POLAR>
-2.33782

>  <SCORE.INTER.ROT>
0

>  <SCORE.INTER.SOLV>
11.734

>  <SCORE.INTER.VDW>
-14.7274

>  <SCORE.INTER.norm>
-2.25132

>  <SCORE.INTRA>
0

>  <SCORE.INTRA.DIHEDRAL>
0

>  <SCORE.INTRA.DIHEDRAL.0>
0

>  <SCORE.INTRA.POLAR>
0

>  <SCORE.INTRA.POLAR.0>
0

>  <SCORE.INTRA.REPUL>
0

>  <SCORE.INTRA.REPUL.0>
0

>  <SCORE.INTRA.SOLV>
0

>  <SCORE.INTRA.SOLV.lig_0>
-16.9472

>  <SCORE.INTRA.VDW>
0

>  <SCORE.INTRA.VDW.0>
0

>  <SCORE.INTRA.norm>
0

>  <SCORE.RESTR>
0

>  <SCORE.RESTR.CAVITY>
0

>  <SCORE.RESTR.norm>
0

>  <SCORE.SYSTEM>
0

>  <SCORE.SYSTEM.CONST>
0

>  <SCORE.SYSTEM.DIHEDRAL>
0

>  <SCORE.SYSTEM.SOLV>
0

>  <SCORE.SYSTEM.norm>
0

>  <SCORE.heavy>
10

>  <SCORE.norm>
-2.25132

>  <RMSD>
2.738

$$$$
1y26_lig
 OpenBabel02141814133D
libRbt.so/2013.1/901 2013/11/27
 10 11  0  0  0  0  0  0  0  0999 V2000
   17.9176  -18.8726    3.0012 N   0  0  0  0  0  0  0  0  0  0  0  0
   18.4971  -18.4887    1.8610 C   0  0  0  0  0  0  0  0  0  0  0  0
   19.6317  -17.8113    1.6977 N   0  0  0  0  0  0  0  0  0  0  0  0
   20.2096  -17.5450    2.8907 C   0  0  0  0  0  0  0  0  0  0  0  0
   19.7349  -17.8887    4.1409 C   0  0  0  0  0  0  0  0  0  0  0  0
   18.5228  -18.5847    4.1721 C   0  0  0  0  0  0  0  0  0  0  0  0
   17.9664  -18.9500    5.3158 N   0  0  0  0  0  0  0  0  0  0  0  0
   20.5617  -17.4560    5.1516 N   0  0  0  0  0  0  0  0  0  0  0  0
   21.5501  -16.8787    4.4934 C   0  0  0  0  0  0  0  0  0  0  0  0
   21.3888  -16.8892    3.1247 N   0  0  0  0  0  0  0  0  0  0  0  0
  1  2  2  0  0  0  0
  2  3  1  0  0  0  0
  3  4  2  0  0  0  0
  5  4  1  0  0  0  0
  5  6  2  0  0  0  0
  6  1  1  0  0  0  0
  6  7  1  0  0  0  0
  8  5  1  0  0  0  0
  9  8  1  0  0  0  0
 10  4  1  0  0  0  0
 10  9  2  0  0  0  0
M  END
>  <CHROM.1>
19.59663240,-17.93712446,3.58421934,-2.99005407,0.51883734,1.62081542

>  <Name>
1y26_lig

>  <RI>
0

>  <Rbt.Current_Directory>
/home/afrankz/demos/rdock_decoys_rna/rnas/1y26

>  <Rbt.Executable>
rbdock ($Id: //depot/dev/client3/rdock/2013.1/src/exe/rbdock.cxx#4 $)

>  <Rbt.Library>
libRbt.so (2013.1, Build901 2013/11/27)

>  <Rbt.Parameter_File>
/export/apps/rDock/src/rDock_2013.1_src/data/scripts/dock_solv.prm

>  <Rbt.Receptor>
prm/pocket_docking_4.prm

>  <SCORE>
-22.5088

>  <SCORE.INTER>
-22.5088

>  <SCORE.INTER.CONST>
1

>  <SCORE.INTER.POLAR>
-2.33041

>  <SCORE.INTER.ROT>
0

>  <SCORE.INTER.SOLV>
11.733

>  <SCORE.INTER.VDW>
-14.7489

>  <SCORE.INTER.norm>
-2.25088

>  <SCORE.INTRA>
0

>  <SCORE.INTRA.DIHEDRAL>
0

>  <SCORE.INTRA.DIHEDRAL.0>
0

>  <SCORE.INTRA.POLAR>
0

>  <SCORE.INTRA.POLAR.0>
0

>  <SCORE.INTRA.REPUL>
0

>  <SCORE.INTRA.REPUL.0>
0

>  <SCORE.INTRA.SOLV>
0

>  <SCORE.INTRA.SOLV.lig_0>
-16.9472

>  <SCORE.INTRA.VDW>
0

>  <SCORE.INTRA.VDW.0>
0

>  <SCORE.INTRA.norm>
0

>  <SCORE.RESTR>
0

>  <SCORE.RESTR.CAVITY>
0

>  <SCORE.RESTR.norm>
0

>  <SCORE.SYSTEM>
0

>  <SCORE.SYSTEM.CONST>
0

>  <SCORE.SYSTEM.DIHEDRAL>
0

>  <SCORE.SYSTEM.SOLV>
0

>  <SCORE.SYSTEM.norm>
0

>  <SCORE.heavy>
10

>  <SCORE.norm>
-2.25088

>  <RMSD>
2.738

$$$$
1y26_lig
 OpenBabel02141814133D
libRbt.so/2013.1/901 2013/11/27
 10 11  0  0  0  0  0  0  0  0999 V2000
   17.9334  -18.8805    2.9989 N   0  0  0  0  0  0  0  0  0  0  0  0
   18.5149  -18.4916    1.8615 C   0  0  0  0  0  0  0  0  0  0  0  0
   19.6494  -17.8128    1.7031 N   0  0  0  0  0  0  0  0  0  0  0  0
   20.2247  -17.5510    2.8984 C   0  0  0  0  0  0  0  0  0  0  0  0
   19.7478  -17.9002    4.1462 C   0  0  0  0  0  0  0  0  0  0  0  0
   18.5361  -18.5970    4.1721 C   0  0  0  0  0  0  0  0  0  0  0  0
   17.9777  -18.9674    5.3132 N   0  0  0  0  0  0  0  0  0  0  0  0
   20.5723  -17.4711    5.1603 N   0  0  0  0  0  0  0  0  0  0  0  0
   21.5616  -16.8905    4.5064 C   0  0  0  0  0  0  0  0  0  0  0  0
   21.4031  -16.8954    3.1374 N   0  0  0  0  0  0  0  0  0  0  0  0
  1  2  2  0  0  0  0
  2  3  1  0  0  0  0
  3  4  2  0  0  0  0
  5  4  1  0  0  0  0
  5  6  2  0  0  0  0
  6  1  1  0  0  0  0
  6  7  1  0  0  0  0
  8  5  1  0  0  0  0
  9  8  1  0  0  0  0
 10  4  1  0  0  0  0
 10  9  2  0  0  0  0
M  END
>  <CHROM.1>
19.61068078,-17.94637305,3.58906985,-2.98781550,0.51958768,1.62380133

>  <Name>
1y26_lig

>  <RI>
0

>  <Rbt.Current_Directory>
/home/afrankz/demos/rdock_decoys_rna/rnas/1y26

>  <Rbt.Executable>
rbdock ($Id: //depot/dev/client3/rdock/2013.1/src/exe/rbdock.cxx#4 $)

>  <Rbt.Library>
libRbt.so (2013.1, Build901 2013/11/27)

>  <Rbt.Parameter_File>
/export/apps/rDock/src/rDock_2013.1_src/data/scripts/dock_solv.prm

>  <Rbt.Receptor>
prm/pocket_docking_5.prm

>  <SCORE>
-22.5311

>  <SCORE.INTER>
-22.5311

>  <SCORE.INTER.CONST>
1

>  <SCORE.INTER.POLAR>
-2.33495

>  <SCORE.INTER.ROT>
0

>  <SCORE.INTER.SOLV>
11.7338

>  <SCORE.INTER.VDW>
-14.7489

>  <SCORE.INTER.norm>
-2.25311

>  <SCORE.INTRA>
0

>  <SCORE.INTRA.DIHEDRAL>
0

>  <SCORE.INTRA.DIHEDRAL.0>
0

>  <SCORE.INTRA.POLAR>
0

>  <SCORE.INTRA.POLAR.0>
0

>  <SCORE.INTRA.REPUL>
0

>  <SCORE.INTRA.REPUL.0>
0

>  <SCORE.INTRA.SOLV>
0

>  <SCORE.INTRA.SOLV.lig_0>
-16.9472

>  <SCORE.INTRA.VDW>
0

>  <SCORE.INTRA.VDW.0>
0

>  <SCORE.INTRA.norm>
0

>  <SCORE.RESTR>
0

>  <SCORE.RESTR.CAVITY>
0

>  <SCORE.RESTR.norm>
0

>  <SCORE.SYSTEM>
0

>  <SCORE.SYSTEM.CONST>
0

>  <SCORE.SYSTEM.DIHEDRAL>
0

>  <SCORE.SYSTEM.SOLV>
0

>  <SCORE.SYSTEM.norm>
0

>  <SCORE.heavy>
10

>  <SCORE.norm>
-2.25311

>  <RMSD>
2.738

$$$$
1y26_lig
 OpenBabel02141814133D
libRbt.so/2013.1/901 2013/11/27
 10 11  0  0  0  0  0  0  0  0999 V2000
   17.9145  -18.8645    2.9922 N   0  0  0  0  0  0  0  0  0  0  0  0
   18.4972  -18.4794    1.8540 C   0  0  0  0  0  0  0  0  0  0  0  0
   19.6332  -17.8035    1.6944 N   0  0  0  0  0  0  0  0  0  0  0  0
   20.2088  -17.5402    2.8893 C   0  0  0  0  0  0  0  0  0  0  0  0
   19.7308  -17.8855    4.1377 C   0  0  0  0  0  0  0  0  0  0  0  0
   18.5176  -18.5797    4.1649 C   0  0  0  0  0  0  0  0  0  0  0  0
   17.9581  -18.9462    5.3067 N   0  0  0  0  0  0  0  0  0  0  0  0
   20.5560  -17.4559    5.1511 N   0  0  0  0  0  0  0  0  0  0  0  0
   21.5468  -16.8790    4.4961 C   0  0  0  0  0  0  0  0  0  0  0  0
   21.3885  -16.8866    3.1270 N   0  0  0  0  0  0  0  0  0  0  0  0
  1  2  2  0  0  0  0
  2  3  1  0  0  0  0
  3  4  2  0  0  0  0
  5  4  1  0  0  0  0
  5  6  2  0  0  0  0
  6  1  1  0  0  0  0
  6  7  1  0  0  0  0
  8  5  1  0  0  0  0
  9  8  1  0  0  0  0
 10  4  1  0  0  0  0
 10  9  2  0  0  0  0
M  END
>  <CHROM.1>
19.59372184,-17.93267875,3.58066121,-2.98740362,0.51742361,1.62134441

>  <Name>
1y26_lig

>  <RI>
0

>  <Rbt.Current_Directory>
/home/afrankz/demos/rdock_decoys_rna/rnas/1y26

>  <Rbt.Executable>
rbdock ($Id: //depot/dev/client3/rdock/2013.1/src/exe/rbdock.cxx#4 $)

>  <Rbt.Library>
libRbt.so (2013.1, Build901 2013/11/27)

>  <Rbt.Parameter_File>
/export/apps/rDock/src/rDock_2013.1_src/data/scripts/dock_solv.prm

>  <Rbt.Receptor>
prm/pocket_docking_5.prm

>  <SCORE>
-22.5071

>  <SCORE.INTER>
-22.5071

>  <SCORE.INTER.CONST>
1

>  <SCORE.INTER.POLAR>
-2.3288

>  <SCORE.INTER.ROT>
0

>  <SCORE.INTER.SOLV>
11.7433

>  <SCORE.INTER.VDW>
-14.7565

>  <SCORE.INTER.norm>
-2.25071

>  <SCORE.INTRA>
0

>  <SCORE.INTRA.DIHEDRAL>
0

>  <SCORE.INTRA.DIHEDRAL.0>
0

>  <SCORE.INTRA.POLAR>
0

>  <SCORE.INTRA.POLAR.0>
0

>  <SCORE.INTRA.REPUL>
0

>  <SCORE.INTRA.REPUL.0>
0

>  <SCORE.INTRA.SOLV>
0

>  <SCORE.INTRA.SOLV.lig_0>
-16.9472

>  <SCORE.INTRA.VDW>
0

>  <SCORE.INTRA.VDW.0>
0

>  <SCORE.INTRA.norm>
0

>  <SCORE.RESTR>
0

>  <SCORE.RESTR.CAVITY>
0

>  <SCORE.RESTR.norm>
0

>  <SCORE.SYSTEM>
0

>  <SCORE.SYSTEM.CONST>
0

>  <SCORE.SYSTEM.DIHEDRAL>
0

>  <SCORE.SYSTEM.SOLV>
0

>  <SCORE.SYSTEM.norm>
0

>  <SCORE.heavy>
10

>  <SCORE.norm>
-2.25071

>  <RMSD>
2.738

$$$$
1y26_lig
 OpenBabel02141814133D
libRbt.so/2013.1/901 2013/11/27
 10 11  0  0  0  0  0  0  0  0999 V2000
   17.9087  -18.8668    3.0123 N   0  0  0  0  0  0  0  0  0  0  0  0
   18.4832  -18.4849    1.8689 C   0  0  0  0  0  0  0  0  0  0  0  0
   19.6210  -17.8145    1.6992 N   0  0  0  0  0  0  0  0  0  0  0  0
   20.2083  -17.5536    2.8888 C   0  0  0  0  0  0  0  0  0  0  0  0
   19.7396  -17.8961    4.1416 C   0  0  0  0  0  0  0  0  0  0  0  0
   18.5233  -18.5845    4.1796 C   0  0  0  0  0  0  0  0  0  0  0  0
   17.9720  -18.9479    5.3264 N   0  0  0  0  0  0  0  0  0  0  0  0
   20.5756  -17.4701    5.1475 N   0  0  0  0  0  0  0  0  0  0  0  0
   21.5634  -16.8981    4.4837 C   0  0  0  0  0  0  0  0  0  0  0  0
   21.3931  -16.9055    3.1160 N   0  0  0  0  0  0  0  0  0  0  0  0
  1  2  2  0  0  0  0
  2  3  1  0  0  0  0
  3  4  2  0  0  0  0
  5  4  1  0  0  0  0
  5  6  2  0  0  0  0
  6  1  1  0  0  0  0
  6  7  1  0  0  0  0
  8  5  1  0  0  0  0
  9  8  1  0  0  0  0
 10  4  1  0  0  0  0
 10  9  2  0  0  0  0
M  END
>  <CHROM.1>
19.59740051,-17.94282614,3.58572896,-2.99713340,0.51218279,1.62574585

>  <Name>
1y26_lig

>  <RI>
0

>  <Rbt.Current_Directory>
/home/afrankz/demos/rdock_decoys_rna/rnas/1y26

>  <Rbt.Executable>
rbdock ($Id: //depot/dev/client3/rdock/2013.1/src/exe/rbdock.cxx#4 $)

>  <Rbt.Library>
libRbt.so (2013.1, Build901 2013/11/27)

>  <Rbt.Parameter_File>
/export/apps/rDock/src/rDock_2013.1_src/data/scripts/dock_solv.prm

>  <Rbt.Receptor>
prm/pocket_docking_5.prm

>  <SCORE>
-22.5103

>  <SCORE.INTER>
-22.5103

>  <SCORE.INTER.CONST>
1

>  <SCORE.INTER.POLAR>
-2.33901

>  <SCORE.INTER.ROT>
0

>  <SCORE.INTER.SOLV>
11.7218

>  <SCORE.INTER.VDW>
-14.7174

>  <SCORE.INTER.norm>
-2.25103

>  <SCORE.INTRA>
0

>  <SCORE.INTRA.DIHEDRAL>
0

>  <SCORE.INTRA.DIHEDRAL.0>
0

>  <SCORE.INTRA.POLAR>
0

>  <SCORE.INTRA.POLAR.0>
0

>  <SCORE.INTRA.REPUL>
0

>  <SCORE.INTRA.REPUL.0>
0

>  <SCORE.INTRA.SOLV>
0

>  <SCORE.INTRA.SOLV.lig_0>
-16.9472

>  <SCORE.INTRA.VDW>
0

>  <SCORE.INTRA.VDW.0>
0

>  <SCORE.INTRA.norm>
0

>  <SCORE.RESTR>
0

>  <SCORE.RESTR.CAVITY>
0

>  <SCORE.RESTR.norm>
0

>  <SCORE.SYSTEM>
0

>  <SCORE.SYSTEM.CONST>
0

>  <SCORE.SYSTEM.DIHEDRAL>
0

>  <SCORE.SYSTEM.SOLV>
0

>  <SCORE.SYSTEM.norm>
0

>  <SCORE.heavy>
10

>  <SCORE.norm>
-2.25103

>  <RMSD>
2.738

$$$$
1y26_lig
 OpenBabel02141814133D
libRbt.so/2013.1/901 2013/11/27
 10 11  0  0  0  0  0  0  0  0999 V2000
   17.9153  -18.8665    3.0008 N   0  0  0  0  0  0  0  0  0  0  0  0
   18.4946  -18.4830    1.8604 C   0  0  0  0  0  0  0  0  0  0  0  0
   19.6303  -17.8074    1.6966 N   0  0  0  0  0  0  0  0  0  0  0  0
   20.2094  -17.5428    2.8894 C   0  0  0  0  0  0  0  0  0  0  0  0
   19.7351  -17.8864    4.1397 C   0  0  0  0  0  0  0  0  0  0  0  0
   18.5219  -18.5803    4.1714 C   0  0  0  0  0  0  0  0  0  0  0  0
   17.9657  -18.9453    5.3153 N   0  0  0  0  0  0  0  0  0  0  0  0
   20.5634  -17.4557    5.1500 N   0  0  0  0  0  0  0  0  0  0  0  0
   21.5523  -16.8797    4.4914 C   0  0  0  0  0  0  0  0  0  0  0  0
   21.3900  -16.8890    3.1228 N   0  0  0  0  0  0  0  0  0  0  0  0
  1  2  2  0  0  0  0
  2  3  1  0  0  0  0
  3  4  2  0  0  0  0
  5  4  1  0  0  0  0
  5  6  2  0  0  0  0
  6  1  1  0  0  0  0
  6  7  1  0  0  0  0
  8  5  1  0  0  0  0
  9  8  1  0  0  0  0
 10  4  1  0  0  0  0
 10  9  2  0  0  0  0
M  END
>  <CHROM.1>
19.59636944,-17.93423351,3.58309606,-2.99081570,0.51711606,1.62177709

>  <Name>
1y26_lig

>  <RI>
0

>  <Rbt.Current_Directory>
/home/afrankz/demos/rdock_decoys_rna/rnas/1y26

>  <Rbt.Executable>
rbdock ($Id: //depot/dev/client3/rdock/2013.1/src/exe/rbdock.cxx#4 $)

>  <Rbt.Library>
libRbt.so (2013.1, Build901 2013/11/27)

>  <Rbt.Parameter_File>
/export/apps/rDock/src/rDock_2013.1_src/data/scripts/dock_solv.prm

>  <Rbt.Receptor>
prm/pocket_docking_8.prm

>  <SCORE>
-22.5069

>  <SCORE.INTER>
-22.5069

>  <SCORE.INTER.CONST>
1

>  <SCORE.INTER.POLAR>
-2.33048

>  <SCORE.INTER.ROT>
0

>  <SCORE.INTER.SOLV>
11.7315

>  <SCORE.INTER.VDW>
-14.7468

>  <SCORE.INTER.norm>
-2.25069

>  <SCORE.INTRA>
0

>  <SCORE.INTRA.DIHEDRAL>
0

>  <SCORE.INTRA.DIHEDRAL.0>
0

>  <SCORE.INTRA.POLAR>
0

>  <SCORE.INTRA.POLAR.0>
0

>  <SCORE.INTRA.REPUL>
0

>  <SCORE.INTRA.REPUL.0>
0

>  <SCORE.INTRA.SOLV>
0

>  <SCORE.INTRA.SOLV.lig_0>
-16.9472

>  <SCORE.INTRA.VDW>
0

>  <SCORE.INTRA.VDW.0>
0

>  <SCORE.INTRA.norm>
0

>  <SCORE.RESTR>
0

>  <SCORE.RESTR.CAVITY>
0

>  <SCORE.RESTR.norm>
0

>  <SCORE.SYSTEM>
0

>  <SCORE.SYSTEM.CONST>
0

>  <SCORE.SYSTEM.DIHEDRAL>
0

>  <SCORE.SYSTEM.SOLV>
0

>  <SCORE.SYSTEM.norm>
0

>  <SCORE.heavy>
10

>  <SCORE.norm>
-2.25069

>  <RMSD>
2.738

$$$$
1y26_lig
 OpenBabel02141814133D
libRbt.so/2013.1/901 2013/11/27
 10 11  0  0  0  0  0  0  0  0999 V2000
   17.9343  -18.8861    3.0089 N   0  0  0  0  0  0  0  0  0  0  0  0
   18.5137  -18.5015    1.8690 C   0  0  0  0  0  0  0  0  0  0  0  0
   19.6465  -17.8208    1.7062 N   0  0  0  0  0  0  0  0  0  0  0  0
   20.2224  -17.5517    2.8996 C   0  0  0  0  0  0  0  0  0  0  0  0
   19.7475  -17.8958    4.1495 C   0  0  0  0  0  0  0  0  0  0  0  0
   18.5375  -18.5954    4.1802 C   0  0  0  0  0  0  0  0  0  0  0  0
   17.9811  -18.9614    5.3237 N   0  0  0  0  0  0  0  0  0  0  0  0
   20.5720  -17.4598    5.1607 N   0  0  0  0  0  0  0  0  0  0  0  0
   21.5593  -16.8801    4.5029 C   0  0  0  0  0  0  0  0  0  0  0  0
   21.3994  -16.8921    3.1340 N   0  0  0  0  0  0  0  0  0  0  0  0
  1  2  2  0  0  0  0
  2  3  1  0  0  0  0
  3  4  2  0  0  0  0
  5  4  1  0  0  0  0
  5  6  2  0  0  0  0
  6  1  1  0  0  0  0
  6  7  1  0  0  0  0
  8  5  1  0  0  0  0
  9  8  1  0  0  0  0
 10  4  1  0  0  0  0
 10  9  2  0  0  0  0
M  END
>  <CHROM.1>
19.60994347,-17.94509921,3.59278064,-2.98913000,0.52189431,1.61951031

>  <Name>
1y26_lig

>  <RI>
0

>  <Rbt.Current_Directory>
/home/afrankz/demos/rdock_decoys_rna/rnas/1y26

>  <Rbt.Executable>
rbdock ($Id: //depot/dev/client3/rdock/2013.1/src/exe/rbdock.cxx#4 $)

>  <Rbt.Library>
libRbt.so (2013.1, Build901 2013/11/27)

>  <Rbt.Parameter_File>
/export/apps/rDock/src/rDock_2013.1_src/data/scripts/dock_solv.prm

>  <Rbt.Receptor>
prm/blind_docking_100.prm

>  <SCORE>
-22.5189

>  <SCORE.INTER>
-22.5189

>  <SCORE.INTER.CONST>
1

>  <SCORE.INTER.POLAR>
-2.33295

>  <SCORE.INTER.ROT>
0

>  <SCORE.INTER.SOLV>
11.7216

>  <SCORE.INTER.VDW>
-14.7433

>  <SCORE.INTER.norm>
-2.25189

>  <SCORE.INTRA>
0

>  <SCORE.INTRA.DIHEDRAL>
0

>  <SCORE.INTRA.DIHEDRAL.0>
0

>  <SCORE.INTRA.POLAR>
0

>  <SCORE.INTRA.POLAR.0>
0

>  <SCORE.INTRA.REPUL>
0

>  <SCORE.INTRA.REPUL.0>
0

>  <SCORE.INTRA.SOLV>
0

>  <SCORE.INTRA.SOLV.lig_0>
-16.9472

>  <SCORE.INTRA.VDW>
0

>  <SCORE.INTRA.VDW.0>
0

>  <SCORE.INTRA.norm>
0

>  <SCORE.RESTR>
0

>  <SCORE.RESTR.CAVITY>
0

>  <SCORE.RESTR.norm>
0

>  <SCORE.SYSTEM>
0

>  <SCORE.SYSTEM.CONST>
0

>  <SCORE.SYSTEM.DIHEDRAL>
0

>  <SCORE.SYSTEM.SOLV>
0

>  <SCORE.SYSTEM.norm>
0

>  <SCORE.heavy>
10

>  <SCORE.norm>
-2.25189

>  <RMSD>
2.739

$$$$
1y26_lig
 OpenBabel02141814133D
libRbt.so/2013.1/901 2013/11/27
 10 11  0  0  0  0  0  0  0  0999 V2000
   17.9108  -18.8680    3.0005 N   0  0  0  0  0  0  0  0  0  0  0  0
   18.4861  -18.4796    1.8597 C   0  0  0  0  0  0  0  0  0  0  0  0
   19.6220  -17.8048    1.6946 N   0  0  0  0  0  0  0  0  0  0  0  0
   20.2064  -17.5468    2.8864 C   0  0  0  0  0  0  0  0  0  0  0  0
   19.7366  -17.8959    4.1369 C   0  0  0  0  0  0  0  0  0  0  0  0
   18.5225  -18.5883    4.1700 C   0  0  0  0  0  0  0  0  0  0  0  0
   17.9704  -18.9582    5.3144 N   0  0  0  0  0  0  0  0  0  0  0  0
   20.5695  -17.4714    5.1460 N   0  0  0  0  0  0  0  0  0  0  0  0
   21.5566  -16.8935    4.4862 C   0  0  0  0  0  0  0  0  0  0  0  0
   21.3887  -16.8959    3.1182 N   0  0  0  0  0  0  0  0  0  0  0  0
  1  2  2  0  0  0  0
  2  3  1  0  0  0  0
  3  4  2  0  0  0  0
  5  4  1  0  0  0  0
  5  6  2  0  0  0  0
  6  1  1  0  0  0  0
  6  7  1  0  0  0  0
  8  5  1  0  0  0  0
  9  8  1  0  0  0  0
 10  4  1  0  0  0  0
 10  9  2  0  0  0  0
M  END
>  <CHROM.1>
19.59551854,-17.94086703,3.58059271,-2.99534417,0.51549507,1.62891967

>  <Name>
1y26_lig

>  <RI>
0

>  <Rbt.Current_Directory>
/home/afrankz/demos/rdock_decoys_rna/rnas/1y26

>  <Rbt.Executable>
rbdock ($Id: //depot/dev/client3/rdock/2013.1/src/exe/rbdock.cxx#4 $)

>  <Rbt.Library>
libRbt.so (2013.1, Build901 2013/11/27)

>  <Rbt.Parameter_File>
/export/apps/rDock/src/rDock_2013.1_src/data/scripts/dock_solv.prm

>  <Rbt.Receptor>
prm/blind_docking_100.prm

>  <SCORE>
-22.5053

>  <SCORE.INTER>
-22.5053

>  <SCORE.INTER.CONST>
1

>  <SCORE.INTER.POLAR>
-2.3332

>  <SCORE.INTER.ROT>
0

>  <SCORE.INTER.SOLV>
11.7358

>  <SCORE.INTER.VDW>
-14.7382

>  <SCORE.INTER.norm>
-2.25053

>  <SCORE.INTRA>
0

>  <SCORE.INTRA.DIHEDRAL>
0

>  <SCORE.INTRA.DIHEDRAL.0>
0

>  <SCORE.INTRA.POLAR>
0

>  <SCORE.INTRA.POLAR.0>
0

>  <SCORE.INTRA.REPUL>
0

>  <SCORE.INTRA.REPUL.0>
0

>  <SCORE.INTRA.SOLV>
0

>  <SCORE.INTRA.SOLV.lig_0>
-16.9472

>  <SCORE.INTRA.VDW>
0

>  <SCORE.INTRA.VDW.0>
0

>  <SCORE.INTRA.norm>
0

>  <SCORE.RESTR>
0

>  <SCORE.RESTR.CAVITY>
0

>  <SCORE.RESTR.norm>
0

>  <SCORE.SYSTEM>
0

>  <SCORE.SYSTEM.CONST>
0

>  <SCORE.SYSTEM.DIHEDRAL>
0

>  <SCORE.SYSTEM.SOLV>
0

>  <SCORE.SYSTEM.norm>
0

>  <SCORE.heavy>
10

>  <SCORE.norm>
-2.25053

>  <RMSD>
2.739

$$$$
1y26_lig
 OpenBabel02141814133D
libRbt.so/2013.1/901 2013/11/27
 10 11  0  0  0  0  0  0  0  0999 V2000
   17.9202  -18.8703    2.9958 N   0  0  0  0  0  0  0  0  0  0  0  0
   18.5012  -18.4846    1.8570 C   0  0  0  0  0  0  0  0  0  0  0  0
   19.6359  -17.8067    1.6962 N   0  0  0  0  0  0  0  0  0  0  0  0
   20.2120  -17.5419    2.8904 C   0  0  0  0  0  0  0  0  0  0  0  0
   19.7357  -17.8876    4.1394 C   0  0  0  0  0  0  0  0  0  0  0  0
   18.5238  -18.5839    4.1679 C   0  0  0  0  0  0  0  0  0  0  0  0
   17.9659  -18.9511    5.3103 N   0  0  0  0  0  0  0  0  0  0  0  0
   20.5609  -17.4561    5.1519 N   0  0  0  0  0  0  0  0  0  0  0  0
   21.5501  -16.8776    4.4959 C   0  0  0  0  0  0  0  0  0  0  0  0
   21.3907  -16.8860    3.1269 N   0  0  0  0  0  0  0  0  0  0  0  0
  1  2  2  0  0  0  0
  2  3  1  0  0  0  0
  3  4  2  0  0  0  0
  5  4  1  0  0  0  0
  5  6  2  0  0  0  0
  6  1  1  0  0  0  0
  6  7  1  0  0  0  0
  8  5  1  0  0  0  0
  9  8  1  0  0  0  0
 10  4  1  0  0  0  0
 10  9  2  0  0  0  0
M  END
>  <CHROM.1>
19.59821315,-17.93519754,3.58248955,-2.98848725,0.51920294,1.62149495

>  <Name>
1y26_lig

>  <RI>
224

>  <Rbt.Current_Directory>
/home/afrankz/demos/rdock_decoys_rna/rnas/1y26

>  <Rbt.Executable>
rbdock ($Id: //depot/dev/client3/rdock/2013.1/src/exe/rbdock.cxx#4 $)

>  <Rbt.Library>
libRbt.so (2013.1, Build901 2013/11/27)

>  <Rbt.Parameter_File>
/export/apps/rDock/src/rDock_2013.1_src/data/scripts/dock_solv.prm

>  <Rbt.Receptor>
prm/blind_docking_80.prm

>  <SCORE>
-22.5067

>  <SCORE.INTER>
-22.5067

>  <SCORE.INTER.CONST>
1

>  <SCORE.INTER.POLAR>
-2.32898

>  <SCORE.INTER.ROT>
0

>  <SCORE.INTER.SOLV>
11.7367

>  <SCORE.INTER.VDW>
-14.7534

>  <SCORE.INTER.norm>
-2.25067

>  <SCORE.INTRA>
0

>  <SCORE.INTRA.DIHEDRAL>
0

>  <SCORE.INTRA.DIHEDRAL.0>
0

>  <SCORE.INTRA.POLAR>
0

>  <SCORE.INTRA.POLAR.0>
0

>  <SCORE.INTRA.REPUL>
0

>  <SCORE.INTRA.REPUL.0>
0

>  <SCORE.INTRA.SOLV>
0

>  <SCORE.INTRA.SOLV.lig_0>
-16.9472

>  <SCORE.INTRA.VDW>
0

>  <SCORE.INTRA.VDW.0>
0

>  <SCORE.INTRA.norm>
0

>  <SCORE.RESTR>
0

>  <SCORE.RESTR.CAVITY>
0

>  <SCORE.RESTR.norm>
0

>  <SCORE.SYSTEM>
0

>  <SCORE.SYSTEM.CONST>
0

>  <SCORE.SYSTEM.DIHEDRAL>
0

>  <SCORE.SYSTEM.SOLV>
0

>  <SCORE.SYSTEM.norm>
0

>  <SCORE.heavy>
10

>  <SCORE.norm>
-2.25067

>  <RMSD>
2.739

$$$$
1y26_lig
 OpenBabel02141814133D
libRbt.so/2013.1/901 2013/11/27
 10 11  0  0  0  0  0  0  0  0999 V2000
   17.9338  -18.8711    3.0018 N   0  0  0  0  0  0  0  0  0  0  0  0
   18.5139  -18.4833    1.8633 C   0  0  0  0  0  0  0  0  0  0  0  0
   19.6498  -17.8074    1.7028 N   0  0  0  0  0  0  0  0  0  0  0  0
   20.2282  -17.5473    2.8970 C   0  0  0  0  0  0  0  0  0  0  0  0
   19.7530  -17.8956    4.1456 C   0  0  0  0  0  0  0  0  0  0  0  0
   18.5396  -18.5895    4.1739 C   0  0  0  0  0  0  0  0  0  0  0  0
   17.9826  -18.9587    5.3160 N   0  0  0  0  0  0  0  0  0  0  0  0
   20.5806  -17.4689    5.1582 N   0  0  0  0  0  0  0  0  0  0  0  0
   21.5701  -16.8905    4.5024 C   0  0  0  0  0  0  0  0  0  0  0  0
   21.4087  -16.8947    3.1337 N   0  0  0  0  0  0  0  0  0  0  0  0
  1  2  2  0  0  0  0
  2  3  1  0  0  0  0
  3  4  2  0  0  0  0
  5  4  1  0  0  0  0
  5  6  2  0  0  0  0
  6  1  1  0  0  0  0
  6  7  1  0  0  0  0
  8  5  1  0  0  0  0
  9  8  1  0  0  0  0
 10  4  1  0  0  0  0
 10  9  2  0  0  0  0
M  END
>  <CHROM.1>
19.61461593,-17.94132534,3.58877395,-2.99001813,0.51698942,1.62517470

>  <Name>
1y26_lig

>  <RI>
0

>  <Rbt.Current_Directory>
/home/afrankz/demos/rdock_decoys_rna/rnas/1y26

>  <Rbt.Executable>
rbdock ($Id: //depot/dev/client3/rdock/2013.1/src/exe/rbdock.cxx#4 $)

>  <Rbt.Library>
libRbt.so (2013.1, Build901 2013/11/27)

>  <Rbt.Parameter_File>
/export/apps/rDock/src/rDock_2013.1_src/data/scripts/dock_solv.prm

>  <Rbt.Receptor>
prm/pocket_docking_4.prm

>  <SCORE>
-22.5246

>  <SCORE.INTER>
-22.5246

>  <SCORE.INTER.CONST>
1

>  <SCORE.INTER.POLAR>
-2.33478

>  <SCORE.INTER.ROT>
0

>  <SCORE.INTER.SOLV>
11.7231

>  <SCORE.INTER.VDW>
-14.7415

>  <SCORE.INTER.norm>
-2.25246

>  <SCORE.INTRA>
0

>  <SCORE.INTRA.DIHEDRAL>
0

>  <SCORE.INTRA.DIHEDRAL.0>
0

>  <SCORE.INTRA.POLAR>
0

>  <SCORE.INTRA.POLAR.0>
0

>  <SCORE.INTRA.REPUL>
0

>  <SCORE.INTRA.REPUL.0>
0

>  <SCORE.INTRA.SOLV>
0

>  <SCORE.INTRA.SOLV.lig_0>
-16.9472

>  <SCORE.INTRA.VDW>
0

>  <SCORE.INTRA.VDW.0>
0

>  <SCORE.INTRA.norm>
0

>  <SCORE.RESTR>
0

>  <SCORE.RESTR.CAVITY>
0

>  <SCORE.RESTR.norm>
0

>  <SCORE.SYSTEM>
0

>  <SCORE.SYSTEM.CONST>
0

>  <SCORE.SYSTEM.DIHEDRAL>
0

>  <SCORE.SYSTEM.SOLV>
0

>  <SCORE.SYSTEM.norm>
0

>  <SCORE.heavy>
10

>  <SCORE.norm>
-2.25246

>  <RMSD>
2.739

$$$$
1y26_lig
 OpenBabel02141814133D
libRbt.so/2013.1/901 2013/11/27
 10 11  0  0  0  0  0  0  0  0999 V2000
   17.9259  -18.8784    3.0030 N   0  0  0  0  0  0  0  0  0  0  0  0
   18.5033  -18.4920    1.8626 C   0  0  0  0  0  0  0  0  0  0  0  0
   19.6382  -17.8152    1.6987 N   0  0  0  0  0  0  0  0  0  0  0  0
   20.2188  -17.5526    2.8912 C   0  0  0  0  0  0  0  0  0  0  0  0
   19.7465  -17.8992    4.1414 C   0  0  0  0  0  0  0  0  0  0  0  0
   18.5338  -18.5941    4.1733 C   0  0  0  0  0  0  0  0  0  0  0  0
   17.9795  -18.9620    5.3173 N   0  0  0  0  0  0  0  0  0  0  0  0
   20.5758  -17.4699    5.1515 N   0  0  0  0  0  0  0  0  0  0  0  0
   21.5633  -16.8917    4.4927 C   0  0  0  0  0  0  0  0  0  0  0  0
   21.3991  -16.8984    3.1243 N   0  0  0  0  0  0  0  0  0  0  0  0
  1  2  2  0  0  0  0
  2  3  1  0  0  0  0
  3  4  2  0  0  0  0
  5  4  1  0  0  0  0
  5  6  2  0  0  0  0
  6  1  1  0  0  0  0
  6  7  1  0  0  0  0
  8  5  1  0  0  0  0
  9  8  1  0  0  0  0
 10  4  1  0  0  0  0
 10  9  2  0  0  0  0
M  END
>  <CHROM.1>
19.60697610,-17.94596888,3.58491752,-2.99244968,0.51784595,1.62464815

>  <Name>
1y26_lig

>  <RI>
0

>  <Rbt.Current_Directory>
/home/afrankz/demos/rdock_decoys_rna/rnas/1y26

>  <Rbt.Executable>
rbdock ($Id: //depot/dev/client3/rdock/2013.1/src/exe/rbdock.cxx#4 $)

>  <Rbt.Library>
libRbt.so (2013.1, Build901 2013/11/27)

>  <Rbt.Parameter_File>
/export/apps/rDock/src/rDock_2013.1_src/data/scripts/dock_solv.prm

>  <Rbt.Receptor>
prm/pocket_docking_4.prm

>  <SCORE>
-22.5092

>  <SCORE.INTER>
-22.5092

>  <SCORE.INTER.CONST>
1

>  <SCORE.INTER.POLAR>
-2.33539

>  <SCORE.INTER.ROT>
0

>  <SCORE.INTER.SOLV>
11.7279

>  <SCORE.INTER.VDW>
-14.7308

>  <SCORE.INTER.norm>
-2.25092

>  <SCORE.INTRA>
0

>  <SCORE.INTRA.DIHEDRAL>
0

>  <SCORE.INTRA.DIHEDRAL.0>
0

>  <SCORE.INTRA.POLAR>
0

>  <SCORE.INTRA.POLAR.0>
0

>  <SCORE.INTRA.REPUL>
0

>  <SCORE.INTRA.REPUL.0>
0

>  <SCORE.INTRA.SOLV>
0

>  <SCORE.INTRA.SOLV.lig_0>
-16.9472

>  <SCORE.INTRA.VDW>
0

>  <SCORE.INTRA.VDW.0>
0

>  <SCORE.INTRA.norm>
0

>  <SCORE.RESTR>
0

>  <SCORE.RESTR.CAVITY>
0

>  <SCORE.RESTR.norm>
0

>  <SCORE.SYSTEM>
0

>  <SCORE.SYSTEM.CONST>
0

>  <SCORE.SYSTEM.DIHEDRAL>
0

>  <SCORE.SYSTEM.SOLV>
0

>  <SCORE.SYSTEM.norm>
0

>  <SCORE.heavy>
10

>  <SCORE.norm>
-2.25092

>  <RMSD>
2.739

$$$$
1y26_lig
 OpenBabel02141814133D
libRbt.so/2013.1/901 2013/11/27
 10 11  0  0  0  0  0  0  0  0999 V2000
   17.9220  -18.8751    3.0089 N   0  0  0  0  0  0  0  0  0  0  0  0
   18.4966  -18.4900    1.8667 C   0  0  0  0  0  0  0  0  0  0  0  0
   19.6319  -17.8146    1.6992 N   0  0  0  0  0  0  0  0  0  0  0  0
   20.2162  -17.5522    2.8899 C   0  0  0  0  0  0  0  0  0  0  0  0
   19.7471  -17.8976    4.1417 C   0  0  0  0  0  0  0  0  0  0  0  0
   18.5337  -18.5911    4.1774 C   0  0  0  0  0  0  0  0  0  0  0  0
   17.9822  -18.9577    5.3231 N   0  0  0  0  0  0  0  0  0  0  0  0
   20.5798  -17.4689    5.1492 N   0  0  0  0  0  0  0  0  0  0  0  0
   21.5662  -16.8922    4.4873 C   0  0  0  0  0  0  0  0  0  0  0  0
   21.3980  -16.8993    3.1194 N   0  0  0  0  0  0  0  0  0  0  0  0
  1  2  2  0  0  0  0
  2  3  1  0  0  0  0
  3  4  2  0  0  0  0
  5  4  1  0  0  0  0
  5  6  2  0  0  0  0
  6  1  1  0  0  0  0
  6  7  1  0  0  0  0
  8  5  1  0  0  0  0
  9  8  1  0  0  0  0
 10  4  1  0  0  0  0
 10  9  2  0  0  0  0
M  END
>  <CHROM.1>
19.60595168,-17.94449576,3.58561251,-2.99566968,0.51646431,1.62579333

>  <Name>
1y26_lig

>  <RI>
0

>  <Rbt.Current_Directory>
/home/afrankz/demos/rdock_decoys_rna/rnas/1y26

>  <Rbt.Executable>
rbdock ($Id: //depot/dev/client3/rdock/2013.1/src/exe/rbdock.cxx#4 $)

>  <Rbt.Library>
libRbt.so (2013.1, Build901 2013/11/27)

>  <Rbt.Parameter_File>
/export/apps/rDock/src/rDock_2013.1_src/data/scripts/dock_solv.prm

>  <Rbt.Receptor>
prm/blind_docking_60.prm

>  <SCORE>
-22.5086

>  <SCORE.INTER>
-22.5086

>  <SCORE.INTER.CONST>
1

>  <SCORE.INTER.POLAR>
-2.33615

>  <SCORE.INTER.ROT>
0

>  <SCORE.INTER.SOLV>
11.7201

>  <SCORE.INTER.VDW>
-14.7253

>  <SCORE.INTER.norm>
-2.25086

>  <SCORE.INTRA>
0

>  <SCORE.INTRA.DIHEDRAL>
0

>  <SCORE.INTRA.DIHEDRAL.0>
0

>  <SCORE.INTRA.POLAR>
0

>  <SCORE.INTRA.POLAR.0>
0

>  <SCORE.INTRA.REPUL>
0

>  <SCORE.INTRA.REPUL.0>
0

>  <SCORE.INTRA.SOLV>
0

>  <SCORE.INTRA.SOLV.lig_0>
-16.9472

>  <SCORE.INTRA.VDW>
0

>  <SCORE.INTRA.VDW.0>
0

>  <SCORE.INTRA.norm>
0

>  <SCORE.RESTR>
0

>  <SCORE.RESTR.CAVITY>
0

>  <SCORE.RESTR.norm>
0

>  <SCORE.SYSTEM>
0

>  <SCORE.SYSTEM.CONST>
0

>  <SCORE.SYSTEM.DIHEDRAL>
0

>  <SCORE.SYSTEM.SOLV>
0

>  <SCORE.SYSTEM.norm>
0

>  <SCORE.heavy>
10

>  <SCORE.norm>
-2.25086

>  <RMSD>
2.740

$$$$
1y26_lig
 OpenBabel02141814133D
libRbt.so/2013.1/901 2013/11/27
 10 11  0  0  0  0  0  0  0  0999 V2000
   17.9358  -18.8860    3.0202 N   0  0  0  0  0  0  0  0  0  0  0  0
   18.5074  -18.4979    1.8775 C   0  0  0  0  0  0  0  0  0  0  0  0
   19.6392  -17.8169    1.7090 N   0  0  0  0  0  0  0  0  0  0  0  0
   20.2234  -17.5518    2.8993 C   0  0  0  0  0  0  0  0  0  0  0  0
   19.7571  -17.8997    4.1514 C   0  0  0  0  0  0  0  0  0  0  0  0
   18.5472  -18.5991    4.1881 C   0  0  0  0  0  0  0  0  0  0  0  0
   17.9986  -18.9687    5.3343 N   0  0  0  0  0  0  0  0  0  0  0  0
   20.5886  -17.4670    5.1582 N   0  0  0  0  0  0  0  0  0  0  0  0
   21.5715  -16.8854    4.4955 C   0  0  0  0  0  0  0  0  0  0  0  0
   21.4021  -16.8931    3.1277 N   0  0  0  0  0  0  0  0  0  0  0  0
  1  2  2  0  0  0  0
  2  3  1  0  0  0  0
  3  4  2  0  0  0  0
  5  4  1  0  0  0  0
  5  6  2  0  0  0  0
  6  1  1  0  0  0  0
  6  7  1  0  0  0  0
  8  5  1  0  0  0  0
  9  8  1  0  0  0  0
 10  4  1  0  0  0  0
 10  9  2  0  0  0  0
M  END
>  <CHROM.1>
19.61566660,-17.94719828,3.59545313,-2.99705118,0.52132416,1.62662973

>  <Name>
1y26_lig

>  <RI>
224

>  <Rbt.Current_Directory>
/home/afrankz/demos/rdock_decoys_rna/rnas/1y26

>  <Rbt.Executable>
rbdock ($Id: //depot/dev/client3/rdock/2013.1/src/exe/rbdock.cxx#4 $)

>  <Rbt.Library>
libRbt.so (2013.1, Build901 2013/11/27)

>  <Rbt.Parameter_File>
/export/apps/rDock/src/rDock_2013.1_src/data/scripts/dock_solv.prm

>  <Rbt.Receptor>
prm/pocket_docking_3.prm

>  <SCORE>
-22.517

>  <SCORE.INTER>
-22.517

>  <SCORE.INTER.CONST>
1

>  <SCORE.INTER.POLAR>
-2.33349

>  <SCORE.INTER.ROT>
0

>  <SCORE.INTER.SOLV>
11.7046

>  <SCORE.INTER.VDW>
-14.7345

>  <SCORE.INTER.norm>
-2.2517

>  <SCORE.INTRA>
0

>  <SCORE.INTRA.DIHEDRAL>
0

>  <SCORE.INTRA.DIHEDRAL.0>
0

>  <SCORE.INTRA.POLAR>
0

>  <SCORE.INTRA.POLAR.0>
0

>  <SCORE.INTRA.REPUL>
0

>  <SCORE.INTRA.REPUL.0>
0

>  <SCORE.INTRA.SOLV>
0

>  <SCORE.INTRA.SOLV.lig_0>
-16.9472

>  <SCORE.INTRA.VDW>
0

>  <SCORE.INTRA.VDW.0>
0

>  <SCORE.INTRA.norm>
0

>  <SCORE.RESTR>
0

>  <SCORE.RESTR.CAVITY>
0

>  <SCORE.RESTR.norm>
0

>  <SCORE.SYSTEM>
0

>  <SCORE.SYSTEM.CONST>
0

>  <SCORE.SYSTEM.DIHEDRAL>
0

>  <SCORE.SYSTEM.SOLV>
0

>  <SCORE.SYSTEM.norm>
0

>  <SCORE.heavy>
10

>  <SCORE.norm>
-2.2517

>  <RMSD>
2.740

$$$$
1y26_lig
 OpenBabel02141814133D
libRbt.so/2013.1/901 2013/11/27
 10 11  0  0  0  0  0  0  0  0999 V2000
   17.9407  -18.8906    2.9993 N   0  0  0  0  0  0  0  0  0  0  0  0
   18.5191  -18.4977    1.8616 C   0  0  0  0  0  0  0  0  0  0  0  0
   19.6502  -17.8133    1.7029 N   0  0  0  0  0  0  0  0  0  0  0  0
   20.2254  -17.5499    2.8978 C   0  0  0  0  0  0  0  0  0  0  0  0
   19.7515  -17.9026    4.1458 C   0  0  0  0  0  0  0  0  0  0  0  0
   18.5432  -18.6054    4.1722 C   0  0  0  0  0  0  0  0  0  0  0  0
   17.9877  -18.9795    5.3135 N   0  0  0  0  0  0  0  0  0  0  0  0
   20.5749  -17.4705    5.1595 N   0  0  0  0  0  0  0  0  0  0  0  0
   21.5607  -16.8844    4.5052 C   0  0  0  0  0  0  0  0  0  0  0  0
   21.4008  -16.8888    3.1363 N   0  0  0  0  0  0  0  0  0  0  0  0
  1  2  2  0  0  0  0
  2  3  1  0  0  0  0
  3  4  2  0  0  0  0
  5  4  1  0  0  0  0
  5  6  2  0  0  0  0
  6  1  1  0  0  0  0
  6  7  1  0  0  0  0
  8  5  1  0  0  0  0
  9  8  1  0  0  0  0
 10  4  1  0  0  0  0
 10  9  2  0  0  0  0
M  END
>  <CHROM.1>
19.61400533,-17.94888916,3.58870882,-2.98928400,0.52438570,1.62554380

>  <Name>
1y26_lig

>  <RI>
224

>  <Rbt.Current_Directory>
/home/afrankz/demos/rdock_decoys_rna/rnas/1y26

>  <Rbt.Executable>
rbdock ($Id: //depot/dev/client3/rdock/2013.1/src/exe/rbdock.cxx#4 $)

>  <Rbt.Library>
libRbt.so (2013.1, Build901 2013/11/27)

>  <Rbt.Parameter_File>
/export/apps/rDock/src/rDock_2013.1_src/data/scripts/dock_solv.prm

>  <Rbt.Receptor>
prm/pocket_docking_6.prm

>  <SCORE>
-22.5252

>  <SCORE.INTER>
-22.5252

>  <SCORE.INTER.CONST>
1

>  <SCORE.INTER.POLAR>
-2.33144

>  <SCORE.INTER.ROT>
0

>  <SCORE.INTER.SOLV>
11.7316

>  <SCORE.INTER.VDW>
-14.7559

>  <SCORE.INTER.norm>
-2.25252

>  <SCORE.INTRA>
0

>  <SCORE.INTRA.DIHEDRAL>
0

>  <SCORE.INTRA.DIHEDRAL.0>
0

>  <SCORE.INTRA.POLAR>
0

>  <SCORE.INTRA.POLAR.0>
0

>  <SCORE.INTRA.REPUL>
0

>  <SCORE.INTRA.REPUL.0>
0

>  <SCORE.INTRA.SOLV>
0

>  <SCORE.INTRA.SOLV.lig_0>
-16.9472

>  <SCORE.INTRA.VDW>
0

>  <SCORE.INTRA.VDW.0>
0

>  <SCORE.INTRA.norm>
0

>  <SCORE.RESTR>
0

>  <SCORE.RESTR.CAVITY>
0

>  <SCORE.RESTR.norm>
0

>  <SCORE.SYSTEM>
0

>  <SCORE.SYSTEM.CONST>
0

>  <SCORE.SYSTEM.DIHEDRAL>
0

>  <SCORE.SYSTEM.SOLV>
0

>  <SCORE.SYSTEM.norm>
0

>  <SCORE.heavy>
10

>  <SCORE.norm>
-2.25252

>  <RMSD>
2.740

$$$$
1y26_lig
 OpenBabel02141814133D
libRbt.so/2013.1/901 2013/11/27
 10 11  0  0  0  0  0  0  0  0999 V2000
   17.9386  -18.8888    3.0062 N   0  0  0  0  0  0  0  0  0  0  0  0
   18.5168  -18.5006    1.8669 C   0  0  0  0  0  0  0  0  0  0  0  0
   19.6495  -17.8197    1.7049 N   0  0  0  0  0  0  0  0  0  0  0  0
   20.2268  -17.5546    2.8985 C   0  0  0  0  0  0  0  0  0  0  0  0
   19.7533  -17.9026    4.1479 C   0  0  0  0  0  0  0  0  0  0  0  0
   18.5432  -18.6020    4.1777 C   0  0  0  0  0  0  0  0  0  0  0  0
   17.9880  -18.9716    5.3206 N   0  0  0  0  0  0  0  0  0  0  0  0
   20.5790  -17.4700    5.1595 N   0  0  0  0  0  0  0  0  0  0  0  0
   21.5657  -16.8884    4.5026 C   0  0  0  0  0  0  0  0  0  0  0  0
   21.4042  -16.8960    3.1338 N   0  0  0  0  0  0  0  0  0  0  0  0
  1  2  2  0  0  0  0
  2  3  1  0  0  0  0
  3  4  2  0  0  0  0
  5  4  1  0  0  0  0
  5  6  2  0  0  0  0
  6  1  1  0  0  0  0
  6  7  1  0  0  0  0
  8  5  1  0  0  0  0
  9  8  1  0  0  0  0
 10  4  1  0  0  0  0
 10  9  2  0  0  0  0
M  END
>  <CHROM.1>
19.61508695,-17.95006335,3.59118005,-2.99041780,0.52163236,1.62338854

>  <Name>
1y26_lig

>  <RI>
0

>  <Rbt.Current_Directory>
/home/afrankz/demos/rdock_decoys_rna/rnas/1y26

>  <Rbt.Executable>
rbdock ($Id: //depot/dev/client3/rdock/2013.1/src/exe/rbdock.cxx#4 $)

>  <Rbt.Library>
libRbt.so (2013.1, Build901 2013/11/27)

>  <Rbt.Parameter_File>
/export/apps/rDock/src/rDock_2013.1_src/data/scripts/dock_solv.prm

>  <Rbt.Receptor>
prm/pocket_docking_8.prm

>  <SCORE>
-22.5269

>  <SCORE.INTER>
-22.5269

>  <SCORE.INTER.CONST>
1

>  <SCORE.INTER.POLAR>
-2.33522

>  <SCORE.INTER.ROT>
0

>  <SCORE.INTER.SOLV>
11.7232

>  <SCORE.INTER.VDW>
-14.7416

>  <SCORE.INTER.norm>
-2.25269

>  <SCORE.INTRA>
0

>  <SCORE.INTRA.DIHEDRAL>
0

>  <SCORE.INTRA.DIHEDRAL.0>
0

>  <SCORE.INTRA.POLAR>
0

>  <SCORE.INTRA.POLAR.0>
0

>  <SCORE.INTRA.REPUL>
0

>  <SCORE.INTRA.REPUL.0>
0

>  <SCORE.INTRA.SOLV>
0

>  <SCORE.INTRA.SOLV.lig_0>
-16.9472

>  <SCORE.INTRA.VDW>
0

>  <SCORE.INTRA.VDW.0>
0

>  <SCORE.INTRA.norm>
0

>  <SCORE.RESTR>
0

>  <SCORE.RESTR.CAVITY>
0

>  <SCORE.RESTR.norm>
0

>  <SCORE.SYSTEM>
0

>  <SCORE.SYSTEM.CONST>
0

>  <SCORE.SYSTEM.DIHEDRAL>
0

>  <SCORE.SYSTEM.SOLV>
0

>  <SCORE.SYSTEM.norm>
0

>  <SCORE.heavy>
10

>  <SCORE.norm>
-2.25269

>  <RMSD>
2.740

$$$$
1y26_lig
 OpenBabel02141814133D
libRbt.so/2013.1/901 2013/11/27
 10 11  0  0  0  0  0  0  0  0999 V2000
   17.9540  -18.8804    2.9754 N   0  0  0  0  0  0  0  0  0  0  0  0
   18.5407  -18.4826    1.8438 C   0  0  0  0  0  0  0  0  0  0  0  0
   19.6731  -17.7979    1.6962 N   0  0  0  0  0  0  0  0  0  0  0  0
   20.2400  -17.5403    2.8964 C   0  0  0  0  0  0  0  0  0  0  0  0
   19.7570  -17.8985    4.1393 C   0  0  0  0  0  0  0  0  0  0  0  0
   18.5483  -18.6009    4.1539 C   0  0  0  0  0  0  0  0  0  0  0  0
   17.9846  -18.9800    5.2895 N   0  0  0  0  0  0  0  0  0  0  0  0
   20.5734  -17.4715    5.1608 N   0  0  0  0  0  0  0  0  0  0  0  0
   21.5641  -16.8829    4.5162 C   0  0  0  0  0  0  0  0  0  0  0  0
   21.4139  -16.8808    3.1462 N   0  0  0  0  0  0  0  0  0  0  0  0
  1  2  2  0  0  0  0
  2  3  1  0  0  0  0
  3  4  2  0  0  0  0
  5  4  1  0  0  0  0
  5  6  2  0  0  0  0
  6  1  1  0  0  0  0
  6  7  1  0  0  0  0
  8  5  1  0  0  0  0
  9  8  1  0  0  0  0
 10  4  1  0  0  0  0
 10  9  2  0  0  0  0
M  END
>  <CHROM.1>
19.62348459,-17.94220877,3.58107806,-2.98107383,0.52433625,1.62603936

>  <Name>
1y26_lig

>  <RI>
0

>  <Rbt.Current_Directory>
/home/afrankz/demos/rdock_decoys_rna/rnas/1y26

>  <Rbt.Executable>
rbdock ($Id: //depot/dev/client3/rdock/2013.1/src/exe/rbdock.cxx#4 $)

>  <Rbt.Library>
libRbt.so (2013.1, Build901 2013/11/27)

>  <Rbt.Parameter_File>
/export/apps/rDock/src/rDock_2013.1_src/data/scripts/dock_solv.prm

>  <Rbt.Receptor>
prm/pocket_docking_4.prm

>  <SCORE>
-22.5365

>  <SCORE.INTER>
-22.5365

>  <SCORE.INTER.CONST>
1

>  <SCORE.INTER.POLAR>
-2.32834

>  <SCORE.INTER.ROT>
0

>  <SCORE.INTER.SOLV>
11.7479

>  <SCORE.INTER.VDW>
-14.7792

>  <SCORE.INTER.norm>
-2.25365

>  <SCORE.INTRA>
0

>  <SCORE.INTRA.DIHEDRAL>
0

>  <SCORE.INTRA.DIHEDRAL.0>
0

>  <SCORE.INTRA.POLAR>
0

>  <SCORE.INTRA.POLAR.0>
0

>  <SCORE.INTRA.REPUL>
0

>  <SCORE.INTRA.REPUL.0>
0

>  <SCORE.INTRA.SOLV>
0

>  <SCORE.INTRA.SOLV.lig_0>
-16.9472

>  <SCORE.INTRA.VDW>
0

>  <SCORE.INTRA.VDW.0>
0

>  <SCORE.INTRA.norm>
0

>  <SCORE.RESTR>
0

>  <SCORE.RESTR.CAVITY>
0

>  <SCORE.RESTR.norm>
0

>  <SCORE.SYSTEM>
0

>  <SCORE.SYSTEM.CONST>
0

>  <SCORE.SYSTEM.DIHEDRAL>
0

>  <SCORE.SYSTEM.SOLV>
0

>  <SCORE.SYSTEM.norm>
0

>  <SCORE.heavy>
10

>  <SCORE.norm>
-2.25365

>  <RMSD>
2.741

$$$$
1y26_lig
 OpenBabel02141814133D
libRbt.so/2013.1/901 2013/11/27
 10 11  0  0  0  0  0  0  0  0999 V2000
   17.9177  -18.8771    3.0010 N   0  0  0  0  0  0  0  0  0  0  0  0
   18.4918  -18.4869    1.8603 C   0  0  0  0  0  0  0  0  0  0  0  0
   19.6229  -17.8039    1.6956 N   0  0  0  0  0  0  0  0  0  0  0  0
   20.2034  -17.5389    2.8877 C   0  0  0  0  0  0  0  0  0  0  0  0
   19.7343  -17.8889    4.1382 C   0  0  0  0  0  0  0  0  0  0  0  0
   18.5254  -18.5904    4.1709 C   0  0  0  0  0  0  0  0  0  0  0  0
   17.9743  -18.9619    5.3152 N   0  0  0  0  0  0  0  0  0  0  0  0
   20.5624  -17.4558    5.1477 N   0  0  0  0  0  0  0  0  0  0  0  0
   21.5461  -16.8719    4.4882 C   0  0  0  0  0  0  0  0  0  0  0  0
   21.3804  -16.8786    3.1200 N   0  0  0  0  0  0  0  0  0  0  0  0
  1  2  2  0  0  0  0
  2  3  1  0  0  0  0
  3  4  2  0  0  0  0
  5  4  1  0  0  0  0
  5  6  2  0  0  0  0
  6  1  1  0  0  0  0
  6  7  1  0  0  0  0
  8  5  1  0  0  0  0
  9  8  1  0  0  0  0
 10  4  1  0  0  0  0
 10  9  2  0  0  0  0
M  END
>  <CHROM.1>
19.59443431,-17.93605489,3.58179584,-2.99403721,0.52313773,1.62611831

>  <Name>
1y26_lig

>  <RI>
0

>  <Rbt.Current_Directory>
/home/afrankz/demos/rdock_decoys_rna/rnas/1y26

>  <Rbt.Executable>
rbdock ($Id: //depot/dev/client3/rdock/2013.1/src/exe/rbdock.cxx#4 $)

>  <Rbt.Library>
libRbt.so (2013.1, Build901 2013/11/27)

>  <Rbt.Parameter_File>
/export/apps/rDock/src/rDock_2013.1_src/data/scripts/dock_solv.prm

>  <Rbt.Receptor>
prm/pocket_docking_5.prm

>  <SCORE>
-22.4973

>  <SCORE.INTER>
-22.4973

>  <SCORE.INTER.CONST>
1

>  <SCORE.INTER.POLAR>
-2.32471

>  <SCORE.INTER.ROT>
0

>  <SCORE.INTER.SOLV>
11.7337

>  <SCORE.INTER.VDW>
-14.7604

>  <SCORE.INTER.norm>
-2.24973

>  <SCORE.INTRA>
0

>  <SCORE.INTRA.DIHEDRAL>
0

>  <SCORE.INTRA.DIHEDRAL.0>
0

>  <SCORE.INTRA.POLAR>
0

>  <SCORE.INTRA.POLAR.0>
0

>  <SCORE.INTRA.REPUL>
0

>  <SCORE.INTRA.REPUL.0>
0

>  <SCORE.INTRA.SOLV>
0

>  <SCORE.INTRA.SOLV.lig_0>
-16.9472

>  <SCORE.INTRA.VDW>
0

>  <SCORE.INTRA.VDW.0>
0

>  <SCORE.INTRA.norm>
0

>  <SCORE.RESTR>
0

>  <SCORE.RESTR.CAVITY>
0

>  <SCORE.RESTR.norm>
0

>  <SCORE.SYSTEM>
0

>  <SCORE.SYSTEM.CONST>
0

>  <SCORE.SYSTEM.DIHEDRAL>
0

>  <SCORE.SYSTEM.SOLV>
0

>  <SCORE.SYSTEM.norm>
0

>  <SCORE.heavy>
10

>  <SCORE.norm>
-2.24973

>  <RMSD>
2.741

$$$$
1y26_lig
 OpenBabel02141814133D
libRbt.so/2013.1/901 2013/11/27
 10 11  0  0  0  0  0  0  0  0999 V2000
   17.9478  -18.8852    2.9869 N   0  0  0  0  0  0  0  0  0  0  0  0
   18.5302  -18.4917    1.8515 C   0  0  0  0  0  0  0  0  0  0  0  0
   19.6605  -17.8049    1.6972 N   0  0  0  0  0  0  0  0  0  0  0  0
   20.2301  -17.5396    2.8945 C   0  0  0  0  0  0  0  0  0  0  0  0
   19.7516  -17.8927    4.1405 C   0  0  0  0  0  0  0  0  0  0  0  0
   18.5447  -18.5981    4.1622 C   0  0  0  0  0  0  0  0  0  0  0  0
   17.9852  -18.9728    5.3013 N   0  0  0  0  0  0  0  0  0  0  0  0
   20.5697  -17.4583    5.1575 N   0  0  0  0  0  0  0  0  0  0  0  0
   21.5571  -16.8705    4.5071 C   0  0  0  0  0  0  0  0  0  0  0  0
   21.4030  -16.8759    3.1375 N   0  0  0  0  0  0  0  0  0  0  0  0
  1  2  2  0  0  0  0
  2  3  1  0  0  0  0
  3  4  2  0  0  0  0
  5  4  1  0  0  0  0
  5  6  2  0  0  0  0
  6  1  1  0  0  0  0
  6  7  1  0  0  0  0
  8  5  1  0  0  0  0
  9  8  1  0  0  0  0
 10  4  1  0  0  0  0
 10  9  2  0  0  0  0
M  END
>  <CHROM.1>
19.61657199,-17.93960226,3.58293434,-2.98451030,0.52675655,1.62262248

>  <Name>
1y26_lig

>  <RI>
224

>  <Rbt.Current_Directory>
/home/afrankz/demos/rdock_decoys_rna/rnas/1y26

>  <Rbt.Executable>
rbdock ($Id: //depot/dev/client3/rdock/2013.1/src/exe/rbdock.cxx#4 $)

>  <Rbt.Library>
libRbt.so (2013.1, Build901 2013/11/27)

>  <Rbt.Parameter_File>
/export/apps/rDock/src/rDock_2013.1_src/data/scripts/dock_solv.prm

>  <Rbt.Receptor>
prm/pocket_docking_7.prm

>  <SCORE>
-22.5128

>  <SCORE.INTER>
-22.5128

>  <SCORE.INTER.CONST>
1

>  <SCORE.INTER.POLAR>
-2.32504

>  <SCORE.INTER.ROT>
0

>  <SCORE.INTER.SOLV>
11.7369

>  <SCORE.INTER.VDW>
-14.7707

>  <SCORE.INTER.norm>
-2.25128

>  <SCORE.INTRA>
0

>  <SCORE.INTRA.DIHEDRAL>
0

>  <SCORE.INTRA.DIHEDRAL.0>
0

>  <SCORE.INTRA.POLAR>
0

>  <SCORE.INTRA.POLAR.0>
0

>  <SCORE.INTRA.REPUL>
0

>  <SCORE.INTRA.REPUL.0>
0

>  <SCORE.INTRA.SOLV>
0

>  <SCORE.INTRA.SOLV.lig_0>
-16.9472

>  <SCORE.INTRA.VDW>
0

>  <SCORE.INTRA.VDW.0>
0

>  <SCORE.INTRA.norm>
0

>  <SCORE.RESTR>
0

>  <SCORE.RESTR.CAVITY>
0

>  <SCORE.RESTR.norm>
0

>  <SCORE.SYSTEM>
0

>  <SCORE.SYSTEM.CONST>
0

>  <SCORE.SYSTEM.DIHEDRAL>
0

>  <SCORE.SYSTEM.SOLV>
0

>  <SCORE.SYSTEM.norm>
0

>  <SCORE.heavy>
10

>  <SCORE.norm>
-2.25128

>  <RMSD>
2.741

$$$$
1y26_lig
 OpenBabel02141814133D
libRbt.so/2013.1/901 2013/11/27
 10 11  0  0  0  0  0  0  0  0999 V2000
   17.9431  -18.8842    3.0084 N   0  0  0  0  0  0  0  0  0  0  0  0
   18.5198  -18.4990    1.8673 C   0  0  0  0  0  0  0  0  0  0  0  0
   19.6462  -17.8083    1.7025 N   0  0  0  0  0  0  0  0  0  0  0  0
   20.2185  -17.5287    2.8952 C   0  0  0  0  0  0  0  0  0  0  0  0
   19.7458  -17.8719    4.1463 C   0  0  0  0  0  0  0  0  0  0  0  0
   18.5425  -18.5828    4.1789 C   0  0  0  0  0  0  0  0  0  0  0  0
   17.9885  -18.9492    5.3234 N   0  0  0  0  0  0  0  0  0  0  0  0
   20.5652  -17.4237    5.1562 N   0  0  0  0  0  0  0  0  0  0  0  0
   21.5476  -16.8375    4.4968 C   0  0  0  0  0  0  0  0  0  0  0  0
   21.3890  -16.8569    3.1279 N   0  0  0  0  0  0  0  0  0  0  0  0
  1  2  2  0  0  0  0
  2  3  1  0  0  0  0
  3  4  2  0  0  0  0
  5  4  1  0  0  0  0
  5  6  2  0  0  0  0
  6  1  1  0  0  0  0
  6  7  1  0  0  0  0
  8  5  1  0  0  0  0
  9  8  1  0  0  0  0
 10  4  1  0  0  0  0
 10  9  2  0  0  0  0
M  END
>  <CHROM.1>
19.60920848,-17.92486957,3.58960548,-2.98863196,0.53141479,1.61497855

>  <Name>
1y26_lig

>  <RI>
224

>  <Rbt.Current_Directory>
/home/afrankz/demos/rdock_decoys_rna/rnas/1y26

>  <Rbt.Executable>
rbdock ($Id: //depot/dev/client3/rdock/2013.1/src/exe/rbdock.cxx#4 $)

>  <Rbt.Library>
libRbt.so (2013.1, Build901 2013/11/27)

>  <Rbt.Parameter_File>
/export/apps/rDock/src/rDock_2013.1_src/data/scripts/dock_solv.prm

>  <Rbt.Receptor>
prm/blind_docking_80.prm

>  <SCORE>
-22.5027

>  <SCORE.INTER>
-22.5027

>  <SCORE.INTER.CONST>
1

>  <SCORE.INTER.POLAR>
-2.31446

>  <SCORE.INTER.ROT>
0

>  <SCORE.INTER.SOLV>
11.7064

>  <SCORE.INTER.VDW>
-14.789

>  <SCORE.INTER.norm>
-2.25027

>  <SCORE.INTRA>
0

>  <SCORE.INTRA.DIHEDRAL>
0

>  <SCORE.INTRA.DIHEDRAL.0>
0

>  <SCORE.INTRA.POLAR>
0

>  <SCORE.INTRA.POLAR.0>
0

>  <SCORE.INTRA.REPUL>
0

>  <SCORE.INTRA.REPUL.0>
0

>  <SCORE.INTRA.SOLV>
0

>  <SCORE.INTRA.SOLV.lig_0>
-16.9472

>  <SCORE.INTRA.VDW>
0

>  <SCORE.INTRA.VDW.0>
0

>  <SCORE.INTRA.norm>
0

>  <SCORE.RESTR>
0

>  <SCORE.RESTR.CAVITY>
0

>  <SCORE.RESTR.norm>
0

>  <SCORE.SYSTEM>
0

>  <SCORE.SYSTEM.CONST>
0

>  <SCORE.SYSTEM.DIHEDRAL>
0

>  <SCORE.SYSTEM.SOLV>
0

>  <SCORE.SYSTEM.norm>
0

>  <SCORE.heavy>
10

>  <SCORE.norm>
-2.25027

>  <RMSD>
2.742

$$$$
1y26_lig
 OpenBabel02141814133D
libRbt.so/2013.1/901 2013/11/27
 10 11  0  0  0  0  0  0  0  0999 V2000
   17.9071  -18.8449    3.0642 N   0  0  0  0  0  0  0  0  0  0  0  0
   18.4595  -18.4609    1.9107 C   0  0  0  0  0  0  0  0  0  0  0  0
   19.5841  -17.7737    1.7210 N   0  0  0  0  0  0  0  0  0  0  0  0
   20.1836  -17.4963    2.9008 C   0  0  0  0  0  0  0  0  0  0  0  0
   19.7379  -17.8386    4.1619 C   0  0  0  0  0  0  0  0  0  0  0  0
   18.5334  -18.5458    4.2211 C   0  0  0  0  0  0  0  0  0  0  0  0
   18.0040  -18.9109    5.3776 N   0  0  0  0  0  0  0  0  0  0  0  0
   20.5811  -17.3934    5.1535 N   0  0  0  0  0  0  0  0  0  0  0  0
   21.5503  -16.8100    4.4726 C   0  0  0  0  0  0  0  0  0  0  0  0
   21.3611  -16.8283    3.1075 N   0  0  0  0  0  0  0  0  0  0  0  0
  1  2  2  0  0  0  0
  2  3  1  0  0  0  0
  3  4  2  0  0  0  0
  5  4  1  0  0  0  0
  5  6  2  0  0  0  0
  6  1  1  0  0  0  0
  6  7  1  0  0  0  0
  8  5  1  0  0  0  0
  9  8  1  0  0  0  0
 10  4  1  0  0  0  0
 10  9  2  0  0  0  0
M  END
>  <CHROM.1>
19.58877201,-17.89091226,3.60843607,-3.01425856,0.52716984,1.62831085

>  <Name>
1y26_lig

>  <RI>
0

>  <Rbt.Current_Directory>
/home/afrankz/demos/rdock_decoys_rna/rnas/1y26

>  <Rbt.Executable>
rbdock ($Id: //depot/dev/client3/rdock/2013.1/src/exe/rbdock.cxx#4 $)

>  <Rbt.Library>
libRbt.so (2013.1, Build901 2013/11/27)

>  <Rbt.Parameter_File>
/export/apps/rDock/src/rDock_2013.1_src/data/scripts/dock_solv.prm

>  <Rbt.Receptor>
prm/pocket_docking_5.prm

>  <SCORE>
-22.4285

>  <SCORE.INTER>
-22.4285

>  <SCORE.INTER.CONST>
1

>  <SCORE.INTER.POLAR>
-2.29788

>  <SCORE.INTER.ROT>
0

>  <SCORE.INTER.SOLV>
11.6495

>  <SCORE.INTER.VDW>
-14.7759

>  <SCORE.INTER.norm>
-2.24285

>  <SCORE.INTRA>
0

>  <SCORE.INTRA.DIHEDRAL>
0

>  <SCORE.INTRA.DIHEDRAL.0>
0

>  <SCORE.INTRA.POLAR>
0

>  <SCORE.INTRA.POLAR.0>
0

>  <SCORE.INTRA.REPUL>
0

>  <SCORE.INTRA.REPUL.0>
0

>  <SCORE.INTRA.SOLV>
0

>  <SCORE.INTRA.SOLV.lig_0>
-16.9472

>  <SCORE.INTRA.VDW>
0

>  <SCORE.INTRA.VDW.0>
0

>  <SCORE.INTRA.norm>
0

>  <SCORE.RESTR>
0

>  <SCORE.RESTR.CAVITY>
0

>  <SCORE.RESTR.norm>
0

>  <SCORE.SYSTEM>
0

>  <SCORE.SYSTEM.CONST>
0

>  <SCORE.SYSTEM.DIHEDRAL>
0

>  <SCORE.SYSTEM.SOLV>
0

>  <SCORE.SYSTEM.norm>
0

>  <SCORE.heavy>
10

>  <SCORE.norm>
-2.24285

>  <RMSD>
2.742

$$$$
1y26_lig
 OpenBabel02141814133D
libRbt.so/2013.1/901 2013/11/27
 10 11  0  0  0  0  0  0  0  0999 V2000
   17.8881  -18.8355    2.9334 N   0  0  0  0  0  0  0  0  0  0  0  0
   18.4760  -18.4322    1.8043 C   0  0  0  0  0  0  0  0  0  0  0  0
   19.6072  -17.7445    1.6613 N   0  0  0  0  0  0  0  0  0  0  0  0
   20.1712  -17.4899    2.8635 C   0  0  0  0  0  0  0  0  0  0  0  0
   19.6868  -17.8538    4.1042 C   0  0  0  0  0  0  0  0  0  0  0  0
   18.4796  -18.5589    4.1140 C   0  0  0  0  0  0  0  0  0  0  0  0
   17.9146  -18.9435    5.2471 N   0  0  0  0  0  0  0  0  0  0  0  0
   20.5003  -17.4286    5.1288 N   0  0  0  0  0  0  0  0  0  0  0  0
   21.4909  -16.8354    4.4882 C   0  0  0  0  0  0  0  0  0  0  0  0
   21.3432  -16.8287    3.1179 N   0  0  0  0  0  0  0  0  0  0  0  0
  1  2  2  0  0  0  0
  2  3  1  0  0  0  0
  3  4  2  0  0  0  0
  5  4  1  0  0  0  0
  5  6  2  0  0  0  0
  6  1  1  0  0  0  0
  6  7  1  0  0  0  0
  8  5  1  0  0  0  0
  9  8  1  0  0  0  0
 10  4  1  0  0  0  0
 10  9  2  0  0  0  0
M  END
>  <CHROM.1>
19.55437102,-17.89571234,3.54556394,-2.97905934,0.52670179,1.62866496

>  <Name>
1y26_lig

>  <RI>
0

>  <Rbt.Current_Directory>
/home/afrankz/demos/rdock_decoys_rna/rnas/1y26

>  <Rbt.Executable>
rbdock ($Id: //depot/dev/client3/rdock/2013.1/src/exe/rbdock.cxx#4 $)

>  <Rbt.Library>
libRbt.so (2013.1, Build901 2013/11/27)

>  <Rbt.Parameter_File>
/export/apps/rDock/src/rDock_2013.1_src/data/scripts/dock_solv.prm

>  <Rbt.Receptor>
prm/pocket_docking_5.prm

>  <SCORE>
-22.4372

>  <SCORE.INTER>
-22.4372

>  <SCORE.INTER.CONST>
1

>  <SCORE.INTER.POLAR>
-2.27397

>  <SCORE.INTER.ROT>
0

>  <SCORE.INTER.SOLV>
11.8187

>  <SCORE.INTER.VDW>
-14.9178

>  <SCORE.INTER.norm>
-2.24372

>  <SCORE.INTRA>
0

>  <SCORE.INTRA.DIHEDRAL>
0

>  <SCORE.INTRA.DIHEDRAL.0>
0

>  <SCORE.INTRA.POLAR>
0

>  <SCORE.INTRA.POLAR.0>
0

>  <SCORE.INTRA.REPUL>
0

>  <SCORE.INTRA.REPUL.0>
0

>  <SCORE.INTRA.SOLV>
0

>  <SCORE.INTRA.SOLV.lig_0>
-16.9472

>  <SCORE.INTRA.VDW>
0

>  <SCORE.INTRA.VDW.0>
0

>  <SCORE.INTRA.norm>
0

>  <SCORE.RESTR>
0

>  <SCORE.RESTR.CAVITY>
0

>  <SCORE.RESTR.norm>
0

>  <SCORE.SYSTEM>
0

>  <SCORE.SYSTEM.CONST>
0

>  <SCORE.SYSTEM.DIHEDRAL>
0

>  <SCORE.SYSTEM.SOLV>
0

>  <SCORE.SYSTEM.norm>
0

>  <SCORE.heavy>
10

>  <SCORE.norm>
-2.24372

>  <RMSD>
2.742

$$$$
1y26_lig
 OpenBabel02141814133D
libRbt.so/2013.1/901 2013/11/27
 10 11  0  0  0  0  0  0  0  0999 V2000
   17.9637  -18.8981    2.9770 N   0  0  0  0  0  0  0  0  0  0  0  0
   18.5470  -18.4978    1.8445 C   0  0  0  0  0  0  0  0  0  0  0  0
   19.6750  -17.8061    1.6953 N   0  0  0  0  0  0  0  0  0  0  0  0
   20.2410  -17.5435    2.8948 C   0  0  0  0  0  0  0  0  0  0  0  0
   19.7613  -17.9034    4.1385 C   0  0  0  0  0  0  0  0  0  0  0  0
   18.5570  -18.6134    4.1547 C   0  0  0  0  0  0  0  0  0  0  0  0
   17.9966  -18.9949    5.2911 N   0  0  0  0  0  0  0  0  0  0  0  0
   20.5756  -17.4701    5.1589 N   0  0  0  0  0  0  0  0  0  0  0  0
   21.5621  -16.8759    4.5130 C   0  0  0  0  0  0  0  0  0  0  0  0
   21.4109  -16.8763    3.1430 N   0  0  0  0  0  0  0  0  0  0  0  0
  1  2  2  0  0  0  0
  2  3  1  0  0  0  0
  3  4  2  0  0  0  0
  5  4  1  0  0  0  0
  5  6  2  0  0  0  0
  6  1  1  0  0  0  0
  6  7  1  0  0  0  0
  8  5  1  0  0  0  0
  9  8  1  0  0  0  0
 10  4  1  0  0  0  0
 10  9  2  0  0  0  0
M  END
>  <CHROM.1>
19.62761723,-17.94858760,3.58037557,-2.98230012,0.53065978,1.62554282

>  <Name>
1y26_lig

>  <RI>
0

>  <Rbt.Current_Directory>
/home/afrankz/demos/rdock_decoys_rna/rnas/1y26

>  <Rbt.Executable>
rbdock ($Id: //depot/dev/client3/rdock/2013.1/src/exe/rbdock.cxx#4 $)

>  <Rbt.Library>
libRbt.so (2013.1, Build901 2013/11/27)

>  <Rbt.Parameter_File>
/export/apps/rDock/src/rDock_2013.1_src/data/scripts/dock_solv.prm

>  <Rbt.Receptor>
prm/blind_docking_40.prm

>  <SCORE>
-22.5302

>  <SCORE.INTER>
-22.5302

>  <SCORE.INTER.CONST>
1

>  <SCORE.INTER.POLAR>
-2.32432

>  <SCORE.INTER.ROT>
0

>  <SCORE.INTER.SOLV>
11.7444

>  <SCORE.INTER.VDW>
-14.7872

>  <SCORE.INTER.norm>
-2.25302

>  <SCORE.INTRA>
0

>  <SCORE.INTRA.DIHEDRAL>
0

>  <SCORE.INTRA.DIHEDRAL.0>
0

>  <SCORE.INTRA.POLAR>
0

>  <SCORE.INTRA.POLAR.0>
0

>  <SCORE.INTRA.REPUL>
0

>  <SCORE.INTRA.REPUL.0>
0

>  <SCORE.INTRA.SOLV>
0

>  <SCORE.INTRA.SOLV.lig_0>
-16.9472

>  <SCORE.INTRA.VDW>
0

>  <SCORE.INTRA.VDW.0>
0

>  <SCORE.INTRA.norm>
0

>  <SCORE.RESTR>
0

>  <SCORE.RESTR.CAVITY>
0

>  <SCORE.RESTR.norm>
0

>  <SCORE.SYSTEM>
0

>  <SCORE.SYSTEM.CONST>
0

>  <SCORE.SYSTEM.DIHEDRAL>
0

>  <SCORE.SYSTEM.SOLV>
0

>  <SCORE.SYSTEM.norm>
0

>  <SCORE.heavy>
10

>  <SCORE.norm>
-2.25302

>  <RMSD>
2.743

$$$$
1y26_lig
 OpenBabel02141814133D
libRbt.so/2013.1/901 2013/11/27
 10 11  0  0  0  0  0  0  0  0999 V2000
   17.9261  -18.8846    3.0109 N   0  0  0  0  0  0  0  0  0  0  0  0
   18.4942  -18.4931    1.8676 C   0  0  0  0  0  0  0  0  0  0  0  0
   19.6248  -17.8105    1.6977 N   0  0  0  0  0  0  0  0  0  0  0  0
   20.2119  -17.5476    2.8870 C   0  0  0  0  0  0  0  0  0  0  0  0
   19.7494  -17.8990    4.1396 C   0  0  0  0  0  0  0  0  0  0  0  0
   18.5403  -18.5998    4.1779 C   0  0  0  0  0  0  0  0  0  0  0  0
   17.9952  -18.9726    5.3246 N   0  0  0  0  0  0  0  0  0  0  0  0
   20.5832  -17.4678    5.1451 N   0  0  0  0  0  0  0  0  0  0  0  0
   21.5636  -16.8836    4.4812 C   0  0  0  0  0  0  0  0  0  0  0  0
   21.3906  -16.8882    3.1138 N   0  0  0  0  0  0  0  0  0  0  0  0
  1  2  2  0  0  0  0
  2  3  1  0  0  0  0
  3  4  2  0  0  0  0
  5  4  1  0  0  0  0
  5  6  2  0  0  0  0
  6  1  1  0  0  0  0
  6  7  1  0  0  0  0
  8  5  1  0  0  0  0
  9  8  1  0  0  0  0
 10  4  1  0  0  0  0
 10  9  2  0  0  0  0
M  END
>  <CHROM.1>
19.60648892,-17.94530563,3.58387408,-3.00023405,0.52223704,1.63058785

>  <Name>
1y26_lig

>  <RI>
224

>  <Rbt.Current_Directory>
/home/afrankz/demos/rdock_decoys_rna/rnas/1y26

>  <Rbt.Executable>
rbdock ($Id: //depot/dev/client3/rdock/2013.1/src/exe/rbdock.cxx#4 $)

>  <Rbt.Library>
libRbt.so (2013.1, Build901 2013/11/27)

>  <Rbt.Parameter_File>
/export/apps/rDock/src/rDock_2013.1_src/data/scripts/dock_solv.prm

>  <Rbt.Receptor>
prm/pocket_docking_3.prm

>  <SCORE>
-22.4985

>  <SCORE.INTER>
-22.4985

>  <SCORE.INTER.CONST>
1

>  <SCORE.INTER.POLAR>
-2.32991

>  <SCORE.INTER.ROT>
0

>  <SCORE.INTER.SOLV>
11.7165

>  <SCORE.INTER.VDW>
-14.7381

>  <SCORE.INTER.norm>
-2.24985

>  <SCORE.INTRA>
0

>  <SCORE.INTRA.DIHEDRAL>
0

>  <SCORE.INTRA.DIHEDRAL.0>
0

>  <SCORE.INTRA.POLAR>
0

>  <SCORE.INTRA.POLAR.0>
0

>  <SCORE.INTRA.REPUL>
0

>  <SCORE.INTRA.REPUL.0>
0

>  <SCORE.INTRA.SOLV>
0

>  <SCORE.INTRA.SOLV.lig_0>
-16.9472

>  <SCORE.INTRA.VDW>
0

>  <SCORE.INTRA.VDW.0>
0

>  <SCORE.INTRA.norm>
0

>  <SCORE.RESTR>
0

>  <SCORE.RESTR.CAVITY>
0

>  <SCORE.RESTR.norm>
0

>  <SCORE.SYSTEM>
0

>  <SCORE.SYSTEM.CONST>
0

>  <SCORE.SYSTEM.DIHEDRAL>
0

>  <SCORE.SYSTEM.SOLV>
0

>  <SCORE.SYSTEM.norm>
0

>  <SCORE.heavy>
10

>  <SCORE.norm>
-2.24985

>  <RMSD>
2.743

$$$$
1y26_lig
 OpenBabel02141814133D
libRbt.so/2013.1/901 2013/11/27
 10 11  0  0  0  0  0  0  0  0999 V2000
   17.8929  -18.8563    3.0048 N   0  0  0  0  0  0  0  0  0  0  0  0
   18.4599  -18.4696    1.8593 C   0  0  0  0  0  0  0  0  0  0  0  0
   19.5873  -17.7828    1.6857 N   0  0  0  0  0  0  0  0  0  0  0  0
   20.1724  -17.5093    2.8736 C   0  0  0  0  0  0  0  0  0  0  0  0
   19.7107  -17.8548    4.1281 C   0  0  0  0  0  0  0  0  0  0  0  0
   18.5049  -18.5610    4.1703 C   0  0  0  0  0  0  0  0  0  0  0  0
   17.9608  -18.9290    5.3191 N   0  0  0  0  0  0  0  0  0  0  0  0
   20.5418  -17.4131    5.1314 N   0  0  0  0  0  0  0  0  0  0  0  0
   21.5199  -16.8286    4.4643 C   0  0  0  0  0  0  0  0  0  0  0  0
   21.3478  -16.8429    3.0969 N   0  0  0  0  0  0  0  0  0  0  0  0
  1  2  2  0  0  0  0
  2  3  1  0  0  0  0
  3  4  2  0  0  0  0
  5  4  1  0  0  0  0
  5  6  2  0  0  0  0
  6  1  1  0  0  0  0
  6  7  1  0  0  0  0
  8  5  1  0  0  0  0
  9  8  1  0  0  0  0
 10  4  1  0  0  0  0
 10  9  2  0  0  0  0
M  END
>  <CHROM.1>
19.56843171,-17.90537347,3.57267359,-2.99980311,0.52699333,1.62386702

>  <Name>
1y26_lig

>  <RI>
224

>  <Rbt.Current_Directory>
/home/afrankz/demos/rdock_decoys_rna/rnas/1y26

>  <Rbt.Executable>
rbdock ($Id: //depot/dev/client3/rdock/2013.1/src/exe/rbdock.cxx#4 $)

>  <Rbt.Library>
libRbt.so (2013.1, Build901 2013/11/27)

>  <Rbt.Parameter_File>
/export/apps/rDock/src/rDock_2013.1_src/data/scripts/dock_solv.prm

>  <Rbt.Receptor>
prm/pocket_docking_6.prm

>  <SCORE>
-22.5264

>  <SCORE.INTER>
-22.5264

>  <SCORE.INTER.CONST>
1

>  <SCORE.INTER.POLAR>
-2.30236

>  <SCORE.INTER.ROT>
0

>  <SCORE.INTER.SOLV>
11.7327

>  <SCORE.INTER.VDW>
-14.854

>  <SCORE.INTER.norm>
-2.25264

>  <SCORE.INTRA>
0

>  <SCORE.INTRA.DIHEDRAL>
0

>  <SCORE.INTRA.DIHEDRAL.0>
0

>  <SCORE.INTRA.POLAR>
0

>  <SCORE.INTRA.POLAR.0>
0

>  <SCORE.INTRA.REPUL>
0

>  <SCORE.INTRA.REPUL.0>
0

>  <SCORE.INTRA.SOLV>
0

>  <SCORE.INTRA.SOLV.lig_0>
-16.9472

>  <SCORE.INTRA.VDW>
0

>  <SCORE.INTRA.VDW.0>
0

>  <SCORE.INTRA.norm>
0

>  <SCORE.RESTR>
0

>  <SCORE.RESTR.CAVITY>
0

>  <SCORE.RESTR.norm>
0

>  <SCORE.SYSTEM>
0

>  <SCORE.SYSTEM.CONST>
0

>  <SCORE.SYSTEM.DIHEDRAL>
0

>  <SCORE.SYSTEM.SOLV>
0

>  <SCORE.SYSTEM.norm>
0

>  <SCORE.heavy>
10

>  <SCORE.norm>
-2.25264

>  <RMSD>
2.743

$$$$
1y26_lig
 OpenBabel02141814133D
libRbt.so/2013.1/901 2013/11/27
 10 11  0  0  0  0  0  0  0  0999 V2000
   17.8981  -18.8596    3.0050 N   0  0  0  0  0  0  0  0  0  0  0  0
   18.4625  -18.4673    1.8601 C   0  0  0  0  0  0  0  0  0  0  0  0
   19.5886  -17.7781    1.6872 N   0  0  0  0  0  0  0  0  0  0  0  0
   20.1755  -17.5088    2.8752 C   0  0  0  0  0  0  0  0  0  0  0  0
   19.7167  -17.8601    4.1291 C   0  0  0  0  0  0  0  0  0  0  0  0
   18.5120  -18.5684    4.1705 C   0  0  0  0  0  0  0  0  0  0  0  0
   17.9706  -18.9419    5.3188 N   0  0  0  0  0  0  0  0  0  0  0  0
   20.5490  -17.4215    5.1326 N   0  0  0  0  0  0  0  0  0  0  0  0
   21.5250  -16.8328    4.4661 C   0  0  0  0  0  0  0  0  0  0  0  0
   21.3503  -16.8416    3.0990 N   0  0  0  0  0  0  0  0  0  0  0  0
  1  2  2  0  0  0  0
  2  3  1  0  0  0  0
  3  4  2  0  0  0  0
  5  4  1  0  0  0  0
  5  6  2  0  0  0  0
  6  1  1  0  0  0  0
  6  7  1  0  0  0  0
  8  5  1  0  0  0  0
  9  8  1  0  0  0  0
 10  4  1  0  0  0  0
 10  9  2  0  0  0  0
M  END
>  <CHROM.1>
19.57340006,-17.90864259,3.57368694,-3.00206808,0.52834827,1.62919558

>  <Name>
1y26_lig

>  <RI>
0

>  <Rbt.Current_Directory>
/home/afrankz/demos/rdock_decoys_rna/rnas/1y26

>  <Rbt.Executable>
rbdock ($Id: //depot/dev/client3/rdock/2013.1/src/exe/rbdock.cxx#4 $)

>  <Rbt.Library>
libRbt.so (2013.1, Build901 2013/11/27)

>  <Rbt.Parameter_File>
/export/apps/rDock/src/rDock_2013.1_src/data/scripts/dock_solv.prm

>  <Rbt.Receptor>
prm/blind_docking_100.prm

>  <SCORE>
-22.4934

>  <SCORE.INTER>
-22.4934

>  <SCORE.INTER.CONST>
1

>  <SCORE.INTER.POLAR>
-2.30365

>  <SCORE.INTER.ROT>
0

>  <SCORE.INTER.SOLV>
11.7265

>  <SCORE.INTER.VDW>
-14.8256

>  <SCORE.INTER.norm>
-2.24934

>  <SCORE.INTRA>
0

>  <SCORE.INTRA.DIHEDRAL>
0

>  <SCORE.INTRA.DIHEDRAL.0>
0

>  <SCORE.INTRA.POLAR>
0

>  <SCORE.INTRA.POLAR.0>
0

>  <SCORE.INTRA.REPUL>
0

>  <SCORE.INTRA.REPUL.0>
0

>  <SCORE.INTRA.SOLV>
0

>  <SCORE.INTRA.SOLV.lig_0>
-16.9472

>  <SCORE.INTRA.VDW>
0

>  <SCORE.INTRA.VDW.0>
0

>  <SCORE.INTRA.norm>
0

>  <SCORE.RESTR>
0

>  <SCORE.RESTR.CAVITY>
0

>  <SCORE.RESTR.norm>
0

>  <SCORE.SYSTEM>
0

>  <SCORE.SYSTEM.CONST>
0

>  <SCORE.SYSTEM.DIHEDRAL>
0

>  <SCORE.SYSTEM.SOLV>
0

>  <SCORE.SYSTEM.norm>
0

>  <SCORE.heavy>
10

>  <SCORE.norm>
-2.24934

>  <RMSD>
2.744

$$$$
1y26_lig
 OpenBabel02141814133D
libRbt.so/2013.1/901 2013/11/27
 10 11  0  0  0  0  0  0  0  0999 V2000
   17.8976  -18.8727    3.0100 N   0  0  0  0  0  0  0  0  0  0  0  0
   18.4577  -18.4749    1.8650 C   0  0  0  0  0  0  0  0  0  0  0  0
   19.5845  -17.7870    1.6912 N   0  0  0  0  0  0  0  0  0  0  0  0
   20.1771  -17.5258    2.8781 C   0  0  0  0  0  0  0  0  0  0  0  0
   19.7230  -17.8835    4.1320 C   0  0  0  0  0  0  0  0  0  0  0  0
   18.5171  -18.5895    4.1746 C   0  0  0  0  0  0  0  0  0  0  0  0
   17.9799  -18.9686    5.3230 N   0  0  0  0  0  0  0  0  0  0  0  0
   20.5606  -17.4524    5.1344 N   0  0  0  0  0  0  0  0  0  0  0  0
   21.5349  -16.8618    4.4671 C   0  0  0  0  0  0  0  0  0  0  0  0
   21.3543  -16.8624    3.1008 N   0  0  0  0  0  0  0  0  0  0  0  0
  1  2  2  0  0  0  0
  2  3  1  0  0  0  0
  3  4  2  0  0  0  0
  5  4  1  0  0  0  0
  5  6  2  0  0  0  0
  6  1  1  0  0  0  0
  6  7  1  0  0  0  0
  8  5  1  0  0  0  0
  9  8  1  0  0  0  0
 10  4  1  0  0  0  0
 10  9  2  0  0  0  0
M  END
>  <CHROM.1>
19.57723959,-17.92850651,3.57695653,-3.00695592,0.52602631,1.63747418

>  <Name>
1y26_lig

>  <RI>
0

>  <Rbt.Current_Directory>
/home/afrankz/demos/rdock_decoys_rna/rnas/1y26

>  <Rbt.Executable>
rbdock ($Id: //depot/dev/client3/rdock/2013.1/src/exe/rbdock.cxx#4 $)

>  <Rbt.Library>
libRbt.so (2013.1, Build901 2013/11/27)

>  <Rbt.Parameter_File>
/export/apps/rDock/src/rDock_2013.1_src/data/scripts/dock_solv.prm

>  <Rbt.Receptor>
prm/blind_docking_100.prm

>  <SCORE>
-22.4885

>  <SCORE.INTER>
-22.4885

>  <SCORE.INTER.CONST>
1

>  <SCORE.INTER.POLAR>
-2.31453

>  <SCORE.INTER.ROT>
0

>  <SCORE.INTER.SOLV>
11.73

>  <SCORE.INTER.VDW>
-14.7873

>  <SCORE.INTER.norm>
-2.24885

>  <SCORE.INTRA>
0

>  <SCORE.INTRA.DIHEDRAL>
0

>  <SCORE.INTRA.DIHEDRAL.0>
0

>  <SCORE.INTRA.POLAR>
0

>  <SCORE.INTRA.POLAR.0>
0

>  <SCORE.INTRA.REPUL>
0

>  <SCORE.INTRA.REPUL.0>
0

>  <SCORE.INTRA.SOLV>
0

>  <SCORE.INTRA.SOLV.lig_0>
-16.9472

>  <SCORE.INTRA.VDW>
0

>  <SCORE.INTRA.VDW.0>
0

>  <SCORE.INTRA.norm>
0

>  <SCORE.RESTR>
0

>  <SCORE.RESTR.CAVITY>
0

>  <SCORE.RESTR.norm>
0

>  <SCORE.SYSTEM>
0

>  <SCORE.SYSTEM.CONST>
0

>  <SCORE.SYSTEM.DIHEDRAL>
0

>  <SCORE.SYSTEM.SOLV>
0

>  <SCORE.SYSTEM.norm>
0

>  <SCORE.heavy>
10

>  <SCORE.norm>
-2.24885

>  <RMSD>
2.744

$$$$
1y26_lig
 OpenBabel02141814133D
libRbt.so/2013.1/901 2013/11/27
 10 11  0  0  0  0  0  0  0  0999 V2000
   17.9299  -18.8637    3.0160 N   0  0  0  0  0  0  0  0  0  0  0  0
   18.5025  -18.4840    1.8709 C   0  0  0  0  0  0  0  0  0  0  0  0
   19.6259  -17.7903    1.6987 N   0  0  0  0  0  0  0  0  0  0  0  0
   20.2000  -17.5005    2.8881 C   0  0  0  0  0  0  0  0  0  0  0  0
   19.7316  -17.8370    4.1426 C   0  0  0  0  0  0  0  0  0  0  0  0
   18.5310  -18.5521    4.1829 C   0  0  0  0  0  0  0  0  0  0  0  0
   17.9812  -18.9128    5.3313 N   0  0  0  0  0  0  0  0  0  0  0  0
   20.5518  -17.3789    5.1474 N   0  0  0  0  0  0  0  0  0  0  0  0
   21.5304  -16.7935    4.4817 C   0  0  0  0  0  0  0  0  0  0  0  0
   21.3685  -16.8228    3.1133 N   0  0  0  0  0  0  0  0  0  0  0  0
  1  2  2  0  0  0  0
  2  3  1  0  0  0  0
  3  4  2  0  0  0  0
  5  4  1  0  0  0  0
  5  6  2  0  0  0  0
  6  1  1  0  0  0  0
  6  7  1  0  0  0  0
  8  5  1  0  0  0  0
  9  8  1  0  0  0  0
 10  4  1  0  0  0  0
 10  9  2  0  0  0  0
M  END
>  <CHROM.1>
19.59385876,-17.89421722,3.58660573,-2.99163438,0.53504659,1.60972456

>  <Name>
1y26_lig

>  <RI>
0

>  <Rbt.Current_Directory>
/home/afrankz/demos/rdock_decoys_rna/rnas/1y26

>  <Rbt.Executable>
rbdock ($Id: //depot/dev/client3/rdock/2013.1/src/exe/rbdock.cxx#4 $)

>  <Rbt.Library>
libRbt.so (2013.1, Build901 2013/11/27)

>  <Rbt.Parameter_File>
/export/apps/rDock/src/rDock_2013.1_src/data/scripts/dock_solv.prm

>  <Rbt.Receptor>
prm/blind_docking_100.prm

>  <SCORE>
-22.4376

>  <SCORE.INTER>
-22.4376

>  <SCORE.INTER.CONST>
1

>  <SCORE.INTER.POLAR>
-2.29556

>  <SCORE.INTER.ROT>
0

>  <SCORE.INTER.SOLV>
11.6938

>  <SCORE.INTER.VDW>
-14.8045

>  <SCORE.INTER.norm>
-2.24376

>  <SCORE.INTRA>
0

>  <SCORE.INTRA.DIHEDRAL>
0

>  <SCORE.INTRA.DIHEDRAL.0>
0

>  <SCORE.INTRA.POLAR>
0

>  <SCORE.INTRA.POLAR.0>
0

>  <SCORE.INTRA.REPUL>
0

>  <SCORE.INTRA.REPUL.0>
0

>  <SCORE.INTRA.SOLV>
0

>  <SCORE.INTRA.SOLV.lig_0>
-16.9472

>  <SCORE.INTRA.VDW>
0

>  <SCORE.INTRA.VDW.0>
0

>  <SCORE.INTRA.norm>
0

>  <SCORE.RESTR>
0

>  <SCORE.RESTR.CAVITY>
0

>  <SCORE.RESTR.norm>
0

>  <SCORE.SYSTEM>
0

>  <SCORE.SYSTEM.CONST>
0

>  <SCORE.SYSTEM.DIHEDRAL>
0

>  <SCORE.SYSTEM.SOLV>
0

>  <SCORE.SYSTEM.norm>
0

>  <SCORE.heavy>
10

>  <SCORE.norm>
-2.24376

>  <RMSD>
2.744

$$$$
1y26_lig
 OpenBabel02141814133D
libRbt.so/2013.1/901 2013/11/27
 10 11  0  0  0  0  0  0  0  0999 V2000
   17.8975  -18.8558    3.0014 N   0  0  0  0  0  0  0  0  0  0  0  0
   18.4639  -18.4655    1.8568 C   0  0  0  0  0  0  0  0  0  0  0  0
   19.5902  -17.7765    1.6848 N   0  0  0  0  0  0  0  0  0  0  0  0
   20.1748  -17.5049    2.8734 C   0  0  0  0  0  0  0  0  0  0  0  0
   19.7137  -17.8540    4.1271 C   0  0  0  0  0  0  0  0  0  0  0  0
   18.5090  -18.5623    4.1676 C   0  0  0  0  0  0  0  0  0  0  0  0
   17.9655  -18.9338    5.3155 N   0  0  0  0  0  0  0  0  0  0  0  0
   20.5441  -17.4134    5.1314 N   0  0  0  0  0  0  0  0  0  0  0  0
   21.5213  -16.8258    4.4656 C   0  0  0  0  0  0  0  0  0  0  0  0
   21.3492  -16.8372    3.0983 N   0  0  0  0  0  0  0  0  0  0  0  0
  1  2  2  0  0  0  0
  2  3  1  0  0  0  0
  3  4  2  0  0  0  0
  5  4  1  0  0  0  0
  5  6  2  0  0  0  0
  6  1  1  0  0  0  0
  6  7  1  0  0  0  0
  8  5  1  0  0  0  0
  9  8  1  0  0  0  0
 10  4  1  0  0  0  0
 10  9  2  0  0  0  0
M  END
>  <CHROM.1>
19.57149740,-17.90356461,3.57150683,-2.99988263,0.52859703,1.62624867

>  <Name>
1y26_lig

>  <RI>
0

>  <Rbt.Current_Directory>
/home/afrankz/demos/rdock_decoys_rna/rnas/1y26

>  <Rbt.Executable>
rbdock ($Id: //depot/dev/client3/rdock/2013.1/src/exe/rbdock.cxx#4 $)

>  <Rbt.Library>
libRbt.so (2013.1, Build901 2013/11/27)

>  <Rbt.Parameter_File>
/export/apps/rDock/src/rDock_2013.1_src/data/scripts/dock_solv.prm

>  <Rbt.Receptor>
prm/blind_docking_40.prm

>  <SCORE>
-22.5202

>  <SCORE.INTER>
-22.5202

>  <SCORE.INTER.CONST>
1

>  <SCORE.INTER.POLAR>
-2.30027

>  <SCORE.INTER.ROT>
0

>  <SCORE.INTER.SOLV>
11.7301

>  <SCORE.INTER.VDW>
-14.8559

>  <SCORE.INTER.norm>
-2.25202

>  <SCORE.INTRA>
0

>  <SCORE.INTRA.DIHEDRAL>
0

>  <SCORE.INTRA.DIHEDRAL.0>
0

>  <SCORE.INTRA.POLAR>
0

>  <SCORE.INTRA.POLAR.0>
0

>  <SCORE.INTRA.REPUL>
0

>  <SCORE.INTRA.REPUL.0>
0

>  <SCORE.INTRA.SOLV>
0

>  <SCORE.INTRA.SOLV.lig_0>
-16.9472

>  <SCORE.INTRA.VDW>
0

>  <SCORE.INTRA.VDW.0>
0

>  <SCORE.INTRA.norm>
0

>  <SCORE.RESTR>
0

>  <SCORE.RESTR.CAVITY>
0

>  <SCORE.RESTR.norm>
0

>  <SCORE.SYSTEM>
0

>  <SCORE.SYSTEM.CONST>
0

>  <SCORE.SYSTEM.DIHEDRAL>
0

>  <SCORE.SYSTEM.SOLV>
0

>  <SCORE.SYSTEM.norm>
0

>  <SCORE.heavy>
10

>  <SCORE.norm>
-2.25202

>  <RMSD>
2.744

$$$$
1y26_lig
 OpenBabel02141814133D
libRbt.so/2013.1/901 2013/11/27
 10 11  0  0  0  0  0  0  0  0999 V2000
   17.9640  -18.8958    2.9790 N   0  0  0  0  0  0  0  0  0  0  0  0
   18.5455  -18.4937    1.8462 C   0  0  0  0  0  0  0  0  0  0  0  0
   19.6728  -17.8013    1.6963 N   0  0  0  0  0  0  0  0  0  0  0  0
   20.2405  -17.5400    2.8954 C   0  0  0  0  0  0  0  0  0  0  0  0
   19.7628  -17.9018    4.1392 C   0  0  0  0  0  0  0  0  0  0  0  0
   18.5589  -18.6125    4.1563 C   0  0  0  0  0  0  0  0  0  0  0  0
   18.0003  -18.9958    5.2930 N   0  0  0  0  0  0  0  0  0  0  0  0
   20.5784  -17.4694    5.1590 N   0  0  0  0  0  0  0  0  0  0  0  0
   21.5637  -16.8739    4.5125 C   0  0  0  0  0  0  0  0  0  0  0  0
   21.4104  -16.8726    3.1428 N   0  0  0  0  0  0  0  0  0  0  0  0
  1  2  2  0  0  0  0
  2  3  1  0  0  0  0
  3  4  2  0  0  0  0
  5  4  1  0  0  0  0
  5  6  2  0  0  0  0
  6  1  1  0  0  0  0
  6  7  1  0  0  0  0
  8  5  1  0  0  0  0
  9  8  1  0  0  0  0
 10  4  1  0  0  0  0
 10  9  2  0  0  0  0
M  END
>  <CHROM.1>
19.62830989,-17.94631683,3.58127660,-2.98402477,0.53107381,1.62775110

>  <Name>
1y26_lig

>  <RI>
0

>  <Rbt.Current_Directory>
/home/afrankz/demos/rdock_decoys_rna/rnas/1y26

>  <Rbt.Executable>
rbdock ($Id: //depot/dev/client3/rdock/2013.1/src/exe/rbdock.cxx#4 $)

>  <Rbt.Library>
libRbt.so (2013.1, Build901 2013/11/27)

>  <Rbt.Parameter_File>
/export/apps/rDock/src/rDock_2013.1_src/data/scripts/dock_solv.prm

>  <Rbt.Receptor>
prm/pocket_docking_4.prm

>  <SCORE>
-22.5313

>  <SCORE.INTER>
-22.5313

>  <SCORE.INTER.CONST>
1

>  <SCORE.INTER.POLAR>
-2.32388

>  <SCORE.INTER.ROT>
0

>  <SCORE.INTER.SOLV>
11.7407

>  <SCORE.INTER.VDW>
-14.7882

>  <SCORE.INTER.norm>
-2.25313

>  <SCORE.INTRA>
0

>  <SCORE.INTRA.DIHEDRAL>
0

>  <SCORE.INTRA.DIHEDRAL.0>
0

>  <SCORE.INTRA.POLAR>
0

>  <SCORE.INTRA.POLAR.0>
0

>  <SCORE.INTRA.REPUL>
0

>  <SCORE.INTRA.REPUL.0>
0

>  <SCORE.INTRA.SOLV>
0

>  <SCORE.INTRA.SOLV.lig_0>
-16.9472

>  <SCORE.INTRA.VDW>
0

>  <SCORE.INTRA.VDW.0>
0

>  <SCORE.INTRA.norm>
0

>  <SCORE.RESTR>
0

>  <SCORE.RESTR.CAVITY>
0

>  <SCORE.RESTR.norm>
0

>  <SCORE.SYSTEM>
0

>  <SCORE.SYSTEM.CONST>
0

>  <SCORE.SYSTEM.DIHEDRAL>
0

>  <SCORE.SYSTEM.SOLV>
0

>  <SCORE.SYSTEM.norm>
0

>  <SCORE.heavy>
10

>  <SCORE.norm>
-2.25313

>  <RMSD>
2.744

$$$$
1y26_lig
 OpenBabel02141814133D
libRbt.so/2013.1/901 2013/11/27
 10 11  0  0  0  0  0  0  0  0999 V2000
   17.9626  -18.8898    2.9775 N   0  0  0  0  0  0  0  0  0  0  0  0
   18.5432  -18.4872    1.8444 C   0  0  0  0  0  0  0  0  0  0  0  0
   19.6712  -17.7959    1.6939 N   0  0  0  0  0  0  0  0  0  0  0  0
   20.2406  -17.5365    2.8925 C   0  0  0  0  0  0  0  0  0  0  0  0
   19.7639  -17.8990    4.1365 C   0  0  0  0  0  0  0  0  0  0  0  0
   18.5593  -18.6083    4.1543 C   0  0  0  0  0  0  0  0  0  0  0  0
   18.0015  -18.9920    5.2913 N   0  0  0  0  0  0  0  0  0  0  0  0
   20.5813  -17.4686    5.1558 N   0  0  0  0  0  0  0  0  0  0  0  0
   21.5665  -16.8735    4.5087 C   0  0  0  0  0  0  0  0  0  0  0  0
   21.4116  -16.8706    3.1392 N   0  0  0  0  0  0  0  0  0  0  0  0
  1  2  2  0  0  0  0
  2  3  1  0  0  0  0
  3  4  2  0  0  0  0
  5  4  1  0  0  0  0
  5  6  2  0  0  0  0
  6  1  1  0  0  0  0
  6  7  1  0  0  0  0
  8  5  1  0  0  0  0
  9  8  1  0  0  0  0
 10  4  1  0  0  0  0
 10  9  2  0  0  0  0
M  END
>  <CHROM.1>
19.62876735,-17.94276395,3.57871772,-2.98532125,0.52984516,1.62941541

>  <Name>
1y26_lig

>  <RI>
224

>  <Rbt.Current_Directory>
/home/afrankz/demos/rdock_decoys_rna/rnas/1y26

>  <Rbt.Executable>
rbdock ($Id: //depot/dev/client3/rdock/2013.1/src/exe/rbdock.cxx#4 $)

>  <Rbt.Library>
libRbt.so (2013.1, Build901 2013/11/27)

>  <Rbt.Parameter_File>
/export/apps/rDock/src/rDock_2013.1_src/data/scripts/dock_solv.prm

>  <Rbt.Receptor>
prm/pocket_docking_6.prm

>  <SCORE>
-22.5276

>  <SCORE.INTER>
-22.5276

>  <SCORE.INTER.CONST>
1

>  <SCORE.INTER.POLAR>
-2.32252

>  <SCORE.INTER.ROT>
0

>  <SCORE.INTER.SOLV>
11.7388

>  <SCORE.INTER.VDW>
-14.7896

>  <SCORE.INTER.norm>
-2.25276

>  <SCORE.INTRA>
0

>  <SCORE.INTRA.DIHEDRAL>
0

>  <SCORE.INTRA.DIHEDRAL.0>
0

>  <SCORE.INTRA.POLAR>
0

>  <SCORE.INTRA.POLAR.0>
0

>  <SCORE.INTRA.REPUL>
0

>  <SCORE.INTRA.REPUL.0>
0

>  <SCORE.INTRA.SOLV>
0

>  <SCORE.INTRA.SOLV.lig_0>
-16.9472

>  <SCORE.INTRA.VDW>
0

>  <SCORE.INTRA.VDW.0>
0

>  <SCORE.INTRA.norm>
0

>  <SCORE.RESTR>
0

>  <SCORE.RESTR.CAVITY>
0

>  <SCORE.RESTR.norm>
0

>  <SCORE.SYSTEM>
0

>  <SCORE.SYSTEM.CONST>
0

>  <SCORE.SYSTEM.DIHEDRAL>
0

>  <SCORE.SYSTEM.SOLV>
0

>  <SCORE.SYSTEM.norm>
0

>  <SCORE.heavy>
10

>  <SCORE.norm>
-2.25276

>  <RMSD>
2.744

$$$$
1y26_lig
 OpenBabel02141814133D
libRbt.so/2013.1/901 2013/11/27
 10 11  0  0  0  0  0  0  0  0999 V2000
   17.9632  -18.8856    3.0303 N   0  0  0  0  0  0  0  0  0  0  0  0
   18.5298  -18.4967    1.8854 C   0  0  0  0  0  0  0  0  0  0  0  0
   19.6593  -17.8131    1.7124 N   0  0  0  0  0  0  0  0  0  0  0  0
   20.2471  -17.5459    2.9004 C   0  0  0  0  0  0  0  0  0  0  0  0
   19.7861  -17.8942    4.1544 C   0  0  0  0  0  0  0  0  0  0  0  0
   18.5780  -18.5965    4.1959 C   0  0  0  0  0  0  0  0  0  0  0  0
   18.0345  -18.9667    5.3442 N   0  0  0  0  0  0  0  0  0  0  0  0
   20.6203  -17.4589    5.1579 N   0  0  0  0  0  0  0  0  0  0  0  0
   21.5993  -16.8753    4.4913 C   0  0  0  0  0  0  0  0  0  0  0  0
   21.4250  -16.8843    3.1242 N   0  0  0  0  0  0  0  0  0  0  0  0
  1  2  2  0  0  0  0
  2  3  1  0  0  0  0
  3  4  2  0  0  0  0
  5  4  1  0  0  0  0
  5  6  2  0  0  0  0
  6  1  1  0  0  0  0
  6  7  1  0  0  0  0
  8  5  1  0  0  0  0
  9  8  1  0  0  0  0
 10  4  1  0  0  0  0
 10  9  2  0  0  0  0
M  END
>  <CHROM.1>
19.64282829,-17.94234052,3.59897105,-3.00136189,0.52353308,1.62818440

>  <Name>
1y26_lig

>  <RI>
224

>  <Rbt.Current_Directory>
/home/afrankz/demos/rdock_decoys_rna/rnas/1y26

>  <Rbt.Executable>
rbdock ($Id: //depot/dev/client3/rdock/2013.1/src/exe/rbdock.cxx#4 $)

>  <Rbt.Library>
libRbt.so (2013.1, Build901 2013/11/27)

>  <Rbt.Parameter_File>
/export/apps/rDock/src/rDock_2013.1_src/data/scripts/dock_solv.prm

>  <Rbt.Receptor>
prm/pocket_docking_7.prm

>  <SCORE>
-22.5152

>  <SCORE.INTER>
-22.5152

>  <SCORE.INTER.CONST>
1

>  <SCORE.INTER.POLAR>
-2.33

>  <SCORE.INTER.ROT>
0

>  <SCORE.INTER.SOLV>
11.6638

>  <SCORE.INTER.VDW>
-14.7314

>  <SCORE.INTER.norm>
-2.25152

>  <SCORE.INTRA>
0

>  <SCORE.INTRA.DIHEDRAL>
0

>  <SCORE.INTRA.DIHEDRAL.0>
0

>  <SCORE.INTRA.POLAR>
0

>  <SCORE.INTRA.POLAR.0>
0

>  <SCORE.INTRA.REPUL>
0

>  <SCORE.INTRA.REPUL.0>
0

>  <SCORE.INTRA.SOLV>
0

>  <SCORE.INTRA.SOLV.lig_0>
-16.9472

>  <SCORE.INTRA.VDW>
0

>  <SCORE.INTRA.VDW.0>
0

>  <SCORE.INTRA.norm>
0

>  <SCORE.RESTR>
0

>  <SCORE.RESTR.CAVITY>
0

>  <SCORE.RESTR.norm>
0

>  <SCORE.SYSTEM>
0

>  <SCORE.SYSTEM.CONST>
0

>  <SCORE.SYSTEM.DIHEDRAL>
0

>  <SCORE.SYSTEM.SOLV>
0

>  <SCORE.SYSTEM.norm>
0

>  <SCORE.heavy>
10

>  <SCORE.norm>
-2.25152

>  <RMSD>
2.744

$$$$
1y26_lig
 OpenBabel02141814133D
libRbt.so/2013.1/901 2013/11/27
 10 11  0  0  0  0  0  0  0  0999 V2000
   17.8991  -18.8759    3.0197 N   0  0  0  0  0  0  0  0  0  0  0  0
   18.4579  -18.4847    1.8717 C   0  0  0  0  0  0  0  0  0  0  0  0
   19.5813  -17.7926    1.6929 N   0  0  0  0  0  0  0  0  0  0  0  0
   20.1718  -17.5185    2.8780 C   0  0  0  0  0  0  0  0  0  0  0  0
   19.7187  -17.8681    4.1345 C   0  0  0  0  0  0  0  0  0  0  0  0
   18.5164  -18.5798    4.1822 C   0  0  0  0  0  0  0  0  0  0  0  0
   17.9804  -18.9521    5.3334 N   0  0  0  0  0  0  0  0  0  0  0  0
   20.5534  -17.4243    5.1338 N   0  0  0  0  0  0  0  0  0  0  0  0
   21.5251  -16.8343    4.4622 C   0  0  0  0  0  0  0  0  0  0  0  0
   21.3454  -16.8472    3.0958 N   0  0  0  0  0  0  0  0  0  0  0  0
  1  2  2  0  0  0  0
  2  3  1  0  0  0  0
  3  4  2  0  0  0  0
  5  4  1  0  0  0  0
  5  6  2  0  0  0  0
  6  1  1  0  0  0  0
  6  7  1  0  0  0  0
  8  5  1  0  0  0  0
  9  8  1  0  0  0  0
 10  4  1  0  0  0  0
 10  9  2  0  0  0  0
M  END
>  <CHROM.1>
19.57352107,-17.91839394,3.57975777,-3.00657579,0.53117727,1.62895464

>  <Name>
1y26_lig

>  <RI>
0

>  <Rbt.Current_Directory>
/home/afrankz/demos/rdock_decoys_rna/rnas/1y26

>  <Rbt.Executable>
rbdock ($Id: //depot/dev/client3/rdock/2013.1/src/exe/rbdock.cxx#4 $)

>  <Rbt.Library>
libRbt.so (2013.1, Build901 2013/11/27)

>  <Rbt.Parameter_File>
/export/apps/rDock/src/rDock_2013.1_src/data/scripts/dock_solv.prm

>  <Rbt.Receptor>
prm/blind_docking_40.prm

>  <SCORE>
-22.4986

>  <SCORE.INTER>
-22.4986

>  <SCORE.INTER.CONST>
1

>  <SCORE.INTER.POLAR>
-2.30595

>  <SCORE.INTER.ROT>
0

>  <SCORE.INTER.SOLV>
11.7145

>  <SCORE.INTER.VDW>
-14.8174

>  <SCORE.INTER.norm>
-2.24986

>  <SCORE.INTRA>
0

>  <SCORE.INTRA.DIHEDRAL>
0

>  <SCORE.INTRA.DIHEDRAL.0>
0

>  <SCORE.INTRA.POLAR>
0

>  <SCORE.INTRA.POLAR.0>
0

>  <SCORE.INTRA.REPUL>
0

>  <SCORE.INTRA.REPUL.0>
0

>  <SCORE.INTRA.SOLV>
0

>  <SCORE.INTRA.SOLV.lig_0>
-16.9472

>  <SCORE.INTRA.VDW>
0

>  <SCORE.INTRA.VDW.0>
0

>  <SCORE.INTRA.norm>
0

>  <SCORE.RESTR>
0

>  <SCORE.RESTR.CAVITY>
0

>  <SCORE.RESTR.norm>
0

>  <SCORE.SYSTEM>
0

>  <SCORE.SYSTEM.CONST>
0

>  <SCORE.SYSTEM.DIHEDRAL>
0

>  <SCORE.SYSTEM.SOLV>
0

>  <SCORE.SYSTEM.norm>
0

>  <SCORE.heavy>
10

>  <SCORE.norm>
-2.24986

>  <RMSD>
2.745

$$$$
1y26_lig
 OpenBabel02141814133D
libRbt.so/2013.1/901 2013/11/27
 10 11  0  0  0  0  0  0  0  0999 V2000
   17.9748  -18.9115    2.9899 N   0  0  0  0  0  0  0  0  0  0  0  0
   18.5540  -18.5119    1.8551 C   0  0  0  0  0  0  0  0  0  0  0  0
   19.6796  -17.8173    1.7015 N   0  0  0  0  0  0  0  0  0  0  0  0
   20.2480  -17.5506    2.8991 C   0  0  0  0  0  0  0  0  0  0  0  0
   19.7725  -17.9093    4.1447 C   0  0  0  0  0  0  0  0  0  0  0  0
   18.5703  -18.6227    4.1656 C   0  0  0  0  0  0  0  0  0  0  0  0
   18.0139  -19.0034    5.3042 N   0  0  0  0  0  0  0  0  0  0  0  0
   20.5883  -17.4715    5.1621 N   0  0  0  0  0  0  0  0  0  0  0  0
   21.5714  -16.8758    4.5123 C   0  0  0  0  0  0  0  0  0  0  0  0
   21.4166  -16.8795    3.1428 N   0  0  0  0  0  0  0  0  0  0  0  0
  1  2  2  0  0  0  0
  2  3  1  0  0  0  0
  3  4  2  0  0  0  0
  5  4  1  0  0  0  0
  5  6  2  0  0  0  0
  6  1  1  0  0  0  0
  6  7  1  0  0  0  0
  8  5  1  0  0  0  0
  9  8  1  0  0  0  0
 10  4  1  0  0  0  0
 10  9  2  0  0  0  0
M  END
>  <CHROM.1>
19.63751995,-17.95599667,3.58703412,-2.98549510,0.53337194,1.62508955

>  <Name>
1y26_lig

>  <RI>
0

>  <Rbt.Current_Directory>
/home/afrankz/demos/rdock_decoys_rna/rnas/1y26

>  <Rbt.Executable>
rbdock ($Id: //depot/dev/client3/rdock/2013.1/src/exe/rbdock.cxx#4 $)

>  <Rbt.Library>
libRbt.so (2013.1, Build901 2013/11/27)

>  <Rbt.Parameter_File>
/export/apps/rDock/src/rDock_2013.1_src/data/scripts/dock_solv.prm

>  <Rbt.Receptor>
prm/blind_docking_60.prm

>  <SCORE>
-22.5175

>  <SCORE.INTER>
-22.5175

>  <SCORE.INTER.CONST>
1

>  <SCORE.INTER.POLAR>
-2.32754

>  <SCORE.INTER.ROT>
0

>  <SCORE.INTER.SOLV>
11.7261

>  <SCORE.INTER.VDW>
-14.7619

>  <SCORE.INTER.norm>
-2.25175

>  <SCORE.INTRA>
0

>  <SCORE.INTRA.DIHEDRAL>
0

>  <SCORE.INTRA.DIHEDRAL.0>
0

>  <SCORE.INTRA.POLAR>
0

>  <SCORE.INTRA.POLAR.0>
0

>  <SCORE.INTRA.REPUL>
0

>  <SCORE.INTRA.REPUL.0>
0

>  <SCORE.INTRA.SOLV>
0

>  <SCORE.INTRA.SOLV.lig_0>
-16.9472

>  <SCORE.INTRA.VDW>
0

>  <SCORE.INTRA.VDW.0>
0

>  <SCORE.INTRA.norm>
0

>  <SCORE.RESTR>
0

>  <SCORE.RESTR.CAVITY>
0

>  <SCORE.RESTR.norm>
0

>  <SCORE.SYSTEM>
0

>  <SCORE.SYSTEM.CONST>
0

>  <SCORE.SYSTEM.DIHEDRAL>
0

>  <SCORE.SYSTEM.SOLV>
0

>  <SCORE.SYSTEM.norm>
0

>  <SCORE.heavy>
10

>  <SCORE.norm>
-2.25175

>  <RMSD>
2.745

$$$$
1y26_lig
 OpenBabel02141814133D
libRbt.so/2013.1/901 2013/11/27
 10 11  0  0  0  0  0  0  0  0999 V2000
   17.9674  -18.8914    2.9831 N   0  0  0  0  0  0  0  0  0  0  0  0
   18.5460  -18.4900    1.8486 C   0  0  0  0  0  0  0  0  0  0  0  0
   19.6735  -17.7985    1.6953 N   0  0  0  0  0  0  0  0  0  0  0  0
   20.2448  -17.5374    2.8927 C   0  0  0  0  0  0  0  0  0  0  0  0
   19.7702  -17.8986    4.1380 C   0  0  0  0  0  0  0  0  0  0  0  0
   18.5658  -18.6082    4.1586 C   0  0  0  0  0  0  0  0  0  0  0  0
   18.0101  -18.9908    5.2970 N   0  0  0  0  0  0  0  0  0  0  0  0
   20.5891  -17.4666    5.1554 N   0  0  0  0  0  0  0  0  0  0  0  0
   21.5730  -16.8720    4.5059 C   0  0  0  0  0  0  0  0  0  0  0  0
   21.4160  -16.8709    3.1367 N   0  0  0  0  0  0  0  0  0  0  0  0
  1  2  2  0  0  0  0
  2  3  1  0  0  0  0
  3  4  2  0  0  0  0
  5  4  1  0  0  0  0
  5  6  2  0  0  0  0
  6  1  1  0  0  0  0
  6  7  1  0  0  0  0
  8  5  1  0  0  0  0
  9  8  1  0  0  0  0
 10  4  1  0  0  0  0
 10  9  2  0  0  0  0
M  END
>  <CHROM.1>
19.63416982,-17.94306764,3.58045176,-2.98722051,0.53008485,1.62913767

>  <Name>
1y26_lig

>  <RI>
224

>  <Rbt.Current_Directory>
/home/afrankz/demos/rdock_decoys_rna/rnas/1y26

>  <Rbt.Executable>
rbdock ($Id: //depot/dev/client3/rdock/2013.1/src/exe/rbdock.cxx#4 $)

>  <Rbt.Library>
libRbt.so (2013.1, Build901 2013/11/27)

>  <Rbt.Parameter_File>
/export/apps/rDock/src/rDock_2013.1_src/data/scripts/dock_solv.prm

>  <Rbt.Receptor>
prm/blind_docking_80.prm

>  <SCORE>
-22.526

>  <SCORE.INTER>
-22.526

>  <SCORE.INTER.CONST>
1

>  <SCORE.INTER.POLAR>
-2.32306

>  <SCORE.INTER.ROT>
0

>  <SCORE.INTER.SOLV>
11.7272

>  <SCORE.INTER.VDW>
-14.7829

>  <SCORE.INTER.norm>
-2.2526

>  <SCORE.INTRA>
0

>  <SCORE.INTRA.DIHEDRAL>
0

>  <SCORE.INTRA.DIHEDRAL.0>
0

>  <SCORE.INTRA.POLAR>
0

>  <SCORE.INTRA.POLAR.0>
0

>  <SCORE.INTRA.REPUL>
0

>  <SCORE.INTRA.REPUL.0>
0

>  <SCORE.INTRA.SOLV>
0

>  <SCORE.INTRA.SOLV.lig_0>
-16.9472

>  <SCORE.INTRA.VDW>
0

>  <SCORE.INTRA.VDW.0>
0

>  <SCORE.INTRA.norm>
0

>  <SCORE.RESTR>
0

>  <SCORE.RESTR.CAVITY>
0

>  <SCORE.RESTR.norm>
0

>  <SCORE.SYSTEM>
0

>  <SCORE.SYSTEM.CONST>
0

>  <SCORE.SYSTEM.DIHEDRAL>
0

>  <SCORE.SYSTEM.SOLV>
0

>  <SCORE.SYSTEM.norm>
0

>  <SCORE.heavy>
10

>  <SCORE.norm>
-2.2526

>  <RMSD>
2.745

$$$$
1y26_lig
 OpenBabel02141814133D
libRbt.so/2013.1/901 2013/11/27
 10 11  0  0  0  0  0  0  0  0999 V2000
   17.9489  -18.8908    3.0526 N   0  0  0  0  0  0  0  0  0  0  0  0
   18.5049  -18.5023    1.9023 C   0  0  0  0  0  0  0  0  0  0  0  0
   19.6319  -17.8174    1.7188 N   0  0  0  0  0  0  0  0  0  0  0  0
   20.2297  -17.5481    2.9013 C   0  0  0  0  0  0  0  0  0  0  0  0
   19.7803  -17.8957    4.1596 C   0  0  0  0  0  0  0  0  0  0  0  0
   18.5736  -18.5997    4.2125 C   0  0  0  0  0  0  0  0  0  0  0  0
   18.0406  -18.9694    5.3659 N   0  0  0  0  0  0  0  0  0  0  0  0
   20.6226  -17.4583    5.1554 N   0  0  0  0  0  0  0  0  0  0  0  0
   21.5950  -16.8741    4.4796 C   0  0  0  0  0  0  0  0  0  0  0  0
   21.4087  -16.8847    3.1141 N   0  0  0  0  0  0  0  0  0  0  0  0
  1  2  2  0  0  0  0
  2  3  1  0  0  0  0
  3  4  2  0  0  0  0
  5  4  1  0  0  0  0
  5  6  2  0  0  0  0
  6  1  1  0  0  0  0
  6  7  1  0  0  0  0
  8  5  1  0  0  0  0
  9  8  1  0  0  0  0
 10  4  1  0  0  0  0
 10  9  2  0  0  0  0
M  END
>  <CHROM.1>
19.63219538,-17.94467549,3.60554559,-3.01156853,0.52437465,1.63226208

>  <Name>
1y26_lig

>  <RI>
0

>  <Rbt.Current_Directory>
/home/afrankz/demos/rdock_decoys_rna/rnas/1y26

>  <Rbt.Executable>
rbdock ($Id: //depot/dev/client3/rdock/2013.1/src/exe/rbdock.cxx#4 $)

>  <Rbt.Library>
libRbt.so (2013.1, Build901 2013/11/27)

>  <Rbt.Parameter_File>
/export/apps/rDock/src/rDock_2013.1_src/data/scripts/dock_solv.prm

>  <Rbt.Receptor>
prm/pocket_docking_5.prm

>  <SCORE>
-22.5073

>  <SCORE.INTER>
-22.5073

>  <SCORE.INTER.CONST>
1

>  <SCORE.INTER.POLAR>
-2.3291

>  <SCORE.INTER.ROT>
0

>  <SCORE.INTER.SOLV>
11.6488

>  <SCORE.INTER.VDW>
-14.7241

>  <SCORE.INTER.norm>
-2.25073

>  <SCORE.INTRA>
0

>  <SCORE.INTRA.DIHEDRAL>
0

>  <SCORE.INTRA.DIHEDRAL.0>
0

>  <SCORE.INTRA.POLAR>
0

>  <SCORE.INTRA.POLAR.0>
0

>  <SCORE.INTRA.REPUL>
0

>  <SCORE.INTRA.REPUL.0>
0

>  <SCORE.INTRA.SOLV>
0

>  <SCORE.INTRA.SOLV.lig_0>
-16.9472

>  <SCORE.INTRA.VDW>
0

>  <SCORE.INTRA.VDW.0>
0

>  <SCORE.INTRA.norm>
0

>  <SCORE.RESTR>
0

>  <SCORE.RESTR.CAVITY>
0

>  <SCORE.RESTR.norm>
0

>  <SCORE.SYSTEM>
0

>  <SCORE.SYSTEM.CONST>
0

>  <SCORE.SYSTEM.DIHEDRAL>
0

>  <SCORE.SYSTEM.SOLV>
0

>  <SCORE.SYSTEM.norm>
0

>  <SCORE.heavy>
10

>  <SCORE.norm>
-2.25073

>  <RMSD>
2.745

$$$$
1y26_lig
 OpenBabel02141814133D
libRbt.so/2013.1/901 2013/11/27
 10 11  0  0  0  0  0  0  0  0999 V2000
   17.9621  -18.8967    3.0393 N   0  0  0  0  0  0  0  0  0  0  0  0
   18.5236  -18.5067    1.8922 C   0  0  0  0  0  0  0  0  0  0  0  0
   19.6500  -17.8191    1.7152 N   0  0  0  0  0  0  0  0  0  0  0  0
   20.2407  -17.5488    2.9010 C   0  0  0  0  0  0  0  0  0  0  0  0
   19.7850  -17.8979    4.1568 C   0  0  0  0  0  0  0  0  0  0  0  0
   18.5796  -18.6046    4.2027 C   0  0  0  0  0  0  0  0  0  0  0  0
   18.0411  -18.9759    5.3530 N   0  0  0  0  0  0  0  0  0  0  0  0
   20.6207  -17.4588    5.1573 N   0  0  0  0  0  0  0  0  0  0  0  0
   21.5956  -16.8722    4.4872 C   0  0  0  0  0  0  0  0  0  0  0  0
   21.4169  -16.8827    3.1206 N   0  0  0  0  0  0  0  0  0  0  0  0
  1  2  2  0  0  0  0
  2  3  1  0  0  0  0
  3  4  2  0  0  0  0
  5  4  1  0  0  0  0
  5  6  2  0  0  0  0
  6  1  1  0  0  0  0
  6  7  1  0  0  0  0
  8  5  1  0  0  0  0
  9  8  1  0  0  0  0
 10  4  1  0  0  0  0
 10  9  2  0  0  0  0
M  END
>  <CHROM.1>
19.64010753,-17.94697384,3.60185339,-3.00529528,0.52699030,1.62941998

>  <Name>
1y26_lig

>  <RI>
0

>  <Rbt.Current_Directory>
/home/afrankz/demos/rdock_decoys_rna/rnas/1y26

>  <Rbt.Executable>
rbdock ($Id: //depot/dev/client3/rdock/2013.1/src/exe/rbdock.cxx#4 $)

>  <Rbt.Library>
libRbt.so (2013.1, Build901 2013/11/27)

>  <Rbt.Parameter_File>
/export/apps/rDock/src/rDock_2013.1_src/data/scripts/dock_solv.prm

>  <Rbt.Receptor>
prm/blind_docking_40.prm

>  <SCORE>
-22.5117

>  <SCORE.INTER>
-22.5117

>  <SCORE.INTER.CONST>
1

>  <SCORE.INTER.POLAR>
-2.32872

>  <SCORE.INTER.ROT>
0

>  <SCORE.INTER.SOLV>
11.6603

>  <SCORE.INTER.VDW>
-14.7322

>  <SCORE.INTER.norm>
-2.25117

>  <SCORE.INTRA>
0

>  <SCORE.INTRA.DIHEDRAL>
0

>  <SCORE.INTRA.DIHEDRAL.0>
0

>  <SCORE.INTRA.POLAR>
0

>  <SCORE.INTRA.POLAR.0>
0

>  <SCORE.INTRA.REPUL>
0

>  <SCORE.INTRA.REPUL.0>
0

>  <SCORE.INTRA.SOLV>
0

>  <SCORE.INTRA.SOLV.lig_0>
-16.9472

>  <SCORE.INTRA.VDW>
0

>  <SCORE.INTRA.VDW.0>
0

>  <SCORE.INTRA.norm>
0

>  <SCORE.RESTR>
0

>  <SCORE.RESTR.CAVITY>
0

>  <SCORE.RESTR.norm>
0

>  <SCORE.SYSTEM>
0

>  <SCORE.SYSTEM.CONST>
0

>  <SCORE.SYSTEM.DIHEDRAL>
0

>  <SCORE.SYSTEM.SOLV>
0

>  <SCORE.SYSTEM.norm>
0

>  <SCORE.heavy>
10

>  <SCORE.norm>
-2.25117

>  <RMSD>
2.746

$$$$
1y26_lig
 OpenBabel02141814133D
libRbt.so/2013.1/901 2013/11/27
 10 11  0  0  0  0  0  0  0  0999 V2000
   17.9044  -18.8455    2.9468 N   0  0  0  0  0  0  0  0  0  0  0  0
   18.4788  -18.4334    1.8139 C   0  0  0  0  0  0  0  0  0  0  0  0
   19.6071  -17.7426    1.6629 N   0  0  0  0  0  0  0  0  0  0  0  0
   20.1842  -17.4953    2.8604 C   0  0  0  0  0  0  0  0  0  0  0  0
   19.7144  -17.8685    4.1040 C   0  0  0  0  0  0  0  0  0  0  0  0
   18.5087  -18.5758    4.1225 C   0  0  0  0  0  0  0  0  0  0  0  0
   17.9572  -18.9692    5.2593 N   0  0  0  0  0  0  0  0  0  0  0  0
   20.5387  -17.4489    5.1222 N   0  0  0  0  0  0  0  0  0  0  0  0
   21.5210  -16.8495    4.4746 C   0  0  0  0  0  0  0  0  0  0  0  0
   21.3578  -16.8337    3.1061 N   0  0  0  0  0  0  0  0  0  0  0  0
  1  2  2  0  0  0  0
  2  3  1  0  0  0  0
  3  4  2  0  0  0  0
  5  4  1  0  0  0  0
  5  6  2  0  0  0  0
  6  1  1  0  0  0  0
  6  7  1  0  0  0  0
  8  5  1  0  0  0  0
  9  8  1  0  0  0  0
 10  4  1  0  0  0  0
 10  9  2  0  0  0  0
M  END
>  <CHROM.1>
19.57580739,-17.90686259,3.54658317,-2.99221652,0.52774389,1.64213386

>  <Name>
1y26_lig

>  <RI>
0

>  <Rbt.Current_Directory>
/home/afrankz/demos/rdock_decoys_rna/rnas/1y26

>  <Rbt.Executable>
rbdock ($Id: //depot/dev/client3/rdock/2013.1/src/exe/rbdock.cxx#4 $)

>  <Rbt.Library>
libRbt.so (2013.1, Build901 2013/11/27)

>  <Rbt.Parameter_File>
/export/apps/rDock/src/rDock_2013.1_src/data/scripts/dock_solv.prm

>  <Rbt.Receptor>
prm/blind_docking_60.prm

>  <SCORE>
-22.4905

>  <SCORE.INTER>
-22.4905

>  <SCORE.INTER.CONST>
1

>  <SCORE.INTER.POLAR>
-2.29252

>  <SCORE.INTER.ROT>
0

>  <SCORE.INTER.SOLV>
11.7876

>  <SCORE.INTER.VDW>
-14.8811

>  <SCORE.INTER.norm>
-2.24905

>  <SCORE.INTRA>
0

>  <SCORE.INTRA.DIHEDRAL>
0

>  <SCORE.INTRA.DIHEDRAL.0>
0

>  <SCORE.INTRA.POLAR>
0

>  <SCORE.INTRA.POLAR.0>
0

>  <SCORE.INTRA.REPUL>
0

>  <SCORE.INTRA.REPUL.0>
0

>  <SCORE.INTRA.SOLV>
0

>  <SCORE.INTRA.SOLV.lig_0>
-16.9472

>  <SCORE.INTRA.VDW>
0

>  <SCORE.INTRA.VDW.0>
0

>  <SCORE.INTRA.norm>
0

>  <SCORE.RESTR>
0

>  <SCORE.RESTR.CAVITY>
0

>  <SCORE.RESTR.norm>
0

>  <SCORE.SYSTEM>
0

>  <SCORE.SYSTEM.CONST>
0

>  <SCORE.SYSTEM.DIHEDRAL>
0

>  <SCORE.SYSTEM.SOLV>
0

>  <SCORE.SYSTEM.norm>
0

>  <SCORE.heavy>
10

>  <SCORE.norm>
-2.24905

>  <RMSD>
2.746

$$$$
1y26_lig
 OpenBabel02141814133D
libRbt.so/2013.1/901 2013/11/27
 10 11  0  0  0  0  0  0  0  0999 V2000
   17.9567  -18.8864    3.0030 N   0  0  0  0  0  0  0  0  0  0  0  0
   18.5264  -18.4888    1.8626 C   0  0  0  0  0  0  0  0  0  0  0  0
   19.6528  -17.7980    1.6983 N   0  0  0  0  0  0  0  0  0  0  0  0
   20.2336  -17.5332    2.8904 C   0  0  0  0  0  0  0  0  0  0  0  0
   19.7687  -17.8902    4.1405 C   0  0  0  0  0  0  0  0  0  0  0  0
   18.5644  -18.5996    4.1729 C   0  0  0  0  0  0  0  0  0  0  0  0
   18.0176  -18.9784    5.3168 N   0  0  0  0  0  0  0  0  0  0  0  0
   20.5957  -17.4552    5.1500 N   0  0  0  0  0  0  0  0  0  0  0  0
   21.5745  -16.8628    4.4909 C   0  0  0  0  0  0  0  0  0  0  0  0
   21.4067  -16.8661    3.1229 N   0  0  0  0  0  0  0  0  0  0  0  0
  1  2  2  0  0  0  0
  2  3  1  0  0  0  0
  3  4  2  0  0  0  0
  5  4  1  0  0  0  0
  5  6  2  0  0  0  0
  6  1  1  0  0  0  0
  6  7  1  0  0  0  0
  8  5  1  0  0  0  0
  9  8  1  0  0  0  0
 10  4  1  0  0  0  0
 10  9  2  0  0  0  0
M  END
>  <CHROM.1>
19.62829455,-17.93649900,3.58415048,-2.99631501,0.52944822,1.63051916

>  <Name>
1y26_lig

>  <RI>
224

>  <Rbt.Current_Directory>
/home/afrankz/demos/rdock_decoys_rna/rnas/1y26

>  <Rbt.Executable>
rbdock ($Id: //depot/dev/client3/rdock/2013.1/src/exe/rbdock.cxx#4 $)

>  <Rbt.Library>
libRbt.so (2013.1, Build901 2013/11/27)

>  <Rbt.Parameter_File>
/export/apps/rDock/src/rDock_2013.1_src/data/scripts/dock_solv.prm

>  <Rbt.Receptor>
prm/blind_docking_80.prm

>  <SCORE>
-22.4843

>  <SCORE.INTER>
-22.4843

>  <SCORE.INTER.CONST>
1

>  <SCORE.INTER.POLAR>
-2.31977

>  <SCORE.INTER.ROT>
0

>  <SCORE.INTER.SOLV>
11.7025

>  <SCORE.INTER.VDW>
-14.7578

>  <SCORE.INTER.norm>
-2.24843

>  <SCORE.INTRA>
0

>  <SCORE.INTRA.DIHEDRAL>
0

>  <SCORE.INTRA.DIHEDRAL.0>
0

>  <SCORE.INTRA.POLAR>
0

>  <SCORE.INTRA.POLAR.0>
0

>  <SCORE.INTRA.REPUL>
0

>  <SCORE.INTRA.REPUL.0>
0

>  <SCORE.INTRA.SOLV>
0

>  <SCORE.INTRA.SOLV.lig_0>
-16.9472

>  <SCORE.INTRA.VDW>
0

>  <SCORE.INTRA.VDW.0>
0

>  <SCORE.INTRA.norm>
0

>  <SCORE.RESTR>
0

>  <SCORE.RESTR.CAVITY>
0

>  <SCORE.RESTR.norm>
0

>  <SCORE.SYSTEM>
0

>  <SCORE.SYSTEM.CONST>
0

>  <SCORE.SYSTEM.DIHEDRAL>
0

>  <SCORE.SYSTEM.SOLV>
0

>  <SCORE.SYSTEM.norm>
0

>  <SCORE.heavy>
10

>  <SCORE.norm>
-2.24843

>  <RMSD>
2.746

$$$$
1y26_lig
 OpenBabel02141814133D
libRbt.so/2013.1/901 2013/11/27
 10 11  0  0  0  0  0  0  0  0999 V2000
   17.9300  -18.8827    3.0182 N   0  0  0  0  0  0  0  0  0  0  0  0
   18.4895  -18.4886    1.8716 C   0  0  0  0  0  0  0  0  0  0  0  0
   19.6176  -17.8036    1.6949 N   0  0  0  0  0  0  0  0  0  0  0  0
   20.2123  -17.5411    2.8805 C   0  0  0  0  0  0  0  0  0  0  0  0
   19.7591  -17.8951    4.1357 C   0  0  0  0  0  0  0  0  0  0  0  0
   18.5516  -18.5984    4.1814 C   0  0  0  0  0  0  0  0  0  0  0  0
   18.0151  -18.9738    5.3313 N   0  0  0  0  0  0  0  0  0  0  0  0
   20.5989  -17.4637    5.1361 N   0  0  0  0  0  0  0  0  0  0  0  0
   21.5737  -16.8767    4.4663 C   0  0  0  0  0  0  0  0  0  0  0  0
   21.3912  -16.8798    3.1002 N   0  0  0  0  0  0  0  0  0  0  0  0
  1  2  2  0  0  0  0
  2  3  1  0  0  0  0
  3  4  2  0  0  0  0
  5  4  1  0  0  0  0
  5  6  2  0  0  0  0
  6  1  1  0  0  0  0
  6  7  1  0  0  0  0
  8  5  1  0  0  0  0
  9  8  1  0  0  0  0
 10  4  1  0  0  0  0
 10  9  2  0  0  0  0
M  END
>  <CHROM.1>
19.61247171,-17.94096880,3.58095604,-3.00826931,0.52374496,1.63597520

>  <Name>
1y26_lig

>  <RI>
224

>  <Rbt.Current_Directory>
/home/afrankz/demos/rdock_decoys_rna/rnas/1y26

>  <Rbt.Executable>
rbdock ($Id: //depot/dev/client3/rdock/2013.1/src/exe/rbdock.cxx#4 $)

>  <Rbt.Library>
libRbt.so (2013.1, Build901 2013/11/27)

>  <Rbt.Parameter_File>
/export/apps/rDock/src/rDock_2013.1_src/data/scripts/dock_solv.prm

>  <Rbt.Receptor>
prm/pocket_docking_3.prm

>  <SCORE>
-22.4779

>  <SCORE.INTER>
-22.4779

>  <SCORE.INTER.CONST>
1

>  <SCORE.INTER.POLAR>
-2.32492

>  <SCORE.INTER.ROT>
0

>  <SCORE.INTER.SOLV>
11.6954

>  <SCORE.INTER.VDW>
-14.734

>  <SCORE.INTER.norm>
-2.24779

>  <SCORE.INTRA>
0

>  <SCORE.INTRA.DIHEDRAL>
0

>  <SCORE.INTRA.DIHEDRAL.0>
0

>  <SCORE.INTRA.POLAR>
0

>  <SCORE.INTRA.POLAR.0>
0

>  <SCORE.INTRA.REPUL>
0

>  <SCORE.INTRA.REPUL.0>
0

>  <SCORE.INTRA.SOLV>
0

>  <SCORE.INTRA.SOLV.lig_0>
-16.9472

>  <SCORE.INTRA.VDW>
0

>  <SCORE.INTRA.VDW.0>
0

>  <SCORE.INTRA.norm>
0

>  <SCORE.RESTR>
0

>  <SCORE.RESTR.CAVITY>
0

>  <SCORE.RESTR.norm>
0

>  <SCORE.SYSTEM>
0

>  <SCORE.SYSTEM.CONST>
0

>  <SCORE.SYSTEM.DIHEDRAL>
0

>  <SCORE.SYSTEM.SOLV>
0

>  <SCORE.SYSTEM.norm>
0

>  <SCORE.heavy>
10

>  <SCORE.norm>
-2.24779

>  <RMSD>
2.746

$$$$
1y26_lig
 OpenBabel02141814133D
libRbt.so/2013.1/901 2013/11/27
 10 11  0  0  0  0  0  0  0  0999 V2000
   17.9206  -18.8731    3.0031 N   0  0  0  0  0  0  0  0  0  0  0  0
   18.4852  -18.4770    1.8596 C   0  0  0  0  0  0  0  0  0  0  0  0
   19.6071  -17.7804    1.6896 N   0  0  0  0  0  0  0  0  0  0  0  0
   20.1893  -17.5073    2.8790 C   0  0  0  0  0  0  0  0  0  0  0  0
   19.7297  -17.8617    4.1318 C   0  0  0  0  0  0  0  0  0  0  0  0
   18.5296  -18.5779    4.1702 C   0  0  0  0  0  0  0  0  0  0  0  0
   17.9878  -18.9550    5.3171 N   0  0  0  0  0  0  0  0  0  0  0  0
   20.5566  -17.4176    5.1374 N   0  0  0  0  0  0  0  0  0  0  0  0
   21.5304  -16.8225    4.4733 C   0  0  0  0  0  0  0  0  0  0  0  0
   21.3591  -16.8324    3.1058 N   0  0  0  0  0  0  0  0  0  0  0  0
  1  2  2  0  0  0  0
  2  3  1  0  0  0  0
  3  4  2  0  0  0  0
  5  4  1  0  0  0  0
  5  6  2  0  0  0  0
  6  1  1  0  0  0  0
  6  7  1  0  0  0  0
  8  5  1  0  0  0  0
  9  8  1  0  0  0  0
 10  4  1  0  0  0  0
 10  9  2  0  0  0  0
M  END
>  <CHROM.1>
19.58812614,-17.91113598,3.57599310,-2.99963012,0.53507069,1.62800139

>  <Name>
1y26_lig

>  <RI>
0

>  <Rbt.Current_Directory>
/home/afrankz/demos/rdock_decoys_rna/rnas/1y26

>  <Rbt.Executable>
rbdock ($Id: //depot/dev/client3/rdock/2013.1/src/exe/rbdock.cxx#4 $)

>  <Rbt.Library>
libRbt.so (2013.1, Build901 2013/11/27)

>  <Rbt.Parameter_File>
/export/apps/rDock/src/rDock_2013.1_src/data/scripts/dock_solv.prm

>  <Rbt.Receptor>
prm/pocket_docking_4.prm

>  <SCORE>
-22.4648

>  <SCORE.INTER>
-22.4648

>  <SCORE.INTER.CONST>
1

>  <SCORE.INTER.POLAR>
-2.29978

>  <SCORE.INTER.ROT>
0

>  <SCORE.INTER.SOLV>
11.717

>  <SCORE.INTER.VDW>
-14.8163

>  <SCORE.INTER.norm>
-2.24648

>  <SCORE.INTRA>
0

>  <SCORE.INTRA.DIHEDRAL>
0

>  <SCORE.INTRA.DIHEDRAL.0>
0

>  <SCORE.INTRA.POLAR>
0

>  <SCORE.INTRA.POLAR.0>
0

>  <SCORE.INTRA.REPUL>
0

>  <SCORE.INTRA.REPUL.0>
0

>  <SCORE.INTRA.SOLV>
0

>  <SCORE.INTRA.SOLV.lig_0>
-16.9472

>  <SCORE.INTRA.VDW>
0

>  <SCORE.INTRA.VDW.0>
0

>  <SCORE.INTRA.norm>
0

>  <SCORE.RESTR>
0

>  <SCORE.RESTR.CAVITY>
0

>  <SCORE.RESTR.norm>
0

>  <SCORE.SYSTEM>
0

>  <SCORE.SYSTEM.CONST>
0

>  <SCORE.SYSTEM.DIHEDRAL>
0

>  <SCORE.SYSTEM.SOLV>
0

>  <SCORE.SYSTEM.norm>
0

>  <SCORE.heavy>
10

>  <SCORE.norm>
-2.24648

>  <RMSD>
2.746

$$$$
1y26_lig
 OpenBabel02141814133D
libRbt.so/2013.1/901 2013/11/27
 10 11  0  0  0  0  0  0  0  0999 V2000
   17.9716  -18.8982    3.0307 N   0  0  0  0  0  0  0  0  0  0  0  0
   18.5333  -18.5063    1.8844 C   0  0  0  0  0  0  0  0  0  0  0  0
   19.6586  -17.8166    1.7087 N   0  0  0  0  0  0  0  0  0  0  0  0
   20.2479  -17.5461    2.8952 C   0  0  0  0  0  0  0  0  0  0  0  0
   19.7919  -17.8970    4.1504 C   0  0  0  0  0  0  0  0  0  0  0  0
   18.5877  -18.6059    4.1948 C   0  0  0  0  0  0  0  0  0  0  0  0
   18.0490  -18.9790    5.3444 N   0  0  0  0  0  0  0  0  0  0  0  0
   20.6261  -17.4573    5.1519 N   0  0  0  0  0  0  0  0  0  0  0  0
   21.6003  -16.8684    4.4829 C   0  0  0  0  0  0  0  0  0  0  0  0
   21.4228  -16.8782    3.1162 N   0  0  0  0  0  0  0  0  0  0  0  0
  1  2  2  0  0  0  0
  2  3  1  0  0  0  0
  3  4  2  0  0  0  0
  5  4  1  0  0  0  0
  5  6  2  0  0  0  0
  6  1  1  0  0  0  0
  6  7  1  0  0  0  0
  8  5  1  0  0  0  0
  9  8  1  0  0  0  0
 10  4  1  0  0  0  0
 10  9  2  0  0  0  0
M  END
>  <CHROM.1>
19.64748139,-17.94593643,3.59528079,-3.00454460,0.52881017,1.62983430

>  <Name>
1y26_lig

>  <RI>
0

>  <Rbt.Current_Directory>
/home/afrankz/demos/rdock_decoys_rna/rnas/1y26

>  <Rbt.Executable>
rbdock ($Id: //depot/dev/client3/rdock/2013.1/src/exe/rbdock.cxx#4 $)

>  <Rbt.Library>
libRbt.so (2013.1, Build901 2013/11/27)

>  <Rbt.Parameter_File>
/export/apps/rDock/src/rDock_2013.1_src/data/scripts/dock_solv.prm

>  <Rbt.Receptor>
prm/blind_docking_60.prm

>  <SCORE>
-22.511

>  <SCORE.INTER>
-22.511

>  <SCORE.INTER.CONST>
1

>  <SCORE.INTER.POLAR>
-2.32653

>  <SCORE.INTER.ROT>
0

>  <SCORE.INTER.SOLV>
11.6602

>  <SCORE.INTER.VDW>
-14.739

>  <SCORE.INTER.norm>
-2.2511

>  <SCORE.INTRA>
0

>  <SCORE.INTRA.DIHEDRAL>
0

>  <SCORE.INTRA.DIHEDRAL.0>
0

>  <SCORE.INTRA.POLAR>
0

>  <SCORE.INTRA.POLAR.0>
0

>  <SCORE.INTRA.REPUL>
0

>  <SCORE.INTRA.REPUL.0>
0

>  <SCORE.INTRA.SOLV>
0

>  <SCORE.INTRA.SOLV.lig_0>
-16.9472

>  <SCORE.INTRA.VDW>
0

>  <SCORE.INTRA.VDW.0>
0

>  <SCORE.INTRA.norm>
0

>  <SCORE.RESTR>
0

>  <SCORE.RESTR.CAVITY>
0

>  <SCORE.RESTR.norm>
0

>  <SCORE.SYSTEM>
0

>  <SCORE.SYSTEM.CONST>
0

>  <SCORE.SYSTEM.DIHEDRAL>
0

>  <SCORE.SYSTEM.SOLV>
0

>  <SCORE.SYSTEM.norm>
0

>  <SCORE.heavy>
10

>  <SCORE.norm>
-2.2511

>  <RMSD>
2.748

$$$$
1y26_lig
 OpenBabel02141814133D
libRbt.so/2013.1/901 2013/11/27
 10 11  0  0  0  0  0  0  0  0999 V2000
   17.9738  -18.8836    3.0302 N   0  0  0  0  0  0  0  0  0  0  0  0
   18.5418  -18.5002    1.8841 C   0  0  0  0  0  0  0  0  0  0  0  0
   19.6624  -17.8024    1.7098 N   0  0  0  0  0  0  0  0  0  0  0  0
   20.2389  -17.5126    2.8980 C   0  0  0  0  0  0  0  0  0  0  0  0
   19.7753  -17.8527    4.1533 C   0  0  0  0  0  0  0  0  0  0  0  0
   18.5772  -18.5719    4.1959 C   0  0  0  0  0  0  0  0  0  0  0  0
   18.0319  -18.9362    5.3453 N   0  0  0  0  0  0  0  0  0  0  0  0
   20.5968  -17.3935    5.1566 N   0  0  0  0  0  0  0  0  0  0  0  0
   21.5715  -16.8038    4.4890 C   0  0  0  0  0  0  0  0  0  0  0  0
   21.4058  -16.8314    3.1211 N   0  0  0  0  0  0  0  0  0  0  0  0
  1  2  2  0  0  0  0
  2  3  1  0  0  0  0
  3  4  2  0  0  0  0
  5  4  1  0  0  0  0
  5  6  2  0  0  0  0
  6  1  1  0  0  0  0
  6  7  1  0  0  0  0
  8  5  1  0  0  0  0
  9  8  1  0  0  0  0
 10  4  1  0  0  0  0
 10  9  2  0  0  0  0
M  END
>  <CHROM.1>
19.63612166,-17.90948778,3.59766451,-2.99511826,0.53826203,1.61313274

>  <Name>
1y26_lig

>  <RI>
0

>  <Rbt.Current_Directory>
/home/afrankz/demos/rdock_decoys_rna/rnas/1y26

>  <Rbt.Executable>
rbdock ($Id: //depot/dev/client3/rdock/2013.1/src/exe/rbdock.cxx#4 $)

>  <Rbt.Library>
libRbt.so (2013.1, Build901 2013/11/27)

>  <Rbt.Parameter_File>
/export/apps/rDock/src/rDock_2013.1_src/data/scripts/dock_solv.prm

>  <Rbt.Receptor>
prm/pocket_docking_5.prm

>  <SCORE>
-22.478

>  <SCORE.INTER>
-22.478

>  <SCORE.INTER.CONST>
1

>  <SCORE.INTER.POLAR>
-2.30158

>  <SCORE.INTER.ROT>
0

>  <SCORE.INTER.SOLV>
11.6448

>  <SCORE.INTER.VDW>
-14.795

>  <SCORE.INTER.norm>
-2.2478

>  <SCORE.INTRA>
0

>  <SCORE.INTRA.DIHEDRAL>
0

>  <SCORE.INTRA.DIHEDRAL.0>
0

>  <SCORE.INTRA.POLAR>
0

>  <SCORE.INTRA.POLAR.0>
0

>  <SCORE.INTRA.REPUL>
0

>  <SCORE.INTRA.REPUL.0>
0

>  <SCORE.INTRA.SOLV>
0

>  <SCORE.INTRA.SOLV.lig_0>
-16.9472

>  <SCORE.INTRA.VDW>
0

>  <SCORE.INTRA.VDW.0>
0

>  <SCORE.INTRA.norm>
0

>  <SCORE.RESTR>
0

>  <SCORE.RESTR.CAVITY>
0

>  <SCORE.RESTR.norm>
0

>  <SCORE.SYSTEM>
0

>  <SCORE.SYSTEM.CONST>
0

>  <SCORE.SYSTEM.DIHEDRAL>
0

>  <SCORE.SYSTEM.SOLV>
0

>  <SCORE.SYSTEM.norm>
0

>  <SCORE.heavy>
10

>  <SCORE.norm>
-2.2478

>  <RMSD>
2.748

$$$$
1y26_lig
 OpenBabel02141814133D
libRbt.so/2013.1/901 2013/11/27
 10 11  0  0  0  0  0  0  0  0999 V2000
   17.9053  -18.8810    3.0134 N   0  0  0  0  0  0  0  0  0  0  0  0
   18.4550  -18.4739    1.8665 C   0  0  0  0  0  0  0  0  0  0  0  0
   19.5748  -17.7759    1.6885 N   0  0  0  0  0  0  0  0  0  0  0  0
   20.1725  -17.5143    2.8727 C   0  0  0  0  0  0  0  0  0  0  0  0
   19.7293  -17.8808    4.1279 C   0  0  0  0  0  0  0  0  0  0  0  0
   18.5297  -18.5971    4.1752 C   0  0  0  0  0  0  0  0  0  0  0  0
   18.0029  -18.9853    5.3254 N   0  0  0  0  0  0  0  0  0  0  0  0
   20.5695  -17.4465    5.1269 N   0  0  0  0  0  0  0  0  0  0  0  0
   21.5346  -16.8450    4.4559 C   0  0  0  0  0  0  0  0  0  0  0  0
   21.3454  -16.8418    3.0907 N   0  0  0  0  0  0  0  0  0  0  0  0
  1  2  2  0  0  0  0
  2  3  1  0  0  0  0
  3  4  2  0  0  0  0
  5  4  1  0  0  0  0
  5  6  2  0  0  0  0
  6  1  1  0  0  0  0
  6  7  1  0  0  0  0
  8  5  1  0  0  0  0
  9  8  1  0  0  0  0
 10  4  1  0  0  0  0
 10  9  2  0  0  0  0
M  END
>  <CHROM.1>
19.58046415,-17.92480007,3.57362727,-3.01481688,0.53403683,1.64539133

>  <Name>
1y26_lig

>  <RI>
224

>  <Rbt.Current_Directory>
/home/afrankz/demos/rdock_decoys_rna/rnas/1y26

>  <Rbt.Executable>
rbdock ($Id: //depot/dev/client3/rdock/2013.1/src/exe/rbdock.cxx#4 $)

>  <Rbt.Library>
libRbt.so (2013.1, Build901 2013/11/27)

>  <Rbt.Parameter_File>
/export/apps/rDock/src/rDock_2013.1_src/data/scripts/dock_solv.prm

>  <Rbt.Receptor>
prm/pocket_docking_3.prm

>  <SCORE>
-22.481

>  <SCORE.INTER>
-22.481

>  <SCORE.INTER.CONST>
1

>  <SCORE.INTER.POLAR>
-2.30324

>  <SCORE.INTER.ROT>
0

>  <SCORE.INTER.SOLV>
11.7181

>  <SCORE.INTER.VDW>
-14.8159

>  <SCORE.INTER.norm>
-2.2481

>  <SCORE.INTRA>
0

>  <SCORE.INTRA.DIHEDRAL>
0

>  <SCORE.INTRA.DIHEDRAL.0>
0

>  <SCORE.INTRA.POLAR>
0

>  <SCORE.INTRA.POLAR.0>
0

>  <SCORE.INTRA.REPUL>
0

>  <SCORE.INTRA.REPUL.0>
0

>  <SCORE.INTRA.SOLV>
0

>  <SCORE.INTRA.SOLV.lig_0>
-16.9472

>  <SCORE.INTRA.VDW>
0

>  <SCORE.INTRA.VDW.0>
0

>  <SCORE.INTRA.norm>
0

>  <SCORE.RESTR>
0

>  <SCORE.RESTR.CAVITY>
0

>  <SCORE.RESTR.norm>
0

>  <SCORE.SYSTEM>
0

>  <SCORE.SYSTEM.CONST>
0

>  <SCORE.SYSTEM.DIHEDRAL>
0

>  <SCORE.SYSTEM.SOLV>
0

>  <SCORE.SYSTEM.norm>
0

>  <SCORE.heavy>
10

>  <SCORE.norm>
-2.2481

>  <RMSD>
2.749

$$$$
1y26_lig
 OpenBabel02141814133D
libRbt.so/2013.1/901 2013/11/27
 10 11  0  0  0  0  0  0  0  0999 V2000
   17.9196  -18.8568    2.9612 N   0  0  0  0  0  0  0  0  0  0  0  0
   18.4815  -18.4317    1.8269 C   0  0  0  0  0  0  0  0  0  0  0  0
   19.6040  -17.7325    1.6719 N   0  0  0  0  0  0  0  0  0  0  0  0
   20.1899  -17.4913    2.8664 C   0  0  0  0  0  0  0  0  0  0  0  0
   19.7333  -17.8778    4.1108 C   0  0  0  0  0  0  0  0  0  0  0  0
   18.5323  -18.5930    4.1339 C   0  0  0  0  0  0  0  0  0  0  0  0
   17.9933  -18.9993    5.2721 N   0  0  0  0  0  0  0  0  0  0  0  0
   20.5637  -17.4613    5.1253 N   0  0  0  0  0  0  0  0  0  0  0  0
   21.5365  -16.8503    4.4742 C   0  0  0  0  0  0  0  0  0  0  0  0
   21.3614  -16.8242    3.1074 N   0  0  0  0  0  0  0  0  0  0  0  0
  1  2  2  0  0  0  0
  2  3  1  0  0  0  0
  3  4  2  0  0  0  0
  5  4  1  0  0  0  0
  5  6  2  0  0  0  0
  6  1  1  0  0  0  0
  6  7  1  0  0  0  0
  8  5  1  0  0  0  0
  9  8  1  0  0  0  0
 10  4  1  0  0  0  0
 10  9  2  0  0  0  0
M  END
>  <CHROM.1>
19.59013101,-17.91245072,3.55432834,-3.00280497,0.53346429,1.65576987

>  <Name>
1y26_lig

>  <RI>
0

>  <Rbt.Current_Directory>
/home/afrankz/demos/rdock_decoys_rna/rnas/1y26

>  <Rbt.Executable>
rbdock ($Id: //depot/dev/client3/rdock/2013.1/src/exe/rbdock.cxx#4 $)

>  <Rbt.Library>
libRbt.so (2013.1, Build901 2013/11/27)

>  <Rbt.Parameter_File>
/export/apps/rDock/src/rDock_2013.1_src/data/scripts/dock_solv.prm

>  <Rbt.Receptor>
prm/pocket_docking_5.prm

>  <SCORE>
-22.451

>  <SCORE.INTER>
-22.451

>  <SCORE.INTER.CONST>
1

>  <SCORE.INTER.POLAR>
-2.29575

>  <SCORE.INTER.ROT>
0

>  <SCORE.INTER.SOLV>
11.7628

>  <SCORE.INTER.VDW>
-14.8357

>  <SCORE.INTER.norm>
-2.2451

>  <SCORE.INTRA>
0

>  <SCORE.INTRA.DIHEDRAL>
0

>  <SCORE.INTRA.DIHEDRAL.0>
0

>  <SCORE.INTRA.POLAR>
0

>  <SCORE.INTRA.POLAR.0>
0

>  <SCORE.INTRA.REPUL>
0

>  <SCORE.INTRA.REPUL.0>
0

>  <SCORE.INTRA.SOLV>
0

>  <SCORE.INTRA.SOLV.lig_0>
-16.9472

>  <SCORE.INTRA.VDW>
0

>  <SCORE.INTRA.VDW.0>
0

>  <SCORE.INTRA.norm>
0

>  <SCORE.RESTR>
0

>  <SCORE.RESTR.CAVITY>
0

>  <SCORE.RESTR.norm>
0

>  <SCORE.SYSTEM>
0

>  <SCORE.SYSTEM.CONST>
0

>  <SCORE.SYSTEM.DIHEDRAL>
0

>  <SCORE.SYSTEM.SOLV>
0

>  <SCORE.SYSTEM.norm>
0

>  <SCORE.heavy>
10

>  <SCORE.norm>
-2.2451

>  <RMSD>
2.750

$$$$
1y26_lig
 OpenBabel02141814133D
libRbt.so/2013.1/901 2013/11/27
 10 11  0  0  0  0  0  0  0  0999 V2000
   18.4731  -19.3799    3.2414 N   0  0  0  0  0  0  0  0  0  0  0  0
   18.5230  -18.6371    2.1328 C   0  0  0  0  0  0  0  0  0  0  0  0
   19.0711  -17.4350    1.9673 N   0  0  0  0  0  0  0  0  0  0  0  0
   19.6454  -17.0056    3.1136 C   0  0  0  0  0  0  0  0  0  0  0  0
   19.6827  -17.6674    4.3248 C   0  0  0  0  0  0  0  0  0  0  0  0
   19.0542  -18.9154    4.3669 C   0  0  0  0  0  0  0  0  0  0  0  0
   19.0142  -19.6304    5.4797 N   0  0  0  0  0  0  0  0  0  0  0  0
   20.3387  -16.9460    5.2951 N   0  0  0  0  0  0  0  0  0  0  0  0
   20.7204  -15.8619    4.6451 C   0  0  0  0  0  0  0  0  0  0  0  0
   20.3206  -15.8333    3.3265 N   0  0  0  0  0  0  0  0  0  0  0  0
  1  2  2  0  0  0  0
  2  3  1  0  0  0  0
  3  4  2  0  0  0  0
  5  4  1  0  0  0  0
  5  6  2  0  0  0  0
  6  1  1  0  0  0  0
  6  7  1  0  0  0  0
  8  5  1  0  0  0  0
  9  8  1  0  0  0  0
 10  4  1  0  0  0  0
 10  9  2  0  0  0  0
M  END
>  <CHROM.1>
19.48336631,-17.73242074,3.78870939,2.83975377,1.03171858,2.10425186

>  <Name>
1y26_lig

>  <RI>
224

>  <Rbt.Current_Directory>
/home/afrankz/demos/rdock_decoys_rna/rnas/1y26

>  <Rbt.Executable>
rbdock ($Id: //depot/dev/client3/rdock/2013.1/src/exe/rbdock.cxx#4 $)

>  <Rbt.Library>
libRbt.so (2013.1, Build901 2013/11/27)

>  <Rbt.Parameter_File>
/export/apps/rDock/src/rDock_2013.1_src/data/scripts/dock_solv.prm

>  <Rbt.Receptor>
prm/pocket_docking_6.prm

>  <SCORE>
-22.1309

>  <SCORE.INTER>
-22.1309

>  <SCORE.INTER.CONST>
1

>  <SCORE.INTER.POLAR>
-2.29607

>  <SCORE.INTER.ROT>
0

>  <SCORE.INTER.SOLV>
12.6809

>  <SCORE.INTER.VDW>
-14.9273

>  <SCORE.INTER.norm>
-2.21309

>  <SCORE.INTRA>
0

>  <SCORE.INTRA.DIHEDRAL>
0

>  <SCORE.INTRA.DIHEDRAL.0>
0

>  <SCORE.INTRA.POLAR>
0

>  <SCORE.INTRA.POLAR.0>
0

>  <SCORE.INTRA.REPUL>
0

>  <SCORE.INTRA.REPUL.0>
0

>  <SCORE.INTRA.SOLV>
0

>  <SCORE.INTRA.SOLV.lig_0>
-16.9472

>  <SCORE.INTRA.VDW>
0

>  <SCORE.INTRA.VDW.0>
0

>  <SCORE.INTRA.norm>
0

>  <SCORE.RESTR>
0

>  <SCORE.RESTR.CAVITY>
0

>  <SCORE.RESTR.norm>
0

>  <SCORE.SYSTEM>
0

>  <SCORE.SYSTEM.CONST>
0

>  <SCORE.SYSTEM.DIHEDRAL>
0

>  <SCORE.SYSTEM.SOLV>
0

>  <SCORE.SYSTEM.norm>
0

>  <SCORE.heavy>
10

>  <SCORE.norm>
-2.21309

>  <RMSD>
2.801

$$$$
1y26_lig
 OpenBabel02141814133D
libRbt.so/2013.1/901 2013/11/27
 10 11  0  0  0  0  0  0  0  0999 V2000
   18.4915  -19.4052    3.2350 N   0  0  0  0  0  0  0  0  0  0  0  0
   18.5411  -18.6722    2.1200 C   0  0  0  0  0  0  0  0  0  0  0  0
   19.0987  -17.4763    1.9411 N   0  0  0  0  0  0  0  0  0  0  0  0
   19.6836  -17.0425    3.0804 C   0  0  0  0  0  0  0  0  0  0  0  0
   19.7226  -17.6945    4.2968 C   0  0  0  0  0  0  0  0  0  0  0  0
   19.0834  -18.9366    4.3531 C   0  0  0  0  0  0  0  0  0  0  0  0
   19.0440  -19.6419    5.4721 N   0  0  0  0  0  0  0  0  0  0  0  0
   20.3908  -16.9709    5.2571 N   0  0  0  0  0  0  0  0  0  0  0  0
   20.7779  -15.8956    4.5958 C   0  0  0  0  0  0  0  0  0  0  0  0
   20.3704  -15.8745    3.2794 N   0  0  0  0  0  0  0  0  0  0  0  0
  1  2  2  0  0  0  0
  2  3  1  0  0  0  0
  3  4  2  0  0  0  0
  5  4  1  0  0  0  0
  5  6  2  0  0  0  0
  6  1  1  0  0  0  0
  6  7  1  0  0  0  0
  8  5  1  0  0  0  0
  9  8  1  0  0  0  0
 10  4  1  0  0  0  0
 10  9  2  0  0  0  0
M  END
>  <CHROM.1>
19.51940101,-17.76226054,3.76248973,2.83822373,1.02110026,2.09722891

>  <Name>
1y26_lig

>  <RI>
0

>  <Rbt.Current_Directory>
/home/afrankz/demos/rdock_decoys_rna/rnas/1y26

>  <Rbt.Executable>
rbdock ($Id: //depot/dev/client3/rdock/2013.1/src/exe/rbdock.cxx#4 $)

>  <Rbt.Library>
libRbt.so (2013.1, Build901 2013/11/27)

>  <Rbt.Parameter_File>
/export/apps/rDock/src/rDock_2013.1_src/data/scripts/dock_solv.prm

>  <Rbt.Receptor>
prm/blind_docking_40.prm

>  <SCORE>
-22.1101

>  <SCORE.INTER>
-22.1101

>  <SCORE.INTER.CONST>
1

>  <SCORE.INTER.POLAR>
-2.35194

>  <SCORE.INTER.ROT>
0

>  <SCORE.INTER.SOLV>
12.6503

>  <SCORE.INTER.VDW>
-14.7171

>  <SCORE.INTER.norm>
-2.21101

>  <SCORE.INTRA>
0

>  <SCORE.INTRA.DIHEDRAL>
0

>  <SCORE.INTRA.DIHEDRAL.0>
0

>  <SCORE.INTRA.POLAR>
0

>  <SCORE.INTRA.POLAR.0>
0

>  <SCORE.INTRA.REPUL>
0

>  <SCORE.INTRA.REPUL.0>
0

>  <SCORE.INTRA.SOLV>
0

>  <SCORE.INTRA.SOLV.lig_0>
-16.9472

>  <SCORE.INTRA.VDW>
0

>  <SCORE.INTRA.VDW.0>
0

>  <SCORE.INTRA.norm>
0

>  <SCORE.RESTR>
0

>  <SCORE.RESTR.CAVITY>
0

>  <SCORE.RESTR.norm>
0

>  <SCORE.SYSTEM>
0

>  <SCORE.SYSTEM.CONST>
0

>  <SCORE.SYSTEM.DIHEDRAL>
0

>  <SCORE.SYSTEM.SOLV>
0

>  <SCORE.SYSTEM.norm>
0

>  <SCORE.heavy>
10

>  <SCORE.norm>
-2.21101

>  <RMSD>
2.807

$$$$
1y26_lig
 OpenBabel02141814133D
libRbt.so/2013.1/901 2013/11/27
 10 11  0  0  0  0  0  0  0  0999 V2000
   18.4602  -19.3759    3.2845 N   0  0  0  0  0  0  0  0  0  0  0  0
   18.5416  -18.6765    2.1499 C   0  0  0  0  0  0  0  0  0  0  0  0
   19.1191  -17.4939    1.9474 N   0  0  0  0  0  0  0  0  0  0  0  0
   19.6879  -17.0348    3.0850 C   0  0  0  0  0  0  0  0  0  0  0  0
   19.6942  -17.6514    4.3203 C   0  0  0  0  0  0  0  0  0  0  0  0
   19.0369  -18.8827    4.4000 C   0  0  0  0  0  0  0  0  0  0  0  0
   18.9660  -19.5544    5.5379 N   0  0  0  0  0  0  0  0  0  0  0  0
   20.3537  -16.9090    5.2722 N   0  0  0  0  0  0  0  0  0  0  0  0
   20.7685  -15.8588    4.5878 C   0  0  0  0  0  0  0  0  0  0  0  0
   20.3868  -15.8707    3.2635 N   0  0  0  0  0  0  0  0  0  0  0  0
  1  2  2  0  0  0  0
  2  3  1  0  0  0  0
  3  4  2  0  0  0  0
  5  4  1  0  0  0  0
  5  6  2  0  0  0  0
  6  1  1  0  0  0  0
  6  7  1  0  0  0  0
  8  5  1  0  0  0  0
  9  8  1  0  0  0  0
 10  4  1  0  0  0  0
 10  9  2  0  0  0  0
M  END
>  <CHROM.1>
19.50049258,-17.73204075,3.78427034,2.88341961,1.01833623,2.02959479

>  <Name>
1y26_lig

>  <RI>
0

>  <Rbt.Current_Directory>
/home/afrankz/demos/rdock_decoys_rna/rnas/1y26

>  <Rbt.Executable>
rbdock ($Id: //depot/dev/client3/rdock/2013.1/src/exe/rbdock.cxx#4 $)

>  <Rbt.Library>
libRbt.so (2013.1, Build901 2013/11/27)

>  <Rbt.Parameter_File>
/export/apps/rDock/src/rDock_2013.1_src/data/scripts/dock_solv.prm

>  <Rbt.Receptor>
prm/blind_docking_40.prm

>  <SCORE>
-22.1142

>  <SCORE.INTER>
-22.1142

>  <SCORE.INTER.CONST>
1

>  <SCORE.INTER.POLAR>
-2.36479

>  <SCORE.INTER.ROT>
0

>  <SCORE.INTER.SOLV>
12.4793

>  <SCORE.INTER.VDW>
-14.6199

>  <SCORE.INTER.norm>
-2.21142

>  <SCORE.INTRA>
0

>  <SCORE.INTRA.DIHEDRAL>
0

>  <SCORE.INTRA.DIHEDRAL.0>
0

>  <SCORE.INTRA.POLAR>
0

>  <SCORE.INTRA.POLAR.0>
0

>  <SCORE.INTRA.REPUL>
0

>  <SCORE.INTRA.REPUL.0>
0

>  <SCORE.INTRA.SOLV>
0

>  <SCORE.INTRA.SOLV.lig_0>
-16.9472

>  <SCORE.INTRA.VDW>
0

>  <SCORE.INTRA.VDW.0>
0

>  <SCORE.INTRA.norm>
0

>  <SCORE.RESTR>
0

>  <SCORE.RESTR.CAVITY>
0

>  <SCORE.RESTR.norm>
0

>  <SCORE.SYSTEM>
0

>  <SCORE.SYSTEM.CONST>
0

>  <SCORE.SYSTEM.DIHEDRAL>
0

>  <SCORE.SYSTEM.SOLV>
0

>  <SCORE.SYSTEM.norm>
0

>  <SCORE.heavy>
10

>  <SCORE.norm>
-2.21142

>  <RMSD>
2.811

$$$$
1y26_lig
 OpenBabel02141814133D
libRbt.so/2013.1/901 2013/11/27
 10 11  0  0  0  0  0  0  0  0999 V2000
   20.2211  -18.0209    6.1374 N   0  0  0  0  0  0  0  0  0  0  0  0
   19.1615  -18.8220    6.2730 C   0  0  0  0  0  0  0  0  0  0  0  0
   18.3145  -19.2384    5.3338 N   0  0  0  0  0  0  0  0  0  0  0  0
   18.6668  -18.7577    4.1201 C   0  0  0  0  0  0  0  0  0  0  0  0
   19.7369  -17.9351    3.8292 C   0  0  0  0  0  0  0  0  0  0  0  0
   20.5386  -17.5578    4.9106 C   0  0  0  0  0  0  0  0  0  0  0  0
   21.5811  -16.7585    4.7507 N   0  0  0  0  0  0  0  0  0  0  0  0
   19.8065  -17.6205    2.4918 N   0  0  0  0  0  0  0  0  0  0  0  0
   18.7876  -18.2876    1.9815 C   0  0  0  0  0  0  0  0  0  0  0  0
   18.0532  -18.9840    2.9170 N   0  0  0  0  0  0  0  0  0  0  0  0
  1  2  2  0  0  0  0
  2  3  1  0  0  0  0
  3  4  2  0  0  0  0
  5  4  1  0  0  0  0
  5  6  2  0  0  0  0
  6  1  1  0  0  0  0
  6  7  1  0  0  0  0
  8  5  1  0  0  0  0
  9  8  1  0  0  0  0
 10  4  1  0  0  0  0
 10  9  2  0  0  0  0
M  END
>  <CHROM.1>
19.48715662,-18.19810390,4.27615558,0.98824216,0.62045657,1.75743101

>  <Name>
1y26_lig

>  <RI>
224

>  <Rbt.Current_Directory>
/home/afrankz/demos/rdock_decoys_rna/rnas/1y26

>  <Rbt.Executable>
rbdock ($Id: //depot/dev/client3/rdock/2013.1/src/exe/rbdock.cxx#4 $)

>  <Rbt.Library>
libRbt.so (2013.1, Build901 2013/11/27)

>  <Rbt.Parameter_File>
/export/apps/rDock/src/rDock_2013.1_src/data/scripts/dock_solv.prm

>  <Rbt.Receptor>
prm/pocket_docking_3.prm

>  <SCORE>
-22.7644

>  <SCORE.INTER>
-22.7644

>  <SCORE.INTER.CONST>
1

>  <SCORE.INTER.POLAR>
-2.0198

>  <SCORE.INTER.ROT>
0

>  <SCORE.INTER.SOLV>
11.4314

>  <SCORE.INTER.VDW>
-15.8541

>  <SCORE.INTER.norm>
-2.27644

>  <SCORE.INTRA>
0

>  <SCORE.INTRA.DIHEDRAL>
0

>  <SCORE.INTRA.DIHEDRAL.0>
0

>  <SCORE.INTRA.POLAR>
0

>  <SCORE.INTRA.POLAR.0>
0

>  <SCORE.INTRA.REPUL>
0

>  <SCORE.INTRA.REPUL.0>
0

>  <SCORE.INTRA.SOLV>
0

>  <SCORE.INTRA.SOLV.lig_0>
-16.9472

>  <SCORE.INTRA.VDW>
0

>  <SCORE.INTRA.VDW.0>
0

>  <SCORE.INTRA.norm>
0

>  <SCORE.RESTR>
0

>  <SCORE.RESTR.CAVITY>
0

>  <SCORE.RESTR.norm>
0

>  <SCORE.SYSTEM>
0

>  <SCORE.SYSTEM.CONST>
0

>  <SCORE.SYSTEM.DIHEDRAL>
0

>  <SCORE.SYSTEM.SOLV>
0

>  <SCORE.SYSTEM.norm>
0

>  <SCORE.heavy>
10

>  <SCORE.norm>
-2.27644

>  <RMSD>
2.891

$$$$
1y26_lig
 OpenBabel02141814133D
libRbt.so/2013.1/901 2013/11/27
 10 11  0  0  0  0  0  0  0  0999 V2000
   20.2225  -18.0088    6.1321 N   0  0  0  0  0  0  0  0  0  0  0  0
   19.1354  -18.7662    6.2988 C   0  0  0  0  0  0  0  0  0  0  0  0
   18.2533  -19.1593    5.3821 N   0  0  0  0  0  0  0  0  0  0  0  0
   18.5987  -18.7061    4.1560 C   0  0  0  0  0  0  0  0  0  0  0  0
   19.6937  -17.9294    3.8334 C   0  0  0  0  0  0  0  0  0  0  0  0
   20.5320  -17.5721    4.8937 C   0  0  0  0  0  0  0  0  0  0  0  0
   21.6013  -16.8162    4.7030 N   0  0  0  0  0  0  0  0  0  0  0  0
   19.7475  -17.6324    2.4913 N   0  0  0  0  0  0  0  0  0  0  0  0
   18.6929  -18.2646    2.0099 C   0  0  0  0  0  0  0  0  0  0  0  0
   17.9516  -18.9213    2.9684 N   0  0  0  0  0  0  0  0  0  0  0  0
  1  2  2  0  0  0  0
  2  3  1  0  0  0  0
  3  4  2  0  0  0  0
  5  4  1  0  0  0  0
  5  6  2  0  0  0  0
  6  1  1  0  0  0  0
  6  7  1  0  0  0  0
  8  5  1  0  0  0  0
  9  8  1  0  0  0  0
 10  4  1  0  0  0  0
 10  9  2  0  0  0  0
M  END
>  <CHROM.1>
19.44329575,-18.17750946,4.28851185,0.97230921,0.57814877,1.75505083

>  <Name>
1y26_lig

>  <RI>
0

>  <Rbt.Current_Directory>
/home/afrankz/demos/rdock_decoys_rna/rnas/1y26

>  <Rbt.Executable>
rbdock ($Id: //depot/dev/client3/rdock/2013.1/src/exe/rbdock.cxx#4 $)

>  <Rbt.Library>
libRbt.so (2013.1, Build901 2013/11/27)

>  <Rbt.Parameter_File>
/export/apps/rDock/src/rDock_2013.1_src/data/scripts/dock_solv.prm

>  <Rbt.Receptor>
prm/blind_docking_40.prm

>  <SCORE>
-22.7509

>  <SCORE.INTER>
-22.7509

>  <SCORE.INTER.CONST>
1

>  <SCORE.INTER.POLAR>
-2.01954

>  <SCORE.INTER.ROT>
0

>  <SCORE.INTER.SOLV>
11.3711

>  <SCORE.INTER.VDW>
-15.8258

>  <SCORE.INTER.norm>
-2.27509

>  <SCORE.INTRA>
0

>  <SCORE.INTRA.DIHEDRAL>
0

>  <SCORE.INTRA.DIHEDRAL.0>
0

>  <SCORE.INTRA.POLAR>
0

>  <SCORE.INTRA.POLAR.0>
0

>  <SCORE.INTRA.REPUL>
0

>  <SCORE.INTRA.REPUL.0>
0

>  <SCORE.INTRA.SOLV>
0

>  <SCORE.INTRA.SOLV.lig_0>
-16.9472

>  <SCORE.INTRA.VDW>
0

>  <SCORE.INTRA.VDW.0>
0

>  <SCORE.INTRA.norm>
0

>  <SCORE.RESTR>
0

>  <SCORE.RESTR.CAVITY>
0

>  <SCORE.RESTR.norm>
0

>  <SCORE.SYSTEM>
0

>  <SCORE.SYSTEM.CONST>
0

>  <SCORE.SYSTEM.DIHEDRAL>
0

>  <SCORE.SYSTEM.SOLV>
0

>  <SCORE.SYSTEM.norm>
0

>  <SCORE.heavy>
10

>  <SCORE.norm>
-2.27509

>  <RMSD>
2.893

$$$$
1y26_lig
 OpenBabel02141814133D
libRbt.so/2013.1/901 2013/11/27
 10 11  0  0  0  0  0  0  0  0999 V2000
   20.2627  -18.0400    6.1368 N   0  0  0  0  0  0  0  0  0  0  0  0
   19.2047  -18.8417    6.2816 C   0  0  0  0  0  0  0  0  0  0  0  0
   18.3446  -19.2516    5.3514 N   0  0  0  0  0  0  0  0  0  0  0  0
   18.6805  -18.7628    4.1363 C   0  0  0  0  0  0  0  0  0  0  0  0
   19.7468  -17.9387    3.8361 C   0  0  0  0  0  0  0  0  0  0  0  0
   20.5635  -17.5689    4.9089 C   0  0  0  0  0  0  0  0  0  0  0  0
   21.6040  -16.7689    4.7399 N   0  0  0  0  0  0  0  0  0  0  0  0
   19.7981  -17.6152    2.5001 N   0  0  0  0  0  0  0  0  0  0  0  0
   18.7721  -18.2785    1.9994 C   0  0  0  0  0  0  0  0  0  0  0  0
   18.0502  -18.9809    2.9402 N   0  0  0  0  0  0  0  0  0  0  0  0
  1  2  2  0  0  0  0
  2  3  1  0  0  0  0
  3  4  2  0  0  0  0
  5  4  1  0  0  0  0
  5  6  2  0  0  0  0
  6  1  1  0  0  0  0
  6  7  1  0  0  0  0
  8  5  1  0  0  0  0
  9  8  1  0  0  0  0
 10  4  1  0  0  0  0
 10  9  2  0  0  0  0
M  END
>  <CHROM.1>
19.50310941,-18.20459679,4.28471173,0.97175944,0.61742343,1.77366901

>  <Name>
1y26_lig

>  <RI>
224

>  <Rbt.Current_Directory>
/home/afrankz/demos/rdock_decoys_rna/rnas/1y26

>  <Rbt.Executable>
rbdock ($Id: //depot/dev/client3/rdock/2013.1/src/exe/rbdock.cxx#4 $)

>  <Rbt.Library>
libRbt.so (2013.1, Build901 2013/11/27)

>  <Rbt.Parameter_File>
/export/apps/rDock/src/rDock_2013.1_src/data/scripts/dock_solv.prm

>  <Rbt.Receptor>
prm/blind_docking_80.prm

>  <SCORE>
-22.7453

>  <SCORE.INTER>
-22.7453

>  <SCORE.INTER.CONST>
1

>  <SCORE.INTER.POLAR>
-2.0198

>  <SCORE.INTER.ROT>
0

>  <SCORE.INTER.SOLV>
11.4539

>  <SCORE.INTER.VDW>
-15.8488

>  <SCORE.INTER.norm>
-2.27453

>  <SCORE.INTRA>
0

>  <SCORE.INTRA.DIHEDRAL>
0

>  <SCORE.INTRA.DIHEDRAL.0>
0

>  <SCORE.INTRA.POLAR>
0

>  <SCORE.INTRA.POLAR.0>
0

>  <SCORE.INTRA.REPUL>
0

>  <SCORE.INTRA.REPUL.0>
0

>  <SCORE.INTRA.SOLV>
0

>  <SCORE.INTRA.SOLV.lig_0>
-16.9472

>  <SCORE.INTRA.VDW>
0

>  <SCORE.INTRA.VDW.0>
0

>  <SCORE.INTRA.norm>
0

>  <SCORE.RESTR>
0

>  <SCORE.RESTR.CAVITY>
0

>  <SCORE.RESTR.norm>
0

>  <SCORE.SYSTEM>
0

>  <SCORE.SYSTEM.CONST>
0

>  <SCORE.SYSTEM.DIHEDRAL>
0

>  <SCORE.SYSTEM.SOLV>
0

>  <SCORE.SYSTEM.norm>
0

>  <SCORE.heavy>
10

>  <SCORE.norm>
-2.27453

>  <RMSD>
2.893

$$$$
1y26_lig
 OpenBabel02141814133D
libRbt.so/2013.1/901 2013/11/27
 10 11  0  0  0  0  0  0  0  0999 V2000
   20.1913  -18.0096    6.1986 N   0  0  0  0  0  0  0  0  0  0  0  0
   19.1017  -18.7555    6.3976 C   0  0  0  0  0  0  0  0  0  0  0  0
   18.1783  -19.1228    5.5114 N   0  0  0  0  0  0  0  0  0  0  0  0
   18.4801  -18.6547    4.2793 C   0  0  0  0  0  0  0  0  0  0  0  0
   19.5717  -17.8872    3.9247 C   0  0  0  0  0  0  0  0  0  0  0  0
   20.4566  -17.5574    4.9555 C   0  0  0  0  0  0  0  0  0  0  0  0
   21.5274  -16.8123    4.7334 N   0  0  0  0  0  0  0  0  0  0  0  0
   19.5754  -17.5698    2.5862 N   0  0  0  0  0  0  0  0  0  0  0  0
   18.4940  -18.1807    2.1382 C   0  0  0  0  0  0  0  0  0  0  0  0
   17.7830  -18.8429    3.1157 N   0  0  0  0  0  0  0  0  0  0  0  0
  1  2  2  0  0  0  0
  2  3  1  0  0  0  0
  3  4  2  0  0  0  0
  5  4  1  0  0  0  0
  5  6  2  0  0  0  0
  6  1  1  0  0  0  0
  6  7  1  0  0  0  0
  8  5  1  0  0  0  0
  9  8  1  0  0  0  0
 10  4  1  0  0  0  0
 10  9  2  0  0  0  0
M  END
>  <CHROM.1>
19.33643273,-18.13919250,4.38566860,0.92864454,0.55711508,1.79405160

>  <Name>
1y26_lig

>  <RI>
224

>  <Rbt.Current_Directory>
/home/afrankz/demos/rdock_decoys_rna/rnas/1y26

>  <Rbt.Executable>
rbdock ($Id: //depot/dev/client3/rdock/2013.1/src/exe/rbdock.cxx#4 $)

>  <Rbt.Library>
libRbt.so (2013.1, Build901 2013/11/27)

>  <Rbt.Parameter_File>
/export/apps/rDock/src/rDock_2013.1_src/data/scripts/dock_solv.prm

>  <Rbt.Receptor>
prm/blind_docking_80.prm

>  <SCORE>
-22.7511

>  <SCORE.INTER>
-22.7511

>  <SCORE.INTER.CONST>
1

>  <SCORE.INTER.POLAR>
-2.0198

>  <SCORE.INTER.ROT>
0

>  <SCORE.INTER.SOLV>
11.4366

>  <SCORE.INTER.VDW>
-15.8469

>  <SCORE.INTER.norm>
-2.27511

>  <SCORE.INTRA>
0

>  <SCORE.INTRA.DIHEDRAL>
0

>  <SCORE.INTRA.DIHEDRAL.0>
0

>  <SCORE.INTRA.POLAR>
0

>  <SCORE.INTRA.POLAR.0>
0

>  <SCORE.INTRA.REPUL>
0

>  <SCORE.INTRA.REPUL.0>
0

>  <SCORE.INTRA.SOLV>
0

>  <SCORE.INTRA.SOLV.lig_0>
-16.9472

>  <SCORE.INTRA.VDW>
0

>  <SCORE.INTRA.VDW.0>
0

>  <SCORE.INTRA.norm>
0

>  <SCORE.RESTR>
0

>  <SCORE.RESTR.CAVITY>
0

>  <SCORE.RESTR.norm>
0

>  <SCORE.SYSTEM>
0

>  <SCORE.SYSTEM.CONST>
0

>  <SCORE.SYSTEM.DIHEDRAL>
0

>  <SCORE.SYSTEM.SOLV>
0

>  <SCORE.SYSTEM.norm>
0

>  <SCORE.heavy>
10

>  <SCORE.norm>
-2.27511

>  <RMSD>
2.898

$$$$
1y26_lig
 OpenBabel02141814133D
libRbt.so/2013.1/901 2013/11/27
 10 11  0  0  0  0  0  0  0  0999 V2000
   20.2514  -18.0627    6.2020 N   0  0  0  0  0  0  0  0  0  0  0  0
   19.1728  -18.8202    6.4166 C   0  0  0  0  0  0  0  0  0  0  0  0
   18.2239  -19.1714    5.5510 N   0  0  0  0  0  0  0  0  0  0  0  0
   18.4840  -18.6712    4.3221 C   0  0  0  0  0  0  0  0  0  0  0  0
   19.5595  -17.8882    3.9525 C   0  0  0  0  0  0  0  0  0  0  0  0
   20.4748  -17.5783    4.9628 C   0  0  0  0  0  0  0  0  0  0  0  0
   21.5339  -16.8213    4.7256 N   0  0  0  0  0  0  0  0  0  0  0  0
   19.5192  -17.5379    2.6228 N   0  0  0  0  0  0  0  0  0  0  0  0
   18.4275  -18.1444    2.1940 C   0  0  0  0  0  0  0  0  0  0  0  0
   17.7515  -18.8350    3.1766 N   0  0  0  0  0  0  0  0  0  0  0  0
  1  2  2  0  0  0  0
  2  3  1  0  0  0  0
  3  4  2  0  0  0  0
  5  4  1  0  0  0  0
  5  6  2  0  0  0  0
  6  1  1  0  0  0  0
  6  7  1  0  0  0  0
  8  5  1  0  0  0  0
  9  8  1  0  0  0  0
 10  4  1  0  0  0  0
 10  9  2  0  0  0  0
M  END
>  <CHROM.1>
19.34038305,-18.15299943,4.41422110,0.89091403,0.55521558,1.83871527

>  <Name>
1y26_lig

>  <RI>
0

>  <Rbt.Current_Directory>
/home/afrankz/demos/rdock_decoys_rna/rnas/1y26

>  <Rbt.Executable>
rbdock ($Id: //depot/dev/client3/rdock/2013.1/src/exe/rbdock.cxx#4 $)

>  <Rbt.Library>
libRbt.so (2013.1, Build901 2013/11/27)

>  <Rbt.Parameter_File>
/export/apps/rDock/src/rDock_2013.1_src/data/scripts/dock_solv.prm

>  <Rbt.Receptor>
prm/blind_docking_100.prm

>  <SCORE>
-22.765

>  <SCORE.INTER>
-22.765

>  <SCORE.INTER.CONST>
1

>  <SCORE.INTER.POLAR>
-2.0198

>  <SCORE.INTER.ROT>
0

>  <SCORE.INTER.SOLV>
11.5008

>  <SCORE.INTER.VDW>
-15.8776

>  <SCORE.INTER.norm>
-2.2765

>  <SCORE.INTRA>
0

>  <SCORE.INTRA.DIHEDRAL>
0

>  <SCORE.INTRA.DIHEDRAL.0>
0

>  <SCORE.INTRA.POLAR>
0

>  <SCORE.INTRA.POLAR.0>
0

>  <SCORE.INTRA.REPUL>
0

>  <SCORE.INTRA.REPUL.0>
0

>  <SCORE.INTRA.SOLV>
0

>  <SCORE.INTRA.SOLV.lig_0>
-16.9472

>  <SCORE.INTRA.VDW>
0

>  <SCORE.INTRA.VDW.0>
0

>  <SCORE.INTRA.norm>
0

>  <SCORE.RESTR>
0

>  <SCORE.RESTR.CAVITY>
0

>  <SCORE.RESTR.norm>
0

>  <SCORE.SYSTEM>
0

>  <SCORE.SYSTEM.CONST>
0

>  <SCORE.SYSTEM.DIHEDRAL>
0

>  <SCORE.SYSTEM.SOLV>
0

>  <SCORE.SYSTEM.norm>
0

>  <SCORE.heavy>
10

>  <SCORE.norm>
-2.2765

>  <RMSD>
2.900

$$$$
1y26_lig
 OpenBabel02141814133D
libRbt.so/2013.1/901 2013/11/27
 10 11  0  0  0  0  0  0  0  0999 V2000
   17.8577  -19.0397    4.0223 N   0  0  0  0  0  0  0  0  0  0  0  0
   18.3388  -19.1375    5.2641 C   0  0  0  0  0  0  0  0  0  0  0  0
   19.4188  -18.5545    5.7805 N   0  0  0  0  0  0  0  0  0  0  0  0
   20.0246  -17.7657    4.8645 C   0  0  0  0  0  0  0  0  0  0  0  0
   19.6356  -17.5594    3.5559 C   0  0  0  0  0  0  0  0  0  0  0  0
   18.4925  -18.2456    3.1353 C   0  0  0  0  0  0  0  0  0  0  0  0
   18.0384  -18.1357    1.8972 N   0  0  0  0  0  0  0  0  0  0  0  0
   20.4798  -16.7030    2.8879 N   0  0  0  0  0  0  0  0  0  0  0  0
   21.3581  -16.3746    3.8175 C   0  0  0  0  0  0  0  0  0  0  0  0
   21.1438  -16.9940    5.0299 N   0  0  0  0  0  0  0  0  0  0  0  0
  1  2  2  0  0  0  0
  2  3  1  0  0  0  0
  3  4  2  0  0  0  0
  5  4  1  0  0  0  0
  5  6  2  0  0  0  0
  6  1  1  0  0  0  0
  6  7  1  0  0  0  0
  8  5  1  0  0  0  0
  9  8  1  0  0  0  0
 10  4  1  0  0  0  0
 10  9  2  0  0  0  0
M  END
>  <CHROM.1>
19.47757170,-17.85212418,4.02566165,-3.05575468,-0.60517007,-1.21787308

>  <Name>
1y26_lig

>  <RI>
0

>  <Rbt.Current_Directory>
/home/afrankz/demos/rdock_decoys_rna/rnas/1y26

>  <Rbt.Executable>
rbdock ($Id: //depot/dev/client3/rdock/2013.1/src/exe/rbdock.cxx#4 $)

>  <Rbt.Library>
libRbt.so (2013.1, Build901 2013/11/27)

>  <Rbt.Parameter_File>
/export/apps/rDock/src/rDock_2013.1_src/data/scripts/dock_solv.prm

>  <Rbt.Receptor>
prm/blind_docking_100.prm

>  <SCORE>
-22.0801

>  <SCORE.INTER>
-22.0801

>  <SCORE.INTER.CONST>
1

>  <SCORE.INTER.POLAR>
-2.0198

>  <SCORE.INTER.ROT>
0

>  <SCORE.INTER.SOLV>
11.7492

>  <SCORE.INTER.VDW>
-15.5038

>  <SCORE.INTER.norm>
-2.20801

>  <SCORE.INTRA>
0

>  <SCORE.INTRA.DIHEDRAL>
0

>  <SCORE.INTRA.DIHEDRAL.0>
0

>  <SCORE.INTRA.POLAR>
0

>  <SCORE.INTRA.POLAR.0>
0

>  <SCORE.INTRA.REPUL>
0

>  <SCORE.INTRA.REPUL.0>
0

>  <SCORE.INTRA.SOLV>
0

>  <SCORE.INTRA.SOLV.lig_0>
-16.9472

>  <SCORE.INTRA.VDW>
0

>  <SCORE.INTRA.VDW.0>
0

>  <SCORE.INTRA.norm>
0

>  <SCORE.RESTR>
0

>  <SCORE.RESTR.CAVITY>
0

>  <SCORE.RESTR.norm>
0

>  <SCORE.SYSTEM>
0

>  <SCORE.SYSTEM.CONST>
0

>  <SCORE.SYSTEM.DIHEDRAL>
0

>  <SCORE.SYSTEM.SOLV>
0

>  <SCORE.SYSTEM.norm>
0

>  <SCORE.heavy>
10

>  <SCORE.norm>
-2.20801

>  <RMSD>
3.064

$$$$
1y26_lig
 OpenBabel02141814133D
libRbt.so/2013.1/901 2013/11/27
 10 11  0  0  0  0  0  0  0  0999 V2000
   17.8607  -19.0406    3.9718 N   0  0  0  0  0  0  0  0  0  0  0  0
   18.2814  -19.0745    5.2387 C   0  0  0  0  0  0  0  0  0  0  0  0
   19.3299  -18.4561    5.7784 N   0  0  0  0  0  0  0  0  0  0  0  0
   19.9729  -17.7048    4.8563 C   0  0  0  0  0  0  0  0  0  0  0  0
   19.6466  -17.5647    3.5221 C   0  0  0  0  0  0  0  0  0  0  0  0
   18.5312  -18.2824    3.0798 C   0  0  0  0  0  0  0  0  0  0  0  0
   18.1372  -18.2358    1.8174 N   0  0  0  0  0  0  0  0  0  0  0  0
   20.5150  -16.7316    2.8557 N   0  0  0  0  0  0  0  0  0  0  0  0
   21.3440  -16.3503    3.8100 C   0  0  0  0  0  0  0  0  0  0  0  0
   21.0761  -16.9142    5.0387 N   0  0  0  0  0  0  0  0  0  0  0  0
  1  2  2  0  0  0  0
  2  3  1  0  0  0  0
  3  4  2  0  0  0  0
  5  4  1  0  0  0  0
  5  6  2  0  0  0  0
  6  1  1  0  0  0  0
  6  7  1  0  0  0  0
  8  5  1  0  0  0  0
  9  8  1  0  0  0  0
 10  4  1  0  0  0  0
 10  9  2  0  0  0  0
M  END
>  <CHROM.1>
19.46826716,-17.83666269,3.99705291,-3.10880869,-0.62942805,-1.29600464

>  <Name>
1y26_lig

>  <RI>
224

>  <Rbt.Current_Directory>
/home/afrankz/demos/rdock_decoys_rna/rnas/1y26

>  <Rbt.Executable>
rbdock ($Id: //depot/dev/client3/rdock/2013.1/src/exe/rbdock.cxx#4 $)

>  <Rbt.Library>
libRbt.so (2013.1, Build901 2013/11/27)

>  <Rbt.Parameter_File>
/export/apps/rDock/src/rDock_2013.1_src/data/scripts/dock_solv.prm

>  <Rbt.Receptor>
prm/pocket_docking_6.prm

>  <SCORE>
-22.1438

>  <SCORE.INTER>
-22.1438

>  <SCORE.INTER.CONST>
1

>  <SCORE.INTER.POLAR>
-2.01745

>  <SCORE.INTER.ROT>
0

>  <SCORE.INTER.SOLV>
11.6248

>  <SCORE.INTER.VDW>
-15.5126

>  <SCORE.INTER.norm>
-2.21438

>  <SCORE.INTRA>
0

>  <SCORE.INTRA.DIHEDRAL>
0

>  <SCORE.INTRA.DIHEDRAL.0>
0

>  <SCORE.INTRA.POLAR>
0

>  <SCORE.INTRA.POLAR.0>
0

>  <SCORE.INTRA.REPUL>
0

>  <SCORE.INTRA.REPUL.0>
0

>  <SCORE.INTRA.SOLV>
0

>  <SCORE.INTRA.SOLV.lig_0>
-16.9472

>  <SCORE.INTRA.VDW>
0

>  <SCORE.INTRA.VDW.0>
0

>  <SCORE.INTRA.norm>
0

>  <SCORE.RESTR>
0

>  <SCORE.RESTR.CAVITY>
0

>  <SCORE.RESTR.norm>
0

>  <SCORE.SYSTEM>
0

>  <SCORE.SYSTEM.CONST>
0

>  <SCORE.SYSTEM.DIHEDRAL>
0

>  <SCORE.SYSTEM.SOLV>
0

>  <SCORE.SYSTEM.norm>
0

>  <SCORE.heavy>
10

>  <SCORE.norm>
-2.21438

>  <RMSD>
3.066

$$$$
1y26_lig
 OpenBabel02141814133D
libRbt.so/2013.1/901 2013/11/27
 10 11  0  0  0  0  0  0  0  0999 V2000
   17.8591  -19.0339    4.0000 N   0  0  0  0  0  0  0  0  0  0  0  0
   18.2898  -19.0675    5.2635 C   0  0  0  0  0  0  0  0  0  0  0  0
   19.3434  -18.4502    5.7944 N   0  0  0  0  0  0  0  0  0  0  0  0
   19.9801  -17.7004    4.8667 C   0  0  0  0  0  0  0  0  0  0  0  0
   19.6433  -17.5608    3.5350 C   0  0  0  0  0  0  0  0  0  0  0  0
   18.5235  -18.2772    3.1021 C   0  0  0  0  0  0  0  0  0  0  0  0
   18.1196  -18.2309    1.8428 N   0  0  0  0  0  0  0  0  0  0  0  0
   20.5076  -16.7293    2.8611 N   0  0  0  0  0  0  0  0  0  0  0  0
   21.3447  -16.3484    3.8086 C   0  0  0  0  0  0  0  0  0  0  0  0
   21.0858  -16.9111    5.0398 N   0  0  0  0  0  0  0  0  0  0  0  0
  1  2  2  0  0  0  0
  2  3  1  0  0  0  0
  3  4  2  0  0  0  0
  5  4  1  0  0  0  0
  5  6  2  0  0  0  0
  6  1  1  0  0  0  0
  6  7  1  0  0  0  0
  8  5  1  0  0  0  0
  9  8  1  0  0  0  0
 10  4  1  0  0  0  0
 10  9  2  0  0  0  0
M  END
>  <CHROM.1>
19.46845164,-17.83212720,4.01155339,-3.09981404,-0.62592328,-1.29140465

>  <Name>
1y26_lig

>  <RI>
0

>  <Rbt.Current_Directory>
/home/afrankz/demos/rdock_decoys_rna/rnas/1y26

>  <Rbt.Executable>
rbdock ($Id: //depot/dev/client3/rdock/2013.1/src/exe/rbdock.cxx#4 $)

>  <Rbt.Library>
libRbt.so (2013.1, Build901 2013/11/27)

>  <Rbt.Parameter_File>
/export/apps/rDock/src/rDock_2013.1_src/data/scripts/dock_solv.prm

>  <Rbt.Receptor>
prm/pocket_docking_5.prm

>  <SCORE>
-22.165

>  <SCORE.INTER>
-22.165

>  <SCORE.INTER.CONST>
1

>  <SCORE.INTER.POLAR>
-2.01951

>  <SCORE.INTER.ROT>
0

>  <SCORE.INTER.SOLV>
11.6286

>  <SCORE.INTER.VDW>
-15.5212

>  <SCORE.INTER.norm>
-2.2165

>  <SCORE.INTRA>
0

>  <SCORE.INTRA.DIHEDRAL>
0

>  <SCORE.INTRA.DIHEDRAL.0>
0

>  <SCORE.INTRA.POLAR>
0

>  <SCORE.INTRA.POLAR.0>
0

>  <SCORE.INTRA.REPUL>
0

>  <SCORE.INTRA.REPUL.0>
0

>  <SCORE.INTRA.SOLV>
0

>  <SCORE.INTRA.SOLV.lig_0>
-16.9472

>  <SCORE.INTRA.VDW>
0

>  <SCORE.INTRA.VDW.0>
0

>  <SCORE.INTRA.norm>
0

>  <SCORE.RESTR>
0

>  <SCORE.RESTR.CAVITY>
0

>  <SCORE.RESTR.norm>
0

>  <SCORE.SYSTEM>
0

>  <SCORE.SYSTEM.CONST>
0

>  <SCORE.SYSTEM.DIHEDRAL>
0

>  <SCORE.SYSTEM.SOLV>
0

>  <SCORE.SYSTEM.norm>
0

>  <SCORE.heavy>
10

>  <SCORE.norm>
-2.2165

>  <RMSD>
3.072

$$$$
1y26_lig
 OpenBabel02141814133D
libRbt.so/2013.1/901 2013/11/27
 10 11  0  0  0  0  0  0  0  0999 V2000
   17.8705  -19.0359    4.0148 N   0  0  0  0  0  0  0  0  0  0  0  0
   18.3387  -19.1077    5.2633 C   0  0  0  0  0  0  0  0  0  0  0  0
   19.4159  -18.5174    5.7774 N   0  0  0  0  0  0  0  0  0  0  0  0
   20.0340  -17.7517    4.8502 C   0  0  0  0  0  0  0  0  0  0  0  0
   19.6589  -17.5733    3.5334 C   0  0  0  0  0  0  0  0  0  0  0  0
   18.5173  -18.2643    3.1168 C   0  0  0  0  0  0  0  0  0  0  0  0
   18.0760  -18.1804    1.8720 N   0  0  0  0  0  0  0  0  0  0  0  0
   20.5132  -16.7353    2.8550 N   0  0  0  0  0  0  0  0  0  0  0  0
   21.3835  -16.3895    3.7858 C   0  0  0  0  0  0  0  0  0  0  0  0
   21.1547  -16.9809    5.0096 N   0  0  0  0  0  0  0  0  0  0  0  0
  1  2  2  0  0  0  0
  2  3  1  0  0  0  0
  3  4  2  0  0  0  0
  5  4  1  0  0  0  0
  5  6  2  0  0  0  0
  6  1  1  0  0  0  0
  6  7  1  0  0  0  0
  8  5  1  0  0  0  0
  9  8  1  0  0  0  0
 10  4  1  0  0  0  0
 10  9  2  0  0  0  0
M  END
>  <CHROM.1>
19.49502803,-17.85478240,4.00800501,-3.06885087,-0.60474801,-1.24769052

>  <Name>
1y26_lig

>  <RI>
224

>  <Rbt.Current_Directory>
/home/afrankz/demos/rdock_decoys_rna/rnas/1y26

>  <Rbt.Executable>
rbdock ($Id: //depot/dev/client3/rdock/2013.1/src/exe/rbdock.cxx#4 $)

>  <Rbt.Library>
libRbt.so (2013.1, Build901 2013/11/27)

>  <Rbt.Parameter_File>
/export/apps/rDock/src/rDock_2013.1_src/data/scripts/dock_solv.prm

>  <Rbt.Receptor>
prm/pocket_docking_7.prm

>  <SCORE>
-22.1318

>  <SCORE.INTER>
-22.1318

>  <SCORE.INTER.CONST>
1

>  <SCORE.INTER.POLAR>
-2.01942

>  <SCORE.INTER.ROT>
0

>  <SCORE.INTER.SOLV>
11.6973

>  <SCORE.INTER.VDW>
-15.5223

>  <SCORE.INTER.norm>
-2.21318

>  <SCORE.INTRA>
0

>  <SCORE.INTRA.DIHEDRAL>
0

>  <SCORE.INTRA.DIHEDRAL.0>
0

>  <SCORE.INTRA.POLAR>
0

>  <SCORE.INTRA.POLAR.0>
0

>  <SCORE.INTRA.REPUL>
0

>  <SCORE.INTRA.REPUL.0>
0

>  <SCORE.INTRA.SOLV>
0

>  <SCORE.INTRA.SOLV.lig_0>
-16.9472

>  <SCORE.INTRA.VDW>
0

>  <SCORE.INTRA.VDW.0>
0

>  <SCORE.INTRA.norm>
0

>  <SCORE.RESTR>
0

>  <SCORE.RESTR.CAVITY>
0

>  <SCORE.RESTR.norm>
0

>  <SCORE.SYSTEM>
0

>  <SCORE.SYSTEM.CONST>
0

>  <SCORE.SYSTEM.DIHEDRAL>
0

>  <SCORE.SYSTEM.SOLV>
0

>  <SCORE.SYSTEM.norm>
0

>  <SCORE.heavy>
10

>  <SCORE.norm>
-2.21318

>  <RMSD>
3.072

$$$$
1y26_lig
 OpenBabel02141814133D
libRbt.so/2013.1/901 2013/11/27
 10 11  0  0  0  0  0  0  0  0999 V2000
   17.8744  -19.0304    4.0117 N   0  0  0  0  0  0  0  0  0  0  0  0
   18.3467  -19.0993    5.2588 C   0  0  0  0  0  0  0  0  0  0  0  0
   19.4320  -18.5173    5.7650 N   0  0  0  0  0  0  0  0  0  0  0  0
   20.0546  -17.7639    4.8307 C   0  0  0  0  0  0  0  0  0  0  0  0
   19.6763  -17.5898    3.5143 C   0  0  0  0  0  0  0  0  0  0  0  0
   18.5259  -18.2714    3.1063 C   0  0  0  0  0  0  0  0  0  0  0  0
   18.0807  -18.1905    1.8628 N   0  0  0  0  0  0  0  0  0  0  0  0
   20.5368  -16.7651    2.8274 N   0  0  0  0  0  0  0  0  0  0  0  0
   21.4143  -16.4228    3.7527 C   0  0  0  0  0  0  0  0  0  0  0  0
   21.1839  -17.0040    4.9810 N   0  0  0  0  0  0  0  0  0  0  0  0
  1  2  2  0  0  0  0
  2  3  1  0  0  0  0
  3  4  2  0  0  0  0
  5  4  1  0  0  0  0
  5  6  2  0  0  0  0
  6  1  1  0  0  0  0
  6  7  1  0  0  0  0
  8  5  1  0  0  0  0
  9  8  1  0  0  0  0
 10  4  1  0  0  0  0
 10  9  2  0  0  0  0
M  END
>  <CHROM.1>
19.51130081,-17.86658987,3.99125920,-3.06847895,-0.59352689,-1.25374781

>  <Name>
1y26_lig

>  <RI>
0

>  <Rbt.Current_Directory>
/home/afrankz/demos/rdock_decoys_rna/rnas/1y26

>  <Rbt.Executable>
rbdock ($Id: //depot/dev/client3/rdock/2013.1/src/exe/rbdock.cxx#4 $)

>  <Rbt.Library>
libRbt.so (2013.1, Build901 2013/11/27)

>  <Rbt.Parameter_File>
/export/apps/rDock/src/rDock_2013.1_src/data/scripts/dock_solv.prm

>  <Rbt.Receptor>
prm/pocket_docking_8.prm

>  <SCORE>
-22.0507

>  <SCORE.INTER>
-22.0507

>  <SCORE.INTER.CONST>
1

>  <SCORE.INTER.POLAR>
-2.0198

>  <SCORE.INTER.ROT>
0

>  <SCORE.INTER.SOLV>
11.7024

>  <SCORE.INTER.VDW>
-15.4686

>  <SCORE.INTER.norm>
-2.20507

>  <SCORE.INTRA>
0

>  <SCORE.INTRA.DIHEDRAL>
0

>  <SCORE.INTRA.DIHEDRAL.0>
0

>  <SCORE.INTRA.POLAR>
0

>  <SCORE.INTRA.POLAR.0>
0

>  <SCORE.INTRA.REPUL>
0

>  <SCORE.INTRA.REPUL.0>
0

>  <SCORE.INTRA.SOLV>
0

>  <SCORE.INTRA.SOLV.lig_0>
-16.9472

>  <SCORE.INTRA.VDW>
0

>  <SCORE.INTRA.VDW.0>
0

>  <SCORE.INTRA.norm>
0

>  <SCORE.RESTR>
0

>  <SCORE.RESTR.CAVITY>
0

>  <SCORE.RESTR.norm>
0

>  <SCORE.SYSTEM>
0

>  <SCORE.SYSTEM.CONST>
0

>  <SCORE.SYSTEM.DIHEDRAL>
0

>  <SCORE.SYSTEM.SOLV>
0

>  <SCORE.SYSTEM.norm>
0

>  <SCORE.heavy>
10

>  <SCORE.norm>
-2.20507

>  <RMSD>
3.077

$$$$
1y26_lig
 OpenBabel02141814133D
libRbt.so/2013.1/901 2013/11/27
 10 11  0  0  0  0  0  0  0  0999 V2000
   18.4031  -19.5531    3.9949 N   0  0  0  0  0  0  0  0  0  0  0  0
   18.6562  -19.4572    5.3025 C   0  0  0  0  0  0  0  0  0  0  0  0
   19.3245  -18.5029    5.9473 N   0  0  0  0  0  0  0  0  0  0  0  0
   19.7387  -17.5423    5.0906 C   0  0  0  0  0  0  0  0  0  0  0  0
   19.5399  -17.5027    3.7249 C   0  0  0  0  0  0  0  0  0  0  0  0
   18.8364  -18.5765    3.1712 C   0  0  0  0  0  0  0  0  0  0  0  0
   18.6025  -18.6507    1.8708 N   0  0  0  0  0  0  0  0  0  0  0  0
   20.1009  -16.3877    3.1466 N   0  0  0  0  0  0  0  0  0  0  0  0
   20.6089  -15.7457    4.1826 C   0  0  0  0  0  0  0  0  0  0  0  0
   20.4335  -16.3990    5.3834 N   0  0  0  0  0  0  0  0  0  0  0  0
  1  2  2  0  0  0  0
  2  3  1  0  0  0  0
  3  4  2  0  0  0  0
  5  4  1  0  0  0  0
  5  6  2  0  0  0  0
  6  1  1  0  0  0  0
  6  7  1  0  0  0  0
  8  5  1  0  0  0  0
  9  8  1  0  0  0  0
 10  4  1  0  0  0  0
 10  9  2  0  0  0  0
M  END
>  <CHROM.1>
19.42373122,-17.83331990,4.18151359,-3.12602460,-1.03445332,-1.30705976

>  <Name>
1y26_lig

>  <RI>
0

>  <Rbt.Current_Directory>
/home/afrankz/demos/rdock_decoys_rna/rnas/1y26

>  <Rbt.Executable>
rbdock ($Id: //depot/dev/client3/rdock/2013.1/src/exe/rbdock.cxx#4 $)

>  <Rbt.Library>
libRbt.so (2013.1, Build901 2013/11/27)

>  <Rbt.Parameter_File>
/export/apps/rDock/src/rDock_2013.1_src/data/scripts/dock_solv.prm

>  <Rbt.Receptor>
prm/blind_docking_100.prm

>  <SCORE>
-22.4997

>  <SCORE.INTER>
-22.4997

>  <SCORE.INTER.CONST>
1

>  <SCORE.INTER.POLAR>
-1.97708

>  <SCORE.INTER.ROT>
0

>  <SCORE.INTER.SOLV>
12.2257

>  <SCORE.INTER.VDW>
-16.0847

>  <SCORE.INTER.norm>
-2.24997

>  <SCORE.INTRA>
0

>  <SCORE.INTRA.DIHEDRAL>
0

>  <SCORE.INTRA.DIHEDRAL.0>
0

>  <SCORE.INTRA.POLAR>
0

>  <SCORE.INTRA.POLAR.0>
0

>  <SCORE.INTRA.REPUL>
0

>  <SCORE.INTRA.REPUL.0>
0

>  <SCORE.INTRA.SOLV>
0

>  <SCORE.INTRA.SOLV.lig_0>
-16.9472

>  <SCORE.INTRA.VDW>
0

>  <SCORE.INTRA.VDW.0>
0

>  <SCORE.INTRA.norm>
0

>  <SCORE.RESTR>
0

>  <SCORE.RESTR.CAVITY>
0

>  <SCORE.RESTR.norm>
0

>  <SCORE.SYSTEM>
0

>  <SCORE.SYSTEM.CONST>
0

>  <SCORE.SYSTEM.DIHEDRAL>
0

>  <SCORE.SYSTEM.SOLV>
0

>  <SCORE.SYSTEM.norm>
0

>  <SCORE.heavy>
10

>  <SCORE.norm>
-2.24997

>  <RMSD>
3.079

$$$$
1y26_lig
 OpenBabel02141814133D
libRbt.so/2013.1/901 2013/11/27
 10 11  0  0  0  0  0  0  0  0999 V2000
   18.3968  -19.5429    4.0367 N   0  0  0  0  0  0  0  0  0  0  0  0
   18.6671  -19.4402    5.3404 C   0  0  0  0  0  0  0  0  0  0  0  0
   19.3458  -18.4837    5.9709 N   0  0  0  0  0  0  0  0  0  0  0  0
   19.7509  -17.5289    5.1035 C   0  0  0  0  0  0  0  0  0  0  0  0
   19.5345  -17.4966    3.7403 C   0  0  0  0  0  0  0  0  0  0  0  0
   18.8215  -18.5720    3.2019 C   0  0  0  0  0  0  0  0  0  0  0  0
   18.5705  -18.6531    1.9051 N   0  0  0  0  0  0  0  0  0  0  0  0
   20.0903  -16.3862    3.1484 N   0  0  0  0  0  0  0  0  0  0  0  0
   20.6132  -15.7395    4.1741 C   0  0  0  0  0  0  0  0  0  0  0  0
   20.4519  -16.3856    5.3807 N   0  0  0  0  0  0  0  0  0  0  0  0
  1  2  2  0  0  0  0
  2  3  1  0  0  0  0
  3  4  2  0  0  0  0
  5  4  1  0  0  0  0
  5  6  2  0  0  0  0
  6  1  1  0  0  0  0
  6  7  1  0  0  0  0
  8  5  1  0  0  0  0
  9  8  1  0  0  0  0
 10  4  1  0  0  0  0
 10  9  2  0  0  0  0
M  END
>  <CHROM.1>
19.42352278,-17.82440894,4.20026222,-3.10278629,-1.02884004,-1.29279762

>  <Name>
1y26_lig

>  <RI>
0

>  <Rbt.Current_Directory>
/home/afrankz/demos/rdock_decoys_rna/rnas/1y26

>  <Rbt.Executable>
rbdock ($Id: //depot/dev/client3/rdock/2013.1/src/exe/rbdock.cxx#4 $)

>  <Rbt.Library>
libRbt.so (2013.1, Build901 2013/11/27)

>  <Rbt.Parameter_File>
/export/apps/rDock/src/rDock_2013.1_src/data/scripts/dock_solv.prm

>  <Rbt.Receptor>
prm/blind_docking_100.prm

>  <SCORE>
-22.4916

>  <SCORE.INTER>
-22.4916

>  <SCORE.INTER.CONST>
1

>  <SCORE.INTER.POLAR>
-1.97808

>  <SCORE.INTER.ROT>
0

>  <SCORE.INTER.SOLV>
12.2274

>  <SCORE.INTER.VDW>
-16.0766

>  <SCORE.INTER.norm>
-2.24916

>  <SCORE.INTRA>
0

>  <SCORE.INTRA.DIHEDRAL>
0

>  <SCORE.INTRA.DIHEDRAL.0>
0

>  <SCORE.INTRA.POLAR>
0

>  <SCORE.INTRA.POLAR.0>
0

>  <SCORE.INTRA.REPUL>
0

>  <SCORE.INTRA.REPUL.0>
0

>  <SCORE.INTRA.SOLV>
0

>  <SCORE.INTRA.SOLV.lig_0>
-16.9472

>  <SCORE.INTRA.VDW>
0

>  <SCORE.INTRA.VDW.0>
0

>  <SCORE.INTRA.norm>
0

>  <SCORE.RESTR>
0

>  <SCORE.RESTR.CAVITY>
0

>  <SCORE.RESTR.norm>
0

>  <SCORE.SYSTEM>
0

>  <SCORE.SYSTEM.CONST>
0

>  <SCORE.SYSTEM.DIHEDRAL>
0

>  <SCORE.SYSTEM.SOLV>
0

>  <SCORE.SYSTEM.norm>
0

>  <SCORE.heavy>
10

>  <SCORE.norm>
-2.24916

>  <RMSD>
3.093

$$$$
1y26_lig
 OpenBabel02141814133D
libRbt.so/2013.1/901 2013/11/27
 10 11  0  0  0  0  0  0  0  0999 V2000
   18.3871  -19.5600    4.0413 N   0  0  0  0  0  0  0  0  0  0  0  0
   18.6683  -19.4604    5.3429 C   0  0  0  0  0  0  0  0  0  0  0  0
   19.3536  -18.5063    5.9698 N   0  0  0  0  0  0  0  0  0  0  0  0
   19.7531  -17.5503    5.1011 C   0  0  0  0  0  0  0  0  0  0  0  0
   19.5254  -17.5148    3.7397 C   0  0  0  0  0  0  0  0  0  0  0  0
   18.8064  -18.5879    3.2050 C   0  0  0  0  0  0  0  0  0  0  0  0
   18.5445  -18.6659    1.9102 N   0  0  0  0  0  0  0  0  0  0  0  0
   20.0781  -16.4040    3.1456 N   0  0  0  0  0  0  0  0  0  0  0  0
   20.6104  -15.7602    4.1683 C   0  0  0  0  0  0  0  0  0  0  0  0
   20.4581  -16.4086    5.3749 N   0  0  0  0  0  0  0  0  0  0  0  0
  1  2  2  0  0  0  0
  2  3  1  0  0  0  0
  3  4  2  0  0  0  0
  5  4  1  0  0  0  0
  5  6  2  0  0  0  0
  6  1  1  0  0  0  0
  6  7  1  0  0  0  0
  8  5  1  0  0  0  0
  9  8  1  0  0  0  0
 10  4  1  0  0  0  0
 10  9  2  0  0  0  0
M  END
>  <CHROM.1>
19.41777365,-17.84336579,4.19992838,-3.08828839,-1.02503933,-1.27829313

>  <Name>
1y26_lig

>  <RI>
0

>  <Rbt.Current_Directory>
/home/afrankz/demos/rdock_decoys_rna/rnas/1y26

>  <Rbt.Executable>
rbdock ($Id: //depot/dev/client3/rdock/2013.1/src/exe/rbdock.cxx#4 $)

>  <Rbt.Library>
libRbt.so (2013.1, Build901 2013/11/27)

>  <Rbt.Parameter_File>
/export/apps/rDock/src/rDock_2013.1_src/data/scripts/dock_solv.prm

>  <Rbt.Receptor>
prm/blind_docking_100.prm

>  <SCORE>
-22.5066

>  <SCORE.INTER>
-22.5066

>  <SCORE.INTER.CONST>
1

>  <SCORE.INTER.POLAR>
-1.98902

>  <SCORE.INTER.ROT>
0

>  <SCORE.INTER.SOLV>
12.2569

>  <SCORE.INTER.VDW>
-16.0599

>  <SCORE.INTER.norm>
-2.25066

>  <SCORE.INTRA>
0

>  <SCORE.INTRA.DIHEDRAL>
0

>  <SCORE.INTRA.DIHEDRAL.0>
0

>  <SCORE.INTRA.POLAR>
0

>  <SCORE.INTRA.POLAR.0>
0

>  <SCORE.INTRA.REPUL>
0

>  <SCORE.INTRA.REPUL.0>
0

>  <SCORE.INTRA.SOLV>
0

>  <SCORE.INTRA.SOLV.lig_0>
-16.9472

>  <SCORE.INTRA.VDW>
0

>  <SCORE.INTRA.VDW.0>
0

>  <SCORE.INTRA.norm>
0

>  <SCORE.RESTR>
0

>  <SCORE.RESTR.CAVITY>
0

>  <SCORE.RESTR.norm>
0

>  <SCORE.SYSTEM>
0

>  <SCORE.SYSTEM.CONST>
0

>  <SCORE.SYSTEM.DIHEDRAL>
0

>  <SCORE.SYSTEM.SOLV>
0

>  <SCORE.SYSTEM.norm>
0

>  <SCORE.heavy>
10

>  <SCORE.norm>
-2.25066

>  <RMSD>
3.094

$$$$
1y26_lig
 OpenBabel02141814133D
libRbt.so/2013.1/901 2013/11/27
 10 11  0  0  0  0  0  0  0  0999 V2000
   18.3995  -19.5625    4.0242 N   0  0  0  0  0  0  0  0  0  0  0  0
   18.5940  -19.3979    5.3350 C   0  0  0  0  0  0  0  0  0  0  0  0
   19.2560  -18.4240    5.9565 N   0  0  0  0  0  0  0  0  0  0  0  0
   19.7341  -17.5237    5.0682 C   0  0  0  0  0  0  0  0  0  0  0  0
   19.6001  -17.5577    3.6944 C   0  0  0  0  0  0  0  0  0  0  0  0
   18.8956  -18.6448    3.1687 C   0  0  0  0  0  0  0  0  0  0  0  0
   18.7204  -18.7878    1.8649 N   0  0  0  0  0  0  0  0  0  0  0  0
   20.2159  -16.4908    3.0822 N   0  0  0  0  0  0  0  0  0  0  0  0
   20.6916  -15.8026    4.1037 C   0  0  0  0  0  0  0  0  0  0  0  0
   20.4438  -16.3820    5.3294 N   0  0  0  0  0  0  0  0  0  0  0  0
  1  2  2  0  0  0  0
  2  3  1  0  0  0  0
  3  4  2  0  0  0  0
  5  4  1  0  0  0  0
  5  6  2  0  0  0  0
  6  1  1  0  0  0  0
  6  7  1  0  0  0  0
  8  5  1  0  0  0  0
  9  8  1  0  0  0  0
 10  4  1  0  0  0  0
 10  9  2  0  0  0  0
M  END
>  <CHROM.1>
19.45434210,-17.85889505,4.16279325,3.05863078,-1.01948742,-1.44800983

>  <Name>
1y26_lig

>  <RI>
0

>  <Rbt.Current_Directory>
/home/afrankz/demos/rdock_decoys_rna/rnas/1y26

>  <Rbt.Executable>
rbdock ($Id: //depot/dev/client3/rdock/2013.1/src/exe/rbdock.cxx#4 $)

>  <Rbt.Library>
libRbt.so (2013.1, Build901 2013/11/27)

>  <Rbt.Parameter_File>
/export/apps/rDock/src/rDock_2013.1_src/data/scripts/dock_solv.prm

>  <Rbt.Receptor>
prm/blind_docking_40.prm

>  <SCORE>
-22.5005

>  <SCORE.INTER>
-22.5005

>  <SCORE.INTER.CONST>
1

>  <SCORE.INTER.POLAR>
-2.00584

>  <SCORE.INTER.ROT>
0

>  <SCORE.INTER.SOLV>
12.0927

>  <SCORE.INTER.VDW>
-15.9451

>  <SCORE.INTER.norm>
-2.25005

>  <SCORE.INTRA>
0

>  <SCORE.INTRA.DIHEDRAL>
0

>  <SCORE.INTRA.DIHEDRAL.0>
0

>  <SCORE.INTRA.POLAR>
0

>  <SCORE.INTRA.POLAR.0>
0

>  <SCORE.INTRA.REPUL>
0

>  <SCORE.INTRA.REPUL.0>
0

>  <SCORE.INTRA.SOLV>
0

>  <SCORE.INTRA.SOLV.lig_0>
-16.9472

>  <SCORE.INTRA.VDW>
0

>  <SCORE.INTRA.VDW.0>
0

>  <SCORE.INTRA.norm>
0

>  <SCORE.RESTR>
0

>  <SCORE.RESTR.CAVITY>
0

>  <SCORE.RESTR.norm>
0

>  <SCORE.SYSTEM>
0

>  <SCORE.SYSTEM.CONST>
0

>  <SCORE.SYSTEM.DIHEDRAL>
0

>  <SCORE.SYSTEM.SOLV>
0

>  <SCORE.SYSTEM.norm>
0

>  <SCORE.heavy>
10

>  <SCORE.norm>
-2.25005

>  <RMSD>
3.098

$$$$
1y26_lig
 OpenBabel02141814133D
libRbt.so/2013.1/901 2013/11/27
 10 11  0  0  0  0  0  0  0  0999 V2000
   18.4119  -19.5741    4.0304 N   0  0  0  0  0  0  0  0  0  0  0  0
   18.6252  -19.4205    5.3397 C   0  0  0  0  0  0  0  0  0  0  0  0
   19.2925  -18.4495    5.9601 N   0  0  0  0  0  0  0  0  0  0  0  0
   19.7539  -17.5394    5.0730 C   0  0  0  0  0  0  0  0  0  0  0  0
   19.5997  -17.5616    3.7011 C   0  0  0  0  0  0  0  0  0  0  0  0
   18.8918  -18.6468    3.1761 C   0  0  0  0  0  0  0  0  0  0  0  0
   18.6979  -18.7788    1.8737 N   0  0  0  0  0  0  0  0  0  0  0  0
   20.2022  -16.4867    3.0895 N   0  0  0  0  0  0  0  0  0  0  0  0
   20.6903  -15.8058    4.1101 C   0  0  0  0  0  0  0  0  0  0  0  0
   20.4629  -16.3972    5.3340 N   0  0  0  0  0  0  0  0  0  0  0  0
  1  2  2  0  0  0  0
  2  3  1  0  0  0  0
  3  4  2  0  0  0  0
  5  4  1  0  0  0  0
  5  6  2  0  0  0  0
  6  1  1  0  0  0  0
  6  7  1  0  0  0  0
  8  5  1  0  0  0  0
  9  8  1  0  0  0  0
 10  4  1  0  0  0  0
 10  9  2  0  0  0  0
M  END
>  <CHROM.1>
19.46207107,-17.86756486,4.16885988,3.08761463,-1.02137821,-1.41431518

>  <Name>
1y26_lig

>  <RI>
224

>  <Rbt.Current_Directory>
/home/afrankz/demos/rdock_decoys_rna/rnas/1y26

>  <Rbt.Executable>
rbdock ($Id: //depot/dev/client3/rdock/2013.1/src/exe/rbdock.cxx#4 $)

>  <Rbt.Library>
libRbt.so (2013.1, Build901 2013/11/27)

>  <Rbt.Parameter_File>
/export/apps/rDock/src/rDock_2013.1_src/data/scripts/dock_solv.prm

>  <Rbt.Receptor>
prm/blind_docking_80.prm

>  <SCORE>
-22.5268

>  <SCORE.INTER>
-22.5268

>  <SCORE.INTER.CONST>
1

>  <SCORE.INTER.POLAR>
-2.00656

>  <SCORE.INTER.ROT>
0

>  <SCORE.INTER.SOLV>
12.1213

>  <SCORE.INTER.VDW>
-15.9697

>  <SCORE.INTER.norm>
-2.25268

>  <SCORE.INTRA>
0

>  <SCORE.INTRA.DIHEDRAL>
0

>  <SCORE.INTRA.DIHEDRAL.0>
0

>  <SCORE.INTRA.POLAR>
0

>  <SCORE.INTRA.POLAR.0>
0

>  <SCORE.INTRA.REPUL>
0

>  <SCORE.INTRA.REPUL.0>
0

>  <SCORE.INTRA.SOLV>
0

>  <SCORE.INTRA.SOLV.lig_0>
-16.9472

>  <SCORE.INTRA.VDW>
0

>  <SCORE.INTRA.VDW.0>
0

>  <SCORE.INTRA.norm>
0

>  <SCORE.RESTR>
0

>  <SCORE.RESTR.CAVITY>
0

>  <SCORE.RESTR.norm>
0

>  <SCORE.SYSTEM>
0

>  <SCORE.SYSTEM.CONST>
0

>  <SCORE.SYSTEM.DIHEDRAL>
0

>  <SCORE.SYSTEM.SOLV>
0

>  <SCORE.SYSTEM.norm>
0

>  <SCORE.heavy>
10

>  <SCORE.norm>
-2.25268

>  <RMSD>
3.100

$$$$
1y26_lig
 OpenBabel02141814133D
libRbt.so/2013.1/901 2013/11/27
 10 11  0  0  0  0  0  0  0  0999 V2000
   18.4802  -19.5811    4.0562 N   0  0  0  0  0  0  0  0  0  0  0  0
   18.7327  -19.4479    5.3606 C   0  0  0  0  0  0  0  0  0  0  0  0
   19.3802  -18.4636    5.9809 N   0  0  0  0  0  0  0  0  0  0  0  0
   19.7717  -17.5149    5.1006 C   0  0  0  0  0  0  0  0  0  0  0  0
   19.5704  -17.5128    3.7347 C   0  0  0  0  0  0  0  0  0  0  0  0
   18.8905  -18.6151    3.2083 C   0  0  0  0  0  0  0  0  0  0  0  0
   18.6566  -18.7260    1.9106 N   0  0  0  0  0  0  0  0  0  0  0  0
   20.1055  -16.3998    3.1287 N   0  0  0  0  0  0  0  0  0  0  0  0
   20.6003  -15.7218    4.1480 C   0  0  0  0  0  0  0  0  0  0  0  0
   20.4410  -16.3497    5.3645 N   0  0  0  0  0  0  0  0  0  0  0  0
  1  2  2  0  0  0  0
  2  3  1  0  0  0  0
  3  4  2  0  0  0  0
  5  4  1  0  0  0  0
  5  6  2  0  0  0  0
  6  1  1  0  0  0  0
  6  7  1  0  0  0  0
  8  5  1  0  0  0  0
  9  8  1  0  0  0  0
 10  4  1  0  0  0  0
 10  9  2  0  0  0  0
M  END
>  <CHROM.1>
19.46222007,-17.83481890,4.19937173,-3.11168628,-1.05574767,-1.31879769

>  <Name>
1y26_lig

>  <RI>
224

>  <Rbt.Current_Directory>
/home/afrankz/demos/rdock_decoys_rna/rnas/1y26

>  <Rbt.Executable>
rbdock ($Id: //depot/dev/client3/rdock/2013.1/src/exe/rbdock.cxx#4 $)

>  <Rbt.Library>
libRbt.so (2013.1, Build901 2013/11/27)

>  <Rbt.Parameter_File>
/export/apps/rDock/src/rDock_2013.1_src/data/scripts/dock_solv.prm

>  <Rbt.Receptor>
prm/blind_docking_80.prm

>  <SCORE>
-22.4585

>  <SCORE.INTER>
-22.4585

>  <SCORE.INTER.CONST>
1

>  <SCORE.INTER.POLAR>
-1.98304

>  <SCORE.INTER.ROT>
0

>  <SCORE.INTER.SOLV>
12.282

>  <SCORE.INTER.VDW>
-16.0562

>  <SCORE.INTER.norm>
-2.24585

>  <SCORE.INTRA>
0

>  <SCORE.INTRA.DIHEDRAL>
0

>  <SCORE.INTRA.DIHEDRAL.0>
0

>  <SCORE.INTRA.POLAR>
0

>  <SCORE.INTRA.POLAR.0>
0

>  <SCORE.INTRA.REPUL>
0

>  <SCORE.INTRA.REPUL.0>
0

>  <SCORE.INTRA.SOLV>
0

>  <SCORE.INTRA.SOLV.lig_0>
-16.9472

>  <SCORE.INTRA.VDW>
0

>  <SCORE.INTRA.VDW.0>
0

>  <SCORE.INTRA.norm>
0

>  <SCORE.RESTR>
0

>  <SCORE.RESTR.CAVITY>
0

>  <SCORE.RESTR.norm>
0

>  <SCORE.SYSTEM>
0

>  <SCORE.SYSTEM.CONST>
0

>  <SCORE.SYSTEM.DIHEDRAL>
0

>  <SCORE.SYSTEM.SOLV>
0

>  <SCORE.SYSTEM.norm>
0

>  <SCORE.heavy>
10

>  <SCORE.norm>
-2.24585

>  <RMSD>
3.108

$$$$
1y26_lig
 OpenBabel02141814133D
libRbt.so/2013.1/901 2013/11/27
 10 11  0  0  0  0  0  0  0  0999 V2000
   18.0053  -19.1285    3.9781 N   0  0  0  0  0  0  0  0  0  0  0  0
   18.4007  -19.0510    5.2511 C   0  0  0  0  0  0  0  0  0  0  0  0
   19.4221  -18.3642    5.7590 N   0  0  0  0  0  0  0  0  0  0  0  0
   20.0647  -17.6711    4.7921 C   0  0  0  0  0  0  0  0  0  0  0  0
   19.7622  -17.6456    3.4452 C   0  0  0  0  0  0  0  0  0  0  0  0
   18.6745  -18.4254    3.0410 C   0  0  0  0  0  0  0  0  0  0  0  0
   18.3053  -18.4892    1.7719 N   0  0  0  0  0  0  0  0  0  0  0  0
   20.6228  -16.8448    2.7307 N   0  0  0  0  0  0  0  0  0  0  0  0
   21.4223  -16.3673    3.6668 C   0  0  0  0  0  0  0  0  0  0  0  0
   21.1437  -16.8394    4.9313 N   0  0  0  0  0  0  0  0  0  0  0  0
  1  2  2  0  0  0  0
  2  3  1  0  0  0  0
  3  4  2  0  0  0  0
  5  4  1  0  0  0  0
  5  6  2  0  0  0  0
  6  1  1  0  0  0  0
  6  7  1  0  0  0  0
  8  5  1  0  0  0  0
  9  8  1  0  0  0  0
 10  4  1  0  0  0  0
 10  9  2  0  0  0  0
M  END
>  <CHROM.1>
19.58115397,-17.88382714,3.93695102,-3.12497572,-0.65910865,-1.38502930

>  <Name>
1y26_lig

>  <RI>
0

>  <Rbt.Current_Directory>
/home/afrankz/demos/rdock_decoys_rna/rnas/1y26

>  <Rbt.Executable>
rbdock ($Id: //depot/dev/client3/rdock/2013.1/src/exe/rbdock.cxx#4 $)

>  <Rbt.Library>
libRbt.so (2013.1, Build901 2013/11/27)

>  <Rbt.Parameter_File>
/export/apps/rDock/src/rDock_2013.1_src/data/scripts/dock_solv.prm

>  <Rbt.Receptor>
prm/blind_docking_100.prm

>  <SCORE>
-21.8778

>  <SCORE.INTER>
-21.8778

>  <SCORE.INTER.CONST>
1

>  <SCORE.INTER.POLAR>
-2.04212

>  <SCORE.INTER.ROT>
0

>  <SCORE.INTER.SOLV>
11.5989

>  <SCORE.INTER.VDW>
-15.2444

>  <SCORE.INTER.norm>
-2.18778

>  <SCORE.INTRA>
0

>  <SCORE.INTRA.DIHEDRAL>
0

>  <SCORE.INTRA.DIHEDRAL.0>
0

>  <SCORE.INTRA.POLAR>
0

>  <SCORE.INTRA.POLAR.0>
0

>  <SCORE.INTRA.REPUL>
0

>  <SCORE.INTRA.REPUL.0>
0

>  <SCORE.INTRA.SOLV>
0

>  <SCORE.INTRA.SOLV.lig_0>
-16.9472

>  <SCORE.INTRA.VDW>
0

>  <SCORE.INTRA.VDW.0>
0

>  <SCORE.INTRA.norm>
0

>  <SCORE.RESTR>
0

>  <SCORE.RESTR.CAVITY>
0

>  <SCORE.RESTR.norm>
0

>  <SCORE.SYSTEM>
0

>  <SCORE.SYSTEM.CONST>
0

>  <SCORE.SYSTEM.DIHEDRAL>
0

>  <SCORE.SYSTEM.SOLV>
0

>  <SCORE.SYSTEM.norm>
0

>  <SCORE.heavy>
10

>  <SCORE.norm>
-2.18778

>  <RMSD>
3.126

$$$$
1y26_lig
 OpenBabel02141814133D
libRbt.so/2013.1/901 2013/11/27
 10 11  0  0  0  0  0  0  0  0999 V2000
   18.1525  -19.2733    3.9685 N   0  0  0  0  0  0  0  0  0  0  0  0
   18.5009  -19.1435    5.2510 C   0  0  0  0  0  0  0  0  0  0  0  0
   19.4476  -18.3681    5.7760 N   0  0  0  0  0  0  0  0  0  0  0  0
   20.0618  -17.6410    4.8157 C   0  0  0  0  0  0  0  0  0  0  0  0
   19.8000  -17.6617    3.4602 C   0  0  0  0  0  0  0  0  0  0  0  0
   18.7916  -18.5335    3.0387 C   0  0  0  0  0  0  0  0  0  0  0  0
   18.4680  -18.6475    1.7606 N   0  0  0  0  0  0  0  0  0  0  0  0
   20.6150  -16.8055    2.7567 N   0  0  0  0  0  0  0  0  0  0  0  0
   21.3442  -16.2497    3.7069 C   0  0  0  0  0  0  0  0  0  0  0  0
   21.0656  -16.7224    4.9712 N   0  0  0  0  0  0  0  0  0  0  0  0
  1  2  2  0  0  0  0
  2  3  1  0  0  0  0
  3  4  2  0  0  0  0
  5  4  1  0  0  0  0
  5  6  2  0  0  0  0
  6  1  1  0  0  0  0
  6  7  1  0  0  0  0
  8  5  1  0  0  0  0
  9  8  1  0  0  0  0
 10  4  1  0  0  0  0
 10  9  2  0  0  0  0
M  END
>  <CHROM.1>
19.62359478,-17.90589104,3.95075443,3.13716536,-0.74391424,-1.41599290

>  <Name>
1y26_lig

>  <RI>
0

>  <Rbt.Current_Directory>
/home/afrankz/demos/rdock_decoys_rna/rnas/1y26

>  <Rbt.Executable>
rbdock ($Id: //depot/dev/client3/rdock/2013.1/src/exe/rbdock.cxx#4 $)

>  <Rbt.Library>
libRbt.so (2013.1, Build901 2013/11/27)

>  <Rbt.Parameter_File>
/export/apps/rDock/src/rDock_2013.1_src/data/scripts/dock_solv.prm

>  <Rbt.Receptor>
prm/blind_docking_60.prm

>  <SCORE>
-21.9396

>  <SCORE.INTER>
-21.9396

>  <SCORE.INTER.CONST>
1

>  <SCORE.INTER.POLAR>
-2.02002

>  <SCORE.INTER.ROT>
0

>  <SCORE.INTER.SOLV>
11.6855

>  <SCORE.INTER.VDW>
-15.3882

>  <SCORE.INTER.norm>
-2.19396

>  <SCORE.INTRA>
0

>  <SCORE.INTRA.DIHEDRAL>
0

>  <SCORE.INTRA.DIHEDRAL.0>
0

>  <SCORE.INTRA.POLAR>
0

>  <SCORE.INTRA.POLAR.0>
0

>  <SCORE.INTRA.REPUL>
0

>  <SCORE.INTRA.REPUL.0>
0

>  <SCORE.INTRA.SOLV>
0

>  <SCORE.INTRA.SOLV.lig_0>
-16.9472

>  <SCORE.INTRA.VDW>
0

>  <SCORE.INTRA.VDW.0>
0

>  <SCORE.INTRA.norm>
0

>  <SCORE.RESTR>
0

>  <SCORE.RESTR.CAVITY>
0

>  <SCORE.RESTR.norm>
0

>  <SCORE.SYSTEM>
0

>  <SCORE.SYSTEM.CONST>
0

>  <SCORE.SYSTEM.DIHEDRAL>
0

>  <SCORE.SYSTEM.SOLV>
0

>  <SCORE.SYSTEM.norm>
0

>  <SCORE.heavy>
10

>  <SCORE.norm>
-2.19396

>  <RMSD>
3.140

$$$$
1y26_lig
 OpenBabel02141814133D
libRbt.so/2013.1/901 2013/11/27
 10 11  0  0  0  0  0  0  0  0999 V2000
   19.8458  -18.9329    5.4012 N   0  0  0  0  0  0  0  0  0  0  0  0
   18.8760  -19.1756    4.5159 C   0  0  0  0  0  0  0  0  0  0  0  0
   17.5642  -19.2575    4.7287 N   0  0  0  0  0  0  0  0  0  0  0  0
   17.2719  -19.0283    6.0288 C   0  0  0  0  0  0  0  0  0  0  0  0
   18.1636  -18.7539    7.0467 C   0  0  0  0  0  0  0  0  0  0  0  0
   19.5149  -18.7130    6.6905 C   0  0  0  0  0  0  0  0  0  0  0  0
   20.4578  -18.4751    7.5879 N   0  0  0  0  0  0  0  0  0  0  0  0
   17.5367  -18.5813    8.2589 N   0  0  0  0  0  0  0  0  0  0  0  0
   16.2607  -18.7235    7.9507 C   0  0  0  0  0  0  0  0  0  0  0  0
   16.0372  -19.0076    6.6207 N   0  0  0  0  0  0  0  0  0  0  0  0
  1  2  2  0  0  0  0
  2  3  1  0  0  0  0
  3  4  2  0  0  0  0
  5  4  1  0  0  0  0
  5  6  2  0  0  0  0
  6  1  1  0  0  0  0
  6  7  1  0  0  0  0
  8  5  1  0  0  0  0
  9  8  1  0  0  0  0
 10  4  1  0  0  0  0
 10  9  2  0  0  0  0
M  END
>  <CHROM.1>
18.15418996,-18.86510149,6.48196419,0.44594943,-0.07812711,-1.75983155

>  <Name>
1y26_lig

>  <RI>
0

>  <Rbt.Current_Directory>
/home/afrankz/demos/rdock_decoys_rna/rnas/1y26

>  <Rbt.Executable>
rbdock ($Id: //depot/dev/client3/rdock/2013.1/src/exe/rbdock.cxx#4 $)

>  <Rbt.Library>
libRbt.so (2013.1, Build901 2013/11/27)

>  <Rbt.Parameter_File>
/export/apps/rDock/src/rDock_2013.1_src/data/scripts/dock_solv.prm

>  <Rbt.Receptor>
prm/blind_docking_60.prm

>  <SCORE>
-8.33162

>  <SCORE.INTER>
-8.33162

>  <SCORE.INTER.CONST>
1

>  <SCORE.INTER.POLAR>
-1.80636

>  <SCORE.INTER.ROT>
0

>  <SCORE.INTER.SOLV>
15.6466

>  <SCORE.INTER.VDW>
-8.34875

>  <SCORE.INTER.norm>
-0.833162

>  <SCORE.INTRA>
0

>  <SCORE.INTRA.DIHEDRAL>
0

>  <SCORE.INTRA.DIHEDRAL.0>
0

>  <SCORE.INTRA.POLAR>
0

>  <SCORE.INTRA.POLAR.0>
0

>  <SCORE.INTRA.REPUL>
0

>  <SCORE.INTRA.REPUL.0>
0

>  <SCORE.INTRA.SOLV>
0

>  <SCORE.INTRA.SOLV.lig_0>
-16.9472

>  <SCORE.INTRA.VDW>
0

>  <SCORE.INTRA.VDW.0>
0

>  <SCORE.INTRA.norm>
0

>  <SCORE.RESTR>
0

>  <SCORE.RESTR.CAVITY>
0

>  <SCORE.RESTR.norm>
0

>  <SCORE.SYSTEM>
0

>  <SCORE.SYSTEM.CONST>
0

>  <SCORE.SYSTEM.DIHEDRAL>
0

>  <SCORE.SYSTEM.SOLV>
0

>  <SCORE.SYSTEM.norm>
0

>  <SCORE.heavy>
10

>  <SCORE.norm>
-0.833162

>  <RMSD>
3.273

$$$$
1y26_lig
 OpenBabel02141814133D
libRbt.so/2013.1/901 2013/11/27
 10 11  0  0  0  0  0  0  0  0999 V2000
   19.3075  -17.9475    5.6365 N   0  0  0  0  0  0  0  0  0  0  0  0
   20.3864  -17.2594    5.2550 C   0  0  0  0  0  0  0  0  0  0  0  0
   20.8453  -17.0587    4.0213 N   0  0  0  0  0  0  0  0  0  0  0  0
   20.0386  -17.6424    3.1066 C   0  0  0  0  0  0  0  0  0  0  0  0
   18.8909  -18.3696    3.3522 C   0  0  0  0  0  0  0  0  0  0  0  0
   18.5292  -18.5193    4.6943 C   0  0  0  0  0  0  0  0  0  0  0  0
   17.4573  -19.2105    5.0469 N   0  0  0  0  0  0  0  0  0  0  0  0
   18.3098  -18.8362    2.1960 N   0  0  0  0  0  0  0  0  0  0  0  0
   19.1023  -18.3550    1.2559 C   0  0  0  0  0  0  0  0  0  0  0  0
   20.1719  -17.6355    1.7436 N   0  0  0  0  0  0  0  0  0  0  0  0
  1  2  2  0  0  0  0
  2  3  1  0  0  0  0
  3  4  2  0  0  0  0
  5  4  1  0  0  0  0
  5  6  2  0  0  0  0
  6  1  1  0  0  0  0
  6  7  1  0  0  0  0
  8  5  1  0  0  0  0
  9  8  1  0  0  0  0
 10  4  1  0  0  0  0
 10  9  2  0  0  0  0
M  END
>  <CHROM.1>
19.30417014,-18.08328650,3.63250600,-1.68587378,-0.57977274,-1.63494960

>  <Name>
1y26_lig

>  <RI>
0

>  <Rbt.Current_Directory>
/home/afrankz/demos/rdock_decoys_rna/rnas/1y26

>  <Rbt.Executable>
rbdock ($Id: //depot/dev/client3/rdock/2013.1/src/exe/rbdock.cxx#4 $)

>  <Rbt.Library>
libRbt.so (2013.1, Build901 2013/11/27)

>  <Rbt.Parameter_File>
/export/apps/rDock/src/rDock_2013.1_src/data/scripts/dock_solv.prm

>  <Rbt.Receptor>
prm/blind_docking_100.prm

>  <SCORE>
-18.4048

>  <SCORE.INTER>
-18.4048

>  <SCORE.INTER.CONST>
1

>  <SCORE.INTER.POLAR>
-2.13685

>  <SCORE.INTER.ROT>
0

>  <SCORE.INTER.SOLV>
11.4452

>  <SCORE.INTER.VDW>
-12.5621

>  <SCORE.INTER.norm>
-1.84048

>  <SCORE.INTRA>
0

>  <SCORE.INTRA.DIHEDRAL>
0

>  <SCORE.INTRA.DIHEDRAL.0>
0

>  <SCORE.INTRA.POLAR>
0

>  <SCORE.INTRA.POLAR.0>
0

>  <SCORE.INTRA.REPUL>
0

>  <SCORE.INTRA.REPUL.0>
0

>  <SCORE.INTRA.SOLV>
0

>  <SCORE.INTRA.SOLV.lig_0>
-16.9472

>  <SCORE.INTRA.VDW>
0

>  <SCORE.INTRA.VDW.0>
0

>  <SCORE.INTRA.norm>
0

>  <SCORE.RESTR>
0

>  <SCORE.RESTR.CAVITY>
0

>  <SCORE.RESTR.norm>
0

>  <SCORE.SYSTEM>
0

>  <SCORE.SYSTEM.CONST>
0

>  <SCORE.SYSTEM.DIHEDRAL>
0

>  <SCORE.SYSTEM.SOLV>
0

>  <SCORE.SYSTEM.norm>
0

>  <SCORE.heavy>
10

>  <SCORE.norm>
-1.84048

>  <RMSD>
3.695

$$$$
1y26_lig
 OpenBabel02141814133D
libRbt.so/2013.1/901 2013/11/27
 10 11  0  0  0  0  0  0  0  0999 V2000
   19.5044  -17.8574    5.6350 N   0  0  0  0  0  0  0  0  0  0  0  0
   20.3600  -16.9303    5.1974 C   0  0  0  0  0  0  0  0  0  0  0  0
   20.6994  -16.6457    3.9417 N   0  0  0  0  0  0  0  0  0  0  0  0
   20.0239  -17.4290    3.0710 C   0  0  0  0  0  0  0  0  0  0  0  0
   19.1055  -18.4137    3.3765 C   0  0  0  0  0  0  0  0  0  0  0  0
   18.8522  -18.6226    4.7354 C   0  0  0  0  0  0  0  0  0  0  0  0
   18.0029  -19.5516    5.1439 N   0  0  0  0  0  0  0  0  0  0  0  0
   18.6084  -19.0323    2.2529 N   0  0  0  0  0  0  0  0  0  0  0  0
   19.2137  -18.3874    1.2725 C   0  0  0  0  0  0  0  0  0  0  0  0
   20.0909  -17.4155    1.7032 N   0  0  0  0  0  0  0  0  0  0  0  0
  1  2  2  0  0  0  0
  2  3  1  0  0  0  0
  3  4  2  0  0  0  0
  5  4  1  0  0  0  0
  5  6  2  0  0  0  0
  6  1  1  0  0  0  0
  6  7  1  0  0  0  0
  8  5  1  0  0  0  0
  9  8  1  0  0  0  0
 10  4  1  0  0  0  0
 10  9  2  0  0  0  0
M  END
>  <CHROM.1>
19.44642541,-18.02834122,3.63461275,-1.64395835,-0.83357934,-1.62118530

>  <Name>
1y26_lig

>  <RI>
224

>  <Rbt.Current_Directory>
/home/afrankz/demos/rdock_decoys_rna/rnas/1y26

>  <Rbt.Executable>
rbdock ($Id: //depot/dev/client3/rdock/2013.1/src/exe/rbdock.cxx#4 $)

>  <Rbt.Library>
libRbt.so (2013.1, Build901 2013/11/27)

>  <Rbt.Parameter_File>
/export/apps/rDock/src/rDock_2013.1_src/data/scripts/dock_solv.prm

>  <Rbt.Receptor>
prm/blind_docking_80.prm

>  <SCORE>
-18.1129

>  <SCORE.INTER>
-18.1129

>  <SCORE.INTER.CONST>
1

>  <SCORE.INTER.POLAR>
-2.10026

>  <SCORE.INTER.ROT>
0

>  <SCORE.INTER.SOLV>
11.6308

>  <SCORE.INTER.VDW>
-12.5513

>  <SCORE.INTER.norm>
-1.81129

>  <SCORE.INTRA>
0

>  <SCORE.INTRA.DIHEDRAL>
0

>  <SCORE.INTRA.DIHEDRAL.0>
0

>  <SCORE.INTRA.POLAR>
0

>  <SCORE.INTRA.POLAR.0>
0

>  <SCORE.INTRA.REPUL>
0

>  <SCORE.INTRA.REPUL.0>
0

>  <SCORE.INTRA.SOLV>
0

>  <SCORE.INTRA.SOLV.lig_0>
-16.9472

>  <SCORE.INTRA.VDW>
0

>  <SCORE.INTRA.VDW.0>
0

>  <SCORE.INTRA.norm>
0

>  <SCORE.RESTR>
0

>  <SCORE.RESTR.CAVITY>
0

>  <SCORE.RESTR.norm>
0

>  <SCORE.SYSTEM>
0

>  <SCORE.SYSTEM.CONST>
0

>  <SCORE.SYSTEM.DIHEDRAL>
0

>  <SCORE.SYSTEM.SOLV>
0

>  <SCORE.SYSTEM.norm>
0

>  <SCORE.heavy>
10

>  <SCORE.norm>
-1.81129

>  <RMSD>
3.698

$$$$
1y26_lig
 OpenBabel02141814133D
libRbt.so/2013.1/901 2013/11/27
 10 11  0  0  0  0  0  0  0  0999 V2000
   14.2213  -11.0624    2.5510 N   0  0  0  0  0  0  0  0  0  0  0  0
   13.7042  -11.7836    1.5532 C   0  0  0  0  0  0  0  0  0  0  0  0
   13.8723  -11.6210    0.2423 N   0  0  0  0  0  0  0  0  0  0  0  0
   14.7056  -10.5870   -0.0117 C   0  0  0  0  0  0  0  0  0  0  0  0
   15.3202   -9.7665    0.9131 C   0  0  0  0  0  0  0  0  0  0  0  0
   15.0455  -10.0355    2.2573 C   0  0  0  0  0  0  0  0  0  0  0  0
   15.5668   -9.3026    3.2279 N   0  0  0  0  0  0  0  0  0  0  0  0
   16.0993   -8.8006    0.3195 N   0  0  0  0  0  0  0  0  0  0  0  0
   15.9701   -9.0708   -0.9665 C   0  0  0  0  0  0  0  0  0  0  0  0
   15.1307  -10.1313   -1.2312 N   0  0  0  0  0  0  0  0  0  0  0  0
  1  2  2  0  0  0  0
  2  3  1  0  0  0  0
  3  4  2  0  0  0  0
  5  4  1  0  0  0  0
  5  6  2  0  0  0  0
  6  1  1  0  0  0  0
  6  7  1  0  0  0  0
  8  5  1  0  0  0  0
  9  8  1  0  0  0  0
 10  4  1  0  0  0  0
 10  9  2  0  0  0  0
M  END
>  <CHROM.1>
14.96276822,-10.21688133,0.88676876,2.09299424,0.90156712,1.51066070

>  <Name>
1y26_lig

>  <RI>
0

>  <Rbt.Current_Directory>
/home/afrankz/demos/rdock_decoys_rna/rnas/1y26

>  <Rbt.Executable>
rbdock ($Id: //depot/dev/client3/rdock/2013.1/src/exe/rbdock.cxx#4 $)

>  <Rbt.Library>
libRbt.so (2013.1, Build901 2013/11/27)

>  <Rbt.Parameter_File>
/export/apps/rDock/src/rDock_2013.1_src/data/scripts/dock_solv.prm

>  <Rbt.Receptor>
prm/blind_docking_20.prm

>  <SCORE>
-8.96486

>  <SCORE.INTER>
-8.96486

>  <SCORE.INTER.CONST>
1

>  <SCORE.INTER.POLAR>
-1.04537

>  <SCORE.INTER.ROT>
0

>  <SCORE.INTER.SOLV>
4.90217

>  <SCORE.INTER.VDW>
-7.72606

>  <SCORE.INTER.norm>
-0.896486

>  <SCORE.INTRA>
0

>  <SCORE.INTRA.DIHEDRAL>
0

>  <SCORE.INTRA.DIHEDRAL.0>
0

>  <SCORE.INTRA.POLAR>
0

>  <SCORE.INTRA.POLAR.0>
0

>  <SCORE.INTRA.REPUL>
0

>  <SCORE.INTRA.REPUL.0>
0

>  <SCORE.INTRA.SOLV>
0

>  <SCORE.INTRA.SOLV.lig_0>
-16.9472

>  <SCORE.INTRA.VDW>
0

>  <SCORE.INTRA.VDW.0>
0

>  <SCORE.INTRA.norm>
0

>  <SCORE.RESTR>
0

>  <SCORE.RESTR.CAVITY>
0

>  <SCORE.RESTR.norm>
0

>  <SCORE.SYSTEM>
0

>  <SCORE.SYSTEM.CONST>
0

>  <SCORE.SYSTEM.DIHEDRAL>
0

>  <SCORE.SYSTEM.SOLV>
0

>  <SCORE.SYSTEM.norm>
0

>  <SCORE.heavy>
10

>  <SCORE.norm>
-0.896486

>  <RMSD>
9.891

$$$$
1y26_lig
 OpenBabel02141814133D
libRbt.so/2013.1/901 2013/11/27
 10 11  0  0  0  0  0  0  0  0999 V2000
   14.2260  -11.0675    2.5438 N   0  0  0  0  0  0  0  0  0  0  0  0
   13.6831  -11.7708    1.5469 C   0  0  0  0  0  0  0  0  0  0  0  0
   13.8262  -11.5915    0.2353 N   0  0  0  0  0  0  0  0  0  0  0  0
   14.6628  -10.5607   -0.0213 C   0  0  0  0  0  0  0  0  0  0  0  0
   15.3026   -9.7580    0.9020 C   0  0  0  0  0  0  0  0  0  0  0  0
   15.0526  -10.0433    2.2476 C   0  0  0  0  0  0  0  0  0  0  0  0
   15.5994   -9.3280    3.2175 N   0  0  0  0  0  0  0  0  0  0  0  0
   16.0777   -8.7903    0.3060 N   0  0  0  0  0  0  0  0  0  0  0  0
   15.9205   -9.0417   -0.9806 C   0  0  0  0  0  0  0  0  0  0  0  0
   15.0672  -10.0918   -1.2428 N   0  0  0  0  0  0  0  0  0  0  0  0
  1  2  2  0  0  0  0
  2  3  1  0  0  0  0
  3  4  2  0  0  0  0
  5  4  1  0  0  0  0
  5  6  2  0  0  0  0
  6  1  1  0  0  0  0
  6  7  1  0  0  0  0
  8  5  1  0  0  0  0
  9  8  1  0  0  0  0
 10  4  1  0  0  0  0
 10  9  2  0  0  0  0
M  END
>  <CHROM.1>
14.94097996,-10.20512981,0.87671883,2.06027887,0.89424022,1.54994090

>  <Name>
1y26_lig

>  <RI>
0

>  <Rbt.Current_Directory>
/home/afrankz/demos/rdock_decoys_rna/rnas/1y26

>  <Rbt.Executable>
rbdock ($Id: //depot/dev/client3/rdock/2013.1/src/exe/rbdock.cxx#4 $)

>  <Rbt.Library>
libRbt.so (2013.1, Build901 2013/11/27)

>  <Rbt.Parameter_File>
/export/apps/rDock/src/rDock_2013.1_src/data/scripts/dock_solv.prm

>  <Rbt.Receptor>
prm/blind_docking_20.prm

>  <SCORE>
-8.97813

>  <SCORE.INTER>
-8.97813

>  <SCORE.INTER.CONST>
1

>  <SCORE.INTER.POLAR>
-1.05012

>  <SCORE.INTER.ROT>
0

>  <SCORE.INTER.SOLV>
4.81156

>  <SCORE.INTER.VDW>
-7.68888

>  <SCORE.INTER.norm>
-0.897813

>  <SCORE.INTRA>
0

>  <SCORE.INTRA.DIHEDRAL>
0

>  <SCORE.INTRA.DIHEDRAL.0>
0

>  <SCORE.INTRA.POLAR>
0

>  <SCORE.INTRA.POLAR.0>
0

>  <SCORE.INTRA.REPUL>
0

>  <SCORE.INTRA.REPUL.0>
0

>  <SCORE.INTRA.SOLV>
0

>  <SCORE.INTRA.SOLV.lig_0>
-16.9472

>  <SCORE.INTRA.VDW>
0

>  <SCORE.INTRA.VDW.0>
0

>  <SCORE.INTRA.norm>
0

>  <SCORE.RESTR>
0

>  <SCORE.RESTR.CAVITY>
0

>  <SCORE.RESTR.norm>
0

>  <SCORE.SYSTEM>
0

>  <SCORE.SYSTEM.CONST>
0

>  <SCORE.SYSTEM.DIHEDRAL>
0

>  <SCORE.SYSTEM.SOLV>
0

>  <SCORE.SYSTEM.norm>
0

>  <SCORE.heavy>
10

>  <SCORE.norm>
-0.897813

>  <RMSD>
9.914

$$$$
1y26_lig
 OpenBabel02141814133D
libRbt.so/2013.1/901 2013/11/27
 10 11  0  0  0  0  0  0  0  0999 V2000
   14.1522  -11.1510    2.5802 N   0  0  0  0  0  0  0  0  0  0  0  0
   13.8001  -11.6398    1.3885 C   0  0  0  0  0  0  0  0  0  0  0  0
   13.6352  -10.9834    0.2418 N   0  0  0  0  0  0  0  0  0  0  0  0
   13.9036   -9.6674    0.3973 C   0  0  0  0  0  0  0  0  0  0  0  0
   14.2879   -9.0277    1.5590 C   0  0  0  0  0  0  0  0  0  0  0  0
   14.4080   -9.8315    2.6966 C   0  0  0  0  0  0  0  0  0  0  0  0
   14.7540   -9.3219    3.8678 N   0  0  0  0  0  0  0  0  0  0  0  0
   14.4720   -7.6768    1.3761 N   0  0  0  0  0  0  0  0  0  0  0  0
   14.2252   -7.5202    0.0884 C   0  0  0  0  0  0  0  0  0  0  0  0
   13.8641   -8.6842   -0.5551 N   0  0  0  0  0  0  0  0  0  0  0  0
  1  2  2  0  0  0  0
  2  3  1  0  0  0  0
  3  4  2  0  0  0  0
  5  4  1  0  0  0  0
  5  6  2  0  0  0  0
  6  1  1  0  0  0  0
  6  7  1  0  0  0  0
  8  5  1  0  0  0  0
  9  8  1  0  0  0  0
 10  4  1  0  0  0  0
 10  9  2  0  0  0  0
M  END
>  <CHROM.1>
14.15004393,-9.55183861,1.36494573,1.45555637,1.29182956,2.48821449

>  <Name>
1y26_lig

>  <RI>
0

>  <Rbt.Current_Directory>
/home/afrankz/demos/rdock_decoys_rna/rnas/1y26

>  <Rbt.Executable>
rbdock ($Id: //depot/dev/client3/rdock/2013.1/src/exe/rbdock.cxx#4 $)

>  <Rbt.Library>
libRbt.so (2013.1, Build901 2013/11/27)

>  <Rbt.Parameter_File>
/export/apps/rDock/src/rDock_2013.1_src/data/scripts/dock_solv.prm

>  <Rbt.Receptor>
prm/blind_docking_20.prm

>  <SCORE>
-6.84462

>  <SCORE.INTER>
-6.84462

>  <SCORE.INTER.CONST>
1

>  <SCORE.INTER.POLAR>
-1.21939

>  <SCORE.INTER.ROT>
0

>  <SCORE.INTER.SOLV>
5.19551

>  <SCORE.INTER.VDW>
-5.83029

>  <SCORE.INTER.norm>
-0.684462

>  <SCORE.INTRA>
0

>  <SCORE.INTRA.DIHEDRAL>
0

>  <SCORE.INTRA.DIHEDRAL.0>
0

>  <SCORE.INTRA.POLAR>
0

>  <SCORE.INTRA.POLAR.0>
0

>  <SCORE.INTRA.REPUL>
0

>  <SCORE.INTRA.REPUL.0>
0

>  <SCORE.INTRA.SOLV>
0

>  <SCORE.INTRA.SOLV.lig_0>
-16.9472

>  <SCORE.INTRA.VDW>
0

>  <SCORE.INTRA.VDW.0>
0

>  <SCORE.INTRA.norm>
0

>  <SCORE.RESTR>
0

>  <SCORE.RESTR.CAVITY>
0

>  <SCORE.RESTR.norm>
0

>  <SCORE.SYSTEM>
0

>  <SCORE.SYSTEM.CONST>
0

>  <SCORE.SYSTEM.DIHEDRAL>
0

>  <SCORE.SYSTEM.SOLV>
0

>  <SCORE.SYSTEM.norm>
0

>  <SCORE.heavy>
10

>  <SCORE.norm>
-0.684462

>  <RMSD>
10.660

$$$$
1y26_lig
 OpenBabel02141814133D
libRbt.so/2013.1/901 2013/11/27
 10 11  0  0  0  0  0  0  0  0999 V2000
   14.2467  -10.5656    2.8433 N   0  0  0  0  0  0  0  0  0  0  0  0
   14.6269  -11.1019    1.6810 C   0  0  0  0  0  0  0  0  0  0  0  0
   15.0931  -10.4830    0.5982 N   0  0  0  0  0  0  0  0  0  0  0  0
   15.1795   -9.1496    0.8054 C   0  0  0  0  0  0  0  0  0  0  0  0
   14.8368   -8.4614    1.9522 C   0  0  0  0  0  0  0  0  0  0  0  0
   14.3439   -9.2304    3.0107 C   0  0  0  0  0  0  0  0  0  0  0  0
   13.9691   -8.6741    4.1514 N   0  0  0  0  0  0  0  0  0  0  0  0
   15.0374   -7.1061    1.8287 N   0  0  0  0  0  0  0  0  0  0  0  0
   15.5326   -6.9941    0.6098 C   0  0  0  0  0  0  0  0  0  0  0  0
   15.6309   -8.1924   -0.0638 N   0  0  0  0  0  0  0  0  0  0  0  0
  1  2  2  0  0  0  0
  2  3  1  0  0  0  0
  3  4  2  0  0  0  0
  5  4  1  0  0  0  0
  5  6  2  0  0  0  0
  6  1  1  0  0  0  0
  6  7  1  0  0  0  0
  8  5  1  0  0  0  0
  9  8  1  0  0  0  0
 10  4  1  0  0  0  0
 10  9  2  0  0  0  0
M  END
>  <CHROM.1>
14.84911194,-8.99728486,1.74241060,-2.64402772,1.19205014,0.30824311

>  <Name>
1y26_lig

>  <RI>
0

>  <Rbt.Current_Directory>
/home/afrankz/demos/rdock_decoys_rna/rnas/1y26

>  <Rbt.Executable>
rbdock ($Id: //depot/dev/client3/rdock/2013.1/src/exe/rbdock.cxx#4 $)

>  <Rbt.Library>
libRbt.so (2013.1, Build901 2013/11/27)

>  <Rbt.Parameter_File>
/export/apps/rDock/src/rDock_2013.1_src/data/scripts/dock_solv.prm

>  <Rbt.Receptor>
prm/blind_docking_20.prm

>  <SCORE>
-8.78695

>  <SCORE.INTER>
-8.78695

>  <SCORE.INTER.CONST>
1

>  <SCORE.INTER.POLAR>
-2.21718

>  <SCORE.INTER.ROT>
0

>  <SCORE.INTER.SOLV>
6.08824

>  <SCORE.INTER.VDW>
-4.09679

>  <SCORE.INTER.norm>
-0.878695

>  <SCORE.INTRA>
0

>  <SCORE.INTRA.DIHEDRAL>
0

>  <SCORE.INTRA.DIHEDRAL.0>
0

>  <SCORE.INTRA.POLAR>
0

>  <SCORE.INTRA.POLAR.0>
0

>  <SCORE.INTRA.REPUL>
0

>  <SCORE.INTRA.REPUL.0>
0

>  <SCORE.INTRA.SOLV>
0

>  <SCORE.INTRA.SOLV.lig_0>
-16.9472

>  <SCORE.INTRA.VDW>
0

>  <SCORE.INTRA.VDW.0>
0

>  <SCORE.INTRA.norm>
0

>  <SCORE.RESTR>
0

>  <SCORE.RESTR.CAVITY>
0

>  <SCORE.RESTR.norm>
0

>  <SCORE.SYSTEM>
0

>  <SCORE.SYSTEM.CONST>
0

>  <SCORE.SYSTEM.DIHEDRAL>
0

>  <SCORE.SYSTEM.SOLV>
0

>  <SCORE.SYSTEM.norm>
0

>  <SCORE.heavy>
10

>  <SCORE.norm>
-0.878695

>  <RMSD>
10.734

$$$$
1y26_lig
 OpenBabel02141814133D
libRbt.so/2013.1/901 2013/11/27
 10 11  0  0  0  0  0  0  0  0999 V2000
   11.2659  -21.5733   -1.5028 N   0  0  0  0  0  0  0  0  0  0  0  0
   11.5822  -20.2763   -1.5333 C   0  0  0  0  0  0  0  0  0  0  0  0
   10.8876  -19.2448   -1.0574 N   0  0  0  0  0  0  0  0  0  0  0  0
    9.7462  -19.6644   -0.4664 C   0  0  0  0  0  0  0  0  0  0  0  0
    9.2987  -20.9654   -0.3495 C   0  0  0  0  0  0  0  0  0  0  0  0
   10.1162  -21.9527   -0.9076 C   0  0  0  0  0  0  0  0  0  0  0  0
    9.7779  -23.2315   -0.8685 N   0  0  0  0  0  0  0  0  0  0  0  0
    8.0893  -21.0462    0.3010 N   0  0  0  0  0  0  0  0  0  0  0  0
    7.8335  -19.7858    0.5996 C   0  0  0  0  0  0  0  0  0  0  0  0
    8.7912  -18.9017    0.1516 N   0  0  0  0  0  0  0  0  0  0  0  0
  1  2  2  0  0  0  0
  2  3  1  0  0  0  0
  3  4  2  0  0  0  0
  5  4  1  0  0  0  0
  5  6  2  0  0  0  0
  6  1  1  0  0  0  0
  6  7  1  0  0  0  0
  8  5  1  0  0  0  0
  9  8  1  0  0  0  0
 10  4  1  0  0  0  0
 10  9  2  0  0  0  0
M  END
>  <CHROM.1>
9.74017961,-20.66477530,-0.56427491,-0.64190345,0.50332177,0.10768966

>  <Name>
1y26_lig

>  <RI>
0

>  <Rbt.Current_Directory>
/home/afrankz/demos/rdock_decoys_rna/rnas/1y26

>  <Rbt.Executable>
rbdock ($Id: //depot/dev/client3/rdock/2013.1/src/exe/rbdock.cxx#4 $)

>  <Rbt.Library>
libRbt.so (2013.1, Build901 2013/11/27)

>  <Rbt.Parameter_File>
/export/apps/rDock/src/rDock_2013.1_src/data/scripts/dock_solv.prm

>  <Rbt.Receptor>
prm/blind_docking_40.prm

>  <SCORE>
-5.41991

>  <SCORE.INTER>
-5.41991

>  <SCORE.INTER.CONST>
1

>  <SCORE.INTER.POLAR>
0

>  <SCORE.INTER.ROT>
0

>  <SCORE.INTER.SOLV>
7.77088

>  <SCORE.INTER.VDW>
-9.80357

>  <SCORE.INTER.norm>
-0.541991

>  <SCORE.INTRA>
0

>  <SCORE.INTRA.DIHEDRAL>
0

>  <SCORE.INTRA.DIHEDRAL.0>
0

>  <SCORE.INTRA.POLAR>
0

>  <SCORE.INTRA.POLAR.0>
0

>  <SCORE.INTRA.REPUL>
0

>  <SCORE.INTRA.REPUL.0>
0

>  <SCORE.INTRA.SOLV>
0

>  <SCORE.INTRA.SOLV.lig_0>
-16.9472

>  <SCORE.INTRA.VDW>
0

>  <SCORE.INTRA.VDW.0>
0

>  <SCORE.INTRA.norm>
0

>  <SCORE.RESTR>
0

>  <SCORE.RESTR.CAVITY>
0

>  <SCORE.RESTR.norm>
0

>  <SCORE.SYSTEM>
0

>  <SCORE.SYSTEM.CONST>
0

>  <SCORE.SYSTEM.DIHEDRAL>
0

>  <SCORE.SYSTEM.SOLV>
0

>  <SCORE.SYSTEM.norm>
0

>  <SCORE.heavy>
10

>  <SCORE.norm>
-0.541991

>  <RMSD>
11.382

$$$$
1y26_lig
 OpenBabel02141814133D
libRbt.so/2013.1/901 2013/11/27
 10 11  0  0  0  0  0  0  0  0999 V2000
   11.2587  -21.5728   -1.5100 N   0  0  0  0  0  0  0  0  0  0  0  0
   11.5720  -20.2749   -1.5332 C   0  0  0  0  0  0  0  0  0  0  0  0
   10.8763  -19.2479   -1.0493 N   0  0  0  0  0  0  0  0  0  0  0  0
    9.7373  -19.6737   -0.4579 C   0  0  0  0  0  0  0  0  0  0  0  0
    9.2931  -20.9764   -0.3480 C   0  0  0  0  0  0  0  0  0  0  0  0
   10.1113  -21.9584   -0.9142 C   0  0  0  0  0  0  0  0  0  0  0  0
    9.7761  -23.2382   -0.8822 N   0  0  0  0  0  0  0  0  0  0  0  0
    8.0856  -21.0640    0.3050 N   0  0  0  0  0  0  0  0  0  0  0  0
    7.8277  -19.8059    0.6121 C   0  0  0  0  0  0  0  0  0  0  0  0
    8.7823  -18.9170    0.1671 N   0  0  0  0  0  0  0  0  0  0  0  0
  1  2  2  0  0  0  0
  2  3  1  0  0  0  0
  3  4  2  0  0  0  0
  5  4  1  0  0  0  0
  5  6  2  0  0  0  0
  6  1  1  0  0  0  0
  6  7  1  0  0  0  0
  8  5  1  0  0  0  0
  9  8  1  0  0  0  0
 10  4  1  0  0  0  0
 10  9  2  0  0  0  0
M  END
>  <CHROM.1>
9.73333919,-20.67347417,-0.56199349,-0.63966839,0.50606997,0.11278097

>  <Name>
1y26_lig

>  <RI>
0

>  <Rbt.Current_Directory>
/home/afrankz/demos/rdock_decoys_rna/rnas/1y26

>  <Rbt.Executable>
rbdock ($Id: //depot/dev/client3/rdock/2013.1/src/exe/rbdock.cxx#4 $)

>  <Rbt.Library>
libRbt.so (2013.1, Build901 2013/11/27)

>  <Rbt.Parameter_File>
/export/apps/rDock/src/rDock_2013.1_src/data/scripts/dock_solv.prm

>  <Rbt.Receptor>
prm/blind_docking_40.prm

>  <SCORE>
-5.41928

>  <SCORE.INTER>
-5.41928

>  <SCORE.INTER.CONST>
1

>  <SCORE.INTER.POLAR>
0

>  <SCORE.INTER.ROT>
0

>  <SCORE.INTER.SOLV>
7.73542

>  <SCORE.INTER.VDW>
-9.79133

>  <SCORE.INTER.norm>
-0.541928

>  <SCORE.INTRA>
0

>  <SCORE.INTRA.DIHEDRAL>
0

>  <SCORE.INTRA.DIHEDRAL.0>
0

>  <SCORE.INTRA.POLAR>
0

>  <SCORE.INTRA.POLAR.0>
0

>  <SCORE.INTRA.REPUL>
0

>  <SCORE.INTRA.REPUL.0>
0

>  <SCORE.INTRA.SOLV>
0

>  <SCORE.INTRA.SOLV.lig_0>
-16.9472

>  <SCORE.INTRA.VDW>
0

>  <SCORE.INTRA.VDW.0>
0

>  <SCORE.INTRA.norm>
0

>  <SCORE.RESTR>
0

>  <SCORE.RESTR.CAVITY>
0

>  <SCORE.RESTR.norm>
0

>  <SCORE.SYSTEM>
0

>  <SCORE.SYSTEM.CONST>
0

>  <SCORE.SYSTEM.DIHEDRAL>
0

>  <SCORE.SYSTEM.SOLV>
0

>  <SCORE.SYSTEM.norm>
0

>  <SCORE.heavy>
10

>  <SCORE.norm>
-0.541928

>  <RMSD>
11.388

$$$$
1y26_lig
 OpenBabel02141814133D
libRbt.so/2013.1/901 2013/11/27
 10 11  0  0  0  0  0  0  0  0999 V2000
   12.1221   -4.9247    1.7156 N   0  0  0  0  0  0  0  0  0  0  0  0
   13.2395   -5.0113    0.9897 C   0  0  0  0  0  0  0  0  0  0  0  0
   14.1660   -5.9675    1.0094 N   0  0  0  0  0  0  0  0  0  0  0  0
   13.8347   -6.9410    1.8873 C   0  0  0  0  0  0  0  0  0  0  0  0
   12.7129   -6.9910    2.6907 C   0  0  0  0  0  0  0  0  0  0  0  0
   11.8278   -5.9141    2.5842 C   0  0  0  0  0  0  0  0  0  0  0  0
   10.7289   -5.8493    3.3186 N   0  0  0  0  0  0  0  0  0  0  0  0
   12.6837   -8.1180    3.4789 N   0  0  0  0  0  0  0  0  0  0  0  0
   13.7814   -8.7563    3.1167 C   0  0  0  0  0  0  0  0  0  0  0  0
   14.5258   -8.0896    2.1674 N   0  0  0  0  0  0  0  0  0  0  0  0
  1  2  2  0  0  0  0
  2  3  1  0  0  0  0
  3  4  2  0  0  0  0
  5  4  1  0  0  0  0
  5  6  2  0  0  0  0
  6  1  1  0  0  0  0
  6  7  1  0  0  0  0
  8  5  1  0  0  0  0
  9  8  1  0  0  0  0
 10  4  1  0  0  0  0
 10  9  2  0  0  0  0
M  END
>  <CHROM.1>
12.96181702,-6.65473535,2.29532954,-2.19194725,-0.52471136,2.55128889

>  <Name>
1y26_lig

>  <RI>
0

>  <Rbt.Current_Directory>
/home/afrankz/demos/rdock_decoys_rna/rnas/1y26

>  <Rbt.Executable>
rbdock ($Id: //depot/dev/client3/rdock/2013.1/src/exe/rbdock.cxx#4 $)

>  <Rbt.Library>
libRbt.so (2013.1, Build901 2013/11/27)

>  <Rbt.Parameter_File>
/export/apps/rDock/src/rDock_2013.1_src/data/scripts/dock_solv.prm

>  <Rbt.Receptor>
prm/blind_docking_20.prm

>  <SCORE>
-3.52119

>  <SCORE.INTER>
-3.52119

>  <SCORE.INTER.CONST>
1

>  <SCORE.INTER.POLAR>
0

>  <SCORE.INTER.ROT>
0

>  <SCORE.INTER.SOLV>
5.74541

>  <SCORE.INTER.VDW>
-7.8626

>  <SCORE.INTER.norm>
-0.352119

>  <SCORE.INTRA>
0

>  <SCORE.INTRA.DIHEDRAL>
0

>  <SCORE.INTRA.DIHEDRAL.0>
0

>  <SCORE.INTRA.POLAR>
0

>  <SCORE.INTRA.POLAR.0>
0

>  <SCORE.INTRA.REPUL>
0

>  <SCORE.INTRA.REPUL.0>
0

>  <SCORE.INTRA.SOLV>
0

>  <SCORE.INTRA.SOLV.lig_0>
-16.9472

>  <SCORE.INTRA.VDW>
0

>  <SCORE.INTRA.VDW.0>
0

>  <SCORE.INTRA.norm>
0

>  <SCORE.RESTR>
0

>  <SCORE.RESTR.CAVITY>
0

>  <SCORE.RESTR.norm>
0

>  <SCORE.SYSTEM>
0

>  <SCORE.SYSTEM.CONST>
0

>  <SCORE.SYSTEM.DIHEDRAL>
0

>  <SCORE.SYSTEM.SOLV>
0

>  <SCORE.SYSTEM.norm>
0

>  <SCORE.heavy>
10

>  <SCORE.norm>
-0.352119

>  <RMSD>
13.307

$$$$
1y26_lig
 OpenBabel02141814133D
libRbt.so/2013.1/901 2013/11/27
 10 11  0  0  0  0  0  0  0  0999 V2000
    8.6381   -5.4353    3.9412 N   0  0  0  0  0  0  0  0  0  0  0  0
    9.2124   -6.6147    4.1912 C   0  0  0  0  0  0  0  0  0  0  0  0
    9.1430   -7.3494    5.2996 N   0  0  0  0  0  0  0  0  0  0  0  0
    8.3503   -6.7572    6.2210 C   0  0  0  0  0  0  0  0  0  0  0  0
    7.6860   -5.5532    6.0974 C   0  0  0  0  0  0  0  0  0  0  0  0
    7.8572   -4.8741    4.8874 C   0  0  0  0  0  0  0  0  0  0  0  0
    7.2809   -3.7037    4.6658 N   0  0  0  0  0  0  0  0  0  0  0  0
    6.9706   -5.2319    7.2276 N   0  0  0  0  0  0  0  0  0  0  0  0
    7.1876   -6.2691    8.0153 C   0  0  0  0  0  0  0  0  0  0  0  0
    8.0237   -7.2186    7.4684 N   0  0  0  0  0  0  0  0  0  0  0  0
  1  2  2  0  0  0  0
  2  3  1  0  0  0  0
  3  4  2  0  0  0  0
  5  4  1  0  0  0  0
  5  6  2  0  0  0  0
  6  1  1  0  0  0  0
  6  7  1  0  0  0  0
  8  5  1  0  0  0  0
  9  8  1  0  0  0  0
 10  4  1  0  0  0  0
 10  9  2  0  0  0  0
M  END
>  <CHROM.1>
8.03570229,-5.90044492,5.79997563,-1.16684326,-0.92171730,2.24711792

>  <Name>
1y26_lig

>  <RI>
0

>  <Rbt.Current_Directory>
/home/afrankz/demos/rdock_decoys_rna/rnas/1y26

>  <Rbt.Executable>
rbdock ($Id: //depot/dev/client3/rdock/2013.1/src/exe/rbdock.cxx#4 $)

>  <Rbt.Library>
libRbt.so (2013.1, Build901 2013/11/27)

>  <Rbt.Parameter_File>
/export/apps/rDock/src/rDock_2013.1_src/data/scripts/dock_solv.prm

>  <Rbt.Receptor>
prm/blind_docking_20.prm

>  <SCORE>
-5.62402

>  <SCORE.INTER>
-5.62402

>  <SCORE.INTER.CONST>
1

>  <SCORE.INTER.POLAR>
-0.30675

>  <SCORE.INTER.ROT>
0

>  <SCORE.INTER.SOLV>
4.81858

>  <SCORE.INTER.VDW>
-7.93304

>  <SCORE.INTER.norm>
-0.562402

>  <SCORE.INTRA>
0

>  <SCORE.INTRA.DIHEDRAL>
0

>  <SCORE.INTRA.DIHEDRAL.0>
0

>  <SCORE.INTRA.POLAR>
0

>  <SCORE.INTRA.POLAR.0>
0

>  <SCORE.INTRA.REPUL>
0

>  <SCORE.INTRA.REPUL.0>
0

>  <SCORE.INTRA.SOLV>
0

>  <SCORE.INTRA.SOLV.lig_0>
-16.9472

>  <SCORE.INTRA.VDW>
0

>  <SCORE.INTRA.VDW.0>
0

>  <SCORE.INTRA.norm>
0

>  <SCORE.RESTR>
2.43396e-06

>  <SCORE.RESTR.CAVITY>
2.43396e-06

>  <SCORE.RESTR.norm>
2.43396e-07

>  <SCORE.SYSTEM>
0

>  <SCORE.SYSTEM.CONST>
0

>  <SCORE.SYSTEM.DIHEDRAL>
0

>  <SCORE.SYSTEM.SOLV>
0

>  <SCORE.SYSTEM.norm>
0

>  <SCORE.heavy>
10

>  <SCORE.norm>
-0.562402

>  <RMSD>
16.675

$$$$
1y26_lig
 OpenBabel02141814133D
libRbt.so/2013.1/901 2013/11/27
 10 11  0  0  0  0  0  0  0  0999 V2000
    6.8644   -5.1570    7.4381 N   0  0  0  0  0  0  0  0  0  0  0  0
    7.1109   -6.3596    7.9635 C   0  0  0  0  0  0  0  0  0  0  0  0
    7.8118   -7.3629    7.4390 N   0  0  0  0  0  0  0  0  0  0  0  0
    8.3180   -7.0182    6.2335 C   0  0  0  0  0  0  0  0  0  0  0  0
    8.1573   -5.8145    5.5765 C   0  0  0  0  0  0  0  0  0  0  0  0
    7.3835   -4.8515    6.2309 C   0  0  0  0  0  0  0  0  0  0  0  0
    7.1498   -3.6681    5.6866 N   0  0  0  0  0  0  0  0  0  0  0  0
    8.7962   -5.7940    4.3584 N   0  0  0  0  0  0  0  0  0  0  0  0
    9.3662   -6.9840    4.3075 C   0  0  0  0  0  0  0  0  0  0  0  0
    9.1039   -7.7746    5.4055 N   0  0  0  0  0  0  0  0  0  0  0  0
  1  2  2  0  0  0  0
  2  3  1  0  0  0  0
  3  4  2  0  0  0  0
  5  4  1  0  0  0  0
  5  6  2  0  0  0  0
  6  1  1  0  0  0  0
  6  7  1  0  0  0  0
  8  5  1  0  0  0  0
  9  8  1  0  0  0  0
 10  4  1  0  0  0  0
 10  9  2  0  0  0  0
M  END
>  <CHROM.1>
8.00513520,-6.07789135,6.06517029,3.09640617,0.96291872,-0.67976463

>  <Name>
1y26_lig

>  <RI>
0

>  <Rbt.Current_Directory>
/home/afrankz/demos/rdock_decoys_rna/rnas/1y26

>  <Rbt.Executable>
rbdock ($Id: //depot/dev/client3/rdock/2013.1/src/exe/rbdock.cxx#4 $)

>  <Rbt.Library>
libRbt.so (2013.1, Build901 2013/11/27)

>  <Rbt.Parameter_File>
/export/apps/rDock/src/rDock_2013.1_src/data/scripts/dock_solv.prm

>  <Rbt.Receptor>
prm/blind_docking_20.prm

>  <SCORE>
-7.7541

>  <SCORE.INTER>
-7.92005

>  <SCORE.INTER.CONST>
1

>  <SCORE.INTER.POLAR>
-1.01451

>  <SCORE.INTER.ROT>
0

>  <SCORE.INTER.SOLV>
4.30884

>  <SCORE.INTER.VDW>
-6.9346

>  <SCORE.INTER.norm>
-0.792005

>  <SCORE.INTRA>
0

>  <SCORE.INTRA.DIHEDRAL>
0

>  <SCORE.INTRA.DIHEDRAL.0>
0

>  <SCORE.INTRA.POLAR>
0

>  <SCORE.INTRA.POLAR.0>
0

>  <SCORE.INTRA.REPUL>
0

>  <SCORE.INTRA.REPUL.0>
0

>  <SCORE.INTRA.SOLV>
0

>  <SCORE.INTRA.SOLV.lig_0>
-16.9472

>  <SCORE.INTRA.VDW>
0

>  <SCORE.INTRA.VDW.0>
0

>  <SCORE.INTRA.norm>
0

>  <SCORE.RESTR>
0.165957

>  <SCORE.RESTR.CAVITY>
0.165957

>  <SCORE.RESTR.norm>
0.0165957

>  <SCORE.SYSTEM>
0

>  <SCORE.SYSTEM.CONST>
0

>  <SCORE.SYSTEM.DIHEDRAL>
0

>  <SCORE.SYSTEM.SOLV>
0

>  <SCORE.SYSTEM.norm>
0

>  <SCORE.heavy>
10

>  <SCORE.norm>
-0.77541

>  <RMSD>
16.770

$$$$
1y26_lig
 OpenBabel02141814133D
libRbt.so/2013.1/901 2013/11/27
 10 11  0  0  0  0  0  0  0  0999 V2000
    9.0517   -7.1001    5.6083 N   0  0  0  0  0  0  0  0  0  0  0  0
    9.5479   -6.9499    4.3777 C   0  0  0  0  0  0  0  0  0  0  0  0
    9.2094   -6.0528    3.4538 N   0  0  0  0  0  0  0  0  0  0  0  0
    8.2535   -5.2181    3.9205 C   0  0  0  0  0  0  0  0  0  0  0  0
    7.6602   -5.2458    5.1669 C   0  0  0  0  0  0  0  0  0  0  0  0
    8.0958   -6.2499    6.0367 C   0  0  0  0  0  0  0  0  0  0  0  0
    7.5845   -6.3809    7.2502 N   0  0  0  0  0  0  0  0  0  0  0  0
    6.7135   -4.2593    5.3177 N   0  0  0  0  0  0  0  0  0  0  0  0
    6.7687   -3.6224    4.1624 C   0  0  0  0  0  0  0  0  0  0  0  0
    7.6713   -4.1620    3.2715 N   0  0  0  0  0  0  0  0  0  0  0  0
  1  2  2  0  0  0  0
  2  3  1  0  0  0  0
  3  4  2  0  0  0  0
  5  4  1  0  0  0  0
  5  6  2  0  0  0  0
  6  1  1  0  0  0  0
  6  7  1  0  0  0  0
  8  5  1  0  0  0  0
  9  8  1  0  0  0  0
 10  4  1  0  0  0  0
 10  9  2  0  0  0  0
M  END
>  <CHROM.1>
8.05648408,-5.52553805,4.85695045,-0.91809450,0.78277764,-1.04464186

>  <Name>
1y26_lig

>  <RI>
0

>  <Rbt.Current_Directory>
/home/afrankz/demos/rdock_decoys_rna/rnas/1y26

>  <Rbt.Executable>
rbdock ($Id: //depot/dev/client3/rdock/2013.1/src/exe/rbdock.cxx#4 $)

>  <Rbt.Library>
libRbt.so (2013.1, Build901 2013/11/27)

>  <Rbt.Parameter_File>
/export/apps/rDock/src/rDock_2013.1_src/data/scripts/dock_solv.prm

>  <Rbt.Receptor>
prm/blind_docking_20.prm

>  <SCORE>
-6.33528

>  <SCORE.INTER>
-6.33528

>  <SCORE.INTER.CONST>
1

>  <SCORE.INTER.POLAR>
-0.679258

>  <SCORE.INTER.ROT>
0

>  <SCORE.INTER.SOLV>
4.66066

>  <SCORE.INTER.VDW>
-7.11288

>  <SCORE.INTER.norm>
-0.633528

>  <SCORE.INTRA>
0

>  <SCORE.INTRA.DIHEDRAL>
0

>  <SCORE.INTRA.DIHEDRAL.0>
0

>  <SCORE.INTRA.POLAR>
0

>  <SCORE.INTRA.POLAR.0>
0

>  <SCORE.INTRA.REPUL>
0

>  <SCORE.INTRA.REPUL.0>
0

>  <SCORE.INTRA.SOLV>
0

>  <SCORE.INTRA.SOLV.lig_0>
-16.9472

>  <SCORE.INTRA.VDW>
0

>  <SCORE.INTRA.VDW.0>
0

>  <SCORE.INTRA.norm>
0

>  <SCORE.RESTR>
0

>  <SCORE.RESTR.CAVITY>
0

>  <SCORE.RESTR.norm>
0

>  <SCORE.SYSTEM>
0

>  <SCORE.SYSTEM.CONST>
0

>  <SCORE.SYSTEM.DIHEDRAL>
0

>  <SCORE.SYSTEM.SOLV>
0

>  <SCORE.SYSTEM.norm>
0

>  <SCORE.heavy>
10

>  <SCORE.norm>
-0.633528

>  <RMSD>
17.094

$$$$
1y26_lig
 OpenBabel02141814133D
libRbt.so/2013.1/901 2013/11/27
 10 11  0  0  0  0  0  0  0  0999 V2000
    8.9583   -6.2128    4.0002 N   0  0  0  0  0  0  0  0  0  0  0  0
    8.9957   -7.0961    5.0010 C   0  0  0  0  0  0  0  0  0  0  0  0
    8.5345   -6.9586    6.2425 N   0  0  0  0  0  0  0  0  0  0  0  0
    7.9512   -5.7501    6.4084 C   0  0  0  0  0  0  0  0  0  0  0  0
    7.8286   -4.7484    5.4661 C   0  0  0  0  0  0  0  0  0  0  0  0
    8.3712   -5.0156    4.2057 C   0  0  0  0  0  0  0  0  0  0  0  0
    8.3255   -4.1213    3.2314 N   0  0  0  0  0  0  0  0  0  0  0  0
    7.1891   -3.6370    5.9642 N   0  0  0  0  0  0  0  0  0  0  0  0
    6.9026   -3.9952    7.2024 C   0  0  0  0  0  0  0  0  0  0  0  0
    7.3483   -5.2564    7.5346 N   0  0  0  0  0  0  0  0  0  0  0  0
  1  2  2  0  0  0  0
  2  3  1  0  0  0  0
  3  4  2  0  0  0  0
  5  4  1  0  0  0  0
  5  6  2  0  0  0  0
  6  1  1  0  0  0  0
  6  7  1  0  0  0  0
  8  5  1  0  0  0  0
  9  8  1  0  0  0  0
 10  4  1  0  0  0  0
 10  9  2  0  0  0  0
M  END
>  <CHROM.1>
8.04143040,-5.28005769,5.52452783,-0.43330664,-1.06789328,2.23685586

>  <Name>
1y26_lig

>  <RI>
0

>  <Rbt.Current_Directory>
/home/afrankz/demos/rdock_decoys_rna/rnas/1y26

>  <Rbt.Executable>
rbdock ($Id: //depot/dev/client3/rdock/2013.1/src/exe/rbdock.cxx#4 $)

>  <Rbt.Library>
libRbt.so (2013.1, Build901 2013/11/27)

>  <Rbt.Parameter_File>
/export/apps/rDock/src/rDock_2013.1_src/data/scripts/dock_solv.prm

>  <Rbt.Receptor>
prm/blind_docking_20.prm

>  <SCORE>
-10.0508

>  <SCORE.INTER>
-10.0508

>  <SCORE.INTER.CONST>
1

>  <SCORE.INTER.POLAR>
-1.38177

>  <SCORE.INTER.ROT>
0

>  <SCORE.INTER.SOLV>
5.59476

>  <SCORE.INTER.VDW>
-7.5596

>  <SCORE.INTER.norm>
-1.00508

>  <SCORE.INTRA>
0

>  <SCORE.INTRA.DIHEDRAL>
0

>  <SCORE.INTRA.DIHEDRAL.0>
0

>  <SCORE.INTRA.POLAR>
0

>  <SCORE.INTRA.POLAR.0>
0

>  <SCORE.INTRA.REPUL>
0

>  <SCORE.INTRA.REPUL.0>
0

>  <SCORE.INTRA.SOLV>
0

>  <SCORE.INTRA.SOLV.lig_0>
-16.9472

>  <SCORE.INTRA.VDW>
0

>  <SCORE.INTRA.VDW.0>
0

>  <SCORE.INTRA.norm>
0

>  <SCORE.RESTR>
0

>  <SCORE.RESTR.CAVITY>
0

>  <SCORE.RESTR.norm>
0

>  <SCORE.SYSTEM>
0

>  <SCORE.SYSTEM.CONST>
0

>  <SCORE.SYSTEM.DIHEDRAL>
0

>  <SCORE.SYSTEM.SOLV>
0

>  <SCORE.SYSTEM.norm>
0

>  <SCORE.heavy>
10

>  <SCORE.norm>
-1.00508

>  <RMSD>
17.159

$$$$
1y26_lig
 OpenBabel02141814133D
libRbt.so/2013.1/901 2013/11/27
 10 11  0  0  0  0  0  0  0  0999 V2000
    8.9510   -6.2026    3.9988 N   0  0  0  0  0  0  0  0  0  0  0  0
    8.9904   -7.0887    4.9970 C   0  0  0  0  0  0  0  0  0  0  0  0
    8.5321   -6.9545    6.2400 N   0  0  0  0  0  0  0  0  0  0  0  0
    7.9495   -5.7463    6.4106 C   0  0  0  0  0  0  0  0  0  0  0  0
    7.8251   -4.7419    5.4714 C   0  0  0  0  0  0  0  0  0  0  0  0
    8.3647   -5.0058    4.2090 C   0  0  0  0  0  0  0  0  0  0  0  0
    8.3172   -4.1088    3.2373 N   0  0  0  0  0  0  0  0  0  0  0  0
    7.1872   -3.6317    5.9741 N   0  0  0  0  0  0  0  0  0  0  0  0
    6.9034   -3.9933    7.2119 C   0  0  0  0  0  0  0  0  0  0  0  0
    7.3494   -5.2556    7.5395 N   0  0  0  0  0  0  0  0  0  0  0  0
  1  2  2  0  0  0  0
  2  3  1  0  0  0  0
  3  4  2  0  0  0  0
  5  4  1  0  0  0  0
  5  6  2  0  0  0  0
  6  1  1  0  0  0  0
  6  7  1  0  0  0  0
  8  5  1  0  0  0  0
  9  8  1  0  0  0  0
 10  4  1  0  0  0  0
 10  9  2  0  0  0  0
M  END
>  <CHROM.1>
8.03791871,-5.27381858,5.52785707,-0.43661446,-1.06958403,2.23676026

>  <Name>
1y26_lig

>  <RI>
0

>  <Rbt.Current_Directory>
/home/afrankz/demos/rdock_decoys_rna/rnas/1y26

>  <Rbt.Executable>
rbdock ($Id: //depot/dev/client3/rdock/2013.1/src/exe/rbdock.cxx#4 $)

>  <Rbt.Library>
libRbt.so (2013.1, Build901 2013/11/27)

>  <Rbt.Parameter_File>
/export/apps/rDock/src/rDock_2013.1_src/data/scripts/dock_solv.prm

>  <Rbt.Receptor>
prm/blind_docking_20.prm

>  <SCORE>
-10.0482

>  <SCORE.INTER>
-10.0482

>  <SCORE.INTER.CONST>
1

>  <SCORE.INTER.POLAR>
-1.38852

>  <SCORE.INTER.ROT>
0

>  <SCORE.INTER.SOLV>
5.59745

>  <SCORE.INTER.VDW>
-7.53624

>  <SCORE.INTER.norm>
-1.00482

>  <SCORE.INTRA>
0

>  <SCORE.INTRA.DIHEDRAL>
0

>  <SCORE.INTRA.DIHEDRAL.0>
0

>  <SCORE.INTRA.POLAR>
0

>  <SCORE.INTRA.POLAR.0>
0

>  <SCORE.INTRA.REPUL>
0

>  <SCORE.INTRA.REPUL.0>
0

>  <SCORE.INTRA.SOLV>
0

>  <SCORE.INTRA.SOLV.lig_0>
-16.9472

>  <SCORE.INTRA.VDW>
0

>  <SCORE.INTRA.VDW.0>
0

>  <SCORE.INTRA.norm>
0

>  <SCORE.RESTR>
0

>  <SCORE.RESTR.CAVITY>
0

>  <SCORE.RESTR.norm>
0

>  <SCORE.SYSTEM>
0

>  <SCORE.SYSTEM.CONST>
0

>  <SCORE.SYSTEM.DIHEDRAL>
0

>  <SCORE.SYSTEM.SOLV>
0

>  <SCORE.SYSTEM.norm>
0

>  <SCORE.heavy>
10

>  <SCORE.norm>
-1.00482

>  <RMSD>
17.166

$$$$
1y26_lig
 OpenBabel02141814133D
libRbt.so/2013.1/901 2013/11/27
 10 11  0  0  0  0  0  0  0  0999 V2000
    8.9415   -6.1838    4.0187 N   0  0  0  0  0  0  0  0  0  0  0  0
    8.9752   -7.0794    5.0086 C   0  0  0  0  0  0  0  0  0  0  0  0
    8.5174   -6.9540    6.2527 N   0  0  0  0  0  0  0  0  0  0  0  0
    7.9423   -5.7438    6.4345 C   0  0  0  0  0  0  0  0  0  0  0  0
    7.8243   -4.7300    5.5047 C   0  0  0  0  0  0  0  0  0  0  0  0
    8.3626   -4.9854    4.2399 C   0  0  0  0  0  0  0  0  0  0  0  0
    8.3208   -4.0791    3.2766 N   0  0  0  0  0  0  0  0  0  0  0  0
    7.1931   -3.6206    6.0175 N   0  0  0  0  0  0  0  0  0  0  0  0
    6.9068   -3.9920    7.2519 C   0  0  0  0  0  0  0  0  0  0  0  0
    7.3449   -5.2600    7.5678 N   0  0  0  0  0  0  0  0  0  0  0  0
  1  2  2  0  0  0  0
  2  3  1  0  0  0  0
  3  4  2  0  0  0  0
  5  4  1  0  0  0  0
  5  6  2  0  0  0  0
  6  1  1  0  0  0  0
  6  7  1  0  0  0  0
  8  5  1  0  0  0  0
  9  8  1  0  0  0  0
 10  4  1  0  0  0  0
 10  9  2  0  0  0  0
M  END
>  <CHROM.1>
8.03380651,-5.26368716,5.55617522,-0.42822219,-1.07424479,2.25345126

>  <Name>
1y26_lig

>  <RI>
0

>  <Rbt.Current_Directory>
/home/afrankz/demos/rdock_decoys_rna/rnas/1y26

>  <Rbt.Executable>
rbdock ($Id: //depot/dev/client3/rdock/2013.1/src/exe/rbdock.cxx#4 $)

>  <Rbt.Library>
libRbt.so (2013.1, Build901 2013/11/27)

>  <Rbt.Parameter_File>
/export/apps/rDock/src/rDock_2013.1_src/data/scripts/dock_solv.prm

>  <Rbt.Receptor>
prm/blind_docking_20.prm

>  <SCORE>
-10.0908

>  <SCORE.INTER>
-10.0913

>  <SCORE.INTER.CONST>
1

>  <SCORE.INTER.POLAR>
-1.36526

>  <SCORE.INTER.ROT>
0

>  <SCORE.INTER.SOLV>
5.63828

>  <SCORE.INTER.VDW>
-7.6561

>  <SCORE.INTER.norm>
-1.00913

>  <SCORE.INTRA>
0

>  <SCORE.INTRA.DIHEDRAL>
0

>  <SCORE.INTRA.DIHEDRAL.0>
0

>  <SCORE.INTRA.POLAR>
0

>  <SCORE.INTRA.POLAR.0>
0

>  <SCORE.INTRA.REPUL>
0

>  <SCORE.INTRA.REPUL.0>
0

>  <SCORE.INTRA.SOLV>
0

>  <SCORE.INTRA.SOLV.lig_0>
-16.9472

>  <SCORE.INTRA.VDW>
0

>  <SCORE.INTRA.VDW.0>
0

>  <SCORE.INTRA.norm>
0

>  <SCORE.RESTR>
0.000506097

>  <SCORE.RESTR.CAVITY>
0.000506097

>  <SCORE.RESTR.norm>
5.06097e-05

>  <SCORE.SYSTEM>
0

>  <SCORE.SYSTEM.CONST>
0

>  <SCORE.SYSTEM.DIHEDRAL>
0

>  <SCORE.SYSTEM.SOLV>
0

>  <SCORE.SYSTEM.norm>
0

>  <SCORE.heavy>
10

>  <SCORE.norm>
-1.00908

>  <RMSD>
17.177

$$$$
1y26_lig
 OpenBabel02141814133D
libRbt.so/2013.1/901 2013/11/27
 10 11  0  0  0  0  0  0  0  0999 V2000
    8.9460   -6.1756    4.0150 N   0  0  0  0  0  0  0  0  0  0  0  0
    8.9738   -7.0765    5.0002 C   0  0  0  0  0  0  0  0  0  0  0  0
    8.5109   -6.9568    6.2430 N   0  0  0  0  0  0  0  0  0  0  0  0
    7.9372   -5.7467    6.4287 C   0  0  0  0  0  0  0  0  0  0  0  0
    7.8250   -4.7277    5.5038 C   0  0  0  0  0  0  0  0  0  0  0  0
    8.3682   -4.9774    4.2400 C   0  0  0  0  0  0  0  0  0  0  0  0
    8.3322   -4.0659    3.2814 N   0  0  0  0  0  0  0  0  0  0  0  0
    7.1935   -3.6199    6.0198 N   0  0  0  0  0  0  0  0  0  0  0  0
    6.9013   -3.9973    7.2509 C   0  0  0  0  0  0  0  0  0  0  0  0
    7.3358   -5.2677    7.5620 N   0  0  0  0  0  0  0  0  0  0  0  0
  1  2  2  0  0  0  0
  2  3  1  0  0  0  0
  3  4  2  0  0  0  0
  5  4  1  0  0  0  0
  5  6  2  0  0  0  0
  6  1  1  0  0  0  0
  6  7  1  0  0  0  0
  8  5  1  0  0  0  0
  9  8  1  0  0  0  0
 10  4  1  0  0  0  0
 10  9  2  0  0  0  0
M  END
>  <CHROM.1>
8.03329687,-5.26203726,5.55337250,-0.41889770,-1.07289582,2.26695601

>  <Name>
1y26_lig

>  <RI>
0

>  <Rbt.Current_Directory>
/home/afrankz/demos/rdock_decoys_rna/rnas/1y26

>  <Rbt.Executable>
rbdock ($Id: //depot/dev/client3/rdock/2013.1/src/exe/rbdock.cxx#4 $)

>  <Rbt.Library>
libRbt.so (2013.1, Build901 2013/11/27)

>  <Rbt.Parameter_File>
/export/apps/rDock/src/rDock_2013.1_src/data/scripts/dock_solv.prm

>  <Rbt.Receptor>
prm/blind_docking_20.prm

>  <SCORE>
-10.0856

>  <SCORE.INTER>
-10.0859

>  <SCORE.INTER.CONST>
1

>  <SCORE.INTER.POLAR>
-1.35996

>  <SCORE.INTER.ROT>
0

>  <SCORE.INTER.SOLV>
5.64966

>  <SCORE.INTER.VDW>
-7.67397

>  <SCORE.INTER.norm>
-1.00859

>  <SCORE.INTRA>
0

>  <SCORE.INTRA.DIHEDRAL>
0

>  <SCORE.INTRA.DIHEDRAL.0>
0

>  <SCORE.INTRA.POLAR>
0

>  <SCORE.INTRA.POLAR.0>
0

>  <SCORE.INTRA.REPUL>
0

>  <SCORE.INTRA.REPUL.0>
0

>  <SCORE.INTRA.SOLV>
0

>  <SCORE.INTRA.SOLV.lig_0>
-16.9472

>  <SCORE.INTRA.VDW>
0

>  <SCORE.INTRA.VDW.0>
0

>  <SCORE.INTRA.norm>
0

>  <SCORE.RESTR>
0.000266548

>  <SCORE.RESTR.CAVITY>
0.000266548

>  <SCORE.RESTR.norm>
2.66548e-05

>  <SCORE.SYSTEM>
0

>  <SCORE.SYSTEM.CONST>
0

>  <SCORE.SYSTEM.DIHEDRAL>
0

>  <SCORE.SYSTEM.SOLV>
0

>  <SCORE.SYSTEM.norm>
0

>  <SCORE.heavy>
10

>  <SCORE.norm>
-1.00856

>  <RMSD>
17.178

$$$$
1y26_lig
 OpenBabel02141814133D
libRbt.so/2013.1/901 2013/11/27
 10 11  0  0  0  0  0  0  0  0999 V2000
    8.9255   -6.1920    4.0020 N   0  0  0  0  0  0  0  0  0  0  0  0
    8.9758   -7.0779    4.9998 C   0  0  0  0  0  0  0  0  0  0  0  0
    8.5313   -6.9434    6.2478 N   0  0  0  0  0  0  0  0  0  0  0  0
    7.9509   -5.7351    6.4246 C   0  0  0  0  0  0  0  0  0  0  0  0
    7.8162   -4.7309    5.4866 C   0  0  0  0  0  0  0  0  0  0  0  0
    8.3418   -4.9951    4.2184 C   0  0  0  0  0  0  0  0  0  0  0  0
    8.2836   -4.0982    3.2471 N   0  0  0  0  0  0  0  0  0  0  0  0
    7.1840   -3.6205    5.9961 N   0  0  0  0  0  0  0  0  0  0  0  0
    6.9139   -3.9818    7.2370 C   0  0  0  0  0  0  0  0  0  0  0  0
    7.3633   -5.2440    7.5600 N   0  0  0  0  0  0  0  0  0  0  0  0
  1  2  2  0  0  0  0
  2  3  1  0  0  0  0
  3  4  2  0  0  0  0
  5  4  1  0  0  0  0
  5  6  2  0  0  0  0
  6  1  1  0  0  0  0
  6  7  1  0  0  0  0
  8  5  1  0  0  0  0
  9  8  1  0  0  0  0
 10  4  1  0  0  0  0
 10  9  2  0  0  0  0
M  END
>  <CHROM.1>
8.02954213,-5.26278921,5.54079941,-0.45472841,-1.07645987,2.22064384

>  <Name>
1y26_lig

>  <RI>
0

>  <Rbt.Current_Directory>
/home/afrankz/demos/rdock_decoys_rna/rnas/1y26

>  <Rbt.Executable>
rbdock ($Id: //depot/dev/client3/rdock/2013.1/src/exe/rbdock.cxx#4 $)

>  <Rbt.Library>
libRbt.so (2013.1, Build901 2013/11/27)

>  <Rbt.Parameter_File>
/export/apps/rDock/src/rDock_2013.1_src/data/scripts/dock_solv.prm

>  <Rbt.Receptor>
prm/blind_docking_20.prm

>  <SCORE>
-10.0655

>  <SCORE.INTER>
-10.0656

>  <SCORE.INTER.CONST>
1

>  <SCORE.INTER.POLAR>
-1.40837

>  <SCORE.INTER.ROT>
0

>  <SCORE.INTER.SOLV>
5.58481

>  <SCORE.INTER.VDW>
-7.47743

>  <SCORE.INTER.norm>
-1.00656

>  <SCORE.INTRA>
0

>  <SCORE.INTRA.DIHEDRAL>
0

>  <SCORE.INTRA.DIHEDRAL.0>
0

>  <SCORE.INTRA.POLAR>
0

>  <SCORE.INTRA.POLAR.0>
0

>  <SCORE.INTRA.REPUL>
0

>  <SCORE.INTRA.REPUL.0>
0

>  <SCORE.INTRA.SOLV>
0

>  <SCORE.INTRA.SOLV.lig_0>
-16.9472

>  <SCORE.INTRA.VDW>
0

>  <SCORE.INTRA.VDW.0>
0

>  <SCORE.INTRA.norm>
0

>  <SCORE.RESTR>
4.78018e-05

>  <SCORE.RESTR.CAVITY>
4.78018e-05

>  <SCORE.RESTR.norm>
4.78018e-06

>  <SCORE.SYSTEM>
0

>  <SCORE.SYSTEM.CONST>
0

>  <SCORE.SYSTEM.DIHEDRAL>
0

>  <SCORE.SYSTEM.SOLV>
0

>  <SCORE.SYSTEM.norm>
0

>  <SCORE.heavy>
10

>  <SCORE.norm>
-1.00655

>  <RMSD>
17.181

$$$$
1y26_lig
 OpenBabel02141814133D
libRbt.so/2013.1/901 2013/11/27
 10 11  0  0  0  0  0  0  0  0999 V2000
    8.9268   -6.1870    4.0156 N   0  0  0  0  0  0  0  0  0  0  0  0
    8.9723   -7.0764    5.0106 C   0  0  0  0  0  0  0  0  0  0  0  0
    8.5256   -6.9448    6.2581 N   0  0  0  0  0  0  0  0  0  0  0  0
    7.9484   -5.7353    6.4378 C   0  0  0  0  0  0  0  0  0  0  0  0
    7.8188   -4.7275    5.5030 C   0  0  0  0  0  0  0  0  0  0  0  0
    8.3463   -4.9890    4.2349 C   0  0  0  0  0  0  0  0  0  0  0  0
    8.2929   -4.0887    3.2665 N   0  0  0  0  0  0  0  0  0  0  0  0
    7.1890   -3.6169    6.0148 N   0  0  0  0  0  0  0  0  0  0  0  0
    6.9152   -3.9816    7.2540 C   0  0  0  0  0  0  0  0  0  0  0  0
    7.3600   -5.2463    7.5736 N   0  0  0  0  0  0  0  0  0  0  0  0
  1  2  2  0  0  0  0
  2  3  1  0  0  0  0
  3  4  2  0  0  0  0
  5  4  1  0  0  0  0
  5  6  2  0  0  0  0
  6  1  1  0  0  0  0
  6  7  1  0  0  0  0
  8  5  1  0  0  0  0
  9  8  1  0  0  0  0
 10  4  1  0  0  0  0
 10  9  2  0  0  0  0
M  END
>  <CHROM.1>
8.03042809,-5.26027425,5.55576778,-0.44731631,-1.07761152,2.23055957

>  <Name>
1y26_lig

>  <RI>
0

>  <Rbt.Current_Directory>
/home/afrankz/demos/rdock_decoys_rna/rnas/1y26

>  <Rbt.Executable>
rbdock ($Id: //depot/dev/client3/rdock/2013.1/src/exe/rbdock.cxx#4 $)

>  <Rbt.Library>
libRbt.so (2013.1, Build901 2013/11/27)

>  <Rbt.Parameter_File>
/export/apps/rDock/src/rDock_2013.1_src/data/scripts/dock_solv.prm

>  <Rbt.Receptor>
prm/blind_docking_20.prm

>  <SCORE>
-10.0697

>  <SCORE.INTER>
-10.0698

>  <SCORE.INTER.CONST>
1

>  <SCORE.INTER.POLAR>
-1.39032

>  <SCORE.INTER.ROT>
0

>  <SCORE.INTER.SOLV>
5.61222

>  <SCORE.INTER.VDW>
-7.54957

>  <SCORE.INTER.norm>
-1.00698

>  <SCORE.INTRA>
0

>  <SCORE.INTRA.DIHEDRAL>
0

>  <SCORE.INTRA.DIHEDRAL.0>
0

>  <SCORE.INTRA.POLAR>
0

>  <SCORE.INTRA.POLAR.0>
0

>  <SCORE.INTRA.REPUL>
0

>  <SCORE.INTRA.REPUL.0>
0

>  <SCORE.INTRA.SOLV>
0

>  <SCORE.INTRA.SOLV.lig_0>
-16.9472

>  <SCORE.INTRA.VDW>
0

>  <SCORE.INTRA.VDW.0>
0

>  <SCORE.INTRA.norm>
0

>  <SCORE.RESTR>
0.000118831

>  <SCORE.RESTR.CAVITY>
0.000118831

>  <SCORE.RESTR.norm>
1.18831e-05

>  <SCORE.SYSTEM>
0

>  <SCORE.SYSTEM.CONST>
0

>  <SCORE.SYSTEM.DIHEDRAL>
0

>  <SCORE.SYSTEM.SOLV>
0

>  <SCORE.SYSTEM.norm>
0

>  <SCORE.heavy>
10

>  <SCORE.norm>
-1.00697

>  <RMSD>
17.183

$$$$
1y26_lig
 OpenBabel02141814133D
libRbt.so/2013.1/901 2013/11/27
 10 11  0  0  0  0  0  0  0  0999 V2000
    8.9279   -6.2062    4.0712 N   0  0  0  0  0  0  0  0  0  0  0  0
    8.9690   -7.0842    5.0764 C   0  0  0  0  0  0  0  0  0  0  0  0
    8.5195   -6.9374    6.3211 N   0  0  0  0  0  0  0  0  0  0  0  0
    7.9446   -5.7246    6.4855 C   0  0  0  0  0  0  0  0  0  0  0  0
    7.8195   -4.7274    5.5389 C   0  0  0  0  0  0  0  0  0  0  0  0
    8.3495   -5.0045    4.2752 C   0  0  0  0  0  0  0  0  0  0  0  0
    8.3004   -4.1153    3.2965 N   0  0  0  0  0  0  0  0  0  0  0  0
    7.1908   -3.6096    6.0365 N   0  0  0  0  0  0  0  0  0  0  0  0
    6.9132   -3.9595    7.2790 C   0  0  0  0  0  0  0  0  0  0  0  0
    7.3545   -5.2214    7.6142 N   0  0  0  0  0  0  0  0  0  0  0  0
  1  2  2  0  0  0  0
  2  3  1  0  0  0  0
  3  4  2  0  0  0  0
  5  4  1  0  0  0  0
  5  6  2  0  0  0  0
  6  1  1  0  0  0  0
  6  7  1  0  0  0  0
  8  5  1  0  0  0  0
  9  8  1  0  0  0  0
 10  4  1  0  0  0  0
 10  9  2  0  0  0  0
M  END
>  <CHROM.1>
8.02980885,-5.25991474,5.59834602,-0.44040155,-1.07783012,2.22518417

>  <Name>
1y26_lig

>  <RI>
0

>  <Rbt.Current_Directory>
/home/afrankz/demos/rdock_decoys_rna/rnas/1y26

>  <Rbt.Executable>
rbdock ($Id: //depot/dev/client3/rdock/2013.1/src/exe/rbdock.cxx#4 $)

>  <Rbt.Library>
libRbt.so (2013.1, Build901 2013/11/27)

>  <Rbt.Parameter_File>
/export/apps/rDock/src/rDock_2013.1_src/data/scripts/dock_solv.prm

>  <Rbt.Receptor>
prm/blind_docking_20.prm

>  <SCORE>
-10.0564

>  <SCORE.INTER>
-10.0593

>  <SCORE.INTER.CONST>
1

>  <SCORE.INTER.POLAR>
-1.33972

>  <SCORE.INTER.ROT>
0

>  <SCORE.INTER.SOLV>
5.63749

>  <SCORE.INTER.VDW>
-7.71967

>  <SCORE.INTER.norm>
-1.00593

>  <SCORE.INTRA>
0

>  <SCORE.INTRA.DIHEDRAL>
0

>  <SCORE.INTRA.DIHEDRAL.0>
0

>  <SCORE.INTRA.POLAR>
0

>  <SCORE.INTRA.POLAR.0>
0

>  <SCORE.INTRA.REPUL>
0

>  <SCORE.INTRA.REPUL.0>
0

>  <SCORE.INTRA.SOLV>
0

>  <SCORE.INTRA.SOLV.lig_0>
-16.9472

>  <SCORE.INTRA.VDW>
0

>  <SCORE.INTRA.VDW.0>
0

>  <SCORE.INTRA.norm>
0

>  <SCORE.RESTR>
0.00289785

>  <SCORE.RESTR.CAVITY>
0.00289785

>  <SCORE.RESTR.norm>
0.000289785

>  <SCORE.SYSTEM>
0

>  <SCORE.SYSTEM.CONST>
0

>  <SCORE.SYSTEM.DIHEDRAL>
0

>  <SCORE.SYSTEM.SOLV>
0

>  <SCORE.SYSTEM.norm>
0

>  <SCORE.heavy>
10

>  <SCORE.norm>
-1.00564

>  <RMSD>
17.189

$$$$
1y26_lig
 OpenBabel02141814133D
libRbt.so/2013.1/901 2013/11/27
 10 11  0  0  0  0  0  0  0  0999 V2000
    8.9094   -6.1877    4.0093 N   0  0  0  0  0  0  0  0  0  0  0  0
    8.9679   -7.0718    5.0083 C   0  0  0  0  0  0  0  0  0  0  0  0
    8.5334   -6.9352    6.2595 N   0  0  0  0  0  0  0  0  0  0  0  0
    7.9541   -5.7267    6.4389 C   0  0  0  0  0  0  0  0  0  0  0  0
    7.8117   -4.7242    5.5002 C   0  0  0  0  0  0  0  0  0  0  0  0
    8.3271   -4.9905    4.2283 C   0  0  0  0  0  0  0  0  0  0  0  0
    8.2609   -4.0954    3.2559 N   0  0  0  0  0  0  0  0  0  0  0  0
    7.1833   -3.6131    6.0128 N   0  0  0  0  0  0  0  0  0  0  0  0
    6.9233   -3.9723    7.2565 C   0  0  0  0  0  0  0  0  0  0  0  0
    7.3756   -5.2338    7.5781 N   0  0  0  0  0  0  0  0  0  0  0  0
  1  2  2  0  0  0  0
  2  3  1  0  0  0  0
  3  4  2  0  0  0  0
  5  4  1  0  0  0  0
  5  6  2  0  0  0  0
  6  1  1  0  0  0  0
  6  7  1  0  0  0  0
  8  5  1  0  0  0  0
  9  8  1  0  0  0  0
 10  4  1  0  0  0  0
 10  9  2  0  0  0  0
M  END
>  <CHROM.1>
8.02555141,-5.25598628,5.55364809,-0.46868475,-1.08107677,2.20657424

>  <Name>
1y26_lig

>  <RI>
0

>  <Rbt.Current_Directory>
/home/afrankz/demos/rdock_decoys_rna/rnas/1y26

>  <Rbt.Executable>
rbdock ($Id: //depot/dev/client3/rdock/2013.1/src/exe/rbdock.cxx#4 $)

>  <Rbt.Library>
libRbt.so (2013.1, Build901 2013/11/27)

>  <Rbt.Parameter_File>
/export/apps/rDock/src/rDock_2013.1_src/data/scripts/dock_solv.prm

>  <Rbt.Receptor>
prm/blind_docking_20.prm

>  <SCORE>
-10.0665

>  <SCORE.INTER>
-10.0665

>  <SCORE.INTER.CONST>
1

>  <SCORE.INTER.POLAR>
-1.41754

>  <SCORE.INTER.ROT>
0

>  <SCORE.INTER.SOLV>
5.58206

>  <SCORE.INTER.VDW>
-7.44657

>  <SCORE.INTER.norm>
-1.00665

>  <SCORE.INTRA>
0

>  <SCORE.INTRA.DIHEDRAL>
0

>  <SCORE.INTRA.DIHEDRAL.0>
0

>  <SCORE.INTRA.POLAR>
0

>  <SCORE.INTRA.POLAR.0>
0

>  <SCORE.INTRA.REPUL>
0

>  <SCORE.INTRA.REPUL.0>
0

>  <SCORE.INTRA.SOLV>
0

>  <SCORE.INTRA.SOLV.lig_0>
-16.9472

>  <SCORE.INTRA.VDW>
0

>  <SCORE.INTRA.VDW.0>
0

>  <SCORE.INTRA.norm>
0

>  <SCORE.RESTR>
8.21004e-05

>  <SCORE.RESTR.CAVITY>
8.21004e-05

>  <SCORE.RESTR.norm>
8.21004e-06

>  <SCORE.SYSTEM>
0

>  <SCORE.SYSTEM.CONST>
0

>  <SCORE.SYSTEM.DIHEDRAL>
0

>  <SCORE.SYSTEM.SOLV>
0

>  <SCORE.SYSTEM.norm>
0

>  <SCORE.heavy>
10

>  <SCORE.norm>
-1.00665

>  <RMSD>
17.190

$$$$
1y26_lig
 OpenBabel02141814133D
libRbt.so/2013.1/901 2013/11/27
 10 11  0  0  0  0  0  0  0  0999 V2000
    8.9115   -6.1940    4.0267 N   0  0  0  0  0  0  0  0  0  0  0  0
    8.9666   -7.0736    5.0299 C   0  0  0  0  0  0  0  0  0  0  0  0
    8.5287   -6.9309    6.2792 N   0  0  0  0  0  0  0  0  0  0  0  0
    7.9498   -5.7212    6.4514 C   0  0  0  0  0  0  0  0  0  0  0  0
    7.8108   -4.7229    5.5078 C   0  0  0  0  0  0  0  0  0  0  0  0
    8.3296   -4.9954    4.2385 C   0  0  0  0  0  0  0  0  0  0  0  0
    8.2669   -4.1047    3.2619 N   0  0  0  0  0  0  0  0  0  0  0  0
    7.1819   -3.6088    6.0135 N   0  0  0  0  0  0  0  0  0  0  0  0
    6.9181   -3.9621    7.2581 C   0  0  0  0  0  0  0  0  0  0  0  0
    7.3685   -5.2226    7.5867 N   0  0  0  0  0  0  0  0  0  0  0  0
  1  2  2  0  0  0  0
  2  3  1  0  0  0  0
  3  4  2  0  0  0  0
  5  4  1  0  0  0  0
  5  6  2  0  0  0  0
  6  1  1  0  0  0  0
  6  7  1  0  0  0  0
  8  5  1  0  0  0  0
  9  8  1  0  0  0  0
 10  4  1  0  0  0  0
 10  9  2  0  0  0  0
M  END
>  <CHROM.1>
8.02413236,-5.25451288,5.56426552,-0.46287387,-1.08004008,2.20712824

>  <Name>
1y26_lig

>  <RI>
0

>  <Rbt.Current_Directory>
/home/afrankz/demos/rdock_decoys_rna/rnas/1y26

>  <Rbt.Executable>
rbdock ($Id: //depot/dev/client3/rdock/2013.1/src/exe/rbdock.cxx#4 $)

>  <Rbt.Library>
libRbt.so (2013.1, Build901 2013/11/27)

>  <Rbt.Parameter_File>
/export/apps/rDock/src/rDock_2013.1_src/data/scripts/dock_solv.prm

>  <Rbt.Receptor>
prm/blind_docking_20.prm

>  <SCORE>
-10.0788

>  <SCORE.INTER>
-10.0788

>  <SCORE.INTER.CONST>
1

>  <SCORE.INTER.POLAR>
-1.40542

>  <SCORE.INTER.ROT>
0

>  <SCORE.INTER.SOLV>
5.58853

>  <SCORE.INTER.VDW>
-7.49731

>  <SCORE.INTER.norm>
-1.00788

>  <SCORE.INTRA>
0

>  <SCORE.INTRA.DIHEDRAL>
0

>  <SCORE.INTRA.DIHEDRAL.0>
0

>  <SCORE.INTRA.POLAR>
0

>  <SCORE.INTRA.POLAR.0>
0

>  <SCORE.INTRA.REPUL>
0

>  <SCORE.INTRA.REPUL.0>
0

>  <SCORE.INTRA.SOLV>
0

>  <SCORE.INTRA.SOLV.lig_0>
-16.9472

>  <SCORE.INTRA.VDW>
0

>  <SCORE.INTRA.VDW.0>
0

>  <SCORE.INTRA.norm>
0

>  <SCORE.RESTR>
0

>  <SCORE.RESTR.CAVITY>
0

>  <SCORE.RESTR.norm>
0

>  <SCORE.SYSTEM>
0

>  <SCORE.SYSTEM.CONST>
0

>  <SCORE.SYSTEM.DIHEDRAL>
0

>  <SCORE.SYSTEM.SOLV>
0

>  <SCORE.SYSTEM.norm>
0

>  <SCORE.heavy>
10

>  <SCORE.norm>
-1.00788

>  <RMSD>
17.193

$$$$
1y26_lig
 OpenBabel02141814133D
libRbt.so/2013.1/901 2013/11/27
 10 11  0  0  0  0  0  0  0  0999 V2000
    7.7670   -3.7435    5.6026 N   0  0  0  0  0  0  0  0  0  0  0  0
    8.1862   -4.5954    4.6637 C   0  0  0  0  0  0  0  0  0  0  0  0
    8.3354   -5.9156    4.7526 N   0  0  0  0  0  0  0  0  0  0  0  0
    7.9690   -6.3603    5.9758 C   0  0  0  0  0  0  0  0  0  0  0  0
    7.5076   -5.6022    7.0335 C   0  0  0  0  0  0  0  0  0  0  0  0
    7.4140   -4.2249    6.8124 C   0  0  0  0  0  0  0  0  0  0  0  0
    6.9999   -3.4006    7.7612 N   0  0  0  0  0  0  0  0  0  0  0  0
    7.2322   -6.3661    8.1438 N   0  0  0  0  0  0  0  0  0  0  0  0
    7.5028   -7.5905    7.7304 C   0  0  0  0  0  0  0  0  0  0  0  0
    7.9642   -7.6511    6.4331 N   0  0  0  0  0  0  0  0  0  0  0  0
  1  2  2  0  0  0  0
  2  3  1  0  0  0  0
  3  4  2  0  0  0  0
  5  4  1  0  0  0  0
  5  6  2  0  0  0  0
  6  1  1  0  0  0  0
  6  7  1  0  0  0  0
  8  5  1  0  0  0  0
  9  8  1  0  0  0  0
 10  4  1  0  0  0  0
 10  9  2  0  0  0  0
M  END
>  <CHROM.1>
7.68809460,-5.54357737,6.49003667,-1.56777487,-1.22379743,2.79844662

>  <Name>
1y26_lig

>  <RI>
0

>  <Rbt.Current_Directory>
/home/afrankz/demos/rdock_decoys_rna/rnas/1y26

>  <Rbt.Executable>
rbdock ($Id: //depot/dev/client3/rdock/2013.1/src/exe/rbdock.cxx#4 $)

>  <Rbt.Library>
libRbt.so (2013.1, Build901 2013/11/27)

>  <Rbt.Parameter_File>
/export/apps/rDock/src/rDock_2013.1_src/data/scripts/dock_solv.prm

>  <Rbt.Receptor>
prm/blind_docking_20.prm

>  <SCORE>
-10.3708

>  <SCORE.INTER>
-10.4076

>  <SCORE.INTER.CONST>
1

>  <SCORE.INTER.POLAR>
-1.01381

>  <SCORE.INTER.ROT>
0

>  <SCORE.INTER.SOLV>
5.01715

>  <SCORE.INTER.VDW>
-8.83142

>  <SCORE.INTER.norm>
-1.04076

>  <SCORE.INTRA>
0

>  <SCORE.INTRA.DIHEDRAL>
0

>  <SCORE.INTRA.DIHEDRAL.0>
0

>  <SCORE.INTRA.POLAR>
0

>  <SCORE.INTRA.POLAR.0>
0

>  <SCORE.INTRA.REPUL>
0

>  <SCORE.INTRA.REPUL.0>
0

>  <SCORE.INTRA.SOLV>
0

>  <SCORE.INTRA.SOLV.lig_0>
-16.9472

>  <SCORE.INTRA.VDW>
0

>  <SCORE.INTRA.VDW.0>
0

>  <SCORE.INTRA.norm>
0

>  <SCORE.RESTR>
0.0367845

>  <SCORE.RESTR.CAVITY>
0.0367845

>  <SCORE.RESTR.norm>
0.00367845

>  <SCORE.SYSTEM>
0

>  <SCORE.SYSTEM.CONST>
0

>  <SCORE.SYSTEM.DIHEDRAL>
0

>  <SCORE.SYSTEM.SOLV>
0

>  <SCORE.SYSTEM.norm>
0

>  <SCORE.heavy>
10

>  <SCORE.norm>
-1.03708

>  <RMSD>
17.262

$$$$
1y26_lig
 OpenBabel02141814133D
libRbt.so/2013.1/901 2013/11/27
 10 11  0  0  0  0  0  0  0  0999 V2000
    8.9907   -6.1116    3.4576 N   0  0  0  0  0  0  0  0  0  0  0  0
    8.5918   -4.9754    2.8805 C   0  0  0  0  0  0  0  0  0  0  0  0
    7.9016   -3.9725    3.4196 N   0  0  0  0  0  0  0  0  0  0  0  0
    7.6390   -4.2149    4.7237 C   0  0  0  0  0  0  0  0  0  0  0  0
    7.9975   -5.3321    5.4514 C   0  0  0  0  0  0  0  0  0  0  0  0
    8.7061   -6.3192    4.7599 C   0  0  0  0  0  0  0  0  0  0  0  0
    9.0861   -7.4391    5.3535 N   0  0  0  0  0  0  0  0  0  0  0  0
    7.5646   -5.2681    6.7556 N   0  0  0  0  0  0  0  0  0  0  0  0
    6.9720   -4.0893    6.8090 C   0  0  0  0  0  0  0  0  0  0  0  0
    6.9731   -3.4104    5.6096 N   0  0  0  0  0  0  0  0  0  0  0  0
  1  2  2  0  0  0  0
  2  3  1  0  0  0  0
  3  4  2  0  0  0  0
  5  4  1  0  0  0  0
  5  6  2  0  0  0  0
  6  1  1  0  0  0  0
  6  7  1  0  0  0  0
  8  5  1  0  0  0  0
  9  8  1  0  0  0  0
 10  4  1  0  0  0  0
 10  9  2  0  0  0  0
M  END
>  <CHROM.1>
8.04289018,-5.11399100,4.92065282,0.26614954,1.03888224,-1.03793252

>  <Name>
1y26_lig

>  <RI>
0

>  <Rbt.Current_Directory>
/home/afrankz/demos/rdock_decoys_rna/rnas/1y26

>  <Rbt.Executable>
rbdock ($Id: //depot/dev/client3/rdock/2013.1/src/exe/rbdock.cxx#4 $)

>  <Rbt.Library>
libRbt.so (2013.1, Build901 2013/11/27)

>  <Rbt.Parameter_File>
/export/apps/rDock/src/rDock_2013.1_src/data/scripts/dock_solv.prm

>  <Rbt.Receptor>
prm/blind_docking_20.prm

>  <SCORE>
-6.87981

>  <SCORE.INTER>
-7.02989

>  <SCORE.INTER.CONST>
1

>  <SCORE.INTER.POLAR>
-1.01652

>  <SCORE.INTER.ROT>
0

>  <SCORE.INTER.SOLV>
5.25798

>  <SCORE.INTER.VDW>
-6.65085

>  <SCORE.INTER.norm>
-0.702989

>  <SCORE.INTRA>
0

>  <SCORE.INTRA.DIHEDRAL>
0

>  <SCORE.INTRA.DIHEDRAL.0>
0

>  <SCORE.INTRA.POLAR>
0

>  <SCORE.INTRA.POLAR.0>
0

>  <SCORE.INTRA.REPUL>
0

>  <SCORE.INTRA.REPUL.0>
0

>  <SCORE.INTRA.SOLV>
0

>  <SCORE.INTRA.SOLV.lig_0>
-16.9472

>  <SCORE.INTRA.VDW>
0

>  <SCORE.INTRA.VDW.0>
0

>  <SCORE.INTRA.norm>
0

>  <SCORE.RESTR>
0.150079

>  <SCORE.RESTR.CAVITY>
0.150079

>  <SCORE.RESTR.norm>
0.0150079

>  <SCORE.SYSTEM>
0

>  <SCORE.SYSTEM.CONST>
0

>  <SCORE.SYSTEM.DIHEDRAL>
0

>  <SCORE.SYSTEM.SOLV>
0

>  <SCORE.SYSTEM.norm>
0

>  <SCORE.heavy>
10

>  <SCORE.norm>
-0.687981

>  <RMSD>
17.291

$$$$
1y26_lig
 OpenBabel02141814133D
libRbt.so/2013.1/901 2013/11/27
 10 11  0  0  0  0  0  0  0  0999 V2000
    7.4828   -5.6187    6.7983 N   0  0  0  0  0  0  0  0  0  0  0  0
    7.1440   -4.3446    6.5856 C   0  0  0  0  0  0  0  0  0  0  0  0
    7.3596   -3.6019    5.5017 N   0  0  0  0  0  0  0  0  0  0  0  0
    7.9835   -4.3210    4.5415 C   0  0  0  0  0  0  0  0  0  0  0  0
    8.3800   -5.6414    4.6156 C   0  0  0  0  0  0  0  0  0  0  0  0
    8.1080   -6.3020    5.8173 C   0  0  0  0  0  0  0  0  0  0  0  0
    8.4584   -7.5642    6.0052 N   0  0  0  0  0  0  0  0  0  0  0  0
    8.9996   -6.0671    3.4635 N   0  0  0  0  0  0  0  0  0  0  0  0
    8.9415   -4.9992    2.6890 C   0  0  0  0  0  0  0  0  0  0  0  0
    8.3503   -3.9080    3.2883 N   0  0  0  0  0  0  0  0  0  0  0  0
  1  2  2  0  0  0  0
  2  3  1  0  0  0  0
  3  4  2  0  0  0  0
  5  4  1  0  0  0  0
  5  6  2  0  0  0  0
  6  1  1  0  0  0  0
  6  7  1  0  0  0  0
  8  5  1  0  0  0  0
  9  8  1  0  0  0  0
 10  4  1  0  0  0  0
 10  9  2  0  0  0  0
M  END
>  <CHROM.1>
8.12029041,-5.23688664,4.93221666,2.20015860,-1.08813380,2.45950030

>  <Name>
1y26_lig

>  <RI>
0

>  <Rbt.Current_Directory>
/home/afrankz/demos/rdock_decoys_rna/rnas/1y26

>  <Rbt.Executable>
rbdock ($Id: //depot/dev/client3/rdock/2013.1/src/exe/rbdock.cxx#4 $)

>  <Rbt.Library>
libRbt.so (2013.1, Build901 2013/11/27)

>  <Rbt.Parameter_File>
/export/apps/rDock/src/rDock_2013.1_src/data/scripts/dock_solv.prm

>  <Rbt.Receptor>
prm/blind_docking_20.prm

>  <SCORE>
-9.81282

>  <SCORE.INTER>
-9.81385

>  <SCORE.INTER.CONST>
1

>  <SCORE.INTER.POLAR>
-1.37377

>  <SCORE.INTER.ROT>
0

>  <SCORE.INTER.SOLV>
5.01495

>  <SCORE.INTER.VDW>
-7.235

>  <SCORE.INTER.norm>
-0.981385

>  <SCORE.INTRA>
0

>  <SCORE.INTRA.DIHEDRAL>
0

>  <SCORE.INTRA.DIHEDRAL.0>
0

>  <SCORE.INTRA.POLAR>
0

>  <SCORE.INTRA.POLAR.0>
0

>  <SCORE.INTRA.REPUL>
0

>  <SCORE.INTRA.REPUL.0>
0

>  <SCORE.INTRA.SOLV>
0

>  <SCORE.INTRA.SOLV.lig_0>
-16.9472

>  <SCORE.INTRA.VDW>
0

>  <SCORE.INTRA.VDW.0>
0

>  <SCORE.INTRA.norm>
0

>  <SCORE.RESTR>
0.00102621

>  <SCORE.RESTR.CAVITY>
0.00102621

>  <SCORE.RESTR.norm>
0.000102621

>  <SCORE.SYSTEM>
0

>  <SCORE.SYSTEM.CONST>
0

>  <SCORE.SYSTEM.DIHEDRAL>
0

>  <SCORE.SYSTEM.SOLV>
0

>  <SCORE.SYSTEM.norm>
0

>  <SCORE.heavy>
10

>  <SCORE.norm>
-0.981282

>  <RMSD>
17.345

$$$$
1y26_lig
 OpenBabel02141814133D
libRbt.so/2013.1/901 2013/11/27
 10 11  0  0  0  0  0  0  0  0999 V2000
    7.4779   -5.6146    6.7979 N   0  0  0  0  0  0  0  0  0  0  0  0
    7.1391   -4.3411    6.5819 C   0  0  0  0  0  0  0  0  0  0  0  0
    7.3563   -3.6006    5.4969 N   0  0  0  0  0  0  0  0  0  0  0  0
    7.9820   -4.3215    4.5392 C   0  0  0  0  0  0  0  0  0  0  0  0
    8.3788   -5.6417    4.6167 C   0  0  0  0  0  0  0  0  0  0  0  0
    8.1050   -6.2998    5.8194 C   0  0  0  0  0  0  0  0  0  0  0  0
    8.4554   -7.5615    6.0105 N   0  0  0  0  0  0  0  0  0  0  0  0
    9.0004   -6.0695    3.4666 N   0  0  0  0  0  0  0  0  0  0  0  0
    8.9433   -5.0033    2.6898 C   0  0  0  0  0  0  0  0  0  0  0  0
    8.3508   -3.9110    3.2858 N   0  0  0  0  0  0  0  0  0  0  0  0
  1  2  2  0  0  0  0
  2  3  1  0  0  0  0
  3  4  2  0  0  0  0
  5  4  1  0  0  0  0
  5  6  2  0  0  0  0
  6  1  1  0  0  0  0
  6  7  1  0  0  0  0
  8  5  1  0  0  0  0
  9  8  1  0  0  0  0
 10  4  1  0  0  0  0
 10  9  2  0  0  0  0
M  END
>  <CHROM.1>
8.11842913,-5.23654734,4.93211486,2.20194366,-1.08664815,2.45898722

>  <Name>
1y26_lig

>  <RI>
0

>  <Rbt.Current_Directory>
/home/afrankz/demos/rdock_decoys_rna/rnas/1y26

>  <Rbt.Executable>
rbdock ($Id: //depot/dev/client3/rdock/2013.1/src/exe/rbdock.cxx#4 $)

>  <Rbt.Library>
libRbt.so (2013.1, Build901 2013/11/27)

>  <Rbt.Parameter_File>
/export/apps/rDock/src/rDock_2013.1_src/data/scripts/dock_solv.prm

>  <Rbt.Receptor>
prm/blind_docking_20.prm

>  <SCORE>
-9.80845

>  <SCORE.INTER>
-9.80863

>  <SCORE.INTER.CONST>
1

>  <SCORE.INTER.POLAR>
-1.37056

>  <SCORE.INTER.ROT>
0

>  <SCORE.INTER.SOLV>
5.0052

>  <SCORE.INTER.VDW>
-7.23895

>  <SCORE.INTER.norm>
-0.980863

>  <SCORE.INTRA>
0

>  <SCORE.INTRA.DIHEDRAL>
0

>  <SCORE.INTRA.DIHEDRAL.0>
0

>  <SCORE.INTRA.POLAR>
0

>  <SCORE.INTRA.POLAR.0>
0

>  <SCORE.INTRA.REPUL>
0

>  <SCORE.INTRA.REPUL.0>
0

>  <SCORE.INTRA.SOLV>
0

>  <SCORE.INTRA.SOLV.lig_0>
-16.9472

>  <SCORE.INTRA.VDW>
0

>  <SCORE.INTRA.VDW.0>
0

>  <SCORE.INTRA.norm>
0

>  <SCORE.RESTR>
0.000181246

>  <SCORE.RESTR.CAVITY>
0.000181246

>  <SCORE.RESTR.norm>
1.81246e-05

>  <SCORE.SYSTEM>
0

>  <SCORE.SYSTEM.CONST>
0

>  <SCORE.SYSTEM.DIHEDRAL>
0

>  <SCORE.SYSTEM.SOLV>
0

>  <SCORE.SYSTEM.norm>
0

>  <SCORE.heavy>
10

>  <SCORE.norm>
-0.980845

>  <RMSD>
17.347

$$$$
1y26_lig
 OpenBabel02141814133D
libRbt.so/2013.1/901 2013/11/27
 10 11  0  0  0  0  0  0  0  0999 V2000
    7.3567   -4.5447    2.1347 N   0  0  0  0  0  0  0  0  0  0  0  0
    8.5756   -5.0889    2.0977 C   0  0  0  0  0  0  0  0  0  0  0  0
    9.2751   -5.6186    3.0993 N   0  0  0  0  0  0  0  0  0  0  0  0
    8.5714   -5.5767    4.2531 C   0  0  0  0  0  0  0  0  0  0  0  0
    7.3046   -5.0593    4.4373 C   0  0  0  0  0  0  0  0  0  0  0  0
    6.6874   -4.5177    3.3058 C   0  0  0  0  0  0  0  0  0  0  0  0
    5.4802   -3.9796    3.3696 N   0  0  0  0  0  0  0  0  0  0  0  0
    6.8812   -5.1644    5.7419 N   0  0  0  0  0  0  0  0  0  0  0  0
    7.8927   -5.7774    6.3288 C   0  0  0  0  0  0  0  0  0  0  0  0
    8.9494   -6.0420    5.4844 N   0  0  0  0  0  0  0  0  0  0  0  0
  1  2  2  0  0  0  0
  2  3  1  0  0  0  0
  3  4  2  0  0  0  0
  5  4  1  0  0  0  0
  5  6  2  0  0  0  0
  6  1  1  0  0  0  0
  6  7  1  0  0  0  0
  8  5  1  0  0  0  0
  9  8  1  0  0  0  0
 10  4  1  0  0  0  0
 10  9  2  0  0  0  0
M  END
>  <CHROM.1>
7.69737893,-5.13638233,4.02366684,-1.87449600,-0.41289724,1.80113419

>  <Name>
1y26_lig

>  <RI>
0

>  <Rbt.Current_Directory>
/home/afrankz/demos/rdock_decoys_rna/rnas/1y26

>  <Rbt.Executable>
rbdock ($Id: //depot/dev/client3/rdock/2013.1/src/exe/rbdock.cxx#4 $)

>  <Rbt.Library>
libRbt.so (2013.1, Build901 2013/11/27)

>  <Rbt.Parameter_File>
/export/apps/rDock/src/rDock_2013.1_src/data/scripts/dock_solv.prm

>  <Rbt.Receptor>
prm/blind_docking_20.prm

>  <SCORE>
-10.8824

>  <SCORE.INTER>
-10.8824

>  <SCORE.INTER.CONST>
1

>  <SCORE.INTER.POLAR>
-1.91423

>  <SCORE.INTER.ROT>
0

>  <SCORE.INTER.SOLV>
3.33098

>  <SCORE.INTER.VDW>
-5.58452

>  <SCORE.INTER.norm>
-1.08824

>  <SCORE.INTRA>
0

>  <SCORE.INTRA.DIHEDRAL>
0

>  <SCORE.INTRA.DIHEDRAL.0>
0

>  <SCORE.INTRA.POLAR>
0

>  <SCORE.INTRA.POLAR.0>
0

>  <SCORE.INTRA.REPUL>
0

>  <SCORE.INTRA.REPUL.0>
0

>  <SCORE.INTRA.SOLV>
0

>  <SCORE.INTRA.SOLV.lig_0>
-16.9472

>  <SCORE.INTRA.VDW>
0

>  <SCORE.INTRA.VDW.0>
0

>  <SCORE.INTRA.norm>
0

>  <SCORE.RESTR>
0

>  <SCORE.RESTR.CAVITY>
0

>  <SCORE.RESTR.norm>
0

>  <SCORE.SYSTEM>
0

>  <SCORE.SYSTEM.CONST>
0

>  <SCORE.SYSTEM.DIHEDRAL>
0

>  <SCORE.SYSTEM.SOLV>
0

>  <SCORE.SYSTEM.norm>
0

>  <SCORE.heavy>
10

>  <SCORE.norm>
-1.08824

>  <RMSD>
17.417

$$$$
1y26_lig
 OpenBabel02141814133D
libRbt.so/2013.1/901 2013/11/27
 10 11  0  0  0  0  0  0  0  0999 V2000
    7.3525   -4.5506    2.1370 N   0  0  0  0  0  0  0  0  0  0  0  0
    8.5700   -5.0978    2.1000 C   0  0  0  0  0  0  0  0  0  0  0  0
    9.2700   -5.6253    3.1025 N   0  0  0  0  0  0  0  0  0  0  0  0
    8.5683   -5.5772    4.2573 C   0  0  0  0  0  0  0  0  0  0  0  0
    7.3031   -5.0561    4.4417 C   0  0  0  0  0  0  0  0  0  0  0  0
    6.6853   -4.5174    3.3091 C   0  0  0  0  0  0  0  0  0  0  0  0
    5.4794   -3.9762    3.3729 N   0  0  0  0  0  0  0  0  0  0  0  0
    6.8817   -5.1551    5.7474 N   0  0  0  0  0  0  0  0  0  0  0  0
    7.8928   -5.7683    6.3349 C   0  0  0  0  0  0  0  0  0  0  0  0
    8.9474   -6.0386    5.4897 N   0  0  0  0  0  0  0  0  0  0  0  0
  1  2  2  0  0  0  0
  2  3  1  0  0  0  0
  3  4  2  0  0  0  0
  5  4  1  0  0  0  0
  5  6  2  0  0  0  0
  6  1  1  0  0  0  0
  6  7  1  0  0  0  0
  8  5  1  0  0  0  0
  9  8  1  0  0  0  0
 10  4  1  0  0  0  0
 10  9  2  0  0  0  0
M  END
>  <CHROM.1>
7.69501503,-5.13573218,4.02764543,-1.87574020,-0.41560333,1.79672699

>  <Name>
1y26_lig

>  <RI>
0

>  <Rbt.Current_Directory>
/home/afrankz/demos/rdock_decoys_rna/rnas/1y26

>  <Rbt.Executable>
rbdock ($Id: //depot/dev/client3/rdock/2013.1/src/exe/rbdock.cxx#4 $)

>  <Rbt.Library>
libRbt.so (2013.1, Build901 2013/11/27)

>  <Rbt.Parameter_File>
/export/apps/rDock/src/rDock_2013.1_src/data/scripts/dock_solv.prm

>  <Rbt.Receptor>
prm/blind_docking_20.prm

>  <SCORE>
-10.8851

>  <SCORE.INTER>
-10.8853

>  <SCORE.INTER.CONST>
1

>  <SCORE.INTER.POLAR>
-1.91423

>  <SCORE.INTER.ROT>
0

>  <SCORE.INTER.SOLV>
3.31958

>  <SCORE.INTER.VDW>
-5.5826

>  <SCORE.INTER.norm>
-1.08853

>  <SCORE.INTRA>
0

>  <SCORE.INTRA.DIHEDRAL>
0

>  <SCORE.INTRA.DIHEDRAL.0>
0

>  <SCORE.INTRA.POLAR>
0

>  <SCORE.INTRA.POLAR.0>
0

>  <SCORE.INTRA.REPUL>
0

>  <SCORE.INTRA.REPUL.0>
0

>  <SCORE.INTRA.SOLV>
0

>  <SCORE.INTRA.SOLV.lig_0>
-16.9472

>  <SCORE.INTRA.VDW>
0

>  <SCORE.INTRA.VDW.0>
0

>  <SCORE.INTRA.norm>
0

>  <SCORE.RESTR>
0.000139466

>  <SCORE.RESTR.CAVITY>
0.000139466

>  <SCORE.RESTR.norm>
1.39466e-05

>  <SCORE.SYSTEM>
0

>  <SCORE.SYSTEM.CONST>
0

>  <SCORE.SYSTEM.DIHEDRAL>
0

>  <SCORE.SYSTEM.SOLV>
0

>  <SCORE.SYSTEM.norm>
0

>  <SCORE.heavy>
10

>  <SCORE.norm>
-1.08851

>  <RMSD>
17.419

$$$$
1y26_lig
 OpenBabel02141814133D
libRbt.so/2013.1/901 2013/11/27
 10 11  0  0  0  0  0  0  0  0999 V2000
    8.0165   -7.6690    6.4923 N   0  0  0  0  0  0  0  0  0  0  0  0
    8.6802   -6.9146    5.6128 C   0  0  0  0  0  0  0  0  0  0  0  0
    8.7215   -5.5864    5.5283 N   0  0  0  0  0  0  0  0  0  0  0  0
    7.9891   -5.0182    6.5126 C   0  0  0  0  0  0  0  0  0  0  0  0
    7.2654   -5.6678    7.4927 C   0  0  0  0  0  0  0  0  0  0  0  0
    7.2929   -7.0651    7.4577 C   0  0  0  0  0  0  0  0  0  0  0  0
    6.6224   -7.7905    8.3382 N   0  0  0  0  0  0  0  0  0  0  0  0
    6.6225   -4.7914    8.3359 N   0  0  0  0  0  0  0  0  0  0  0  0
    6.9938   -3.6129    7.8705 C   0  0  0  0  0  0  0  0  0  0  0  0
    7.8097   -3.6836    6.7620 N   0  0  0  0  0  0  0  0  0  0  0  0
  1  2  2  0  0  0  0
  2  3  1  0  0  0  0
  3  4  2  0  0  0  0
  5  4  1  0  0  0  0
  5  6  2  0  0  0  0
  6  1  1  0  0  0  0
  6  7  1  0  0  0  0
  8  5  1  0  0  0  0
  9  8  1  0  0  0  0
 10  4  1  0  0  0  0
 10  9  2  0  0  0  0
M  END
>  <CHROM.1>
7.60174154,-5.78144582,7.03958880,-1.34040227,0.92794207,0.00019908

>  <Name>
1y26_lig

>  <RI>
0

>  <Rbt.Current_Directory>
/home/afrankz/demos/rdock_decoys_rna/rnas/1y26

>  <Rbt.Executable>
rbdock ($Id: //depot/dev/client3/rdock/2013.1/src/exe/rbdock.cxx#4 $)

>  <Rbt.Library>
libRbt.so (2013.1, Build901 2013/11/27)

>  <Rbt.Parameter_File>
/export/apps/rDock/src/rDock_2013.1_src/data/scripts/dock_solv.prm

>  <Rbt.Receptor>
prm/blind_docking_20.prm

>  <SCORE>
-17.2733

>  <SCORE.INTER>
-17.3786

>  <SCORE.INTER.CONST>
1

>  <SCORE.INTER.POLAR>
-2.03961

>  <SCORE.INTER.ROT>
0

>  <SCORE.INTER.SOLV>
5.81285

>  <SCORE.INTER.VDW>
-10.3247

>  <SCORE.INTER.norm>
-1.73786

>  <SCORE.INTRA>
0

>  <SCORE.INTRA.DIHEDRAL>
0

>  <SCORE.INTRA.DIHEDRAL.0>
0

>  <SCORE.INTRA.POLAR>
0

>  <SCORE.INTRA.POLAR.0>
0

>  <SCORE.INTRA.REPUL>
0

>  <SCORE.INTRA.REPUL.0>
0

>  <SCORE.INTRA.SOLV>
0

>  <SCORE.INTRA.SOLV.lig_0>
-16.9472

>  <SCORE.INTRA.VDW>
0

>  <SCORE.INTRA.VDW.0>
0

>  <SCORE.INTRA.norm>
0

>  <SCORE.RESTR>
0.105342

>  <SCORE.RESTR.CAVITY>
0.105342

>  <SCORE.RESTR.norm>
0.0105342

>  <SCORE.SYSTEM>
0

>  <SCORE.SYSTEM.CONST>
0

>  <SCORE.SYSTEM.DIHEDRAL>
0

>  <SCORE.SYSTEM.SOLV>
0

>  <SCORE.SYSTEM.norm>
0

>  <SCORE.heavy>
10

>  <SCORE.norm>
-1.72733

>  <RMSD>
17.421

$$$$
1y26_lig
 OpenBabel02141814133D
libRbt.so/2013.1/901 2013/11/27
 10 11  0  0  0  0  0  0  0  0999 V2000
    7.3329   -4.5477    2.1518 N   0  0  0  0  0  0  0  0  0  0  0  0
    8.5487   -5.0980    2.1066 C   0  0  0  0  0  0  0  0  0  0  0  0
    9.2550   -5.6253    3.1046 N   0  0  0  0  0  0  0  0  0  0  0  0
    8.5623   -5.5734    4.2647 C   0  0  0  0  0  0  0  0  0  0  0  0
    7.2998   -5.0489    4.4578 C   0  0  0  0  0  0  0  0  0  0  0  0
    6.6747   -4.5107    3.3290 C   0  0  0  0  0  0  0  0  0  0  0  0
    5.4707   -3.9664    3.4009 N   0  0  0  0  0  0  0  0  0  0  0  0
    6.8881   -5.1445    5.7668 N   0  0  0  0  0  0  0  0  0  0  0  0
    7.9022   -5.7590    6.3478 C   0  0  0  0  0  0  0  0  0  0  0  0
    8.9496   -6.0335    5.4951 N   0  0  0  0  0  0  0  0  0  0  0  0
  1  2  2  0  0  0  0
  2  3  1  0  0  0  0
  3  4  2  0  0  0  0
  5  4  1  0  0  0  0
  5  6  2  0  0  0  0
  6  1  1  0  0  0  0
  6  7  1  0  0  0  0
  8  5  1  0  0  0  0
  9  8  1  0  0  0  0
 10  4  1  0  0  0  0
 10  9  2  0  0  0  0
M  END
>  <CHROM.1>
7.68834935,-5.13021608,4.04089133,-1.88327433,-0.41970369,1.79183216

>  <Name>
1y26_lig

>  <RI>
0

>  <Rbt.Current_Directory>
/home/afrankz/demos/rdock_decoys_rna/rnas/1y26

>  <Rbt.Executable>
rbdock ($Id: //depot/dev/client3/rdock/2013.1/src/exe/rbdock.cxx#4 $)

>  <Rbt.Library>
libRbt.so (2013.1, Build901 2013/11/27)

>  <Rbt.Parameter_File>
/export/apps/rDock/src/rDock_2013.1_src/data/scripts/dock_solv.prm

>  <Rbt.Receptor>
prm/blind_docking_20.prm

>  <SCORE>
-10.8968

>  <SCORE.INTER>
-10.8968

>  <SCORE.INTER.CONST>
1

>  <SCORE.INTER.POLAR>
-1.91405

>  <SCORE.INTER.ROT>
0

>  <SCORE.INTER.SOLV>
3.31065

>  <SCORE.INTER.VDW>
-5.58793

>  <SCORE.INTER.norm>
-1.08968

>  <SCORE.INTRA>
0

>  <SCORE.INTRA.DIHEDRAL>
0

>  <SCORE.INTRA.DIHEDRAL.0>
0

>  <SCORE.INTRA.POLAR>
0

>  <SCORE.INTRA.POLAR.0>
0

>  <SCORE.INTRA.REPUL>
0

>  <SCORE.INTRA.REPUL.0>
0

>  <SCORE.INTRA.SOLV>
0

>  <SCORE.INTRA.SOLV.lig_0>
-16.9472

>  <SCORE.INTRA.VDW>
0

>  <SCORE.INTRA.VDW.0>
0

>  <SCORE.INTRA.norm>
0

>  <SCORE.RESTR>
0

>  <SCORE.RESTR.CAVITY>
0

>  <SCORE.RESTR.norm>
0

>  <SCORE.SYSTEM>
0

>  <SCORE.SYSTEM.CONST>
0

>  <SCORE.SYSTEM.DIHEDRAL>
0

>  <SCORE.SYSTEM.SOLV>
0

>  <SCORE.SYSTEM.norm>
0

>  <SCORE.heavy>
10

>  <SCORE.norm>
-1.08968

>  <RMSD>
17.428

$$$$
1y26_lig
 OpenBabel02141814133D
libRbt.so/2013.1/901 2013/11/27
 10 11  0  0  0  0  0  0  0  0999 V2000
    7.3088   -4.5145    2.1755 N   0  0  0  0  0  0  0  0  0  0  0  0
    8.5136   -5.0878    2.1222 C   0  0  0  0  0  0  0  0  0  0  0  0
    9.2198   -5.6215    3.1168 N   0  0  0  0  0  0  0  0  0  0  0  0
    8.5399   -5.5486    4.2833 C   0  0  0  0  0  0  0  0  0  0  0  0
    7.2895   -4.9991    4.4852 C   0  0  0  0  0  0  0  0  0  0  0  0
    6.6633   -4.4571    3.3589 C   0  0  0  0  0  0  0  0  0  0  0  0
    5.4704   -3.8898    3.4389 N   0  0  0  0  0  0  0  0  0  0  0  0
    6.8892   -5.0779    5.7989 N   0  0  0  0  0  0  0  0  0  0  0  0
    7.8974   -5.7074    6.3741 C   0  0  0  0  0  0  0  0  0  0  0  0
    8.9309   -6.0074    5.5130 N   0  0  0  0  0  0  0  0  0  0  0  0
  1  2  2  0  0  0  0
  2  3  1  0  0  0  0
  3  4  2  0  0  0  0
  5  4  1  0  0  0  0
  5  6  2  0  0  0  0
  6  1  1  0  0  0  0
  6  7  1  0  0  0  0
  8  5  1  0  0  0  0
  9  8  1  0  0  0  0
 10  4  1  0  0  0  0
 10  9  2  0  0  0  0
M  END
>  <CHROM.1>
7.67223033,-5.09059078,4.06507012,-1.88956328,-0.44016830,1.78224635

>  <Name>
1y26_lig

>  <RI>
0

>  <Rbt.Current_Directory>
/home/afrankz/demos/rdock_decoys_rna/rnas/1y26

>  <Rbt.Executable>
rbdock ($Id: //depot/dev/client3/rdock/2013.1/src/exe/rbdock.cxx#4 $)

>  <Rbt.Library>
libRbt.so (2013.1, Build901 2013/11/27)

>  <Rbt.Parameter_File>
/export/apps/rDock/src/rDock_2013.1_src/data/scripts/dock_solv.prm

>  <Rbt.Receptor>
prm/blind_docking_20.prm

>  <SCORE>
-10.8862

>  <SCORE.INTER>
-10.8866

>  <SCORE.INTER.CONST>
1

>  <SCORE.INTER.POLAR>
-1.91399

>  <SCORE.INTER.ROT>
0

>  <SCORE.INTER.SOLV>
3.35114

>  <SCORE.INTER.VDW>
-5.59484

>  <SCORE.INTER.norm>
-1.08866

>  <SCORE.INTRA>
0

>  <SCORE.INTRA.DIHEDRAL>
0

>  <SCORE.INTRA.DIHEDRAL.0>
0

>  <SCORE.INTRA.POLAR>
0

>  <SCORE.INTRA.POLAR.0>
0

>  <SCORE.INTRA.REPUL>
0

>  <SCORE.INTRA.REPUL.0>
0

>  <SCORE.INTRA.SOLV>
0

>  <SCORE.INTRA.SOLV.lig_0>
-16.9472

>  <SCORE.INTRA.VDW>
0

>  <SCORE.INTRA.VDW.0>
0

>  <SCORE.INTRA.norm>
0

>  <SCORE.RESTR>
0.000432375

>  <SCORE.RESTR.CAVITY>
0.000432375

>  <SCORE.RESTR.norm>
4.32375e-05

>  <SCORE.SYSTEM>
0

>  <SCORE.SYSTEM.CONST>
0

>  <SCORE.SYSTEM.DIHEDRAL>
0

>  <SCORE.SYSTEM.SOLV>
0

>  <SCORE.SYSTEM.norm>
0

>  <SCORE.heavy>
10

>  <SCORE.norm>
-1.08862

>  <RMSD>
17.466

$$$$
1y26_lig
 OpenBabel02141814133D
libRbt.so/2013.1/901 2013/11/27
 10 11  0  0  0  0  0  0  0  0999 V2000
    7.2986   -4.5117    2.1431 N   0  0  0  0  0  0  0  0  0  0  0  0
    8.5021   -5.0874    2.0856 C   0  0  0  0  0  0  0  0  0  0  0  0
    9.2103   -5.6233    3.0777 N   0  0  0  0  0  0  0  0  0  0  0  0
    8.5341   -5.5500    4.2463 C   0  0  0  0  0  0  0  0  0  0  0  0
    7.2854   -4.9981    4.4524 C   0  0  0  0  0  0  0  0  0  0  0  0
    6.6569   -4.4539    3.3284 C   0  0  0  0  0  0  0  0  0  0  0  0
    5.4654   -3.8842    3.4125 N   0  0  0  0  0  0  0  0  0  0  0  0
    6.8890   -5.0771    5.7673 N   0  0  0  0  0  0  0  0  0  0  0  0
    7.8976   -5.7091    6.3389 C   0  0  0  0  0  0  0  0  0  0  0  0
    8.9278   -6.0105    5.4745 N   0  0  0  0  0  0  0  0  0  0  0  0
  1  2  2  0  0  0  0
  2  3  1  0  0  0  0
  3  4  2  0  0  0  0
  5  4  1  0  0  0  0
  5  6  2  0  0  0  0
  6  1  1  0  0  0  0
  6  7  1  0  0  0  0
  8  5  1  0  0  0  0
  9  8  1  0  0  0  0
 10  4  1  0  0  0  0
 10  9  2  0  0  0  0
M  END
>  <CHROM.1>
7.66666128,-5.09000742,4.03106987,-1.89237301,-0.44280033,1.78183520

>  <Name>
1y26_lig

>  <RI>
0

>  <Rbt.Current_Directory>
/home/afrankz/demos/rdock_decoys_rna/rnas/1y26

>  <Rbt.Executable>
rbdock ($Id: //depot/dev/client3/rdock/2013.1/src/exe/rbdock.cxx#4 $)

>  <Rbt.Library>
libRbt.so (2013.1, Build901 2013/11/27)

>  <Rbt.Parameter_File>
/export/apps/rDock/src/rDock_2013.1_src/data/scripts/dock_solv.prm

>  <Rbt.Receptor>
prm/blind_docking_20.prm

>  <SCORE>
-10.8836

>  <SCORE.INTER>
-10.8896

>  <SCORE.INTER.CONST>
1

>  <SCORE.INTER.POLAR>
-1.91423

>  <SCORE.INTER.ROT>
0

>  <SCORE.INTER.SOLV>
3.33482

>  <SCORE.INTER.VDW>
-5.59056

>  <SCORE.INTER.norm>
-1.08896

>  <SCORE.INTRA>
0

>  <SCORE.INTRA.DIHEDRAL>
0

>  <SCORE.INTRA.DIHEDRAL.0>
0

>  <SCORE.INTRA.POLAR>
0

>  <SCORE.INTRA.POLAR.0>
0

>  <SCORE.INTRA.REPUL>
0

>  <SCORE.INTRA.REPUL.0>
0

>  <SCORE.INTRA.SOLV>
0

>  <SCORE.INTRA.SOLV.lig_0>
-16.9472

>  <SCORE.INTRA.VDW>
0

>  <SCORE.INTRA.VDW.0>
0

>  <SCORE.INTRA.norm>
0

>  <SCORE.RESTR>
0.00601949

>  <SCORE.RESTR.CAVITY>
0.00601949

>  <SCORE.RESTR.norm>
0.000601949

>  <SCORE.SYSTEM>
0

>  <SCORE.SYSTEM.CONST>
0

>  <SCORE.SYSTEM.DIHEDRAL>
0

>  <SCORE.SYSTEM.SOLV>
0

>  <SCORE.SYSTEM.norm>
0

>  <SCORE.heavy>
10

>  <SCORE.norm>
-1.08836

>  <RMSD>
17.470

$$$$
1y26_lig
 OpenBabel02141814133D
libRbt.so/2013.1/901 2013/11/27
 10 11  0  0  0  0  0  0  0  0999 V2000
    7.5677   -4.3592    2.6637 N   0  0  0  0  0  0  0  0  0  0  0  0
    8.8032   -4.8210    2.8721 C   0  0  0  0  0  0  0  0  0  0  0  0
    9.2963   -5.3982    3.9660 N   0  0  0  0  0  0  0  0  0  0  0  0
    8.3465   -5.5086    4.9220 C   0  0  0  0  0  0  0  0  0  0  0  0
    7.0331   -5.0903    4.8430 C   0  0  0  0  0  0  0  0  0  0  0  0
    6.6486   -4.4839    3.6434 C   0  0  0  0  0  0  0  0  0  0  0  0
    5.4187   -4.0299    3.4632 N   0  0  0  0  0  0  0  0  0  0  0  0
    6.3328   -5.3436    5.9996 N   0  0  0  0  0  0  0  0  0  0  0  0
    7.2303   -5.9453    6.7585 C   0  0  0  0  0  0  0  0  0  0  0  0
    8.4700   -6.0634    6.1680 N   0  0  0  0  0  0  0  0  0  0  0  0
  1  2  2  0  0  0  0
  2  3  1  0  0  0  0
  3  4  2  0  0  0  0
  5  4  1  0  0  0  0
  5  6  2  0  0  0  0
  6  1  1  0  0  0  0
  6  7  1  0  0  0  0
  8  5  1  0  0  0  0
  9  8  1  0  0  0  0
 10  4  1  0  0  0  0
 10  9  2  0  0  0  0
M  END
>  <CHROM.1>
7.51502703,-5.10365205,4.52841155,-1.66134828,-0.27162615,1.96005311

>  <Name>
1y26_lig

>  <RI>
0

>  <Rbt.Current_Directory>
/home/afrankz/demos/rdock_decoys_rna/rnas/1y26

>  <Rbt.Executable>
rbdock ($Id: //depot/dev/client3/rdock/2013.1/src/exe/rbdock.cxx#4 $)

>  <Rbt.Library>
libRbt.so (2013.1, Build901 2013/11/27)

>  <Rbt.Parameter_File>
/export/apps/rDock/src/rDock_2013.1_src/data/scripts/dock_solv.prm

>  <Rbt.Receptor>
prm/blind_docking_20.prm

>  <SCORE>
-11.447

>  <SCORE.INTER>
-11.6409

>  <SCORE.INTER.CONST>
1

>  <SCORE.INTER.POLAR>
-2.27368

>  <SCORE.INTER.ROT>
0

>  <SCORE.INTER.SOLV>
3.90095

>  <SCORE.INTER.VDW>
-5.08195

>  <SCORE.INTER.norm>
-1.16409

>  <SCORE.INTRA>
0

>  <SCORE.INTRA.DIHEDRAL>
0

>  <SCORE.INTRA.DIHEDRAL.0>
0

>  <SCORE.INTRA.POLAR>
0

>  <SCORE.INTRA.POLAR.0>
0

>  <SCORE.INTRA.REPUL>
0

>  <SCORE.INTRA.REPUL.0>
0

>  <SCORE.INTRA.SOLV>
0

>  <SCORE.INTRA.SOLV.lig_0>
-16.9472

>  <SCORE.INTRA.VDW>
0

>  <SCORE.INTRA.VDW.0>
0

>  <SCORE.INTRA.norm>
0

>  <SCORE.RESTR>
0.193894

>  <SCORE.RESTR.CAVITY>
0.193894

>  <SCORE.RESTR.norm>
0.0193894

>  <SCORE.SYSTEM>
0

>  <SCORE.SYSTEM.CONST>
0

>  <SCORE.SYSTEM.DIHEDRAL>
0

>  <SCORE.SYSTEM.SOLV>
0

>  <SCORE.SYSTEM.norm>
0

>  <SCORE.heavy>
10

>  <SCORE.norm>
-1.1447

>  <RMSD>
17.577

$$$$
1y26_lig
 OpenBabel02141814133D
libRbt.so/2013.1/901 2013/11/27
 10 11  0  0  0  0  0  0  0  0999 V2000
    7.5449   -4.3456    2.6475 N   0  0  0  0  0  0  0  0  0  0  0  0
    8.7822   -4.8041    2.8525 C   0  0  0  0  0  0  0  0  0  0  0  0
    9.2827   -5.3708    3.9486 N   0  0  0  0  0  0  0  0  0  0  0  0
    8.3388   -5.4737    4.9113 C   0  0  0  0  0  0  0  0  0  0  0  0
    7.0245   -5.0576    4.8365 C   0  0  0  0  0  0  0  0  0  0  0  0
    6.6319   -4.4625    3.6339 C   0  0  0  0  0  0  0  0  0  0  0  0
    5.4004   -4.0116    3.4571 N   0  0  0  0  0  0  0  0  0  0  0  0
    6.3315   -5.3012    5.9996 N   0  0  0  0  0  0  0  0  0  0  0  0
    7.2343   -5.8950    6.7585 C   0  0  0  0  0  0  0  0  0  0  0  0
    8.4706   -6.0169    6.1615 N   0  0  0  0  0  0  0  0  0  0  0  0
  1  2  2  0  0  0  0
  2  3  1  0  0  0  0
  3  4  2  0  0  0  0
  5  4  1  0  0  0  0
  5  6  2  0  0  0  0
  6  1  1  0  0  0  0
  6  7  1  0  0  0  0
  8  5  1  0  0  0  0
  9  8  1  0  0  0  0
 10  4  1  0  0  0  0
 10  9  2  0  0  0  0
M  END
>  <CHROM.1>
7.50446991,-5.07321197,4.51914549,-1.66767379,-0.27281780,1.94929540

>  <Name>
1y26_lig

>  <RI>
0

>  <Rbt.Current_Directory>
/home/afrankz/demos/rdock_decoys_rna/rnas/1y26

>  <Rbt.Executable>
rbdock ($Id: //depot/dev/client3/rdock/2013.1/src/exe/rbdock.cxx#4 $)

>  <Rbt.Library>
libRbt.so (2013.1, Build901 2013/11/27)

>  <Rbt.Parameter_File>
/export/apps/rDock/src/rDock_2013.1_src/data/scripts/dock_solv.prm

>  <Rbt.Receptor>
prm/blind_docking_20.prm

>  <SCORE>
-11.521

>  <SCORE.INTER>
-11.7498

>  <SCORE.INTER.CONST>
1

>  <SCORE.INTER.POLAR>
-2.27578

>  <SCORE.INTER.ROT>
0

>  <SCORE.INTER.SOLV>
3.91496

>  <SCORE.INTER.VDW>
-5.15227

>  <SCORE.INTER.norm>
-1.17498

>  <SCORE.INTRA>
0

>  <SCORE.INTRA.DIHEDRAL>
0

>  <SCORE.INTRA.DIHEDRAL.0>
0

>  <SCORE.INTRA.POLAR>
0

>  <SCORE.INTRA.POLAR.0>
0

>  <SCORE.INTRA.REPUL>
0

>  <SCORE.INTRA.REPUL.0>
0

>  <SCORE.INTRA.SOLV>
0

>  <SCORE.INTRA.SOLV.lig_0>
-16.9472

>  <SCORE.INTRA.VDW>
0

>  <SCORE.INTRA.VDW.0>
0

>  <SCORE.INTRA.norm>
0

>  <SCORE.RESTR>
0.228793

>  <SCORE.RESTR.CAVITY>
0.228793

>  <SCORE.RESTR.norm>
0.0228793

>  <SCORE.SYSTEM>
0

>  <SCORE.SYSTEM.CONST>
0

>  <SCORE.SYSTEM.DIHEDRAL>
0

>  <SCORE.SYSTEM.SOLV>
0

>  <SCORE.SYSTEM.norm>
0

>  <SCORE.heavy>
10

>  <SCORE.norm>
-1.1521

>  <RMSD>
17.607

$$$$
1y26_lig
 OpenBabel02141814133D
libRbt.so/2013.1/901 2013/11/27
 10 11  0  0  0  0  0  0  0  0999 V2000
    7.2299   -4.4264    2.2753 N   0  0  0  0  0  0  0  0  0  0  0  0
    8.3810   -5.1005    2.2138 C   0  0  0  0  0  0  0  0  0  0  0  0
    9.0741   -5.6454    3.2115 N   0  0  0  0  0  0  0  0  0  0  0  0
    8.4424   -5.4625    4.3929 C   0  0  0  0  0  0  0  0  0  0  0  0
    7.2489   -4.8015    4.6052 C   0  0  0  0  0  0  0  0  0  0  0  0
    6.6317   -4.2610    3.4732 C   0  0  0  0  0  0  0  0  0  0  0  0
    5.4930   -3.5926    3.5613 N   0  0  0  0  0  0  0  0  0  0  0  0
    6.8882   -4.7863    5.9326 N   0  0  0  0  0  0  0  0  0  0  0  0
    7.8600   -5.4711    6.5072 C   0  0  0  0  0  0  0  0  0  0  0  0
    8.8355   -5.8958    5.6311 N   0  0  0  0  0  0  0  0  0  0  0  0
  1  2  2  0  0  0  0
  2  3  1  0  0  0  0
  3  4  2  0  0  0  0
  5  4  1  0  0  0  0
  5  6  2  0  0  0  0
  6  1  1  0  0  0  0
  6  7  1  0  0  0  0
  8  5  1  0  0  0  0
  9  8  1  0  0  0  0
 10  4  1  0  0  0  0
 10  9  2  0  0  0  0
M  END
>  <CHROM.1>
7.60840176,-4.94385896,4.17877761,-1.90782677,-0.52778462,1.72656779

>  <Name>
1y26_lig

>  <RI>
0

>  <Rbt.Current_Directory>
/home/afrankz/demos/rdock_decoys_rna/rnas/1y26

>  <Rbt.Executable>
rbdock ($Id: //depot/dev/client3/rdock/2013.1/src/exe/rbdock.cxx#4 $)

>  <Rbt.Library>
libRbt.so (2013.1, Build901 2013/11/27)

>  <Rbt.Parameter_File>
/export/apps/rDock/src/rDock_2013.1_src/data/scripts/dock_solv.prm

>  <Rbt.Receptor>
prm/blind_docking_20.prm

>  <SCORE>
-10.8523

>  <SCORE.INTER>
-10.8577

>  <SCORE.INTER.CONST>
1

>  <SCORE.INTER.POLAR>
-1.91393

>  <SCORE.INTER.ROT>
0

>  <SCORE.INTER.SOLV>
3.49864

>  <SCORE.INTER.VDW>
-5.62493

>  <SCORE.INTER.norm>
-1.08577

>  <SCORE.INTRA>
0

>  <SCORE.INTRA.DIHEDRAL>
0

>  <SCORE.INTRA.DIHEDRAL.0>
0

>  <SCORE.INTRA.POLAR>
0

>  <SCORE.INTRA.POLAR.0>
0

>  <SCORE.INTRA.REPUL>
0

>  <SCORE.INTRA.REPUL.0>
0

>  <SCORE.INTRA.SOLV>
0

>  <SCORE.INTRA.SOLV.lig_0>
-16.9472

>  <SCORE.INTRA.VDW>
0

>  <SCORE.INTRA.VDW.0>
0

>  <SCORE.INTRA.norm>
0

>  <SCORE.RESTR>
0.00538127

>  <SCORE.RESTR.CAVITY>
0.00538127

>  <SCORE.RESTR.norm>
0.000538127

>  <SCORE.SYSTEM>
0

>  <SCORE.SYSTEM.CONST>
0

>  <SCORE.SYSTEM.DIHEDRAL>
0

>  <SCORE.SYSTEM.SOLV>
0

>  <SCORE.SYSTEM.norm>
0

>  <SCORE.heavy>
10

>  <SCORE.norm>
-1.08523

>  <RMSD>
17.610

$$$$
1y26_lig
 OpenBabel02141814133D
libRbt.so/2013.1/901 2013/11/27
 10 11  0  0  0  0  0  0  0  0999 V2000
    7.2603   -4.4251    2.2164 N   0  0  0  0  0  0  0  0  0  0  0  0
    8.4069   -5.1082    2.1707 C   0  0  0  0  0  0  0  0  0  0  0  0
    9.0836   -5.6555    3.1784 N   0  0  0  0  0  0  0  0  0  0  0  0
    8.4390   -5.4644    4.3515 C   0  0  0  0  0  0  0  0  0  0  0  0
    7.2481   -4.7937    4.5474 C   0  0  0  0  0  0  0  0  0  0  0  0
    6.6489   -4.2517    3.4064 C   0  0  0  0  0  0  0  0  0  0  0  0
    5.5144   -3.5745    3.4788 N   0  0  0  0  0  0  0  0  0  0  0  0
    6.8714   -4.7719    5.8702 N   0  0  0  0  0  0  0  0  0  0  0  0
    7.8309   -5.4624    6.4585 C   0  0  0  0  0  0  0  0  0  0  0  0
    8.8138   -5.8970    5.5956 N   0  0  0  0  0  0  0  0  0  0  0  0
  1  2  2  0  0  0  0
  2  3  1  0  0  0  0
  3  4  2  0  0  0  0
  5  4  1  0  0  0  0
  5  6  2  0  0  0  0
  6  1  1  0  0  0  0
  6  7  1  0  0  0  0
  8  5  1  0  0  0  0
  9  8  1  0  0  0  0
 10  4  1  0  0  0  0
 10  9  2  0  0  0  0
M  END
>  <CHROM.1>
7.61168714,-4.93998795,4.12575082,-1.89250066,-0.53340438,1.73146788

>  <Name>
1y26_lig

>  <RI>
0

>  <Rbt.Current_Directory>
/home/afrankz/demos/rdock_decoys_rna/rnas/1y26

>  <Rbt.Executable>
rbdock ($Id: //depot/dev/client3/rdock/2013.1/src/exe/rbdock.cxx#4 $)

>  <Rbt.Library>
libRbt.so (2013.1, Build901 2013/11/27)

>  <Rbt.Parameter_File>
/export/apps/rDock/src/rDock_2013.1_src/data/scripts/dock_solv.prm

>  <Rbt.Receptor>
prm/blind_docking_20.prm

>  <SCORE>
-10.8095

>  <SCORE.INTER>
-10.8229

>  <SCORE.INTER.CONST>
1

>  <SCORE.INTER.POLAR>
-1.91423

>  <SCORE.INTER.ROT>
0

>  <SCORE.INTER.SOLV>
3.53655

>  <SCORE.INTER.VDW>
-5.61332

>  <SCORE.INTER.norm>
-1.08229

>  <SCORE.INTRA>
0

>  <SCORE.INTRA.DIHEDRAL>
0

>  <SCORE.INTRA.DIHEDRAL.0>
0

>  <SCORE.INTRA.POLAR>
0

>  <SCORE.INTRA.POLAR.0>
0

>  <SCORE.INTRA.REPUL>
0

>  <SCORE.INTRA.REPUL.0>
0

>  <SCORE.INTRA.SOLV>
0

>  <SCORE.INTRA.SOLV.lig_0>
-16.9472

>  <SCORE.INTRA.VDW>
0

>  <SCORE.INTRA.VDW.0>
0

>  <SCORE.INTRA.norm>
0

>  <SCORE.RESTR>
0.0133609

>  <SCORE.RESTR.CAVITY>
0.0133609

>  <SCORE.RESTR.norm>
0.00133609

>  <SCORE.SYSTEM>
0

>  <SCORE.SYSTEM.CONST>
0

>  <SCORE.SYSTEM.DIHEDRAL>
0

>  <SCORE.SYSTEM.SOLV>
0

>  <SCORE.SYSTEM.norm>
0

>  <SCORE.heavy>
10

>  <SCORE.norm>
-1.08095

>  <RMSD>
17.610

$$$$
1y26_lig
 OpenBabel02141814133D
libRbt.so/2013.1/901 2013/11/27
 10 11  0  0  0  0  0  0  0  0999 V2000
    7.2396   -4.4266    2.2650 N   0  0  0  0  0  0  0  0  0  0  0  0
    8.3893   -5.1037    2.2105 C   0  0  0  0  0  0  0  0  0  0  0  0
    9.0756   -5.6493    3.2127 N   0  0  0  0  0  0  0  0  0  0  0  0
    8.4378   -5.4635    4.3904 C   0  0  0  0  0  0  0  0  0  0  0  0
    7.2448   -4.7993    4.5954 C   0  0  0  0  0  0  0  0  0  0  0  0
    6.6353   -4.2584    3.4594 C   0  0  0  0  0  0  0  0  0  0  0  0
    5.4978   -3.5871    3.5405 N   0  0  0  0  0  0  0  0  0  0  0  0
    6.8768   -4.7818    5.9207 N   0  0  0  0  0  0  0  0  0  0  0  0
    7.8437   -5.4684    6.5014 C   0  0  0  0  0  0  0  0  0  0  0  0
    8.8230   -5.8964    5.6312 N   0  0  0  0  0  0  0  0  0  0  0  0
  1  2  2  0  0  0  0
  2  3  1  0  0  0  0
  3  4  2  0  0  0  0
  5  4  1  0  0  0  0
  5  6  2  0  0  0  0
  6  1  1  0  0  0  0
  6  7  1  0  0  0  0
  8  5  1  0  0  0  0
  9  8  1  0  0  0  0
 10  4  1  0  0  0  0
 10  9  2  0  0  0  0
M  END
>  <CHROM.1>
7.60631641,-4.94298903,4.17107661,-1.90107190,-0.52940677,1.72889069

>  <Name>
1y26_lig

>  <RI>
0

>  <Rbt.Current_Directory>
/home/afrankz/demos/rdock_decoys_rna/rnas/1y26

>  <Rbt.Executable>
rbdock ($Id: //depot/dev/client3/rdock/2013.1/src/exe/rbdock.cxx#4 $)

>  <Rbt.Library>
libRbt.so (2013.1, Build901 2013/11/27)

>  <Rbt.Parameter_File>
/export/apps/rDock/src/rDock_2013.1_src/data/scripts/dock_solv.prm

>  <Rbt.Receptor>
prm/blind_docking_20.prm

>  <SCORE>
-10.8933

>  <SCORE.INTER>
-10.9079

>  <SCORE.INTER.CONST>
1

>  <SCORE.INTER.POLAR>
-1.91391

>  <SCORE.INTER.ROT>
0

>  <SCORE.INTER.SOLV>
3.50152

>  <SCORE.INTER.VDW>
-5.65942

>  <SCORE.INTER.norm>
-1.09079

>  <SCORE.INTRA>
0

>  <SCORE.INTRA.DIHEDRAL>
0

>  <SCORE.INTRA.DIHEDRAL.0>
0

>  <SCORE.INTRA.POLAR>
0

>  <SCORE.INTRA.POLAR.0>
0

>  <SCORE.INTRA.REPUL>
0

>  <SCORE.INTRA.REPUL.0>
0

>  <SCORE.INTRA.SOLV>
0

>  <SCORE.INTRA.SOLV.lig_0>
-16.9472

>  <SCORE.INTRA.VDW>
0

>  <SCORE.INTRA.VDW.0>
0

>  <SCORE.INTRA.norm>
0

>  <SCORE.RESTR>
0.0146331

>  <SCORE.RESTR.CAVITY>
0.0146331

>  <SCORE.RESTR.norm>
0.00146331

>  <SCORE.SYSTEM>
0

>  <SCORE.SYSTEM.CONST>
0

>  <SCORE.SYSTEM.DIHEDRAL>
0

>  <SCORE.SYSTEM.SOLV>
0

>  <SCORE.SYSTEM.norm>
0

>  <SCORE.heavy>
10

>  <SCORE.norm>
-1.08933

>  <RMSD>
17.612

$$$$
1y26_lig
 OpenBabel02141814133D
libRbt.so/2013.1/901 2013/11/27
 10 11  0  0  0  0  0  0  0  0999 V2000
    7.2464   -4.4299    2.2597 N   0  0  0  0  0  0  0  0  0  0  0  0
    8.3916   -5.1149    2.2107 C   0  0  0  0  0  0  0  0  0  0  0  0
    9.0740   -5.6574    3.2172 N   0  0  0  0  0  0  0  0  0  0  0  0
    8.4370   -5.4586    4.3933 C   0  0  0  0  0  0  0  0  0  0  0  0
    7.2484   -4.7851    4.5928 C   0  0  0  0  0  0  0  0  0  0  0  0
    6.6427   -4.2488    3.4526 C   0  0  0  0  0  0  0  0  0  0  0  0
    5.5096   -3.5695    3.5282 N   0  0  0  0  0  0  0  0  0  0  0  0
    6.8801   -4.7551    5.9179 N   0  0  0  0  0  0  0  0  0  0  0  0
    7.8423   -5.4436    6.5040 C   0  0  0  0  0  0  0  0  0  0  0  0
    8.8191   -5.8846    5.6374 N   0  0  0  0  0  0  0  0  0  0  0  0
  1  2  2  0  0  0  0
  2  3  1  0  0  0  0
  3  4  2  0  0  0  0
  5  4  1  0  0  0  0
  5  6  2  0  0  0  0
  6  1  1  0  0  0  0
  6  7  1  0  0  0  0
  8  5  1  0  0  0  0
  9  8  1  0  0  0  0
 10  4  1  0  0  0  0
 10  9  2  0  0  0  0
M  END
>  <CHROM.1>
7.60906624,-4.93430881,4.16975220,-1.89950671,-0.53580182,1.72215281

>  <Name>
1y26_lig

>  <RI>
0

>  <Rbt.Current_Directory>
/home/afrankz/demos/rdock_decoys_rna/rnas/1y26

>  <Rbt.Executable>
rbdock ($Id: //depot/dev/client3/rdock/2013.1/src/exe/rbdock.cxx#4 $)

>  <Rbt.Library>
libRbt.so (2013.1, Build901 2013/11/27)

>  <Rbt.Parameter_File>
/export/apps/rDock/src/rDock_2013.1_src/data/scripts/dock_solv.prm

>  <Rbt.Receptor>
prm/blind_docking_20.prm

>  <SCORE>
-10.8727

>  <SCORE.INTER>
-10.8834

>  <SCORE.INTER.CONST>
1

>  <SCORE.INTER.POLAR>
-1.91423

>  <SCORE.INTER.ROT>
0

>  <SCORE.INTER.SOLV>
3.52797

>  <SCORE.INTER.VDW>
-5.65085

>  <SCORE.INTER.norm>
-1.08834

>  <SCORE.INTRA>
0

>  <SCORE.INTRA.DIHEDRAL>
0

>  <SCORE.INTRA.DIHEDRAL.0>
0

>  <SCORE.INTRA.POLAR>
0

>  <SCORE.INTRA.POLAR.0>
0

>  <SCORE.INTRA.REPUL>
0

>  <SCORE.INTRA.REPUL.0>
0

>  <SCORE.INTRA.SOLV>
0

>  <SCORE.INTRA.SOLV.lig_0>
-16.9472

>  <SCORE.INTRA.VDW>
0

>  <SCORE.INTRA.VDW.0>
0

>  <SCORE.INTRA.norm>
0

>  <SCORE.RESTR>
0.0107406

>  <SCORE.RESTR.CAVITY>
0.0107406

>  <SCORE.RESTR.norm>
0.00107406

>  <SCORE.SYSTEM>
0

>  <SCORE.SYSTEM.CONST>
0

>  <SCORE.SYSTEM.DIHEDRAL>
0

>  <SCORE.SYSTEM.SOLV>
0

>  <SCORE.SYSTEM.norm>
0

>  <SCORE.heavy>
10

>  <SCORE.norm>
-1.08727

>  <RMSD>
17.616

$$$$
1y26_lig
 OpenBabel02141814133D
libRbt.so/2013.1/901 2013/11/27
 10 11  0  0  0  0  0  0  0  0999 V2000
    9.0701   -6.3865    3.8368 N   0  0  0  0  0  0  0  0  0  0  0  0
    8.9999   -5.6628    2.7168 C   0  0  0  0  0  0  0  0  0  0  0  0
    8.3139   -4.5428    2.4981 N   0  0  0  0  0  0  0  0  0  0  0  0
    7.6573   -4.1544    3.6145 C   0  0  0  0  0  0  0  0  0  0  0  0
    7.6480   -4.7920    4.8391 C   0  0  0  0  0  0  0  0  0  0  0  0
    8.3975   -5.9687    4.9291 C   0  0  0  0  0  0  0  0  0  0  0  0
    8.4471   -6.6709    6.0497 N   0  0  0  0  0  0  0  0  0  0  0  0
    6.8679   -4.1373    5.7639 N   0  0  0  0  0  0  0  0  0  0  0  0
    6.4369   -3.0864    5.0907 C   0  0  0  0  0  0  0  0  0  0  0  0
    6.8693   -3.0471    3.7826 N   0  0  0  0  0  0  0  0  0  0  0  0
  1  2  2  0  0  0  0
  2  3  1  0  0  0  0
  3  4  2  0  0  0  0
  5  4  1  0  0  0  0
  5  6  2  0  0  0  0
  6  1  1  0  0  0  0
  6  7  1  0  0  0  0
  8  5  1  0  0  0  0
  9  8  1  0  0  0  0
 10  4  1  0  0  0  0
 10  9  2  0  0  0  0
M  END
>  <CHROM.1>
7.87170378,-4.84616838,4.31148617,-0.27859915,0.92383775,-1.07170815

>  <Name>
1y26_lig

>  <RI>
0

>  <Rbt.Current_Directory>
/home/afrankz/demos/rdock_decoys_rna/rnas/1y26

>  <Rbt.Executable>
rbdock ($Id: //depot/dev/client3/rdock/2013.1/src/exe/rbdock.cxx#4 $)

>  <Rbt.Library>
libRbt.so (2013.1, Build901 2013/11/27)

>  <Rbt.Parameter_File>
/export/apps/rDock/src/rDock_2013.1_src/data/scripts/dock_solv.prm

>  <Rbt.Receptor>
prm/blind_docking_20.prm

>  <SCORE>
-5.5248

>  <SCORE.INTER>
-5.67585

>  <SCORE.INTER.CONST>
1

>  <SCORE.INTER.POLAR>
-0.933328

>  <SCORE.INTER.ROT>
0

>  <SCORE.INTER.SOLV>
5.08221

>  <SCORE.INTER.VDW>
-5.96688

>  <SCORE.INTER.norm>
-0.567585

>  <SCORE.INTRA>
0

>  <SCORE.INTRA.DIHEDRAL>
0

>  <SCORE.INTRA.DIHEDRAL.0>
0

>  <SCORE.INTRA.POLAR>
0

>  <SCORE.INTRA.POLAR.0>
0

>  <SCORE.INTRA.REPUL>
0

>  <SCORE.INTRA.REPUL.0>
0

>  <SCORE.INTRA.SOLV>
0

>  <SCORE.INTRA.SOLV.lig_0>
-16.9472

>  <SCORE.INTRA.VDW>
0

>  <SCORE.INTRA.VDW.0>
0

>  <SCORE.INTRA.norm>
0

>  <SCORE.RESTR>
0.151047

>  <SCORE.RESTR.CAVITY>
0.151047

>  <SCORE.RESTR.norm>
0.0151047

>  <SCORE.SYSTEM>
0

>  <SCORE.SYSTEM.CONST>
0

>  <SCORE.SYSTEM.DIHEDRAL>
0

>  <SCORE.SYSTEM.SOLV>
0

>  <SCORE.SYSTEM.norm>
0

>  <SCORE.heavy>
10

>  <SCORE.norm>
-0.55248

>  <RMSD>
17.634

$$$$
1y26_lig
 OpenBabel02141814133D
libRbt.so/2013.1/901 2013/11/27
 10 11  0  0  0  0  0  0  0  0999 V2000
    8.9932   -6.0607    2.5339 N   0  0  0  0  0  0  0  0  0  0  0  0
    9.4514   -6.2434    3.7748 C   0  0  0  0  0  0  0  0  0  0  0  0
    9.0732   -5.6297    4.8943 N   0  0  0  0  0  0  0  0  0  0  0  0
    8.0798   -4.7464    4.6473 C   0  0  0  0  0  0  0  0  0  0  0  0
    7.5018   -4.4637    3.4256 C   0  0  0  0  0  0  0  0  0  0  0  0
    8.0038   -5.1671    2.3267 C   0  0  0  0  0  0  0  0  0  0  0  0
    7.5358   -4.9643    1.1056 N   0  0  0  0  0  0  0  0  0  0  0  0
    6.5211   -3.5037    3.5204 N   0  0  0  0  0  0  0  0  0  0  0  0
    6.4963   -3.2383    4.8137 C   0  0  0  0  0  0  0  0  0  0  0  0
    7.4234   -3.9481    5.5458 N   0  0  0  0  0  0  0  0  0  0  0  0
  1  2  2  0  0  0  0
  2  3  1  0  0  0  0
  3  4  2  0  0  0  0
  5  4  1  0  0  0  0
  5  6  2  0  0  0  0
  6  1  1  0  0  0  0
  6  7  1  0  0  0  0
  8  5  1  0  0  0  0
  9  8  1  0  0  0  0
 10  4  1  0  0  0  0
 10  9  2  0  0  0  0
M  END
>  <CHROM.1>
7.90909047,-4.79756183,3.65803509,-0.85967327,-0.74716144,1.36719532

>  <Name>
1y26_lig

>  <RI>
0

>  <Rbt.Current_Directory>
/home/afrankz/demos/rdock_decoys_rna/rnas/1y26

>  <Rbt.Executable>
rbdock ($Id: //depot/dev/client3/rdock/2013.1/src/exe/rbdock.cxx#4 $)

>  <Rbt.Library>
libRbt.so (2013.1, Build901 2013/11/27)

>  <Rbt.Parameter_File>
/export/apps/rDock/src/rDock_2013.1_src/data/scripts/dock_solv.prm

>  <Rbt.Receptor>
prm/blind_docking_20.prm

>  <SCORE>
-8.39078

>  <SCORE.INTER>
-8.87079

>  <SCORE.INTER.CONST>
1

>  <SCORE.INTER.POLAR>
-1.88601

>  <SCORE.INTER.ROT>
0

>  <SCORE.INTER.SOLV>
4.78858

>  <SCORE.INTER.VDW>
-4.82334

>  <SCORE.INTER.norm>
-0.887079

>  <SCORE.INTRA>
0

>  <SCORE.INTRA.DIHEDRAL>
0

>  <SCORE.INTRA.DIHEDRAL.0>
0

>  <SCORE.INTRA.POLAR>
0

>  <SCORE.INTRA.POLAR.0>
0

>  <SCORE.INTRA.REPUL>
0

>  <SCORE.INTRA.REPUL.0>
0

>  <SCORE.INTRA.SOLV>
0

>  <SCORE.INTRA.SOLV.lig_0>
-16.9472

>  <SCORE.INTRA.VDW>
0

>  <SCORE.INTRA.VDW.0>
0

>  <SCORE.INTRA.norm>
0

>  <SCORE.RESTR>
0.480006

>  <SCORE.RESTR.CAVITY>
0.480006

>  <SCORE.RESTR.norm>
0.0480006

>  <SCORE.SYSTEM>
0

>  <SCORE.SYSTEM.CONST>
0

>  <SCORE.SYSTEM.DIHEDRAL>
0

>  <SCORE.SYSTEM.SOLV>
0

>  <SCORE.SYSTEM.norm>
0

>  <SCORE.heavy>
10

>  <SCORE.norm>
-0.839078

>  <RMSD>
17.635

$$$$
1y26_lig
 OpenBabel02141814133D
libRbt.so/2013.1/901 2013/11/27
 10 11  0  0  0  0  0  0  0  0999 V2000
    7.7339   -4.7170    2.4134 N   0  0  0  0  0  0  0  0  0  0  0  0
    8.8873   -5.2752    2.7892 C   0  0  0  0  0  0  0  0  0  0  0  0
    9.2719   -5.6345    4.0123 N   0  0  0  0  0  0  0  0  0  0  0  0
    8.2972   -5.3864    4.9159 C   0  0  0  0  0  0  0  0  0  0  0  0
    7.0579   -4.8288    4.6718 C   0  0  0  0  0  0  0  0  0  0  0  0
    6.7870   -4.4811    3.3450 C   0  0  0  0  0  0  0  0  0  0  0  0
    5.6375   -3.9244    2.9988 N   0  0  0  0  0  0  0  0  0  0  0  0
    6.3059   -4.7033    5.8168 N   0  0  0  0  0  0  0  0  0  0  0  0
    7.0940   -5.2198    6.7418 C   0  0  0  0  0  0  0  0  0  0  0  0
    8.3161   -5.6387    6.2618 N   0  0  0  0  0  0  0  0  0  0  0  0
  1  2  2  0  0  0  0
  2  3  1  0  0  0  0
  3  4  2  0  0  0  0
  5  4  1  0  0  0  0
  5  6  2  0  0  0  0
  6  1  1  0  0  0  0
  6  7  1  0  0  0  0
  8  5  1  0  0  0  0
  9  8  1  0  0  0  0
 10  4  1  0  0  0  0
 10  9  2  0  0  0  0
M  END
>  <CHROM.1>
7.53926080,-4.98066667,4.39503942,-1.58316775,-0.39436109,1.74578654

>  <Name>
1y26_lig

>  <RI>
0

>  <Rbt.Current_Directory>
/home/afrankz/demos/rdock_decoys_rna/rnas/1y26

>  <Rbt.Executable>
rbdock ($Id: //depot/dev/client3/rdock/2013.1/src/exe/rbdock.cxx#4 $)

>  <Rbt.Library>
libRbt.so (2013.1, Build901 2013/11/27)

>  <Rbt.Parameter_File>
/export/apps/rDock/src/rDock_2013.1_src/data/scripts/dock_solv.prm

>  <Rbt.Receptor>
prm/blind_docking_20.prm

>  <SCORE>
-11.9223

>  <SCORE.INTER>
-12.3187

>  <SCORE.INTER.CONST>
1

>  <SCORE.INTER.POLAR>
-2.33341

>  <SCORE.INTER.ROT>
0

>  <SCORE.INTER.SOLV>
3.60752

>  <SCORE.INTER.VDW>
-5.23695

>  <SCORE.INTER.norm>
-1.23187

>  <SCORE.INTRA>
0

>  <SCORE.INTRA.DIHEDRAL>
0

>  <SCORE.INTRA.DIHEDRAL.0>
0

>  <SCORE.INTRA.POLAR>
0

>  <SCORE.INTRA.POLAR.0>
0

>  <SCORE.INTRA.REPUL>
0

>  <SCORE.INTRA.REPUL.0>
0

>  <SCORE.INTRA.SOLV>
0

>  <SCORE.INTRA.SOLV.lig_0>
-16.9472

>  <SCORE.INTRA.VDW>
0

>  <SCORE.INTRA.VDW.0>
0

>  <SCORE.INTRA.norm>
0

>  <SCORE.RESTR>
0.396404

>  <SCORE.RESTR.CAVITY>
0.396404

>  <SCORE.RESTR.norm>
0.0396404

>  <SCORE.SYSTEM>
0

>  <SCORE.SYSTEM.CONST>
0

>  <SCORE.SYSTEM.DIHEDRAL>
0

>  <SCORE.SYSTEM.SOLV>
0

>  <SCORE.SYSTEM.norm>
0

>  <SCORE.heavy>
10

>  <SCORE.norm>
-1.19223

>  <RMSD>
17.648

$$$$
1y26_lig
 OpenBabel02141814133D
libRbt.so/2013.1/901 2013/11/27
 10 11  0  0  0  0  0  0  0  0999 V2000
    7.7394   -4.7430    2.4064 N   0  0  0  0  0  0  0  0  0  0  0  0
    8.8881   -5.3045    2.7915 C   0  0  0  0  0  0  0  0  0  0  0  0
    9.2686   -5.6493    4.0200 N   0  0  0  0  0  0  0  0  0  0  0  0
    8.2947   -5.3811    4.9188 C   0  0  0  0  0  0  0  0  0  0  0  0
    7.0600   -4.8176    4.6653 C   0  0  0  0  0  0  0  0  0  0  0  0
    6.7933   -4.4867    3.3334 C   0  0  0  0  0  0  0  0  0  0  0  0
    5.6484   -3.9264    2.9779 N   0  0  0  0  0  0  0  0  0  0  0  0
    6.3077   -4.6702    5.8075 N   0  0  0  0  0  0  0  0  0  0  0  0
    7.0908   -5.1794    6.7407 C   0  0  0  0  0  0  0  0  0  0  0  0
    8.3102   -5.6144    6.2682 N   0  0  0  0  0  0  0  0  0  0  0  0
  1  2  2  0  0  0  0
  2  3  1  0  0  0  0
  3  4  2  0  0  0  0
  5  4  1  0  0  0  0
  5  6  2  0  0  0  0
  6  1  1  0  0  0  0
  6  7  1  0  0  0  0
  8  5  1  0  0  0  0
  9  8  1  0  0  0  0
 10  4  1  0  0  0  0
 10  9  2  0  0  0  0
M  END
>  <CHROM.1>
7.54053208,-4.97701152,4.39133880,-1.58051748,-0.40162461,1.73263256

>  <Name>
1y26_lig

>  <RI>
0

>  <Rbt.Current_Directory>
/home/afrankz/demos/rdock_decoys_rna/rnas/1y26

>  <Rbt.Executable>
rbdock ($Id: //depot/dev/client3/rdock/2013.1/src/exe/rbdock.cxx#4 $)

>  <Rbt.Library>
libRbt.so (2013.1, Build901 2013/11/27)

>  <Rbt.Parameter_File>
/export/apps/rDock/src/rDock_2013.1_src/data/scripts/dock_solv.prm

>  <Rbt.Receptor>
prm/blind_docking_20.prm

>  <SCORE>
-11.8856

>  <SCORE.INTER>
-12.2668

>  <SCORE.INTER.CONST>
1

>  <SCORE.INTER.POLAR>
-2.3293

>  <SCORE.INTER.ROT>
0

>  <SCORE.INTER.SOLV>
3.58704

>  <SCORE.INTER.VDW>
-5.20924

>  <SCORE.INTER.norm>
-1.22668

>  <SCORE.INTRA>
0

>  <SCORE.INTRA.DIHEDRAL>
0

>  <SCORE.INTRA.DIHEDRAL.0>
0

>  <SCORE.INTRA.POLAR>
0

>  <SCORE.INTRA.POLAR.0>
0

>  <SCORE.INTRA.REPUL>
0

>  <SCORE.INTRA.REPUL.0>
0

>  <SCORE.INTRA.SOLV>
0

>  <SCORE.INTRA.SOLV.lig_0>
-16.9472

>  <SCORE.INTRA.VDW>
0

>  <SCORE.INTRA.VDW.0>
0

>  <SCORE.INTRA.norm>
0

>  <SCORE.RESTR>
0.381275

>  <SCORE.RESTR.CAVITY>
0.381275

>  <SCORE.RESTR.norm>
0.0381275

>  <SCORE.SYSTEM>
0

>  <SCORE.SYSTEM.CONST>
0

>  <SCORE.SYSTEM.DIHEDRAL>
0

>  <SCORE.SYSTEM.SOLV>
0

>  <SCORE.SYSTEM.norm>
0

>  <SCORE.heavy>
10

>  <SCORE.norm>
-1.18856

>  <RMSD>
17.650

$$$$
1y26_lig
 OpenBabel02141814133D
libRbt.so/2013.1/901 2013/11/27
 10 11  0  0  0  0  0  0  0  0999 V2000
    7.7462   -4.7402    2.4107 N   0  0  0  0  0  0  0  0  0  0  0  0
    8.8946   -5.2997    2.7996 C   0  0  0  0  0  0  0  0  0  0  0  0
    9.2726   -5.6418    4.0296 N   0  0  0  0  0  0  0  0  0  0  0  0
    8.2963   -5.3731    4.9256 C   0  0  0  0  0  0  0  0  0  0  0  0
    7.0615   -4.8116    4.6681 C   0  0  0  0  0  0  0  0  0  0  0  0
    6.7975   -4.4834    3.3350 C   0  0  0  0  0  0  0  0  0  0  0  0
    5.6529   -3.9250    2.9758 N   0  0  0  0  0  0  0  0  0  0  0  0
    6.3063   -4.6630    5.8082 N   0  0  0  0  0  0  0  0  0  0  0  0
    7.0878   -5.1696    6.7443 C   0  0  0  0  0  0  0  0  0  0  0  0
    8.3089   -5.6040    6.2754 N   0  0  0  0  0  0  0  0  0  0  0  0
  1  2  2  0  0  0  0
  2  3  1  0  0  0  0
  3  4  2  0  0  0  0
  5  4  1  0  0  0  0
  5  6  2  0  0  0  0
  6  1  1  0  0  0  0
  6  7  1  0  0  0  0
  8  5  1  0  0  0  0
  9  8  1  0  0  0  0
 10  4  1  0  0  0  0
 10  9  2  0  0  0  0
M  END
>  <CHROM.1>
7.54289930,-4.97091183,4.39560944,-1.57818382,-0.40007167,1.73174315

>  <Name>
1y26_lig

>  <RI>
0

>  <Rbt.Current_Directory>
/home/afrankz/demos/rdock_decoys_rna/rnas/1y26

>  <Rbt.Executable>
rbdock ($Id: //depot/dev/client3/rdock/2013.1/src/exe/rbdock.cxx#4 $)

>  <Rbt.Library>
libRbt.so (2013.1, Build901 2013/11/27)

>  <Rbt.Parameter_File>
/export/apps/rDock/src/rDock_2013.1_src/data/scripts/dock_solv.prm

>  <Rbt.Receptor>
prm/blind_docking_20.prm

>  <SCORE>
-11.8831

>  <SCORE.INTER>
-12.2634

>  <SCORE.INTER.CONST>
1

>  <SCORE.INTER.POLAR>
-2.33955

>  <SCORE.INTER.ROT>
0

>  <SCORE.INTER.SOLV>
3.61312

>  <SCORE.INTER.VDW>
-5.18148

>  <SCORE.INTER.norm>
-1.22634

>  <SCORE.INTRA>
0

>  <SCORE.INTRA.DIHEDRAL>
0

>  <SCORE.INTRA.DIHEDRAL.0>
0

>  <SCORE.INTRA.POLAR>
0

>  <SCORE.INTRA.POLAR.0>
0

>  <SCORE.INTRA.REPUL>
0

>  <SCORE.INTRA.REPUL.0>
0

>  <SCORE.INTRA.SOLV>
0

>  <SCORE.INTRA.SOLV.lig_0>
-16.9472

>  <SCORE.INTRA.VDW>
0

>  <SCORE.INTRA.VDW.0>
0

>  <SCORE.INTRA.norm>
0

>  <SCORE.RESTR>
0.38031

>  <SCORE.RESTR.CAVITY>
0.38031

>  <SCORE.RESTR.norm>
0.038031

>  <SCORE.SYSTEM>
0

>  <SCORE.SYSTEM.CONST>
0

>  <SCORE.SYSTEM.DIHEDRAL>
0

>  <SCORE.SYSTEM.SOLV>
0

>  <SCORE.SYSTEM.norm>
0

>  <SCORE.heavy>
10

>  <SCORE.norm>
-1.18831

>  <RMSD>
17.653

$$$$
1y26_lig
 OpenBabel02141814133D
libRbt.so/2013.1/901 2013/11/27
 10 11  0  0  0  0  0  0  0  0999 V2000
    7.6775   -4.5958    2.4723 N   0  0  0  0  0  0  0  0  0  0  0  0
    8.8533   -5.1372    2.8002 C   0  0  0  0  0  0  0  0  0  0  0  0
    9.2659   -5.5564    3.9947 N   0  0  0  0  0  0  0  0  0  0  0  0
    8.2960   -5.3954    4.9230 C   0  0  0  0  0  0  0  0  0  0  0  0
    7.0362   -4.8654    4.7275 C   0  0  0  0  0  0  0  0  0  0  0  0
    6.7362   -4.4477    3.4275 C   0  0  0  0  0  0  0  0  0  0  0  0
    5.5647   -3.9095    3.1290 N   0  0  0  0  0  0  0  0  0  0  0  0
    6.2962   -4.8339    5.8867 N   0  0  0  0  0  0  0  0  0  0  0  0
    7.1130   -5.3786    6.7695 C   0  0  0  0  0  0  0  0  0  0  0  0
    8.3414   -5.7274    6.2509 N   0  0  0  0  0  0  0  0  0  0  0  0
  1  2  2  0  0  0  0
  2  3  1  0  0  0  0
  3  4  2  0  0  0  0
  5  4  1  0  0  0  0
  5  6  2  0  0  0  0
  6  1  1  0  0  0  0
  6  7  1  0  0  0  0
  8  5  1  0  0  0  0
  9  8  1  0  0  0  0
 10  4  1  0  0  0  0
 10  9  2  0  0  0  0
M  END
>  <CHROM.1>
7.51842882,-4.98434819,4.43651550,-1.60351852,-0.36487650,1.79861776

>  <Name>
1y26_lig

>  <RI>
0

>  <Rbt.Current_Directory>
/home/afrankz/demos/rdock_decoys_rna/rnas/1y26

>  <Rbt.Executable>
rbdock ($Id: //depot/dev/client3/rdock/2013.1/src/exe/rbdock.cxx#4 $)

>  <Rbt.Library>
libRbt.so (2013.1, Build901 2013/11/27)

>  <Rbt.Parameter_File>
/export/apps/rDock/src/rDock_2013.1_src/data/scripts/dock_solv.prm

>  <Rbt.Receptor>
prm/blind_docking_20.prm

>  <SCORE>
-12.0915

>  <SCORE.INTER>
-12.5473

>  <SCORE.INTER.CONST>
1

>  <SCORE.INTER.POLAR>
-2.35477

>  <SCORE.INTER.ROT>
0

>  <SCORE.INTER.SOLV>
3.69897

>  <SCORE.INTER.VDW>
-5.34858

>  <SCORE.INTER.norm>
-1.25473

>  <SCORE.INTRA>
0

>  <SCORE.INTRA.DIHEDRAL>
0

>  <SCORE.INTRA.DIHEDRAL.0>
0

>  <SCORE.INTRA.POLAR>
0

>  <SCORE.INTRA.POLAR.0>
0

>  <SCORE.INTRA.REPUL>
0

>  <SCORE.INTRA.REPUL.0>
0

>  <SCORE.INTRA.SOLV>
0

>  <SCORE.INTRA.SOLV.lig_0>
-16.9472

>  <SCORE.INTRA.VDW>
0

>  <SCORE.INTRA.VDW.0>
0

>  <SCORE.INTRA.norm>
0

>  <SCORE.RESTR>
0.455749

>  <SCORE.RESTR.CAVITY>
0.455749

>  <SCORE.RESTR.norm>
0.0455749

>  <SCORE.SYSTEM>
0

>  <SCORE.SYSTEM.CONST>
0

>  <SCORE.SYSTEM.DIHEDRAL>
0

>  <SCORE.SYSTEM.SOLV>
0

>  <SCORE.SYSTEM.norm>
0

>  <SCORE.heavy>
10

>  <SCORE.norm>
-1.20915

>  <RMSD>
17.659

$$$$
1y26_lig
 OpenBabel02141814133D
libRbt.so/2013.1/901 2013/11/27
 10 11  0  0  0  0  0  0  0  0999 V2000
    7.2211   -4.3917    2.3002 N   0  0  0  0  0  0  0  0  0  0  0  0
    8.3404   -5.1185    2.2539 C   0  0  0  0  0  0  0  0  0  0  0  0
    9.0168   -5.6599    3.2650 N   0  0  0  0  0  0  0  0  0  0  0  0
    8.4036   -5.4091    4.4437 C   0  0  0  0  0  0  0  0  0  0  0  0
    7.2427   -4.6885    4.6414 C   0  0  0  0  0  0  0  0  0  0  0  0
    6.6408   -4.1593    3.4958 C   0  0  0  0  0  0  0  0  0  0  0  0
    5.5338   -3.4380    3.5688 N   0  0  0  0  0  0  0  0  0  0  0  0
    6.8940   -4.6123    5.9699 N   0  0  0  0  0  0  0  0  0  0  0  0
    7.8390   -5.3202    6.5609 C   0  0  0  0  0  0  0  0  0  0  0  0
    8.7874   -5.8175    5.6932 N   0  0  0  0  0  0  0  0  0  0  0  0
  1  2  2  0  0  0  0
  2  3  1  0  0  0  0
  3  4  2  0  0  0  0
  5  4  1  0  0  0  0
  5  6  2  0  0  0  0
  6  1  1  0  0  0  0
  6  7  1  0  0  0  0
  8  5  1  0  0  0  0
  9  8  1  0  0  0  0
 10  4  1  0  0  0  0
 10  9  2  0  0  0  0
M  END
>  <CHROM.1>
7.59190083,-4.86110449,4.21761800,-1.90933450,-0.57314242,1.69182207

>  <Name>
1y26_lig

>  <RI>
0

>  <Rbt.Current_Directory>
/home/afrankz/demos/rdock_decoys_rna/rnas/1y26

>  <Rbt.Executable>
rbdock ($Id: //depot/dev/client3/rdock/2013.1/src/exe/rbdock.cxx#4 $)

>  <Rbt.Library>
libRbt.so (2013.1, Build901 2013/11/27)

>  <Rbt.Parameter_File>
/export/apps/rDock/src/rDock_2013.1_src/data/scripts/dock_solv.prm

>  <Rbt.Receptor>
prm/blind_docking_20.prm

>  <SCORE>
-10.7987

>  <SCORE.INTER>
-10.7998

>  <SCORE.INTER.CONST>
1

>  <SCORE.INTER.POLAR>
-1.91423

>  <SCORE.INTER.ROT>
0

>  <SCORE.INTER.SOLV>
3.66335

>  <SCORE.INTER.VDW>
-5.64021

>  <SCORE.INTER.norm>
-1.07998

>  <SCORE.INTRA>
0

>  <SCORE.INTRA.DIHEDRAL>
0

>  <SCORE.INTRA.DIHEDRAL.0>
0

>  <SCORE.INTRA.POLAR>
0

>  <SCORE.INTRA.POLAR.0>
0

>  <SCORE.INTRA.REPUL>
0

>  <SCORE.INTRA.REPUL.0>
0

>  <SCORE.INTRA.SOLV>
0

>  <SCORE.INTRA.SOLV.lig_0>
-16.9472

>  <SCORE.INTRA.VDW>
0

>  <SCORE.INTRA.VDW.0>
0

>  <SCORE.INTRA.norm>
0

>  <SCORE.RESTR>
0.00107313

>  <SCORE.RESTR.CAVITY>
0.00107313

>  <SCORE.RESTR.norm>
0.000107313

>  <SCORE.SYSTEM>
0

>  <SCORE.SYSTEM.CONST>
0

>  <SCORE.SYSTEM.DIHEDRAL>
0

>  <SCORE.SYSTEM.SOLV>
0

>  <SCORE.SYSTEM.norm>
0

>  <SCORE.heavy>
10

>  <SCORE.norm>
-1.07987

>  <RMSD>
17.680

$$$$
1y26_lig
 OpenBabel02141814133D
libRbt.so/2013.1/901 2013/11/27
 10 11  0  0  0  0  0  0  0  0999 V2000
    6.4784   -4.5713    5.5106 N   0  0  0  0  0  0  0  0  0  0  0  0
    5.9333   -4.0213    4.4227 C   0  0  0  0  0  0  0  0  0  0  0  0
    6.4551   -3.9105    3.2027 N   0  0  0  0  0  0  0  0  0  0  0  0
    7.6823   -4.4757    3.1507 C   0  0  0  0  0  0  0  0  0  0  0  0
    8.3614   -5.0880    4.1852 C   0  0  0  0  0  0  0  0  0  0  0  0
    7.7068   -5.1218    5.4200 C   0  0  0  0  0  0  0  0  0  0  0  0
    8.2706   -5.6688    6.4850 N   0  0  0  0  0  0  0  0  0  0  0  0
    9.5977   -5.5507    3.7981 N   0  0  0  0  0  0  0  0  0  0  0  0
    9.6382   -5.2379    2.5159 C   0  0  0  0  0  0  0  0  0  0  0  0
    8.5155   -4.5755    2.0684 N   0  0  0  0  0  0  0  0  0  0  0  0
  1  2  2  0  0  0  0
  2  3  1  0  0  0  0
  3  4  2  0  0  0  0
  5  4  1  0  0  0  0
  5  6  2  0  0  0  0
  6  1  1  0  0  0  0
  6  7  1  0  0  0  0
  8  5  1  0  0  0  0
  9  8  1  0  0  0  0
 10  4  1  0  0  0  0
 10  9  2  0  0  0  0
M  END
>  <CHROM.1>
7.86270622,-4.82171826,4.07703068,2.30879888,-0.42455890,1.83896655

>  <Name>
1y26_lig

>  <RI>
0

>  <Rbt.Current_Directory>
/home/afrankz/demos/rdock_decoys_rna/rnas/1y26

>  <Rbt.Executable>
rbdock ($Id: //depot/dev/client3/rdock/2013.1/src/exe/rbdock.cxx#4 $)

>  <Rbt.Library>
libRbt.so (2013.1, Build901 2013/11/27)

>  <Rbt.Parameter_File>
/export/apps/rDock/src/rDock_2013.1_src/data/scripts/dock_solv.prm

>  <Rbt.Receptor>
prm/blind_docking_20.prm

>  <SCORE>
-8.91585

>  <SCORE.INTER>
-8.98251

>  <SCORE.INTER.CONST>
1

>  <SCORE.INTER.POLAR>
-1.86266

>  <SCORE.INTER.ROT>
0

>  <SCORE.INTER.SOLV>
4.81712

>  <SCORE.INTER.VDW>
-4.98518

>  <SCORE.INTER.norm>
-0.898251

>  <SCORE.INTRA>
0

>  <SCORE.INTRA.DIHEDRAL>
0

>  <SCORE.INTRA.DIHEDRAL.0>
0

>  <SCORE.INTRA.POLAR>
0

>  <SCORE.INTRA.POLAR.0>
0

>  <SCORE.INTRA.REPUL>
0

>  <SCORE.INTRA.REPUL.0>
0

>  <SCORE.INTRA.SOLV>
0

>  <SCORE.INTRA.SOLV.lig_0>
-16.9472

>  <SCORE.INTRA.VDW>
0

>  <SCORE.INTRA.VDW.0>
0

>  <SCORE.INTRA.norm>
0

>  <SCORE.RESTR>
0.0666633

>  <SCORE.RESTR.CAVITY>
0.0666633

>  <SCORE.RESTR.norm>
0.00666633

>  <SCORE.SYSTEM>
0

>  <SCORE.SYSTEM.CONST>
0

>  <SCORE.SYSTEM.DIHEDRAL>
0

>  <SCORE.SYSTEM.SOLV>
0

>  <SCORE.SYSTEM.norm>
0

>  <SCORE.heavy>
10

>  <SCORE.norm>
-0.891585

>  <RMSD>
17.699

$$$$
1y26_lig
 OpenBabel02141814133D
libRbt.so/2013.1/901 2013/11/27
 10 11  0  0  0  0  0  0  0  0999 V2000
    6.8454   -3.9630    5.8103 N   0  0  0  0  0  0  0  0  0  0  0  0
    7.7713   -4.7556    6.3558 C   0  0  0  0  0  0  0  0  0  0  0  0
    8.6614   -5.5317    5.7408 N   0  0  0  0  0  0  0  0  0  0  0  0
    8.5532   -5.4178    4.3978 C   0  0  0  0  0  0  0  0  0  0  0  0
    7.6579   -4.6332    3.6983 C   0  0  0  0  0  0  0  0  0  0  0  0
    6.7657   -3.8789    4.4661 C   0  0  0  0  0  0  0  0  0  0  0  0
    5.8536   -3.1043    3.9011 N   0  0  0  0  0  0  0  0  0  0  0  0
    7.8074   -4.7562    2.3364 N   0  0  0  0  0  0  0  0  0  0  0  0
    8.8202   -5.5964    2.2285 C   0  0  0  0  0  0  0  0  0  0  0  0
    9.3061   -6.0416    3.4390 N   0  0  0  0  0  0  0  0  0  0  0  0
  1  2  2  0  0  0  0
  2  3  1  0  0  0  0
  3  4  2  0  0  0  0
  5  4  1  0  0  0  0
  5  6  2  0  0  0  0
  6  1  1  0  0  0  0
  6  7  1  0  0  0  0
  8  5  1  0  0  0  0
  9  8  1  0  0  0  0
 10  4  1  0  0  0  0
 10  9  2  0  0  0  0
M  END
>  <CHROM.1>
7.80344992,-4.76741487,4.23886787,-2.36948338,0.70693033,-1.55847699

>  <Name>
1y26_lig

>  <RI>
0

>  <Rbt.Current_Directory>
/home/afrankz/demos/rdock_decoys_rna/rnas/1y26

>  <Rbt.Executable>
rbdock ($Id: //depot/dev/client3/rdock/2013.1/src/exe/rbdock.cxx#4 $)

>  <Rbt.Library>
libRbt.so (2013.1, Build901 2013/11/27)

>  <Rbt.Parameter_File>
/export/apps/rDock/src/rDock_2013.1_src/data/scripts/dock_solv.prm

>  <Rbt.Receptor>
prm/blind_docking_20.prm

>  <SCORE>
-9.82701

>  <SCORE.INTER>
-10.1918

>  <SCORE.INTER.CONST>
1

>  <SCORE.INTER.POLAR>
-1.913

>  <SCORE.INTER.ROT>
0

>  <SCORE.INTER.SOLV>
4.6116

>  <SCORE.INTER.VDW>
-5.55504

>  <SCORE.INTER.norm>
-1.01918

>  <SCORE.INTRA>
0

>  <SCORE.INTRA.DIHEDRAL>
0

>  <SCORE.INTRA.DIHEDRAL.0>
0

>  <SCORE.INTRA.POLAR>
0

>  <SCORE.INTRA.POLAR.0>
0

>  <SCORE.INTRA.REPUL>
0

>  <SCORE.INTRA.REPUL.0>
0

>  <SCORE.INTRA.SOLV>
0

>  <SCORE.INTRA.SOLV.lig_0>
-16.9472

>  <SCORE.INTRA.VDW>
0

>  <SCORE.INTRA.VDW.0>
0

>  <SCORE.INTRA.norm>
0

>  <SCORE.RESTR>
0.364763

>  <SCORE.RESTR.CAVITY>
0.364763

>  <SCORE.RESTR.norm>
0.0364763

>  <SCORE.SYSTEM>
0

>  <SCORE.SYSTEM.CONST>
0

>  <SCORE.SYSTEM.DIHEDRAL>
0

>  <SCORE.SYSTEM.SOLV>
0

>  <SCORE.SYSTEM.norm>
0

>  <SCORE.heavy>
10

>  <SCORE.norm>
-0.982701

>  <RMSD>
17.803

$$$$
1y26_lig
 OpenBabel02141814133D
libRbt.so/2013.1/901 2013/11/27
 10 11  0  0  0  0  0  0  0  0999 V2000
    7.4035   -4.3162    2.7523 N   0  0  0  0  0  0  0  0  0  0  0  0
    8.5976   -4.8896    2.9209 C   0  0  0  0  0  0  0  0  0  0  0  0
    9.1137   -5.4133    4.0310 N   0  0  0  0  0  0  0  0  0  0  0  0
    8.2361   -5.3295    5.0562 C   0  0  0  0  0  0  0  0  0  0  0  0
    6.9705   -4.7786    5.0257 C   0  0  0  0  0  0  0  0  0  0  0  0
    6.5567   -4.2477    3.8003 C   0  0  0  0  0  0  0  0  0  0  0  0
    5.3695   -3.6801    3.6601 N   0  0  0  0  0  0  0  0  0  0  0  0
    6.3414   -4.8449    6.2472 N   0  0  0  0  0  0  0  0  0  0  0  0
    7.2295   -5.4684    6.9996 C   0  0  0  0  0  0  0  0  0  0  0  0
    8.4000   -5.7762    6.3403 N   0  0  0  0  0  0  0  0  0  0  0  0
  1  2  2  0  0  0  0
  2  3  1  0  0  0  0
  3  4  2  0  0  0  0
  5  4  1  0  0  0  0
  5  6  2  0  0  0  0
  6  1  1  0  0  0  0
  6  7  1  0  0  0  0
  8  5  1  0  0  0  0
  9  8  1  0  0  0  0
 10  4  1  0  0  0  0
 10  9  2  0  0  0  0
M  END
>  <CHROM.1>
7.42210185,-4.87394258,4.68175176,-1.69835913,-0.39671149,1.85047829

>  <Name>
1y26_lig

>  <RI>
0

>  <Rbt.Current_Directory>
/home/afrankz/demos/rdock_decoys_rna/rnas/1y26

>  <Rbt.Executable>
rbdock ($Id: //depot/dev/client3/rdock/2013.1/src/exe/rbdock.cxx#4 $)

>  <Rbt.Library>
libRbt.so (2013.1, Build901 2013/11/27)

>  <Rbt.Parameter_File>
/export/apps/rDock/src/rDock_2013.1_src/data/scripts/dock_solv.prm

>  <Rbt.Receptor>
prm/blind_docking_20.prm

>  <SCORE>
-12.2287

>  <SCORE.INTER>
-12.7116

>  <SCORE.INTER.CONST>
1

>  <SCORE.INTER.POLAR>
-2.3198

>  <SCORE.INTER.ROT>
0

>  <SCORE.INTER.SOLV>
3.78428

>  <SCORE.INTER.VDW>
-5.60313

>  <SCORE.INTER.norm>
-1.27116

>  <SCORE.INTRA>
0

>  <SCORE.INTRA.DIHEDRAL>
0

>  <SCORE.INTRA.DIHEDRAL.0>
0

>  <SCORE.INTRA.POLAR>
0

>  <SCORE.INTRA.POLAR.0>
0

>  <SCORE.INTRA.REPUL>
0

>  <SCORE.INTRA.REPUL.0>
0

>  <SCORE.INTRA.SOLV>
0

>  <SCORE.INTRA.SOLV.lig_0>
-16.9472

>  <SCORE.INTRA.VDW>
0

>  <SCORE.INTRA.VDW.0>
0

>  <SCORE.INTRA.norm>
0

>  <SCORE.RESTR>
0.482869

>  <SCORE.RESTR.CAVITY>
0.482869

>  <SCORE.RESTR.norm>
0.0482869

>  <SCORE.SYSTEM>
0

>  <SCORE.SYSTEM.CONST>
0

>  <SCORE.SYSTEM.DIHEDRAL>
0

>  <SCORE.SYSTEM.SOLV>
0

>  <SCORE.SYSTEM.norm>
0

>  <SCORE.heavy>
10

>  <SCORE.norm>
-1.22287

>  <RMSD>
17.805

$$$$
1y26_lig
 OpenBabel02141814133D
libRbt.so/2013.1/901 2013/11/27
 10 11  0  0  0  0  0  0  0  0999 V2000
    6.7219   -3.8675    6.0386 N   0  0  0  0  0  0  0  0  0  0  0  0
    6.3837   -3.0983    5.0007 C   0  0  0  0  0  0  0  0  0  0  0  0
    6.8598   -3.1313    3.7577 N   0  0  0  0  0  0  0  0  0  0  0  0
    7.7776   -4.1146    3.6195 C   0  0  0  0  0  0  0  0  0  0  0  0
    8.2139   -4.9892    4.5947 C   0  0  0  0  0  0  0  0  0  0  0  0
    7.6448   -4.8356    5.8624 C   0  0  0  0  0  0  0  0  0  0  0  0
    8.0006   -5.6079    6.8764 N   0  0  0  0  0  0  0  0  0  0  0  0
    9.1657   -5.8642    4.1248 N   0  0  0  0  0  0  0  0  0  0  0  0
    9.2712   -5.5257    2.8529 C   0  0  0  0  0  0  0  0  0  0  0  0
    8.4671   -4.4668    2.4899 N   0  0  0  0  0  0  0  0  0  0  0  0
  1  2  2  0  0  0  0
  2  3  1  0  0  0  0
  3  4  2  0  0  0  0
  5  4  1  0  0  0  0
  5  6  2  0  0  0  0
  6  1  1  0  0  0  0
  6  7  1  0  0  0  0
  8  5  1  0  0  0  0
  9  8  1  0  0  0  0
 10  4  1  0  0  0  0
 10  9  2  0  0  0  0
M  END
>  <CHROM.1>
7.84970679,-4.54931948,4.52293039,2.39933586,-0.80922718,1.93501183

>  <Name>
1y26_lig

>  <RI>
0

>  <Rbt.Current_Directory>
/home/afrankz/demos/rdock_decoys_rna/rnas/1y26

>  <Rbt.Executable>
rbdock ($Id: //depot/dev/client3/rdock/2013.1/src/exe/rbdock.cxx#4 $)

>  <Rbt.Library>
libRbt.so (2013.1, Build901 2013/11/27)

>  <Rbt.Parameter_File>
/export/apps/rDock/src/rDock_2013.1_src/data/scripts/dock_solv.prm

>  <Rbt.Receptor>
prm/blind_docking_20.prm

>  <SCORE>
-7.74391

>  <SCORE.INTER>
-7.94888

>  <SCORE.INTER.CONST>
1

>  <SCORE.INTER.POLAR>
-1.31923

>  <SCORE.INTER.ROT>
0

>  <SCORE.INTER.SOLV>
5.55641

>  <SCORE.INTER.VDW>
-6.35394

>  <SCORE.INTER.norm>
-0.794888

>  <SCORE.INTRA>
0

>  <SCORE.INTRA.DIHEDRAL>
0

>  <SCORE.INTRA.DIHEDRAL.0>
0

>  <SCORE.INTRA.POLAR>
0

>  <SCORE.INTRA.POLAR.0>
0

>  <SCORE.INTRA.REPUL>
0

>  <SCORE.INTRA.REPUL.0>
0

>  <SCORE.INTRA.SOLV>
0

>  <SCORE.INTRA.SOLV.lig_0>
-16.9472

>  <SCORE.INTRA.VDW>
0

>  <SCORE.INTRA.VDW.0>
0

>  <SCORE.INTRA.norm>
0

>  <SCORE.RESTR>
0.204971

>  <SCORE.RESTR.CAVITY>
0.204971

>  <SCORE.RESTR.norm>
0.0204971

>  <SCORE.SYSTEM>
0

>  <SCORE.SYSTEM.CONST>
0

>  <SCORE.SYSTEM.DIHEDRAL>
0

>  <SCORE.SYSTEM.SOLV>
0

>  <SCORE.SYSTEM.norm>
0

>  <SCORE.heavy>
10

>  <SCORE.norm>
-0.774391

>  <RMSD>
17.930

$$$$
1y26_lig
 OpenBabel02141814133D
libRbt.so/2013.1/901 2013/11/27
 10 11  0  0  0  0  0  0  0  0999 V2000
    7.6852   -6.5493    5.9108 N   0  0  0  0  0  0  0  0  0  0  0  0
    7.9852   -5.5717    5.0520 C   0  0  0  0  0  0  0  0  0  0  0  0
    7.9519   -4.2558    5.2530 N   0  0  0  0  0  0  0  0  0  0  0  0
    7.5797   -3.9717    6.5214 C   0  0  0  0  0  0  0  0  0  0  0  0
    7.2541   -4.8731    7.5153 C   0  0  0  0  0  0  0  0  0  0  0  0
    7.3138   -6.2257    7.1668 C   0  0  0  0  0  0  0  0  0  0  0  0
    7.0067   -7.1759    8.0351 N   0  0  0  0  0  0  0  0  0  0  0  0
    6.9080   -4.2515    8.6926 N   0  0  0  0  0  0  0  0  0  0  0  0
    7.0601   -2.9722    8.4031 C   0  0  0  0  0  0  0  0  0  0  0  0
    7.4522   -2.7383    7.1027 N   0  0  0  0  0  0  0  0  0  0  0  0
  1  2  2  0  0  0  0
  2  3  1  0  0  0  0
  3  4  2  0  0  0  0
  5  4  1  0  0  0  0
  5  6  2  0  0  0  0
  6  1  1  0  0  0  0
  6  7  1  0  0  0  0
  8  5  1  0  0  0  0
  9  8  1  0  0  0  0
 10  4  1  0  0  0  0
 10  9  2  0  0  0  0
M  END
>  <CHROM.1>
7.41983614,-4.85982060,6.96418307,-1.22881519,1.27338508,0.11535991

>  <Name>
1y26_lig

>  <RI>
0

>  <Rbt.Current_Directory>
/home/afrankz/demos/rdock_decoys_rna/rnas/1y26

>  <Rbt.Executable>
rbdock ($Id: //depot/dev/client3/rdock/2013.1/src/exe/rbdock.cxx#4 $)

>  <Rbt.Library>
libRbt.so (2013.1, Build901 2013/11/27)

>  <Rbt.Parameter_File>
/export/apps/rDock/src/rDock_2013.1_src/data/scripts/dock_solv.prm

>  <Rbt.Receptor>
prm/blind_docking_20.prm

>  <SCORE>
-14.73

>  <SCORE.INTER>
-14.7398

>  <SCORE.INTER.CONST>
1

>  <SCORE.INTER.POLAR>
-1.72355

>  <SCORE.INTER.ROT>
0

>  <SCORE.INTER.SOLV>
4.95954

>  <SCORE.INTER.VDW>
-9.33453

>  <SCORE.INTER.norm>
-1.47398

>  <SCORE.INTRA>
0

>  <SCORE.INTRA.DIHEDRAL>
0

>  <SCORE.INTRA.DIHEDRAL.0>
0

>  <SCORE.INTRA.POLAR>
0

>  <SCORE.INTRA.POLAR.0>
0

>  <SCORE.INTRA.REPUL>
0

>  <SCORE.INTRA.REPUL.0>
0

>  <SCORE.INTRA.SOLV>
0

>  <SCORE.INTRA.SOLV.lig_0>
-16.9472

>  <SCORE.INTRA.VDW>
0

>  <SCORE.INTRA.VDW.0>
0

>  <SCORE.INTRA.norm>
0

>  <SCORE.RESTR>
0.00977002

>  <SCORE.RESTR.CAVITY>
0.00977002

>  <SCORE.RESTR.norm>
0.000977002

>  <SCORE.SYSTEM>
0

>  <SCORE.SYSTEM.CONST>
0

>  <SCORE.SYSTEM.DIHEDRAL>
0

>  <SCORE.SYSTEM.SOLV>
0

>  <SCORE.SYSTEM.norm>
0

>  <SCORE.heavy>
10

>  <SCORE.norm>
-1.473

>  <RMSD>
18.148

$$$$
1y26_lig
 OpenBabel02141814133D
libRbt.so/2013.1/901 2013/11/27
 10 11  0  0  0  0  0  0  0  0999 V2000
    7.6508   -6.5420    5.8987 N   0  0  0  0  0  0  0  0  0  0  0  0
    7.9577   -5.5642    5.0426 C   0  0  0  0  0  0  0  0  0  0  0  0
    7.9363   -4.2488    5.2481 N   0  0  0  0  0  0  0  0  0  0  0  0
    7.5692   -3.9657    6.5183 C   0  0  0  0  0  0  0  0  0  0  0  0
    7.2377   -4.8677    7.5097 C   0  0  0  0  0  0  0  0  0  0  0  0
    7.2847   -6.2196    7.1565 C   0  0  0  0  0  0  0  0  0  0  0  0
    6.9711   -7.1700    8.0222 N   0  0  0  0  0  0  0  0  0  0  0  0
    6.8994   -4.2470    8.6898 N   0  0  0  0  0  0  0  0  0  0  0  0
    7.0622   -2.9682    8.4044 C   0  0  0  0  0  0  0  0  0  0  0  0
    7.4538   -2.7332    7.1040 N   0  0  0  0  0  0  0  0  0  0  0  0
  1  2  2  0  0  0  0
  2  3  1  0  0  0  0
  3  4  2  0  0  0  0
  5  4  1  0  0  0  0
  5  6  2  0  0  0  0
  6  1  1  0  0  0  0
  6  7  1  0  0  0  0
  8  5  1  0  0  0  0
  9  8  1  0  0  0  0
 10  4  1  0  0  0  0
 10  9  2  0  0  0  0
M  END
>  <CHROM.1>
7.40242197,-4.85394491,6.95833101,-1.25954164,1.27425156,0.14814678

>  <Name>
1y26_lig

>  <RI>
0

>  <Rbt.Current_Directory>
/home/afrankz/demos/rdock_decoys_rna/rnas/1y26

>  <Rbt.Executable>
rbdock ($Id: //depot/dev/client3/rdock/2013.1/src/exe/rbdock.cxx#4 $)

>  <Rbt.Library>
libRbt.so (2013.1, Build901 2013/11/27)

>  <Rbt.Parameter_File>
/export/apps/rDock/src/rDock_2013.1_src/data/scripts/dock_solv.prm

>  <Rbt.Receptor>
prm/blind_docking_20.prm

>  <SCORE>
-14.7348

>  <SCORE.INTER>
-14.7534

>  <SCORE.INTER.CONST>
1

>  <SCORE.INTER.POLAR>
-1.73059

>  <SCORE.INTER.ROT>
0

>  <SCORE.INTER.SOLV>
4.85142

>  <SCORE.INTER.VDW>
-9.28408

>  <SCORE.INTER.norm>
-1.47534

>  <SCORE.INTRA>
0

>  <SCORE.INTRA.DIHEDRAL>
0

>  <SCORE.INTRA.DIHEDRAL.0>
0

>  <SCORE.INTRA.POLAR>
0

>  <SCORE.INTRA.POLAR.0>
0

>  <SCORE.INTRA.REPUL>
0

>  <SCORE.INTRA.REPUL.0>
0

>  <SCORE.INTRA.SOLV>
0

>  <SCORE.INTRA.SOLV.lig_0>
-16.9472

>  <SCORE.INTRA.VDW>
0

>  <SCORE.INTRA.VDW.0>
0

>  <SCORE.INTRA.norm>
0

>  <SCORE.RESTR>
0.0185711

>  <SCORE.RESTR.CAVITY>
0.0185711

>  <SCORE.RESTR.norm>
0.00185711

>  <SCORE.SYSTEM>
0

>  <SCORE.SYSTEM.CONST>
0

>  <SCORE.SYSTEM.DIHEDRAL>
0

>  <SCORE.SYSTEM.SOLV>
0

>  <SCORE.SYSTEM.norm>
0

>  <SCORE.heavy>
10

>  <SCORE.norm>
-1.47348

>  <RMSD>
18.163

$$$$
1y26_lig
 OpenBabel02141814133D
libRbt.so/2013.1/901 2013/11/27
 10 11  0  0  0  0  0  0  0  0999 V2000
    6.3944   -3.4397    5.8475 N   0  0  0  0  0  0  0  0  0  0  0  0
    7.2501   -4.1292    6.6062 C   0  0  0  0  0  0  0  0  0  0  0  0
    8.2266   -4.9464    6.2170 N   0  0  0  0  0  0  0  0  0  0  0  0
    8.2990   -5.0022    4.8680 C   0  0  0  0  0  0  0  0  0  0  0  0
    7.4946   -4.3387    3.9630 C   0  0  0  0  0  0  0  0  0  0  0  0
    6.4956   -3.5244    4.5048 C   0  0  0  0  0  0  0  0  0  0  0  0
    5.6566   -2.8547    3.7311 N   0  0  0  0  0  0  0  0  0  0  0  0
    7.8284   -4.6236    2.6593 N   0  0  0  0  0  0  0  0  0  0  0  0
    8.8591   -5.4380    2.7930 C   0  0  0  0  0  0  0  0  0  0  0  0
    9.1838   -5.7150    4.1035 N   0  0  0  0  0  0  0  0  0  0  0  0
  1  2  2  0  0  0  0
  2  3  1  0  0  0  0
  3  4  2  0  0  0  0
  5  4  1  0  0  0  0
  5  6  2  0  0  0  0
  6  1  1  0  0  0  0
  6  7  1  0  0  0  0
  8  5  1  0  0  0  0
  9  8  1  0  0  0  0
 10  4  1  0  0  0  0
 10  9  2  0  0  0  0
M  END
>  <CHROM.1>
7.56784988,-4.40056004,4.53059317,-2.54407642,0.68253302,-1.57214330

>  <Name>
1y26_lig

>  <RI>
0

>  <Rbt.Current_Directory>
/home/afrankz/demos/rdock_decoys_rna/rnas/1y26

>  <Rbt.Executable>
rbdock ($Id: //depot/dev/client3/rdock/2013.1/src/exe/rbdock.cxx#4 $)

>  <Rbt.Library>
libRbt.so (2013.1, Build901 2013/11/27)

>  <Rbt.Parameter_File>
/export/apps/rDock/src/rDock_2013.1_src/data/scripts/dock_solv.prm

>  <Rbt.Receptor>
prm/blind_docking_20.prm

>  <SCORE>
-10.5761

>  <SCORE.INTER>
-11.0786

>  <SCORE.INTER.CONST>
1

>  <SCORE.INTER.POLAR>
-1.98866

>  <SCORE.INTER.ROT>
0

>  <SCORE.INTER.SOLV>
4.86709

>  <SCORE.INTER.VDW>
-5.97924

>  <SCORE.INTER.norm>
-1.10786

>  <SCORE.INTRA>
0

>  <SCORE.INTRA.DIHEDRAL>
0

>  <SCORE.INTRA.DIHEDRAL.0>
0

>  <SCORE.INTRA.POLAR>
0

>  <SCORE.INTRA.POLAR.0>
0

>  <SCORE.INTRA.REPUL>
0

>  <SCORE.INTRA.REPUL.0>
0

>  <SCORE.INTRA.SOLV>
0

>  <SCORE.INTRA.SOLV.lig_0>
-16.9472

>  <SCORE.INTRA.VDW>
0

>  <SCORE.INTRA.VDW.0>
0

>  <SCORE.INTRA.norm>
0

>  <SCORE.RESTR>
0.502478

>  <SCORE.RESTR.CAVITY>
0.502478

>  <SCORE.RESTR.norm>
0.0502478

>  <SCORE.SYSTEM>
0

>  <SCORE.SYSTEM.CONST>
0

>  <SCORE.SYSTEM.DIHEDRAL>
0

>  <SCORE.SYSTEM.SOLV>
0

>  <SCORE.SYSTEM.norm>
0

>  <SCORE.heavy>
10

>  <SCORE.norm>
-1.05761

>  <RMSD>
18.221

$$$$
1y26_lig
 OpenBabel02141814133D
libRbt.so/2013.1/901 2013/11/27
 10 11  0  0  0  0  0  0  0  0999 V2000
    6.4199   -3.3661    5.8425 N   0  0  0  0  0  0  0  0  0  0  0  0
    7.2676   -4.0555    6.6101 C   0  0  0  0  0  0  0  0  0  0  0  0
    8.2322   -4.8918    6.2317 N   0  0  0  0  0  0  0  0  0  0  0  0
    8.3010   -4.9692    4.8836 C   0  0  0  0  0  0  0  0  0  0  0  0
    7.5039   -4.3087    3.9700 C   0  0  0  0  0  0  0  0  0  0  0  0
    6.5172   -3.4727    4.5010 C   0  0  0  0  0  0  0  0  0  0  0  0
    5.6858   -2.8035    3.7187 N   0  0  0  0  0  0  0  0  0  0  0  0
    7.8311   -4.6181    2.6701 N   0  0  0  0  0  0  0  0  0  0  0  0
    8.8509   -5.4443    2.8144 C   0  0  0  0  0  0  0  0  0  0  0  0
    9.1744   -5.7056    4.1284 N   0  0  0  0  0  0  0  0  0  0  0  0
  1  2  2  0  0  0  0
  2  3  1  0  0  0  0
  3  4  2  0  0  0  0
  5  4  1  0  0  0  0
  5  6  2  0  0  0  0
  6  1  1  0  0  0  0
  6  7  1  0  0  0  0
  8  5  1  0  0  0  0
  9  8  1  0  0  0  0
 10  4  1  0  0  0  0
 10  9  2  0  0  0  0
M  END
>  <CHROM.1>
7.57745161,-4.36291771,4.53829792,-2.54139358,0.69614771,-1.58915060

>  <Name>
1y26_lig

>  <RI>
0

>  <Rbt.Current_Directory>
/home/afrankz/demos/rdock_decoys_rna/rnas/1y26

>  <Rbt.Executable>
rbdock ($Id: //depot/dev/client3/rdock/2013.1/src/exe/rbdock.cxx#4 $)

>  <Rbt.Library>
libRbt.so (2013.1, Build901 2013/11/27)

>  <Rbt.Parameter_File>
/export/apps/rDock/src/rDock_2013.1_src/data/scripts/dock_solv.prm

>  <Rbt.Receptor>
prm/blind_docking_20.prm

>  <SCORE>
-10.6177

>  <SCORE.INTER>
-11.1184

>  <SCORE.INTER.CONST>
1

>  <SCORE.INTER.POLAR>
-1.99403

>  <SCORE.INTER.ROT>
0

>  <SCORE.INTER.SOLV>
5.02657

>  <SCORE.INTER.VDW>
-6.04102

>  <SCORE.INTER.norm>
-1.11184

>  <SCORE.INTRA>
0

>  <SCORE.INTRA.DIHEDRAL>
0

>  <SCORE.INTRA.DIHEDRAL.0>
0

>  <SCORE.INTRA.POLAR>
0

>  <SCORE.INTRA.POLAR.0>
0

>  <SCORE.INTRA.REPUL>
0

>  <SCORE.INTRA.REPUL.0>
0

>  <SCORE.INTRA.SOLV>
0

>  <SCORE.INTRA.SOLV.lig_0>
-16.9472

>  <SCORE.INTRA.VDW>
0

>  <SCORE.INTRA.VDW.0>
0

>  <SCORE.INTRA.norm>
0

>  <SCORE.RESTR>
0.500662

>  <SCORE.RESTR.CAVITY>
0.500662

>  <SCORE.RESTR.norm>
0.0500662

>  <SCORE.SYSTEM>
0

>  <SCORE.SYSTEM.CONST>
0

>  <SCORE.SYSTEM.DIHEDRAL>
0

>  <SCORE.SYSTEM.SOLV>
0

>  <SCORE.SYSTEM.norm>
0

>  <SCORE.heavy>
10

>  <SCORE.norm>
-1.06177

>  <RMSD>
18.241

$$$$
1y26_lig
 OpenBabel02141814133D
libRbt.so/2013.1/901 2013/11/27
 10 11  0  0  0  0  0  0  0  0999 V2000
    6.4321   -3.3092    5.8528 N   0  0  0  0  0  0  0  0  0  0  0  0
    7.2832   -3.9927    6.6219 C   0  0  0  0  0  0  0  0  0  0  0  0
    8.2390   -4.8401    6.2462 N   0  0  0  0  0  0  0  0  0  0  0  0
    8.2941   -4.9372    4.8987 C   0  0  0  0  0  0  0  0  0  0  0  0
    7.4920   -4.2851    3.9835 C   0  0  0  0  0  0  0  0  0  0  0  0
    6.5155   -3.4355    4.5121 C   0  0  0  0  0  0  0  0  0  0  0  0
    5.6804   -2.7726    3.7284 N   0  0  0  0  0  0  0  0  0  0  0  0
    7.8045   -4.6149    2.6852 N   0  0  0  0  0  0  0  0  0  0  0  0
    8.8208   -5.4452    2.8313 C   0  0  0  0  0  0  0  0  0  0  0  0
    9.1557   -5.6896    4.1457 N   0  0  0  0  0  0  0  0  0  0  0  0
  1  2  2  0  0  0  0
  2  3  1  0  0  0  0
  3  4  2  0  0  0  0
  5  4  1  0  0  0  0
  5  6  2  0  0  0  0
  6  1  1  0  0  0  0
  6  7  1  0  0  0  0
  8  5  1  0  0  0  0
  9  8  1  0  0  0  0
 10  4  1  0  0  0  0
 10  9  2  0  0  0  0
M  END
>  <CHROM.1>
7.57079838,-4.33155457,4.55184215,-2.52835533,0.70183179,-1.61188673

>  <Name>
1y26_lig

>  <RI>
0

>  <Rbt.Current_Directory>
/home/afrankz/demos/rdock_decoys_rna/rnas/1y26

>  <Rbt.Executable>
rbdock ($Id: //depot/dev/client3/rdock/2013.1/src/exe/rbdock.cxx#4 $)

>  <Rbt.Library>
libRbt.so (2013.1, Build901 2013/11/27)

>  <Rbt.Parameter_File>
/export/apps/rDock/src/rDock_2013.1_src/data/scripts/dock_solv.prm

>  <Rbt.Receptor>
prm/blind_docking_20.prm

>  <SCORE>
-10.6225

>  <SCORE.INTER>
-11.1312

>  <SCORE.INTER.CONST>
1

>  <SCORE.INTER.POLAR>
-2.00209

>  <SCORE.INTER.ROT>
0

>  <SCORE.INTER.SOLV>
5.0942

>  <SCORE.INTER.VDW>
-6.04524

>  <SCORE.INTER.norm>
-1.11312

>  <SCORE.INTRA>
0

>  <SCORE.INTRA.DIHEDRAL>
0

>  <SCORE.INTRA.DIHEDRAL.0>
0

>  <SCORE.INTRA.POLAR>
0

>  <SCORE.INTRA.POLAR.0>
0

>  <SCORE.INTRA.REPUL>
0

>  <SCORE.INTRA.REPUL.0>
0

>  <SCORE.INTRA.SOLV>
0

>  <SCORE.INTRA.SOLV.lig_0>
-16.9472

>  <SCORE.INTRA.VDW>
0

>  <SCORE.INTRA.VDW.0>
0

>  <SCORE.INTRA.norm>
0

>  <SCORE.RESTR>
0.508706

>  <SCORE.RESTR.CAVITY>
0.508706

>  <SCORE.RESTR.norm>
0.0508706

>  <SCORE.SYSTEM>
0

>  <SCORE.SYSTEM.CONST>
0

>  <SCORE.SYSTEM.DIHEDRAL>
0

>  <SCORE.SYSTEM.SOLV>
0

>  <SCORE.SYSTEM.norm>
0

>  <SCORE.heavy>
10

>  <SCORE.norm>
-1.06225

>  <RMSD>
18.269

$$$$
1y26_lig
 OpenBabel02141814133D
libRbt.so/2013.1/901 2013/11/27
 10 11  0  0  0  0  0  0  0  0999 V2000
    6.4307   -3.3113    5.8570 N   0  0  0  0  0  0  0  0  0  0  0  0
    7.2835   -3.9945    6.6245 C   0  0  0  0  0  0  0  0  0  0  0  0
    8.2391   -4.8415    6.2470 N   0  0  0  0  0  0  0  0  0  0  0  0
    8.2919   -4.9382    4.8994 C   0  0  0  0  0  0  0  0  0  0  0  0
    7.4879   -4.2862    3.9857 C   0  0  0  0  0  0  0  0  0  0  0  0
    6.5120   -3.4373    4.5162 C   0  0  0  0  0  0  0  0  0  0  0  0
    5.6752   -2.7746    3.7340 N   0  0  0  0  0  0  0  0  0  0  0  0
    7.7984   -4.6157    2.6868 N   0  0  0  0  0  0  0  0  0  0  0  0
    8.8153   -5.4455    2.8310 C   0  0  0  0  0  0  0  0  0  0  0  0
    9.1526   -5.6901    4.1448 N   0  0  0  0  0  0  0  0  0  0  0  0
  1  2  2  0  0  0  0
  2  3  1  0  0  0  0
  3  4  2  0  0  0  0
  5  4  1  0  0  0  0
  5  6  2  0  0  0  0
  6  1  1  0  0  0  0
  6  7  1  0  0  0  0
  8  5  1  0  0  0  0
  9  8  1  0  0  0  0
 10  4  1  0  0  0  0
 10  9  2  0  0  0  0
M  END
>  <CHROM.1>
7.56772068,-4.33282461,4.55389423,-2.52618053,0.70129616,-1.61307205

>  <Name>
1y26_lig

>  <RI>
0

>  <Rbt.Current_Directory>
/home/afrankz/demos/rdock_decoys_rna/rnas/1y26

>  <Rbt.Executable>
rbdock ($Id: //depot/dev/client3/rdock/2013.1/src/exe/rbdock.cxx#4 $)

>  <Rbt.Library>
libRbt.so (2013.1, Build901 2013/11/27)

>  <Rbt.Parameter_File>
/export/apps/rDock/src/rDock_2013.1_src/data/scripts/dock_solv.prm

>  <Rbt.Receptor>
prm/blind_docking_20.prm

>  <SCORE>
-10.6282

>  <SCORE.INTER>
-11.1384

>  <SCORE.INTER.CONST>
1

>  <SCORE.INTER.POLAR>
-2.00016

>  <SCORE.INTER.ROT>
0

>  <SCORE.INTER.SOLV>
5.07833

>  <SCORE.INTER.VDW>
-6.05113

>  <SCORE.INTER.norm>
-1.11384

>  <SCORE.INTRA>
0

>  <SCORE.INTRA.DIHEDRAL>
0

>  <SCORE.INTRA.DIHEDRAL.0>
0

>  <SCORE.INTRA.POLAR>
0

>  <SCORE.INTRA.POLAR.0>
0

>  <SCORE.INTRA.REPUL>
0

>  <SCORE.INTRA.REPUL.0>
0

>  <SCORE.INTRA.SOLV>
0

>  <SCORE.INTRA.SOLV.lig_0>
-16.9472

>  <SCORE.INTRA.VDW>
0

>  <SCORE.INTRA.VDW.0>
0

>  <SCORE.INTRA.norm>
0

>  <SCORE.RESTR>
0.510152

>  <SCORE.RESTR.CAVITY>
0.510152

>  <SCORE.RESTR.norm>
0.0510152

>  <SCORE.SYSTEM>
0

>  <SCORE.SYSTEM.CONST>
0

>  <SCORE.SYSTEM.DIHEDRAL>
0

>  <SCORE.SYSTEM.SOLV>
0

>  <SCORE.SYSTEM.norm>
0

>  <SCORE.heavy>
10

>  <SCORE.norm>
-1.06282

>  <RMSD>
18.270

$$$$
1y26_lig
 OpenBabel02141814133D
libRbt.so/2013.1/901 2013/11/27
 10 11  0  0  0  0  0  0  0  0999 V2000
   37.6420  -21.2058   -4.4293 N   0  0  0  0  0  0  0  0  0  0  0  0
   38.3674  -22.2981   -4.1767 C   0  0  0  0  0  0  0  0  0  0  0  0
   39.0622  -23.0451   -5.0325 N   0  0  0  0  0  0  0  0  0  0  0  0
   38.9828  -22.5423   -6.2851 C   0  0  0  0  0  0  0  0  0  0  0  0
   38.2856  -21.4213   -6.6896 C   0  0  0  0  0  0  0  0  0  0  0  0
   37.5838  -20.7367   -5.6929 C   0  0  0  0  0  0  0  0  0  0  0  0
   36.8679  -19.6588   -5.9699 N   0  0  0  0  0  0  0  0  0  0  0  0
   38.4046  -21.1904   -8.0405 N   0  0  0  0  0  0  0  0  0  0  0  0
   39.2044  -22.1645   -8.4340 C   0  0  0  0  0  0  0  0  0  0  0  0
   39.5780  -23.0217   -7.4215 N   0  0  0  0  0  0  0  0  0  0  0  0
  1  2  2  0  0  0  0
  2  3  1  0  0  0  0
  3  4  2  0  0  0  0
  5  4  1  0  0  0  0
  5  6  2  0  0  0  0
  6  1  1  0  0  0  0
  6  7  1  0  0  0  0
  8  5  1  0  0  0  0
  9  8  1  0  0  0  0
 10  4  1  0  0  0  0
 10  9  2  0  0  0  0
M  END
>  <CHROM.1>
38.39723100,-21.72824729,-6.21563742,-2.37499348,0.93198627,-1.27298862

>  <Name>
1y26_lig

>  <RI>
0

>  <Rbt.Current_Directory>
/home/afrankz/demos/rdock_decoys_rna/rnas/1y26

>  <Rbt.Executable>
rbdock ($Id: //depot/dev/client3/rdock/2013.1/src/exe/rbdock.cxx#4 $)

>  <Rbt.Library>
libRbt.so (2013.1, Build901 2013/11/27)

>  <Rbt.Parameter_File>
/export/apps/rDock/src/rDock_2013.1_src/data/scripts/dock_solv.prm

>  <Rbt.Receptor>
prm/blind_docking_100.prm

>  <SCORE>
-11.178

>  <SCORE.INTER>
-11.178

>  <SCORE.INTER.CONST>
1

>  <SCORE.INTER.POLAR>
-1.4437

>  <SCORE.INTER.ROT>
0

>  <SCORE.INTER.SOLV>
5.57296

>  <SCORE.INTER.VDW>
-8.09731

>  <SCORE.INTER.norm>
-1.1178

>  <SCORE.INTRA>
0

>  <SCORE.INTRA.DIHEDRAL>
0

>  <SCORE.INTRA.DIHEDRAL.0>
0

>  <SCORE.INTRA.POLAR>
0

>  <SCORE.INTRA.POLAR.0>
0

>  <SCORE.INTRA.REPUL>
0

>  <SCORE.INTRA.REPUL.0>
0

>  <SCORE.INTRA.SOLV>
0

>  <SCORE.INTRA.SOLV.lig_0>
-16.9472

>  <SCORE.INTRA.VDW>
0

>  <SCORE.INTRA.VDW.0>
0

>  <SCORE.INTRA.norm>
0

>  <SCORE.RESTR>
0

>  <SCORE.RESTR.CAVITY>
0

>  <SCORE.RESTR.norm>
0

>  <SCORE.SYSTEM>
0

>  <SCORE.SYSTEM.CONST>
0

>  <SCORE.SYSTEM.DIHEDRAL>
0

>  <SCORE.SYSTEM.SOLV>
0

>  <SCORE.SYSTEM.norm>
0

>  <SCORE.heavy>
10

>  <SCORE.norm>
-1.1178

>  <RMSD>
22.222

$$$$
1y26_lig
 OpenBabel02141814133D
libRbt.so/2013.1/901 2013/11/27
 10 11  0  0  0  0  0  0  0  0999 V2000
   43.0641  -30.1563   -5.0623 N   0  0  0  0  0  0  0  0  0  0  0  0
   42.3942  -31.2864   -5.3010 C   0  0  0  0  0  0  0  0  0  0  0  0
   41.0905  -31.4437   -5.5219 N   0  0  0  0  0  0  0  0  0  0  0  0
   40.4525  -30.2517   -5.5074 C   0  0  0  0  0  0  0  0  0  0  0  0
   41.0138  -29.0095   -5.2879 C   0  0  0  0  0  0  0  0  0  0  0  0
   42.3916  -28.9867   -5.0518 C   0  0  0  0  0  0  0  0  0  0  0  0
   43.0318  -27.8535   -4.8129 N   0  0  0  0  0  0  0  0  0  0  0  0
   40.0812  -27.9991   -5.3297 N   0  0  0  0  0  0  0  0  0  0  0  0
   38.9634  -28.6448   -5.6075 C   0  0  0  0  0  0  0  0  0  0  0  0
   39.1205  -30.0098   -5.7145 N   0  0  0  0  0  0  0  0  0  0  0  0
  1  2  2  0  0  0  0
  2  3  1  0  0  0  0
  3  4  2  0  0  0  0
  5  4  1  0  0  0  0
  5  6  2  0  0  0  0
  6  1  1  0  0  0  0
  6  7  1  0  0  0  0
  8  5  1  0  0  0  0
  9  8  1  0  0  0  0
 10  4  1  0  0  0  0
 10  9  2  0  0  0  0
M  END
>  <CHROM.1>
41.16187498,-29.56487493,-5.31936915,0.16460493,0.16790973,-3.03537925

>  <Name>
1y26_lig

>  <RI>
224

>  <Rbt.Current_Directory>
/home/afrankz/demos/rdock_decoys_rna/rnas/1y26

>  <Rbt.Executable>
rbdock ($Id: //depot/dev/client3/rdock/2013.1/src/exe/rbdock.cxx#4 $)

>  <Rbt.Library>
libRbt.so (2013.1, Build901 2013/11/27)

>  <Rbt.Parameter_File>
/export/apps/rDock/src/rDock_2013.1_src/data/scripts/dock_solv.prm

>  <Rbt.Receptor>
prm/blind_docking_80.prm

>  <SCORE>
-12.955

>  <SCORE.INTER>
-12.955

>  <SCORE.INTER.CONST>
1

>  <SCORE.INTER.POLAR>
-0.871773

>  <SCORE.INTER.ROT>
0

>  <SCORE.INTER.SOLV>
7.8696

>  <SCORE.INTER.VDW>
-11.954

>  <SCORE.INTER.norm>
-1.2955

>  <SCORE.INTRA>
0

>  <SCORE.INTRA.DIHEDRAL>
0

>  <SCORE.INTRA.DIHEDRAL.0>
0

>  <SCORE.INTRA.POLAR>
0

>  <SCORE.INTRA.POLAR.0>
0

>  <SCORE.INTRA.REPUL>
0

>  <SCORE.INTRA.REPUL.0>
0

>  <SCORE.INTRA.SOLV>
0

>  <SCORE.INTRA.SOLV.lig_0>
-16.9472

>  <SCORE.INTRA.VDW>
0

>  <SCORE.INTRA.VDW.0>
0

>  <SCORE.INTRA.norm>
0

>  <SCORE.RESTR>
0

>  <SCORE.RESTR.CAVITY>
0

>  <SCORE.RESTR.norm>
0

>  <SCORE.SYSTEM>
0

>  <SCORE.SYSTEM.CONST>
0

>  <SCORE.SYSTEM.DIHEDRAL>
0

>  <SCORE.SYSTEM.SOLV>
0

>  <SCORE.SYSTEM.norm>
0

>  <SCORE.heavy>
10

>  <SCORE.norm>
-1.2955

>  <RMSD>
26.555

$$$$
1y26_lig
 OpenBabel02141814133D
libRbt.so/2013.1/901 2013/11/27
 10 11  0  0  0  0  0  0  0  0999 V2000
   38.4815  -30.9057   -5.7128 N   0  0  0  0  0  0  0  0  0  0  0  0
   38.8690  -31.9204   -4.9359 C   0  0  0  0  0  0  0  0  0  0  0  0
   40.0991  -32.2268   -4.5288 N   0  0  0  0  0  0  0  0  0  0  0  0
   40.9971  -31.3273   -4.9903 C   0  0  0  0  0  0  0  0  0  0  0  0
   40.7412  -30.2290   -5.7869 C   0  0  0  0  0  0  0  0  0  0  0  0
   39.4076  -30.0312   -6.1572 C   0  0  0  0  0  0  0  0  0  0  0  0
   39.0497  -29.0201   -6.9324 N   0  0  0  0  0  0  0  0  0  0  0  0
   41.8830  -29.5231   -6.0872 N   0  0  0  0  0  0  0  0  0  0  0  0
   42.8185  -30.1907   -5.4373 C   0  0  0  0  0  0  0  0  0  0  0  0
   42.3477  -31.2984   -4.7658 N   0  0  0  0  0  0  0  0  0  0  0  0
  1  2  2  0  0  0  0
  2  3  1  0  0  0  0
  3  4  2  0  0  0  0
  5  4  1  0  0  0  0
  5  6  2  0  0  0  0
  6  1  1  0  0  0  0
  6  7  1  0  0  0  0
  8  5  1  0  0  0  0
  9  8  1  0  0  0  0
 10  4  1  0  0  0  0
 10  9  2  0  0  0  0
M  END
>  <CHROM.1>
40.46780880,-30.66772069,-5.53362273,3.06976943,-0.14349228,-0.60654056

>  <Name>
1y26_lig

>  <RI>
0

>  <Rbt.Current_Directory>
/home/afrankz/demos/rdock_decoys_rna/rnas/1y26

>  <Rbt.Executable>
rbdock ($Id: //depot/dev/client3/rdock/2013.1/src/exe/rbdock.cxx#4 $)

>  <Rbt.Library>
libRbt.so (2013.1, Build901 2013/11/27)

>  <Rbt.Parameter_File>
/export/apps/rDock/src/rDock_2013.1_src/data/scripts/dock_solv.prm

>  <Rbt.Receptor>
prm/blind_docking_100.prm

>  <SCORE>
-11.3535

>  <SCORE.INTER>
-11.3535

>  <SCORE.INTER.CONST>
1

>  <SCORE.INTER.POLAR>
-0.823308

>  <SCORE.INTER.ROT>
0

>  <SCORE.INTER.SOLV>
6.63197

>  <SCORE.INTER.VDW>
-10.6353

>  <SCORE.INTER.norm>
-1.13535

>  <SCORE.INTRA>
0

>  <SCORE.INTRA.DIHEDRAL>
0

>  <SCORE.INTRA.DIHEDRAL.0>
0

>  <SCORE.INTRA.POLAR>
0

>  <SCORE.INTRA.POLAR.0>
0

>  <SCORE.INTRA.REPUL>
0

>  <SCORE.INTRA.REPUL.0>
0

>  <SCORE.INTRA.SOLV>
0

>  <SCORE.INTRA.SOLV.lig_0>
-16.9472

>  <SCORE.INTRA.VDW>
0

>  <SCORE.INTRA.VDW.0>
0

>  <SCORE.INTRA.norm>
0

>  <SCORE.RESTR>
0

>  <SCORE.RESTR.CAVITY>
0

>  <SCORE.RESTR.norm>
0

>  <SCORE.SYSTEM>
0

>  <SCORE.SYSTEM.CONST>
0

>  <SCORE.SYSTEM.DIHEDRAL>
0

>  <SCORE.SYSTEM.SOLV>
0

>  <SCORE.SYSTEM.norm>
0

>  <SCORE.heavy>
10

>  <SCORE.norm>
-1.13535

>  <RMSD>
26.597

$$$$
1y26_lig
 OpenBabel02141814133D
libRbt.so/2013.1/901 2013/11/27
 10 11  0  0  0  0  0  0  0  0999 V2000
   39.2374  -31.4023   -5.9888 N   0  0  0  0  0  0  0  0  0  0  0  0
   39.7957  -32.2907   -5.1628 C   0  0  0  0  0  0  0  0  0  0  0  0
   40.9567  -32.2030   -4.5168 N   0  0  0  0  0  0  0  0  0  0  0  0
   41.5621  -31.0214   -4.7728 C   0  0  0  0  0  0  0  0  0  0  0  0
   41.1001  -30.0090   -5.5902 C   0  0  0  0  0  0  0  0  0  0  0  0
   39.8742  -30.2361   -6.2227 C   0  0  0  0  0  0  0  0  0  0  0  0
   39.3441  -29.3414   -7.0410 N   0  0  0  0  0  0  0  0  0  0  0  0
   41.9660  -28.9414   -5.6411 N   0  0  0  0  0  0  0  0  0  0  0  0
   42.9339  -29.3111   -4.8226 C   0  0  0  0  0  0  0  0  0  0  0  0
   42.7535  -30.5636   -4.2764 N   0  0  0  0  0  0  0  0  0  0  0  0
  1  2  2  0  0  0  0
  2  3  1  0  0  0  0
  3  4  2  0  0  0  0
  5  4  1  0  0  0  0
  5  6  2  0  0  0  0
  6  1  1  0  0  0  0
  6  7  1  0  0  0  0
  8  5  1  0  0  0  0
  9  8  1  0  0  0  0
 10  4  1  0  0  0  0
 10  9  2  0  0  0  0
M  END
>  <CHROM.1>
40.95104582,-30.53293633,-5.40399056,-3.01378481,-0.49770303,-0.49257778

>  <Name>
1y26_lig

>  <RI>
0

>  <Rbt.Current_Directory>
/home/afrankz/demos/rdock_decoys_rna/rnas/1y26

>  <Rbt.Executable>
rbdock ($Id: //depot/dev/client3/rdock/2013.1/src/exe/rbdock.cxx#4 $)

>  <Rbt.Library>
libRbt.so (2013.1, Build901 2013/11/27)

>  <Rbt.Parameter_File>
/export/apps/rDock/src/rDock_2013.1_src/data/scripts/dock_solv.prm

>  <Rbt.Receptor>
prm/blind_docking_100.prm

>  <SCORE>
-12.2993

>  <SCORE.INTER>
-12.2993

>  <SCORE.INTER.CONST>
1

>  <SCORE.INTER.POLAR>
-0.810217

>  <SCORE.INTER.ROT>
0

>  <SCORE.INTER.SOLV>
8.35448

>  <SCORE.INTER.VDW>
-11.8837

>  <SCORE.INTER.norm>
-1.22993

>  <SCORE.INTRA>
0

>  <SCORE.INTRA.DIHEDRAL>
0

>  <SCORE.INTRA.DIHEDRAL.0>
0

>  <SCORE.INTRA.POLAR>
0

>  <SCORE.INTRA.POLAR.0>
0

>  <SCORE.INTRA.REPUL>
0

>  <SCORE.INTRA.REPUL.0>
0

>  <SCORE.INTRA.SOLV>
0

>  <SCORE.INTRA.SOLV.lig_0>
-16.9472

>  <SCORE.INTRA.VDW>
0

>  <SCORE.INTRA.VDW.0>
0

>  <SCORE.INTRA.norm>
0

>  <SCORE.RESTR>
0

>  <SCORE.RESTR.CAVITY>
0

>  <SCORE.RESTR.norm>
0

>  <SCORE.SYSTEM>
0

>  <SCORE.SYSTEM.CONST>
0

>  <SCORE.SYSTEM.DIHEDRAL>
0

>  <SCORE.SYSTEM.SOLV>
0

>  <SCORE.SYSTEM.norm>
0

>  <SCORE.heavy>
10

>  <SCORE.norm>
-1.22993

>  <RMSD>
26.875

$$$$
1y26_lig
 OpenBabel02141814133D
libRbt.so/2013.1/901 2013/11/27
 10 11  0  0  0  0  0  0  0  0999 V2000
   43.2986  -29.3873   -4.3325 N   0  0  0  0  0  0  0  0  0  0  0  0
   42.8459  -28.1895   -4.7114 C   0  0  0  0  0  0  0  0  0  0  0  0
   41.7307  -27.9008   -5.3793 N   0  0  0  0  0  0  0  0  0  0  0  0
   41.0221  -29.0222   -5.6409 C   0  0  0  0  0  0  0  0  0  0  0  0
   41.3581  -30.3176   -5.3014 C   0  0  0  0  0  0  0  0  0  0  0  0
   42.5650  -30.4836   -4.6155 C   0  0  0  0  0  0  0  0  0  0  0  0
   42.9943  -31.6823   -4.2550 N   0  0  0  0  0  0  0  0  0  0  0  0
   40.4209  -31.2300   -5.7273 N   0  0  0  0  0  0  0  0  0  0  0  0
   39.5067  -30.4657   -6.2962 C   0  0  0  0  0  0  0  0  0  0  0  0
   39.8188  -29.1233   -6.2869 N   0  0  0  0  0  0  0  0  0  0  0  0
  1  2  2  0  0  0  0
  2  3  1  0  0  0  0
  3  4  2  0  0  0  0
  5  4  1  0  0  0  0
  5  6  2  0  0  0  0
  6  1  1  0  0  0  0
  6  7  1  0  0  0  0
  8  5  1  0  0  0  0
  9  8  1  0  0  0  0
 10  4  1  0  0  0  0
 10  9  2  0  0  0  0
M  END
>  <CHROM.1>
41.55759471,-29.77969981,-5.25404667,0.02545276,-0.50157356,-0.11107317

>  <Name>
1y26_lig

>  <RI>
224

>  <Rbt.Current_Directory>
/home/afrankz/demos/rdock_decoys_rna/rnas/1y26

>  <Rbt.Executable>
rbdock ($Id: //depot/dev/client3/rdock/2013.1/src/exe/rbdock.cxx#4 $)

>  <Rbt.Library>
libRbt.so (2013.1, Build901 2013/11/27)

>  <Rbt.Parameter_File>
/export/apps/rDock/src/rDock_2013.1_src/data/scripts/dock_solv.prm

>  <Rbt.Receptor>
prm/blind_docking_80.prm

>  <SCORE>
-12.1522

>  <SCORE.INTER>
-12.1522

>  <SCORE.INTER.CONST>
1

>  <SCORE.INTER.POLAR>
-1.07704

>  <SCORE.INTER.ROT>
0

>  <SCORE.INTER.SOLV>
9.10917

>  <SCORE.INTER.VDW>
-11.1477

>  <SCORE.INTER.norm>
-1.21522

>  <SCORE.INTRA>
0

>  <SCORE.INTRA.DIHEDRAL>
0

>  <SCORE.INTRA.DIHEDRAL.0>
0

>  <SCORE.INTRA.POLAR>
0

>  <SCORE.INTRA.POLAR.0>
0

>  <SCORE.INTRA.REPUL>
0

>  <SCORE.INTRA.REPUL.0>
0

>  <SCORE.INTRA.SOLV>
0

>  <SCORE.INTRA.SOLV.lig_0>
-16.9472

>  <SCORE.INTRA.VDW>
0

>  <SCORE.INTRA.VDW.0>
0

>  <SCORE.INTRA.norm>
0

>  <SCORE.RESTR>
0

>  <SCORE.RESTR.CAVITY>
0

>  <SCORE.RESTR.norm>
0

>  <SCORE.SYSTEM>
0

>  <SCORE.SYSTEM.CONST>
0

>  <SCORE.SYSTEM.DIHEDRAL>
0

>  <SCORE.SYSTEM.SOLV>
0

>  <SCORE.SYSTEM.norm>
0

>  <SCORE.heavy>
10

>  <SCORE.norm>
-1.21522

>  <RMSD>
27.037

$$$$
1y26_lig
 OpenBabel02141814133D
libRbt.so/2013.1/901 2013/11/27
 10 11  0  0  0  0  0  0  0  0999 V2000
   43.1482  -30.2198   -5.7195 N   0  0  0  0  0  0  0  0  0  0  0  0
   42.4712  -29.6077   -6.6943 C   0  0  0  0  0  0  0  0  0  0  0  0
   41.1674  -29.6663   -6.9580 N   0  0  0  0  0  0  0  0  0  0  0  0
   40.5288  -30.4480   -6.0583 C   0  0  0  0  0  0  0  0  0  0  0  0
   41.0932  -31.1286   -4.9978 C   0  0  0  0  0  0  0  0  0  0  0  0
   42.4763  -30.9951   -4.8433 C   0  0  0  0  0  0  0  0  0  0  0  0
   43.1249  -31.6162   -3.8714 N   0  0  0  0  0  0  0  0  0  0  0  0
   40.1624  -31.8431   -4.2799 N   0  0  0  0  0  0  0  0  0  0  0  0
   39.0328  -31.5582   -4.9013 C   0  0  0  0  0  0  0  0  0  0  0  0
   39.1904  -30.7300   -5.9916 N   0  0  0  0  0  0  0  0  0  0  0  0
  1  2  2  0  0  0  0
  2  3  1  0  0  0  0
  3  4  2  0  0  0  0
  5  4  1  0  0  0  0
  5  6  2  0  0  0  0
  6  1  1  0  0  0  0
  6  7  1  0  0  0  0
  8  5  1  0  0  0  0
  9  8  1  0  0  0  0
 10  4  1  0  0  0  0
 10  9  2  0  0  0  0
M  END
>  <CHROM.1>
41.24110828,-30.78082915,-5.43202435,0.16734071,-0.14234893,-0.92914804

>  <Name>
1y26_lig

>  <RI>
224

>  <Rbt.Current_Directory>
/home/afrankz/demos/rdock_decoys_rna/rnas/1y26

>  <Rbt.Executable>
rbdock ($Id: //depot/dev/client3/rdock/2013.1/src/exe/rbdock.cxx#4 $)

>  <Rbt.Library>
libRbt.so (2013.1, Build901 2013/11/27)

>  <Rbt.Parameter_File>
/export/apps/rDock/src/rDock_2013.1_src/data/scripts/dock_solv.prm

>  <Rbt.Receptor>
prm/blind_docking_80.prm

>  <SCORE>
-13.9015

>  <SCORE.INTER>
-13.9015

>  <SCORE.INTER.CONST>
1

>  <SCORE.INTER.POLAR>
-1.20281

>  <SCORE.INTER.ROT>
0

>  <SCORE.INTER.SOLV>
8.80279

>  <SCORE.INTER.VDW>
-11.7926

>  <SCORE.INTER.norm>
-1.39015

>  <SCORE.INTRA>
0

>  <SCORE.INTRA.DIHEDRAL>
0

>  <SCORE.INTRA.DIHEDRAL.0>
0

>  <SCORE.INTRA.POLAR>
0

>  <SCORE.INTRA.POLAR.0>
0

>  <SCORE.INTRA.REPUL>
0

>  <SCORE.INTRA.REPUL.0>
0

>  <SCORE.INTRA.SOLV>
0

>  <SCORE.INTRA.SOLV.lig_0>
-16.9472

>  <SCORE.INTRA.VDW>
0

>  <SCORE.INTRA.VDW.0>
0

>  <SCORE.INTRA.norm>
0

>  <SCORE.RESTR>
0

>  <SCORE.RESTR.CAVITY>
0

>  <SCORE.RESTR.norm>
0

>  <SCORE.SYSTEM>
0

>  <SCORE.SYSTEM.CONST>
0

>  <SCORE.SYSTEM.DIHEDRAL>
0

>  <SCORE.SYSTEM.SOLV>
0

>  <SCORE.SYSTEM.norm>
0

>  <SCORE.heavy>
10

>  <SCORE.norm>
-1.39015

>  <RMSD>
27.218

$$$$
1y26_lig
 OpenBabel02141814133D
libRbt.so/2013.1/901 2013/11/27
 10 11  0  0  0  0  0  0  0  0999 V2000
   40.8478  -29.6397   -6.8022 N   0  0  0  0  0  0  0  0  0  0  0  0
   39.8201  -30.2917   -6.2529 C   0  0  0  0  0  0  0  0  0  0  0  0
   39.8498  -31.2819   -5.3632 N   0  0  0  0  0  0  0  0  0  0  0  0
   41.1222  -31.5782   -5.0148 C   0  0  0  0  0  0  0  0  0  0  0  0
   42.2749  -30.9833   -5.4878 C   0  0  0  0  0  0  0  0  0  0  0  0
   42.1033  -29.9668   -6.4321 C   0  0  0  0  0  0  0  0  0  0  0  0
   43.1388  -29.3387   -6.9655 N   0  0  0  0  0  0  0  0  0  0  0  0
   43.4102  -31.5290   -4.9348 N   0  0  0  0  0  0  0  0  0  0  0  0
   42.9247  -32.4332   -4.1041 C   0  0  0  0  0  0  0  0  0  0  0  0
   41.5492  -32.5194   -4.1163 N   0  0  0  0  0  0  0  0  0  0  0  0
  1  2  2  0  0  0  0
  2  3  1  0  0  0  0
  3  4  2  0  0  0  0
  5  4  1  0  0  0  0
  5  6  2  0  0  0  0
  6  1  1  0  0  0  0
  6  7  1  0  0  0  0
  8  5  1  0  0  0  0
  9  8  1  0  0  0  0
 10  4  1  0  0  0  0
 10  9  2  0  0  0  0
M  END
>  <CHROM.1>
41.70319708,-30.95525457,-5.54847556,1.89266855,-0.04059168,-0.74446257

>  <Name>
1y26_lig

>  <RI>
0

>  <Rbt.Current_Directory>
/home/afrankz/demos/rdock_decoys_rna/rnas/1y26

>  <Rbt.Executable>
rbdock ($Id: //depot/dev/client3/rdock/2013.1/src/exe/rbdock.cxx#4 $)

>  <Rbt.Library>
libRbt.so (2013.1, Build901 2013/11/27)

>  <Rbt.Parameter_File>
/export/apps/rDock/src/rDock_2013.1_src/data/scripts/dock_solv.prm

>  <Rbt.Receptor>
prm/blind_docking_60.prm

>  <SCORE>
-14.0366

>  <SCORE.INTER>
-14.0366

>  <SCORE.INTER.CONST>
1

>  <SCORE.INTER.POLAR>
-0.92807

>  <SCORE.INTER.ROT>
0

>  <SCORE.INTER.SOLV>
9.68286

>  <SCORE.INTER.VDW>
-13.0918

>  <SCORE.INTER.norm>
-1.40366

>  <SCORE.INTRA>
0

>  <SCORE.INTRA.DIHEDRAL>
0

>  <SCORE.INTRA.DIHEDRAL.0>
0

>  <SCORE.INTRA.POLAR>
0

>  <SCORE.INTRA.POLAR.0>
0

>  <SCORE.INTRA.REPUL>
0

>  <SCORE.INTRA.REPUL.0>
0

>  <SCORE.INTRA.SOLV>
0

>  <SCORE.INTRA.SOLV.lig_0>
-16.9472

>  <SCORE.INTRA.VDW>
0

>  <SCORE.INTRA.VDW.0>
0

>  <SCORE.INTRA.norm>
0

>  <SCORE.RESTR>
0

>  <SCORE.RESTR.CAVITY>
0

>  <SCORE.RESTR.norm>
0

>  <SCORE.SYSTEM>
0

>  <SCORE.SYSTEM.CONST>
0

>  <SCORE.SYSTEM.DIHEDRAL>
0

>  <SCORE.SYSTEM.SOLV>
0

>  <SCORE.SYSTEM.norm>
0

>  <SCORE.heavy>
10

>  <SCORE.norm>
-1.40366

>  <RMSD>
27.642

$$$$
1y26_lig
 OpenBabel02141814133D
libRbt.so/2013.1/901 2013/11/27
 10 11  0  0  0  0  0  0  0  0999 V2000
   40.8544  -29.6320   -6.8061 N   0  0  0  0  0  0  0  0  0  0  0  0
   39.8332  -30.2956   -6.2584 C   0  0  0  0  0  0  0  0  0  0  0  0
   39.8729  -31.2879   -5.3714 N   0  0  0  0  0  0  0  0  0  0  0  0
   41.1482  -31.5726   -5.0241 C   0  0  0  0  0  0  0  0  0  0  0  0
   42.2949  -30.9651   -5.4956 C   0  0  0  0  0  0  0  0  0  0  0  0
   42.1131  -29.9477   -6.4371 C   0  0  0  0  0  0  0  0  0  0  0  0
   43.1423  -29.3080   -6.9688 N   0  0  0  0  0  0  0  0  0  0  0  0
   43.4355  -31.5011   -4.9443 N   0  0  0  0  0  0  0  0  0  0  0  0
   42.9591  -32.4123   -4.1159 C   0  0  0  0  0  0  0  0  0  0  0  0
   41.5846  -32.5120   -4.1282 N   0  0  0  0  0  0  0  0  0  0  0  0
  1  2  2  0  0  0  0
  2  3  1  0  0  0  0
  3  4  2  0  0  0  0
  5  4  1  0  0  0  0
  5  6  2  0  0  0  0
  6  1  1  0  0  0  0
  6  7  1  0  0  0  0
  8  5  1  0  0  0  0
  9  8  1  0  0  0  0
 10  4  1  0  0  0  0
 10  9  2  0  0  0  0
M  END
>  <CHROM.1>
41.72289964,-30.94249708,-5.55607753,1.90003409,-0.04711842,-0.74138391

>  <Name>
1y26_lig

>  <RI>
0

>  <Rbt.Current_Directory>
/home/afrankz/demos/rdock_decoys_rna/rnas/1y26

>  <Rbt.Executable>
rbdock ($Id: //depot/dev/client3/rdock/2013.1/src/exe/rbdock.cxx#4 $)

>  <Rbt.Library>
libRbt.so (2013.1, Build901 2013/11/27)

>  <Rbt.Parameter_File>
/export/apps/rDock/src/rDock_2013.1_src/data/scripts/dock_solv.prm

>  <Rbt.Receptor>
prm/blind_docking_60.prm

>  <SCORE>
-14.006

>  <SCORE.INTER>
-14.006

>  <SCORE.INTER.CONST>
1

>  <SCORE.INTER.POLAR>
-0.925672

>  <SCORE.INTER.ROT>
0

>  <SCORE.INTER.SOLV>
9.73379

>  <SCORE.INTER.VDW>
-13.0964

>  <SCORE.INTER.norm>
-1.4006

>  <SCORE.INTRA>
0

>  <SCORE.INTRA.DIHEDRAL>
0

>  <SCORE.INTRA.DIHEDRAL.0>
0

>  <SCORE.INTRA.POLAR>
0

>  <SCORE.INTRA.POLAR.0>
0

>  <SCORE.INTRA.REPUL>
0

>  <SCORE.INTRA.REPUL.0>
0

>  <SCORE.INTRA.SOLV>
0

>  <SCORE.INTRA.SOLV.lig_0>
-16.9472

>  <SCORE.INTRA.VDW>
0

>  <SCORE.INTRA.VDW.0>
0

>  <SCORE.INTRA.norm>
0

>  <SCORE.RESTR>
0

>  <SCORE.RESTR.CAVITY>
0

>  <SCORE.RESTR.norm>
0

>  <SCORE.SYSTEM>
0

>  <SCORE.SYSTEM.CONST>
0

>  <SCORE.SYSTEM.DIHEDRAL>
0

>  <SCORE.SYSTEM.SOLV>
0

>  <SCORE.SYSTEM.norm>
0

>  <SCORE.heavy>
10

>  <SCORE.norm>
-1.4006

>  <RMSD>
27.655

$$$$
1y26_lig
 OpenBabel02141814133D
libRbt.so/2013.1/901 2013/11/27
 10 11  0  0  0  0  0  0  0  0999 V2000
   40.9076  -29.6422   -6.7973 N   0  0  0  0  0  0  0  0  0  0  0  0
   39.8618  -30.2944   -6.2835 C   0  0  0  0  0  0  0  0  0  0  0  0
   39.8621  -31.2963   -5.4065 N   0  0  0  0  0  0  0  0  0  0  0  0
   41.1231  -31.6058   -5.0293 C   0  0  0  0  0  0  0  0  0  0  0  0
   42.2915  -31.0125   -5.4643 C   0  0  0  0  0  0  0  0  0  0  0  0
   42.1510  -29.9826   -6.3992 C   0  0  0  0  0  0  0  0  0  0  0  0
   43.2040  -29.3547   -6.8972 N   0  0  0  0  0  0  0  0  0  0  0  0
   43.4084  -31.5732   -4.8895 N   0  0  0  0  0  0  0  0  0  0  0  0
   42.8958  -32.4849   -4.0836 C   0  0  0  0  0  0  0  0  0  0  0  0
   41.5206  -32.5615   -4.1326 N   0  0  0  0  0  0  0  0  0  0  0  0
  1  2  2  0  0  0  0
  2  3  1  0  0  0  0
  3  4  2  0  0  0  0
  5  4  1  0  0  0  0
  5  6  2  0  0  0  0
  6  1  1  0  0  0  0
  6  7  1  0  0  0  0
  8  5  1  0  0  0  0
  9  8  1  0  0  0  0
 10  4  1  0  0  0  0
 10  9  2  0  0  0  0
M  END
>  <CHROM.1>
41.72172363,-30.97985182,-5.53941348,1.87030970,-0.05531028,-0.73233326

>  <Name>
1y26_lig

>  <RI>
0

>  <Rbt.Current_Directory>
/home/afrankz/demos/rdock_decoys_rna/rnas/1y26

>  <Rbt.Executable>
rbdock ($Id: //depot/dev/client3/rdock/2013.1/src/exe/rbdock.cxx#4 $)

>  <Rbt.Library>
libRbt.so (2013.1, Build901 2013/11/27)

>  <Rbt.Parameter_File>
/export/apps/rDock/src/rDock_2013.1_src/data/scripts/dock_solv.prm

>  <Rbt.Receptor>
prm/blind_docking_100.prm

>  <SCORE>
-13.9475

>  <SCORE.INTER>
-13.9475

>  <SCORE.INTER.CONST>
1

>  <SCORE.INTER.POLAR>
-0.914383

>  <SCORE.INTER.ROT>
0

>  <SCORE.INTER.SOLV>
9.6748

>  <SCORE.INTER.VDW>
-13.0753

>  <SCORE.INTER.norm>
-1.39475

>  <SCORE.INTRA>
0

>  <SCORE.INTRA.DIHEDRAL>
0

>  <SCORE.INTRA.DIHEDRAL.0>
0

>  <SCORE.INTRA.POLAR>
0

>  <SCORE.INTRA.POLAR.0>
0

>  <SCORE.INTRA.REPUL>
0

>  <SCORE.INTRA.REPUL.0>
0

>  <SCORE.INTRA.SOLV>
0

>  <SCORE.INTRA.SOLV.lig_0>
-16.9472

>  <SCORE.INTRA.VDW>
0

>  <SCORE.INTRA.VDW.0>
0

>  <SCORE.INTRA.norm>
0

>  <SCORE.RESTR>
0

>  <SCORE.RESTR.CAVITY>
0

>  <SCORE.RESTR.norm>
0

>  <SCORE.SYSTEM>
0

>  <SCORE.SYSTEM.CONST>
0

>  <SCORE.SYSTEM.DIHEDRAL>
0

>  <SCORE.SYSTEM.SOLV>
0

>  <SCORE.SYSTEM.norm>
0

>  <SCORE.heavy>
10

>  <SCORE.norm>
-1.39475

>  <RMSD>
27.664

$$$$
1y26_lig
 OpenBabel02141814133D
libRbt.so/2013.1/901 2013/11/27
 10 11  0  0  0  0  0  0  0  0999 V2000
   40.8536  -29.6780   -6.7815 N   0  0  0  0  0  0  0  0  0  0  0  0
   39.8276  -30.3371   -6.2374 C   0  0  0  0  0  0  0  0  0  0  0  0
   39.8599  -31.3328   -5.3539 N   0  0  0  0  0  0  0  0  0  0  0  0
   41.1330  -31.6268   -5.0060 C   0  0  0  0  0  0  0  0  0  0  0  0
   42.2840  -31.0248   -5.4739 C   0  0  0  0  0  0  0  0  0  0  0  0
   42.1098  -30.0030   -6.4121 C   0  0  0  0  0  0  0  0  0  0  0  0
   43.1436  -29.3680   -6.9403 N   0  0  0  0  0  0  0  0  0  0  0  0
   43.4206  -31.5700   -4.9232 N   0  0  0  0  0  0  0  0  0  0  0  0
   42.9374  -32.4811   -4.0986 C   0  0  0  0  0  0  0  0  0  0  0  0
   41.5623  -32.5720   -4.1129 N   0  0  0  0  0  0  0  0  0  0  0  0
  1  2  2  0  0  0  0
  2  3  1  0  0  0  0
  3  4  2  0  0  0  0
  5  4  1  0  0  0  0
  5  6  2  0  0  0  0
  6  1  1  0  0  0  0
  6  7  1  0  0  0  0
  8  5  1  0  0  0  0
  9  8  1  0  0  0  0
 10  4  1  0  0  0  0
 10  9  2  0  0  0  0
M  END
>  <CHROM.1>
41.71226558,-30.99842342,-5.53506207,1.89454432,-0.04377814,-0.73810537

>  <Name>
1y26_lig

>  <RI>
0

>  <Rbt.Current_Directory>
/home/afrankz/demos/rdock_decoys_rna/rnas/1y26

>  <Rbt.Executable>
rbdock ($Id: //depot/dev/client3/rdock/2013.1/src/exe/rbdock.cxx#4 $)

>  <Rbt.Library>
libRbt.so (2013.1, Build901 2013/11/27)

>  <Rbt.Parameter_File>
/export/apps/rDock/src/rDock_2013.1_src/data/scripts/dock_solv.prm

>  <Rbt.Receptor>
prm/blind_docking_60.prm

>  <SCORE>
-14.0274

>  <SCORE.INTER>
-14.0274

>  <SCORE.INTER.CONST>
1

>  <SCORE.INTER.POLAR>
-0.905814

>  <SCORE.INTER.ROT>
0

>  <SCORE.INTER.SOLV>
9.63937

>  <SCORE.INTER.VDW>
-13.1453

>  <SCORE.INTER.norm>
-1.40274

>  <SCORE.INTRA>
0

>  <SCORE.INTRA.DIHEDRAL>
0

>  <SCORE.INTRA.DIHEDRAL.0>
0

>  <SCORE.INTRA.POLAR>
0

>  <SCORE.INTRA.POLAR.0>
0

>  <SCORE.INTRA.REPUL>
0

>  <SCORE.INTRA.REPUL.0>
0

>  <SCORE.INTRA.SOLV>
0

>  <SCORE.INTRA.SOLV.lig_0>
-16.9472

>  <SCORE.INTRA.VDW>
0

>  <SCORE.INTRA.VDW.0>
0

>  <SCORE.INTRA.norm>
0

>  <SCORE.RESTR>
0

>  <SCORE.RESTR.CAVITY>
0

>  <SCORE.RESTR.norm>
0

>  <SCORE.SYSTEM>
0

>  <SCORE.SYSTEM.CONST>
0

>  <SCORE.SYSTEM.DIHEDRAL>
0

>  <SCORE.SYSTEM.SOLV>
0

>  <SCORE.SYSTEM.norm>
0

>  <SCORE.heavy>
10

>  <SCORE.norm>
-1.40274

>  <RMSD>
27.665

$$$$
1y26_lig
 OpenBabel02141814133D
libRbt.so/2013.1/901 2013/11/27
 10 11  0  0  0  0  0  0  0  0999 V2000
   40.9398  -32.5323   -4.1995 N   0  0  0  0  0  0  0  0  0  0  0  0
   39.8608  -32.1290   -4.8749 C   0  0  0  0  0  0  0  0  0  0  0  0
   39.7653  -31.1493   -5.7716 N   0  0  0  0  0  0  0  0  0  0  0  0
   40.9670  -30.5639   -5.9751 C   0  0  0  0  0  0  0  0  0  0  0  0
   42.1625  -30.8820   -5.3620 C   0  0  0  0  0  0  0  0  0  0  0  0
   42.1206  -31.9206   -4.4271 C   0  0  0  0  0  0  0  0  0  0  0  0
   43.2035  -32.2986   -3.7670 N   0  0  0  0  0  0  0  0  0  0  0  0
   43.1981  -30.0834   -5.7887 N   0  0  0  0  0  0  0  0  0  0  0  0
   42.6177  -29.3068   -6.6851 C   0  0  0  0  0  0  0  0  0  0  0  0
   41.2676  -29.5402   -6.8337 N   0  0  0  0  0  0  0  0  0  0  0  0
  1  2  2  0  0  0  0
  2  3  1  0  0  0  0
  3  4  2  0  0  0  0
  5  4  1  0  0  0  0
  5  6  2  0  0  0  0
  6  1  1  0  0  0  0
  6  7  1  0  0  0  0
  8  5  1  0  0  0  0
  9  8  1  0  0  0  0
 10  4  1  0  0  0  0
 10  9  2  0  0  0  0
M  END
>  <CHROM.1>
41.60948633,-31.04172904,-5.36746090,1.80028597,0.20368942,2.40163216

>  <Name>
1y26_lig

>  <RI>
224

>  <Rbt.Current_Directory>
/home/afrankz/demos/rdock_decoys_rna/rnas/1y26

>  <Rbt.Executable>
rbdock ($Id: //depot/dev/client3/rdock/2013.1/src/exe/rbdock.cxx#4 $)

>  <Rbt.Library>
libRbt.so (2013.1, Build901 2013/11/27)

>  <Rbt.Parameter_File>
/export/apps/rDock/src/rDock_2013.1_src/data/scripts/dock_solv.prm

>  <Rbt.Receptor>
prm/blind_docking_80.prm

>  <SCORE>
-12.424

>  <SCORE.INTER>
-12.424

>  <SCORE.INTER.CONST>
1

>  <SCORE.INTER.POLAR>
-0.954945

>  <SCORE.INTER.ROT>
0

>  <SCORE.INTER.SOLV>
8.32744

>  <SCORE.INTER.VDW>
-11.4753

>  <SCORE.INTER.norm>
-1.2424

>  <SCORE.INTRA>
0

>  <SCORE.INTRA.DIHEDRAL>
0

>  <SCORE.INTRA.DIHEDRAL.0>
0

>  <SCORE.INTRA.POLAR>
0

>  <SCORE.INTRA.POLAR.0>
0

>  <SCORE.INTRA.REPUL>
0

>  <SCORE.INTRA.REPUL.0>
0

>  <SCORE.INTRA.SOLV>
0

>  <SCORE.INTRA.SOLV.lig_0>
-16.9472

>  <SCORE.INTRA.VDW>
0

>  <SCORE.INTRA.VDW.0>
0

>  <SCORE.INTRA.norm>
0

>  <SCORE.RESTR>
0

>  <SCORE.RESTR.CAVITY>
0

>  <SCORE.RESTR.norm>
0

>  <SCORE.SYSTEM>
0

>  <SCORE.SYSTEM.CONST>
0

>  <SCORE.SYSTEM.DIHEDRAL>
0

>  <SCORE.SYSTEM.SOLV>
0

>  <SCORE.SYSTEM.norm>
0

>  <SCORE.heavy>
10

>  <SCORE.norm>
-1.2424

>  <RMSD>
27.684

$$$$
1y26_lig
 OpenBabel02141814133D
libRbt.so/2013.1/901 2013/11/27
 10 11  0  0  0  0  0  0  0  0999 V2000
   41.0590  -32.5425   -4.1932 N   0  0  0  0  0  0  0  0  0  0  0  0
   39.9654  -32.1744   -4.8653 C   0  0  0  0  0  0  0  0  0  0  0  0
   39.8360  -31.1998   -5.7633 N   0  0  0  0  0  0  0  0  0  0  0  0
   41.0181  -30.5776   -5.9724 C   0  0  0  0  0  0  0  0  0  0  0  0
   42.2253  -30.8571   -5.3632 C   0  0  0  0  0  0  0  0  0  0  0  0
   42.2193  -31.8947   -4.4263 C   0  0  0  0  0  0  0  0  0  0  0  0
   43.3159  -32.2375   -3.7697 N   0  0  0  0  0  0  0  0  0  0  0  0
   43.2338  -30.0274   -5.7953 N   0  0  0  0  0  0  0  0  0  0  0  0
   42.6262  -29.2709   -6.6908 C   0  0  0  0  0  0  0  0  0  0  0  0
   41.2834  -29.5467   -6.8339 N   0  0  0  0  0  0  0  0  0  0  0  0
  1  2  2  0  0  0  0
  2  3  1  0  0  0  0
  3  4  2  0  0  0  0
  5  4  1  0  0  0  0
  5  6  2  0  0  0  0
  6  1  1  0  0  0  0
  6  7  1  0  0  0  0
  8  5  1  0  0  0  0
  9  8  1  0  0  0  0
 10  4  1  0  0  0  0
 10  9  2  0  0  0  0
M  END
>  <CHROM.1>
41.67749719,-31.03399886,-5.36633573,1.77407981,0.22192809,2.40531669

>  <Name>
1y26_lig

>  <RI>
0

>  <Rbt.Current_Directory>
/home/afrankz/demos/rdock_decoys_rna/rnas/1y26

>  <Rbt.Executable>
rbdock ($Id: //depot/dev/client3/rdock/2013.1/src/exe/rbdock.cxx#4 $)

>  <Rbt.Library>
libRbt.so (2013.1, Build901 2013/11/27)

>  <Rbt.Parameter_File>
/export/apps/rDock/src/rDock_2013.1_src/data/scripts/dock_solv.prm

>  <Rbt.Receptor>
prm/blind_docking_100.prm

>  <SCORE>
-12.4109

>  <SCORE.INTER>
-12.4109

>  <SCORE.INTER.CONST>
1

>  <SCORE.INTER.POLAR>
-0.985449

>  <SCORE.INTER.ROT>
0

>  <SCORE.INTER.SOLV>
8.57733

>  <SCORE.INTER.VDW>
-11.4482

>  <SCORE.INTER.norm>
-1.24109

>  <SCORE.INTRA>
0

>  <SCORE.INTRA.DIHEDRAL>
0

>  <SCORE.INTRA.DIHEDRAL.0>
0

>  <SCORE.INTRA.POLAR>
0

>  <SCORE.INTRA.POLAR.0>
0

>  <SCORE.INTRA.REPUL>
0

>  <SCORE.INTRA.REPUL.0>
0

>  <SCORE.INTRA.SOLV>
0

>  <SCORE.INTRA.SOLV.lig_0>
-16.9472

>  <SCORE.INTRA.VDW>
0

>  <SCORE.INTRA.VDW.0>
0

>  <SCORE.INTRA.norm>
0

>  <SCORE.RESTR>
0

>  <SCORE.RESTR.CAVITY>
0

>  <SCORE.RESTR.norm>
0

>  <SCORE.SYSTEM>
0

>  <SCORE.SYSTEM.CONST>
0

>  <SCORE.SYSTEM.DIHEDRAL>
0

>  <SCORE.SYSTEM.SOLV>
0

>  <SCORE.SYSTEM.norm>
0

>  <SCORE.heavy>
10

>  <SCORE.norm>
-1.24109

>  <RMSD>
27.733

$$$$
1y26_lig
 OpenBabel02141814133D
libRbt.so/2013.1/901 2013/11/27
 10 11  0  0  0  0  0  0  0  0999 V2000
   45.6206  -17.1546  -11.6365 N   0  0  0  0  0  0  0  0  0  0  0  0
   44.8629  -16.2954  -10.9503 C   0  0  0  0  0  0  0  0  0  0  0  0
   43.6356  -16.4786  -10.4674 N   0  0  0  0  0  0  0  0  0  0  0  0
   43.1949  -17.7288  -10.7340 C   0  0  0  0  0  0  0  0  0  0  0  0
   43.8690  -18.7211  -11.4176 C   0  0  0  0  0  0  0  0  0  0  0  0
   45.1443  -18.3919  -11.8865 C   0  0  0  0  0  0  0  0  0  0  0  0
   45.8738  -19.2600  -12.5687 N   0  0  0  0  0  0  0  0  0  0  0  0
   43.1309  -19.8769  -11.5244 N   0  0  0  0  0  0  0  0  0  0  0  0
   42.0230  -19.5773  -10.8714 C   0  0  0  0  0  0  0  0  0  0  0  0
   41.9964  -18.2895  -10.3812 N   0  0  0  0  0  0  0  0  0  0  0  0
  1  2  2  0  0  0  0
  2  3  1  0  0  0  0
  3  4  2  0  0  0  0
  5  4  1  0  0  0  0
  5  6  2  0  0  0  0
  6  1  1  0  0  0  0
  6  7  1  0  0  0  0
  8  5  1  0  0  0  0
  9  8  1  0  0  0  0
 10  4  1  0  0  0  0
 10  9  2  0  0  0  0
M  END
>  <CHROM.1>
43.93642127,-18.17633729,-11.24415287,0.29937281,0.41160550,0.36440139

>  <Name>
1y26_lig

>  <RI>
0

>  <Rbt.Current_Directory>
/home/afrankz/demos/rdock_decoys_rna/rnas/1y26

>  <Rbt.Executable>
rbdock ($Id: //depot/dev/client3/rdock/2013.1/src/exe/rbdock.cxx#4 $)

>  <Rbt.Library>
libRbt.so (2013.1, Build901 2013/11/27)

>  <Rbt.Parameter_File>
/export/apps/rDock/src/rDock_2013.1_src/data/scripts/dock_solv.prm

>  <Rbt.Receptor>
prm/blind_docking_100.prm

>  <SCORE>
-9.45085

>  <SCORE.INTER>
-9.45085

>  <SCORE.INTER.CONST>
1

>  <SCORE.INTER.POLAR>
-0.700496

>  <SCORE.INTER.ROT>
0

>  <SCORE.INTER.SOLV>
5.14708

>  <SCORE.INTER.VDW>
-9.28127

>  <SCORE.INTER.norm>
-0.945085

>  <SCORE.INTRA>
0

>  <SCORE.INTRA.DIHEDRAL>
0

>  <SCORE.INTRA.DIHEDRAL.0>
0

>  <SCORE.INTRA.POLAR>
0

>  <SCORE.INTRA.POLAR.0>
0

>  <SCORE.INTRA.REPUL>
0

>  <SCORE.INTRA.REPUL.0>
0

>  <SCORE.INTRA.SOLV>
0

>  <SCORE.INTRA.SOLV.lig_0>
-16.9472

>  <SCORE.INTRA.VDW>
0

>  <SCORE.INTRA.VDW.0>
0

>  <SCORE.INTRA.norm>
0

>  <SCORE.RESTR>
0

>  <SCORE.RESTR.CAVITY>
0

>  <SCORE.RESTR.norm>
0

>  <SCORE.SYSTEM>
0

>  <SCORE.SYSTEM.CONST>
0

>  <SCORE.SYSTEM.DIHEDRAL>
0

>  <SCORE.SYSTEM.SOLV>
0

>  <SCORE.SYSTEM.norm>
0

>  <SCORE.heavy>
10

>  <SCORE.norm>
-0.945085

>  <RMSD>
29.107

$$$$
1y26_lig
 OpenBabel02141814133D
libRbt.so/2013.1/901 2013/11/27
 10 11  0  0  0  0  0  0  0  0999 V2000
   47.1743  -23.3351   -1.4584 N   0  0  0  0  0  0  0  0  0  0  0  0
   46.4629  -23.9332   -0.4995 C   0  0  0  0  0  0  0  0  0  0  0  0
   46.5833  -25.1746   -0.0333 N   0  0  0  0  0  0  0  0  0  0  0  0
   47.5941  -25.8254   -0.6521 C   0  0  0  0  0  0  0  0  0  0  0  0
   48.4168  -25.3328   -1.6454 C   0  0  0  0  0  0  0  0  0  0  0  0
   48.1724  -24.0188   -2.0555 C   0  0  0  0  0  0  0  0  0  0  0  0
   48.8888  -23.4501   -3.0118 N   0  0  0  0  0  0  0  0  0  0  0  0
   49.3408  -26.2605   -2.0674 N   0  0  0  0  0  0  0  0  0  0  0  0
   49.0836  -27.3007   -1.2958 C   0  0  0  0  0  0  0  0  0  0  0  0
   48.0309  -27.1039   -0.4283 N   0  0  0  0  0  0  0  0  0  0  0  0
  1  2  2  0  0  0  0
  2  3  1  0  0  0  0
  3  4  2  0  0  0  0
  5  4  1  0  0  0  0
  5  6  2  0  0  0  0
  6  1  1  0  0  0  0
  6  7  1  0  0  0  0
  8  5  1  0  0  0  0
  9  8  1  0  0  0  0
 10  4  1  0  0  0  0
 10  9  2  0  0  0  0
M  END
>  <CHROM.1>
47.97388601,-25.17206891,-1.31482058,2.00029272,0.69691758,-0.45285837

>  <Name>
1y26_lig

>  <RI>
0

>  <Rbt.Current_Directory>
/home/afrankz/demos/rdock_decoys_rna/rnas/1y26

>  <Rbt.Executable>
rbdock ($Id: //depot/dev/client3/rdock/2013.1/src/exe/rbdock.cxx#4 $)

>  <Rbt.Library>
libRbt.so (2013.1, Build901 2013/11/27)

>  <Rbt.Parameter_File>
/export/apps/rDock/src/rDock_2013.1_src/data/scripts/dock_solv.prm

>  <Rbt.Receptor>
prm/blind_docking_100.prm

>  <SCORE>
-3.33602

>  <SCORE.INTER>
-3.52809

>  <SCORE.INTER.CONST>
1

>  <SCORE.INTER.POLAR>
-0.388885

>  <SCORE.INTER.ROT>
0

>  <SCORE.INTER.SOLV>
9.50585

>  <SCORE.INTER.VDW>
-7.82439

>  <SCORE.INTER.norm>
-0.352809

>  <SCORE.INTRA>
0

>  <SCORE.INTRA.DIHEDRAL>
0

>  <SCORE.INTRA.DIHEDRAL.0>
0

>  <SCORE.INTRA.POLAR>
0

>  <SCORE.INTRA.POLAR.0>
0

>  <SCORE.INTRA.REPUL>
0

>  <SCORE.INTRA.REPUL.0>
0

>  <SCORE.INTRA.SOLV>
0

>  <SCORE.INTRA.SOLV.lig_0>
-16.9472

>  <SCORE.INTRA.VDW>
0

>  <SCORE.INTRA.VDW.0>
0

>  <SCORE.INTRA.norm>
0

>  <SCORE.RESTR>
0.192071

>  <SCORE.RESTR.CAVITY>
0.192071

>  <SCORE.RESTR.norm>
0.0192071

>  <SCORE.SYSTEM>
0

>  <SCORE.SYSTEM.CONST>
0

>  <SCORE.SYSTEM.DIHEDRAL>
0

>  <SCORE.SYSTEM.SOLV>
0

>  <SCORE.SYSTEM.norm>
0

>  <SCORE.heavy>
10

>  <SCORE.norm>
-0.333602

>  <RMSD>
30.101

$$$$
1y26_lig
 OpenBabel02141814133D
libRbt.so/2013.1/901 2013/11/27
 10 11  0  0  0  0  0  0  0  0999 V2000
   52.7641  -18.7451  -10.2930 N   0  0  0  0  0  0  0  0  0  0  0  0
   54.0970  -18.7062  -10.2223 C   0  0  0  0  0  0  0  0  0  0  0  0
   54.8596  -18.3174   -9.2024 N   0  0  0  0  0  0  0  0  0  0  0  0
   54.1002  -17.9581   -8.1429 C   0  0  0  0  0  0  0  0  0  0  0  0
   52.7216  -17.9594   -8.0680 C   0  0  0  0  0  0  0  0  0  0  0  0
   52.0406  -18.3748   -9.2162 C   0  0  0  0  0  0  0  0  0  0  0  0
   50.7183  -18.3999   -9.2627 N   0  0  0  0  0  0  0  0  0  0  0  0
   52.2635  -17.5250   -6.8459 N   0  0  0  0  0  0  0  0  0  0  0  0
   53.3805  -17.2944   -6.1805 C   0  0  0  0  0  0  0  0  0  0  0  0
   54.5239  -17.5254   -6.9145 N   0  0  0  0  0  0  0  0  0  0  0  0
  1  2  2  0  0  0  0
  2  3  1  0  0  0  0
  3  4  2  0  0  0  0
  5  4  1  0  0  0  0
  5  6  2  0  0  0  0
  6  1  1  0  0  0  0
  6  7  1  0  0  0  0
  8  5  1  0  0  0  0
  9  8  1  0  0  0  0
 10  4  1  0  0  0  0
 10  9  2  0  0  0  0
M  END
>  <CHROM.1>
53.14679631,-18.08101159,-8.43647905,-1.88091443,0.01282545,1.23182856

>  <Name>
1y26_lig

>  <RI>
0

>  <Rbt.Current_Directory>
/home/afrankz/demos/rdock_decoys_rna/rnas/1y26

>  <Rbt.Executable>
rbdock ($Id: //depot/dev/client3/rdock/2013.1/src/exe/rbdock.cxx#4 $)

>  <Rbt.Library>
libRbt.so (2013.1, Build901 2013/11/27)

>  <Rbt.Parameter_File>
/export/apps/rDock/src/rDock_2013.1_src/data/scripts/dock_solv.prm

>  <Rbt.Receptor>
prm/blind_docking_100.prm

>  <SCORE>
-3.27177

>  <SCORE.INTER>
-3.42527

>  <SCORE.INTER.CONST>
1

>  <SCORE.INTER.POLAR>
-0.45072

>  <SCORE.INTER.ROT>
0

>  <SCORE.INTER.SOLV>
7.10604

>  <SCORE.INTER.VDW>
-6.74979

>  <SCORE.INTER.norm>
-0.342527

>  <SCORE.INTRA>
0

>  <SCORE.INTRA.DIHEDRAL>
0

>  <SCORE.INTRA.DIHEDRAL.0>
0

>  <SCORE.INTRA.POLAR>
0

>  <SCORE.INTRA.POLAR.0>
0

>  <SCORE.INTRA.REPUL>
0

>  <SCORE.INTRA.REPUL.0>
0

>  <SCORE.INTRA.SOLV>
0

>  <SCORE.INTRA.SOLV.lig_0>
-16.9472

>  <SCORE.INTRA.VDW>
0

>  <SCORE.INTRA.VDW.0>
0

>  <SCORE.INTRA.norm>
0

>  <SCORE.RESTR>
0.153501

>  <SCORE.RESTR.CAVITY>
0.153501

>  <SCORE.RESTR.norm>
0.0153501

>  <SCORE.SYSTEM>
0

>  <SCORE.SYSTEM.CONST>
0

>  <SCORE.SYSTEM.DIHEDRAL>
0

>  <SCORE.SYSTEM.SOLV>
0

>  <SCORE.SYSTEM.norm>
0

>  <SCORE.heavy>
10

>  <SCORE.norm>
-0.327177

>  <RMSD>
36.142

$$$$
1y26_lig
 OpenBabel02141814133D
libRbt.so/2013.1/901 2013/11/27
 10 11  0  0  0  0  0  0  0  0999 V2000
   57.3992  -29.1245   -5.6081 N   0  0  0  0  0  0  0  0  0  0  0  0
   57.9070  -29.4298   -4.4114 C   0  0  0  0  0  0  0  0  0  0  0  0
   57.3606  -29.2481   -3.2108 N   0  0  0  0  0  0  0  0  0  0  0  0
   56.1281  -28.7031   -3.3202 C   0  0  0  0  0  0  0  0  0  0  0  0
   55.4745  -28.3493   -4.4838 C   0  0  0  0  0  0  0  0  0  0  0  0
   56.1676  -28.5780   -5.6762 C   0  0  0  0  0  0  0  0  0  0  0  0
   55.6442  -28.2620   -6.8498 N   0  0  0  0  0  0  0  0  0  0  0  0
   54.2327  -27.8088   -4.2428 N   0  0  0  0  0  0  0  0  0  0  0  0
   54.1370  -27.8719   -2.9274 C   0  0  0  0  0  0  0  0  0  0  0  0
   55.2555  -28.3911   -2.3118 N   0  0  0  0  0  0  0  0  0  0  0  0
  1  2  2  0  0  0  0
  2  3  1  0  0  0  0
  3  4  2  0  0  0  0
  5  4  1  0  0  0  0
  5  6  2  0  0  0  0
  6  1  1  0  0  0  0
  6  7  1  0  0  0  0
  8  5  1  0  0  0  0
  9  8  1  0  0  0  0
 10  4  1  0  0  0  0
 10  9  2  0  0  0  0
M  END
>  <CHROM.1>
55.97201994,-28.57705825,-4.30517297,-0.79948785,-0.41354615,1.63565004

>  <Name>
1y26_lig

>  <RI>
0

>  <Rbt.Current_Directory>
/home/afrankz/demos/rdock_decoys_rna/rnas/1y26

>  <Rbt.Executable>
rbdock ($Id: //depot/dev/client3/rdock/2013.1/src/exe/rbdock.cxx#4 $)

>  <Rbt.Library>
libRbt.so (2013.1, Build901 2013/11/27)

>  <Rbt.Parameter_File>
/export/apps/rDock/src/rDock_2013.1_src/data/scripts/dock_solv.prm

>  <Rbt.Receptor>
prm/blind_docking_100.prm

>  <SCORE>
2.00526

>  <SCORE.INTER>
-0.197759

>  <SCORE.INTER.CONST>
1

>  <SCORE.INTER.POLAR>
0

>  <SCORE.INTER.ROT>
0

>  <SCORE.INTER.SOLV>
10.3616

>  <SCORE.INTER.VDW>
-7.1857

>  <SCORE.INTER.norm>
-0.0197759

>  <SCORE.INTRA>
0

>  <SCORE.INTRA.DIHEDRAL>
0

>  <SCORE.INTRA.DIHEDRAL.0>
0

>  <SCORE.INTRA.POLAR>
0

>  <SCORE.INTRA.POLAR.0>
0

>  <SCORE.INTRA.REPUL>
0

>  <SCORE.INTRA.REPUL.0>
0

>  <SCORE.INTRA.SOLV>
0

>  <SCORE.INTRA.SOLV.lig_0>
-16.9472

>  <SCORE.INTRA.VDW>
0

>  <SCORE.INTRA.VDW.0>
0

>  <SCORE.INTRA.norm>
0

>  <SCORE.RESTR>
2.20302

>  <SCORE.RESTR.CAVITY>
2.20302

>  <SCORE.RESTR.norm>
0.220302

>  <SCORE.SYSTEM>
0

>  <SCORE.SYSTEM.CONST>
0

>  <SCORE.SYSTEM.DIHEDRAL>
0

>  <SCORE.SYSTEM.SOLV>
0

>  <SCORE.SYSTEM.norm>
0

>  <SCORE.heavy>
10

>  <SCORE.norm>
0.200526

>  <RMSD>
39.138

$$$$
1y26_lig
 OpenBabel02141814133D
libRbt.so/2013.1/901 2013/11/27
 10 11  0  0  0  0  0  0  0  0999 V2000
   57.3887  -31.0090   -4.8650 N   0  0  0  0  0  0  0  0  0  0  0  0
   57.7816  -29.7979   -5.2676 C   0  0  0  0  0  0  0  0  0  0  0  0
   57.1575  -28.6321   -5.1115 N   0  0  0  0  0  0  0  0  0  0  0  0
   56.0021  -28.7923   -4.4275 C   0  0  0  0  0  0  0  0  0  0  0  0
   55.4794  -29.9741   -3.9414 C   0  0  0  0  0  0  0  0  0  0  0  0
   56.2275  -31.1289   -4.1887 C   0  0  0  0  0  0  0  0  0  0  0  0
   55.8139  -32.3187   -3.7832 N   0  0  0  0  0  0  0  0  0  0  0  0
   54.2774  -29.7892   -3.2985 N   0  0  0  0  0  0  0  0  0  0  0  0
   54.1022  -28.4828   -3.3770 C   0  0  0  0  0  0  0  0  0  0  0  0
   55.1042  -27.8264   -4.0585 N   0  0  0  0  0  0  0  0  0  0  0  0
  1  2  2  0  0  0  0
  2  3  1  0  0  0  0
  3  4  2  0  0  0  0
  5  4  1  0  0  0  0
  5  6  2  0  0  0  0
  6  1  1  0  0  0  0
  6  7  1  0  0  0  0
  8  5  1  0  0  0  0
  9  8  1  0  0  0  0
 10  4  1  0  0  0  0
 10  9  2  0  0  0  0
M  END
>  <CHROM.1>
55.93470986,-29.77603364,-4.23263090,-0.71215856,0.51103678,-0.15099011

>  <Name>
1y26_lig

>  <RI>
0

>  <Rbt.Current_Directory>
/home/afrankz/demos/rdock_decoys_rna/rnas/1y26

>  <Rbt.Executable>
rbdock ($Id: //depot/dev/client3/rdock/2013.1/src/exe/rbdock.cxx#4 $)

>  <Rbt.Library>
libRbt.so (2013.1, Build901 2013/11/27)

>  <Rbt.Parameter_File>
/export/apps/rDock/src/rDock_2013.1_src/data/scripts/dock_solv.prm

>  <Rbt.Receptor>
prm/blind_docking_100.prm

>  <SCORE>
-0.168887

>  <SCORE.INTER>
-2.6715

>  <SCORE.INTER.CONST>
1

>  <SCORE.INTER.POLAR>
0

>  <SCORE.INTER.ROT>
0

>  <SCORE.INTER.SOLV>
7.62837

>  <SCORE.INTER.VDW>
-7.92379

>  <SCORE.INTER.norm>
-0.26715

>  <SCORE.INTRA>
0

>  <SCORE.INTRA.DIHEDRAL>
0

>  <SCORE.INTRA.DIHEDRAL.0>
0

>  <SCORE.INTRA.POLAR>
0

>  <SCORE.INTRA.POLAR.0>
0

>  <SCORE.INTRA.REPUL>
0

>  <SCORE.INTRA.REPUL.0>
0

>  <SCORE.INTRA.SOLV>
0

>  <SCORE.INTRA.SOLV.lig_0>
-16.9472

>  <SCORE.INTRA.VDW>
0

>  <SCORE.INTRA.VDW.0>
0

>  <SCORE.INTRA.norm>
0

>  <SCORE.RESTR>
2.50261

>  <SCORE.RESTR.CAVITY>
2.50261

>  <SCORE.RESTR.norm>
0.250261

>  <SCORE.SYSTEM>
0

>  <SCORE.SYSTEM.CONST>
0

>  <SCORE.SYSTEM.DIHEDRAL>
0

>  <SCORE.SYSTEM.SOLV>
0

>  <SCORE.SYSTEM.norm>
0

>  <SCORE.heavy>
10

>  <SCORE.norm>
-0.0168887

>  <RMSD>
39.468

$$$$
