1tob
 OpenBabel11021811413D
libRbt.so/2013.1/901 2013/11/27
 32 34  0  0  0  0  0  0  0  0999 V2000
   -2.2827    5.6166    3.0340 C   0  0  2  0  0  0  0  0  0  0  0  0
   -1.5501    4.8353    1.9458 C   0  0  1  0  0  0  0  0  0  0  0  0
   -1.4157    3.3774    2.3636 C   0  0  2  0  0  0  0  0  0  0  0  0
   -0.7231    3.3014    3.7190 C   0  0  1  0  0  0  0  0  0  0  0  0
   -1.4889    4.1383    4.7401 C   0  0  1  0  0  0  0  0  0  0  0  0
   -0.8055    4.1654    6.0931 C   0  0  0  0  0  0  0  0  0  0  0  0
   -2.2734    4.9191    0.7261 O   0  0  0  0  0  0  0  0  0  0  0  0
   -0.7027    2.5906    1.3340 N   0  3  0  0  0  0  0  0  0  0  0  0
   -0.6549    1.9484    4.1489 O   0  0  0  0  0  0  0  0  0  0  0  0
   -1.5902    5.5045    4.2838 O   0  0  0  0  0  0  0  0  0  0  0  0
   -1.5321    4.9529    7.0258 O   0  0  0  0  0  0  0  0  0  0  0  0
   -5.5809    4.7960    1.9019 C   0  0  2  0  0  0  0  0  0  0  0  0
   -6.6600    5.5286    1.1163 C   0  0  0  0  0  0  0  0  0  0  0  0
   -7.3790    6.5391    2.0104 C   0  0  1  0  0  0  0  0  0  0  0  0
   -6.3741    7.5535    2.5518 C   0  0  2  0  0  0  0  0  0  0  0  0
   -5.2771    6.8340    3.3380 C   0  0  1  0  0  0  0  0  0  0  0  0
   -4.5818    5.8045    2.4478 C   0  0  1  0  0  0  0  0  0  0  0  0
   -4.8596    3.8402    1.0333 N   0  3  0  0  0  0  0  0  0  0  0  0
   -8.4839    7.1853    1.2556 N   0  3  0  0  0  0  0  0  0  0  0  0
   -4.3289    7.7785    3.8165 O   0  0  0  0  0  0  0  0  0  0  0  0
   -3.5622    5.1197    3.1977 O   0  0  0  0  0  0  0  0  0  0  0  0
   -6.4376    9.7567    3.5034 C   0  0  1  0  0  0  0  0  0  0  0  0
   -6.6128   10.3152    4.9167 C   0  0  1  0  0  0  0  0  0  0  0  0
   -8.0878   10.5326    5.2187 C   0  0  0  0  0  0  0  0  0  0  0  0
   -8.6916   11.4273    4.1486 C   0  0  1  0  0  0  0  0  0  0  0  0
   -8.4562   10.8131    2.7691 C   0  0  1  0  0  0  0  0  0  0  0  0
   -8.9830   11.6844    1.6433 C   0  0  0  0  0  0  0  0  0  0  0  0
   -5.9634    9.4398    5.9209 N   0  3  0  0  0  0  0  0  0  0  0  0
   -8.7318   11.0697    0.3178 N   0  3  0  0  0  0  0  0  0  0  0  0
   -7.0405    8.5101    3.4010 O   0  0  0  0  0  0  0  0  0  0  0  0
  -10.0843   11.5853    4.3773 O   0  0  0  0  0  0  0  0  0  0  0  0
   -7.0421   10.6296    2.5412 O   0  0  0  0  0  0  0  0  0  0  0  0
  1  2  1  0  0  0  0
  1 10  1  0  0  0  0
  1 21  1  1  0  0  0
  2  3  1  0  0  0  0
  2  7  1  6  0  0  0
  3  4  1  0  0  0  0
  3  8  1  6  0  0  0
  4  5  1  0  0  0  0
  4  9  1  1  0  0  0
  5  6  1  1  0  0  0
  5 10  1  0  0  0  0
  6 11  1  0  0  0  0
 12 13  1  0  0  0  0
 12 17  1  0  0  0  0
 12 18  1  6  0  0  0
 13 14  1  0  0  0  0
 14 15  1  0  0  0  0
 14 19  1  6  0  0  0
 15 16  1  0  0  0  0
 15 30  1  1  0  0  0
 16 17  1  0  0  0  0
 16 20  1  6  0  0  0
 17 21  1  1  0  0  0
 22 23  1  0  0  0  0
 22 30  1  1  0  0  0
 22 32  1  0  0  0  0
 23 24  1  0  0  0  0
 23 28  1  1  0  0  0
 24 25  1  0  0  0  0
 25 26  1  0  0  0  0
 25 31  1  1  0  0  0
 26 27  1  6  0  0  0
 26 32  1  0  0  0  0
 27 29  1  0  0  0  0
M  CHG  5   8   1  18   1  19   1  28   1  29   1
M  END
>  <CHROM.1>
-94.46544748,-144.31372819,-90.04705321,173.78513109,179.79807369,-75.51313550
46.36927153,-174.38991680,-153.80693597,-175.25390279,140.81969228,-144.59189114
24.70321746,172.49607159,179.55394780,-46.53206020,-4.93182729,6.92392260
3.14134626,-0.36298375,-0.70479199,0.99032000

>  <Name>
1tob

>  <RI>
0

>  <Rbt.Current_Directory>
/home/itssahil/PROJECTS/Mol_Feturizer/New_Systems/rnas/1tob

>  <Rbt.Executable>
rbdock ($Id: //depot/dev/client3/rdock/2013.1/src/exe/rbdock.cxx#4 $)

>  <Rbt.Library>
libRbt.so (2013.1, Build901 2013/11/27)

>  <Rbt.Parameter_File>
/export/apps/rDock/src/rDock_2013.1_src/data/scripts/dock_solv.prm

>  <Rbt.Receptor>
prm/pocket_docking_2.prm

>  <SCORE>
-51.2785

>  <SCORE.INTER>
-53.0092

>  <SCORE.INTER.CONST>
1

>  <SCORE.INTER.POLAR>
-8.53577

>  <SCORE.INTER.ROT>
6

>  <SCORE.INTER.SOLV>
31.3171

>  <SCORE.INTER.VDW>
-24.9259

>  <SCORE.INTER.norm>
-1.65654

>  <SCORE.INTRA>
1.31212

>  <SCORE.INTRA.DIHEDRAL>
5.69168

>  <SCORE.INTRA.DIHEDRAL.0>
22.9177

>  <SCORE.INTRA.POLAR>
-0.785908

>  <SCORE.INTRA.POLAR.0>
-0.311208

>  <SCORE.INTRA.REPUL>
0

>  <SCORE.INTRA.REPUL.0>
0

>  <SCORE.INTRA.SOLV>
0.528408

>  <SCORE.INTRA.SOLV.lig_0>
-132.657

>  <SCORE.INTRA.VDW>
0.874164

>  <SCORE.INTRA.VDW.0>
-4.68867

>  <SCORE.INTRA.norm>
0.0410037

>  <SCORE.RESTR>
0.418589

>  <SCORE.RESTR.CAVITY>
0.418589

>  <SCORE.RESTR.norm>
0.0130809

>  <SCORE.SYSTEM>
0

>  <SCORE.SYSTEM.CONST>
0

>  <SCORE.SYSTEM.DIHEDRAL>
0

>  <SCORE.SYSTEM.SOLV>
0

>  <SCORE.SYSTEM.norm>
0

>  <SCORE.heavy>
32

>  <SCORE.norm>
-1.60245

>  <RMSD>
0.596

$$$$
1tob
 OpenBabel11021811413D
libRbt.so/2013.1/901 2013/11/27
 32 34  0  0  0  0  0  0  0  0999 V2000
   -2.2269    5.7404    3.0354 C   0  0  2  0  0  0  0  0  0  0  0  0
   -1.1630    5.1116    2.1388 C   0  0  1  0  0  0  0  0  0  0  0  0
   -0.8186    3.7196    2.6507 C   0  0  2  0  0  0  0  0  0  0  0  0
   -0.3894    3.8091    4.1102 C   0  0  1  0  0  0  0  0  0  0  0  0
   -1.4839    4.4845    4.9320 C   0  0  1  0  0  0  0  0  0  0  0  0
   -1.0837    4.6729    6.3821 C   0  0  0  0  0  0  0  0  0  0  0  0
   -1.6486    5.0253    0.8068 O   0  0  0  0  0  0  0  0  0  0  0  0
    0.2167    3.0822    1.8085 N   0  3  0  0  0  0  0  0  0  0  0  0
   -0.1320    2.5063    4.6165 O   0  0  0  0  0  0  0  0  0  0  0  0
   -1.7709    5.7931    4.3931 O   0  0  0  0  0  0  0  0  0  0  0  0
   -0.9529    3.4263    7.0505 O   0  0  0  0  0  0  0  0  0  0  0  0
   -5.3866    4.4718    1.7306 C   0  0  2  0  0  0  0  0  0  0  0  0
   -6.5197    5.0925    0.9249 C   0  0  0  0  0  0  0  0  0  0  0  0
   -7.3033    6.0864    1.7827 C   0  0  1  0  0  0  0  0  0  0  0  0
   -6.3698    7.1912    2.2725 C   0  0  2  0  0  0  0  0  0  0  0  0
   -5.2197    6.5848    3.0780 C   0  0  1  0  0  0  0  0  0  0  0  0
   -4.4584    5.5705    2.2252 C   0  0  1  0  0  0  0  0  0  0  0  0
   -4.6044    3.5337    0.8960 N   0  3  0  0  0  0  0  0  0  0  0  0
   -8.4558    6.6205    1.0117 N   0  3  0  0  0  0  0  0  0  0  0  0
   -4.3381    7.6133    3.5084 O   0  0  0  0  0  0  0  0  0  0  0  0
   -3.3882    4.9917    2.9937 O   0  0  0  0  0  0  0  0  0  0  0  0
   -6.5709    9.4164    3.1511 C   0  0  1  0  0  0  0  0  0  0  0  0
   -6.9038   10.0588    4.4988 C   0  0  1  0  0  0  0  0  0  0  0  0
   -8.4095   10.2113    4.6528 C   0  0  0  0  0  0  0  0  0  0  0  0
   -8.9571   10.9948    3.4710 C   0  0  1  0  0  0  0  0  0  0  0  0
   -8.5646   10.3026    2.1663 C   0  0  1  0  0  0  0  0  0  0  0  0
   -9.0292   11.0634    0.9377 C   0  0  0  0  0  0  0  0  0  0  0  0
   -6.3058    9.2927    5.6177 N   0  3  0  0  0  0  0  0  0  0  0  0
   -8.3263   12.3618    0.8050 N   0  3  0  0  0  0  0  0  0  0  0  0
   -7.0974    8.1331    3.0872 O   0  0  0  0  0  0  0  0  0  0  0  0
  -10.3712   11.0878    3.5638 O   0  0  0  0  0  0  0  0  0  0  0  0
   -7.1279   10.1855    2.0781 O   0  0  0  0  0  0  0  0  0  0  0  0
  1  2  1  0  0  0  0
  1 10  1  0  0  0  0
  1 21  1  1  0  0  0
  2  3  1  0  0  0  0
  2  7  1  6  0  0  0
  3  4  1  0  0  0  0
  3  8  1  6  0  0  0
  4  5  1  0  0  0  0
  4  9  1  1  0  0  0
  5  6  1  1  0  0  0
  5 10  1  0  0  0  0
  6 11  1  0  0  0  0
 12 13  1  0  0  0  0
 12 17  1  0  0  0  0
 12 18  1  6  0  0  0
 13 14  1  0  0  0  0
 14 15  1  0  0  0  0
 14 19  1  6  0  0  0
 15 16  1  0  0  0  0
 15 30  1  1  0  0  0
 16 17  1  0  0  0  0
 16 20  1  6  0  0  0
 17 21  1  1  0  0  0
 22 23  1  0  0  0  0
 22 30  1  1  0  0  0
 22 32  1  0  0  0  0
 23 24  1  0  0  0  0
 23 28  1  1  0  0  0
 24 25  1  0  0  0  0
 25 26  1  0  0  0  0
 25 31  1  1  0  0  0
 26 27  1  6  0  0  0
 26 32  1  0  0  0  0
 27 29  1  0  0  0  0
M  CHG  5   8   1  18   1  19   1  28   1  29   1
M  END
>  <CHROM.1>
-105.29974043,-68.98918237,85.18751299,63.06838236,-66.72676139,51.62825708
55.37349348,68.86330335,-154.89170072,-59.04248979,154.68434754,-149.96204894
-49.42984458,-59.37505487,66.69248837,-56.47604890,-4.82637047,6.80286608
3.00625264,-0.25456253,-0.68512129,1.01034653

>  <Name>
1tob

>  <RI>
0

>  <Rbt.Current_Directory>
/home/itssahil/PROJECTS/Mol_Feturizer/New_Systems/rnas/1tob

>  <Rbt.Executable>
rbdock ($Id: //depot/dev/client3/rdock/2013.1/src/exe/rbdock.cxx#4 $)

>  <Rbt.Library>
libRbt.so (2013.1, Build901 2013/11/27)

>  <Rbt.Parameter_File>
/export/apps/rDock/src/rDock_2013.1_src/data/scripts/dock_solv.prm

>  <Rbt.Receptor>
prm/pocket_docking_2.prm

>  <SCORE>
-48.5117

>  <SCORE.INTER>
-45.4325

>  <SCORE.INTER.CONST>
1

>  <SCORE.INTER.POLAR>
-7.21763

>  <SCORE.INTER.ROT>
6

>  <SCORE.INTER.SOLV>
28.1507

>  <SCORE.INTER.VDW>
-23.2131

>  <SCORE.INTER.norm>
-1.41977

>  <SCORE.INTRA>
-3.45905

>  <SCORE.INTRA.DIHEDRAL>
-4.76785

>  <SCORE.INTRA.DIHEDRAL.0>
22.9177

>  <SCORE.INTRA.POLAR>
-0.331008

>  <SCORE.INTRA.POLAR.0>
-0.311208

>  <SCORE.INTRA.REPUL>
0

>  <SCORE.INTRA.REPUL.0>
0

>  <SCORE.INTRA.SOLV>
-1.10257

>  <SCORE.INTRA.SOLV.lig_0>
-132.657

>  <SCORE.INTRA.VDW>
0.60159

>  <SCORE.INTRA.VDW.0>
-4.68867

>  <SCORE.INTRA.norm>
-0.108095

>  <SCORE.RESTR>
0.37984

>  <SCORE.RESTR.CAVITY>
0.37984

>  <SCORE.RESTR.norm>
0.01187

>  <SCORE.SYSTEM>
0

>  <SCORE.SYSTEM.CONST>
0

>  <SCORE.SYSTEM.DIHEDRAL>
0

>  <SCORE.SYSTEM.SOLV>
0

>  <SCORE.SYSTEM.norm>
0

>  <SCORE.heavy>
32

>  <SCORE.norm>
-1.51599

>  <RMSD>
0.599

$$$$
1tob
 OpenBabel11021811413D
libRbt.so/2013.1/901 2013/11/27
 32 34  0  0  0  0  0  0  0  0999 V2000
   -2.1770    5.2658    3.0082 C   0  0  2  0  0  0  0  0  0  0  0  0
   -1.3664    4.2677    2.1848 C   0  0  1  0  0  0  0  0  0  0  0  0
   -1.3074    2.9314    2.9121 C   0  0  2  0  0  0  0  0  0  0  0  0
   -0.7454    3.1422    4.3130 C   0  0  1  0  0  0  0  0  0  0  0  0
   -1.5814    4.1805    5.0561 C   0  0  1  0  0  0  0  0  0  0  0  0
   -1.0258    4.4915    6.4320 C   0  0  0  0  0  0  0  0  0  0  0  0
   -1.9714    4.0936    0.9115 O   0  0  0  0  0  0  0  0  0  0  0  0
   -0.5219    1.9404    2.1450 N   0  3  0  0  0  0  0  0  0  0  0  0
   -0.7508    1.9112    5.0234 O   0  0  0  0  0  0  0  0  0  0  0  0
   -1.6062    5.4189    4.3139 O   0  0  0  0  0  0  0  0  0  0  0  0
   -1.8773    5.3749    7.1480 O   0  0  0  0  0  0  0  0  0  0  0  0
   -5.4750    4.6167    1.7973 C   0  0  2  0  0  0  0  0  0  0  0  0
   -6.5153    5.4161    1.0247 C   0  0  0  0  0  0  0  0  0  0  0  0
   -7.2263    6.4034    1.9505 C   0  0  1  0  0  0  0  0  0  0  0  0
   -6.2065    7.3619    2.5612 C   0  0  2  0  0  0  0  0  0  0  0  0
   -5.1478    6.5751    3.3354 C   0  0  1  0  0  0  0  0  0  0  0  0
   -4.4611    5.5692    2.4120 C   0  0  1  0  0  0  0  0  0  0  0  0
   -4.7607    3.6826    0.8996 N   0  3  0  0  0  0  0  0  0  0  0  0
   -8.2956    7.1158    1.2040 N   0  3  0  0  0  0  0  0  0  0  0  0
   -4.1851    7.4684    3.8786 O   0  0  0  0  0  0  0  0  0  0  0  0
   -3.4781    4.8210    3.1500 O   0  0  0  0  0  0  0  0  0  0  0  0
   -6.3151    9.5696    3.4983 C   0  0  1  0  0  0  0  0  0  0  0  0
   -6.5813   10.2002    4.8663 C   0  0  1  0  0  0  0  0  0  0  0  0
   -8.0767   10.3752    5.0843 C   0  0  0  0  0  0  0  0  0  0  0  0
   -8.6591   11.1828    3.9358 C   0  0  1  0  0  0  0  0  0  0  0  0
   -8.3324   10.5009    2.6077 C   0  0  1  0  0  0  0  0  0  0  0  0
   -8.8343   11.2849    1.4087 C   0  0  0  0  0  0  0  0  0  0  0  0
   -5.9508    9.4100    5.9501 N   0  3  0  0  0  0  0  0  0  0  0  0
   -7.9971   12.4814    1.1531 N   0  3  0  0  0  0  0  0  0  0  0  0
   -6.8654    8.2961    3.4407 O   0  0  0  0  0  0  0  0  0  0  0  0
  -10.0664   11.2976    4.0882 O   0  0  0  0  0  0  0  0  0  0  0  0
   -6.9028   10.3615    2.4587 O   0  0  0  0  0  0  0  0  0  0  0  0
  1  2  1  0  0  0  0
  1 10  1  0  0  0  0
  1 21  1  1  0  0  0
  2  3  1  0  0  0  0
  2  7  1  6  0  0  0
  3  4  1  0  0  0  0
  3  8  1  6  0  0  0
  4  5  1  0  0  0  0
  4  9  1  1  0  0  0
  5  6  1  1  0  0  0
  5 10  1  0  0  0  0
  6 11  1  0  0  0  0
 12 13  1  0  0  0  0
 12 17  1  0  0  0  0
 12 18  1  6  0  0  0
 13 14  1  0  0  0  0
 14 15  1  0  0  0  0
 14 19  1  6  0  0  0
 15 16  1  0  0  0  0
 15 30  1  1  0  0  0
 16 17  1  0  0  0  0
 16 20  1  6  0  0  0
 17 21  1  1  0  0  0
 22 23  1  0  0  0  0
 22 30  1  1  0  0  0
 22 32  1  0  0  0  0
 23 24  1  0  0  0  0
 23 28  1  1  0  0  0
 24 25  1  0  0  0  0
 25 26  1  0  0  0  0
 25 31  1  1  0  0  0
 26 27  1  6  0  0  0
 26 32  1  0  0  0  0
 27 29  1  0  0  0  0
M  CHG  5   8   1  18   1  19   1  28   1  29   1
M  END
>  <CHROM.1>
-109.23646373,61.66609857,-164.41389247,63.92088680,-175.17328408,-87.25476758
154.68802136,70.79623838,-146.77642306,-173.21598038,139.11660655,-151.36089274
140.14134571,65.26730079,74.41595473,57.17512189,-4.83513737,6.77819320,3.25523519
0.37960260,0.73529690,-2.19491381

>  <Name>
1tob

>  <RI>
0

>  <Rbt.Current_Directory>
/home/itssahil/PROJECTS/Mol_Feturizer/New_Systems/rnas/1tob

>  <Rbt.Executable>
rbdock ($Id: //depot/dev/client3/rdock/2013.1/src/exe/rbdock.cxx#4 $)

>  <Rbt.Library>
libRbt.so (2013.1, Build901 2013/11/27)

>  <Rbt.Parameter_File>
/export/apps/rDock/src/rDock_2013.1_src/data/scripts/dock_solv.prm

>  <Rbt.Receptor>
prm/pocket_docking_2.prm

>  <SCORE>
-52.7849

>  <SCORE.INTER>
-51.3676

>  <SCORE.INTER.CONST>
1

>  <SCORE.INTER.POLAR>
-8.1387

>  <SCORE.INTER.ROT>
6

>  <SCORE.INTER.SOLV>
29.6627

>  <SCORE.INTER.VDW>
-24.6037

>  <SCORE.INTER.norm>
-1.60524

>  <SCORE.INTRA>
-2.09827

>  <SCORE.INTRA.DIHEDRAL>
5.96425

>  <SCORE.INTRA.DIHEDRAL.0>
22.9177

>  <SCORE.INTRA.POLAR>
-1.40186

>  <SCORE.INTRA.POLAR.0>
-0.311208

>  <SCORE.INTRA.REPUL>
0

>  <SCORE.INTRA.REPUL.0>
0

>  <SCORE.INTRA.SOLV>
-0.597402

>  <SCORE.INTRA.SOLV.lig_0>
-132.657

>  <SCORE.INTRA.VDW>
-0.0153772

>  <SCORE.INTRA.VDW.0>
-4.68867

>  <SCORE.INTRA.norm>
-0.065571

>  <SCORE.RESTR>
0.681047

>  <SCORE.RESTR.CAVITY>
0.681047

>  <SCORE.RESTR.norm>
0.0212827

>  <SCORE.SYSTEM>
0

>  <SCORE.SYSTEM.CONST>
0

>  <SCORE.SYSTEM.DIHEDRAL>
0

>  <SCORE.SYSTEM.SOLV>
0

>  <SCORE.SYSTEM.norm>
0

>  <SCORE.heavy>
32

>  <SCORE.norm>
-1.64953

>  <RMSD>
0.601

$$$$
1tob
 OpenBabel11021811413D
libRbt.so/2013.1/901 2013/11/27
 32 34  0  0  0  0  0  0  0  0999 V2000
   -1.9921    5.6223    3.2917 C   0  0  2  0  0  0  0  0  0  0  0  0
   -1.0241    4.9340    2.3324 C   0  0  1  0  0  0  0  0  0  0  0  0
   -0.8248    3.4854    2.7569 C   0  0  2  0  0  0  0  0  0  0  0  0
   -0.3566    3.4430    4.2066 C   0  0  1  0  0  0  0  0  0  0  0  0
   -1.3515    4.1852    5.0947 C   0  0  1  0  0  0  0  0  0  0  0  0
   -0.9015    4.2446    6.5412 C   0  0  0  0  0  0  0  0  0  0  0  0
   -1.5452    4.9785    1.0118 O   0  0  0  0  0  0  0  0  0  0  0  0
    0.1150    2.7885    1.8522 N   0  3  0  0  0  0  0  0  0  0  0  0
   -0.2340    2.0927    4.6330 O   0  0  0  0  0  0  0  0  0  0  0  0
   -1.5036    5.5463    4.6369 O   0  0  0  0  0  0  0  0  0  0  0  0
    0.4107    4.7768    6.6550 O   0  0  0  0  0  0  0  0  0  0  0  0
   -5.1828    4.7050    1.8440 C   0  0  2  0  0  0  0  0  0  0  0  0
   -6.2357    5.4508    1.0357 C   0  0  0  0  0  0  0  0  0  0  0  0
   -7.0091    6.4196    1.9306 C   0  0  1  0  0  0  0  0  0  0  0  0
   -6.0447    7.4272    2.5524 C   0  0  2  0  0  0  0  0  0  0  0  0
   -4.9741    6.6946    3.3625 C   0  0  1  0  0  0  0  0  0  0  0  0
   -4.2242    5.7063    2.4698 C   0  0  1  0  0  0  0  0  0  0  0  0
   -4.4090    3.7899    0.9766 N   0  3  0  0  0  0  0  0  0  0  0  0
   -8.0880    7.0778    1.1489 N   0  3  0  0  0  0  0  0  0  0  0  0
   -4.0624    7.6338    3.9165 O   0  0  0  0  0  0  0  0  0  0  0  0
   -3.2298    5.0087    3.2414 O   0  0  0  0  0  0  0  0  0  0  0  0
   -6.2200    9.6170    3.5208 C   0  0  1  0  0  0  0  0  0  0  0  0
   -6.5109   10.1903    4.9088 C   0  0  1  0  0  0  0  0  0  0  0  0
   -8.0103   10.3497    5.1100 C   0  0  0  0  0  0  0  0  0  0  0  0
   -8.5788   11.2005    3.9860 C   0  0  1  0  0  0  0  0  0  0  0  0
   -8.2278   10.5746    2.6367 C   0  0  1  0  0  0  0  0  0  0  0  0
   -8.7149   11.4043    1.4627 C   0  0  0  0  0  0  0  0  0  0  0  0
   -5.8934    9.3597    5.9696 N   0  3  0  0  0  0  0  0  0  0  0  0
   -8.4841   10.7094    0.1737 N   0  3  0  0  0  0  0  0  0  0  0  0
   -6.7628    8.3444    3.4030 O   0  0  0  0  0  0  0  0  0  0  0  0
   -9.9889   11.3028    4.1206 O   0  0  0  0  0  0  0  0  0  0  0  0
   -6.7954   10.4477    2.5049 O   0  0  0  0  0  0  0  0  0  0  0  0
  1  2  1  0  0  0  0
  1 10  1  0  0  0  0
  1 21  1  1  0  0  0
  2  3  1  0  0  0  0
  2  7  1  6  0  0  0
  3  4  1  0  0  0  0
  3  8  1  6  0  0  0
  4  5  1  0  0  0  0
  4  9  1  1  0  0  0
  5  6  1  1  0  0  0
  5 10  1  0  0  0  0
  6 11  1  0  0  0  0
 12 13  1  0  0  0  0
 12 17  1  0  0  0  0
 12 18  1  6  0  0  0
 13 14  1  0  0  0  0
 14 15  1  0  0  0  0
 14 19  1  6  0  0  0
 15 16  1  0  0  0  0
 15 30  1  1  0  0  0
 16 17  1  0  0  0  0
 16 20  1  6  0  0  0
 17 21  1  1  0  0  0
 22 23  1  0  0  0  0
 22 30  1  1  0  0  0
 22 32  1  0  0  0  0
 23 24  1  0  0  0  0
 23 28  1  1  0  0  0
 24 25  1  0  0  0  0
 25 26  1  0  0  0  0
 25 31  1  1  0  0  0
 26 27  1  6  0  0  0
 26 32  1  0  0  0  0
 27 29  1  0  0  0  0
M  CHG  5   8   1  18   1  19   1  28   1  29   1
M  END
>  <CHROM.1>
-101.80494071,-176.66080522,-121.81234712,-47.81564853,53.46759443,-175.25796102
137.51556102,-45.58810636,-150.58489015,178.59554259,148.70209778,-148.16079833
141.93910542,-53.70131140,-174.21706188,60.89684014,-4.56628037,6.83634578
3.21761227,-0.28602055,-0.67685108,0.99564412

>  <Name>
1tob

>  <RI>
0

>  <Rbt.Current_Directory>
/home/itssahil/PROJECTS/Mol_Feturizer/New_Systems/rnas/1tob

>  <Rbt.Executable>
rbdock ($Id: //depot/dev/client3/rdock/2013.1/src/exe/rbdock.cxx#4 $)

>  <Rbt.Library>
libRbt.so (2013.1, Build901 2013/11/27)

>  <Rbt.Parameter_File>
/export/apps/rDock/src/rDock_2013.1_src/data/scripts/dock_solv.prm

>  <Rbt.Receptor>
prm/pocket_docking_4.prm

>  <SCORE>
-42.4795

>  <SCORE.INTER>
-42.4716

>  <SCORE.INTER.CONST>
1

>  <SCORE.INTER.POLAR>
-6.97317

>  <SCORE.INTER.ROT>
6

>  <SCORE.INTER.SOLV>
28.8937

>  <SCORE.INTER.VDW>
-22.3017

>  <SCORE.INTER.norm>
-1.32724

>  <SCORE.INTRA>
-0.0126715

>  <SCORE.INTRA.DIHEDRAL>
4.83471

>  <SCORE.INTRA.DIHEDRAL.0>
22.9177

>  <SCORE.INTRA.POLAR>
-1.51207

>  <SCORE.INTRA.POLAR.0>
-0.311208

>  <SCORE.INTRA.REPUL>
0

>  <SCORE.INTRA.REPUL.0>
0

>  <SCORE.INTRA.SOLV>
0.177598

>  <SCORE.INTRA.SOLV.lig_0>
-132.657

>  <SCORE.INTRA.VDW>
2.62222

>  <SCORE.INTRA.VDW.0>
-4.68867

>  <SCORE.INTRA.norm>
-0.000395986

>  <SCORE.RESTR>
0.00479694

>  <SCORE.RESTR.CAVITY>
0.00479694

>  <SCORE.RESTR.norm>
0.000149904

>  <SCORE.SYSTEM>
0

>  <SCORE.SYSTEM.CONST>
0

>  <SCORE.SYSTEM.DIHEDRAL>
0

>  <SCORE.SYSTEM.SOLV>
0

>  <SCORE.SYSTEM.norm>
0

>  <SCORE.heavy>
32

>  <SCORE.norm>
-1.32748

>  <RMSD>
0.646

$$$$
1tob
 OpenBabel11021811413D
libRbt.so/2013.1/901 2013/11/27
 32 34  0  0  0  0  0  0  0  0999 V2000
   -2.2075    5.4131    3.6352 C   0  0  2  0  0  0  0  0  0  0  0  0
   -1.5482    4.5583    2.5556 C   0  0  1  0  0  0  0  0  0  0  0  0
   -1.5075    3.1045    3.0065 C   0  0  2  0  0  0  0  0  0  0  0  0
   -0.7999    3.0121    4.3531 C   0  0  1  0  0  0  0  0  0  0  0  0
   -1.4896    3.9232    5.3647 C   0  0  1  0  0  0  0  0  0  0  0  0
   -0.7841    3.9342    6.7066 C   0  0  0  0  0  0  0  0  0  0  0  0
   -2.2836    4.6637    1.3450 O   0  0  0  0  0  0  0  0  0  0  0  0
   -0.8671    2.2468    1.9858 N   0  3  0  0  0  0  0  0  0  0  0  0
   -0.8178    1.6679    4.8144 O   0  0  0  0  0  0  0  0  0  0  0  0
   -1.5042    5.2824    4.8771 O   0  0  0  0  0  0  0  0  0  0  0  0
    0.4877    4.5611    6.6192 O   0  0  0  0  0  0  0  0  0  0  0  0
   -5.3698    4.3929    2.4014 C   0  0  2  0  0  0  0  0  0  0  0  0
   -6.3686    4.9391    1.3905 C   0  0  0  0  0  0  0  0  0  0  0  0
   -7.2031    6.0579    2.0146 C   0  0  1  0  0  0  0  0  0  0  0  0
   -6.2854    7.1877    2.4765 C   0  0  2  0  0  0  0  0  0  0  0  0
   -5.2690    6.6552    3.4877 C   0  0  1  0  0  0  0  0  0  0  0  0
   -4.4582    5.5174    2.8682 C   0  0  1  0  0  0  0  0  0  0  0  0
   -4.5370    3.3323    1.7931 N   0  3  0  0  0  0  0  0  0  0  0  0
   -8.2294    6.5233    1.0460 N   0  3  0  0  0  0  0  0  0  0  0  0
   -4.3992    7.7032    3.8941 O   0  0  0  0  0  0  0  0  0  0  0  0
   -3.5153    5.0098    3.8296 O   0  0  0  0  0  0  0  0  0  0  0  0
   -6.4226    9.4746    3.1941 C   0  0  1  0  0  0  0  0  0  0  0  0
   -6.7251   10.0952    4.5592 C   0  0  1  0  0  0  0  0  0  0  0  0
   -8.2139   10.3785    4.6915 C   0  0  0  0  0  0  0  0  0  0  0  0
   -8.6628   11.2513    3.5308 C   0  0  1  0  0  0  0  0  0  0  0  0
   -8.3063   10.5742    2.2079 C   0  0  1  0  0  0  0  0  0  0  0  0
   -8.6737   11.4185    1.0011 C   0  0  0  0  0  0  0  0  0  0  0  0
   -6.2231    9.2374    5.6586 N   0  3  0  0  0  0  0  0  0  0  0  0
   -8.0683   10.8823   -0.2414 N   0  3  0  0  0  0  0  0  0  0  0  0
   -7.0615    8.2479    3.0716 O   0  0  0  0  0  0  0  0  0  0  0  0
  -10.0643   11.4692    3.6014 O   0  0  0  0  0  0  0  0  0  0  0  0
   -6.8846   10.3300    2.1414 O   0  0  0  0  0  0  0  0  0  0  0  0
  1  2  1  0  0  0  0
  1 10  1  0  0  0  0
  1 21  1  1  0  0  0
  2  3  1  0  0  0  0
  2  7  1  6  0  0  0
  3  4  1  0  0  0  0
  3  8  1  6  0  0  0
  4  5  1  0  0  0  0
  4  9  1  1  0  0  0
  5  6  1  1  0  0  0
  5 10  1  0  0  0  0
  6 11  1  0  0  0  0
 12 13  1  0  0  0  0
 12 17  1  0  0  0  0
 12 18  1  6  0  0  0
 13 14  1  0  0  0  0
 14 15  1  0  0  0  0
 14 19  1  6  0  0  0
 15 16  1  0  0  0  0
 15 30  1  1  0  0  0
 16 17  1  0  0  0  0
 16 20  1  6  0  0  0
 17 21  1  1  0  0  0
 22 23  1  0  0  0  0
 22 30  1  1  0  0  0
 22 32  1  0  0  0  0
 23 24  1  0  0  0  0
 23 28  1  1  0  0  0
 24 25  1  0  0  0  0
 25 26  1  0  0  0  0
 25 31  1  6  0  0  0
 26 27  1  6  0  0  0
 26 32  1  0  0  0  0
 27 29  1  0  0  0  0
M  CHG  5   8   1  18   1  19   1  28   1  29   1
M  END
>  <CHROM.1>
-80.67889869,174.48291300,60.79054030,68.11184016,68.10562756,-49.22709520
83.71108279,69.65447696,-162.71748380,178.57835218,134.41453605,-137.43191185
72.15157530,175.68547311,167.98212304,-20.07900916,-4.79506152,6.63727068
3.22794876,-0.35283972,-0.71877559,0.83607591

>  <Name>
1tob

>  <RI>
0

>  <Rbt.Current_Directory>
/home/itssahil/PROJECTS/Mol_Feturizer/New_Systems/rnas/1tob

>  <Rbt.Executable>
rbdock ($Id: //depot/dev/client3/rdock/2013.1/src/exe/rbdock.cxx#4 $)

>  <Rbt.Library>
libRbt.so (2013.1, Build901 2013/11/27)

>  <Rbt.Parameter_File>
/export/apps/rDock/src/rDock_2013.1_src/data/scripts/dock_solv.prm

>  <Rbt.Receptor>
prm/pocket_docking_2.prm

>  <SCORE>
-43.8275

>  <SCORE.INTER>
-41.7983

>  <SCORE.INTER.CONST>
1

>  <SCORE.INTER.POLAR>
-6.23445

>  <SCORE.INTER.ROT>
6

>  <SCORE.INTER.SOLV>
26.0936

>  <SCORE.INTER.VDW>
-23.3819

>  <SCORE.INTER.norm>
-1.3062

>  <SCORE.INTRA>
-2.28166

>  <SCORE.INTRA.DIHEDRAL>
-1.1114

>  <SCORE.INTRA.DIHEDRAL.0>
22.9177

>  <SCORE.INTRA.POLAR>
-1.06515

>  <SCORE.INTRA.POLAR.0>
-0.311208

>  <SCORE.INTRA.REPUL>
0

>  <SCORE.INTRA.REPUL.0>
0

>  <SCORE.INTRA.SOLV>
2.02222

>  <SCORE.INTRA.SOLV.lig_0>
-132.657

>  <SCORE.INTRA.VDW>
0.88443

>  <SCORE.INTRA.VDW.0>
-4.68867

>  <SCORE.INTRA.norm>
-0.071302

>  <SCORE.RESTR>
0.252526

>  <SCORE.RESTR.CAVITY>
0.252526

>  <SCORE.RESTR.norm>
0.00789143

>  <SCORE.SYSTEM>
0

>  <SCORE.SYSTEM.CONST>
0

>  <SCORE.SYSTEM.DIHEDRAL>
0

>  <SCORE.SYSTEM.SOLV>
0

>  <SCORE.SYSTEM.norm>
0

>  <SCORE.heavy>
32

>  <SCORE.norm>
-1.36961

>  <RMSD>
0.704

$$$$
1tob
 OpenBabel11021811413D
libRbt.so/2013.1/901 2013/11/27
 32 34  0  0  0  0  0  0  0  0999 V2000
   -2.1910    5.4418    3.2638 C   0  0  2  0  0  0  0  0  0  0  0  0
   -1.2677    4.7654    2.2533 C   0  0  1  0  0  0  0  0  0  0  0  0
   -1.0646    3.3069    2.6403 C   0  0  2  0  0  0  0  0  0  0  0  0
   -0.5400    3.2310    4.0692 C   0  0  1  0  0  0  0  0  0  0  0  0
   -1.4925    3.9629    5.0107 C   0  0  1  0  0  0  0  0  0  0  0  0
   -0.9852    3.9891    6.4391 C   0  0  0  0  0  0  0  0  0  0  0  0
   -1.8400    4.8411    0.9555 O   0  0  0  0  0  0  0  0  0  0  0  0
   -0.1675    2.6211    1.6853 N   0  3  0  0  0  0  0  0  0  0  0  0
   -0.4126    1.8714    4.4631 O   0  0  0  0  0  0  0  0  0  0  0  0
   -1.6505    5.3343    4.5868 O   0  0  0  0  0  0  0  0  0  0  0  0
   -1.1491    2.7275    7.0712 O   0  0  0  0  0  0  0  0  0  0  0  0
   -5.2776    4.4270    1.7356 C   0  0  2  0  0  0  0  0  0  0  0  0
   -6.3136    5.1129    0.8555 C   0  0  0  0  0  0  0  0  0  0  0  0
   -7.1903    6.0464    1.6906 C   0  0  1  0  0  0  0  0  0  0  0  0
   -6.3197    7.1060    2.3623 C   0  0  2  0  0  0  0  0  0  0  0  0
   -5.2667    6.4343    3.2452 C   0  0  1  0  0  0  0  0  0  0  0  0
   -4.4127    5.4802    2.4110 C   0  0  1  0  0  0  0  0  0  0  0  0
   -4.4049    3.5474    0.9274 N   0  3  0  0  0  0  0  0  0  0  0  0
   -8.2495    6.6435    0.8363 N   0  3  0  0  0  0  0  0  0  0  0  0
   -4.4408    7.4224    3.8465 O   0  0  0  0  0  0  0  0  0  0  0  0
   -3.4350    4.8393    3.2502 O   0  0  0  0  0  0  0  0  0  0  0  0
   -6.7370    9.3202    3.1911 C   0  0  1  0  0  0  0  0  0  0  0  0
   -7.0827    9.9423    4.5451 C   0  0  1  0  0  0  0  0  0  0  0  0
   -8.5896    9.9471    4.7540 C   0  0  0  0  0  0  0  0  0  0  0  0
   -9.2547   10.6590    3.5873 C   0  0  1  0  0  0  0  0  0  0  0  0
   -8.8432    9.9937    2.2744 C   0  0  1  0  0  0  0  0  0  0  0  0
   -9.4253   10.6906    1.0580 C   0  0  0  0  0  0  0  0  0  0  0  0
   -6.3715    9.2519    5.6469 N   0  3  0  0  0  0  0  0  0  0  0  0
   -8.3609   11.2564    0.1950 N   0  3  0  0  0  0  0  0  0  0  0  0
   -7.1358    7.9905    3.1571 O   0  0  0  0  0  0  0  0  0  0  0  0
  -10.6667   10.6129    3.7321 O   0  0  0  0  0  0  0  0  0  0  0  0
   -7.4062   10.0180    2.1335 O   0  0  0  0  0  0  0  0  0  0  0  0
  1  2  1  0  0  0  0
  1 10  1  0  0  0  0
  1 21  1  1  0  0  0
  2  3  1  0  0  0  0
  2  7  1  6  0  0  0
  3  4  1  0  0  0  0
  3  8  1  6  0  0  0
  4  5  1  0  0  0  0
  4  9  1  1  0  0  0
  5  6  1  1  0  0  0
  5 10  1  0  0  0  0
  6 11  1  0  0  0  0
 12 13  1  0  0  0  0
 12 17  1  0  0  0  0
 12 18  1  6  0  0  0
 13 14  1  0  0  0  0
 14 15  1  0  0  0  0
 14 19  1  6  0  0  0
 15 16  1  0  0  0  0
 15 30  1  1  0  0  0
 16 17  1  0  0  0  0
 16 20  1  6  0  0  0
 17 21  1  1  0  0  0
 22 23  1  0  0  0  0
 22 30  1  1  0  0  0
 22 32  1  0  0  0  0
 23 24  1  0  0  0  0
 23 28  1  1  0  0  0
 24 25  1  0  0  0  0
 25 26  1  0  0  0  0
 25 31  1  1  0  0  0
 26 27  1  6  0  0  0
 26 32  1  0  0  0  0
 27 29  1  0  0  0  0
M  CHG  5   8   1  18   1  19   1  28   1  29   1
M  END
>  <CHROM.1>
-95.14511360,-171.89437382,127.47216799,70.78856128,-75.29779813,-126.36134846
27.31768058,-168.23781564,-144.59404399,177.61336081,142.34194422,-147.77637013
69.45487990,59.22824911,116.72273691,-60.26697587,-4.91272440,6.50548835
3.05452416,-0.14391800,-0.71700177,1.17756671

>  <Name>
1tob

>  <RI>
0

>  <Rbt.Current_Directory>
/home/itssahil/PROJECTS/Mol_Feturizer/New_Systems/rnas/1tob

>  <Rbt.Executable>
rbdock ($Id: //depot/dev/client3/rdock/2013.1/src/exe/rbdock.cxx#4 $)

>  <Rbt.Library>
libRbt.so (2013.1, Build901 2013/11/27)

>  <Rbt.Parameter_File>
/export/apps/rDock/src/rDock_2013.1_src/data/scripts/dock_solv.prm

>  <Rbt.Receptor>
prm/pocket_docking_2.prm

>  <SCORE>
-46.6274

>  <SCORE.INTER>
-56.3571

>  <SCORE.INTER.CONST>
1

>  <SCORE.INTER.POLAR>
-9.64339

>  <SCORE.INTER.ROT>
6

>  <SCORE.INTER.SOLV>
29.3051

>  <SCORE.INTER.VDW>
-22.7951

>  <SCORE.INTER.norm>
-1.76116

>  <SCORE.INTRA>
8.97944

>  <SCORE.INTRA.DIHEDRAL>
15.1326

>  <SCORE.INTRA.DIHEDRAL.0>
22.9177

>  <SCORE.INTRA.POLAR>
-0.0439146

>  <SCORE.INTRA.POLAR.0>
-0.311208

>  <SCORE.INTRA.REPUL>
0.00602988

>  <SCORE.INTRA.REPUL.0>
0

>  <SCORE.INTRA.SOLV>
0.403192

>  <SCORE.INTRA.SOLV.lig_0>
-132.657

>  <SCORE.INTRA.VDW>
1.33069

>  <SCORE.INTRA.VDW.0>
-4.68867

>  <SCORE.INTRA.norm>
0.280607

>  <SCORE.RESTR>
0.750255

>  <SCORE.RESTR.CAVITY>
0.750255

>  <SCORE.RESTR.norm>
0.0234455

>  <SCORE.SYSTEM>
0

>  <SCORE.SYSTEM.CONST>
0

>  <SCORE.SYSTEM.DIHEDRAL>
0

>  <SCORE.SYSTEM.SOLV>
0

>  <SCORE.SYSTEM.norm>
0

>  <SCORE.heavy>
32

>  <SCORE.norm>
-1.45711

>  <RMSD>
0.714

$$$$
1tob
 OpenBabel11021811413D
libRbt.so/2013.1/901 2013/11/27
 32 34  0  0  0  0  0  0  0  0999 V2000
   -2.1672    5.3686    3.5163 C   0  0  2  0  0  0  0  0  0  0  0  0
   -1.4622    4.7390    2.3173 C   0  0  1  0  0  0  0  0  0  0  0  0
   -1.3349    3.2364    2.5283 C   0  0  2  0  0  0  0  0  0  0  0  0
   -0.6190    2.9696    3.8470 C   0  0  1  0  0  0  0  0  0  0  0  0
   -1.3579    3.6639    4.9877 C   0  0  1  0  0  0  0  0  0  0  0  0
   -0.6501    3.4995    6.3184 C   0  0  0  0  0  0  0  0  0  0  0  0
   -2.2063    4.9951    1.1348 O   0  0  0  0  0  0  0  0  0  0  0  0
   -0.6484    2.5934    1.3870 N   0  3  0  0  0  0  0  0  0  0  0  0
   -0.5566    1.5699    4.0856 O   0  0  0  0  0  0  0  0  0  0  0  0
   -1.4537    5.0806    4.7254 O   0  0  0  0  0  0  0  0  0  0  0  0
    0.2894    4.5420    6.5387 O   0  0  0  0  0  0  0  0  0  0  0  0
   -5.2896    4.1904    2.2147 C   0  0  2  0  0  0  0  0  0  0  0  0
   -6.2782    4.6959    1.1729 C   0  0  0  0  0  0  0  0  0  0  0  0
   -7.1176    5.8394    1.7433 C   0  0  1  0  0  0  0  0  0  0  0  0
   -6.2035    6.9864    2.1682 C   0  0  2  0  0  0  0  0  0  0  0  0
   -5.1974    6.4946    3.2098 C   0  0  1  0  0  0  0  0  0  0  0  0
   -4.3816    5.3324    2.6446 C   0  0  1  0  0  0  0  0  0  0  0  0
   -4.4519    3.1058    1.6577 N   0  3  0  0  0  0  0  0  0  0  0  0
   -8.1341    6.2658    0.7468 N   0  3  0  0  0  0  0  0  0  0  0  0
   -4.3307    7.5578    3.5821 O   0  0  0  0  0  0  0  0  0  0  0  0
   -3.4485    4.8636    3.6347 O   0  0  0  0  0  0  0  0  0  0  0  0
   -6.4091    9.3317    2.6386 C   0  0  1  0  0  0  0  0  0  0  0  0
   -6.7304   10.1349    3.9002 C   0  0  1  0  0  0  0  0  0  0  0  0
   -8.2306   10.3601    4.0143 C   0  0  0  0  0  0  0  0  0  0  0  0
   -8.7354   11.0245    2.7438 C   0  0  1  0  0  0  0  0  0  0  0  0
   -8.3569   10.1745    1.5314 C   0  0  1  0  0  0  0  0  0  0  0  0
   -8.7793   10.8079    0.2182 C   0  0  0  0  0  0  0  0  0  0  0  0
   -6.1739    9.4788    5.1069 N   0  3  0  0  0  0  0  0  0  0  0  0
   -8.0846   12.0973   -0.0111 N   0  3  0  0  0  0  0  0  0  0  0  0
   -6.9844    8.0701    2.7125 O   0  0  0  0  0  0  0  0  0  0  0  0
  -10.1456   11.1802    2.8051 O   0  0  0  0  0  0  0  0  0  0  0  0
   -6.9251    9.9945    1.4777 O   0  0  0  0  0  0  0  0  0  0  0  0
  1  2  1  0  0  0  0
  1 10  1  0  0  0  0
  1 21  1  1  0  0  0
  2  3  1  0  0  0  0
  2  7  1  6  0  0  0
  3  4  1  0  0  0  0
  3  8  1  6  0  0  0
  4  5  1  0  0  0  0
  4  9  1  1  0  0  0
  5  6  1  1  0  0  0
  5 10  1  0  0  0  0
  6 11  1  0  0  0  0
 12 13  1  0  0  0  0
 12 17  1  0  0  0  0
 12 18  1  6  0  0  0
 13 14  1  0  0  0  0
 14 15  1  0  0  0  0
 14 19  1  6  0  0  0
 15 16  1  0  0  0  0
 15 30  1  1  0  0  0
 16 17  1  0  0  0  0
 16 20  1  6  0  0  0
 17 21  1  1  0  0  0
 22 23  1  0  0  0  0
 22 30  1  1  0  0  0
 22 32  1  0  0  0  0
 23 24  1  0  0  0  0
 23 28  1  1  0  0  0
 24 25  1  0  0  0  0
 25 26  1  0  0  0  0
 25 31  1  1  0  0  0
 26 27  1  6  0  0  0
 26 32  1  0  0  0  0
 27 29  1  0  0  0  0
M  CHG  5   8   1  18   1  19   1  28   1  29   1
M  END
>  <CHROM.1>
-72.74117564,61.70049958,139.35922491,-57.85066632,89.36529103,63.88446795
-158.83936441,-48.59839292,-154.97126203,-56.97201778,140.77782042,-142.35692906
-4.43507201,-57.17711347,63.27139516,55.96476976,-4.74953893,6.56925820,2.84370753
-0.37616606,-0.70679393,0.76787749

>  <Name>
1tob

>  <RI>
0

>  <Rbt.Current_Directory>
/home/itssahil/PROJECTS/Mol_Feturizer/New_Systems/rnas/1tob

>  <Rbt.Executable>
rbdock ($Id: //depot/dev/client3/rdock/2013.1/src/exe/rbdock.cxx#4 $)

>  <Rbt.Library>
libRbt.so (2013.1, Build901 2013/11/27)

>  <Rbt.Parameter_File>
/export/apps/rDock/src/rDock_2013.1_src/data/scripts/dock_solv.prm

>  <Rbt.Receptor>
prm/pocket_docking_2.prm

>  <SCORE>
-47.8642

>  <SCORE.INTER>
-44.0229

>  <SCORE.INTER.CONST>
1

>  <SCORE.INTER.POLAR>
-6.97176

>  <SCORE.INTER.ROT>
6

>  <SCORE.INTER.SOLV>
27.8527

>  <SCORE.INTER.VDW>
-22.9937

>  <SCORE.INTER.norm>
-1.37572

>  <SCORE.INTRA>
-3.84128

>  <SCORE.INTRA.DIHEDRAL>
1.38904

>  <SCORE.INTRA.DIHEDRAL.0>
22.9177

>  <SCORE.INTRA.POLAR>
-1.86458

>  <SCORE.INTRA.POLAR.0>
-0.311208

>  <SCORE.INTRA.REPUL>
0

>  <SCORE.INTRA.REPUL.0>
0

>  <SCORE.INTRA.SOLV>
1.32214

>  <SCORE.INTRA.SOLV.lig_0>
-132.657

>  <SCORE.INTRA.VDW>
1.14269

>  <SCORE.INTRA.VDW.0>
-4.68867

>  <SCORE.INTRA.norm>
-0.12004

>  <SCORE.RESTR>
0

>  <SCORE.RESTR.CAVITY>
0

>  <SCORE.RESTR.norm>
0

>  <SCORE.SYSTEM>
0

>  <SCORE.SYSTEM.CONST>
0

>  <SCORE.SYSTEM.DIHEDRAL>
0

>  <SCORE.SYSTEM.SOLV>
0

>  <SCORE.SYSTEM.norm>
0

>  <SCORE.heavy>
32

>  <SCORE.norm>
-1.49576

>  <RMSD>
0.731

$$$$
1tob
 OpenBabel11021811413D
libRbt.so/2013.1/901 2013/11/27
 32 34  0  0  0  0  0  0  0  0999 V2000
   -2.6382    5.4326    2.5034 C   0  0  2  0  0  0  0  0  0  0  0  0
   -2.1446    4.3180    1.5841 C   0  0  1  0  0  0  0  0  0  0  0  0
   -2.0771    3.0080    2.3571 C   0  0  2  0  0  0  0  0  0  0  0  0
   -1.2016    3.1931    3.5908 C   0  0  1  0  0  0  0  0  0  0  0  0
   -1.7330    4.3483    4.4349 C   0  0  1  0  0  0  0  0  0  0  0  0
   -0.8579    4.6328    5.6398 C   0  0  0  0  0  0  0  0  0  0  0  0
   -3.0297    4.1785    0.4819 O   0  0  0  0  0  0  0  0  0  0  0  0
   -1.5946    1.9053    1.4977 N   0  3  0  0  0  0  0  0  0  0  0  0
   -1.1884    1.9950    4.3552 O   0  0  0  0  0  0  0  0  0  0  0  0
   -1.7815    5.5565    3.6456 O   0  0  0  0  0  0  0  0  0  0  0  0
   -0.5998    3.4509    6.3845 O   0  0  0  0  0  0  0  0  0  0  0  0
   -6.0306    4.9035    1.7910 C   0  0  2  0  0  0  0  0  0  0  0  0
   -7.1382    5.6758    1.0875 C   0  0  0  0  0  0  0  0  0  0  0  0
   -7.7619    6.6994    2.0365 C   0  0  1  0  0  0  0  0  0  0  0  0
   -6.6910    7.6778    2.5139 C   0  0  2  0  0  0  0  0  0  0  0  0
   -5.5650    6.9181    3.2169 C   0  0  1  0  0  0  0  0  0  0  0  0
   -4.9653    5.8761    2.2732 C   0  0  1  0  0  0  0  0  0  0  0  0
   -5.4011    3.9342    0.8676 N   0  3  0  0  0  0  0  0  0  0  0  0
   -8.8959    7.3858    1.3650 N   0  3  0  0  0  0  0  0  0  0  0  0
   -4.5571    7.8288    3.6349 O   0  0  0  0  0  0  0  0  0  0  0  0
   -3.9179    5.1538    2.9456 O   0  0  0  0  0  0  0  0  0  0  0  0
   -6.6066    9.8647    3.5009 C   0  0  1  0  0  0  0  0  0  0  0  0
   -6.6683   10.3997    4.9326 C   0  0  1  0  0  0  0  0  0  0  0  0
   -8.1108   10.6711    5.3325 C   0  0  0  0  0  0  0  0  0  0  0  0
   -8.7425   11.6125    4.3200 C   0  0  1  0  0  0  0  0  0  0  0  0
   -8.6209   11.0185    2.9171 C   0  0  1  0  0  0  0  0  0  0  0  0
   -9.1804   11.9345    1.8437 C   0  0  0  0  0  0  0  0  0  0  0  0
   -5.9945    9.4772    5.8768 N   0  3  0  0  0  0  0  0  0  0  0  0
   -8.9171   11.4030    0.4850 N   0  3  0  0  0  0  0  0  0  0  0  0
   -7.2671    8.6464    3.4142 O   0  0  0  0  0  0  0  0  0  0  0  0
  -10.1100   11.8227    4.6403 O   0  0  0  0  0  0  0  0  0  0  0  0
   -7.2331   10.7820    2.5958 O   0  0  0  0  0  0  0  0  0  0  0  0
  1  2  1  0  0  0  0
  1 10  1  0  0  0  0
  1 21  1  1  0  0  0
  2  3  1  0  0  0  0
  2  7  1  6  0  0  0
  3  4  1  0  0  0  0
  3  8  1  6  0  0  0
  4  5  1  0  0  0  0
  4  9  1  1  0  0  0
  5  6  1  1  0  0  0
  5 10  1  0  0  0  0
  6 11  1  0  0  0  0
 12 13  1  0  0  0  0
 12 17  1  0  0  0  0
 12 18  1  6  0  0  0
 13 14  1  0  0  0  0
 14 15  1  0  0  0  0
 14 19  1  6  0  0  0
 15 16  1  0  0  0  0
 15 30  1  1  0  0  0
 16 17  1  0  0  0  0
 16 20  1  6  0  0  0
 17 21  1  1  0  0  0
 22 23  1  0  0  0  0
 22 30  1  1  0  0  0
 22 32  1  0  0  0  0
 23 24  1  0  0  0  0
 23 28  1  1  0  0  0
 24 25  1  0  0  0  0
 25 26  1  0  0  0  0
 25 31  1  1  0  0  0
 26 27  1  6  0  0  0
 26 32  1  0  0  0  0
 27 29  1  0  0  0  0
M  CHG  5   8   1  18   1  19   1  28   1  29   1
M  END
>  <CHROM.1>
-101.84795590,-176.44602063,175.95738933,-173.02004018,-50.96512048,-178.74100843
43.91104550,61.85621610,-154.90253219,-57.24600886,128.70013816,-144.14364750
23.46046021,69.88587263,173.78128899,80.58255073,-5.20909702,6.90210718,3.05938250
0.48390905,0.69849015,-2.26944447

>  <Name>
1tob

>  <RI>
0

>  <Rbt.Current_Directory>
/home/itssahil/PROJECTS/Mol_Feturizer/New_Systems/rnas/1tob

>  <Rbt.Executable>
rbdock ($Id: //depot/dev/client3/rdock/2013.1/src/exe/rbdock.cxx#4 $)

>  <Rbt.Library>
libRbt.so (2013.1, Build901 2013/11/27)

>  <Rbt.Parameter_File>
/export/apps/rDock/src/rDock_2013.1_src/data/scripts/dock_solv.prm

>  <Rbt.Receptor>
prm/pocket_docking_2.prm

>  <SCORE>
-44.7937

>  <SCORE.INTER>
-42.1413

>  <SCORE.INTER.CONST>
1

>  <SCORE.INTER.POLAR>
-6.68002

>  <SCORE.INTER.ROT>
6

>  <SCORE.INTER.SOLV>
28.5501

>  <SCORE.INTER.VDW>
-22.9442

>  <SCORE.INTER.norm>
-1.31692

>  <SCORE.INTRA>
-2.65233

>  <SCORE.INTRA.DIHEDRAL>
2.20397

>  <SCORE.INTRA.DIHEDRAL.0>
22.9177

>  <SCORE.INTRA.POLAR>
-1.88041

>  <SCORE.INTRA.POLAR.0>
-0.311208

>  <SCORE.INTRA.REPUL>
0

>  <SCORE.INTRA.REPUL.0>
0

>  <SCORE.INTRA.SOLV>
1.74362

>  <SCORE.INTRA.SOLV.lig_0>
-132.657

>  <SCORE.INTRA.VDW>
1.76727

>  <SCORE.INTRA.VDW.0>
-4.68867

>  <SCORE.INTRA.norm>
-0.0828852

>  <SCORE.RESTR>
0

>  <SCORE.RESTR.CAVITY>
0

>  <SCORE.RESTR.norm>
0

>  <SCORE.SYSTEM>
0

>  <SCORE.SYSTEM.CONST>
0

>  <SCORE.SYSTEM.DIHEDRAL>
0

>  <SCORE.SYSTEM.SOLV>
0

>  <SCORE.SYSTEM.norm>
0

>  <SCORE.heavy>
32

>  <SCORE.norm>
-1.3998

>  <RMSD>
0.734

$$$$
1tob
 OpenBabel11021811413D
libRbt.so/2013.1/901 2013/11/27
 32 34  0  0  0  0  0  0  0  0999 V2000
   -2.0714    5.1371    2.9345 C   0  0  2  0  0  0  0  0  0  0  0  0
   -1.2192    4.0895    2.2221 C   0  0  1  0  0  0  0  0  0  0  0  0
   -1.1657    2.8177    3.0576 C   0  0  2  0  0  0  0  0  0  0  0  0
   -0.6546    3.1510    4.4541 C   0  0  1  0  0  0  0  0  0  0  0  0
   -1.5301    4.2317    5.0824 C   0  0  1  0  0  0  0  0  0  0  0  0
   -1.0259    4.6627    6.4457 C   0  0  0  0  0  0  0  0  0  0  0  0
   -1.7781    3.8024    0.9483 O   0  0  0  0  0  0  0  0  0  0  0  0
   -0.3405    1.7814    2.4000 N   0  3  0  0  0  0  0  0  0  0  0  0
   -0.6664    1.9818    5.2621 O   0  0  0  0  0  0  0  0  0  0  0  0
   -1.5475    5.4053    4.2412 O   0  0  0  0  0  0  0  0  0  0  0  0
   -2.0990    5.0035    7.3119 O   0  0  0  0  0  0  0  0  0  0  0  0
   -5.4149    4.5175    1.7850 C   0  0  2  0  0  0  0  0  0  0  0  0
   -6.4620    5.3365    1.0426 C   0  0  0  0  0  0  0  0  0  0  0  0
   -7.1194    6.3444    1.9858 C   0  0  1  0  0  0  0  0  0  0  0  0
   -6.0584    7.2825    2.5568 C   0  0  2  0  0  0  0  0  0  0  0  0
   -4.9927    6.4757    3.3000 C   0  0  1  0  0  0  0  0  0  0  0  0
   -4.3599    5.4498    2.3603 C   0  0  1  0  0  0  0  0  0  0  0  0
   -4.7522    3.5630    0.8695 N   0  3  0  0  0  0  0  0  0  0  0  0
   -8.1965    7.0772    1.2710 N   0  3  0  0  0  0  0  0  0  0  0  0
   -3.9925    7.3496    3.8059 O   0  0  0  0  0  0  0  0  0  0  0  0
   -3.3701    4.6831    3.0696 O   0  0  0  0  0  0  0  0  0  0  0  0
   -6.0363    9.4695    3.5469 C   0  0  1  0  0  0  0  0  0  0  0  0
   -6.3837   10.1408    4.8768 C   0  0  1  0  0  0  0  0  0  0  0  0
   -7.8769   10.4217    4.9517 C   0  0  0  0  0  0  0  0  0  0  0  0
   -8.2925   11.2468    3.7447 C   0  0  1  0  0  0  0  0  0  0  0  0
   -7.8923   10.5209    2.4607 C   0  0  1  0  0  0  0  0  0  0  0  0
   -8.2248   11.3161    1.2113 C   0  0  0  0  0  0  0  0  0  0  0  0
   -5.9132    9.3286    6.0238 N   0  3  0  0  0  0  0  0  0  0  0  0
   -7.3646   12.5170    1.0869 N   0  3  0  0  0  0  0  0  0  0  0  0
   -6.6665    8.2358    3.4523 O   0  0  0  0  0  0  0  0  0  0  0  0
   -9.6964   11.4604    3.7631 O   0  0  0  0  0  0  0  0  0  0  0  0
   -6.4683   10.2813    2.4480 O   0  0  0  0  0  0  0  0  0  0  0  0
  1  2  1  0  0  0  0
  1 10  1  0  0  0  0
  1 21  1  1  0  0  0
  2  3  1  0  0  0  0
  2  7  1  6  0  0  0
  3  4  1  0  0  0  0
  3  8  1  6  0  0  0
  4  5  1  0  0  0  0
  4  9  1  1  0  0  0
  5  6  1  1  0  0  0
  5 10  1  0  0  0  0
  6 11  1  0  0  0  0
 12 13  1  0  0  0  0
 12 17  1  0  0  0  0
 12 18  1  6  0  0  0
 13 14  1  0  0  0  0
 14 15  1  0  0  0  0
 14 19  1  6  0  0  0
 15 16  1  0  0  0  0
 15 30  1  1  0  0  0
 16 17  1  0  0  0  0
 16 20  1  6  0  0  0
 17 21  1  1  0  0  0
 22 23  1  0  0  0  0
 22 30  1  1  0  0  0
 22 32  1  0  0  0  0
 23 24  1  0  0  0  0
 23 28  1  1  0  0  0
 24 25  1  0  0  0  0
 25 26  1  0  0  0  0
 25 31  1  6  0  0  0
 26 27  1  6  0  0  0
 26 32  1  0  0  0  0
 27 29  1  0  0  0  0
M  CHG  5   8   1  18   1  19   1  28   1  29   1
M  END
>  <CHROM.1>
-116.06782033,59.94849869,-47.78092865,63.21309068,-146.18556347,142.52508502
155.67381234,-171.63275501,-150.65713241,-178.24157549,142.13082416,-156.58338655
21.46670369,174.73413267,69.29881629,178.77730409,-4.66012275,6.71288533
3.25103542,0.37677079,0.77086519,-2.20060419

>  <Name>
1tob

>  <RI>
0

>  <Rbt.Current_Directory>
/home/itssahil/PROJECTS/Mol_Feturizer/New_Systems/rnas/1tob

>  <Rbt.Executable>
rbdock ($Id: //depot/dev/client3/rdock/2013.1/src/exe/rbdock.cxx#4 $)

>  <Rbt.Library>
libRbt.so (2013.1, Build901 2013/11/27)

>  <Rbt.Parameter_File>
/export/apps/rDock/src/rDock_2013.1_src/data/scripts/dock_solv.prm

>  <Rbt.Receptor>
prm/pocket_docking_3.prm

>  <SCORE>
-51.5407

>  <SCORE.INTER>
-50.2698

>  <SCORE.INTER.CONST>
1

>  <SCORE.INTER.POLAR>
-8.02455

>  <SCORE.INTER.ROT>
6

>  <SCORE.INTER.SOLV>
30.1117

>  <SCORE.INTER.VDW>
-24.402

>  <SCORE.INTER.norm>
-1.57093

>  <SCORE.INTRA>
-1.27084

>  <SCORE.INTRA.DIHEDRAL>
8.04912

>  <SCORE.INTRA.DIHEDRAL.0>
22.9177

>  <SCORE.INTRA.POLAR>
-1.36434

>  <SCORE.INTRA.POLAR.0>
-0.311208

>  <SCORE.INTRA.REPUL>
0

>  <SCORE.INTRA.REPUL.0>
0

>  <SCORE.INTRA.SOLV>
-1.46129

>  <SCORE.INTRA.SOLV.lig_0>
-132.657

>  <SCORE.INTRA.VDW>
0.0740206

>  <SCORE.INTRA.VDW.0>
-4.68867

>  <SCORE.INTRA.norm>
-0.0397136

>  <SCORE.RESTR>
0

>  <SCORE.RESTR.CAVITY>
0

>  <SCORE.RESTR.norm>
0

>  <SCORE.SYSTEM>
0

>  <SCORE.SYSTEM.CONST>
0

>  <SCORE.SYSTEM.DIHEDRAL>
0

>  <SCORE.SYSTEM.SOLV>
0

>  <SCORE.SYSTEM.norm>
0

>  <SCORE.heavy>
32

>  <SCORE.norm>
-1.61065

>  <RMSD>
0.770

$$$$
1tob
 OpenBabel11021811413D
libRbt.so/2013.1/901 2013/11/27
 32 34  0  0  0  0  0  0  0  0999 V2000
   -2.0260    5.3580    3.3653 C   0  0  2  0  0  0  0  0  0  0  0  0
   -1.3504    4.6421    2.1983 C   0  0  1  0  0  0  0  0  0  0  0  0
   -1.2051    3.1610    2.5202 C   0  0  2  0  0  0  0  0  0  0  0  0
   -0.4499    3.0006    3.8341 C   0  0  1  0  0  0  0  0  0  0  0  0
   -1.1615    3.7763    4.9392 C   0  0  1  0  0  0  0  0  0  0  0  0
   -0.4148    3.7189    6.2574 C   0  0  0  0  0  0  0  0  0  0  0  0
   -2.1299    4.8021    1.0217 O   0  0  0  0  0  0  0  0  0  0  0  0
   -0.5463    2.4360    1.4121 N   0  3  0  0  0  0  0  0  0  0  0  0
   -0.3695    1.6238    4.1775 O   0  0  0  0  0  0  0  0  0  0  0  0
   -1.2761    5.1681    4.5718 O   0  0  0  0  0  0  0  0  0  0  0  0
   -0.9695    4.6176    7.2075 O   0  0  0  0  0  0  0  0  0  0  0  0
   -5.1938    4.1529    2.2267 C   0  0  2  0  0  0  0  0  0  0  0  0
   -6.2357    4.6412    1.2296 C   0  0  0  0  0  0  0  0  0  0  0  0
   -7.0640    5.7751    1.8344 C   0  0  1  0  0  0  0  0  0  0  0  0
   -6.1475    6.9360    2.2139 C   0  0  2  0  0  0  0  0  0  0  0  0
   -5.0881    6.4616    3.2099 C   0  0  1  0  0  0  0  0  0  0  0  0
   -4.2830    5.3087    2.6114 C   0  0  1  0  0  0  0  0  0  0  0  0
   -4.3674    3.0779    1.6352 N   0  3  0  0  0  0  0  0  0  0  0  0
   -8.1307    6.1841    0.8842 N   0  3  0  0  0  0  0  0  0  0  0  0
   -4.2201    7.5379    3.5392 O   0  0  0  0  0  0  0  0  0  0  0  0
   -3.2994    4.8562    3.5593 O   0  0  0  0  0  0  0  0  0  0  0  0
   -6.3009    9.2546    2.8176 C   0  0  1  0  0  0  0  0  0  0  0  0
   -6.5691    9.9493    4.1538 C   0  0  1  0  0  0  0  0  0  0  0  0
   -8.0581   10.2115    4.3223 C   0  0  0  0  0  0  0  0  0  0  0  0
   -8.5651   11.0052    3.1292 C   0  0  1  0  0  0  0  0  0  0  0  0
   -8.2403   10.2576    1.8364 C   0  0  1  0  0  0  0  0  0  0  0  0
   -8.6668   11.0215    0.5960 C   0  0  0  0  0  0  0  0  0  0  0  0
   -6.0115    9.1680    5.2830 N   0  3  0  0  0  0  0  0  0  0  0  0
  -10.1423   11.1371    0.5099 N   0  3  0  0  0  0  0  0  0  0  0  0
   -6.9176    8.0108    2.7902 O   0  0  0  0  0  0  0  0  0  0  0  0
   -9.9677   11.2002    3.2368 O   0  0  0  0  0  0  0  0  0  0  0  0
   -6.8169   10.0369    1.7336 O   0  0  0  0  0  0  0  0  0  0  0  0
  1  2  1  0  0  0  0
  1 10  1  0  0  0  0
  1 21  1  1  0  0  0
  2  3  1  0  0  0  0
  2  7  1  6  0  0  0
  3  4  1  0  0  0  0
  3  8  1  6  0  0  0
  4  5  1  0  0  0  0
  4  9  1  1  0  0  0
  5  6  1  1  0  0  0
  5 10  1  0  0  0  0
  6 11  1  0  0  0  0
 12 13  1  0  0  0  0
 12 17  1  0  0  0  0
 12 18  1  6  0  0  0
 13 14  1  0  0  0  0
 14 15  1  0  0  0  0
 14 19  1  6  0  0  0
 15 16  1  0  0  0  0
 15 30  1  1  0  0  0
 16 17  1  0  0  0  0
 16 20  1  6  0  0  0
 17 21  1  1  0  0  0
 22 23  1  0  0  0  0
 22 30  1  1  0  0  0
 22 32  1  0  0  0  0
 23 24  1  0  0  0  0
 23 28  1  1  0  0  0
 24 25  1  0  0  0  0
 25 26  1  0  0  0  0
 25 31  1  1  0  0  0
 26 27  1  6  0  0  0
 26 32  1  0  0  0  0
 27 29  1  0  0  0  0
M  CHG  5   8   1  18   1  19   1  28   1  29   1
M  END
>  <CHROM.1>
-76.44610523,64.42796706,-90.41288510,-55.92820419,170.42587122,-60.02067958
-35.94765536,-165.08984391,-161.75130977,-61.11503823,139.57481224,-138.26860147
-4.09952326,63.38488696,-66.55546077,163.22045480,-4.75702462,6.50934450
2.96018531,-0.34130576,-0.68913999,0.84919033

>  <Name>
1tob

>  <RI>
0

>  <Rbt.Current_Directory>
/home/itssahil/PROJECTS/Mol_Feturizer/New_Systems/rnas/1tob

>  <Rbt.Executable>
rbdock ($Id: //depot/dev/client3/rdock/2013.1/src/exe/rbdock.cxx#4 $)

>  <Rbt.Library>
libRbt.so (2013.1, Build901 2013/11/27)

>  <Rbt.Parameter_File>
/export/apps/rDock/src/rDock_2013.1_src/data/scripts/dock_solv.prm

>  <Rbt.Receptor>
prm/pocket_docking_2.prm

>  <SCORE>
-52.5898

>  <SCORE.INTER>
-45.9375

>  <SCORE.INTER.CONST>
1

>  <SCORE.INTER.POLAR>
-6.96615

>  <SCORE.INTER.ROT>
6

>  <SCORE.INTER.SOLV>
29.4002

>  <SCORE.INTER.VDW>
-24.8046

>  <SCORE.INTER.norm>
-1.43555

>  <SCORE.INTRA>
-6.88881

>  <SCORE.INTRA.DIHEDRAL>
-0.298022

>  <SCORE.INTRA.DIHEDRAL.0>
22.9177

>  <SCORE.INTRA.POLAR>
-2.58751

>  <SCORE.INTRA.POLAR.0>
-0.311208

>  <SCORE.INTRA.REPUL>
0

>  <SCORE.INTRA.REPUL.0>
0

>  <SCORE.INTRA.SOLV>
1.43016

>  <SCORE.INTRA.SOLV.lig_0>
-132.657

>  <SCORE.INTRA.VDW>
1.34267

>  <SCORE.INTRA.VDW.0>
-4.68867

>  <SCORE.INTRA.norm>
-0.215275

>  <SCORE.RESTR>
0.236536

>  <SCORE.RESTR.CAVITY>
0.236536

>  <SCORE.RESTR.norm>
0.00739175

>  <SCORE.SYSTEM>
0

>  <SCORE.SYSTEM.CONST>
0

>  <SCORE.SYSTEM.DIHEDRAL>
0

>  <SCORE.SYSTEM.SOLV>
0

>  <SCORE.SYSTEM.norm>
0

>  <SCORE.heavy>
32

>  <SCORE.norm>
-1.64343

>  <RMSD>
0.807

$$$$
1tob
 OpenBabel11021811413D
libRbt.so/2013.1/901 2013/11/27
 32 34  0  0  0  0  0  0  0  0999 V2000
   -2.1977    5.3400    3.5909 C   0  0  2  0  0  0  0  0  0  0  0  0
   -1.5961    4.5096    2.4597 C   0  0  1  0  0  0  0  0  0  0  0  0
   -1.6032    3.0366    2.8451 C   0  0  2  0  0  0  0  0  0  0  0  0
   -0.8709    2.8568    4.1695 C   0  0  1  0  0  0  0  0  0  0  0  0
   -1.5021    3.7475    5.2360 C   0  0  1  0  0  0  0  0  0  0  0  0
   -0.7679    3.6711    6.5603 C   0  0  0  0  0  0  0  0  0  0  0  0
   -2.3528    4.6975    1.2724 O   0  0  0  0  0  0  0  0  0  0  0  0
   -1.0194    2.2016    1.7731 N   0  3  0  0  0  0  0  0  0  0  0  0
   -0.9321    1.4949    4.5716 O   0  0  0  0  0  0  0  0  0  0  0  0
   -1.4734    5.1267    4.8091 O   0  0  0  0  0  0  0  0  0  0  0  0
   -1.0665    2.4658    7.2504 O   0  0  0  0  0  0  0  0  0  0  0  0
   -5.3754    4.3859    2.3662 C   0  0  2  0  0  0  0  0  0  0  0  0
   -6.3627    4.9440    1.3503 C   0  0  0  0  0  0  0  0  0  0  0  0
   -7.1815    6.0778    1.9680 C   0  0  1  0  0  0  0  0  0  0  0  0
   -6.2479    7.1949    2.4288 C   0  0  2  0  0  0  0  0  0  0  0  0
   -5.2428    6.6502    3.4449 C   0  0  1  0  0  0  0  0  0  0  0  0
   -4.4479    5.4978    2.8318 C   0  0  1  0  0  0  0  0  0  0  0  0
   -4.5574    3.3105    1.7640 N   0  3  0  0  0  0  0  0  0  0  0  0
   -8.1976    6.5557    0.9947 N   0  3  0  0  0  0  0  0  0  0  0  0
   -4.3581    7.6861    3.8503 O   0  0  0  0  0  0  0  0  0  0  0  0
   -3.5159    4.9791    3.7978 O   0  0  0  0  0  0  0  0  0  0  0  0
   -6.3471    9.4823    3.1512 C   0  0  1  0  0  0  0  0  0  0  0  0
   -6.6964   10.1317    4.4914 C   0  0  1  0  0  0  0  0  0  0  0  0
   -8.1824   10.4519    4.5509 C   0  0  0  0  0  0  0  0  0  0  0  0
   -8.5567   11.3162    3.3578 C   0  0  1  0  0  0  0  0  0  0  0  0
   -8.1568   10.6096    2.0630 C   0  0  1  0  0  0  0  0  0  0  0  0
   -8.4482   11.4427    0.8280 C   0  0  0  0  0  0  0  0  0  0  0  0
   -6.2660    9.2803    5.6255 N   0  3  0  0  0  0  0  0  0  0  0  0
   -9.9058   11.6206    0.6244 N   0  3  0  0  0  0  0  0  0  0  0  0
   -7.0092    8.2690    3.0179 O   0  0  0  0  0  0  0  0  0  0  0  0
   -9.9543   11.5680    3.3606 O   0  0  0  0  0  0  0  0  0  0  0  0
   -6.7398   10.3311    2.0656 O   0  0  0  0  0  0  0  0  0  0  0  0
  1  2  1  0  0  0  0
  1 10  1  0  0  0  0
  1 21  1  1  0  0  0
  2  3  1  0  0  0  0
  2  7  1  6  0  0  0
  3  4  1  0  0  0  0
  3  8  1  6  0  0  0
  4  5  1  0  0  0  0
  4  9  1  1  0  0  0
  5  6  1  1  0  0  0
  5 10  1  0  0  0  0
  6 11  1  0  0  0  0
 12 13  1  0  0  0  0
 12 17  1  0  0  0  0
 12 18  1  6  0  0  0
 13 14  1  0  0  0  0
 14 15  1  0  0  0  0
 14 19  1  6  0  0  0
 15 16  1  0  0  0  0
 15 30  1  1  0  0  0
 16 17  1  0  0  0  0
 16 20  1  6  0  0  0
 17 21  1  1  0  0  0
 22 23  1  0  0  0  0
 22 30  1  6  0  0  0
 22 32  1  0  0  0  0
 23 24  1  0  0  0  0
 23 28  1  1  0  0  0
 24 25  1  0  0  0  0
 25 26  1  0  0  0  0
 25 31  1  6  0  0  0
 26 27  1  6  0  0  0
 26 32  1  0  0  0  0
 27 29  1  0  0  0  0
M  CHG  5   8   1  18   1  19   1  28   1  29   1
M  END
>  <CHROM.1>
-76.95955563,169.24329582,72.74721020,65.70002191,-76.02628955,-120.63989205
-38.58998129,67.29065788,-163.37837051,-67.66698399,133.20372069,-139.66523876
-48.92468628,-49.09893184,-66.85386576,173.03065328,-4.90881844,6.56634154
3.19539609,-0.31361894,-0.77842438,0.92337818

>  <Name>
1tob

>  <RI>
0

>  <Rbt.Current_Directory>
/home/itssahil/PROJECTS/Mol_Feturizer/New_Systems/rnas/1tob

>  <Rbt.Executable>
rbdock ($Id: //depot/dev/client3/rdock/2013.1/src/exe/rbdock.cxx#4 $)

>  <Rbt.Library>
libRbt.so (2013.1, Build901 2013/11/27)

>  <Rbt.Parameter_File>
/export/apps/rDock/src/rDock_2013.1_src/data/scripts/dock_solv.prm

>  <Rbt.Receptor>
prm/pocket_docking_5.prm

>  <SCORE>
-52.3135

>  <SCORE.INTER>
-52.0993

>  <SCORE.INTER.CONST>
1

>  <SCORE.INTER.POLAR>
-8.19535

>  <SCORE.INTER.ROT>
6

>  <SCORE.INTER.SOLV>
27.5848

>  <SCORE.INTER.VDW>
-24.2099

>  <SCORE.INTER.norm>
-1.6281

>  <SCORE.INTRA>
-0.214295

>  <SCORE.INTRA.DIHEDRAL>
3.39372

>  <SCORE.INTRA.DIHEDRAL.0>
22.9177

>  <SCORE.INTRA.POLAR>
-1.27056

>  <SCORE.INTRA.POLAR.0>
-0.311208

>  <SCORE.INTRA.REPUL>
0.00585567

>  <SCORE.INTRA.REPUL.0>
0

>  <SCORE.INTRA.SOLV>
3.63623

>  <SCORE.INTRA.SOLV.lig_0>
-132.657

>  <SCORE.INTRA.VDW>
0.561366

>  <SCORE.INTRA.VDW.0>
-4.68867

>  <SCORE.INTRA.norm>
-0.00669672

>  <SCORE.RESTR>
0

>  <SCORE.RESTR.CAVITY>
0

>  <SCORE.RESTR.norm>
0

>  <SCORE.SYSTEM>
0

>  <SCORE.SYSTEM.CONST>
0

>  <SCORE.SYSTEM.DIHEDRAL>
0

>  <SCORE.SYSTEM.SOLV>
0

>  <SCORE.SYSTEM.norm>
0

>  <SCORE.heavy>
32

>  <SCORE.norm>
-1.6348

>  <RMSD>
0.810

$$$$
1tob
 OpenBabel11021811413D
libRbt.so/2013.1/901 2013/11/27
 32 34  0  0  0  0  0  0  0  0999 V2000
   -2.1304    5.3686    3.6660 C   0  0  2  0  0  0  0  0  0  0  0  0
   -1.3406    4.7346    2.5235 C   0  0  1  0  0  0  0  0  0  0  0  0
   -1.1680    3.2445    2.7846 C   0  0  2  0  0  0  0  0  0  0  0  0
   -0.5123    3.0419    4.1453 C   0  0  1  0  0  0  0  0  0  0  0  0
   -1.3353    3.7376    5.2260 C   0  0  1  0  0  0  0  0  0  0  0  0
   -0.6922    3.6374    6.5953 C   0  0  0  0  0  0  0  0  0  0  0  0
   -2.0311    4.9291    1.2975 O   0  0  0  0  0  0  0  0  0  0  0  0
   -0.3992    2.5979    1.6991 N   0  3  0  0  0  0  0  0  0  0  0  0
   -0.4098    1.6527    4.4276 O   0  0  0  0  0  0  0  0  0  0  0  0
   -1.4705    5.1418    4.9178 O   0  0  0  0  0  0  0  0  0  0  0  0
   -1.0020    2.4022    7.2250 O   0  0  0  0  0  0  0  0  0  0  0  0
   -5.2702    4.2438    2.3128 C   0  0  2  0  0  0  0  0  0  0  0  0
   -6.2740    4.8179    1.3223 C   0  0  0  0  0  0  0  0  0  0  0  0
   -7.0920    5.9322    1.9756 C   0  0  1  0  0  0  0  0  0  0  0  0
   -6.1596    7.0448    2.4494 C   0  0  2  0  0  0  0  0  0  0  0  0
   -5.1381    6.4843    3.4401 C   0  0  1  0  0  0  0  0  0  0  0  0
   -4.3439    5.3512    2.7913 C   0  0  1  0  0  0  0  0  0  0  0  0
   -4.4532    3.1875    1.6763 N   0  3  0  0  0  0  0  0  0  0  0  0
   -8.1236    6.4248    1.0263 N   0  3  0  0  0  0  0  0  0  0  0  0
   -4.2549    7.5167    3.8573 O   0  0  0  0  0  0  0  0  0  0  0  0
   -3.3962    4.8173    3.7335 O   0  0  0  0  0  0  0  0  0  0  0  0
   -6.2889    9.3341    3.1609 C   0  0  1  0  0  0  0  0  0  0  0  0
   -6.6846   10.0389    4.4596 C   0  0  1  0  0  0  0  0  0  0  0  0
   -8.1785   10.3264    4.4696 C   0  0  0  0  0  0  0  0  0  0  0  0
   -8.5436   11.1230    3.2277 C   0  0  1  0  0  0  0  0  0  0  0  0
   -8.0971   10.3645    1.9783 C   0  0  1  0  0  0  0  0  0  0  0  0
   -8.3777   11.1300    0.6979 C   0  0  0  0  0  0  0  0  0  0  0  0
   -6.2622    9.2536    5.6434 N   0  3  0  0  0  0  0  0  0  0  0  0
   -9.8337   11.2588    0.4501 N   0  3  0  0  0  0  0  0  0  0  0  0
   -6.9201    8.1005    3.0720 O   0  0  0  0  0  0  0  0  0  0  0  0
   -9.9462   11.3415    3.1865 O   0  0  0  0  0  0  0  0  0  0  0  0
   -6.6747   10.1201    2.0266 O   0  0  0  0  0  0  0  0  0  0  0  0
  1  2  1  0  0  0  0
  1 10  1  0  0  0  0
  1 21  1  1  0  0  0
  2  3  1  0  0  0  0
  2  7  1  6  0  0  0
  3  4  1  0  0  0  0
  3  8  1  6  0  0  0
  4  5  1  0  0  0  0
  4  9  1  1  0  0  0
  5  6  1  1  0  0  0
  5 10  1  0  0  0  0
  6 11  1  0  0  0  0
 12 13  1  0  0  0  0
 12 17  1  0  0  0  0
 12 18  1  6  0  0  0
 13 14  1  0  0  0  0
 14 15  1  0  0  0  0
 14 19  1  6  0  0  0
 15 16  1  0  0  0  0
 15 30  1  1  0  0  0
 16 17  1  0  0  0  0
 16 20  1  6  0  0  0
 17 21  1  1  0  0  0
 22 23  1  0  0  0  0
 22 30  1  6  0  0  0
 22 32  1  0  0  0  0
 23 24  1  0  0  0  0
 23 28  1  1  0  0  0
 24 25  1  0  0  0  0
 25 26  1  0  0  0  0
 25 31  1  6  0  0  0
 26 27  1  6  0  0  0
 26 32  1  0  0  0  0
 27 29  1  0  0  0  0
M  CHG  5   8   1  18   1  19   1  28   1  29   1
M  END
>  <CHROM.1>
-80.45957906,170.19803803,-68.02638417,-45.82437976,-83.06572593,-125.42756845
-39.80368423,65.81485628,-160.14792684,166.95392089,143.99917394,-144.71791150
-169.66150484,66.09250993,-67.06835643,46.35437488,-4.77374457,6.50048779
3.16867395,-0.25424707,-0.75661536,0.97650750

>  <Name>
1tob

>  <RI>
0

>  <Rbt.Current_Directory>
/home/itssahil/PROJECTS/Mol_Feturizer/New_Systems/rnas/1tob

>  <Rbt.Executable>
rbdock ($Id: //depot/dev/client3/rdock/2013.1/src/exe/rbdock.cxx#4 $)

>  <Rbt.Library>
libRbt.so (2013.1, Build901 2013/11/27)

>  <Rbt.Parameter_File>
/export/apps/rDock/src/rDock_2013.1_src/data/scripts/dock_solv.prm

>  <Rbt.Receptor>
prm/pocket_docking_2.prm

>  <SCORE>
-52.1845

>  <SCORE.INTER>
-49.7932

>  <SCORE.INTER.CONST>
1

>  <SCORE.INTER.POLAR>
-7.65154

>  <SCORE.INTER.ROT>
6

>  <SCORE.INTER.SOLV>
29.3143

>  <SCORE.INTER.VDW>
-25.0617

>  <SCORE.INTER.norm>
-1.55604

>  <SCORE.INTRA>
-3.16605

>  <SCORE.INTRA.DIHEDRAL>
3.38875

>  <SCORE.INTRA.DIHEDRAL.0>
22.9177

>  <SCORE.INTRA.POLAR>
-1.47067

>  <SCORE.INTRA.POLAR.0>
-0.311208

>  <SCORE.INTRA.REPUL>
0

>  <SCORE.INTRA.REPUL.0>
0

>  <SCORE.INTRA.SOLV>
1.10099

>  <SCORE.INTRA.SOLV.lig_0>
-132.657

>  <SCORE.INTRA.VDW>
-0.410632

>  <SCORE.INTRA.VDW.0>
-4.68867

>  <SCORE.INTRA.norm>
-0.098939

>  <SCORE.RESTR>
0.774696

>  <SCORE.RESTR.CAVITY>
0.774696

>  <SCORE.RESTR.norm>
0.0242093

>  <SCORE.SYSTEM>
0

>  <SCORE.SYSTEM.CONST>
0

>  <SCORE.SYSTEM.DIHEDRAL>
0

>  <SCORE.SYSTEM.SOLV>
0

>  <SCORE.SYSTEM.norm>
0

>  <SCORE.heavy>
32

>  <SCORE.norm>
-1.63077

>  <RMSD>
0.869

$$$$
1tob
 OpenBabel11021811413D
libRbt.so/2013.1/901 2013/11/27
 32 34  0  0  0  0  0  0  0  0999 V2000
   -2.4229    5.0349    2.4435 C   0  0  2  0  0  0  0  0  0  0  0  0
   -1.6994    3.8151    1.8779 C   0  0  1  0  0  0  0  0  0  0  0  0
   -1.6661    2.7085    2.9231 C   0  0  2  0  0  0  0  0  0  0  0  0
   -1.0279    3.2389    4.2014 C   0  0  1  0  0  0  0  0  0  0  0  0
   -1.7788    4.4784    4.6800 C   0  0  1  0  0  0  0  0  0  0  0  0
   -1.1435    5.0996    5.9085 C   0  0  0  0  0  0  0  0  0  0  0  0
   -2.3727    3.3551    0.7148 O   0  0  0  0  0  0  0  0  0  0  0  0
   -0.9646    1.5115    2.4109 N   0  3  0  0  0  0  0  0  0  0  0  0
   -1.0548    2.2333    5.2054 O   0  0  0  0  0  0  0  0  0  0  0  0
   -1.7831    5.4848    3.6445 O   0  0  0  0  0  0  0  0  0  0  0  0
   -1.3735    4.3102    7.0669 O   0  0  0  0  0  0  0  0  0  0  0  0
   -5.7163    4.5284    1.3638 C   0  0  2  0  0  0  0  0  0  0  0  0
   -6.7636    5.3386    0.6121 C   0  0  0  0  0  0  0  0  0  0  0  0
   -7.4989    6.2787    1.5675 C   0  0  1  0  0  0  0  0  0  0  0  0
   -6.5006    7.2307    2.2225 C   0  0  2  0  0  0  0  0  0  0  0  0
   -5.4352    6.4333    2.9764 C   0  0  1  0  0  0  0  0  0  0  0  0
   -4.7239    5.4741    2.0226 C   0  0  1  0  0  0  0  0  0  0  0  0
   -4.9788    3.6405    0.4385 N   0  3  0  0  0  0  0  0  0  0  0  0
   -8.5739    7.0006    0.8385 N   0  3  0  0  0  0  0  0  0  0  0  0
   -4.4924    7.3217    3.5611 O   0  0  0  0  0  0  0  0  0  0  0  0
   -3.7345    4.7154    2.7410 O   0  0  0  0  0  0  0  0  0  0  0  0
   -6.6793    9.4120    3.2094 C   0  0  1  0  0  0  0  0  0  0  0  0
   -6.9857   10.0165    4.5807 C   0  0  1  0  0  0  0  0  0  0  0  0
   -8.4891   10.1353    4.7807 C   0  0  0  0  0  0  0  0  0  0  0  0
   -9.0853   10.9348    3.6337 C   0  0  1  0  0  0  0  0  0  0  0  0
   -8.7172   10.2807    2.3025 C   0  0  1  0  0  0  0  0  0  0  0  0
   -9.2314   11.0602    1.1058 C   0  0  0  0  0  0  0  0  0  0  0  0
   -6.3412    9.2369    5.6639 N   0  3  0  0  0  0  0  0  0  0  0  0
   -9.2810   10.2159   -0.1117 N   0  3  0  0  0  0  0  0  0  0  0  0
   -7.1826    8.1203    3.1302 O   0  0  0  0  0  0  0  0  0  0  0  0
  -10.4977   10.9974    3.7686 O   0  0  0  0  0  0  0  0  0  0  0  0
   -7.2817   10.1944    2.1710 O   0  0  0  0  0  0  0  0  0  0  0  0
  1  2  1  0  0  0  0
  1 10  1  0  0  0  0
  1 21  1  1  0  0  0
  2  3  1  0  0  0  0
  2  7  1  6  0  0  0
  3  4  1  0  0  0  0
  3  8  1  6  0  0  0
  4  5  1  0  0  0  0
  4  9  1  1  0  0  0
  5  6  1  1  0  0  0
  5 10  1  0  0  0  0
  6 11  1  0  0  0  0
 12 13  1  0  0  0  0
 12 17  1  0  0  0  0
 12 18  1  6  0  0  0
 13 14  1  0  0  0  0
 14 15  1  0  0  0  0
 14 19  1  6  0  0  0
 15 16  1  0  0  0  0
 15 30  1  1  0  0  0
 16 17  1  0  0  0  0
 16 20  1  6  0  0  0
 17 21  1  1  0  0  0
 22 23  1  0  0  0  0
 22 30  1  1  0  0  0
 22 32  1  0  0  0  0
 23 24  1  0  0  0  0
 23 28  1  1  0  0  0
 24 25  1  0  0  0  0
 25 26  1  0  0  0  0
 25 31  1  1  0  0  0
 26 27  1  6  0  0  0
 26 32  1  0  0  0  0
 27 29  1  0  0  0  0
M  CHG  5   8   1  18   1  19   1  28   1  29   1
M  END
>  <CHROM.1>
-119.30246241,-175.77392560,50.78897803,-168.83799456,-72.77095879,-176.88158023
35.37140446,69.26586690,-144.88527891,73.24201772,128.15866143,-152.93170711
69.67028617,-72.80901650,-160.61507833,-175.60908900,-5.16035531,6.52930681
2.93129823,0.31230021,0.70457058,-2.18589035

>  <Name>
1tob

>  <RI>
0

>  <Rbt.Current_Directory>
/home/itssahil/PROJECTS/Mol_Feturizer/New_Systems/rnas/1tob

>  <Rbt.Executable>
rbdock ($Id: //depot/dev/client3/rdock/2013.1/src/exe/rbdock.cxx#4 $)

>  <Rbt.Library>
libRbt.so (2013.1, Build901 2013/11/27)

>  <Rbt.Parameter_File>
/export/apps/rDock/src/rDock_2013.1_src/data/scripts/dock_solv.prm

>  <Rbt.Receptor>
prm/pocket_docking_2.prm

>  <SCORE>
-49.6224

>  <SCORE.INTER>
-48.9459

>  <SCORE.INTER.CONST>
1

>  <SCORE.INTER.POLAR>
-7.98592

>  <SCORE.INTER.ROT>
6

>  <SCORE.INTER.SOLV>
27.0269

>  <SCORE.INTER.VDW>
-22.6198

>  <SCORE.INTER.norm>
-1.52956

>  <SCORE.INTRA>
-0.979031

>  <SCORE.INTRA.DIHEDRAL>
4.7865

>  <SCORE.INTRA.DIHEDRAL.0>
22.9177

>  <SCORE.INTRA.POLAR>
-1.47465

>  <SCORE.INTRA.POLAR.0>
-0.311208

>  <SCORE.INTRA.REPUL>
0

>  <SCORE.INTRA.REPUL.0>
0

>  <SCORE.INTRA.SOLV>
3.44847

>  <SCORE.INTRA.SOLV.lig_0>
-132.657

>  <SCORE.INTRA.VDW>
-0.0827205

>  <SCORE.INTRA.VDW.0>
-4.68867

>  <SCORE.INTRA.norm>
-0.0305947

>  <SCORE.RESTR>
0.302609

>  <SCORE.RESTR.CAVITY>
0.302609

>  <SCORE.RESTR.norm>
0.00945652

>  <SCORE.SYSTEM>
0

>  <SCORE.SYSTEM.CONST>
0

>  <SCORE.SYSTEM.DIHEDRAL>
0

>  <SCORE.SYSTEM.SOLV>
0

>  <SCORE.SYSTEM.norm>
0

>  <SCORE.heavy>
32

>  <SCORE.norm>
-1.5507

>  <RMSD>
0.871

$$$$
1tob
 OpenBabel11021811413D
libRbt.so/2013.1/901 2013/11/27
 32 34  0  0  0  0  0  0  0  0999 V2000
   -1.9998    5.2798    3.5737 C   0  0  2  0  0  0  0  0  0  0  0  0
   -1.2966    4.6356    2.3813 C   0  0  1  0  0  0  0  0  0  0  0  0
   -1.1457    3.1397    2.6219 C   0  0  2  0  0  0  0  0  0  0  0  0
   -0.4141    2.9104    3.9390 C   0  0  1  0  0  0  0  0  0  0  0  0
   -1.1526    3.6175    5.0722 C   0  0  1  0  0  0  0  0  0  0  0  0
   -0.4305    3.4908    6.3992 C   0  0  0  0  0  0  0  0  0  0  0  0
   -2.0550    4.8566    1.2008 O   0  0  0  0  0  0  0  0  0  0  0  0
   -0.4604    2.4831    1.4876 N   0  3  0  0  0  0  0  0  0  0  0  0
   -0.3294    1.5170    4.2057 O   0  0  0  0  0  0  0  0  0  0  0  0
   -1.2712    5.0270    4.7817 O   0  0  0  0  0  0  0  0  0  0  0  0
   -1.0103    4.3303    7.3877 O   0  0  0  0  0  0  0  0  0  0  0  0
   -5.1387    4.1397    2.3027 C   0  0  2  0  0  0  0  0  0  0  0  0
   -6.1702    4.6914    1.3280 C   0  0  0  0  0  0  0  0  0  0  0  0
   -7.0195    5.7692    2.0021 C   0  0  1  0  0  0  0  0  0  0  0  0
   -6.1211    6.9070    2.4818 C   0  0  2  0  0  0  0  0  0  0  0  0
   -5.0724    6.3695    3.4567 C   0  0  1  0  0  0  0  0  0  0  0  0
   -4.2461    5.2719    2.7871 C   0  0  1  0  0  0  0  0  0  0  0  0
   -4.2921    3.1196    1.6462 N   0  3  0  0  0  0  0  0  0  0  0  0
   -8.0756    6.2381    1.0679 N   0  3  0  0  0  0  0  0  0  0  0  0
   -4.2208    7.4261    3.8792 O   0  0  0  0  0  0  0  0  0  0  0  0
   -3.2725    4.7591    3.7144 O   0  0  0  0  0  0  0  0  0  0  0  0
   -6.3514    9.1988    3.1588 C   0  0  1  0  0  0  0  0  0  0  0  0
   -6.7788    9.9311    4.4320 C   0  0  1  0  0  0  0  0  0  0  0  0
   -8.2866   10.1329    4.4434 C   0  0  0  0  0  0  0  0  0  0  0  0
   -8.7046   10.8572    3.1741 C   0  0  1  0  0  0  0  0  0  0  0  0
   -8.2231   10.0763    1.9519 C   0  0  1  0  0  0  0  0  0  0  0  0
   -8.5551   10.7728    0.6447 C   0  0  0  0  0  0  0  0  0  0  0  0
   -6.3047    9.2190    5.6422 N   0  3  0  0  0  0  0  0  0  0  0  0
  -10.0196   10.8540    0.4293 N   0  3  0  0  0  0  0  0  0  0  0  0
   -6.9112    7.9286    3.1240 O   0  0  0  0  0  0  0  0  0  0  0  0
  -10.1177   10.9935    3.1362 O   0  0  0  0  0  0  0  0  0  0  0  0
   -6.7887    9.9156    1.9977 O   0  0  0  0  0  0  0  0  0  0  0  0
  1  2  1  0  0  0  0
  1 10  1  0  0  0  0
  1 21  1  1  0  0  0
  2  3  1  0  0  0  0
  2  7  1  6  0  0  0
  3  4  1  0  0  0  0
  3  8  1  6  0  0  0
  4  5  1  0  0  0  0
  4  9  1  1  0  0  0
  5  6  1  1  0  0  0
  5 10  1  0  0  0  0
  6 11  1  0  0  0  0
 12 13  1  0  0  0  0
 12 17  1  0  0  0  0
 12 18  1  6  0  0  0
 13 14  1  0  0  0  0
 14 15  1  0  0  0  0
 14 19  1  6  0  0  0
 15 16  1  0  0  0  0
 15 30  1  1  0  0  0
 16 17  1  0  0  0  0
 16 20  1  6  0  0  0
 17 21  1  1  0  0  0
 22 23  1  0  0  0  0
 22 30  1  1  0  0  0
 22 32  1  0  0  0  0
 23 24  1  0  0  0  0
 23 28  1  1  0  0  0
 24 25  1  0  0  0  0
 25 26  1  0  0  0  0
 25 31  1  6  0  0  0
 26 27  1  6  0  0  0
 26 32  1  0  0  0  0
 27 29  1  0  0  0  0
M  CHG  5   8   1  18   1  19   1  28   1  29   1
M  END
>  <CHROM.1>
-77.29415183,174.98934481,19.17512046,-174.44627985,170.43513429,99.73883697
83.84825637,79.21090908,-156.80532043,-178.91210357,139.19768282,-147.47423460
69.92257023,70.29959132,-64.90356885,172.87026725,-4.75531058,6.42003461
3.12044458,-0.26914988,-0.70499581,0.95187049

>  <Name>
1tob

>  <RI>
0

>  <Rbt.Current_Directory>
/home/itssahil/PROJECTS/Mol_Feturizer/New_Systems/rnas/1tob

>  <Rbt.Executable>
rbdock ($Id: //depot/dev/client3/rdock/2013.1/src/exe/rbdock.cxx#4 $)

>  <Rbt.Library>
libRbt.so (2013.1, Build901 2013/11/27)

>  <Rbt.Parameter_File>
/export/apps/rDock/src/rDock_2013.1_src/data/scripts/dock_solv.prm

>  <Rbt.Receptor>
prm/pocket_docking_2.prm

>  <SCORE>
-49.7752

>  <SCORE.INTER>
-48.539

>  <SCORE.INTER.CONST>
1

>  <SCORE.INTER.POLAR>
-7.60419

>  <SCORE.INTER.ROT>
6

>  <SCORE.INTER.SOLV>
30.6068

>  <SCORE.INTER.VDW>
-24.8143

>  <SCORE.INTER.norm>
-1.51684

>  <SCORE.INTRA>
-1.5276

>  <SCORE.INTRA.DIHEDRAL>
2.33043

>  <SCORE.INTRA.DIHEDRAL.0>
22.9177

>  <SCORE.INTRA.POLAR>
-1.39759

>  <SCORE.INTRA.POLAR.0>
-0.311208

>  <SCORE.INTRA.REPUL>
0

>  <SCORE.INTRA.REPUL.0>
0

>  <SCORE.INTRA.SOLV>
1.76347

>  <SCORE.INTRA.SOLV.lig_0>
-132.657

>  <SCORE.INTRA.VDW>
1.17726

>  <SCORE.INTRA.VDW.0>
-4.68867

>  <SCORE.INTRA.norm>
-0.0477376

>  <SCORE.RESTR>
0.2914

>  <SCORE.RESTR.CAVITY>
0.2914

>  <SCORE.RESTR.norm>
0.00910624

>  <SCORE.SYSTEM>
0

>  <SCORE.SYSTEM.CONST>
0

>  <SCORE.SYSTEM.DIHEDRAL>
0

>  <SCORE.SYSTEM.SOLV>
0

>  <SCORE.SYSTEM.norm>
0

>  <SCORE.heavy>
32

>  <SCORE.norm>
-1.55547

>  <RMSD>
0.877

$$$$
1tob
 OpenBabel11021811413D
libRbt.so/2013.1/901 2013/11/27
 32 34  0  0  0  0  0  0  0  0999 V2000
   -2.2140    5.4737    3.8943 C   0  0  2  0  0  0  0  0  0  0  0  0
   -1.3175    5.0032    2.7514 C   0  0  1  0  0  0  0  0  0  0  0  0
   -1.0238    3.5174    2.9085 C   0  0  2  0  0  0  0  0  0  0  0  0
   -0.4171    3.2643    4.2834 C   0  0  1  0  0  0  0  0  0  0  0  0
   -1.3492    3.7980    5.3676 C   0  0  1  0  0  0  0  0  0  0  0  0
   -0.7647    3.6447    6.7580 C   0  0  0  0  0  0  0  0  0  0  0  0
   -1.9645    5.2346    1.5083 O   0  0  0  0  0  0  0  0  0  0  0  0
   -0.1498    3.0282    1.8203 N   0  3  0  0  0  0  0  0  0  0  0  0
   -0.2032    1.8710    4.4654 O   0  0  0  0  0  0  0  0  0  0  0  0
   -1.5958    5.2055    5.1592 O   0  0  0  0  0  0  0  0  0  0  0  0
    0.3626    4.4891    6.9431 O   0  0  0  0  0  0  0  0  0  0  0  0
   -5.2212    4.1999    2.3470 C   0  0  2  0  0  0  0  0  0  0  0  0
   -6.2237    4.7611    1.3479 C   0  0  0  0  0  0  0  0  0  0  0  0
   -7.1217    5.8009    2.0187 C   0  0  1  0  0  0  0  0  0  0  0  0
   -6.2671    6.9407    2.5687 C   0  0  2  0  0  0  0  0  0  0  0  0
   -5.2477    6.3939    3.5692 C   0  0  1  0  0  0  0  0  0  0  0  0
   -4.3725    5.3338    2.9013 C   0  0  1  0  0  0  0  0  0  0  0  0
   -4.3278    3.2171    1.6954 N   0  3  0  0  0  0  0  0  0  0  0  0
   -8.1487    6.2777    1.0564 N   0  3  0  0  0  0  0  0  0  0  0  0
   -4.4360    7.4534    4.0577 O   0  0  0  0  0  0  0  0  0  0  0  0
   -3.4267    4.8116    3.8520 O   0  0  0  0  0  0  0  0  0  0  0  0
   -6.6168    9.2269    3.2127 C   0  0  1  0  0  0  0  0  0  0  0  0
   -6.9260    9.9034    4.5494 C   0  0  1  0  0  0  0  0  0  0  0  0
   -8.4301   10.0139    4.7491 C   0  0  0  0  0  0  0  0  0  0  0  0
   -9.0410   10.7401    3.5617 C   0  0  1  0  0  0  0  0  0  0  0  0
   -8.6692   10.0171    2.2676 C   0  0  1  0  0  0  0  0  0  0  0  0
   -9.1981   10.7215    1.0314 C   0  0  0  0  0  0  0  0  0  0  0  0
   -6.2674    9.1941    5.6717 N   0  3  0  0  0  0  0  0  0  0  0  0
   -8.7620   10.0396   -0.2106 N   0  3  0  0  0  0  0  0  0  0  0  0
   -7.1035    7.9264    3.2083 O   0  0  0  0  0  0  0  0  0  0  0  0
  -10.4535   10.7919    3.6991 O   0  0  0  0  0  0  0  0  0  0  0  0
   -7.2332    9.9420    2.1348 O   0  0  0  0  0  0  0  0  0  0  0  0
  1  2  1  0  0  0  0
  1 10  1  0  0  0  0
  1 21  1  1  0  0  0
  2  3  1  0  0  0  0
  2  7  1  6  0  0  0
  3  4  1  0  0  0  0
  3  8  1  6  0  0  0
  4  5  1  0  0  0  0
  4  9  1  1  0  0  0
  5  6  1  1  0  0  0
  5 10  1  0  0  0  0
  6 11  1  0  0  0  0
 12 13  1  0  0  0  0
 12 17  1  0  0  0  0
 12 18  1  6  0  0  0
 13 14  1  0  0  0  0
 14 15  1  0  0  0  0
 14 19  1  6  0  0  0
 15 16  1  0  0  0  0
 15 30  1  1  0  0  0
 16 17  1  0  0  0  0
 16 20  1  6  0  0  0
 17 21  1  1  0  0  0
 22 23  1  0  0  0  0
 22 30  1  1  0  0  0
 22 32  1  0  0  0  0
 23 24  1  0  0  0  0
 23 28  1  1  0  0  0
 24 25  1  0  0  0  0
 25 26  1  0  0  0  0
 25 31  1  1  0  0  0
 26 27  1  6  0  0  0
 26 32  1  0  0  0  0
 27 29  1  0  0  0  0
M  CHG  5   8   1  18   1  19   1  28   1  29   1
M  END
>  <CHROM.1>
-80.35122554,167.67895304,96.85289171,-179.37739874,67.93882673,-173.18012400
-150.08225252,-163.19705792,-152.02693227,175.02273759,146.96416806,-140.99152371
71.34048791,66.05391246,176.95522390,-175.79668972,-4.78920972,6.49216460
3.27835396,-0.22206314,-0.66342409,0.96433666

>  <Name>
1tob

>  <RI>
0

>  <Rbt.Current_Directory>
/home/itssahil/PROJECTS/Mol_Feturizer/New_Systems/rnas/1tob

>  <Rbt.Executable>
rbdock ($Id: //depot/dev/client3/rdock/2013.1/src/exe/rbdock.cxx#4 $)

>  <Rbt.Library>
libRbt.so (2013.1, Build901 2013/11/27)

>  <Rbt.Parameter_File>
/export/apps/rDock/src/rDock_2013.1_src/data/scripts/dock_solv.prm

>  <Rbt.Receptor>
prm/pocket_docking_2.prm

>  <SCORE>
-43.0526

>  <SCORE.INTER>
-41.2068

>  <SCORE.INTER.CONST>
1

>  <SCORE.INTER.POLAR>
-6.26969

>  <SCORE.INTER.ROT>
6

>  <SCORE.INTER.SOLV>
27.8782

>  <SCORE.INTER.VDW>
-23.465

>  <SCORE.INTER.norm>
-1.28771

>  <SCORE.INTRA>
-2.00095

>  <SCORE.INTRA.DIHEDRAL>
-1.59912

>  <SCORE.INTRA.DIHEDRAL.0>
22.9177

>  <SCORE.INTRA.POLAR>
-0.872861

>  <SCORE.INTRA.POLAR.0>
-0.311208

>  <SCORE.INTRA.REPUL>
0.00157438

>  <SCORE.INTRA.REPUL.0>
0

>  <SCORE.INTRA.SOLV>
0.660021

>  <SCORE.INTRA.SOLV.lig_0>
-132.657

>  <SCORE.INTRA.VDW>
1.42846

>  <SCORE.INTRA.VDW.0>
-4.68867

>  <SCORE.INTRA.norm>
-0.0625297

>  <SCORE.RESTR>
0.155102

>  <SCORE.RESTR.CAVITY>
0.155102

>  <SCORE.RESTR.norm>
0.00484694

>  <SCORE.SYSTEM>
0

>  <SCORE.SYSTEM.CONST>
0

>  <SCORE.SYSTEM.DIHEDRAL>
0

>  <SCORE.SYSTEM.SOLV>
0

>  <SCORE.SYSTEM.norm>
0

>  <SCORE.heavy>
32

>  <SCORE.norm>
-1.34539

>  <RMSD>
0.912

$$$$
1tob
 OpenBabel11021811413D
libRbt.so/2013.1/901 2013/11/27
 32 34  0  0  0  0  0  0  0  0999 V2000
   -1.9500    4.8019    2.8074 C   0  0  2  0  0  0  0  0  0  0  0  0
   -1.1711    3.6302    2.2143 C   0  0  1  0  0  0  0  0  0  0  0  0
   -1.1362    2.4803    3.2118 C   0  0  2  0  0  0  0  0  0  0  0  0
   -0.5557    2.9732    4.5319 C   0  0  1  0  0  0  0  0  0  0  0  0
   -1.3599    4.1675    5.0381 C   0  0  1  0  0  0  0  0  0  0  0  0
   -0.7836    4.7530    6.3123 C   0  0  0  0  0  0  0  0  0  0  0  0
   -1.7925    3.2016    1.0111 O   0  0  0  0  0  0  0  0  0  0  0  0
   -0.3817    1.3284    2.6722 N   0  3  0  0  0  0  0  0  0  0  0  0
   -0.5829    1.9243    5.4905 O   0  0  0  0  0  0  0  0  0  0  0  0
   -1.3630    5.2177    4.0470 O   0  0  0  0  0  0  0  0  0  0  0  0
   -0.6112    3.7564    7.3097 O   0  0  0  0  0  0  0  0  0  0  0  0
   -5.1799    4.1419    1.6023 C   0  0  2  0  0  0  0  0  0  0  0  0
   -6.2231    4.8970    0.7900 C   0  0  0  0  0  0  0  0  0  0  0  0
   -7.0247    5.8365    1.6912 C   0  0  1  0  0  0  0  0  0  0  0  0
   -6.0837    6.8379    2.3572 C   0  0  2  0  0  0  0  0  0  0  0  0
   -5.0229    6.0962    3.1720 C   0  0  1  0  0  0  0  0  0  0  0  0
   -4.2447    5.1370    2.2720 C   0  0  1  0  0  0  0  0  0  0  0  0
   -4.3789    3.2555    0.7298 N   0  3  0  0  0  0  0  0  0  0  0  0
   -8.0936    6.5029    0.9028 N   0  3  0  0  0  0  0  0  0  0  0  0
   -4.1325    7.0304    3.7674 O   0  0  0  0  0  0  0  0  0  0  0  0
   -3.2597    4.4305    3.0475 O   0  0  0  0  0  0  0  0  0  0  0  0
   -6.4315    9.0579    3.2023 C   0  0  1  0  0  0  0  0  0  0  0  0
   -6.9014    9.7620    4.4764 C   0  0  1  0  0  0  0  0  0  0  0  0
   -8.4212    9.7747    4.5421 C   0  0  0  0  0  0  0  0  0  0  0  0
   -8.9720   10.4103    3.2760 C   0  0  1  0  0  0  0  0  0  0  0  0
   -8.4406    9.6659    2.0516 C   0  0  1  0  0  0  0  0  0  0  0  0
   -8.9040   10.2836    0.7448 C   0  0  0  0  0  0  0  0  0  0  0  0
   -6.2986    9.1441    5.6811 N   0  3  0  0  0  0  0  0  0  0  0  0
   -8.2632   11.5994    0.5087 N   0  3  0  0  0  0  0  0  0  0  0  0
   -6.8286    7.7274    3.2140 O   0  0  0  0  0  0  0  0  0  0  0  0
  -10.3914   10.3685    3.2901 O   0  0  0  0  0  0  0  0  0  0  0  0
   -6.9966    9.6863    2.0451 O   0  0  0  0  0  0  0  0  0  0  0  0
  1  2  1  0  0  0  0
  1 10  1  0  0  0  0
  1 21  1  1  0  0  0
  2  3  1  0  0  0  0
  2  7  1  6  0  0  0
  3  4  1  0  0  0  0
  3  8  1  6  0  0  0
  4  5  1  0  0  0  0
  4  9  1  1  0  0  0
  5  6  1  1  0  0  0
  5 10  1  0  0  0  0
  6 11  1  0  0  0  0
 12 13  1  0  0  0  0
 12 17  1  0  0  0  0
 12 18  1  6  0  0  0
 13 14  1  0  0  0  0
 14 15  1  0  0  0  0
 14 19  1  6  0  0  0
 15 16  1  0  0  0  0
 15 30  1  1  0  0  0
 16 17  1  0  0  0  0
 16 20  1  6  0  0  0
 17 21  1  1  0  0  0
 22 23  1  0  0  0  0
 22 30  1  1  0  0  0
 22 32  1  0  0  0  0
 23 24  1  0  0  0  0
 23 28  1  1  0  0  0
 24 25  1  0  0  0  0
 25 26  1  0  0  0  0
 25 31  1  1  0  0  0
 26 27  1  6  0  0  0
 26 32  1  0  0  0  0
 27 29  1  0  0  0  0
M  CHG  5   8   1  18   1  19   1  28   1  29   1
M  END
>  <CHROM.1>
-115.84350890,-173.52786267,172.18944441,71.26635506,-52.90664919,-78.90925773
-86.31990300,-161.37982167,-140.35807016,-57.96500543,129.20673499,-158.69125093
-174.07603409,-61.23667538,69.86426121,49.23947598,-4.73781430,6.22653109
3.06605387,0.26508657,0.71805899,-2.17843164

>  <Name>
1tob

>  <RI>
0

>  <Rbt.Current_Directory>
/home/itssahil/PROJECTS/Mol_Feturizer/New_Systems/rnas/1tob

>  <Rbt.Executable>
rbdock ($Id: //depot/dev/client3/rdock/2013.1/src/exe/rbdock.cxx#4 $)

>  <Rbt.Library>
libRbt.so (2013.1, Build901 2013/11/27)

>  <Rbt.Parameter_File>
/export/apps/rDock/src/rDock_2013.1_src/data/scripts/dock_solv.prm

>  <Rbt.Receptor>
prm/pocket_docking_3.prm

>  <SCORE>
-53.6474

>  <SCORE.INTER>
-54.1949

>  <SCORE.INTER.CONST>
1

>  <SCORE.INTER.POLAR>
-8.2873

>  <SCORE.INTER.ROT>
6

>  <SCORE.INTER.SOLV>
27.7238

>  <SCORE.INTER.VDW>
-25.3469

>  <SCORE.INTER.norm>
-1.69359

>  <SCORE.INTRA>
0.54751

>  <SCORE.INTRA.DIHEDRAL>
3.98945

>  <SCORE.INTRA.DIHEDRAL.0>
22.9177

>  <SCORE.INTRA.POLAR>
-0.797015

>  <SCORE.INTRA.POLAR.0>
-0.311208

>  <SCORE.INTRA.REPUL>
0

>  <SCORE.INTRA.REPUL.0>
0

>  <SCORE.INTRA.SOLV>
1.26592

>  <SCORE.INTRA.SOLV.lig_0>
-132.657

>  <SCORE.INTRA.VDW>
0.629676

>  <SCORE.INTRA.VDW.0>
-4.68867

>  <SCORE.INTRA.norm>
0.0171097

>  <SCORE.RESTR>
0

>  <SCORE.RESTR.CAVITY>
0

>  <SCORE.RESTR.norm>
0

>  <SCORE.SYSTEM>
0

>  <SCORE.SYSTEM.CONST>
0

>  <SCORE.SYSTEM.DIHEDRAL>
0

>  <SCORE.SYSTEM.SOLV>
0

>  <SCORE.SYSTEM.norm>
0

>  <SCORE.heavy>
32

>  <SCORE.norm>
-1.67648

>  <RMSD>
0.929

$$$$
1tob
 OpenBabel11021811413D
libRbt.so/2013.1/901 2013/11/27
 32 34  0  0  0  0  0  0  0  0999 V2000
   -2.9066    5.2335    1.9208 C   0  0  2  0  0  0  0  0  0  0  0  0
   -2.2071    4.1028    1.1702 C   0  0  1  0  0  0  0  0  0  0  0  0
   -2.1229    2.8710    2.0612 C   0  0  2  0  0  0  0  0  0  0  0  0
   -1.4276    3.2377    3.3669 C   0  0  1  0  0  0  0  0  0  0  0  0
   -2.1586    4.3989    4.0351 C   0  0  1  0  0  0  0  0  0  0  0  0
   -1.4688    4.8619    5.3033 C   0  0  0  0  0  0  0  0  0  0  0  0
   -2.9321    3.7909   -0.0107 O   0  0  0  0  0  0  0  0  0  0  0  0
   -1.4428    1.7559    1.3674 N   0  3  0  0  0  0  0  0  0  0  0  0
   -1.4058    2.1110    4.2329 O   0  0  0  0  0  0  0  0  0  0  0  0
   -2.2132    5.5303    3.1395 O   0  0  0  0  0  0  0  0  0  0  0  0
   -2.3386    5.6409    6.1124 O   0  0  0  0  0  0  0  0  0  0  0  0
   -6.3747    4.8180    1.1673 C   0  0  2  0  0  0  0  0  0  0  0  0
   -7.4566    5.6976    0.5558 C   0  0  0  0  0  0  0  0  0  0  0  0
   -7.9682    6.7077    1.5831 C   0  0  1  0  0  0  0  0  0  0  0  0
   -6.8139    7.5870    2.0590 C   0  0  2  0  0  0  0  0  0  0  0  0
   -5.7128    6.7187    2.6698 C   0  0  1  0  0  0  0  0  0  0  0  0
   -5.2262    5.6916    1.6480 C   0  0  1  0  0  0  0  0  0  0  0  0
   -5.8526    3.8603    0.1680 N   0  3  0  0  0  0  0  0  0  0  0  0
   -9.0808    7.5018    1.0003 N   0  3  0  0  0  0  0  0  0  0  0  0
   -4.6285    7.5379    3.0860 O   0  0  0  0  0  0  0  0  0  0  0  0
   -4.2023    4.8674    2.2338 O   0  0  0  0  0  0  0  0  0  0  0  0
   -6.5114    9.6855    3.1853 C   0  0  1  0  0  0  0  0  0  0  0  0
   -6.6963   10.2660    4.5884 C   0  0  1  0  0  0  0  0  0  0  0  0
   -8.1399   10.6999    4.7936 C   0  0  0  0  0  0  0  0  0  0  0  0
   -8.5317   11.6725    3.6932 C   0  0  1  0  0  0  0  0  0  0  0  0
   -8.2979   11.0280    2.3274 C   0  0  1  0  0  0  0  0  0  0  0  0
   -8.6135   11.9658    1.1763 C   0  0  0  0  0  0  0  0  0  0  0  0
   -6.2522    9.3057    5.6262 N   0  3  0  0  0  0  0  0  0  0  0  0
   -7.6376   13.0791    1.0996 N   0  3  0  0  0  0  0  0  0  0  0  0
   -7.2838    8.5417    3.0327 O   0  0  0  0  0  0  0  0  0  0  0  0
   -9.8979   12.0353    3.8303 O   0  0  0  0  0  0  0  0  0  0  0  0
   -6.9144   10.6367    2.1924 O   0  0  0  0  0  0  0  0  0  0  0  0
  1  2  1  0  0  0  0
  1 10  1  0  0  0  0
  1 21  1  1  0  0  0
  2  3  1  0  0  0  0
  2  7  1  6  0  0  0
  3  4  1  0  0  0  0
  3  8  1  6  0  0  0
  4  5  1  0  0  0  0
  4  9  1  1  0  0  0
  5  6  1  1  0  0  0
  5 10  1  0  0  0  0
  6 11  1  0  0  0  0
 12 13  1  0  0  0  0
 12 17  1  0  0  0  0
 12 18  1  6  0  0  0
 13 14  1  0  0  0  0
 14 15  1  0  0  0  0
 14 19  1  6  0  0  0
 15 16  1  0  0  0  0
 15 30  1  1  0  0  0
 16 17  1  0  0  0  0
 16 20  1  6  0  0  0
 17 21  1  1  0  0  0
 22 23  1  0  0  0  0
 22 30  1  1  0  0  0
 22 32  1  0  0  0  0
 23 24  1  0  0  0  0
 23 28  1  1  0  0  0
 24 25  1  0  0  0  0
 25 26  1  0  0  0  0
 25 31  1  1  0  0  0
 26 27  1  6  0  0  0
 26 32  1  0  0  0  0
 27 29  1  0  0  0  0
M  CHG  5   8   1  18   1  19   1  28   1  29   1
M  END
>  <CHROM.1>
-118.37309778,-112.83428955,-62.45805145,171.67751435,-162.46746630,-155.28004040
94.60597587,-57.94870935,-157.20306353,178.50218706,139.19959352,-154.02154382
-44.85230475,63.04538490,68.77483613,50.53845405,-5.31861962,6.97489172,2.64619671
0.59742095,0.71548240,-2.35012592

>  <Name>
1tob

>  <RI>
0

>  <Rbt.Current_Directory>
/home/itssahil/PROJECTS/Mol_Feturizer/New_Systems/rnas/1tob

>  <Rbt.Executable>
rbdock ($Id: //depot/dev/client3/rdock/2013.1/src/exe/rbdock.cxx#4 $)

>  <Rbt.Library>
libRbt.so (2013.1, Build901 2013/11/27)

>  <Rbt.Parameter_File>
/export/apps/rDock/src/rDock_2013.1_src/data/scripts/dock_solv.prm

>  <Rbt.Receptor>
prm/pocket_docking_2.prm

>  <SCORE>
-58.6039

>  <SCORE.INTER>
-60.8644

>  <SCORE.INTER.CONST>
1

>  <SCORE.INTER.POLAR>
-10.2494

>  <SCORE.INTER.ROT>
6

>  <SCORE.INTER.SOLV>
31.0219

>  <SCORE.INTER.VDW>
-24.3523

>  <SCORE.INTER.norm>
-1.90201

>  <SCORE.INTRA>
1.55721

>  <SCORE.INTRA.DIHEDRAL>
9.3609

>  <SCORE.INTRA.DIHEDRAL.0>
22.9177

>  <SCORE.INTRA.POLAR>
-0.893147

>  <SCORE.INTRA.POLAR.0>
-0.311208

>  <SCORE.INTRA.REPUL>
0

>  <SCORE.INTRA.REPUL.0>
0

>  <SCORE.INTRA.SOLV>
-1.74501

>  <SCORE.INTRA.SOLV.lig_0>
-132.657

>  <SCORE.INTRA.VDW>
0.785961

>  <SCORE.INTRA.VDW.0>
-4.68867

>  <SCORE.INTRA.norm>
0.0486627

>  <SCORE.RESTR>
0.70327

>  <SCORE.RESTR.CAVITY>
0.70327

>  <SCORE.RESTR.norm>
0.0219772

>  <SCORE.SYSTEM>
0

>  <SCORE.SYSTEM.CONST>
0

>  <SCORE.SYSTEM.DIHEDRAL>
0

>  <SCORE.SYSTEM.SOLV>
0

>  <SCORE.SYSTEM.norm>
0

>  <SCORE.heavy>
32

>  <SCORE.norm>
-1.83137

>  <RMSD>
0.963

$$$$
1tob
 OpenBabel11021811413D
libRbt.so/2013.1/901 2013/11/27
 32 34  0  0  0  0  0  0  0  0999 V2000
   -2.1845    5.6145    3.4400 C   0  0  2  0  0  0  0  0  0  0  0  0
   -1.0066    5.4375    2.4849 C   0  0  1  0  0  0  0  0  0  0  0  0
   -0.4596    4.0214    2.6022 C   0  0  2  0  0  0  0  0  0  0  0  0
   -0.0955    3.7385    4.0548 C   0  0  1  0  0  0  0  0  0  0  0  0
   -1.3088    3.9770    4.9494 C   0  0  1  0  0  0  0  0  0  0  0  0
   -0.9888    3.7861    6.4189 C   0  0  0  0  0  0  0  0  0  0  0  0
   -1.4308    5.6779    1.1508 O   0  0  0  0  0  0  0  0  0  0  0  0
    0.6898    3.8162    1.6945 N   0  3  0  0  0  0  0  0  0  0  0  0
    0.3515    2.3957    4.1857 O   0  0  0  0  0  0  0  0  0  0  0  0
   -1.7849    5.3305    4.7868 O   0  0  0  0  0  0  0  0  0  0  0  0
   -0.0607    4.7584    6.8786 O   0  0  0  0  0  0  0  0  0  0  0  0
   -5.0265    4.1999    1.5971 C   0  0  2  0  0  0  0  0  0  0  0  0
   -6.0975    4.8046    0.6997 C   0  0  0  0  0  0  0  0  0  0  0  0
   -7.0233    5.7126    1.5096 C   0  0  1  0  0  0  0  0  0  0  0  0
   -6.2108    6.8354    2.1508 C   0  0  2  0  0  0  0  0  0  0  0  0
   -5.1237    6.2458    3.0507 C   0  0  1  0  0  0  0  0  0  0  0  0
   -4.2195    5.3161    2.2422 C   0  0  1  0  0  0  0  0  0  0  0  0
   -4.1077    3.3462    0.8126 N   0  3  0  0  0  0  0  0  0  0  0  0
   -8.1126    6.2281    0.6404 N   0  3  0  0  0  0  0  0  0  0  0  0
   -4.3521    7.2930    3.6235 O   0  0  0  0  0  0  0  0  0  0  0  0
   -3.2091    4.7520    3.0977 O   0  0  0  0  0  0  0  0  0  0  0  0
   -6.7853    9.0538    2.8666 C   0  0  1  0  0  0  0  0  0  0  0  0
   -7.0471    9.7064    4.2251 C   0  0  1  0  0  0  0  0  0  0  0  0
   -8.5214    9.6013    4.5854 C   0  0  0  0  0  0  0  0  0  0  0  0
   -9.3545   10.2056    3.4669 C   0  0  1  0  0  0  0  0  0  0  0  0
   -9.0199    9.5171    2.1442 C   0  0  1  0  0  0  0  0  0  0  0  0
   -9.7743   10.1108    0.9684 C   0  0  0  0  0  0  0  0  0  0  0  0
   -6.1763    9.1243    5.2737 N   0  3  0  0  0  0  0  0  0  0  0  0
   -9.3265   11.4939    0.6783 N   0  3  0  0  0  0  0  0  0  0  0  0
   -7.0735    7.6966    2.9218 O   0  0  0  0  0  0  0  0  0  0  0  0
  -10.7368   10.0545    3.7556 O   0  0  0  0  0  0  0  0  0  0  0  0
   -7.6106    9.6487    1.8576 O   0  0  0  0  0  0  0  0  0  0  0  0
  1  2  1  0  0  0  0
  1 10  1  0  0  0  0
  1 21  1  6  0  0  0
  2  3  1  0  0  0  0
  2  7  1  6  0  0  0
  3  4  1  0  0  0  0
  3  8  1  6  0  0  0
  4  5  1  0  0  0  0
  4  9  1  6  0  0  0
  5  6  1  1  0  0  0
  5 10  1  0  0  0  0
  6 11  1  0  0  0  0
 12 13  1  0  0  0  0
 12 17  1  0  0  0  0
 12 18  1  6  0  0  0
 13 14  1  0  0  0  0
 14 15  1  0  0  0  0
 14 19  1  6  0  0  0
 15 16  1  0  0  0  0
 15 30  1  1  0  0  0
 16 17  1  0  0  0  0
 16 20  1  6  0  0  0
 17 21  1  1  0  0  0
 22 23  1  0  0  0  0
 22 30  1  1  0  0  0
 22 32  1  0  0  0  0
 23 24  1  0  0  0  0
 23 28  1  1  0  0  0
 24 25  1  0  0  0  0
 25 26  1  0  0  0  0
 25 31  1  1  0  0  0
 26 27  1  6  0  0  0
 26 32  1  0  0  0  0
 27 29  1  0  0  0  0
M  CHG  5   8   1  18   1  19   1  28   1  29   1
M  END
>  <CHROM.1>
-94.68130661,62.21248751,178.52380925,-175.62971710,65.14116223,-64.88741238
165.36678051,80.84641300,-141.60170382,-60.96181996,162.50727383,-143.76004748
107.47319392,66.02331623,67.68878468,-173.29496592,-4.75919331,6.55290933
2.96005184,-0.17256134,-0.59448981,1.04136279

>  <Name>
1tob

>  <RI>
0

>  <Rbt.Current_Directory>
/home/itssahil/PROJECTS/Mol_Feturizer/New_Systems/rnas/1tob

>  <Rbt.Executable>
rbdock ($Id: //depot/dev/client3/rdock/2013.1/src/exe/rbdock.cxx#4 $)

>  <Rbt.Library>
libRbt.so (2013.1, Build901 2013/11/27)

>  <Rbt.Parameter_File>
/export/apps/rDock/src/rDock_2013.1_src/data/scripts/dock_solv.prm

>  <Rbt.Receptor>
prm/pocket_docking_7.prm

>  <SCORE>
-47.5906

>  <SCORE.INTER>
-43.5416

>  <SCORE.INTER.CONST>
1

>  <SCORE.INTER.POLAR>
-6.84574

>  <SCORE.INTER.ROT>
6

>  <SCORE.INTER.SOLV>
27.7531

>  <SCORE.INTER.VDW>
-23.0596

>  <SCORE.INTER.norm>
-1.36067

>  <SCORE.INTRA>
-4.04903

>  <SCORE.INTRA.DIHEDRAL>
-1.73697

>  <SCORE.INTRA.DIHEDRAL.0>
22.9177

>  <SCORE.INTRA.POLAR>
-0.943498

>  <SCORE.INTRA.POLAR.0>
-0.311208

>  <SCORE.INTRA.REPUL>
0

>  <SCORE.INTRA.REPUL.0>
0

>  <SCORE.INTRA.SOLV>
-1.88417

>  <SCORE.INTRA.SOLV.lig_0>
-132.657

>  <SCORE.INTRA.VDW>
0.969435

>  <SCORE.INTRA.VDW.0>
-4.68867

>  <SCORE.INTRA.norm>
-0.126532

>  <SCORE.RESTR>
0

>  <SCORE.RESTR.CAVITY>
0

>  <SCORE.RESTR.norm>
0

>  <SCORE.SYSTEM>
0

>  <SCORE.SYSTEM.CONST>
0

>  <SCORE.SYSTEM.DIHEDRAL>
0

>  <SCORE.SYSTEM.SOLV>
0

>  <SCORE.SYSTEM.norm>
0

>  <SCORE.heavy>
32

>  <SCORE.norm>
-1.48721

>  <RMSD>
0.971

$$$$
1tob
 OpenBabel11021811413D
libRbt.so/2013.1/901 2013/11/27
 32 34  0  0  0  0  0  0  0  0999 V2000
   -2.9207    5.2541    1.8307 C   0  0  2  0  0  0  0  0  0  0  0  0
   -2.2190    4.1249    1.0799 C   0  0  1  0  0  0  0  0  0  0  0  0
   -2.1162    2.8990    1.9772 C   0  0  2  0  0  0  0  0  0  0  0  0
   -1.4118    3.2789    3.2741 C   0  0  1  0  0  0  0  0  0  0  0  0
   -2.1460    4.4379    3.9426 C   0  0  1  0  0  0  0  0  0  0  0  0
   -1.4483    4.9139    5.2015 C   0  0  0  0  0  0  0  0  0  0  0  0
   -2.9525    3.8001   -0.0923 O   0  0  0  0  0  0  0  0  0  0  0  0
   -1.4335    1.7855    1.2834 N   0  3  0  0  0  0  0  0  0  0  0  0
   -1.3725    2.1574    4.1463 O   0  0  0  0  0  0  0  0  0  0  0  0
   -2.2184    5.5636    3.0410 O   0  0  0  0  0  0  0  0  0  0  0  0
   -2.3821    5.2327    6.2235 O   0  0  0  0  0  0  0  0  0  0  0  0
   -6.3921    4.8297    1.1108 C   0  0  2  0  0  0  0  0  0  0  0  0
   -7.4863    5.7104    0.5230 C   0  0  0  0  0  0  0  0  0  0  0  0
   -7.9959    6.7003    1.5708 C   0  0  1  0  0  0  0  0  0  0  0  0
   -6.8440    7.5809    2.0499 C   0  0  2  0  0  0  0  0  0  0  0  0
   -5.7308    6.7117    2.6368 C   0  0  1  0  0  0  0  0  0  0  0  0
   -5.2458    5.7045    1.5946 C   0  0  1  0  0  0  0  0  0  0  0  0
   -5.8720    3.8918    0.0918 N   0  3  0  0  0  0  0  0  0  0  0  0
   -9.1199    7.4948    1.0108 N   0  3  0  0  0  0  0  0  0  0  0  0
   -4.6489    7.5326    3.0560 O   0  0  0  0  0  0  0  0  0  0  0  0
   -4.2103    4.8791    2.1580 O   0  0  0  0  0  0  0  0  0  0  0  0
   -6.5524    9.6683    3.1994 C   0  0  1  0  0  0  0  0  0  0  0  0
   -6.7414   10.2401    4.6056 C   0  0  1  0  0  0  0  0  0  0  0  0
   -8.1894   10.6567    4.8152 C   0  0  0  0  0  0  0  0  0  0  0  0
   -8.5942   11.6299    3.7201 C   0  0  1  0  0  0  0  0  0  0  0  0
   -8.3554   10.9945    2.3508 C   0  0  1  0  0  0  0  0  0  0  0  0
   -8.6836   11.9341    1.2047 C   0  0  0  0  0  0  0  0  0  0  0  0
   -6.2847    9.2800    5.6381 N   0  3  0  0  0  0  0  0  0  0  0  0
   -9.2134   13.2279    1.6978 N   0  3  0  0  0  0  0  0  0  0  0  0
   -7.3121    8.5166    3.0427 O   0  0  0  0  0  0  0  0  0  0  0  0
   -9.9641   11.9766    3.8611 O   0  0  0  0  0  0  0  0  0  0  0  0
   -6.9678   10.6196    2.2117 O   0  0  0  0  0  0  0  0  0  0  0  0
  1  2  1  0  0  0  0
  1 10  1  0  0  0  0
  1 21  1  1  0  0  0
  2  3  1  0  0  0  0
  2  7  1  6  0  0  0
  3  4  1  0  0  0  0
  3  8  1  6  0  0  0
  4  5  1  0  0  0  0
  4  9  1  1  0  0  0
  5  6  1  1  0  0  0
  5 10  1  0  0  0  0
  6 11  1  0  0  0  0
 12 13  1  0  0  0  0
 12 17  1  0  0  0  0
 12 18  1  6  0  0  0
 13 14  1  0  0  0  0
 14 15  1  0  0  0  0
 14 19  1  6  0  0  0
 15 16  1  0  0  0  0
 15 30  1  1  0  0  0
 16 17  1  0  0  0  0
 16 20  1  6  0  0  0
 17 21  1  1  0  0  0
 22 23  1  0  0  0  0
 22 30  1  1  0  0  0
 22 32  1  0  0  0  0
 23 24  1  0  0  0  0
 23 28  1  1  0  0  0
 24 25  1  0  0  0  0
 25 26  1  0  0  0  0
 25 31  1  1  0  0  0
 26 27  1  6  0  0  0
 26 32  1  0  0  0  0
 27 29  1  0  0  0  0
M  CHG  5   8   1  18   1  19   1  28   1  29   1
M  END
>  <CHROM.1>
-119.32982223,-111.37221994,63.00007194,-25.49024928,-140.34213126,-59.94266911
95.45356113,-174.80824245,-156.75277930,-176.77949545,138.73096777,-154.89946464
74.45327866,55.84091091,-2.41348230,64.83306603,-5.40605611,6.96558904,2.63501604
0.57770233,0.70326461,-2.31596949

>  <Name>
1tob

>  <RI>
0

>  <Rbt.Current_Directory>
/home/itssahil/PROJECTS/Mol_Feturizer/New_Systems/rnas/1tob

>  <Rbt.Executable>
rbdock ($Id: //depot/dev/client3/rdock/2013.1/src/exe/rbdock.cxx#4 $)

>  <Rbt.Library>
libRbt.so (2013.1, Build901 2013/11/27)

>  <Rbt.Parameter_File>
/export/apps/rDock/src/rDock_2013.1_src/data/scripts/dock_solv.prm

>  <Rbt.Receptor>
prm/pocket_docking_2.prm

>  <SCORE>
-47.3803

>  <SCORE.INTER>
-54.7259

>  <SCORE.INTER.CONST>
1

>  <SCORE.INTER.POLAR>
-9.44199

>  <SCORE.INTER.ROT>
6

>  <SCORE.INTER.SOLV>
31.591

>  <SCORE.INTER.VDW>
-23.141

>  <SCORE.INTER.norm>
-1.71018

>  <SCORE.INTRA>
6.97418

>  <SCORE.INTRA.DIHEDRAL>
18.5823

>  <SCORE.INTRA.DIHEDRAL.0>
22.9177

>  <SCORE.INTRA.POLAR>
-1.50986

>  <SCORE.INTRA.POLAR.0>
-0.311208

>  <SCORE.INTRA.REPUL>
0

>  <SCORE.INTRA.REPUL.0>
0

>  <SCORE.INTRA.SOLV>
0.275577

>  <SCORE.INTRA.SOLV.lig_0>
-132.657

>  <SCORE.INTRA.VDW>
2.67876

>  <SCORE.INTRA.VDW.0>
-4.68867

>  <SCORE.INTRA.norm>
0.217943

>  <SCORE.RESTR>
0.371466

>  <SCORE.RESTR.CAVITY>
0.371466

>  <SCORE.RESTR.norm>
0.0116083

>  <SCORE.SYSTEM>
0

>  <SCORE.SYSTEM.CONST>
0

>  <SCORE.SYSTEM.DIHEDRAL>
0

>  <SCORE.SYSTEM.SOLV>
0

>  <SCORE.SYSTEM.norm>
0

>  <SCORE.heavy>
32

>  <SCORE.norm>
-1.48063

>  <RMSD>
0.988

$$$$
1tob
 OpenBabel11021811413D
libRbt.so/2013.1/901 2013/11/27
 32 34  0  0  0  0  0  0  0  0999 V2000
   -2.5457    5.6407    4.2599 C   0  0  2  0  0  0  0  0  0  0  0  0
   -1.5132    5.6885    3.1361 C   0  0  1  0  0  0  0  0  0  0  0  0
   -0.9444    4.2956    2.9029 C   0  0  2  0  0  0  0  0  0  0  0  0
   -0.3765    3.7557    4.2100 C   0  0  1  0  0  0  0  0  0  0  0  0
   -1.4530    3.7785    5.2916 C   0  0  1  0  0  0  0  0  0  0  0  0
   -0.9271    3.3241    6.6390 C   0  0  0  0  0  0  0  0  0  0  0  0
   -2.1236    6.1622    1.9442 O   0  0  0  0  0  0  0  0  0  0  0  0
    0.0668    4.3058    1.8236 N   0  3  0  0  0  0  0  0  0  0  0  0
    0.0948    2.4286    4.0177 O   0  0  0  0  0  0  0  0  0  0  0  0
   -1.9576    5.1211    5.4591 O   0  0  0  0  0  0  0  0  0  0  0  0
    0.0176    4.2455    7.1649 O   0  0  0  0  0  0  0  0  0  0  0  0
   -5.3923    4.2798    2.3666 C   0  0  2  0  0  0  0  0  0  0  0  0
   -6.3348    4.8730    1.3283 C   0  0  0  0  0  0  0  0  0  0  0  0
   -7.1852    5.9812    1.9497 C   0  0  1  0  0  0  0  0  0  0  0  0
   -6.2778    7.0825    2.4934 C   0  0  2  0  0  0  0  0  0  0  0  0
   -5.3176    6.5028    3.5332 C   0  0  1  0  0  0  0  0  0  0  0  0
   -4.4912    5.3758    2.9146 C   0  0  1  0  0  0  0  0  0  0  0  0
   -4.5435    3.2294    1.7628 N   0  3  0  0  0  0  0  0  0  0  0  0
   -8.1581    6.4926    0.9497 N   0  3  0  0  0  0  0  0  0  0  0  0
   -4.4563    7.5249    4.0164 O   0  0  0  0  0  0  0  0  0  0  0  0
   -3.6018    4.8237    3.9020 O   0  0  0  0  0  0  0  0  0  0  0  0
   -6.4681    9.3820    3.1568 C   0  0  1  0  0  0  0  0  0  0  0  0
   -6.7629   10.0364    4.5076 C   0  0  1  0  0  0  0  0  0  0  0  0
   -8.2571   10.2765    4.6624 C   0  0  0  0  0  0  0  0  0  0  0  0
   -8.7573   11.0967    3.4845 C   0  0  1  0  0  0  0  0  0  0  0  0
   -8.4060   10.3888    2.1764 C   0  0  1  0  0  0  0  0  0  0  0  0
   -8.8247   11.1816    0.9516 C   0  0  0  0  0  0  0  0  0  0  0  0
   -6.2113    9.2310    5.6227 N   0  3  0  0  0  0  0  0  0  0  0  0
   -8.2705   10.5938   -0.2914 N   0  3  0  0  0  0  0  0  0  0  0  0
   -7.0693    8.1323    3.0867 O   0  0  0  0  0  0  0  0  0  0  0  0
  -10.1635   11.2722    3.5779 O   0  0  0  0  0  0  0  0  0  0  0  0
   -6.9787   10.1878    2.0875 O   0  0  0  0  0  0  0  0  0  0  0  0
  1  2  1  0  0  0  0
  1 10  1  0  0  0  0
  1 21  1  6  0  0  0
  2  3  1  0  0  0  0
  2  7  1  6  0  0  0
  3  4  1  0  0  0  0
  3  8  1  6  0  0  0
  4  5  1  0  0  0  0
  4  9  1  6  0  0  0
  5  6  1  1  0  0  0
  5 10  1  0  0  0  0
  6 11  1  0  0  0  0
 12 13  1  0  0  0  0
 12 17  1  0  0  0  0
 12 18  1  6  0  0  0
 13 14  1  0  0  0  0
 14 15  1  0  0  0  0
 14 19  1  6  0  0  0
 15 16  1  0  0  0  0
 15 30  1  1  0  0  0
 16 17  1  0  0  0  0
 16 20  1  6  0  0  0
 17 21  1  1  0  0  0
 22 23  1  0  0  0  0
 22 30  1  1  0  0  0
 22 32  1  0  0  0  0
 23 24  1  0  0  0  0
 23 28  1  1  0  0  0
 24 25  1  0  0  0  0
 25 26  1  0  0  0  0
 25 31  1  1  0  0  0
 26 27  1  6  0  0  0
 26 32  1  0  0  0  0
 27 29  1  0  0  0  0
M  CHG  5   8   1  18   1  19   1  28   1  29   1
M  END
>  <CHROM.1>
-73.26911366,-178.89298017,-80.51939304,178.92849658,67.01927676,-177.18908978
76.18143654,71.65163827,-156.39386347,-56.67213308,166.40126398,-138.20004774
-168.03540085,-59.52401548,170.20095622,79.32653265,-4.77112793,6.76014355
3.27053535,-0.20563585,-0.69505341,0.96409306

>  <Name>
1tob

>  <RI>
0

>  <Rbt.Current_Directory>
/home/itssahil/PROJECTS/Mol_Feturizer/New_Systems/rnas/1tob

>  <Rbt.Executable>
rbdock ($Id: //depot/dev/client3/rdock/2013.1/src/exe/rbdock.cxx#4 $)

>  <Rbt.Library>
libRbt.so (2013.1, Build901 2013/11/27)

>  <Rbt.Parameter_File>
/export/apps/rDock/src/rDock_2013.1_src/data/scripts/dock_solv.prm

>  <Rbt.Receptor>
prm/pocket_docking_2.prm

>  <SCORE>
-42.6261

>  <SCORE.INTER>
-39.434

>  <SCORE.INTER.CONST>
1

>  <SCORE.INTER.POLAR>
-6.32063

>  <SCORE.INTER.ROT>
6

>  <SCORE.INTER.SOLV>
27.5048

>  <SCORE.INTER.VDW>
-21.9888

>  <SCORE.INTER.norm>
-1.23231

>  <SCORE.INTRA>
-3.38609

>  <SCORE.INTRA.DIHEDRAL>
-9.25435

>  <SCORE.INTRA.DIHEDRAL.0>
22.9177

>  <SCORE.INTRA.POLAR>
0.136248

>  <SCORE.INTRA.POLAR.0>
-0.311208

>  <SCORE.INTRA.REPUL>
0

>  <SCORE.INTRA.REPUL.0>
0

>  <SCORE.INTRA.SOLV>
-1.87152

>  <SCORE.INTRA.SOLV.lig_0>
-132.657

>  <SCORE.INTRA.VDW>
1.7136

>  <SCORE.INTRA.VDW.0>
-4.68867

>  <SCORE.INTRA.norm>
-0.105815

>  <SCORE.RESTR>
0.193987

>  <SCORE.RESTR.CAVITY>
0.193987

>  <SCORE.RESTR.norm>
0.00606208

>  <SCORE.SYSTEM>
0

>  <SCORE.SYSTEM.CONST>
0

>  <SCORE.SYSTEM.DIHEDRAL>
0

>  <SCORE.SYSTEM.SOLV>
0

>  <SCORE.SYSTEM.norm>
0

>  <SCORE.heavy>
32

>  <SCORE.norm>
-1.33206

>  <RMSD>
1.018

$$$$
1tob
 OpenBabel11021811413D
libRbt.so/2013.1/901 2013/11/27
 32 34  0  0  0  0  0  0  0  0999 V2000
   -2.1019    5.3824    3.3373 C   0  0  2  0  0  0  0  0  0  0  0  0
   -1.3763    4.3387    2.4914 C   0  0  1  0  0  0  0  0  0  0  0  0
   -1.3022    3.0226    3.2535 C   0  0  2  0  0  0  0  0  0  0  0  0
   -0.6396    3.2577    4.6057 C   0  0  1  0  0  0  0  0  0  0  0  0
   -1.3950    4.3400    5.3720 C   0  0  1  0  0  0  0  0  0  0  0  0
   -0.7379    4.6747    6.6966 C   0  0  0  0  0  0  0  0  0  0  0  0
   -2.0720    4.1451    1.2682 O   0  0  0  0  0  0  0  0  0  0  0  0
   -0.5975    1.9884    2.4654 N   0  3  0  0  0  0  0  0  0  0  0  0
   -0.6281    2.0483    5.3522 O   0  0  0  0  0  0  0  0  0  0  0  0
   -1.4387    5.5568    4.5957 O   0  0  0  0  0  0  0  0  0  0  0  0
   -0.5618    3.5140    7.4965 O   0  0  0  0  0  0  0  0  0  0  0  0
   -5.2723    4.2083    2.2522 C   0  0  2  0  0  0  0  0  0  0  0  0
   -6.2880    4.6418    1.2040 C   0  0  0  0  0  0  0  0  0  0  0  0
   -7.1193    5.8169    1.7192 C   0  0  1  0  0  0  0  0  0  0  0  0
   -6.2011    6.9923    2.0468 C   0  0  2  0  0  0  0  0  0  0  0  0
   -5.1679    6.5726    3.0935 C   0  0  1  0  0  0  0  0  0  0  0  0
   -4.3601    5.3789    2.5852 C   0  0  1  0  0  0  0  0  0  0  0  0
   -4.4427    3.0928    1.7466 N   0  3  0  0  0  0  0  0  0  0  0  0
   -8.1614    6.1744    0.7221 N   0  3  0  0  0  0  0  0  0  0  0  0
   -4.2979    7.6606    3.3751 O   0  0  0  0  0  0  0  0  0  0  0  0
   -3.4013    4.9785    3.5809 O   0  0  0  0  0  0  0  0  0  0  0  0
   -6.3530    9.3471    2.4888 C   0  0  1  0  0  0  0  0  0  0  0  0
   -6.6741   10.1509    3.7501 C   0  0  1  0  0  0  0  0  0  0  0  0
   -8.1676   10.4284    3.8326 C   0  0  0  0  0  0  0  0  0  0  0  0
   -8.6196   11.1209    2.5572 C   0  0  1  0  0  0  0  0  0  0  0  0
   -8.2441   10.2679    1.3460 C   0  0  1  0  0  0  0  0  0  0  0  0
   -8.6138   10.9267    0.0294 C   0  0  0  0  0  0  0  0  0  0  0  0
   -6.1688    9.4654    4.9630 N   0  3  0  0  0  0  0  0  0  0  0  0
  -10.0753   10.8733   -0.2131 N   0  3  0  0  0  0  0  0  0  0  0  0
   -6.9742    8.1063    2.5385 O   0  0  0  0  0  0  0  0  0  0  0  0
  -10.0244   11.3262    2.5884 O   0  0  0  0  0  0  0  0  0  0  0  0
   -6.8187   10.0374    1.3227 O   0  0  0  0  0  0  0  0  0  0  0  0
  1  2  1  0  0  0  0
  1 10  1  0  0  0  0
  1 21  1  1  0  0  0
  2  3  1  0  0  0  0
  2  7  1  6  0  0  0
  3  4  1  0  0  0  0
  3  8  1  6  0  0  0
  4  5  1  0  0  0  0
  4  9  1  1  0  0  0
  5  6  1  1  0  0  0
  5 10  1  0  0  0  0
  6 11  1  0  0  0  0
 12 13  1  0  0  0  0
 12 17  1  0  0  0  0
 12 18  1  6  0  0  0
 13 14  1  0  0  0  0
 14 15  1  0  0  0  0
 14 19  1  6  0  0  0
 15 16  1  0  0  0  0
 15 30  1  1  0  0  0
 16 17  1  0  0  0  0
 16 20  1  6  0  0  0
 17 21  1  1  0  0  0
 22 23  1  0  0  0  0
 22 30  1  1  0  0  0
 22 32  1  0  0  0  0
 23 24  1  0  0  0  0
 23 28  1  1  0  0  0
 24 25  1  0  0  0  0
 25 26  1  0  0  0  0
 25 31  1  1  0  0  0
 26 27  1  6  0  0  0
 26 32  1  0  0  0  0
 27 29  1  0  0  0  0
M  CHG  5   8   1  18   1  19   1  28   1  29   1
M  END
>  <CHROM.1>
-88.49949442,59.60859179,-179.15567108,-178.54386105,-54.71808242,-79.59084166
-32.86916718,-47.49433165,-161.04463832,-59.90530125,135.40533834,-140.18040855
118.42874098,66.51837715,-74.21208767,173.34345257,-4.81888061,6.53768913
2.95503034,-0.29740622,-0.73467109,0.77426239

>  <Name>
1tob

>  <RI>
0

>  <Rbt.Current_Directory>
/home/itssahil/PROJECTS/Mol_Feturizer/New_Systems/rnas/1tob

>  <Rbt.Executable>
rbdock ($Id: //depot/dev/client3/rdock/2013.1/src/exe/rbdock.cxx#4 $)

>  <Rbt.Library>
libRbt.so (2013.1, Build901 2013/11/27)

>  <Rbt.Parameter_File>
/export/apps/rDock/src/rDock_2013.1_src/data/scripts/dock_solv.prm

>  <Rbt.Receptor>
prm/pocket_docking_4.prm

>  <SCORE>
-52.8442

>  <SCORE.INTER>
-45.0856

>  <SCORE.INTER.CONST>
1

>  <SCORE.INTER.POLAR>
-7.08607

>  <SCORE.INTER.ROT>
6

>  <SCORE.INTER.SOLV>
22.214

>  <SCORE.INTER.VDW>
-21.4415

>  <SCORE.INTER.norm>
-1.40893

>  <SCORE.INTRA>
-7.75853

>  <SCORE.INTRA.DIHEDRAL>
1.98642

>  <SCORE.INTRA.DIHEDRAL.0>
22.9177

>  <SCORE.INTRA.POLAR>
-3.08982

>  <SCORE.INTRA.POLAR.0>
-0.311208

>  <SCORE.INTRA.REPUL>
0

>  <SCORE.INTRA.REPUL.0>
0

>  <SCORE.INTRA.SOLV>
1.173

>  <SCORE.INTRA.SOLV.lig_0>
-132.657

>  <SCORE.INTRA.VDW>
1.16714

>  <SCORE.INTRA.VDW.0>
-4.68867

>  <SCORE.INTRA.norm>
-0.242454

>  <SCORE.RESTR>
0

>  <SCORE.RESTR.CAVITY>
0

>  <SCORE.RESTR.norm>
0

>  <SCORE.SYSTEM>
0

>  <SCORE.SYSTEM.CONST>
0

>  <SCORE.SYSTEM.DIHEDRAL>
0

>  <SCORE.SYSTEM.SOLV>
0

>  <SCORE.SYSTEM.norm>
0

>  <SCORE.heavy>
32

>  <SCORE.norm>
-1.65138

>  <RMSD>
1.057

$$$$
1tob
 OpenBabel11021811413D
libRbt.so/2013.1/901 2013/11/27
 32 34  0  0  0  0  0  0  0  0999 V2000
   -2.1117    4.5137    2.3628 C   0  0  2  0  0  0  0  0  0  0  0  0
   -1.3921    3.2399    1.9261 C   0  0  1  0  0  0  0  0  0  0  0  0
   -1.3906    2.2342    3.0693 C   0  0  2  0  0  0  0  0  0  0  0  0
   -0.7698    2.8743    4.3052 C   0  0  1  0  0  0  0  0  0  0  0  0
   -1.5150    4.1599    4.6530 C   0  0  1  0  0  0  0  0  0  0  0  0
   -0.8952    4.8857    5.8310 C   0  0  0  0  0  0  0  0  0  0  0  0
   -2.0492    2.6810    0.7976 O   0  0  0  0  0  0  0  0  0  0  0  0
   -0.6936    0.9882    2.6832 N   0  3  0  0  0  0  0  0  0  0  0  0
   -0.8266    1.9660    5.3970 O   0  0  0  0  0  0  0  0  0  0  0  0
   -1.4889    5.0664    3.5292 O   0  0  0  0  0  0  0  0  0  0  0  0
   -1.8899    5.4119    6.6980 O   0  0  0  0  0  0  0  0  0  0  0  0
   -5.3987    4.1444    1.2548 C   0  0  2  0  0  0  0  0  0  0  0  0
   -6.4210    5.0051    0.5253 C   0  0  0  0  0  0  0  0  0  0  0  0
   -7.1516    5.9178    1.5106 C   0  0  1  0  0  0  0  0  0  0  0  0
   -6.1447    6.8224    2.2176 C   0  0  2  0  0  0  0  0  0  0  0  0
   -5.1041    5.9740    2.9501 C   0  0  1  0  0  0  0  0  0  0  0  0
   -4.3979    5.0427    1.9653 C   0  0  1  0  0  0  0  0  0  0  0  0
   -4.6654    3.2826    0.3019 N   0  3  0  0  0  0  0  0  0  0  0  0
   -8.2034    6.6899    0.7995 N   0  3  0  0  0  0  0  0  0  0  0  0
   -4.1529    6.8190    3.5835 O   0  0  0  0  0  0  0  0  0  0  0  0
   -3.4321    4.2358    2.6631 O   0  0  0  0  0  0  0  0  0  0  0  0
   -6.4317    9.0181    3.1452 C   0  0  1  0  0  0  0  0  0  0  0  0
   -6.8910    9.7127    4.4283 C   0  0  1  0  0  0  0  0  0  0  0  0
   -8.4101    9.7176    4.5106 C   0  0  0  0  0  0  0  0  0  0  0  0
   -8.9776   10.3576    3.2542 C   0  0  1  0  0  0  0  0  0  0  0  0
   -8.4560    9.6228    2.0199 C   0  0  1  0  0  0  0  0  0  0  0  0
   -8.9366   10.2456    0.7217 C   0  0  0  0  0  0  0  0  0  0  0  0
   -6.2722    9.0909    5.6229 N   0  3  0  0  0  0  0  0  0  0  0  0
   -8.3127   11.5705    0.4913 N   0  3  0  0  0  0  0  0  0  0  0  0
   -6.8222    7.6856    3.1537 O   0  0  0  0  0  0  0  0  0  0  0  0
  -10.3966   10.3089    3.2834 O   0  0  0  0  0  0  0  0  0  0  0  0
   -7.0123    9.6502    1.9978 O   0  0  0  0  0  0  0  0  0  0  0  0
  1  2  1  0  0  0  0
  1 10  1  0  0  0  0
  1 21  1  1  0  0  0
  2  3  1  0  0  0  0
  2  7  1  6  0  0  0
  3  4  1  0  0  0  0
  3  8  1  6  0  0  0
  4  5  1  0  0  0  0
  4  9  1  1  0  0  0
  5  6  1  1  0  0  0
  5 10  1  0  0  0  0
  6 11  1  0  0  0  0
 12 13  1  0  0  0  0
 12 17  1  0  0  0  0
 12 18  1  6  0  0  0
 13 14  1  0  0  0  0
 14 15  1  0  0  0  0
 14 19  1  6  0  0  0
 15 16  1  0  0  0  0
 15 30  1  1  0  0  0
 16 17  1  0  0  0  0
 16 20  1  6  0  0  0
 17 21  1  1  0  0  0
 22 23  1  0  0  0  0
 22 30  1  1  0  0  0
 22 32  1  0  0  0  0
 23 24  1  0  0  0  0
 23 28  1  1  0  0  0
 24 25  1  0  0  0  0
 25 26  1  0  0  0  0
 25 31  1  1  0  0  0
 26 27  1  6  0  0  0
 26 32  1  0  0  0  0
 27 29  1  0  0  0  0
M  CHG  5   8   1  18   1  19   1  28   1  29   1
M  END
>  <CHROM.1>
-125.97313360,178.61282526,177.72237921,-178.31311036,-139.44014762,-69.78677174
30.03097447,-53.16264210,-135.31414474,69.06019593,126.14564046,-162.78293246
66.76867593,-54.49291530,69.42561298,-174.98138256,-4.89701999,6.20887879
2.87271198,0.34903157,0.71015190,-2.22656357

>  <Name>
1tob

>  <RI>
0

>  <Rbt.Current_Directory>
/home/itssahil/PROJECTS/Mol_Feturizer/New_Systems/rnas/1tob

>  <Rbt.Executable>
rbdock ($Id: //depot/dev/client3/rdock/2013.1/src/exe/rbdock.cxx#4 $)

>  <Rbt.Library>
libRbt.so (2013.1, Build901 2013/11/27)

>  <Rbt.Parameter_File>
/export/apps/rDock/src/rDock_2013.1_src/data/scripts/dock_solv.prm

>  <Rbt.Receptor>
prm/pocket_docking_2.prm

>  <SCORE>
-48.7744

>  <SCORE.INTER>
-50.2301

>  <SCORE.INTER.CONST>
1

>  <SCORE.INTER.POLAR>
-7.77924

>  <SCORE.INTER.ROT>
6

>  <SCORE.INTER.SOLV>
30.5314

>  <SCORE.INTER.VDW>
-25.3331

>  <SCORE.INTER.norm>
-1.56969

>  <SCORE.INTRA>
0.442728

>  <SCORE.INTRA.DIHEDRAL>
5.94069

>  <SCORE.INTRA.DIHEDRAL.0>
22.9177

>  <SCORE.INTRA.POLAR>
-0.855597

>  <SCORE.INTRA.POLAR.0>
-0.311208

>  <SCORE.INTRA.REPUL>
0

>  <SCORE.INTRA.REPUL.0>
0

>  <SCORE.INTRA.SOLV>
0.641696

>  <SCORE.INTRA.SOLV.lig_0>
-132.657

>  <SCORE.INTRA.VDW>
0.0605638

>  <SCORE.INTRA.VDW.0>
-4.68867

>  <SCORE.INTRA.norm>
0.0138352

>  <SCORE.RESTR>
1.01295

>  <SCORE.RESTR.CAVITY>
1.01295

>  <SCORE.RESTR.norm>
0.0316548

>  <SCORE.SYSTEM>
0

>  <SCORE.SYSTEM.CONST>
0

>  <SCORE.SYSTEM.DIHEDRAL>
0

>  <SCORE.SYSTEM.SOLV>
0

>  <SCORE.SYSTEM.norm>
0

>  <SCORE.heavy>
32

>  <SCORE.norm>
-1.5242

>  <RMSD>
1.058

$$$$
1tob
 OpenBabel11021811413D
libRbt.so/2013.1/901 2013/11/27
 32 34  0  0  0  0  0  0  0  0999 V2000
   -2.2894    4.4200    1.9939 C   0  0  2  0  0  0  0  0  0  0  0  0
   -1.5810    3.1227    1.6115 C   0  0  1  0  0  0  0  0  0  0  0  0
   -1.5602    2.1785    2.8058 C   0  0  2  0  0  0  0  0  0  0  0  0
   -0.9148    2.8807    3.9945 C   0  0  1  0  0  0  0  0  0  0  0  0
   -1.6505    4.1853    4.2880 C   0  0  1  0  0  0  0  0  0  0  0  0
   -1.0071    4.9700    5.4143 C   0  0  0  0  0  0  0  0  0  0  0  0
   -2.2605    2.5073    0.5265 O   0  0  0  0  0  0  0  0  0  0  0  0
   -0.8734    0.9117    2.4729 N   0  3  0  0  0  0  0  0  0  0  0  0
   -0.9531    2.0314    5.1335 O   0  0  0  0  0  0  0  0  0  0  0  0
   -1.6436    5.0313    3.1178 O   0  0  0  0  0  0  0  0  0  0  0  0
   -1.9837    5.5265    6.2830 O   0  0  0  0  0  0  0  0  0  0  0  0
   -5.6446    4.2074    1.0309 C   0  0  2  0  0  0  0  0  0  0  0  0
   -6.6685    5.1374    0.3945 C   0  0  0  0  0  0  0  0  0  0  0  0
   -7.3090    6.0329    1.4552 C   0  0  1  0  0  0  0  0  0  0  0  0
   -6.2310    6.8669    2.1438 C   0  0  2  0  0  0  0  0  0  0  0  0
   -5.1881    5.9484    2.7827 C   0  0  1  0  0  0  0  0  0  0  0  0
   -4.5726    5.0352    1.7230 C   0  0  1  0  0  0  0  0  0  0  0  0
   -4.9976    3.3612    0.0044 N   0  3  0  0  0  0  0  0  0  0  0  0
   -8.3650    6.8747    0.8352 N   0  3  0  0  0  0  0  0  0  0  0  0
   -4.1719    6.7282    3.3984 O   0  0  0  0  0  0  0  0  0  0  0  0
   -3.6046    4.1625    2.3330 O   0  0  0  0  0  0  0  0  0  0  0  0
   -6.4101    9.0388    3.1509 C   0  0  1  0  0  0  0  0  0  0  0  0
   -6.8775    9.7387    4.4283 C   0  0  1  0  0  0  0  0  0  0  0  0
   -8.3973    9.7691    4.4871 C   0  0  0  0  0  0  0  0  0  0  0  0
   -8.9345   10.4210    3.2234 C   0  0  1  0  0  0  0  0  0  0  0  0
   -8.4063    9.6797    1.9958 C   0  0  1  0  0  0  0  0  0  0  0  0
   -8.8563   10.3131    0.6917 C   0  0  0  0  0  0  0  0  0  0  0  0
   -6.2877    9.1044    5.6309 N   0  3  0  0  0  0  0  0  0  0  0  0
   -8.2630   11.6592    0.5086 N   0  3  0  0  0  0  0  0  0  0  0  0
   -6.8232    7.7132    3.1505 O   0  0  0  0  0  0  0  0  0  0  0  0
  -10.3544   10.3962    3.2307 O   0  0  0  0  0  0  0  0  0  0  0  0
   -6.9622    9.6828    1.9961 O   0  0  0  0  0  0  0  0  0  0  0  0
  1  2  1  0  0  0  0
  1 10  1  0  0  0  0
  1 21  1  1  0  0  0
  2  3  1  0  0  0  0
  2  7  1  6  0  0  0
  3  4  1  0  0  0  0
  3  8  1  6  0  0  0
  4  5  1  0  0  0  0
  4  9  1  1  0  0  0
  5  6  1  1  0  0  0
  5 10  1  0  0  0  0
  6 11  1  0  0  0  0
 12 13  1  0  0  0  0
 12 17  1  0  0  0  0
 12 18  1  6  0  0  0
 13 14  1  0  0  0  0
 14 15  1  0  0  0  0
 14 19  1  6  0  0  0
 15 16  1  0  0  0  0
 15 30  1  1  0  0  0
 16 17  1  0  0  0  0
 16 20  1  6  0  0  0
 17 21  1  1  0  0  0
 22 23  1  0  0  0  0
 22 30  1  1  0  0  0
 22 32  1  0  0  0  0
 23 24  1  0  0  0  0
 23 28  1  1  0  0  0
 24 25  1  0  0  0  0
 25 26  1  0  0  0  0
 25 31  1  1  0  0  0
 26 27  1  6  0  0  0
 26 32  1  0  0  0  0
 27 29  1  0  0  0  0
M  CHG  5   8   1  18   1  19   1  28   1  29   1
M  END
>  <CHROM.1>
-132.57316492,174.21409591,61.37921119,169.17897765,-138.50639342,-65.62535067
67.79906297,-176.68127383,-133.45716851,-169.64875582,127.36053896,-168.05738254
-52.14512040,65.22694392,66.37378046,-57.24309406,-4.98863013,6.23209499
2.70361397,0.40947552,0.70429933,-2.25334440

>  <Name>
1tob

>  <RI>
0

>  <Rbt.Current_Directory>
/home/itssahil/PROJECTS/Mol_Feturizer/New_Systems/rnas/1tob

>  <Rbt.Executable>
rbdock ($Id: //depot/dev/client3/rdock/2013.1/src/exe/rbdock.cxx#4 $)

>  <Rbt.Library>
libRbt.so (2013.1, Build901 2013/11/27)

>  <Rbt.Parameter_File>
/export/apps/rDock/src/rDock_2013.1_src/data/scripts/dock_solv.prm

>  <Rbt.Receptor>
prm/pocket_docking_3.prm

>  <SCORE>
-47.7167

>  <SCORE.INTER>
-47.7005

>  <SCORE.INTER.CONST>
1

>  <SCORE.INTER.POLAR>
-7.73347

>  <SCORE.INTER.ROT>
6

>  <SCORE.INTER.SOLV>
31.6391

>  <SCORE.INTER.VDW>
-24.1685

>  <SCORE.INTER.norm>
-1.49064

>  <SCORE.INTRA>
-0.0161924

>  <SCORE.INTRA.DIHEDRAL>
3.73374

>  <SCORE.INTRA.DIHEDRAL.0>
22.9177

>  <SCORE.INTRA.POLAR>
-0.717916

>  <SCORE.INTRA.POLAR.0>
-0.311208

>  <SCORE.INTRA.REPUL>
0

>  <SCORE.INTRA.REPUL.0>
0

>  <SCORE.INTRA.SOLV>
0.460983

>  <SCORE.INTRA.SOLV.lig_0>
-132.657

>  <SCORE.INTRA.VDW>
0.327363

>  <SCORE.INTRA.VDW.0>
-4.68867

>  <SCORE.INTRA.norm>
-0.000506013

>  <SCORE.RESTR>
0

>  <SCORE.RESTR.CAVITY>
0

>  <SCORE.RESTR.norm>
0

>  <SCORE.SYSTEM>
0

>  <SCORE.SYSTEM.CONST>
0

>  <SCORE.SYSTEM.DIHEDRAL>
0

>  <SCORE.SYSTEM.SOLV>
0

>  <SCORE.SYSTEM.norm>
0

>  <SCORE.heavy>
32

>  <SCORE.norm>
-1.49115

>  <RMSD>
1.100

$$$$
1tob
 OpenBabel11021811413D
libRbt.so/2013.1/901 2013/11/27
 32 34  0  0  0  0  0  0  0  0999 V2000
   -2.1479    5.3767    3.5882 C   0  0  2  0  0  0  0  0  0  0  0  0
   -1.2486    4.7971    2.4989 C   0  0  1  0  0  0  0  0  0  0  0  0
   -0.9912    3.3225    2.7773 C   0  0  2  0  0  0  0  0  0  0  0  0
   -0.4074    3.1661    4.1764 C   0  0  1  0  0  0  0  0  0  0  0  0
   -1.3402    3.8049    5.2017 C   0  0  1  0  0  0  0  0  0  0  0  0
   -0.7764    3.7498    6.6080 C   0  0  0  0  0  0  0  0  0  0  0  0
   -1.8747    4.9431    1.2324 O   0  0  0  0  0  0  0  0  0  0  0  0
   -0.1155    2.7290    1.7437 N   0  3  0  0  0  0  0  0  0  0  0  0
   -0.2281    1.7874    4.4712 O   0  0  0  0  0  0  0  0  0  0  0  0
   -1.5516    5.1964    4.8789 O   0  0  0  0  0  0  0  0  0  0  0  0
   -1.0267    2.4918    7.2185 O   0  0  0  0  0  0  0  0  0  0  0  0
   -5.1394    4.0195    2.0892 C   0  0  2  0  0  0  0  0  0  0  0  0
   -6.1060    4.5015    1.0162 C   0  0  0  0  0  0  0  0  0  0  0  0
   -7.0039    5.6106    1.5651 C   0  0  1  0  0  0  0  0  0  0  0  0
   -6.1453    6.7835    2.0329 C   0  0  2  0  0  0  0  0  0  0  0  0
   -5.1616    6.3157    3.1065 C   0  0  1  0  0  0  0  0  0  0  0  0
   -4.2869    5.1871    2.5617 C   0  0  1  0  0  0  0  0  0  0  0  0
   -4.2456    2.9690    1.5542 N   0  3  0  0  0  0  0  0  0  0  0  0
   -7.9974    6.0123    0.5357 N   0  3  0  0  0  0  0  0  0  0  0  0
   -4.3455    7.4038    3.5192 O   0  0  0  0  0  0  0  0  0  0  0  0
   -3.3750    4.7403    3.5814 O   0  0  0  0  0  0  0  0  0  0  0  0
   -6.4000    9.0934    2.6358 C   0  0  1  0  0  0  0  0  0  0  0  0
   -6.8040    9.7832    3.9400 C   0  0  1  0  0  0  0  0  0  0  0  0
   -8.3080   10.0096    3.9729 C   0  0  0  0  0  0  0  0  0  0  0  0
   -8.7243   10.7892    2.7362 C   0  0  1  0  0  0  0  0  0  0  0  0
   -8.2667   10.0479    1.4806 C   0  0  1  0  0  0  0  0  0  0  0  0
   -8.5979   10.7997    0.2041 C   0  0  0  0  0  0  0  0  0  0  0  0
   -6.3318    9.0172    5.1175 N   0  3  0  0  0  0  0  0  0  0  0  0
   -8.2446   10.0090   -0.9991 N   0  3  0  0  0  0  0  0  0  0  0  0
   -6.9818    7.8350    2.5574 O   0  0  0  0  0  0  0  0  0  0  0  0
  -10.1351   10.9504    2.7165 O   0  0  0  0  0  0  0  0  0  0  0  0
   -6.8349    9.8616    1.5070 O   0  0  0  0  0  0  0  0  0  0  0  0
  1  2  1  0  0  0  0
  1 10  1  0  0  0  0
  1 21  1  1  0  0  0
  2  3  1  0  0  0  0
  2  7  1  6  0  0  0
  3  4  1  0  0  0  0
  3  8  1  6  0  0  0
  4  5  1  0  0  0  0
  4  9  1  1  0  0  0
  5  6  1  1  0  0  0
  5 10  1  0  0  0  0
  6 11  1  0  0  0  0
 12 13  1  0  0  0  0
 12 17  1  0  0  0  0
 12 18  1  6  0  0  0
 13 14  1  0  0  0  0
 14 15  1  0  0  0  0
 14 19  1  6  0  0  0
 15 16  1  0  0  0  0
 15 30  1  1  0  0  0
 16 17  1  0  0  0  0
 16 20  1  6  0  0  0
 17 21  1  1  0  0  0
 22 23  1  0  0  0  0
 22 30  1  6  0  0  0
 22 32  1  0  0  0  0
 23 24  1  0  0  0  0
 23 28  1  1  0  0  0
 24 25  1  0  0  0  0
 25 26  1  0  0  0  0
 25 31  1  6  0  0  0
 26 27  1  6  0  0  0
 26 32  1  0  0  0  0
 27 29  1  0  0  0  0
M  CHG  5   8   1  18   1  19   1  28   1  29   1
M  END
>  <CHROM.1>
-79.14105545,65.02540064,105.11305754,-165.28966043,-82.43741424,-134.94399719
-152.84468301,82.21259539,-161.00741948,-58.60352334,146.32357032,-139.39338552
78.18590650,178.61372335,-175.31063964,-46.25214905,-4.70764954,6.32578411
2.85952712,-0.11898797,-0.76074046,1.05756596

>  <Name>
1tob

>  <RI>
0

>  <Rbt.Current_Directory>
/home/itssahil/PROJECTS/Mol_Feturizer/New_Systems/rnas/1tob

>  <Rbt.Executable>
rbdock ($Id: //depot/dev/client3/rdock/2013.1/src/exe/rbdock.cxx#4 $)

>  <Rbt.Library>
libRbt.so (2013.1, Build901 2013/11/27)

>  <Rbt.Parameter_File>
/export/apps/rDock/src/rDock_2013.1_src/data/scripts/dock_solv.prm

>  <Rbt.Receptor>
prm/pocket_docking_3.prm

>  <SCORE>
-53.5552

>  <SCORE.INTER>
-52.317

>  <SCORE.INTER.CONST>
1

>  <SCORE.INTER.POLAR>
-8.29646

>  <SCORE.INTER.ROT>
6

>  <SCORE.INTER.SOLV>
27.5856

>  <SCORE.INTER.VDW>
-24.0183

>  <SCORE.INTER.norm>
-1.63491

>  <SCORE.INTRA>
-1.23826

>  <SCORE.INTRA.DIHEDRAL>
6.14687

>  <SCORE.INTRA.DIHEDRAL.0>
22.9177

>  <SCORE.INTRA.POLAR>
-1.52797

>  <SCORE.INTRA.POLAR.0>
-0.311208

>  <SCORE.INTRA.REPUL>
0

>  <SCORE.INTRA.REPUL.0>
0

>  <SCORE.INTRA.SOLV>
-1.10983

>  <SCORE.INTRA.SOLV.lig_0>
-132.657

>  <SCORE.INTRA.VDW>
1.43834

>  <SCORE.INTRA.VDW.0>
-4.68867

>  <SCORE.INTRA.norm>
-0.0386955

>  <SCORE.RESTR>
0

>  <SCORE.RESTR.CAVITY>
0

>  <SCORE.RESTR.norm>
0

>  <SCORE.SYSTEM>
0

>  <SCORE.SYSTEM.CONST>
0

>  <SCORE.SYSTEM.DIHEDRAL>
0

>  <SCORE.SYSTEM.SOLV>
0

>  <SCORE.SYSTEM.norm>
0

>  <SCORE.heavy>
32

>  <SCORE.norm>
-1.6736

>  <RMSD>
1.126

$$$$
1tob
 OpenBabel11021811413D
libRbt.so/2013.1/901 2013/11/27
 32 34  0  0  0  0  0  0  0  0999 V2000
   -3.1688    5.1263    1.8950 C   0  0  2  0  0  0  0  0  0  0  0  0
   -2.6785    3.8188    1.2775 C   0  0  1  0  0  0  0  0  0  0  0  0
   -2.6325    2.7335    2.3444 C   0  0  2  0  0  0  0  0  0  0  0  0
   -1.7668    3.2037    3.5072 C   0  0  1  0  0  0  0  0  0  0  0  0
   -2.2937    4.5326    4.0416 C   0  0  1  0  0  0  0  0  0  0  0  0
   -1.4271    5.0923    5.1526 C   0  0  0  0  0  0  0  0  0  0  0  0
   -3.5545    3.4248    0.2311 O   0  0  0  0  0  0  0  0  0  0  0  0
   -2.1537    1.4522    1.7820 N   0  3  0  0  0  0  0  0  0  0  0  0
   -1.7738    2.2253    4.5381 O   0  0  0  0  0  0  0  0  0  0  0  0
   -2.3217    5.5151    2.9837 O   0  0  0  0  0  0  0  0  0  0  0  0
   -0.0883    4.6287    5.0500 O   0  0  0  0  0  0  0  0  0  0  0  0
   -6.5717    4.9293    1.2019 C   0  0  2  0  0  0  0  0  0  0  0  0
   -7.6189    5.8118    0.5365 C   0  0  0  0  0  0  0  0  0  0  0  0
   -8.1786    6.8237    1.5366 C   0  0  1  0  0  0  0  0  0  0  0  0
   -7.0472    7.6999    2.0697 C   0  0  2  0  0  0  0  0  0  0  0  0
   -5.9807    6.8287    2.7353 C   0  0  1  0  0  0  0  0  0  0  0  0
   -5.4463    5.7998    1.7395 C   0  0  1  0  0  0  0  0  0  0  0  0
   -6.0027    3.9697    0.2303 N   0  3  0  0  0  0  0  0  0  0  0  0
   -9.2582    7.6208    0.8984 N   0  3  0  0  0  0  0  0  0  0  0  0
   -4.9163    7.6449    3.2053 O   0  0  0  0  0  0  0  0  0  0  0  0
   -4.4555    4.9729    2.3762 O   0  0  0  0  0  0  0  0  0  0  0  0
   -6.8230    9.8215    3.1707 C   0  0  1  0  0  0  0  0  0  0  0  0
   -6.9469   10.3439    4.6030 C   0  0  1  0  0  0  0  0  0  0  0  0
   -8.3905   10.7168    4.9053 C   0  0  0  0  0  0  0  0  0  0  0  0
   -8.8785   11.7132    3.8664 C   0  0  1  0  0  0  0  0  0  0  0  0
   -8.7014   11.1273    2.4661 C   0  0  1  0  0  0  0  0  0  0  0  0
   -9.1150   12.0937    1.3711 C   0  0  0  0  0  0  0  0  0  0  0  0
   -6.4108    9.3640    5.5770 N   0  3  0  0  0  0  0  0  0  0  0  0
  -10.0617   11.4638    0.4199 N   0  3  0  0  0  0  0  0  0  0  0  0
   -7.5627    8.6563    3.0183 O   0  0  0  0  0  0  0  0  0  0  0  0
  -10.2463   12.0203    4.0937 O   0  0  0  0  0  0  0  0  0  0  0  0
   -7.3152   10.7924    2.2388 O   0  0  0  0  0  0  0  0  0  0  0  0
  1  2  1  0  0  0  0
  1 10  1  0  0  0  0
  1 21  1  1  0  0  0
  2  3  1  0  0  0  0
  2  7  1  6  0  0  0
  3  4  1  0  0  0  0
  3  8  1  6  0  0  0
  4  5  1  0  0  0  0
  4  9  1  1  0  0  0
  5  6  1  1  0  0  0
  5 10  1  0  0  0  0
  6 11  1  0  0  0  0
 12 13  1  0  0  0  0
 12 17  1  0  0  0  0
 12 18  1  6  0  0  0
 13 14  1  0  0  0  0
 14 15  1  0  0  0  0
 14 19  1  6  0  0  0
 15 16  1  0  0  0  0
 15 30  1  1  0  0  0
 16 17  1  0  0  0  0
 16 20  1  6  0  0  0
 17 21  1  1  0  0  0
 22 23  1  0  0  0  0
 22 30  1  1  0  0  0
 22 32  1  0  0  0  0
 23 24  1  0  0  0  0
 23 28  1  1  0  0  0
 24 25  1  0  0  0  0
 25 26  1  0  0  0  0
 25 31  1  1  0  0  0
 26 27  1  6  0  0  0
 26 32  1  0  0  0  0
 27 29  1  0  0  0  0
M  CHG  5   8   1  18   1  19   1  28   1  29   1
M  END
>  <CHROM.1>
-117.17325110,-167.32228841,102.68920863,71.23561110,25.96493795,-173.15837403
-147.84001293,66.62760180,-154.77529167,-169.91280496,124.78330967,-148.57141339
-164.85688695,-52.50685380,-128.59339709,-172.71759476,-5.60467937,6.90483774
2.65433281,0.57626641,0.64998473,-2.41010609

>  <Name>
1tob

>  <RI>
0

>  <Rbt.Current_Directory>
/home/itssahil/PROJECTS/Mol_Feturizer/New_Systems/rnas/1tob

>  <Rbt.Executable>
rbdock ($Id: //depot/dev/client3/rdock/2013.1/src/exe/rbdock.cxx#4 $)

>  <Rbt.Library>
libRbt.so (2013.1, Build901 2013/11/27)

>  <Rbt.Parameter_File>
/export/apps/rDock/src/rDock_2013.1_src/data/scripts/dock_solv.prm

>  <Rbt.Receptor>
prm/pocket_docking_2.prm

>  <SCORE>
-43.1482

>  <SCORE.INTER>
-54.4354

>  <SCORE.INTER.CONST>
1

>  <SCORE.INTER.POLAR>
-8.99986

>  <SCORE.INTER.ROT>
6

>  <SCORE.INTER.SOLV>
27.2034

>  <SCORE.INTER.VDW>
-22.9585

>  <SCORE.INTER.norm>
-1.70111

>  <SCORE.INTRA>
10.8541

>  <SCORE.INTRA.DIHEDRAL>
14.2293

>  <SCORE.INTRA.DIHEDRAL.0>
22.9177

>  <SCORE.INTRA.POLAR>
-0.241843

>  <SCORE.INTRA.POLAR.0>
-0.311208

>  <SCORE.INTRA.REPUL>
0.00703122

>  <SCORE.INTRA.REPUL.0>
0

>  <SCORE.INTRA.SOLV>
1.39761

>  <SCORE.INTRA.SOLV.lig_0>
-132.657

>  <SCORE.INTRA.VDW>
3.82779

>  <SCORE.INTRA.VDW.0>
-4.68867

>  <SCORE.INTRA.norm>
0.339192

>  <SCORE.RESTR>
0.433024

>  <SCORE.RESTR.CAVITY>
0.433024

>  <SCORE.RESTR.norm>
0.013532

>  <SCORE.SYSTEM>
0

>  <SCORE.SYSTEM.CONST>
0

>  <SCORE.SYSTEM.DIHEDRAL>
0

>  <SCORE.SYSTEM.SOLV>
0

>  <SCORE.SYSTEM.norm>
0

>  <SCORE.heavy>
32

>  <SCORE.norm>
-1.34838

>  <RMSD>
1.133

$$$$
1tob
 OpenBabel11021811413D
libRbt.so/2013.1/901 2013/11/27
 32 34  0  0  0  0  0  0  0  0999 V2000
   -1.7561    4.7441    3.3686 C   0  0  2  0  0  0  0  0  0  0  0  0
   -0.8329    3.7650    2.6473 C   0  0  1  0  0  0  0  0  0  0  0  0
   -0.8912    2.4062    3.3319 C   0  0  2  0  0  0  0  0  0  0  0  0
   -0.5495    2.5685    4.8082 C   0  0  1  0  0  0  0  0  0  0  0  0
   -1.4853    3.5905    5.4476 C   0  0  1  0  0  0  0  0  0  0  0  0
   -1.1456    3.8538    6.9015 C   0  0  0  0  0  0  0  0  0  0  0  0
   -1.2364    3.6358    1.2916 O   0  0  0  0  0  0  0  0  0  0  0  0
   -0.0014    1.4327    2.6626 N   0  3  0  0  0  0  0  0  0  0  0  0
   -0.6684    1.3162    5.4697 O   0  0  0  0  0  0  0  0  0  0  0  0
   -1.3913    4.8516    4.7504 O   0  0  0  0  0  0  0  0  0  0  0  0
    0.0784    4.5636    7.0282 O   0  0  0  0  0  0  0  0  0  0  0  0
   -4.8099    4.1847    1.6219 C   0  0  2  0  0  0  0  0  0  0  0  0
   -5.7221    5.0296    0.7431 C   0  0  0  0  0  0  0  0  0  0  0  0
   -6.5909    5.9484    1.6025 C   0  0  1  0  0  0  0  0  0  0  0  0
   -5.7004    6.8682    2.4347 C   0  0  2  0  0  0  0  0  0  0  0  0
   -4.7706    6.0359    3.3189 C   0  0  1  0  0  0  0  0  0  0  0  0
   -3.9258    5.0983    2.4568 C   0  0  1  0  0  0  0  0  0  0  0  0
   -3.9433    3.3172    0.7944 N   0  3  0  0  0  0  0  0  0  0  0  0
   -7.5346    6.7046    0.7389 N   0  3  0  0  0  0  0  0  0  0  0  0
   -3.9243    6.8950    4.0711 O   0  0  0  0  0  0  0  0  0  0  0  0
   -3.0653    4.3065    3.2954 O   0  0  0  0  0  0  0  0  0  0  0  0
   -6.1233    9.0706    3.2919 C   0  0  1  0  0  0  0  0  0  0  0  0
   -6.7152    9.7581    4.5235 C   0  0  1  0  0  0  0  0  0  0  0  0
   -8.2346    9.7598    4.4474 C   0  0  0  0  0  0  0  0  0  0  0  0
   -8.6700   10.4047    3.1417 C   0  0  1  0  0  0  0  0  0  0  0  0
   -8.0212    9.6768    1.9650 C   0  0  1  0  0  0  0  0  0  0  0  0
   -8.3658   10.3050    0.6268 C   0  0  0  0  0  0  0  0  0  0  0  0
   -6.2224    9.1318    5.7730 N   0  3  0  0  0  0  0  0  0  0  0  0
   -9.7991   10.1235    0.2946 N   0  3  0  0  0  0  0  0  0  0  0  0
   -6.5095    7.7374    3.2536 O   0  0  0  0  0  0  0  0  0  0  0  0
  -10.0842   10.3532    3.0231 O   0  0  0  0  0  0  0  0  0  0  0  0
   -6.5831    9.7071    2.0932 O   0  0  0  0  0  0  0  0  0  0  0  0
  1  2  1  0  0  0  0
  1 10  1  0  0  0  0
  1 21  1  1  0  0  0
  2  3  1  0  0  0  0
  2  7  1  6  0  0  0
  3  4  1  0  0  0  0
  3  8  1  6  0  0  0
  4  5  1  0  0  0  0
  4  9  1  1  0  0  0
  5  6  1  1  0  0  0
  5 10  1  0  0  0  0
  6 11  1  0  0  0  0
 12 13  1  0  0  0  0
 12 17  1  0  0  0  0
 12 18  1  6  0  0  0
 13 14  1  0  0  0  0
 14 15  1  0  0  0  0
 14 19  1  6  0  0  0
 15 16  1  0  0  0  0
 15 30  1  1  0  0  0
 16 17  1  0  0  0  0
 16 20  1  6  0  0  0
 17 21  1  1  0  0  0
 22 23  1  0  0  0  0
 22 30  1  6  0  0  0
 22 32  1  0  0  0  0
 23 24  1  0  0  0  0
 23 28  1  1  0  0  0
 24 25  1  0  0  0  0
 25 26  1  0  0  0  0
 25 31  1  6  0  0  0
 26 27  1  6  0  0  0
 26 32  1  0  0  0  0
 27 29  1  0  0  0  0
M  CHG  5   8   1  18   1  19   1  28   1  29   1
M  END
>  <CHROM.1>
-110.17253827,58.65315825,-40.01360614,166.36471768,69.92573281,103.01417458
28.91094962,55.39263496,-135.75301804,66.78359456,137.31802553,-160.16476793
63.52848109,-49.78451749,-68.06154635,58.75980302,-4.52953397,6.14807697
3.16479161,0.19001842,0.72667527,-2.12674889

>  <Name>
1tob

>  <RI>
0

>  <Rbt.Current_Directory>
/home/itssahil/PROJECTS/Mol_Feturizer/New_Systems/rnas/1tob

>  <Rbt.Executable>
rbdock ($Id: //depot/dev/client3/rdock/2013.1/src/exe/rbdock.cxx#4 $)

>  <Rbt.Library>
libRbt.so (2013.1, Build901 2013/11/27)

>  <Rbt.Parameter_File>
/export/apps/rDock/src/rDock_2013.1_src/data/scripts/dock_solv.prm

>  <Rbt.Receptor>
prm/pocket_docking_2.prm

>  <SCORE>
-39.9515

>  <SCORE.INTER>
-40.7114

>  <SCORE.INTER.CONST>
1

>  <SCORE.INTER.POLAR>
-6.98966

>  <SCORE.INTER.ROT>
6

>  <SCORE.INTER.SOLV>
28.1628

>  <SCORE.INTER.VDW>
-20.8296

>  <SCORE.INTER.norm>
-1.27223

>  <SCORE.INTRA>
0.154155

>  <SCORE.INTRA.DIHEDRAL>
8.25327

>  <SCORE.INTRA.DIHEDRAL.0>
22.9177

>  <SCORE.INTRA.POLAR>
-1.1885

>  <SCORE.INTRA.POLAR.0>
-0.311208

>  <SCORE.INTRA.REPUL>
0

>  <SCORE.INTRA.REPUL.0>
0

>  <SCORE.INTRA.SOLV>
2.12352

>  <SCORE.INTRA.SOLV.lig_0>
-132.657

>  <SCORE.INTRA.VDW>
-0.993334

>  <SCORE.INTRA.VDW.0>
-4.68867

>  <SCORE.INTRA.norm>
0.00481736

>  <SCORE.RESTR>
0.605762

>  <SCORE.RESTR.CAVITY>
0.605762

>  <SCORE.RESTR.norm>
0.0189301

>  <SCORE.SYSTEM>
0

>  <SCORE.SYSTEM.CONST>
0

>  <SCORE.SYSTEM.DIHEDRAL>
0

>  <SCORE.SYSTEM.SOLV>
0

>  <SCORE.SYSTEM.norm>
0

>  <SCORE.heavy>
32

>  <SCORE.norm>
-1.24848

>  <RMSD>
1.156

$$$$
1tob
 OpenBabel11021811413D
libRbt.so/2013.1/901 2013/11/27
 32 34  0  0  0  0  0  0  0  0999 V2000
   -2.2980    4.5606    1.9741 C   0  0  2  0  0  0  0  0  0  0  0  0
   -1.3804    3.3590    1.7614 C   0  0  1  0  0  0  0  0  0  0  0  0
   -1.4187    2.4607    2.9903 C   0  0  2  0  0  0  0  0  0  0  0  0
   -1.0541    3.2766    4.2248 C   0  0  1  0  0  0  0  0  0  0  0  0
   -1.9861    4.4792    4.3452 C   0  0  1  0  0  0  0  0  0  0  0  0
   -1.6246    5.3748    5.5139 C   0  0  0  0  0  0  0  0  0  0  0  0
   -1.8050    2.6275    0.6203 O   0  0  0  0  0  0  0  0  0  0  0  0
   -0.5336    1.2879    2.8220 N   0  3  0  0  0  0  0  0  0  0  0  0
   -1.1542    2.4628    5.3857 O   0  0  0  0  0  0  0  0  0  0  0  0
   -1.9116    5.2846    3.1490 O   0  0  0  0  0  0  0  0  0  0  0  0
   -2.7817    5.9497    6.1044 O   0  0  0  0  0  0  0  0  0  0  0  0
   -5.6992    4.2075    0.9183 C   0  0  2  0  0  0  0  0  0  0  0  0
   -6.7502    5.1484    0.3453 C   0  0  0  0  0  0  0  0  0  0  0  0
   -7.3456    6.0212    1.4505 C   0  0  1  0  0  0  0  0  0  0  0  0
   -6.2398    6.8428    2.1091 C   0  0  2  0  0  0  0  0  0  0  0  0
   -5.1698    5.9134    2.6841 C   0  0  1  0  0  0  0  0  0  0  0  0
   -4.5994    5.0229    1.5807 C   0  0  1  0  0  0  0  0  0  0  0  0
   -5.0960    3.3834   -0.1519 N   0  3  0  0  0  0  0  0  0  0  0  0
   -8.4279    6.8735    0.8934 N   0  3  0  0  0  0  0  0  0  0  0  0
   -4.1288    6.6823    3.2715 O   0  0  0  0  0  0  0  0  0  0  0  0
   -3.6054    4.1397    2.1309 O   0  0  0  0  0  0  0  0  0  0  0  0
   -6.3791    8.9941    3.1658 C   0  0  1  0  0  0  0  0  0  0  0  0
   -6.8137    9.6743    4.4652 C   0  0  1  0  0  0  0  0  0  0  0  0
   -8.3315    9.7000    4.5649 C   0  0  0  0  0  0  0  0  0  0  0  0
   -8.9037   10.3685    3.3256 C   0  0  1  0  0  0  0  0  0  0  0  0
   -8.4069    9.6463    2.0737 C   0  0  1  0  0  0  0  0  0  0  0  0
   -8.8929   10.2972    0.7914 C   0  0  0  0  0  0  0  0  0  0  0  0
   -6.1906    9.0243    5.6423 N   0  3  0  0  0  0  0  0  0  0  0  0
   -8.0303   11.4377    0.4004 N   0  3  0  0  0  0  0  0  0  0  0  0
   -6.7891    7.6675    3.1573 O   0  0  0  0  0  0  0  0  0  0  0  0
  -10.3228   10.3399    3.3704 O   0  0  0  0  0  0  0  0  0  0  0  0
   -6.9633    9.6531    2.0355 O   0  0  0  0  0  0  0  0  0  0  0  0
  1  2  1  0  0  0  0
  1 10  1  0  0  0  0
  1 21  1  1  0  0  0
  2  3  1  0  0  0  0
  2  7  1  6  0  0  0
  3  4  1  0  0  0  0
  3  8  1  6  0  0  0
  4  5  1  0  0  0  0
  4  9  1  1  0  0  0
  5  6  1  1  0  0  0
  5 10  1  0  0  0  0
  6 11  1  0  0  0  0
 12 13  1  0  0  0  0
 12 17  1  0  0  0  0
 12 18  1  6  0  0  0
 13 14  1  0  0  0  0
 14 15  1  0  0  0  0
 14 19  1  6  0  0  0
 15 16  1  0  0  0  0
 15 30  1  1  0  0  0
 16 17  1  0  0  0  0
 16 20  1  6  0  0  0
 17 21  1  1  0  0  0
 22 23  1  0  0  0  0
 22 30  1  1  0  0  0
 22 32  1  0  0  0  0
 23 24  1  0  0  0  0
 23 28  1  1  0  0  0
 24 25  1  0  0  0  0
 25 26  1  0  0  0  0
 25 31  1  1  0  0  0
 26 27  1  6  0  0  0
 26 32  1  0  0  0  0
 27 29  1  0  0  0  0
M  CHG  5   8   1  18   1  19   1  28   1  29   1
M  END
>  <CHROM.1>
-145.27894420,-60.57502359,74.55590269,170.56169233,-145.57233715,-58.39710361
-150.42416142,-60.79777322,-133.36402248,54.74910984,140.17401123,-169.07777891
-171.94858723,64.83265524,83.33902988,63.40708424,-5.02420240,6.31508972
2.73230319,0.37311287,0.70344106,-2.20579495

>  <Name>
1tob

>  <RI>
0

>  <Rbt.Current_Directory>
/home/itssahil/PROJECTS/Mol_Feturizer/New_Systems/rnas/1tob

>  <Rbt.Executable>
rbdock ($Id: //depot/dev/client3/rdock/2013.1/src/exe/rbdock.cxx#4 $)

>  <Rbt.Library>
libRbt.so (2013.1, Build901 2013/11/27)

>  <Rbt.Parameter_File>
/export/apps/rDock/src/rDock_2013.1_src/data/scripts/dock_solv.prm

>  <Rbt.Receptor>
prm/pocket_docking_2.prm

>  <SCORE>
-43.5316

>  <SCORE.INTER>
-45.768

>  <SCORE.INTER.CONST>
1

>  <SCORE.INTER.POLAR>
-7.28966

>  <SCORE.INTER.ROT>
6

>  <SCORE.INTER.SOLV>
30.2254

>  <SCORE.INTER.VDW>
-23.8883

>  <SCORE.INTER.norm>
-1.43025

>  <SCORE.INTRA>
0.589946

>  <SCORE.INTRA.DIHEDRAL>
2.13621

>  <SCORE.INTRA.DIHEDRAL.0>
22.9177

>  <SCORE.INTRA.POLAR>
-0.161608

>  <SCORE.INTRA.POLAR.0>
-0.311208

>  <SCORE.INTRA.REPUL>
0

>  <SCORE.INTRA.REPUL.0>
0

>  <SCORE.INTRA.SOLV>
-0.0666462

>  <SCORE.INTRA.SOLV.lig_0>
-132.657

>  <SCORE.INTRA.VDW>
0.104632

>  <SCORE.INTRA.VDW.0>
-4.68867

>  <SCORE.INTRA.norm>
0.0184358

>  <SCORE.RESTR>
1.64643

>  <SCORE.RESTR.CAVITY>
1.64643

>  <SCORE.RESTR.norm>
0.0514511

>  <SCORE.SYSTEM>
0

>  <SCORE.SYSTEM.CONST>
0

>  <SCORE.SYSTEM.DIHEDRAL>
0

>  <SCORE.SYSTEM.SOLV>
0

>  <SCORE.SYSTEM.norm>
0

>  <SCORE.heavy>
32

>  <SCORE.norm>
-1.36036

>  <RMSD>
1.209

$$$$
1tob
 OpenBabel11021811413D
libRbt.so/2013.1/901 2013/11/27
 32 34  0  0  0  0  0  0  0  0999 V2000
   -2.2464    5.8851    3.2719 C   0  0  2  0  0  0  0  0  0  0  0  0
   -1.0556    5.7168    2.3312 C   0  0  1  0  0  0  0  0  0  0  0  0
   -0.4471    4.3335    2.5166 C   0  0  2  0  0  0  0  0  0  0  0  0
   -0.0801    4.1345    3.9824 C   0  0  1  0  0  0  0  0  0  0  0  0
   -1.3086    4.3598    4.8595 C   0  0  1  0  0  0  0  0  0  0  0  0
   -0.9900    4.2515    6.3378 C   0  0  0  0  0  0  0  0  0  0  0  0
   -1.4814    5.8762    0.9856 O   0  0  0  0  0  0  0  0  0  0  0  0
    0.7161    4.1380    1.6244 N   0  3  0  0  0  0  0  0  0  0  0  0
    0.4251    2.8205    4.1774 O   0  0  0  0  0  0  0  0  0  0  0  0
   -1.8432    5.6818    4.6321 O   0  0  0  0  0  0  0  0  0  0  0  0
   -2.0144    4.8310    7.1333 O   0  0  0  0  0  0  0  0  0  0  0  0
   -4.9878    4.2357    1.4693 C   0  0  2  0  0  0  0  0  0  0  0  0
   -6.0492    4.7327    0.4973 C   0  0  0  0  0  0  0  0  0  0  0  0
   -7.0221    5.6762    1.2050 C   0  0  1  0  0  0  0  0  0  0  0  0
   -6.2592    6.8715    1.7718 C   0  0  2  0  0  0  0  0  0  0  0  0
   -5.1822    6.3903    2.7453 C   0  0  1  0  0  0  0  0  0  0  0  0
   -4.2303    5.4246    2.0403 C   0  0  1  0  0  0  0  0  0  0  0  0
   -4.0241    3.3483    0.7822 N   0  3  0  0  0  0  0  0  0  0  0  0
   -8.1002    6.0861    0.2681 N   0  3  0  0  0  0  0  0  0  0  0  0
   -4.4562    7.5034    3.2492 O   0  0  0  0  0  0  0  0  0  0  0  0
   -3.2295    4.9628    2.9655 O   0  0  0  0  0  0  0  0  0  0  0  0
   -6.7003    9.0570    2.6620 C   0  0  1  0  0  0  0  0  0  0  0  0
   -7.0085    9.4989    4.0937 C   0  0  1  0  0  0  0  0  0  0  0  0
   -8.5124    9.5497    4.3178 C   0  0  0  0  0  0  0  0  0  0  0  0
   -9.1447   10.4511    3.2699 C   0  0  1  0  0  0  0  0  0  0  0  0
   -8.7729    9.9575    1.8722 C   0  0  1  0  0  0  0  0  0  0  0  0
   -9.3233   10.8469    0.7722 C   0  0  0  0  0  0  0  0  0  0  0  0
   -6.3293    8.6257    5.0799 N   0  3  0  0  0  0  0  0  0  0  0  0
   -9.5209   10.0923   -0.4885 N   0  3  0  0  0  0  0  0  0  0  0  0
   -7.1667    7.7671    2.4462 O   0  0  0  0  0  0  0  0  0  0  0  0
  -10.5567   10.4559    3.4224 O   0  0  0  0  0  0  0  0  0  0  0  0
   -7.3371    9.9294    1.7203 O   0  0  0  0  0  0  0  0  0  0  0  0
  1  2  1  0  0  0  0
  1 10  1  0  0  0  0
  1 21  1  6  0  0  0
  2  3  1  0  0  0  0
  2  7  1  6  0  0  0
  3  4  1  0  0  0  0
  3  8  1  6  0  0  0
  4  5  1  0  0  0  0
  4  9  1  6  0  0  0
  5  6  1  1  0  0  0
  5 10  1  0  0  0  0
  6 11  1  0  0  0  0
 12 13  1  0  0  0  0
 12 17  1  0  0  0  0
 12 18  1  6  0  0  0
 13 14  1  0  0  0  0
 14 15  1  0  0  0  0
 14 19  1  6  0  0  0
 15 16  1  0  0  0  0
 15 30  1  1  0  0  0
 16 17  1  0  0  0  0
 16 20  1  6  0  0  0
 17 21  1  1  0  0  0
 22 23  1  0  0  0  0
 22 30  1  1  0  0  0
 22 32  1  0  0  0  0
 23 24  1  0  0  0  0
 23 28  1  1  0  0  0
 24 25  1  0  0  0  0
 25 26  1  0  0  0  0
 25 31  1  6  0  0  0
 26 27  1  6  0  0  0
 26 32  1  0  0  0  0
 27 29  1  0  0  0  0
M  CHG  5   8   1  18   1  19   1  28   1  29   1
M  END
>  <CHROM.1>
-92.41604406,61.09344333,172.66523966,-57.08087475,163.05917088,168.22805909
48.82247284,-29.93713440,-161.78608405,-59.05289003,163.11771597,-134.59516191
-64.93759416,175.83968051,-153.51922986,63.91432792,-4.80960020,6.66203821
2.73983949,-0.08192515,-0.60880398,1.14031389

>  <Name>
1tob

>  <RI>
0

>  <Rbt.Current_Directory>
/home/itssahil/PROJECTS/Mol_Feturizer/New_Systems/rnas/1tob

>  <Rbt.Executable>
rbdock ($Id: //depot/dev/client3/rdock/2013.1/src/exe/rbdock.cxx#4 $)

>  <Rbt.Library>
libRbt.so (2013.1, Build901 2013/11/27)

>  <Rbt.Parameter_File>
/export/apps/rDock/src/rDock_2013.1_src/data/scripts/dock_solv.prm

>  <Rbt.Receptor>
prm/pocket_docking_5.prm

>  <SCORE>
-53.3525

>  <SCORE.INTER>
-49.443

>  <SCORE.INTER.CONST>
1

>  <SCORE.INTER.POLAR>
-8.35235

>  <SCORE.INTER.ROT>
6

>  <SCORE.INTER.SOLV>
28.7146

>  <SCORE.INTER.VDW>
-22.2924

>  <SCORE.INTER.norm>
-1.54509

>  <SCORE.INTRA>
-3.90954

>  <SCORE.INTRA.DIHEDRAL>
-3.56142

>  <SCORE.INTRA.DIHEDRAL.0>
22.9177

>  <SCORE.INTRA.POLAR>
-0.308298

>  <SCORE.INTRA.POLAR.0>
-0.311208

>  <SCORE.INTRA.REPUL>
0

>  <SCORE.INTRA.REPUL.0>
0

>  <SCORE.INTRA.SOLV>
-3.50496

>  <SCORE.INTRA.SOLV.lig_0>
-132.657

>  <SCORE.INTRA.VDW>
0.671868

>  <SCORE.INTRA.VDW.0>
-4.68867

>  <SCORE.INTRA.norm>
-0.122173

>  <SCORE.RESTR>
0

>  <SCORE.RESTR.CAVITY>
0

>  <SCORE.RESTR.norm>
0

>  <SCORE.SYSTEM>
0

>  <SCORE.SYSTEM.CONST>
0

>  <SCORE.SYSTEM.DIHEDRAL>
0

>  <SCORE.SYSTEM.SOLV>
0

>  <SCORE.SYSTEM.norm>
0

>  <SCORE.heavy>
32

>  <SCORE.norm>
-1.66727

>  <RMSD>
1.211

$$$$
1tob
 OpenBabel11021811413D
libRbt.so/2013.1/901 2013/11/27
 32 34  0  0  0  0  0  0  0  0999 V2000
   -2.8918    5.1810    1.8106 C   0  0  2  0  0  0  0  0  0  0  0  0
   -1.9678    3.9970    1.5355 C   0  0  1  0  0  0  0  0  0  0  0  0
   -1.9491    3.0699    2.7431 C   0  0  2  0  0  0  0  0  0  0  0  0
   -1.5489    3.8615    3.9824 C   0  0  1  0  0  0  0  0  0  0  0  0
   -2.4906    5.0484    4.1659 C   0  0  1  0  0  0  0  0  0  0  0  0
   -2.0969    5.9212    5.3414 C   0  0  0  0  0  0  0  0  0  0  0  0
   -2.4256    3.2869    0.3937 O   0  0  0  0  0  0  0  0  0  0  0  0
   -1.0564    1.9132    2.5142 N   0  3  0  0  0  0  0  0  0  0  0  0
   -1.5954    3.0195    5.1265 O   0  0  0  0  0  0  0  0  0  0  0  0
   -2.4708    5.8825    2.9873 O   0  0  0  0  0  0  0  0  0  0  0  0
   -3.1112    6.8673    5.6480 O   0  0  0  0  0  0  0  0  0  0  0  0
   -6.3605    4.7670    0.9405 C   0  0  2  0  0  0  0  0  0  0  0  0
   -7.4421    5.6884    0.3933 C   0  0  0  0  0  0  0  0  0  0  0  0
   -7.9516    6.6245    1.4895 C   0  0  1  0  0  0  0  0  0  0  0  0
   -6.7960    7.4670    2.0248 C   0  0  2  0  0  0  0  0  0  0  0  0
   -5.6952    6.5570    2.5719 C   0  0  1  0  0  0  0  0  0  0  0  0
   -5.2106    5.6036    1.4801 C   0  0  1  0  0  0  0  0  0  0  0  0
   -5.8404    3.8813   -0.1241 N   0  3  0  0  0  0  0  0  0  0  0  0
   -9.0639    7.4586    0.9651 N   0  3  0  0  0  0  0  0  0  0  0  0
   -4.6096    7.3438    3.0435 O   0  0  0  0  0  0  0  0  0  0  0  0
   -4.1870    4.7393    2.0056 O   0  0  0  0  0  0  0  0  0  0  0  0
   -6.5951    9.5630    3.1781 C   0  0  1  0  0  0  0  0  0  0  0  0
   -6.8293   10.1682    4.5634 C   0  0  1  0  0  0  0  0  0  0  0  0
   -8.3053   10.4795    4.7602 C   0  0  0  0  0  0  0  0  0  0  0  0
   -8.7822   11.3793    3.6318 C   0  0  1  0  0  0  0  0  0  0  0  0
   -8.4936   10.7158    2.2856 C   0  0  1  0  0  0  0  0  0  0  0  0
   -8.8915   11.5862    1.1073 C   0  0  0  0  0  0  0  0  0  0  0  0
   -6.3014    9.2833    5.6287 N   0  3  0  0  0  0  0  0  0  0  0  0
   -8.0508   12.8043    1.0235 N   0  3  0  0  0  0  0  0  0  0  0  0
   -7.2639    8.3515    3.0636 O   0  0  0  0  0  0  0  0  0  0  0  0
  -10.1749   11.6245    3.7624 O   0  0  0  0  0  0  0  0  0  0  0  0
   -7.0811   10.4439    2.1578 O   0  0  0  0  0  0  0  0  0  0  0  0
  1  2  1  0  0  0  0
  1 10  1  0  0  0  0
  1 21  1  1  0  0  0
  2  3  1  0  0  0  0
  2  7  1  6  0  0  0
  3  4  1  0  0  0  0
  3  8  1  6  0  0  0
  4  5  1  0  0  0  0
  4  9  1  1  0  0  0
  5  6  1  1  0  0  0
  5 10  1  0  0  0  0
  6 11  1  0  0  0  0
 12 13  1  0  0  0  0
 12 17  1  0  0  0  0
 12 18  1  6  0  0  0
 13 14  1  0  0  0  0
 14 15  1  0  0  0  0
 14 19  1  6  0  0  0
 15 16  1  0  0  0  0
 15 30  1  1  0  0  0
 16 17  1  0  0  0  0
 16 20  1  6  0  0  0
 17 21  1  1  0  0  0
 22 23  1  0  0  0  0
 22 30  1  1  0  0  0
 22 32  1  0  0  0  0
 23 24  1  0  0  0  0
 23 28  1  1  0  0  0
 24 25  1  0  0  0  0
 25 26  1  0  0  0  0
 25 31  1  1  0  0  0
 26 27  1  6  0  0  0
 26 32  1  0  0  0  0
 27 29  1  0  0  0  0
M  CHG  5   8   1  18   1  19   1  28   1  29   1
M  END
>  <CHROM.1>
-143.59832706,-75.88933068,171.22002851,-175.05511440,-169.15774607,79.48400836
-25.05779237,66.94706524,-149.05367738,-59.69183184,144.15936466,-160.06455858
72.93995687,64.86608755,66.60076010,170.05040698,-5.41270249,7.01572349,2.70350751
0.53776192,0.69267486,-2.33223098

>  <Name>
1tob

>  <RI>
0

>  <Rbt.Current_Directory>
/home/itssahil/PROJECTS/Mol_Feturizer/New_Systems/rnas/1tob

>  <Rbt.Executable>
rbdock ($Id: //depot/dev/client3/rdock/2013.1/src/exe/rbdock.cxx#4 $)

>  <Rbt.Library>
libRbt.so (2013.1, Build901 2013/11/27)

>  <Rbt.Parameter_File>
/export/apps/rDock/src/rDock_2013.1_src/data/scripts/dock_solv.prm

>  <Rbt.Receptor>
prm/pocket_docking_3.prm

>  <SCORE>
-49.7383

>  <SCORE.INTER>
-49.1522

>  <SCORE.INTER.CONST>
1

>  <SCORE.INTER.POLAR>
-7.82527

>  <SCORE.INTER.ROT>
6

>  <SCORE.INTER.SOLV>
25.7074

>  <SCORE.INTER.VDW>
-22.8531

>  <SCORE.INTER.norm>
-1.53601

>  <SCORE.INTRA>
-0.586055

>  <SCORE.INTRA.DIHEDRAL>
-0.80004

>  <SCORE.INTRA.DIHEDRAL.0>
22.9177

>  <SCORE.INTRA.POLAR>
0.257011

>  <SCORE.INTRA.POLAR.0>
-0.311208

>  <SCORE.INTRA.REPUL>
0

>  <SCORE.INTRA.REPUL.0>
0

>  <SCORE.INTRA.SOLV>
-1.55935

>  <SCORE.INTRA.SOLV.lig_0>
-132.657

>  <SCORE.INTRA.VDW>
-0.2802

>  <SCORE.INTRA.VDW.0>
-4.68867

>  <SCORE.INTRA.norm>
-0.0183142

>  <SCORE.RESTR>
0

>  <SCORE.RESTR.CAVITY>
0

>  <SCORE.RESTR.norm>
0

>  <SCORE.SYSTEM>
0

>  <SCORE.SYSTEM.CONST>
0

>  <SCORE.SYSTEM.DIHEDRAL>
0

>  <SCORE.SYSTEM.SOLV>
0

>  <SCORE.SYSTEM.norm>
0

>  <SCORE.heavy>
32

>  <SCORE.norm>
-1.55432

>  <RMSD>
1.216

$$$$
1tob
 OpenBabel11021811413D
libRbt.so/2013.1/901 2013/11/27
 32 34  0  0  0  0  0  0  0  0999 V2000
   -3.1723    4.9587    1.6611 C   0  0  2  0  0  0  0  0  0  0  0  0
   -2.6735    3.6193    1.1240 C   0  0  1  0  0  0  0  0  0  0  0  0
   -2.6023    2.6064    2.2587 C   0  0  2  0  0  0  0  0  0  0  0  0
   -1.7292    3.1610    3.3778 C   0  0  1  0  0  0  0  0  0  0  0  0
   -2.2658    4.5160    3.8310 C   0  0  1  0  0  0  0  0  0  0  0  0
   -1.3934    5.1566    4.8926 C   0  0  0  0  0  0  0  0  0  0  0  0
   -3.5566    3.1481    0.1162 O   0  0  0  0  0  0  0  0  0  0  0  0
   -2.1148    1.2966    1.7750 N   0  3  0  0  0  0  0  0  0  0  0  0
   -1.7127    2.2519    4.4702 O   0  0  0  0  0  0  0  0  0  0  0  0
   -2.3176    5.4270    2.7118 O   0  0  0  0  0  0  0  0  0  0  0  0
   -2.0772    5.2597    6.1335 O   0  0  0  0  0  0  0  0  0  0  0  0
   -6.6459    5.1114    1.1869 C   0  0  2  0  0  0  0  0  0  0  0  0
   -7.6429    6.1579    0.7083 C   0  0  0  0  0  0  0  0  0  0  0  0
   -8.0124    7.1055    1.8499 C   0  0  1  0  0  0  0  0  0  0  0  0
   -6.7565    7.8050    2.3648 C   0  0  2  0  0  0  0  0  0  0  0  0
   -5.7392    6.7678    2.8429 C   0  0  1  0  0  0  0  0  0  0  0  0
   -5.3962    5.8055    1.7062 C   0  0  1  0  0  0  0  0  0  0  0  0
   -6.2595    4.2117    0.0780 N   0  3  0  0  0  0  0  0  0  0  0  0
   -9.0484    8.0676    1.3927 N   0  3  0  0  0  0  0  0  0  0  0  0
   -4.5610    7.4215    3.2953 O   0  0  0  0  0  0  0  0  0  0  0  0
   -4.4516    4.8225    2.1669 O   0  0  0  0  0  0  0  0  0  0  0  0
   -6.3092    9.8403    3.5570 C   0  0  1  0  0  0  0  0  0  0  0  0
   -6.4510   10.4457    4.9546 C   0  0  1  0  0  0  0  0  0  0  0  0
   -7.8857   10.8919    5.1929 C   0  0  0  0  0  0  0  0  0  0  0  0
   -8.3030   11.8481    4.0875 C   0  0  1  0  0  0  0  0  0  0  0  0
   -8.1116   11.1791    2.7269 C   0  0  1  0  0  0  0  0  0  0  0  0
   -8.4543   12.0992    1.5693 C   0  0  0  0  0  0  0  0  0  0  0  0
   -5.9832    9.5004    5.9958 N   0  3  0  0  0  0  0  0  0  0  0  0
   -7.3819   13.0946    1.3308 N   0  3  0  0  0  0  0  0  0  0  0  0
   -7.0921    8.6989    3.4459 O   0  0  0  0  0  0  0  0  0  0  0  0
   -9.6627   12.2216    4.2568 O   0  0  0  0  0  0  0  0  0  0  0  0
   -6.7347   10.7770    2.5596 O   0  0  0  0  0  0  0  0  0  0  0  0
  1  2  1  0  0  0  0
  1 10  1  0  0  0  0
  1 21  1  1  0  0  0
  2  3  1  0  0  0  0
  2  7  1  6  0  0  0
  3  4  1  0  0  0  0
  3  8  1  6  0  0  0
  4  5  1  0  0  0  0
  4  9  1  1  0  0  0
  5  6  1  1  0  0  0
  5 10  1  0  0  0  0
  6 11  1  0  0  0  0
 12 13  1  0  0  0  0
 12 17  1  0  0  0  0
 12 18  1  6  0  0  0
 13 14  1  0  0  0  0
 14 15  1  0  0  0  0
 14 19  1  6  0  0  0
 15 16  1  0  0  0  0
 15 30  1  1  0  0  0
 16 17  1  0  0  0  0
 16 20  1  6  0  0  0
 17 21  1  1  0  0  0
 22 23  1  0  0  0  0
 22 30  1  1  0  0  0
 22 32  1  0  0  0  0
 23 24  1  0  0  0  0
 23 28  1  1  0  0  0
 24 25  1  0  0  0  0
 25 26  1  0  0  0  0
 25 31  1  1  0  0  0
 26 27  1  6  0  0  0
 26 32  1  0  0  0  0
 27 29  1  0  0  0  0
M  CHG  5   8   1  18   1  19   1  28   1  29   1
M  END
>  <CHROM.1>
-130.75583969,68.74209934,100.14052196,68.24539744,-114.28022482,-168.46418421
78.82994820,-53.13411966,-148.07521170,-57.56866664,129.08302500,-161.55028593
-88.87643503,-53.51579315,76.44034765,-173.26088181,-5.37562272,7.02805582
2.80349077,0.69873306,0.72667142,-2.40061642

>  <Name>
1tob

>  <RI>
0

>  <Rbt.Current_Directory>
/home/itssahil/PROJECTS/Mol_Feturizer/New_Systems/rnas/1tob

>  <Rbt.Executable>
rbdock ($Id: //depot/dev/client3/rdock/2013.1/src/exe/rbdock.cxx#4 $)

>  <Rbt.Library>
libRbt.so (2013.1, Build901 2013/11/27)

>  <Rbt.Parameter_File>
/export/apps/rDock/src/rDock_2013.1_src/data/scripts/dock_solv.prm

>  <Rbt.Receptor>
prm/pocket_docking_8.prm

>  <SCORE>
-56.0545

>  <SCORE.INTER>
-60.2681

>  <SCORE.INTER.CONST>
1

>  <SCORE.INTER.POLAR>
-10.1175

>  <SCORE.INTER.ROT>
6

>  <SCORE.INTER.SOLV>
30.863

>  <SCORE.INTER.VDW>
-24.3413

>  <SCORE.INTER.norm>
-1.88338

>  <SCORE.INTRA>
4.21364

>  <SCORE.INTRA.DIHEDRAL>
9.28773

>  <SCORE.INTRA.DIHEDRAL.0>
22.9177

>  <SCORE.INTRA.POLAR>
0.165285

>  <SCORE.INTRA.POLAR.0>
-0.311208

>  <SCORE.INTRA.REPUL>
0

>  <SCORE.INTRA.REPUL.0>
0

>  <SCORE.INTRA.SOLV>
-1.03515

>  <SCORE.INTRA.SOLV.lig_0>
-132.657

>  <SCORE.INTRA.VDW>
-0.474618

>  <SCORE.INTRA.VDW.0>
-4.68867

>  <SCORE.INTRA.norm>
0.131676

>  <SCORE.RESTR>
0

>  <SCORE.RESTR.CAVITY>
0

>  <SCORE.RESTR.norm>
0

>  <SCORE.SYSTEM>
0

>  <SCORE.SYSTEM.CONST>
0

>  <SCORE.SYSTEM.DIHEDRAL>
0

>  <SCORE.SYSTEM.SOLV>
0

>  <SCORE.SYSTEM.norm>
0

>  <SCORE.heavy>
32

>  <SCORE.norm>
-1.7517

>  <RMSD>
1.249

$$$$
1tob
 OpenBabel11021811413D
libRbt.so/2013.1/901 2013/11/27
 32 34  0  0  0  0  0  0  0  0999 V2000
   -3.1380    4.9549    1.6280 C   0  0  2  0  0  0  0  0  0  0  0  0
   -2.4957    3.6630    1.1285 C   0  0  1  0  0  0  0  0  0  0  0  0
   -2.4550    2.6412    2.2566 C   0  0  2  0  0  0  0  0  0  0  0  0
   -1.7308    3.2405    3.4561 C   0  0  1  0  0  0  0  0  0  0  0  0
   -2.4042    4.5465    3.8687 C   0  0  1  0  0  0  0  0  0  0  0  0
   -1.6817    5.2324    5.0116 C   0  0  0  0  0  0  0  0  0  0  0  0
   -3.2460    3.1444    0.0396 O   0  0  0  0  0  0  0  0  0  0  0  0
   -1.8308    1.3771    1.8095 N   0  3  0  0  0  0  0  0  0  0  0  0
   -1.7481    2.3189    4.5380 O   0  0  0  0  0  0  0  0  0  0  0  0
   -2.4196    5.4679    2.7570 O   0  0  0  0  0  0  0  0  0  0  0  0
   -2.3392    6.4316    5.3959 O   0  0  0  0  0  0  0  0  0  0  0  0
   -6.6693    5.0455    1.1153 C   0  0  2  0  0  0  0  0  0  0  0  0
   -7.6686    6.1090    0.6808 C   0  0  0  0  0  0  0  0  0  0  0  0
   -7.9829    7.0530    1.8416 C   0  0  1  0  0  0  0  0  0  0  0  0
   -6.6995    7.7316    2.3150 C   0  0  2  0  0  0  0  0  0  0  0  0
   -5.6799    6.6772    2.7484 C   0  0  1  0  0  0  0  0  0  0  0  0
   -5.3920    5.7187    1.5933 C   0  0  1  0  0  0  0  0  0  0  0  0
   -6.3361    4.1489   -0.0132 N   0  3  0  0  0  0  0  0  0  0  0  0
   -9.0215    8.0325    1.4293 N   0  3  0  0  0  0  0  0  0  0  0  0
   -4.4770    7.3113    3.1619 O   0  0  0  0  0  0  0  0  0  0  0  0
   -4.4449    4.7196    2.0123 O   0  0  0  0  0  0  0  0  0  0  0  0
   -6.1635    9.7379    3.5197 C   0  0  1  0  0  0  0  0  0  0  0  0
   -6.3621   10.4137    4.8776 C   0  0  1  0  0  0  0  0  0  0  0  0
   -7.7895   10.9230    5.0094 C   0  0  0  0  0  0  0  0  0  0  0  0
   -8.1041   11.8403    3.8390 C   0  0  1  0  0  0  0  0  0  0  0  0
   -7.8607   11.1009    2.5238 C   0  0  1  0  0  0  0  0  0  0  0  0
   -8.0993   11.9769    1.3074 C   0  0  0  0  0  0  0  0  0  0  0  0
   -5.9929    9.5024    5.9865 N   0  3  0  0  0  0  0  0  0  0  0  0
   -7.0409   13.0048    1.1623 N   0  3  0  0  0  0  0  0  0  0  0  0
   -6.9830    8.6220    3.4138 O   0  0  0  0  0  0  0  0  0  0  0  0
   -9.4556   12.2710    3.9097 O   0  0  0  0  0  0  0  0  0  0  0  0
   -6.4933   10.6412    2.4574 O   0  0  0  0  0  0  0  0  0  0  0  0
  1  2  1  0  0  0  0
  1 10  1  0  0  0  0
  1 21  1  1  0  0  0
  2  3  1  0  0  0  0
  2  7  1  6  0  0  0
  3  4  1  0  0  0  0
  3  8  1  6  0  0  0
  4  5  1  0  0  0  0
  4  9  1  1  0  0  0
  5  6  1  1  0  0  0
  5 10  1  0  0  0  0
  6 11  1  0  0  0  0
 12 13  1  0  0  0  0
 12 17  1  0  0  0  0
 12 18  1  6  0  0  0
 13 14  1  0  0  0  0
 14 15  1  0  0  0  0
 14 19  1  6  0  0  0
 15 16  1  0  0  0  0
 15 30  1  1  0  0  0
 16 17  1  0  0  0  0
 16 20  1  6  0  0  0
 17 21  1  1  0  0  0
 22 23  1  0  0  0  0
 22 30  1  1  0  0  0
 22 32  1  0  0  0  0
 23 24  1  0  0  0  0
 23 28  1  1  0  0  0
 24 25  1  0  0  0  0
 25 26  1  0  0  0  0
 25 31  1  1  0  0  0
 26 27  1  6  0  0  0
 26 32  1  0  0  0  0
 27 29  1  0  0  0  0
M  CHG  5   8   1  18   1  19   1  28   1  29   1
M  END
>  <CHROM.1>
-137.12359584,53.69520006,-51.52532162,67.24754441,-178.88761754,-174.61392192
80.61569518,-176.72436541,-149.32082799,158.25269918,138.54384592,-167.32914370
-91.57451992,177.25175923,71.05905716,-62.05213800,-5.30216593,7.04515166
2.71274865,0.73360543,0.71200512,-2.44346562

>  <Name>
1tob

>  <RI>
0

>  <Rbt.Current_Directory>
/home/itssahil/PROJECTS/Mol_Feturizer/New_Systems/rnas/1tob

>  <Rbt.Executable>
rbdock ($Id: //depot/dev/client3/rdock/2013.1/src/exe/rbdock.cxx#4 $)

>  <Rbt.Library>
libRbt.so (2013.1, Build901 2013/11/27)

>  <Rbt.Parameter_File>
/export/apps/rDock/src/rDock_2013.1_src/data/scripts/dock_solv.prm

>  <Rbt.Receptor>
prm/pocket_docking_3.prm

>  <SCORE>
-55.1962

>  <SCORE.INTER>
-51.7537

>  <SCORE.INTER.CONST>
1

>  <SCORE.INTER.POLAR>
-8.67734

>  <SCORE.INTER.ROT>
6

>  <SCORE.INTER.SOLV>
30.8064

>  <SCORE.INTER.VDW>
-23.4468

>  <SCORE.INTER.norm>
-1.6173

>  <SCORE.INTRA>
-3.44255

>  <SCORE.INTRA.DIHEDRAL>
-0.466003

>  <SCORE.INTRA.DIHEDRAL.0>
22.9177

>  <SCORE.INTRA.POLAR>
-0.589679

>  <SCORE.INTRA.POLAR.0>
-0.311208

>  <SCORE.INTRA.REPUL>
0

>  <SCORE.INTRA.REPUL.0>
0

>  <SCORE.INTRA.SOLV>
-1.22217

>  <SCORE.INTRA.SOLV.lig_0>
-132.657

>  <SCORE.INTRA.VDW>
-0.593553

>  <SCORE.INTRA.VDW.0>
-4.68867

>  <SCORE.INTRA.norm>
-0.10758

>  <SCORE.RESTR>
0

>  <SCORE.RESTR.CAVITY>
0

>  <SCORE.RESTR.norm>
0

>  <SCORE.SYSTEM>
0

>  <SCORE.SYSTEM.CONST>
0

>  <SCORE.SYSTEM.DIHEDRAL>
0

>  <SCORE.SYSTEM.SOLV>
0

>  <SCORE.SYSTEM.norm>
0

>  <SCORE.heavy>
32

>  <SCORE.norm>
-1.72488

>  <RMSD>
1.311

$$$$
1tob
 OpenBabel11021811413D
libRbt.so/2013.1/901 2013/11/27
 32 34  0  0  0  0  0  0  0  0999 V2000
   -3.3180    5.2430    1.9450 C   0  0  2  0  0  0  0  0  0  0  0  0
   -2.8460    3.9375    1.3093 C   0  0  1  0  0  0  0  0  0  0  0  0
   -2.7700    2.8485    2.3708 C   0  0  2  0  0  0  0  0  0  0  0  0
   -1.8714    3.3144    3.5101 C   0  0  1  0  0  0  0  0  0  0  0  0
   -2.3823    4.6417    4.0638 C   0  0  1  0  0  0  0  0  0  0  0  0
   -1.4842    5.1974    5.1515 C   0  0  0  0  0  0  0  0  0  0  0  0
   -3.7516    3.5473    0.2870 O   0  0  0  0  0  0  0  0  0  0  0  0
   -2.3081    1.5689    1.7906 N   0  3  0  0  0  0  0  0  0  0  0  0
   -1.8494    2.3326    4.5375 O   0  0  0  0  0  0  0  0  0  0  0  0
   -2.4400    5.6278    3.0104 O   0  0  0  0  0  0  0  0  0  0  0  0
   -1.6019    4.4499    6.3538 O   0  0  0  0  0  0  0  0  0  0  0  0
   -6.6909    5.0192    1.2611 C   0  0  2  0  0  0  0  0  0  0  0  0
   -7.7603    5.8910    0.6171 C   0  0  0  0  0  0  0  0  0  0  0  0
   -8.3650    6.8441    1.6483 C   0  0  1  0  0  0  0  0  0  0  0  0
   -7.2701    7.7365    2.2285 C   0  0  2  0  0  0  0  0  0  0  0  0
   -6.1819    6.8766    2.8732 C   0  0  1  0  0  0  0  0  0  0  0  0
   -5.6018    5.9055    1.8455 C   0  0  1  0  0  0  0  0  0  0  0  0
   -6.0790    4.1175    0.2606 N   0  3  0  0  0  0  0  0  0  0  0  0
   -9.4641    7.6285    1.0279 N   0  3  0  0  0  0  0  0  0  0  0  0
   -5.1512    7.7093    3.3873 O   0  0  0  0  0  0  0  0  0  0  0  0
   -4.5905    5.0883    2.4622 O   0  0  0  0  0  0  0  0  0  0  0  0
   -7.4212    9.9621    3.1159 C   0  0  1  0  0  0  0  0  0  0  0  0
   -7.3359   10.5865    4.5098 C   0  0  1  0  0  0  0  0  0  0  0  0
   -8.7101   10.6100    5.1621 C   0  0  0  0  0  0  0  0  0  0  0  0
   -9.6863   11.3320    4.2477 C   0  0  1  0  0  0  0  0  0  0  0  0
   -9.6969   10.6636    2.8734 C   0  0  1  0  0  0  0  0  0  0  0  0
  -10.6091   11.3696    1.8866 C   0  0  0  0  0  0  0  0  0  0  0  0
   -6.3350    9.8856    5.3484 N   0  3  0  0  0  0  0  0  0  0  0  0
   -9.9721   12.5893    1.3350 N   0  3  0  0  0  0  0  0  0  0  0  0
   -7.8282    8.6377    3.2066 O   0  0  0  0  0  0  0  0  0  0  0  0
  -10.9898   11.3035    4.8104 O   0  0  0  0  0  0  0  0  0  0  0  0
   -8.3686   10.6700    2.3069 O   0  0  0  0  0  0  0  0  0  0  0  0
  1  2  1  0  0  0  0
  1 10  1  0  0  0  0
  1 21  1  1  0  0  0
  2  3  1  0  0  0  0
  2  7  1  6  0  0  0
  3  4  1  0  0  0  0
  3  8  1  6  0  0  0
  4  5  1  0  0  0  0
  4  9  1  1  0  0  0
  5  6  1  1  0  0  0
  5 10  1  0  0  0  0
  6 11  1  0  0  0  0
 12 13  1  0  0  0  0
 12 17  1  0  0  0  0
 12 18  1  6  0  0  0
 13 14  1  0  0  0  0
 14 15  1  0  0  0  0
 14 19  1  6  0  0  0
 15 16  1  0  0  0  0
 15 30  1  1  0  0  0
 16 17  1  0  0  0  0
 16 20  1  6  0  0  0
 17 21  1  1  0  0  0
 22 23  1  0  0  0  0
 22 30  1  1  0  0  0
 22 32  1  0  0  0  0
 23 24  1  0  0  0  0
 23 28  1  1  0  0  0
 24 25  1  0  0  0  0
 25 26  1  0  0  0  0
 25 31  1  1  0  0  0
 26 27  1  6  0  0  0
 26 32  1  0  0  0  0
 27 29  1  0  0  0  0
M  CHG  5   8   1  18   1  19   1  28   1  29   1
M  END
>  <CHROM.1>
-116.42753963,172.53228381,-22.64535387,65.64491768,-72.28633681,-178.01285819
-146.79916614,-177.68565457,-134.52006681,-58.50254083,120.89957412,-146.06772928
-143.88566110,174.65742687,78.62364456,-51.97687034,-5.94370446,6.95704478
2.83673451,0.52279483,0.65483998,-2.31118845

>  <Name>
1tob

>  <RI>
0

>  <Rbt.Current_Directory>
/home/itssahil/PROJECTS/Mol_Feturizer/New_Systems/rnas/1tob

>  <Rbt.Executable>
rbdock ($Id: //depot/dev/client3/rdock/2013.1/src/exe/rbdock.cxx#4 $)

>  <Rbt.Library>
libRbt.so (2013.1, Build901 2013/11/27)

>  <Rbt.Parameter_File>
/export/apps/rDock/src/rDock_2013.1_src/data/scripts/dock_solv.prm

>  <Rbt.Receptor>
prm/pocket_docking_2.prm

>  <SCORE>
-50.7895

>  <SCORE.INTER>
-58.345

>  <SCORE.INTER.CONST>
1

>  <SCORE.INTER.POLAR>
-9.71816

>  <SCORE.INTER.ROT>
6

>  <SCORE.INTER.SOLV>
26.7625

>  <SCORE.INTER.VDW>
-23.0236

>  <SCORE.INTER.norm>
-1.82328

>  <SCORE.INTRA>
7.17594

>  <SCORE.INTRA.DIHEDRAL>
11.3847

>  <SCORE.INTRA.DIHEDRAL.0>
22.9177

>  <SCORE.INTRA.POLAR>
-0.569616

>  <SCORE.INTRA.POLAR.0>
-0.311208

>  <SCORE.INTRA.REPUL>
0

>  <SCORE.INTRA.REPUL.0>
0

>  <SCORE.INTRA.SOLV>
2.38415

>  <SCORE.INTRA.SOLV.lig_0>
-132.657

>  <SCORE.INTRA.VDW>
2.22822

>  <SCORE.INTRA.VDW.0>
-4.68867

>  <SCORE.INTRA.norm>
0.224248

>  <SCORE.RESTR>
0.379584

>  <SCORE.RESTR.CAVITY>
0.379584

>  <SCORE.RESTR.norm>
0.011862

>  <SCORE.SYSTEM>
0

>  <SCORE.SYSTEM.CONST>
0

>  <SCORE.SYSTEM.DIHEDRAL>
0

>  <SCORE.SYSTEM.SOLV>
0

>  <SCORE.SYSTEM.norm>
0

>  <SCORE.heavy>
32

>  <SCORE.norm>
-1.58717

>  <RMSD>
1.313

$$$$
1tob
 OpenBabel11021811413D
libRbt.so/2013.1/901 2013/11/27
 32 34  0  0  0  0  0  0  0  0999 V2000
   -1.9562    5.2263    3.8022 C   0  0  2  0  0  0  0  0  0  0  0  0
   -1.0151    4.7589    2.6945 C   0  0  1  0  0  0  0  0  0  0  0  0
   -0.6686    3.2908    2.9018 C   0  0  2  0  0  0  0  0  0  0  0  0
   -0.0859    3.1006    4.2971 C   0  0  1  0  0  0  0  0  0  0  0  0
   -1.0636    3.6282    5.3435 C   0  0  1  0  0  0  0  0  0  0  0  0
   -0.5073    3.5374    6.7509 C   0  0  0  0  0  0  0  0  0  0  0  0
   -1.6404    4.9294    1.4306 O   0  0  0  0  0  0  0  0  0  0  0  0
    0.2495    2.8053    1.8488 N   0  3  0  0  0  0  0  0  0  0  0  0
    0.1768    1.7225    4.5247 O   0  0  0  0  0  0  0  0  0  0  0  0
   -1.3589    5.0185    5.0883 O   0  0  0  0  0  0  0  0  0  0  0  0
    0.5722    4.4410    6.9415 O   0  0  0  0  0  0  0  0  0  0  0  0
   -4.8733    3.7745    2.2319 C   0  0  2  0  0  0  0  0  0  0  0  0
   -5.8630    4.2535    1.1787 C   0  0  0  0  0  0  0  0  0  0  0  0
   -6.8100    5.2976    1.7707 C   0  0  1  0  0  0  0  0  0  0  0  0
   -6.0053    6.4895    2.2844 C   0  0  2  0  0  0  0  0  0  0  0  0
   -4.9992    6.0256    3.3388 C   0  0  1  0  0  0  0  0  0  0  0  0
   -4.0746    4.9606    2.7501 C   0  0  1  0  0  0  0  0  0  0  0  0
   -3.9332    2.7882    1.6560 N   0  3  0  0  0  0  0  0  0  0  0  0
   -7.8227    5.6934    0.7579 N   0  3  0  0  0  0  0  0  0  0  0  0
   -4.2333    7.1329    3.7941 O   0  0  0  0  0  0  0  0  0  0  0  0
   -3.1414    4.5165    3.7515 O   0  0  0  0  0  0  0  0  0  0  0  0
   -6.5102    8.8043    2.6727 C   0  0  1  0  0  0  0  0  0  0  0  0
   -6.8887    9.6320    3.9022 C   0  0  1  0  0  0  0  0  0  0  0  0
   -8.3988    9.6441    4.0853 C   0  0  0  0  0  0  0  0  0  0  0  0
   -9.0541   10.1451    2.8086 C   0  0  1  0  0  0  0  0  0  0  0  0
   -8.6100    9.2827    1.6277 C   0  0  1  0  0  0  0  0  0  0  0  0
   -9.1812    9.7623    0.3057 C   0  0  0  0  0  0  0  0  0  0  0  0
   -6.1864    9.1425    5.1120 N   0  3  0  0  0  0  0  0  0  0  0  0
  -10.6470    9.5509    0.2387 N   0  3  0  0  0  0  0  0  0  0  0  0
   -6.8883    7.4800    2.8498 O   0  0  0  0  0  0  0  0  0  0  0  0
  -10.4676   10.0983    2.9382 O   0  0  0  0  0  0  0  0  0  0  0  0
   -7.1713    9.3091    1.5059 O   0  0  0  0  0  0  0  0  0  0  0  0
  1  2  1  0  0  0  0
  1 10  1  0  0  0  0
  1 21  1  1  0  0  0
  2  3  1  0  0  0  0
  2  7  1  6  0  0  0
  3  4  1  0  0  0  0
  3  8  1  6  0  0  0
  4  5  1  0  0  0  0
  4  9  1  1  0  0  0
  5  6  1  1  0  0  0
  5 10  1  0  0  0  0
  6 11  1  0  0  0  0
 12 13  1  0  0  0  0
 12 17  1  0  0  0  0
 12 18  1  6  0  0  0
 13 14  1  0  0  0  0
 14 15  1  0  0  0  0
 14 19  1  6  0  0  0
 15 16  1  0  0  0  0
 15 30  1  1  0  0  0
 16 17  1  0  0  0  0
 16 20  1  6  0  0  0
 17 21  1  1  0  0  0
 22 23  1  0  0  0  0
 22 30  1  1  0  0  0
 22 32  1  0  0  0  0
 23 24  1  0  0  0  0
 23 28  1  1  0  0  0
 24 25  1  0  0  0  0
 25 26  1  0  0  0  0
 25 31  1  1  0  0  0
 26 27  1  6  0  0  0
 26 32  1  0  0  0  0
 27 29  1  0  0  0  0
M  CHG  5   8   1  18   1  19   1  28   1  29   1
M  END
>  <CHROM.1>
-79.40347544,62.98779636,85.75139901,62.28485686,68.60643853,-55.83921573
-150.29685668,115.39007666,-145.31432670,-60.09851766,147.63834685,-144.48529701
112.14101119,59.11710892,-68.60869056,-75.07769843,-4.64310526,6.12485629
3.02850658,-0.21122408,-0.61334907,0.86249542

>  <Name>
1tob

>  <RI>
0

>  <Rbt.Current_Directory>
/home/itssahil/PROJECTS/Mol_Feturizer/New_Systems/rnas/1tob

>  <Rbt.Executable>
rbdock ($Id: //depot/dev/client3/rdock/2013.1/src/exe/rbdock.cxx#4 $)

>  <Rbt.Library>
libRbt.so (2013.1, Build901 2013/11/27)

>  <Rbt.Parameter_File>
/export/apps/rDock/src/rDock_2013.1_src/data/scripts/dock_solv.prm

>  <Rbt.Receptor>
prm/pocket_docking_4.prm

>  <SCORE>
-48.2708

>  <SCORE.INTER>
-42.5391

>  <SCORE.INTER.CONST>
1

>  <SCORE.INTER.POLAR>
-6.30951

>  <SCORE.INTER.ROT>
6

>  <SCORE.INTER.SOLV>
26.7564

>  <SCORE.INTER.VDW>
-23.8465

>  <SCORE.INTER.norm>
-1.32935

>  <SCORE.INTRA>
-5.73168

>  <SCORE.INTRA.DIHEDRAL>
3.3864

>  <SCORE.INTRA.DIHEDRAL.0>
22.9177

>  <SCORE.INTRA.POLAR>
-2.75561

>  <SCORE.INTRA.POLAR.0>
-0.311208

>  <SCORE.INTRA.REPUL>
0

>  <SCORE.INTRA.REPUL.0>
0

>  <SCORE.INTRA.SOLV>
0.84793

>  <SCORE.INTRA.SOLV.lig_0>
-132.657

>  <SCORE.INTRA.VDW>
1.52023

>  <SCORE.INTRA.VDW.0>
-4.68867

>  <SCORE.INTRA.norm>
-0.179115

>  <SCORE.RESTR>
0

>  <SCORE.RESTR.CAVITY>
0

>  <SCORE.RESTR.norm>
0

>  <SCORE.SYSTEM>
0

>  <SCORE.SYSTEM.CONST>
0

>  <SCORE.SYSTEM.DIHEDRAL>
0

>  <SCORE.SYSTEM.SOLV>
0

>  <SCORE.SYSTEM.norm>
0

>  <SCORE.heavy>
32

>  <SCORE.norm>
-1.50846

>  <RMSD>
1.331

$$$$
1tob
 OpenBabel11021811413D
libRbt.so/2013.1/901 2013/11/27
 32 34  0  0  0  0  0  0  0  0999 V2000
   -3.3506    5.4710    1.5834 C   0  0  2  0  0  0  0  0  0  0  0  0
   -2.6699    4.2181    1.0375 C   0  0  1  0  0  0  0  0  0  0  0  0
   -2.5050    3.1963    2.1543 C   0  0  2  0  0  0  0  0  0  0  0  0
   -1.7433    3.8307    3.3119 C   0  0  1  0  0  0  0  0  0  0  0  0
   -2.4610    5.0962    3.7731 C   0  0  1  0  0  0  0  0  0  0  0  0
   -1.7093    5.8171    4.8748 C   0  0  0  0  0  0  0  0  0  0  0  0
   -3.4553    3.6626   -0.0075 O   0  0  0  0  0  0  0  0  0  0  0  0
   -1.8408    1.9700    1.6619 N   0  3  0  0  0  0  0  0  0  0  0  0
   -1.6446    2.9059    4.3867 O   0  0  0  0  0  0  0  0  0  0  0  0
   -2.5942    6.0191    2.6705 O   0  0  0  0  0  0  0  0  0  0  0  0
   -1.7885    5.1110    6.1049 O   0  0  0  0  0  0  0  0  0  0  0  0
   -6.8185    5.0789    1.0419 C   0  0  2  0  0  0  0  0  0  0  0  0
   -7.9376    5.9421    0.4756 C   0  0  0  0  0  0  0  0  0  0  0  0
   -8.4407    6.9258    1.5324 C   0  0  1  0  0  0  0  0  0  0  0  0
   -7.2927    7.8244    1.9869 C   0  0  2  0  0  0  0  0  0  0  0  0
   -6.1547    6.9730    2.5520 C   0  0  1  0  0  0  0  0  0  0  0  0
   -5.6760    5.9716    1.5013 C   0  0  1  0  0  0  0  0  0  0  0  0
   -6.3052    4.1475    0.0137 N   0  3  0  0  0  0  0  0  0  0  0  0
   -9.5877    7.7025    0.9946 N   0  3  0  0  0  0  0  0  0  0  0  0
   -5.0770    7.8107    2.9480 O   0  0  0  0  0  0  0  0  0  0  0  0
   -4.6168    5.1628    2.0443 O   0  0  0  0  0  0  0  0  0  0  0  0
   -7.0276    9.9316    3.1063 C   0  0  1  0  0  0  0  0  0  0  0  0
   -7.0688   10.4365    4.5497 C   0  0  1  0  0  0  0  0  0  0  0  0
   -8.4964   10.7790    4.9481 C   0  0  0  0  0  0  0  0  0  0  0  0
   -9.0681   11.7770    3.9544 C   0  0  1  0  0  0  0  0  0  0  0  0
   -8.9707   11.2093    2.5388 C   0  0  1  0  0  0  0  0  0  0  0  0
   -9.4713   12.1792    1.4839 C   0  0  0  0  0  0  0  0  0  0  0  0
   -6.4535    9.4566    5.4758 N   0  3  0  0  0  0  0  0  0  0  0  0
   -9.3495   11.6094    0.1208 N   0  3  0  0  0  0  0  0  0  0  0  0
   -7.7545    8.7544    2.9880 O   0  0  0  0  0  0  0  0  0  0  0  0
  -10.4238   12.0559    4.2723 O   0  0  0  0  0  0  0  0  0  0  0  0
   -7.5962   10.9029    2.2193 O   0  0  0  0  0  0  0  0  0  0  0  0
  1  2  1  0  0  0  0
  1 10  1  0  0  0  0
  1 21  1  1  0  0  0
  2  3  1  0  0  0  0
  2  7  1  6  0  0  0
  3  4  1  0  0  0  0
  3  8  1  6  0  0  0
  4  5  1  0  0  0  0
  4  9  1  1  0  0  0
  5  6  1  1  0  0  0
  5 10  1  0  0  0  0
  6 11  1  0  0  0  0
 12 13  1  0  0  0  0
 12 17  1  0  0  0  0
 12 18  1  6  0  0  0
 13 14  1  0  0  0  0
 14 15  1  0  0  0  0
 14 19  1  6  0  0  0
 15 16  1  0  0  0  0
 15 30  1  1  0  0  0
 16 17  1  0  0  0  0
 16 20  1  6  0  0  0
 17 21  1  1  0  0  0
 22 23  1  0  0  0  0
 22 30  1  1  0  0  0
 22 32  1  0  0  0  0
 23 24  1  0  0  0  0
 23 28  1  1  0  0  0
 24 25  1  0  0  0  0
 25 26  1  0  0  0  0
 25 31  1  1  0  0  0
 26 27  1  6  0  0  0
 26 32  1  0  0  0  0
 27 29  1  0  0  0  0
M  CHG  5   8   1  18   1  19   1  28   1  29   1
M  END
>  <CHROM.1>
-126.72509885,-165.00570904,171.77384102,-75.20100226,-72.18475114,68.18285505
-145.34760223,-58.32413270,-155.30234078,-172.35016199,132.44467075,-149.23766603
77.80376036,175.93163482,179.29456446,59.36970066,-5.77899743,7.15697395
2.57065491,0.53675889,0.66375856,-2.32308527

>  <Name>
1tob

>  <RI>
0

>  <Rbt.Current_Directory>
/home/itssahil/PROJECTS/Mol_Feturizer/New_Systems/rnas/1tob

>  <Rbt.Executable>
rbdock ($Id: //depot/dev/client3/rdock/2013.1/src/exe/rbdock.cxx#4 $)

>  <Rbt.Library>
libRbt.so (2013.1, Build901 2013/11/27)

>  <Rbt.Parameter_File>
/export/apps/rDock/src/rDock_2013.1_src/data/scripts/dock_solv.prm

>  <Rbt.Receptor>
prm/pocket_docking_2.prm

>  <SCORE>
-49.9521

>  <SCORE.INTER>
-49.8379

>  <SCORE.INTER.CONST>
1

>  <SCORE.INTER.POLAR>
-9.15557

>  <SCORE.INTER.ROT>
6

>  <SCORE.INTER.SOLV>
26.2869

>  <SCORE.INTER.VDW>
-19.069

>  <SCORE.INTER.norm>
-1.55743

>  <SCORE.INTRA>
-0.479245

>  <SCORE.INTRA.DIHEDRAL>
3.50554

>  <SCORE.INTRA.DIHEDRAL.0>
22.9177

>  <SCORE.INTRA.POLAR>
-0.758657

>  <SCORE.INTRA.POLAR.0>
-0.311208

>  <SCORE.INTRA.REPUL>
0

>  <SCORE.INTRA.REPUL.0>
0

>  <SCORE.INTRA.SOLV>
-0.496143

>  <SCORE.INTRA.SOLV.lig_0>
-132.657

>  <SCORE.INTRA.VDW>
0.59549

>  <SCORE.INTRA.VDW.0>
-4.68867

>  <SCORE.INTRA.norm>
-0.0149764

>  <SCORE.RESTR>
0.365032

>  <SCORE.RESTR.CAVITY>
0.365032

>  <SCORE.RESTR.norm>
0.0114072

>  <SCORE.SYSTEM>
0

>  <SCORE.SYSTEM.CONST>
0

>  <SCORE.SYSTEM.DIHEDRAL>
0

>  <SCORE.SYSTEM.SOLV>
0

>  <SCORE.SYSTEM.norm>
0

>  <SCORE.heavy>
32

>  <SCORE.norm>
-1.561

>  <RMSD>
1.348

$$$$
1tob
 OpenBabel11021811413D
libRbt.so/2013.1/901 2013/11/27
 32 34  0  0  0  0  0  0  0  0999 V2000
   -3.3256    4.9964    1.5217 C   0  0  2  0  0  0  0  0  0  0  0  0
   -2.6249    3.7185    1.0666 C   0  0  1  0  0  0  0  0  0  0  0  0
   -2.5200    2.7474    2.2346 C   0  0  2  0  0  0  0  0  0  0  0  0
   -1.8133    3.4309    3.3989 C   0  0  1  0  0  0  0  0  0  0  0  0
   -2.5466    4.7178    3.7672 C   0  0  1  0  0  0  0  0  0  0  0  0
   -1.8466    5.4853    4.8714 C   0  0  0  0  0  0  0  0  0  0  0  0
   -3.3605    3.1188    0.0098 O   0  0  0  0  0  0  0  0  0  0  0  0
   -1.8384    1.4985    1.8308 N   0  3  0  0  0  0  0  0  0  0  0  0
   -1.7720    2.5550    4.5174 O   0  0  0  0  0  0  0  0  0  0  0  0
   -2.6210    5.5906    2.6193 O   0  0  0  0  0  0  0  0  0  0  0  0
   -2.4777    6.7343    5.1159 O   0  0  0  0  0  0  0  0  0  0  0  0
   -6.8157    4.8342    0.9334 C   0  0  2  0  0  0  0  0  0  0  0  0
   -7.8790    5.8020    0.4323 C   0  0  0  0  0  0  0  0  0  0  0  0
   -8.3222    6.7381    1.5569 C   0  0  1  0  0  0  0  0  0  0  0  0
   -7.1219    7.5305    2.0699 C   0  0  2  0  0  0  0  0  0  0  0  0
   -6.0390    6.5734    2.5706 C   0  0  1  0  0  0  0  0  0  0  0  0
   -5.6212    5.6208    1.4509 C   0  0  1  0  0  0  0  0  0  0  0  0
   -6.3591    3.9475   -0.1591 N   0  3  0  0  0  0  0  0  0  0  0  0
   -9.4187    7.6194    1.0782 N   0  3  0  0  0  0  0  0  0  0  0  0
   -4.9125    7.3137    3.0212 O   0  0  0  0  0  0  0  0  0  0  0  0
   -4.6144    4.7125    1.9328 O   0  0  0  0  0  0  0  0  0  0  0  0
   -6.8707    9.6367    3.1944 C   0  0  1  0  0  0  0  0  0  0  0  0
   -6.9758   10.2265    4.6019 C   0  0  1  0  0  0  0  0  0  0  0  0
   -8.4299   10.5100    4.9477 C   0  0  0  0  0  0  0  0  0  0  0  0
   -9.0319   11.4103    3.8812 C   0  0  1  0  0  0  0  0  0  0  0  0
   -8.8679   10.7629    2.5066 C   0  0  1  0  0  0  0  0  0  0  0  0
   -9.3958   11.6355    1.3823 C   0  0  0  0  0  0  0  0  0  0  0  0
   -6.3296    9.3426    5.6007 N   0  3  0  0  0  0  0  0  0  0  0  0
   -8.6247   12.8963    1.2655 N   0  3  0  0  0  0  0  0  0  0  0  0
   -7.5271    8.4146    3.1351 O   0  0  0  0  0  0  0  0  0  0  0  0
  -10.4086   11.6297    4.1521 O   0  0  0  0  0  0  0  0  0  0  0  0
   -7.4708   10.5171    2.2362 O   0  0  0  0  0  0  0  0  0  0  0  0
  1  2  1  0  0  0  0
  1 10  1  0  0  0  0
  1 21  1  1  0  0  0
  2  3  1  0  0  0  0
  2  7  1  6  0  0  0
  3  4  1  0  0  0  0
  3  8  1  6  0  0  0
  4  5  1  0  0  0  0
  4  9  1  1  0  0  0
  5  6  1  1  0  0  0
  5 10  1  0  0  0  0
  6 11  1  0  0  0  0
 12 13  1  0  0  0  0
 12 17  1  0  0  0  0
 12 18  1  6  0  0  0
 13 14  1  0  0  0  0
 14 15  1  0  0  0  0
 14 19  1  6  0  0  0
 15 16  1  0  0  0  0
 15 30  1  1  0  0  0
 16 17  1  0  0  0  0
 16 20  1  6  0  0  0
 17 21  1  1  0  0  0
 22 23  1  0  0  0  0
 22 30  1  1  0  0  0
 22 32  1  0  0  0  0
 23 24  1  0  0  0  0
 23 28  1  1  0  0  0
 24 25  1  0  0  0  0
 25 26  1  0  0  0  0
 25 31  1  1  0  0  0
 26 27  1  6  0  0  0
 26 32  1  0  0  0  0
 27 29  1  0  0  0  0
M  CHG  5   8   1  18   1  19   1  28   1  29   1
M  END
>  <CHROM.1>
-135.21505692,55.15095998,-57.18504842,-178.89166478,174.78481600,-178.71339690
-45.19788716,-56.72846665,-145.03969845,175.56452639,134.20156309,-158.27932280
-164.52567353,175.12851471,64.12878629,168.05779347,-5.72748047,6.94569690
2.59008841,0.64547820,0.63975258,-2.40310110

>  <Name>
1tob

>  <RI>
0

>  <Rbt.Current_Directory>
/home/itssahil/PROJECTS/Mol_Feturizer/New_Systems/rnas/1tob

>  <Rbt.Executable>
rbdock ($Id: //depot/dev/client3/rdock/2013.1/src/exe/rbdock.cxx#4 $)

>  <Rbt.Library>
libRbt.so (2013.1, Build901 2013/11/27)

>  <Rbt.Parameter_File>
/export/apps/rDock/src/rDock_2013.1_src/data/scripts/dock_solv.prm

>  <Rbt.Receptor>
prm/pocket_docking_2.prm

>  <SCORE>
-54.344

>  <SCORE.INTER>
-51.9192

>  <SCORE.INTER.CONST>
1

>  <SCORE.INTER.POLAR>
-8.74773

>  <SCORE.INTER.ROT>
6

>  <SCORE.INTER.SOLV>
29.4716

>  <SCORE.INTER.VDW>
-22.8776

>  <SCORE.INTER.norm>
-1.62248

>  <SCORE.INTRA>
-3.57686

>  <SCORE.INTRA.DIHEDRAL>
-1.87102

>  <SCORE.INTRA.DIHEDRAL.0>
22.9177

>  <SCORE.INTRA.POLAR>
-0.344867

>  <SCORE.INTRA.POLAR.0>
-0.311208

>  <SCORE.INTRA.REPUL>
0

>  <SCORE.INTRA.REPUL.0>
0

>  <SCORE.INTRA.SOLV>
-1.01304

>  <SCORE.INTRA.SOLV.lig_0>
-132.657

>  <SCORE.INTRA.VDW>
-0.962284

>  <SCORE.INTRA.VDW.0>
-4.68867

>  <SCORE.INTRA.norm>
-0.111777

>  <SCORE.RESTR>
1.15206

>  <SCORE.RESTR.CAVITY>
1.15206

>  <SCORE.RESTR.norm>
0.0360019

>  <SCORE.SYSTEM>
0

>  <SCORE.SYSTEM.CONST>
0

>  <SCORE.SYSTEM.DIHEDRAL>
0

>  <SCORE.SYSTEM.SOLV>
0

>  <SCORE.SYSTEM.norm>
0

>  <SCORE.heavy>
32

>  <SCORE.norm>
-1.69825

>  <RMSD>
1.359

$$$$
1tob
 OpenBabel11021811413D
libRbt.so/2013.1/901 2013/11/27
 32 34  0  0  0  0  0  0  0  0999 V2000
   -3.0415    5.2166    1.6366 C   0  0  2  0  0  0  0  0  0  0  0  0
   -2.0742    4.0660    1.3693 C   0  0  1  0  0  0  0  0  0  0  0  0
   -2.0627    3.1184    2.5611 C   0  0  2  0  0  0  0  0  0  0  0  0
   -1.7234    3.8994    3.8250 C   0  0  1  0  0  0  0  0  0  0  0  0
   -2.7058    5.0541    4.0004 C   0  0  1  0  0  0  0  0  0  0  0  0
   -2.3735    5.9171    5.2017 C   0  0  0  0  0  0  0  0  0  0  0  0
   -2.4765    3.3629    0.2025 O   0  0  0  0  0  0  0  0  0  0  0  0
   -1.1288    1.9932    2.3394 N   0  3  0  0  0  0  0  0  0  0  0  0
   -1.7778    3.0361    4.9527 O   0  0  0  0  0  0  0  0  0  0  0  0
   -2.6769    5.9093    2.8372 O   0  0  0  0  0  0  0  0  0  0  0  0
   -3.4222    6.8310    5.4901 O   0  0  0  0  0  0  0  0  0  0  0  0
   -6.5666    4.8138    0.8684 C   0  0  2  0  0  0  0  0  0  0  0  0
   -7.6650    5.7616    0.4066 C   0  0  0  0  0  0  0  0  0  0  0  0
   -8.0829    6.6911    1.5463 C   0  0  1  0  0  0  0  0  0  0  0  0
   -6.8787    7.5056    2.0137 C   0  0  2  0  0  0  0  0  0  0  0  0
   -5.7610    6.5688    2.4744 C   0  0  1  0  0  0  0  0  0  0  0  0
   -5.3680    5.6223    1.3406 C   0  0  1  0  0  0  0  0  0  0  0  0
   -6.1350    3.9339   -0.2397 N   0  3  0  0  0  0  0  0  0  0  0  0
   -9.2120    7.5520    1.1080 N   0  3  0  0  0  0  0  0  0  0  0  0
   -4.6320    7.3297    2.8823 O   0  0  0  0  0  0  0  0  0  0  0  0
   -4.3279    4.7328    1.7853 O   0  0  0  0  0  0  0  0  0  0  0  0
   -6.5166    9.5496    3.2199 C   0  0  1  0  0  0  0  0  0  0  0  0
   -6.7273   10.1633    4.6052 C   0  0  1  0  0  0  0  0  0  0  0  0
   -8.1825   10.5675    4.7871 C   0  0  0  0  0  0  0  0  0  0  0  0
   -8.5883   11.5001    3.6575 C   0  0  1  0  0  0  0  0  0  0  0  0
   -8.3275   10.8245    2.3117 C   0  0  1  0  0  0  0  0  0  0  0  0
   -8.6558   11.7228    1.1329 C   0  0  0  0  0  0  0  0  0  0  0  0
   -6.2690    9.2427    5.6723 N   0  3  0  0  0  0  0  0  0  0  0  0
  -10.1028   12.0406    1.0786 N   0  3  0  0  0  0  0  0  0  0  0  0
   -7.2599    8.3837    3.0926 O   0  0  0  0  0  0  0  0  0  0  0  0
   -9.9639   11.8332    3.7738 O   0  0  0  0  0  0  0  0  0  0  0  0
   -6.9339   10.4634    2.1982 O   0  0  0  0  0  0  0  0  0  0  0  0
  1  2  1  0  0  0  0
  1 10  1  0  0  0  0
  1 21  1  1  0  0  0
  2  3  1  0  0  0  0
  2  7  1  6  0  0  0
  3  4  1  0  0  0  0
  3  8  1  6  0  0  0
  4  5  1  0  0  0  0
  4  9  1  1  0  0  0
  5  6  1  1  0  0  0
  5 10  1  0  0  0  0
  6 11  1  0  0  0  0
 12 13  1  0  0  0  0
 12 17  1  0  0  0  0
 12 18  1  6  0  0  0
 13 14  1  0  0  0  0
 14 15  1  0  0  0  0
 14 19  1  6  0  0  0
 15 16  1  0  0  0  0
 15 30  1  1  0  0  0
 16 17  1  0  0  0  0
 16 20  1  6  0  0  0
 17 21  1  1  0  0  0
 22 23  1  0  0  0  0
 22 30  1  1  0  0  0
 22 32  1  0  0  0  0
 23 24  1  0  0  0  0
 23 28  1  1  0  0  0
 24 25  1  0  0  0  0
 25 26  1  0  0  0  0
 25 31  1  1  0  0  0
 26 27  1  6  0  0  0
 26 32  1  0  0  0  0
 27 29  1  0  0  0  0
M  CHG  5   8   1  18   1  19   1  28   1  29   1
M  END
>  <CHROM.1>
-148.31678381,-74.85758282,65.05405436,-176.94252523,-169.42179656,87.32257130
-36.71261213,-59.03473810,-152.27715310,-58.87394984,150.62605943,-162.97742665
76.01668254,64.21148863,-64.45582021,164.58189547,-5.55496534,7.02993892
2.63854420,0.54301187,0.67500410,-2.32167493

>  <Name>
1tob

>  <RI>
0

>  <Rbt.Current_Directory>
/home/itssahil/PROJECTS/Mol_Feturizer/New_Systems/rnas/1tob

>  <Rbt.Executable>
rbdock ($Id: //depot/dev/client3/rdock/2013.1/src/exe/rbdock.cxx#4 $)

>  <Rbt.Library>
libRbt.so (2013.1, Build901 2013/11/27)

>  <Rbt.Parameter_File>
/export/apps/rDock/src/rDock_2013.1_src/data/scripts/dock_solv.prm

>  <Rbt.Receptor>
prm/pocket_docking_2.prm

>  <SCORE>
-50.0528

>  <SCORE.INTER>
-47.622

>  <SCORE.INTER.CONST>
1

>  <SCORE.INTER.POLAR>
-7.58297

>  <SCORE.INTER.ROT>
6

>  <SCORE.INTER.SOLV>
26.0484

>  <SCORE.INTER.VDW>
-22.7542

>  <SCORE.INTER.norm>
-1.48819

>  <SCORE.INTRA>
-3.77159

>  <SCORE.INTRA.DIHEDRAL>
-3.72153

>  <SCORE.INTRA.DIHEDRAL.0>
22.9177

>  <SCORE.INTRA.POLAR>
-0.53601

>  <SCORE.INTRA.POLAR.0>
-0.311208

>  <SCORE.INTRA.REPUL>
0.00716512

>  <SCORE.INTRA.REPUL.0>
0

>  <SCORE.INTRA.SOLV>
-1.14998

>  <SCORE.INTRA.SOLV.lig_0>
-132.657

>  <SCORE.INTRA.VDW>
0.450766

>  <SCORE.INTRA.VDW.0>
-4.68867

>  <SCORE.INTRA.norm>
-0.117862

>  <SCORE.RESTR>
1.34074

>  <SCORE.RESTR.CAVITY>
1.34074

>  <SCORE.RESTR.norm>
0.0418981

>  <SCORE.SYSTEM>
0

>  <SCORE.SYSTEM.CONST>
0

>  <SCORE.SYSTEM.DIHEDRAL>
0

>  <SCORE.SYSTEM.SOLV>
0

>  <SCORE.SYSTEM.norm>
0

>  <SCORE.heavy>
32

>  <SCORE.norm>
-1.56415

>  <RMSD>
1.379

$$$$
1tob
 OpenBabel11021811413D
libRbt.so/2013.1/901 2013/11/27
 32 34  0  0  0  0  0  0  0  0999 V2000
   -1.4760    4.6421    3.0678 C   0  0  2  0  0  0  0  0  0  0  0  0
   -0.5959    3.4774    2.6206 C   0  0  1  0  0  0  0  0  0  0  0  0
   -0.6769    2.3517    3.6426 C   0  0  2  0  0  0  0  0  0  0  0  0
   -0.2992    2.8888    5.0178 C   0  0  1  0  0  0  0  0  0  0  0  0
   -1.1925    4.0736    5.3749 C   0  0  1  0  0  0  0  0  0  0  0  0
   -0.8145    4.7022    6.7018 C   0  0  0  0  0  0  0  0  0  0  0  0
   -1.0319    3.0061    1.3535 O   0  0  0  0  0  0  0  0  0  0  0  0
    0.1712    1.2073    3.2444 N   0  3  0  0  0  0  0  0  0  0  0  0
   -0.4383    1.8615    5.9901 O   0  0  0  0  0  0  0  0  0  0  0  0
   -1.0788    5.1007    4.3663 O   0  0  0  0  0  0  0  0  0  0  0  0
   -1.9657    5.0440    7.4607 O   0  0  0  0  0  0  0  0  0  0  0  0
   -4.7437    4.2077    1.6916 C   0  0  2  0  0  0  0  0  0  0  0  0
   -5.7202    5.0967    0.9339 C   0  0  0  0  0  0  0  0  0  0  0  0
   -6.4310    6.0501    1.8947 C   0  0  1  0  0  0  0  0  0  0  0  0
   -5.4018    6.9252    2.6065 C   0  0  2  0  0  0  0  0  0  0  0  0
   -4.4065    6.0479    3.3674 C   0  0  1  0  0  0  0  0  0  0  0  0
   -3.7208    5.0768    2.4068 C   0  0  1  0  0  0  0  0  0  0  0  0
   -4.0287    3.3055    0.7625 N   0  3  0  0  0  0  0  0  0  0  0  0
   -7.4408    6.8519    1.1561 N   0  3  0  0  0  0  0  0  0  0  0  0
   -3.4339    6.8646    4.0054 O   0  0  0  0  0  0  0  0  0  0  0  0
   -2.7980    4.2433    3.1312 O   0  0  0  0  0  0  0  0  0  0  0  0
   -5.5226    9.1035    3.6087 C   0  0  1  0  0  0  0  0  0  0  0  0
   -6.1288    9.8518    4.7972 C   0  0  1  0  0  0  0  0  0  0  0  0
   -7.6254   10.0364    4.5964 C   0  0  0  0  0  0  0  0  0  0  0  0
   -7.8703   10.7347    3.2687 C   0  0  1  0  0  0  0  0  0  0  0  0
   -7.2172    9.9392    2.1390 C   0  0  1  0  0  0  0  0  0  0  0  0
   -7.3714   10.6100    0.7861 C   0  0  0  0  0  0  0  0  0  0  0  0
   -5.8203    9.1654    6.0739 N   0  3  0  0  0  0  0  0  0  0  0  0
   -8.7974   10.8456    0.4562 N   0  3  0  0  0  0  0  0  0  0  0  0
   -6.0607    7.8265    3.5197 O   0  0  0  0  0  0  0  0  0  0  0  0
   -9.2657   10.8540    3.0334 O   0  0  0  0  0  0  0  0  0  0  0  0
   -5.8015    9.7958    2.3856 O   0  0  0  0  0  0  0  0  0  0  0  0
  1  2  1  0  0  0  0
  1 10  1  0  0  0  0
  1 21  1  1  0  0  0
  2  3  1  0  0  0  0
  2  7  1  6  0  0  0
  3  4  1  0  0  0  0
  3  8  1  6  0  0  0
  4  5  1  0  0  0  0
  4  9  1  1  0  0  0
  5  6  1  1  0  0  0
  5 10  1  0  0  0  0
  6 11  1  0  0  0  0
 12 13  1  0  0  0  0
 12 17  1  0  0  0  0
 12 18  1  6  0  0  0
 13 14  1  0  0  0  0
 14 15  1  0  0  0  0
 14 19  1  6  0  0  0
 15 16  1  0  0  0  0
 15 30  1  1  0  0  0
 16 17  1  0  0  0  0
 16 20  1  6  0  0  0
 17 21  1  1  0  0  0
 22 23  1  0  0  0  0
 22 30  1  6  0  0  0
 22 32  1  0  0  0  0
 23 24  1  0  0  0  0
 23 28  1  1  0  0  0
 24 25  1  0  0  0  0
 25 26  1  0  0  0  0
 25 31  1  6  0  0  0
 26 27  1  6  0  0  0
 26 32  1  0  0  0  0
 27 29  1  0  0  0  0
M  CHG  5   8   1  18   1  19   1  28   1  29   1
M  END
>  <CHROM.1>
-127.53330249,83.29319852,-51.00910582,178.54501372,-138.73589208,127.20972923
37.19823417,59.07338108,-142.22387605,-58.62583527,139.01055406,-168.69526659
134.05059850,-47.70743824,-56.77980547,160.05588992,-4.21982673,6.29161267
3.30096090,0.24149699,0.77992891,-2.13541964

>  <Name>
1tob

>  <RI>
0

>  <Rbt.Current_Directory>
/home/itssahil/PROJECTS/Mol_Feturizer/New_Systems/rnas/1tob

>  <Rbt.Executable>
rbdock ($Id: //depot/dev/client3/rdock/2013.1/src/exe/rbdock.cxx#4 $)

>  <Rbt.Library>
libRbt.so (2013.1, Build901 2013/11/27)

>  <Rbt.Parameter_File>
/export/apps/rDock/src/rDock_2013.1_src/data/scripts/dock_solv.prm

>  <Rbt.Receptor>
prm/pocket_docking_6.prm

>  <SCORE>
-52.6295

>  <SCORE.INTER>
-55.6097

>  <SCORE.INTER.CONST>
1

>  <SCORE.INTER.POLAR>
-9.0822

>  <SCORE.INTER.ROT>
6

>  <SCORE.INTER.SOLV>
30.0634

>  <SCORE.INTER.VDW>
-24.4203

>  <SCORE.INTER.norm>
-1.7378

>  <SCORE.INTRA>
2.56002

>  <SCORE.INTRA.DIHEDRAL>
14.6756

>  <SCORE.INTRA.DIHEDRAL.0>
22.9177

>  <SCORE.INTRA.POLAR>
-1.65048

>  <SCORE.INTRA.POLAR.0>
-0.311208

>  <SCORE.INTRA.REPUL>
0.0870907

>  <SCORE.INTRA.REPUL.0>
0

>  <SCORE.INTRA.SOLV>
0.0152034

>  <SCORE.INTRA.SOLV.lig_0>
-132.657

>  <SCORE.INTRA.VDW>
0.3908

>  <SCORE.INTRA.VDW.0>
-4.68867

>  <SCORE.INTRA.norm>
0.0800006

>  <SCORE.RESTR>
0.420252

>  <SCORE.RESTR.CAVITY>
0.420252

>  <SCORE.RESTR.norm>
0.0131329

>  <SCORE.SYSTEM>
0

>  <SCORE.SYSTEM.CONST>
0

>  <SCORE.SYSTEM.DIHEDRAL>
0

>  <SCORE.SYSTEM.SOLV>
0

>  <SCORE.SYSTEM.norm>
0

>  <SCORE.heavy>
32

>  <SCORE.norm>
-1.64467

>  <RMSD>
1.385

$$$$
1tob
 OpenBabel11021811413D
libRbt.so/2013.1/901 2013/11/27
 32 34  0  0  0  0  0  0  0  0999 V2000
   -3.4699    5.0812    1.5362 C   0  0  2  0  0  0  0  0  0  0  0  0
   -2.9362    3.7223    1.0894 C   0  0  1  0  0  0  0  0  0  0  0  0
   -2.7952    2.8048    2.2964 C   0  0  2  0  0  0  0  0  0  0  0  0
   -1.9126    3.4762    3.3418 C   0  0  1  0  0  0  0  0  0  0  0  0
   -2.4871    4.8428    3.7049 C   0  0  1  0  0  0  0  0  0  0  0  0
   -1.6101    5.5952    4.6863 C   0  0  0  0  0  0  0  0  0  0  0  0
   -3.8287    3.1424    0.1488 O   0  0  0  0  0  0  0  0  0  0  0  0
   -2.2723    1.4791    1.9009 N   0  3  0  0  0  0  0  0  0  0  0  0
   -1.8314    2.6569    4.5003 O   0  0  0  0  0  0  0  0  0  0  0  0
   -2.6044    5.6606    2.5206 O   0  0  0  0  0  0  0  0  0  0  0  0
   -1.7997    5.1292    6.0148 O   0  0  0  0  0  0  0  0  0  0  0  0
   -6.8832    4.9809    0.9881 C   0  0  2  0  0  0  0  0  0  0  0  0
   -7.9474    5.9088    0.4181 C   0  0  0  0  0  0  0  0  0  0  0  0
   -8.4674    6.8546    1.5010 C   0  0  1  0  0  0  0  0  0  0  0  0
   -7.3138    7.6899    2.0518 C   0  0  2  0  0  0  0  0  0  0  0  0
   -6.2304    6.7733    2.6220 C   0  0  1  0  0  0  0  0  0  0  0  0
   -5.7355    5.8104    1.5432 C   0  0  1  0  0  0  0  0  0  0  0  0
   -6.3527    4.0855   -0.0631 N   0  3  0  0  0  0  0  0  0  0  0  0
   -9.5635    7.6955    0.9537 N   0  3  0  0  0  0  0  0  0  0  0  0
   -5.1463    7.5532    3.1082 O   0  0  0  0  0  0  0  0  0  0  0  0
   -4.7285    4.9400    2.0902 O   0  0  0  0  0  0  0  0  0  0  0  0
   -7.1581    9.8167    3.1546 C   0  0  1  0  0  0  0  0  0  0  0  0
   -7.2019   10.3466    4.5889 C   0  0  1  0  0  0  0  0  0  0  0  0
   -8.6416   10.5833    5.0199 C   0  0  0  0  0  0  0  0  0  0  0  0
   -9.3163   11.5122    4.0238 C   0  0  1  0  0  0  0  0  0  0  0  0
   -9.2107   10.9247    2.6169 C   0  0  1  0  0  0  0  0  0  0  0  0
   -9.8139   11.8300    1.5583 C   0  0  0  0  0  0  0  0  0  0  0  0
   -6.4870    9.4377    5.5158 N   0  3  0  0  0  0  0  0  0  0  0  0
   -9.0232   13.0730    1.3919 N   0  3  0  0  0  0  0  0  0  0  0  0
   -7.7917    8.5836    3.0781 O   0  0  0  0  0  0  0  0  0  0  0  0
  -10.6812   11.6896    4.3735 O   0  0  0  0  0  0  0  0  0  0  0  0
   -7.8248   10.7214    2.2656 O   0  0  0  0  0  0  0  0  0  0  0  0
  1  2  1  0  0  0  0
  1 10  1  0  0  0  0
  1 21  1  1  0  0  0
  2  3  1  0  0  0  0
  2  7  1  6  0  0  0
  3  4  1  0  0  0  0
  3  8  1  6  0  0  0
  4  5  1  0  0  0  0
  4  9  1  1  0  0  0
  5  6  1  1  0  0  0
  5 10  1  0  0  0  0
  6 11  1  0  0  0  0
 12 13  1  0  0  0  0
 12 17  1  0  0  0  0
 12 18  1  6  0  0  0
 13 14  1  0  0  0  0
 14 15  1  0  0  0  0
 14 19  1  6  0  0  0
 15 16  1  0  0  0  0
 15 30  1  1  0  0  0
 16 17  1  0  0  0  0
 16 20  1  6  0  0  0
 17 21  1  1  0  0  0
 22 23  1  0  0  0  0
 22 30  1  1  0  0  0
 22 32  1  0  0  0  0
 23 24  1  0  0  0  0
 23 28  1  1  0  0  0
 24 25  1  0  0  0  0
 25 26  1  0  0  0  0
 25 31  1  1  0  0  0
 26 27  1  6  0  0  0
 26 32  1  0  0  0  0
 27 29  1  0  0  0  0
M  CHG  5   8   1  18   1  19   1  28   1  29   1
M  END
>  <CHROM.1>
-128.19463667,69.00561371,-12.74730203,-170.07876442,-79.28074080,-169.72714886
-161.67491241,-175.07385095,-145.96821847,-168.50833743,122.14457666,-151.29124378
77.16155676,64.62922325,67.88491013,-177.23461235,-5.88958481,7.00348649
2.65412090,0.60423418,0.65613921,-2.37320907

>  <Name>
1tob

>  <RI>
0

>  <Rbt.Current_Directory>
/home/itssahil/PROJECTS/Mol_Feturizer/New_Systems/rnas/1tob

>  <Rbt.Executable>
rbdock ($Id: //depot/dev/client3/rdock/2013.1/src/exe/rbdock.cxx#4 $)

>  <Rbt.Library>
libRbt.so (2013.1, Build901 2013/11/27)

>  <Rbt.Parameter_File>
/export/apps/rDock/src/rDock_2013.1_src/data/scripts/dock_solv.prm

>  <Rbt.Receptor>
prm/pocket_docking_3.prm

>  <SCORE>
-61.8274

>  <SCORE.INTER>
-62.3797

>  <SCORE.INTER.CONST>
1

>  <SCORE.INTER.POLAR>
-10.6042

>  <SCORE.INTER.ROT>
6

>  <SCORE.INTER.SOLV>
27.8613

>  <SCORE.INTER.VDW>
-23.1263

>  <SCORE.INTER.norm>
-1.94937

>  <SCORE.INTRA>
0.552329

>  <SCORE.INTRA.DIHEDRAL>
7.20527

>  <SCORE.INTRA.DIHEDRAL.0>
22.9177

>  <SCORE.INTRA.POLAR>
-0.880422

>  <SCORE.INTRA.POLAR.0>
-0.311208

>  <SCORE.INTRA.REPUL>
0

>  <SCORE.INTRA.REPUL.0>
0

>  <SCORE.INTRA.SOLV>
0.151612

>  <SCORE.INTRA.SOLV.lig_0>
-132.657

>  <SCORE.INTRA.VDW>
-0.132677

>  <SCORE.INTRA.VDW.0>
-4.68867

>  <SCORE.INTRA.norm>
0.0172603

>  <SCORE.RESTR>
0

>  <SCORE.RESTR.CAVITY>
0

>  <SCORE.RESTR.norm>
0

>  <SCORE.SYSTEM>
0

>  <SCORE.SYSTEM.CONST>
0

>  <SCORE.SYSTEM.DIHEDRAL>
0

>  <SCORE.SYSTEM.SOLV>
0

>  <SCORE.SYSTEM.norm>
0

>  <SCORE.heavy>
32

>  <SCORE.norm>
-1.93211

>  <RMSD>
1.393

$$$$
1tob
 OpenBabel11021811413D
libRbt.so/2013.1/901 2013/11/27
 32 34  0  0  0  0  0  0  0  0999 V2000
   -1.6216    5.0688    3.6620 C   0  0  2  0  0  0  0  0  0  0  0  0
   -0.6567    4.2692    2.7898 C   0  0  1  0  0  0  0  0  0  0  0  0
   -0.4245    2.8969    3.4072 C   0  0  2  0  0  0  0  0  0  0  0  0
    0.0673    3.0634    4.8400 C   0  0  1  0  0  0  0  0  0  0  0  0
   -0.9266    3.9060    5.6346 C   0  0  1  0  0  0  0  0  0  0  0  0
   -0.4548    4.1726    7.0505 C   0  0  0  0  0  0  0  0  0  0  0  0
   -1.1994    4.1218    1.4854 O   0  0  0  0  0  0  0  0  0  0  0  0
    0.5132    2.0960    2.5907 N   0  3  0  0  0  0  0  0  0  0  0  0
    0.2210    1.7875    5.4469 O   0  0  0  0  0  0  0  0  0  0  0  0
   -1.1105    5.1878    4.9957 O   0  0  0  0  0  0  0  0  0  0  0  0
   -1.2976    5.1061    7.7112 O   0  0  0  0  0  0  0  0  0  0  0  0
   -4.6877    3.7172    2.3190 C   0  0  2  0  0  0  0  0  0  0  0  0
   -5.7087    4.2017    1.2986 C   0  0  0  0  0  0  0  0  0  0  0  0
   -6.5772    5.3090    1.8960 C   0  0  1  0  0  0  0  0  0  0  0  0
   -5.6957    6.4811    2.3217 C   0  0  2  0  0  0  0  0  0  0  0  0
   -4.6577    6.0109    3.3418 C   0  0  1  0  0  0  0  0  0  0  0  0
   -3.8121    4.8838    2.7497 C   0  0  1  0  0  0  0  0  0  0  0  0
   -3.8227    2.6684    1.7357 N   0  3  0  0  0  0  0  0  0  0  0  0
   -7.6227    5.7130    0.9204 N   0  3  0  0  0  0  0  0  0  0  0  0
   -3.8216    7.0981    3.7145 O   0  0  0  0  0  0  0  0  0  0  0  0
   -2.8486    4.4348    3.7197 O   0  0  0  0  0  0  0  0  0  0  0  0
   -5.9408    8.8001    2.8925 C   0  0  1  0  0  0  0  0  0  0  0  0
   -6.5606    9.6537    4.0003 C   0  0  1  0  0  0  0  0  0  0  0  0
   -8.0473    9.8510    3.7446 C   0  0  0  0  0  0  0  0  0  0  0  0
   -8.2428   10.4446    2.3591 C   0  0  1  0  0  0  0  0  0  0  0  0
   -7.5785    9.5478    1.3150 C   0  0  1  0  0  0  0  0  0  0  0  0
   -7.6834   10.1103   -0.0910 C   0  0  0  0  0  0  0  0  0  0  0  0
   -6.2999    9.0665    5.3358 N   0  3  0  0  0  0  0  0  0  0  0  0
   -6.8961   11.3578   -0.2371 N   0  3  0  0  0  0  0  0  0  0  0  0
   -6.5041    7.5310    2.8915 O   0  0  0  0  0  0  0  0  0  0  0  0
   -9.6288   10.5720    2.0770 O   0  0  0  0  0  0  0  0  0  0  0  0
   -6.1731    9.3969    1.6107 O   0  0  0  0  0  0  0  0  0  0  0  0
  1  2  1  0  0  0  0
  1 10  1  0  0  0  0
  1 21  1  1  0  0  0
  2  3  1  0  0  0  0
  2  7  1  6  0  0  0
  3  4  1  0  0  0  0
  3  8  1  6  0  0  0
  4  5  1  0  0  0  0
  4  9  1  1  0  0  0
  5  6  1  1  0  0  0
  5 10  1  0  0  0  0
  6 11  1  0  0  0  0
 12 13  1  0  0  0  0
 12 17  1  0  0  0  0
 12 18  1  6  0  0  0
 13 14  1  0  0  0  0
 14 15  1  0  0  0  0
 14 19  1  6  0  0  0
 15 16  1  0  0  0  0
 15 30  1  1  0  0  0
 16 17  1  0  0  0  0
 16 20  1  6  0  0  0
 17 21  1  1  0  0  0
 22 23  1  0  0  0  0
 22 30  1  6  0  0  0
 22 32  1  0  0  0  0
 23 24  1  0  0  0  0
 23 28  1  1  0  0  0
 24 25  1  0  0  0  0
 25 26  1  0  0  0  0
 25 31  1  6  0  0  0
 26 27  1  6  0  0  0
 26 32  1  0  0  0  0
 27 29  1  0  0  0  0
M  CHG  5   8   1  18   1  19   1  28   1  29   1
M  END
>  <CHROM.1>
-93.75343796,167.08543558,-176.03728126,-177.01802566,171.89497587,89.70616754
-147.85005408,-56.23640634,-158.44757641,174.24246871,146.14125323,-155.54567068
-159.31762706,-58.34824089,66.90307707,-168.38348867,-4.22389815,6.19591551
3.11327211,-0.18230832,-0.75579948,0.92287644

>  <Name>
1tob

>  <RI>
0

>  <Rbt.Current_Directory>
/home/itssahil/PROJECTS/Mol_Feturizer/New_Systems/rnas/1tob

>  <Rbt.Executable>
rbdock ($Id: //depot/dev/client3/rdock/2013.1/src/exe/rbdock.cxx#4 $)

>  <Rbt.Library>
libRbt.so (2013.1, Build901 2013/11/27)

>  <Rbt.Parameter_File>
/export/apps/rDock/src/rDock_2013.1_src/data/scripts/dock_solv.prm

>  <Rbt.Receptor>
prm/pocket_docking_4.prm

>  <SCORE>
-49.5366

>  <SCORE.INTER>
-45.7909

>  <SCORE.INTER.CONST>
1

>  <SCORE.INTER.POLAR>
-6.76763

>  <SCORE.INTER.ROT>
6

>  <SCORE.INTER.SOLV>
26.8443

>  <SCORE.INTER.VDW>
-24.5166

>  <SCORE.INTER.norm>
-1.43097

>  <SCORE.INTRA>
-3.74567

>  <SCORE.INTRA.DIHEDRAL>
-1.22531

>  <SCORE.INTRA.DIHEDRAL.0>
22.9177

>  <SCORE.INTRA.POLAR>
-0.874014

>  <SCORE.INTRA.POLAR.0>
-0.311208

>  <SCORE.INTRA.REPUL>
0

>  <SCORE.INTRA.REPUL.0>
0

>  <SCORE.INTRA.SOLV>
-1.76376

>  <SCORE.INTRA.SOLV.lig_0>
-132.657

>  <SCORE.INTRA.VDW>
0.720517

>  <SCORE.INTRA.VDW.0>
-4.68867

>  <SCORE.INTRA.norm>
-0.117052

>  <SCORE.RESTR>
0

>  <SCORE.RESTR.CAVITY>
0

>  <SCORE.RESTR.norm>
0

>  <SCORE.SYSTEM>
0

>  <SCORE.SYSTEM.CONST>
0

>  <SCORE.SYSTEM.DIHEDRAL>
0

>  <SCORE.SYSTEM.SOLV>
0

>  <SCORE.SYSTEM.norm>
0

>  <SCORE.heavy>
32

>  <SCORE.norm>
-1.54802

>  <RMSD>
1.466

$$$$
1tob
 OpenBabel11021811413D
libRbt.so/2013.1/901 2013/11/27
 32 34  0  0  0  0  0  0  0  0999 V2000
   -3.5632    5.1347    1.3485 C   0  0  2  0  0  0  0  0  0  0  0  0
   -3.0241    3.7762    0.9070 C   0  0  1  0  0  0  0  0  0  0  0  0
   -2.9017    2.8562    2.1140 C   0  0  2  0  0  0  0  0  0  0  0  0
   -2.0340    3.5247    3.1737 C   0  0  1  0  0  0  0  0  0  0  0  0
   -2.6126    4.8910    3.5310 C   0  0  1  0  0  0  0  0  0  0  0  0
   -1.7495    5.6408    4.5267 C   0  0  0  0  0  0  0  0  0  0  0  0
   -3.9031    3.1989   -0.0478 O   0  0  0  0  0  0  0  0  0  0  0  0
   -2.3742    1.5308    1.7237 N   0  3  0  0  0  0  0  0  0  0  0  0
   -1.9706    2.7030    4.3316 O   0  0  0  0  0  0  0  0  0  0  0  0
   -2.7118    5.7114    2.3468 O   0  0  0  0  0  0  0  0  0  0  0  0
   -1.8913    5.1123    5.8377 O   0  0  0  0  0  0  0  0  0  0  0  0
   -7.0123    5.1721    0.8519 C   0  0  2  0  0  0  0  0  0  0  0  0
   -8.0440    6.1671    0.3385 C   0  0  0  0  0  0  0  0  0  0  0  0
   -8.4813    7.1100    1.4597 C   0  0  1  0  0  0  0  0  0  0  0  0
   -7.2700    7.8712    1.9936 C   0  0  2  0  0  0  0  0  0  0  0  0
   -6.2183    6.8864    2.5069 C   0  0  1  0  0  0  0  0  0  0  0  0
   -5.8069    5.9276    1.3901 C   0  0  1  0  0  0  0  0  0  0  0  0
   -6.5609    4.2781   -0.2369 N   0  3  0  0  0  0  0  0  0  0  0  0
   -9.5487    8.0193    0.9679 N   0  3  0  0  0  0  0  0  0  0  0  0
   -5.0811    7.5975    2.9771 O   0  0  0  0  0  0  0  0  0  0  0  0
   -4.8299    4.9935    1.8837 O   0  0  0  0  0  0  0  0  0  0  0  0
   -6.9092    9.9139    3.2023 C   0  0  1  0  0  0  0  0  0  0  0  0
   -6.9617   10.4023    4.6510 C   0  0  1  0  0  0  0  0  0  0  0  0
   -8.3853   10.7840    5.0276 C   0  0  0  0  0  0  0  0  0  0  0  0
   -8.9074   11.8113    4.0364 C   0  0  1  0  0  0  0  0  0  0  0  0
   -8.8011   11.2580    2.6157 C   0  0  1  0  0  0  0  0  0  0  0  0
   -9.2518   12.2558    1.5643 C   0  0  0  0  0  0  0  0  0  0  0  0
   -6.3943    9.3926    5.5756 N   0  3  0  0  0  0  0  0  0  0  0  0
   -8.4021   13.4706    1.5688 N   0  3  0  0  0  0  0  0  0  0  0  0
   -7.6696    8.7614    3.0558 O   0  0  0  0  0  0  0  0  0  0  0  0
  -10.2595   12.1282    4.3331 O   0  0  0  0  0  0  0  0  0  0  0  0
   -7.4309   10.9130    2.3175 O   0  0  0  0  0  0  0  0  0  0  0  0
  1  2  1  0  0  0  0
  1 10  1  0  0  0  0
  1 21  1  1  0  0  0
  2  3  1  0  0  0  0
  2  7  1  6  0  0  0
  3  4  1  0  0  0  0
  3  8  1  6  0  0  0
  4  5  1  0  0  0  0
  4  9  1  1  0  0  0
  5  6  1  1  0  0  0
  5 10  1  0  0  0  0
  6 11  1  0  0  0  0
 12 13  1  0  0  0  0
 12 17  1  0  0  0  0
 12 18  1  6  0  0  0
 13 14  1  0  0  0  0
 14 15  1  0  0  0  0
 14 19  1  6  0  0  0
 15 16  1  0  0  0  0
 15 30  1  1  0  0  0
 16 17  1  0  0  0  0
 16 20  1  6  0  0  0
 17 21  1  1  0  0  0
 22 23  1  0  0  0  0
 22 30  1  1  0  0  0
 22 32  1  0  0  0  0
 23 24  1  0  0  0  0
 23 28  1  1  0  0  0
 24 25  1  0  0  0  0
 25 26  1  0  0  0  0
 25 31  1  1  0  0  0
 26 27  1  6  0  0  0
 26 32  1  0  0  0  0
 27 29  1  0  0  0  0
M  CHG  5   8   1  18   1  19   1  28   1  29   1
M  END
>  <CHROM.1>
-132.28814565,-100.90471157,100.08649293,63.40482163,-75.31463874,-171.14432498
-42.32430143,57.59735960,-150.43799087,-49.04922765,125.66407140,-153.13619612
76.73887580,-60.07232558,62.17550588,161.45898904,-5.82740850,7.14675287
2.56814554,0.67967032,0.67642753,-2.40726613

>  <Name>
1tob

>  <RI>
0

>  <Rbt.Current_Directory>
/home/itssahil/PROJECTS/Mol_Feturizer/New_Systems/rnas/1tob

>  <Rbt.Executable>
rbdock ($Id: //depot/dev/client3/rdock/2013.1/src/exe/rbdock.cxx#4 $)

>  <Rbt.Library>
libRbt.so (2013.1, Build901 2013/11/27)

>  <Rbt.Parameter_File>
/export/apps/rDock/src/rDock_2013.1_src/data/scripts/dock_solv.prm

>  <Rbt.Receptor>
prm/pocket_docking_2.prm

>  <SCORE>
-55.7421

>  <SCORE.INTER>
-61.5483

>  <SCORE.INTER.CONST>
1

>  <SCORE.INTER.POLAR>
-10.2867

>  <SCORE.INTER.ROT>
6

>  <SCORE.INTER.SOLV>
27.1532

>  <SCORE.INTER.VDW>
-23.3944

>  <SCORE.INTER.norm>
-1.92338

>  <SCORE.INTRA>
5.35903

>  <SCORE.INTRA.DIHEDRAL>
9.44708

>  <SCORE.INTRA.DIHEDRAL.0>
22.9177

>  <SCORE.INTRA.POLAR>
0.163987

>  <SCORE.INTRA.POLAR.0>
-0.311208

>  <SCORE.INTRA.REPUL>
0

>  <SCORE.INTRA.REPUL.0>
0

>  <SCORE.INTRA.SOLV>
0.141233

>  <SCORE.INTRA.SOLV.lig_0>
-132.657

>  <SCORE.INTRA.VDW>
0.00731223

>  <SCORE.INTRA.VDW.0>
-4.68867

>  <SCORE.INTRA.norm>
0.16747

>  <SCORE.RESTR>
0.447098

>  <SCORE.RESTR.CAVITY>
0.447098

>  <SCORE.RESTR.norm>
0.0139718

>  <SCORE.SYSTEM>
0

>  <SCORE.SYSTEM.CONST>
0

>  <SCORE.SYSTEM.DIHEDRAL>
0

>  <SCORE.SYSTEM.SOLV>
0

>  <SCORE.SYSTEM.norm>
0

>  <SCORE.heavy>
32

>  <SCORE.norm>
-1.74194

>  <RMSD>
1.498

$$$$
1tob
 OpenBabel11021811413D
libRbt.so/2013.1/901 2013/11/27
 32 34  0  0  0  0  0  0  0  0999 V2000
   -2.4959    6.0420    2.3642 C   0  0  2  0  0  0  0  0  0  0  0  0
   -1.2066    5.2469    2.1728 C   0  0  1  0  0  0  0  0  0  0  0  0
   -1.0534    4.2385    3.3032 C   0  0  2  0  0  0  0  0  0  0  0  0
   -1.1107    4.9659    4.6412 C   0  0  1  0  0  0  0  0  0  0  0  0
   -2.4048    5.7688    4.7398 C   0  0  1  0  0  0  0  0  0  0  0  0
   -2.4859    6.5781    6.0193 C   0  0  0  0  0  0  0  0  0  0  0  0
   -1.2434    4.5669    0.9263 O   0  0  0  0  0  0  0  0  0  0  0  0
    0.1914    3.4540    3.1537 N   0  3  0  0  0  0  0  0  0  0  0  0
   -1.0375    4.0247    5.7037 O   0  0  0  0  0  0  0  0  0  0  0  0
   -2.4956    6.6982    3.6384 O   0  0  0  0  0  0  0  0  0  0  0  0
   -3.6927    7.3246    6.0856 O   0  0  0  0  0  0  0  0  0  0  0  0
   -5.7394    4.6605    1.3355 C   0  0  2  0  0  0  0  0  0  0  0  0
   -6.9884    5.2728    0.7164 C   0  0  0  0  0  0  0  0  0  0  0  0
   -7.6576    6.2321    1.7009 C   0  0  1  0  0  0  0  0  0  0  0  0
   -6.6834    7.3467    2.0760 C   0  0  2  0  0  0  0  0  0  0  0  0
   -5.4178    6.7491    2.6929 C   0  0  1  0  0  0  0  0  0  0  0  0
   -4.7696    5.7687    1.7159 C   0  0  1  0  0  0  0  0  0  0  0  0
   -5.0693    3.7563    0.3753 N   0  3  0  0  0  0  0  0  0  0  0  0
   -8.9192    6.7568    1.1169 N   0  3  0  0  0  0  0  0  0  0  0  0
   -4.5022    7.7874    3.0149 O   0  0  0  0  0  0  0  0  0  0  0  0
   -3.5890    5.1977    2.3083 O   0  0  0  0  0  0  0  0  0  0  0  0
   -6.7576    9.5321    3.0671 C   0  0  1  0  0  0  0  0  0  0  0  0
   -7.0444   10.1685    4.4282 C   0  0  1  0  0  0  0  0  0  0  0  0
   -8.5432   10.3391    4.6253 C   0  0  0  0  0  0  0  0  0  0  0  0
   -9.1132   11.1387    3.4650 C   0  0  1  0  0  0  0  0  0  0  0  0
   -8.7662   10.4513    2.1449 C   0  0  1  0  0  0  0  0  0  0  0  0
   -9.2549   11.2274    0.9353 C   0  0  0  0  0  0  0  0  0  0  0  0
   -6.4256    9.3863    5.5244 N   0  3  0  0  0  0  0  0  0  0  0  0
  -10.7027   11.0122    0.7006 N   0  3  0  0  0  0  0  0  0  0  0  0
   -7.3025    8.2562    3.0087 O   0  0  0  0  0  0  0  0  0  0  0  0
  -10.5228   11.2490    3.5980 O   0  0  0  0  0  0  0  0  0  0  0  0
   -7.3342   10.3165    2.0157 O   0  0  0  0  0  0  0  0  0  0  0  0
  1  2  1  0  0  0  0
  1 10  1  0  0  0  0
  1 21  1  1  0  0  0
  2  3  1  0  0  0  0
  2  7  1  6  0  0  0
  3  4  1  0  0  0  0
  3  8  1  6  0  0  0
  4  5  1  0  0  0  0
  4  9  1  1  0  0  0
  5  6  1  1  0  0  0
  5 10  1  0  0  0  0
  6 11  1  0  0  0  0
 12 13  1  0  0  0  0
 12 17  1  0  0  0  0
 12 18  1  6  0  0  0
 13 14  1  0  0  0  0
 14 15  1  0  0  0  0
 14 19  1  6  0  0  0
 15 16  1  0  0  0  0
 15 30  1  1  0  0  0
 16 17  1  0  0  0  0
 16 20  1  6  0  0  0
 17 21  1  1  0  0  0
 22 23  1  0  0  0  0
 22 30  1  1  0  0  0
 22 32  1  0  0  0  0
 23 24  1  0  0  0  0
 23 28  1  1  0  0  0
 24 25  1  0  0  0  0
 25 26  1  0  0  0  0
 25 31  1  1  0  0  0
 26 27  1  6  0  0  0
 26 32  1  0  0  0  0
 27 29  1  0  0  0  0
M  CHG  5   8   1  18   1  19   1  28   1  29   1
M  END
>  <CHROM.1>
-145.62074924,169.43837369,-70.92139018,-60.40866913,179.56458884,91.40566035
164.59728220,60.65145870,-157.60529742,-62.33369288,163.22133151,-155.36191917
-168.78984073,158.01397057,-79.20130598,-28.01762574,-5.31742320,7.22454714
2.91764283,0.30696975,0.57789861,-2.25381721

>  <Name>
1tob

>  <RI>
0

>  <Rbt.Current_Directory>
/home/itssahil/PROJECTS/Mol_Feturizer/New_Systems/rnas/1tob

>  <Rbt.Executable>
rbdock ($Id: //depot/dev/client3/rdock/2013.1/src/exe/rbdock.cxx#4 $)

>  <Rbt.Library>
libRbt.so (2013.1, Build901 2013/11/27)

>  <Rbt.Parameter_File>
/export/apps/rDock/src/rDock_2013.1_src/data/scripts/dock_solv.prm

>  <Rbt.Receptor>
prm/pocket_docking_3.prm

>  <SCORE>
-45.4206

>  <SCORE.INTER>
-46.018

>  <SCORE.INTER.CONST>
1

>  <SCORE.INTER.POLAR>
-7.79274

>  <SCORE.INTER.ROT>
6

>  <SCORE.INTER.SOLV>
24.0269

>  <SCORE.INTER.VDW>
-20.3118

>  <SCORE.INTER.norm>
-1.43806

>  <SCORE.INTRA>
0.597417

>  <SCORE.INTRA.DIHEDRAL>
-1.53326

>  <SCORE.INTRA.DIHEDRAL.0>
22.9177

>  <SCORE.INTRA.POLAR>
0.237668

>  <SCORE.INTRA.POLAR.0>
-0.311208

>  <SCORE.INTRA.REPUL>
0

>  <SCORE.INTRA.REPUL.0>
0

>  <SCORE.INTRA.SOLV>
-1.48419

>  <SCORE.INTRA.SOLV.lig_0>
-132.657

>  <SCORE.INTRA.VDW>
1.29807

>  <SCORE.INTRA.VDW.0>
-4.68867

>  <SCORE.INTRA.norm>
0.0186693

>  <SCORE.RESTR>
0

>  <SCORE.RESTR.CAVITY>
0

>  <SCORE.RESTR.norm>
0

>  <SCORE.SYSTEM>
0

>  <SCORE.SYSTEM.CONST>
0

>  <SCORE.SYSTEM.DIHEDRAL>
0

>  <SCORE.SYSTEM.SOLV>
0

>  <SCORE.SYSTEM.norm>
0

>  <SCORE.heavy>
32

>  <SCORE.norm>
-1.41939

>  <RMSD>
1.502

$$$$
1tob
 OpenBabel11021811413D
libRbt.so/2013.1/901 2013/11/27
 32 34  0  0  0  0  0  0  0  0999 V2000
   -3.5903    5.0703    1.4686 C   0  0  2  0  0  0  0  0  0  0  0  0
   -3.0551    3.6824    1.1244 C   0  0  1  0  0  0  0  0  0  0  0  0
   -2.9633    2.8400    2.3894 C   0  0  2  0  0  0  0  0  0  0  0  0
   -2.1097    3.5678    3.4210 C   0  0  1  0  0  0  0  0  0  0  0  0
   -2.6828    4.9584    3.6799 C   0  0  1  0  0  0  0  0  0  0  0  0
   -1.8318    5.7633    4.6425 C   0  0  0  0  0  0  0  0  0  0  0  0
   -3.9212    3.0524    0.1914 O   0  0  0  0  0  0  0  0  0  0  0  0
   -2.4403    1.4885    2.0940 N   0  3  0  0  0  0  0  0  0  0  0  0
   -2.0751    2.8208    4.6297 O   0  0  0  0  0  0  0  0  0  0  0  0
   -2.7526    5.7027    2.4445 O   0  0  0  0  0  0  0  0  0  0  0  0
   -1.9009    5.2376    5.9605 O   0  0  0  0  0  0  0  0  0  0  0  0
   -7.0066    5.1757    0.8716 C   0  0  2  0  0  0  0  0  0  0  0  0
   -8.0062    6.1820    0.3181 C   0  0  0  0  0  0  0  0  0  0  0  0
   -8.4756    7.1310    1.4211 C   0  0  1  0  0  0  0  0  0  0  0  0
   -7.2770    7.8788    2.0010 C   0  0  2  0  0  0  0  0  0  0  0  0
   -6.2575    6.8824    2.5551 C   0  0  1  0  0  0  0  0  0  0  0  0
   -5.8143    5.9178    1.4556 C   0  0  1  0  0  0  0  0  0  0  0  0
   -6.5238    4.2755   -0.1984 N   0  3  0  0  0  0  0  0  0  0  0  0
   -9.5126    8.0520    0.8878 N   0  3  0  0  0  0  0  0  0  0  0  0
   -5.1312    7.5809    3.0685 O   0  0  0  0  0  0  0  0  0  0  0  0
   -4.8680    4.9730    1.9872 O   0  0  0  0  0  0  0  0  0  0  0  0
   -6.9600    9.9349    3.1992 C   0  0  1  0  0  0  0  0  0  0  0  0
   -7.0235   10.4186    4.6490 C   0  0  1  0  0  0  0  0  0  0  0  0
   -8.4527   10.7838    5.0209 C   0  0  0  0  0  0  0  0  0  0  0  0
   -8.9819   11.8080    4.0304 C   0  0  1  0  0  0  0  0  0  0  0  0
   -8.8640   11.2600    2.6087 C   0  0  1  0  0  0  0  0  0  0  0  0
   -9.3213   12.2557    1.5582 C   0  0  0  0  0  0  0  0  0  0  0  0
   -6.4488    9.4125    5.5731 N   0  3  0  0  0  0  0  0  0  0  0  0
   -8.4990   13.4889    1.5843 N   0  3  0  0  0  0  0  0  0  0  0  0
   -7.7072    8.7745    3.0464 O   0  0  0  0  0  0  0  0  0  0  0  0
  -10.3387   12.1094    4.3225 O   0  0  0  0  0  0  0  0  0  0  0  0
   -7.4890   10.9307    2.3150 O   0  0  0  0  0  0  0  0  0  0  0  0
  1  2  1  0  0  0  0
  1 10  1  0  0  0  0
  1 21  1  1  0  0  0
  2  3  1  0  0  0  0
  2  7  1  6  0  0  0
  3  4  1  0  0  0  0
  3  8  1  6  0  0  0
  4  5  1  0  0  0  0
  4  9  1  1  0  0  0
  5  6  1  1  0  0  0
  5 10  1  0  0  0  0
  6 11  1  0  0  0  0
 12 13  1  0  0  0  0
 12 17  1  0  0  0  0
 12 18  1  6  0  0  0
 13 14  1  0  0  0  0
 14 15  1  0  0  0  0
 14 19  1  6  0  0  0
 15 16  1  0  0  0  0
 15 30  1  1  0  0  0
 16 17  1  0  0  0  0
 16 20  1  6  0  0  0
 17 21  1  1  0  0  0
 22 23  1  0  0  0  0
 22 30  1  1  0  0  0
 22 32  1  0  0  0  0
 23 24  1  0  0  0  0
 23 28  1  1  0  0  0
 24 25  1  0  0  0  0
 25 26  1  0  0  0  0
 25 31  1  1  0  0  0
 26 27  1  6  0  0  0
 26 32  1  0  0  0  0
 27 29  1  0  0  0  0
M  CHG  5   8   1  18   1  19   1  28   1  29   1
M  END
>  <CHROM.1>
-134.69997307,69.24804986,-134.84363451,-172.07703804,-69.55758662,-175.79189495
-44.97730733,-52.38998877,-148.85918955,73.14650356,123.61319542,-151.92355398
-164.78436425,-61.81336445,61.24194916,-176.35019047,-5.86842646,7.15899127
2.64872088,0.65872934,0.69232682,-2.40624850

>  <Name>
1tob

>  <RI>
0

>  <Rbt.Current_Directory>
/home/itssahil/PROJECTS/Mol_Feturizer/New_Systems/rnas/1tob

>  <Rbt.Executable>
rbdock ($Id: //depot/dev/client3/rdock/2013.1/src/exe/rbdock.cxx#4 $)

>  <Rbt.Library>
libRbt.so (2013.1, Build901 2013/11/27)

>  <Rbt.Parameter_File>
/export/apps/rDock/src/rDock_2013.1_src/data/scripts/dock_solv.prm

>  <Rbt.Receptor>
prm/pocket_docking_5.prm

>  <SCORE>
-61.099

>  <SCORE.INTER>
-60.8566

>  <SCORE.INTER.CONST>
1

>  <SCORE.INTER.POLAR>
-10.2852

>  <SCORE.INTER.ROT>
6

>  <SCORE.INTER.SOLV>
26.802

>  <SCORE.INTER.VDW>
-22.821

>  <SCORE.INTER.norm>
-1.90177

>  <SCORE.INTRA>
-0.242414

>  <SCORE.INTRA.DIHEDRAL>
3.7956

>  <SCORE.INTRA.DIHEDRAL.0>
22.9177

>  <SCORE.INTRA.POLAR>
-0.699233

>  <SCORE.INTRA.POLAR.0>
-0.311208

>  <SCORE.INTRA.REPUL>
0

>  <SCORE.INTRA.REPUL.0>
0

>  <SCORE.INTRA.SOLV>
0.215956

>  <SCORE.INTRA.SOLV.lig_0>
-132.657

>  <SCORE.INTRA.VDW>
0.1292

>  <SCORE.INTRA.VDW.0>
-4.68867

>  <SCORE.INTRA.norm>
-0.00757544

>  <SCORE.RESTR>
0

>  <SCORE.RESTR.CAVITY>
0

>  <SCORE.RESTR.norm>
0

>  <SCORE.SYSTEM>
0

>  <SCORE.SYSTEM.CONST>
0

>  <SCORE.SYSTEM.DIHEDRAL>
0

>  <SCORE.SYSTEM.SOLV>
0

>  <SCORE.SYSTEM.norm>
0

>  <SCORE.heavy>
32

>  <SCORE.norm>
-1.90934

>  <RMSD>
1.510

$$$$
1tob
 OpenBabel11021811413D
libRbt.so/2013.1/901 2013/11/27
 32 34  0  0  0  0  0  0  0  0999 V2000
   -3.4885    5.4664    1.5707 C   0  0  2  0  0  0  0  0  0  0  0  0
   -2.8997    4.1268    1.1347 C   0  0  1  0  0  0  0  0  0  0  0  0
   -2.8017    3.1949    2.3347 C   0  0  2  0  0  0  0  0  0  0  0  0
   -1.9924    3.8705    3.4352 C   0  0  1  0  0  0  0  0  0  0  0  0
   -2.6175    5.2180    3.7856 C   0  0  1  0  0  0  0  0  0  0  0  0
   -1.8123    5.9755    4.8230 C   0  0  0  0  0  0  0  0  0  0  0  0
   -3.7267    3.5408    0.1396 O   0  0  0  0  0  0  0  0  0  0  0  0
   -2.2273    1.8875    1.9498 N   0  3  0  0  0  0  0  0  0  0  0  0
   -1.9538    3.0360    4.5850 O   0  0  0  0  0  0  0  0  0  0  0  0
   -2.6907    6.0506    2.6082 O   0  0  0  0  0  0  0  0  0  0  0  0
   -1.9513    5.3960    6.1125 O   0  0  0  0  0  0  0  0  0  0  0  0
   -6.9307    5.3356    0.9619 C   0  0  2  0  0  0  0  0  0  0  0  0
   -7.9793    6.2650    0.3663 C   0  0  0  0  0  0  0  0  0  0  0  0
   -8.4742    7.2569    1.4192 C   0  0  1  0  0  0  0  0  0  0  0  0
   -7.3012    8.0868    1.9360 C   0  0  2  0  0  0  0  0  0  0  0  0
   -6.2331    7.1681    2.5314 C   0  0  1  0  0  0  0  0  0  0  0  0
   -5.7636    6.1598    1.4833 C   0  0  1  0  0  0  0  0  0  0  0  0
   -6.4241    4.3949   -0.0612 N   0  3  0  0  0  0  0  0  0  0  0  0
   -9.5563    8.1009    0.8493 N   0  3  0  0  0  0  0  0  0  0  0  0
   -5.1309    7.9419    2.9859 O   0  0  0  0  0  0  0  0  0  0  0  0
   -4.7711    5.2881    2.0542 O   0  0  0  0  0  0  0  0  0  0  0  0
   -6.9738   10.1590    3.1034 C   0  0  1  0  0  0  0  0  0  0  0  0
   -7.0407   10.6361    4.5552 C   0  0  1  0  0  0  0  0  0  0  0  0
   -8.4623   11.0443    4.9113 C   0  0  0  0  0  0  0  0  0  0  0  0
   -8.9460   12.0905    3.9204 C   0  0  1  0  0  0  0  0  0  0  0  0
   -8.8272   11.5472    2.4970 C   0  0  1  0  0  0  0  0  0  0  0  0
   -9.2392   12.5629    1.4469 C   0  0  0  0  0  0  0  0  0  0  0  0
   -6.5101    9.6070    5.4804 N   0  3  0  0  0  0  0  0  0  0  0  0
   -9.0949   12.0163    0.0765 N   0  3  0  0  0  0  0  0  0  0  0  0
   -7.7554    9.0238    2.9340 O   0  0  0  0  0  0  0  0  0  0  0  0
  -10.2962   12.4332    4.1972 O   0  0  0  0  0  0  0  0  0  0  0  0
   -7.4596   11.1761    2.2188 O   0  0  0  0  0  0  0  0  0  0  0  0
  1  2  1  0  0  0  0
  1 10  1  0  0  0  0
  1 21  1  1  0  0  0
  2  3  1  0  0  0  0
  2  7  1  6  0  0  0
  3  4  1  0  0  0  0
  3  8  1  6  0  0  0
  4  5  1  0  0  0  0
  4  9  1  1  0  0  0
  5  6  1  1  0  0  0
  5 10  1  0  0  0  0
  6 11  1  0  0  0  0
 12 13  1  0  0  0  0
 12 17  1  0  0  0  0
 12 18  1  6  0  0  0
 13 14  1  0  0  0  0
 14 15  1  0  0  0  0
 14 19  1  6  0  0  0
 15 16  1  0  0  0  0
 15 30  1  1  0  0  0
 16 17  1  0  0  0  0
 16 20  1  6  0  0  0
 17 21  1  1  0  0  0
 22 23  1  0  0  0  0
 22 30  1  1  0  0  0
 22 32  1  0  0  0  0
 23 24  1  0  0  0  0
 23 28  1  1  0  0  0
 24 25  1  0  0  0  0
 25 26  1  0  0  0  0
 25 31  1  1  0  0  0
 26 27  1  6  0  0  0
 26 32  1  0  0  0  0
 27 29  1  0  0  0  0
M  CHG  5   8   1  18   1  19   1  28   1  29   1
M  END
>  <CHROM.1>
-129.26036070,-178.60913182,58.52209255,-73.55608084,-73.06612170,-172.10789624
93.56593571,-168.02678350,-155.33672178,-53.60000938,127.50980808,-148.81554249
80.09928536,-170.70516794,179.15140785,94.38557579,-5.84339230,7.35501579
2.57246702,0.57070946,0.70573191,-2.35266128

>  <Name>
1tob

>  <RI>
0

>  <Rbt.Current_Directory>
/home/itssahil/PROJECTS/Mol_Feturizer/New_Systems/rnas/1tob

>  <Rbt.Executable>
rbdock ($Id: //depot/dev/client3/rdock/2013.1/src/exe/rbdock.cxx#4 $)

>  <Rbt.Library>
libRbt.so (2013.1, Build901 2013/11/27)

>  <Rbt.Parameter_File>
/export/apps/rDock/src/rDock_2013.1_src/data/scripts/dock_solv.prm

>  <Rbt.Receptor>
prm/pocket_docking_6.prm

>  <SCORE>
-47.4591

>  <SCORE.INTER>
-51.387

>  <SCORE.INTER.CONST>
1

>  <SCORE.INTER.POLAR>
-9.10341

>  <SCORE.INTER.ROT>
6

>  <SCORE.INTER.SOLV>
24.4003

>  <SCORE.INTER.VDW>
-19.6467

>  <SCORE.INTER.norm>
-1.60584

>  <SCORE.INTRA>
3.92794

>  <SCORE.INTRA.DIHEDRAL>
5.32038

>  <SCORE.INTRA.DIHEDRAL.0>
22.9177

>  <SCORE.INTRA.POLAR>
0.10628

>  <SCORE.INTRA.POLAR.0>
-0.311208

>  <SCORE.INTRA.REPUL>
0

>  <SCORE.INTRA.REPUL.0>
0

>  <SCORE.INTRA.SOLV>
-0.283387

>  <SCORE.INTRA.SOLV.lig_0>
-132.657

>  <SCORE.INTRA.VDW>
1.0481

>  <SCORE.INTRA.VDW.0>
-4.68867

>  <SCORE.INTRA.norm>
0.122748

>  <SCORE.RESTR>
0

>  <SCORE.RESTR.CAVITY>
0

>  <SCORE.RESTR.norm>
0

>  <SCORE.SYSTEM>
0

>  <SCORE.SYSTEM.CONST>
0

>  <SCORE.SYSTEM.DIHEDRAL>
0

>  <SCORE.SYSTEM.SOLV>
0

>  <SCORE.SYSTEM.norm>
0

>  <SCORE.heavy>
32

>  <SCORE.norm>
-1.4831

>  <RMSD>
1.512

$$$$
1tob
 OpenBabel11021811413D
libRbt.so/2013.1/901 2013/11/27
 32 34  0  0  0  0  0  0  0  0999 V2000
   -3.4067    5.3273    1.4754 C   0  0  2  0  0  0  0  0  0  0  0  0
   -2.7312    4.0364    1.0188 C   0  0  1  0  0  0  0  0  0  0  0  0
   -2.6401    3.0645    2.1873 C   0  0  2  0  0  0  0  0  0  0  0  0
   -1.9167    3.7359    3.3486 C   0  0  1  0  0  0  0  0  0  0  0  0
   -2.6250    5.0362    3.7183 C   0  0  1  0  0  0  0  0  0  0  0  0
   -1.9070    5.7916    4.8194 C   0  0  0  0  0  0  0  0  0  0  0  0
   -3.4815    3.4495   -0.0348 O   0  0  0  0  0  0  0  0  0  0  0  0
   -1.9829    1.8029    1.7823 N   0  3  0  0  0  0  0  0  0  0  0  0
   -1.8876    2.8602    4.4677 O   0  0  0  0  0  0  0  0  0  0  0  0
   -2.6874    5.9094    2.5699 O   0  0  0  0  0  0  0  0  0  0  0  0
   -2.7152    6.8350    5.3451 O   0  0  0  0  0  0  0  0  0  0  0  0
   -6.9107    5.1954    0.9157 C   0  0  2  0  0  0  0  0  0  0  0  0
   -7.9619    6.1647    0.3928 C   0  0  0  0  0  0  0  0  0  0  0  0
   -8.3725    7.1496    1.4878 C   0  0  1  0  0  0  0  0  0  0  0  0
   -7.1507    7.9367    1.9563 C   0  0  2  0  0  0  0  0  0  0  0  0
   -6.0796    6.9777    2.4782 C   0  0  1  0  0  0  0  0  0  0  0  0
   -5.6947    5.9770    1.3890 C   0  0  1  0  0  0  0  0  0  0  0  0
   -6.4854    4.2608   -0.1492 N   0  3  0  0  0  0  0  0  0  0  0  0
   -9.4583    8.0340    0.9908 N   0  3  0  0  0  0  0  0  0  0  0  0
   -4.9335    7.7119    2.8872 O   0  0  0  0  0  0  0  0  0  0  0  0
   -4.6991    5.0674    1.8913 O   0  0  0  0  0  0  0  0  0  0  0  0
   -6.6721    9.9465    3.1792 C   0  0  1  0  0  0  0  0  0  0  0  0
   -6.7648   10.4527    4.6197 C   0  0  1  0  0  0  0  0  0  0  0  0
   -8.1671   10.9666    4.9089 C   0  0  0  0  0  0  0  0  0  0  0  0
   -8.5335   12.0269    3.8832 C   0  0  1  0  0  0  0  0  0  0  0  0
   -8.3949   11.4515    2.4741 C   0  0  1  0  0  0  0  0  0  0  0  0
   -8.6894   12.4752    1.3927 C   0  0  0  0  0  0  0  0  0  0  0  0
   -6.3479    9.4051    5.5815 N   0  3  0  0  0  0  0  0  0  0  0  0
   -8.3542   11.9542    0.0459 N   0  3  0  0  0  0  0  0  0  0  0  0
   -7.5250    8.8667    2.9933 O   0  0  0  0  0  0  0  0  0  0  0  0
   -9.8660   12.4690    4.0971 O   0  0  0  0  0  0  0  0  0  0  0  0
   -7.0469   10.9798    2.2599 O   0  0  0  0  0  0  0  0  0  0  0  0
  1  2  1  0  0  0  0
  1 10  1  0  0  0  0
  1 21  1  1  0  0  0
  2  3  1  0  0  0  0
  2  7  1  6  0  0  0
  3  4  1  0  0  0  0
  3  8  1  6  0  0  0
  4  5  1  0  0  0  0
  4  9  1  1  0  0  0
  5  6  1  1  0  0  0
  5 10  1  0  0  0  0
  6 11  1  0  0  0  0
 12 13  1  0  0  0  0
 12 17  1  0  0  0  0
 12 18  1  6  0  0  0
 13 14  1  0  0  0  0
 14 15  1  0  0  0  0
 14 19  1  6  0  0  0
 15 16  1  0  0  0  0
 15 30  1  1  0  0  0
 16 17  1  0  0  0  0
 16 20  1  6  0  0  0
 17 21  1  1  0  0  0
 22 23  1  0  0  0  0
 22 30  1  1  0  0  0
 22 32  1  0  0  0  0
 23 24  1  0  0  0  0
 23 28  1  1  0  0  0
 24 25  1  0  0  0  0
 25 26  1  0  0  0  0
 25 31  1  1  0  0  0
 26 27  1  6  0  0  0
 26 32  1  0  0  0  0
 27 29  1  0  0  0  0
M  CHG  5   8   1  18   1  19   1  28   1  29   1
M  END
>  <CHROM.1>
-133.94790056,-168.81644734,173.20807293,-89.23877987,-167.48880899,176.05772931
81.61886026,63.74898062,-157.98615181,-178.31741286,135.44197233,-153.46397377
-41.72005016,65.99205025,171.52760533,77.68441522,-5.67944289,7.27457052
2.51351868,0.65149622,0.69684257,-2.38707563

>  <Name>
1tob

>  <RI>
0

>  <Rbt.Current_Directory>
/home/itssahil/PROJECTS/Mol_Feturizer/New_Systems/rnas/1tob

>  <Rbt.Executable>
rbdock ($Id: //depot/dev/client3/rdock/2013.1/src/exe/rbdock.cxx#4 $)

>  <Rbt.Library>
libRbt.so (2013.1, Build901 2013/11/27)

>  <Rbt.Parameter_File>
/export/apps/rDock/src/rDock_2013.1_src/data/scripts/dock_solv.prm

>  <Rbt.Receptor>
prm/pocket_docking_7.prm

>  <SCORE>
-46.3697

>  <SCORE.INTER>
-46.3132

>  <SCORE.INTER.CONST>
1

>  <SCORE.INTER.POLAR>
-8.0138

>  <SCORE.INTER.ROT>
6

>  <SCORE.INTER.SOLV>
25.8585

>  <SCORE.INTER.VDW>
-20.3823

>  <SCORE.INTER.norm>
-1.44729

>  <SCORE.INTRA>
-0.0565019

>  <SCORE.INTRA.DIHEDRAL>
2.45773

>  <SCORE.INTRA.DIHEDRAL.0>
22.9177

>  <SCORE.INTRA.POLAR>
-0.264861

>  <SCORE.INTRA.POLAR.0>
-0.311208

>  <SCORE.INTRA.REPUL>
0

>  <SCORE.INTRA.REPUL.0>
0

>  <SCORE.INTRA.SOLV>
-1.82389

>  <SCORE.INTRA.SOLV.lig_0>
-132.657

>  <SCORE.INTRA.VDW>
0.527106

>  <SCORE.INTRA.VDW.0>
-4.68867

>  <SCORE.INTRA.norm>
-0.00176569

>  <SCORE.RESTR>
0

>  <SCORE.RESTR.CAVITY>
0

>  <SCORE.RESTR.norm>
0

>  <SCORE.SYSTEM>
0

>  <SCORE.SYSTEM.CONST>
0

>  <SCORE.SYSTEM.DIHEDRAL>
0

>  <SCORE.SYSTEM.SOLV>
0

>  <SCORE.SYSTEM.norm>
0

>  <SCORE.heavy>
32

>  <SCORE.norm>
-1.44905

>  <RMSD>
1.524

$$$$
1tob
 OpenBabel11021811413D
libRbt.so/2013.1/901 2013/11/27
 32 34  0  0  0  0  0  0  0  0999 V2000
   -2.1208    4.9854    2.5496 C   0  0  2  0  0  0  0  0  0  0  0  0
   -1.2220    3.8357    2.1007 C   0  0  1  0  0  0  0  0  0  0  0  0
   -1.2033    2.7519    3.1700 C   0  0  2  0  0  0  0  0  0  0  0  0
   -0.7721    3.3601    4.4992 C   0  0  1  0  0  0  0  0  0  0  0  0
   -1.6898    4.5255    4.8581 C   0  0  1  0  0  0  0  0  0  0  0  0
   -1.2646    5.2230    6.1353 C   0  0  0  0  0  0  0  0  0  0  0  0
   -1.7080    3.2957    0.8802 O   0  0  0  0  0  0  0  0  0  0  0  0
   -0.3346    1.6234    2.7711 N   0  3  0  0  0  0  0  0  0  0  0  0
   -0.8180    2.3704    5.5183 O   0  0  0  0  0  0  0  0  0  0  0  0
   -1.6713    5.5125    3.8042 O   0  0  0  0  0  0  0  0  0  0  0  0
   -1.5323    4.4223    7.2777 O   0  0  0  0  0  0  0  0  0  0  0  0
   -5.3250    4.2121    1.2453 C   0  0  2  0  0  0  0  0  0  0  0  0
   -6.3587    4.9438    0.4001 C   0  0  0  0  0  0  0  0  0  0  0  0
   -7.1700    5.9087    1.2651 C   0  0  1  0  0  0  0  0  0  0  0  0
   -6.2361    6.9286    1.9127 C   0  0  2  0  0  0  0  0  0  0  0  0
   -5.1848    6.2104    2.7603 C   0  0  1  0  0  0  0  0  0  0  0  0
   -4.3970    5.2258    1.8968 C   0  0  1  0  0  0  0  0  0  0  0  0
   -4.5146    3.3011    0.4075 N   0  3  0  0  0  0  0  0  0  0  0  0
   -8.2297    6.5525    0.4461 N   0  3  0  0  0  0  0  0  0  0  0  0
   -4.3008    7.1611    3.3387 O   0  0  0  0  0  0  0  0  0  0  0  0
   -3.4210    4.5417    2.7032 O   0  0  0  0  0  0  0  0  0  0  0  0
   -7.3468    9.0449    2.1399 C   0  0  1  0  0  0  0  0  0  0  0  0
   -6.7669   10.2194    2.9298 C   0  0  1  0  0  0  0  0  0  0  0  0
   -7.3534   10.2521    4.3331 C   0  0  0  0  0  0  0  0  0  0  0  0
   -8.8701   10.2905    4.2413 C   0  0  1  0  0  0  0  0  0  0  0  0
   -9.3679    9.1008    3.4214 C   0  0  1  0  0  0  0  0  0  0  0  0
  -10.8746    9.1063    3.2378 C   0  0  0  0  0  0  0  0  0  0  0  0
   -5.2857   10.1712    2.9479 N   0  3  0  0  0  0  0  0  0  0  0  0
  -11.3110   10.2201    2.3623 N   0  3  0  0  0  0  0  0  0  0  0  0
   -6.9902    7.8423    2.7355 O   0  0  0  0  0  0  0  0  0  0  0  0
   -9.4361   10.2525    5.5432 O   0  0  0  0  0  0  0  0  0  0  0  0
   -8.7771    9.1228    2.1038 O   0  0  0  0  0  0  0  0  0  0  0  0
  1  2  1  0  0  0  0
  1 10  1  0  0  0  0
  1 21  1  1  0  0  0
  2  3  1  0  0  0  0
  2  7  1  6  0  0  0
  3  4  1  0  0  0  0
  3  8  1  6  0  0  0
  4  5  1  0  0  0  0
  4  9  1  1  0  0  0
  5  6  1  1  0  0  0
  5 10  1  0  0  0  0
  6 11  1  0  0  0  0
 12 13  1  0  0  0  0
 12 17  1  0  0  0  0
 12 18  1  6  0  0  0
 13 14  1  0  0  0  0
 14 15  1  0  0  0  0
 14 19  1  6  0  0  0
 15 16  1  0  0  0  0
 15 30  1  1  0  0  0
 16 17  1  0  0  0  0
 16 20  1  6  0  0  0
 17 21  1  1  0  0  0
 22 23  1  0  0  0  0
 22 30  1  1  0  0  0
 22 32  1  0  0  0  0
 23 24  1  0  0  0  0
 23 28  1  1  0  0  0
 24 25  1  0  0  0  0
 25 26  1  0  0  0  0
 25 31  1  1  0  0  0
 26 27  1  6  0  0  0
 26 32  1  0  0  0  0
 27 29  1  0  0  0  0
M  CHG  5   8   1  18   1  19   1  28   1  29   1
M  END
>  <CHROM.1>
-121.68131886,-170.90632478,47.80487342,-171.14516261,-71.92541601,177.58430492
31.05695519,-45.18790864,-96.00017875,-175.28498849,134.47242901,-120.74260644
83.40973764,-54.06411640,68.59506226,163.28909338,-5.04063697,6.31182472
3.01240753,0.31763862,0.60523267,-2.20082346

>  <Name>
1tob

>  <RI>
0

>  <Rbt.Current_Directory>
/home/itssahil/PROJECTS/Mol_Feturizer/New_Systems/rnas/1tob

>  <Rbt.Executable>
rbdock ($Id: //depot/dev/client3/rdock/2013.1/src/exe/rbdock.cxx#4 $)

>  <Rbt.Library>
libRbt.so (2013.1, Build901 2013/11/27)

>  <Rbt.Parameter_File>
/export/apps/rDock/src/rDock_2013.1_src/data/scripts/dock_solv.prm

>  <Rbt.Receptor>
prm/pocket_docking_4.prm

>  <SCORE>
-55.2826

>  <SCORE.INTER>
-46.5613

>  <SCORE.INTER.CONST>
1

>  <SCORE.INTER.POLAR>
-7.07961

>  <SCORE.INTER.ROT>
6

>  <SCORE.INTER.SOLV>
21.4953

>  <SCORE.INTER.VDW>
-22.2073

>  <SCORE.INTER.norm>
-1.45504

>  <SCORE.INTRA>
-8.72123

>  <SCORE.INTRA.DIHEDRAL>
8.49052

>  <SCORE.INTRA.DIHEDRAL.0>
22.9177

>  <SCORE.INTRA.POLAR>
-4.17776

>  <SCORE.INTRA.POLAR.0>
-0.311208

>  <SCORE.INTRA.REPUL>
0

>  <SCORE.INTRA.REPUL.0>
0

>  <SCORE.INTRA.SOLV>
0.711122

>  <SCORE.INTRA.SOLV.lig_0>
-132.657

>  <SCORE.INTRA.VDW>
0.882321

>  <SCORE.INTRA.VDW.0>
-4.68867

>  <SCORE.INTRA.norm>
-0.272538

>  <SCORE.RESTR>
0

>  <SCORE.RESTR.CAVITY>
0

>  <SCORE.RESTR.norm>
0

>  <SCORE.SYSTEM>
0

>  <SCORE.SYSTEM.CONST>
0

>  <SCORE.SYSTEM.DIHEDRAL>
0

>  <SCORE.SYSTEM.SOLV>
0

>  <SCORE.SYSTEM.norm>
0

>  <SCORE.heavy>
32

>  <SCORE.norm>
-1.72758

>  <RMSD>
1.572

$$$$
1tob
 OpenBabel11021811413D
libRbt.so/2013.1/901 2013/11/27
 32 34  0  0  0  0  0  0  0  0999 V2000
   -1.4320    4.8900    3.5307 C   0  0  2  0  0  0  0  0  0  0  0  0
   -0.4333    3.9751    2.8259 C   0  0  1  0  0  0  0  0  0  0  0  0
   -0.2207    2.7144    3.6528 C   0  0  2  0  0  0  0  0  0  0  0  0
    0.2171    3.1007    5.0606 C   0  0  1  0  0  0  0  0  0  0  0  0
   -0.8078    4.0460    5.6812 C   0  0  1  0  0  0  0  0  0  0  0  0
   -0.3896    4.5285    7.0563 C   0  0  0  0  0  0  0  0  0  0  0  0
   -0.9267    3.6269    1.5403 O   0  0  0  0  0  0  0  0  0  0  0  0
    0.7487    1.8065    3.0023 N   0  3  0  0  0  0  0  0  0  0  0  0
    0.3514    1.9330    5.8597 O   0  0  0  0  0  0  0  0  0  0  0  0
   -0.9711    5.2144    4.8485 O   0  0  0  0  0  0  0  0  0  0  0  0
   -0.3853    3.4664    7.9997 O   0  0  0  0  0  0  0  0  0  0  0  0
   -4.6344    3.6700    2.3727 C   0  0  2  0  0  0  0  0  0  0  0  0
   -5.7263    4.2360    1.4752 C   0  0  0  0  0  0  0  0  0  0  0  0
   -6.5055    5.3296    2.2063 C   0  0  1  0  0  0  0  0  0  0  0  0
   -5.5555    6.4537    2.6134 C   0  0  2  0  0  0  0  0  0  0  0  0
   -4.4461    5.9015    3.5099 C   0  0  1  0  0  0  0  0  0  0  0  0
   -3.6900    4.7886    2.7851 C   0  0  1  0  0  0  0  0  0  0  0  0
   -3.8557    2.6342    1.6592 N   0  3  0  0  0  0  0  0  0  0  0  0
   -7.6203    5.8135    1.3511 N   0  3  0  0  0  0  0  0  0  0  0  0
   -3.5484    6.9450    3.8638 O   0  0  0  0  0  0  0  0  0  0  0  0
   -2.6587    4.2621    3.6396 O   0  0  0  0  0  0  0  0  0  0  0  0
   -5.6935    8.7491    3.3033 C   0  0  1  0  0  0  0  0  0  0  0  0
   -6.3222    9.6298    4.3845 C   0  0  1  0  0  0  0  0  0  0  0  0
   -7.7992    9.8488    4.0934 C   0  0  0  0  0  0  0  0  0  0  0  0
   -7.9541   10.4248    2.6953 C   0  0  1  0  0  0  0  0  0  0  0  0
   -7.2833    9.5011    1.6793 C   0  0  1  0  0  0  0  0  0  0  0  0
   -7.3478   10.0441    0.2633 C   0  0  0  0  0  0  0  0  0  0  0  0
   -6.1008    9.0584    5.7339 N   0  3  0  0  0  0  0  0  0  0  0  0
   -6.6036   11.3199    0.1364 N   0  3  0  0  0  0  0  0  0  0  0  0
   -6.2789    7.4900    3.3084 O   0  0  0  0  0  0  0  0  0  0  0  0
   -9.3313   10.5719    2.3811 O   0  0  0  0  0  0  0  0  0  0  0  0
   -5.8875    9.3305    2.0080 O   0  0  0  0  0  0  0  0  0  0  0  0
  1  2  1  0  0  0  0
  1 10  1  0  0  0  0
  1 21  1  1  0  0  0
  2  3  1  0  0  0  0
  2  7  1  6  0  0  0
  3  4  1  0  0  0  0
  3  8  1  6  0  0  0
  4  5  1  0  0  0  0
  4  9  1  1  0  0  0
  5  6  1  1  0  0  0
  5 10  1  0  0  0  0
  6 11  1  0  0  0  0
 12 13  1  0  0  0  0
 12 17  1  0  0  0  0
 12 18  1  6  0  0  0
 13 14  1  0  0  0  0
 14 15  1  0  0  0  0
 14 19  1  6  0  0  0
 15 16  1  0  0  0  0
 15 30  1  1  0  0  0
 16 17  1  0  0  0  0
 16 20  1  6  0  0  0
 17 21  1  1  0  0  0
 22 23  1  0  0  0  0
 22 30  1  6  0  0  0
 22 32  1  0  0  0  0
 23 24  1  0  0  0  0
 23 28  1  1  0  0  0
 24 25  1  0  0  0  0
 25 26  1  0  0  0  0
 25 31  1  6  0  0  0
 26 27  1  6  0  0  0
 26 32  1  0  0  0  0
 27 29  1  0  0  0  0
M  CHG  5   8   1  18   1  19   1  28   1  29   1
M  END
>  <CHROM.1>
-108.36859976,147.55909222,177.21243909,-172.41342203,-67.15786704,-78.86883732
98.62559752,173.47554749,-157.16533282,-178.48067115,147.71477871,-163.53550720
66.87100914,175.99625380,63.42907342,56.64152954,-4.01318740,6.09056163,3.33170679
0.20962161,0.75721749,-2.22670045

>  <Name>
1tob

>  <RI>
0

>  <Rbt.Current_Directory>
/home/itssahil/PROJECTS/Mol_Feturizer/New_Systems/rnas/1tob

>  <Rbt.Executable>
rbdock ($Id: //depot/dev/client3/rdock/2013.1/src/exe/rbdock.cxx#4 $)

>  <Rbt.Library>
libRbt.so (2013.1, Build901 2013/11/27)

>  <Rbt.Parameter_File>
/export/apps/rDock/src/rDock_2013.1_src/data/scripts/dock_solv.prm

>  <Rbt.Receptor>
prm/pocket_docking_6.prm

>  <SCORE>
-49.0349

>  <SCORE.INTER>
-43.1471

>  <SCORE.INTER.CONST>
1

>  <SCORE.INTER.POLAR>
-6.23167

>  <SCORE.INTER.ROT>
6

>  <SCORE.INTER.SOLV>
27.3746

>  <SCORE.INTER.VDW>
-24.7173

>  <SCORE.INTER.norm>
-1.34835

>  <SCORE.INTRA>
-5.98005

>  <SCORE.INTRA.DIHEDRAL>
0.512464

>  <SCORE.INTRA.DIHEDRAL.0>
22.9177

>  <SCORE.INTRA.POLAR>
-1.99272

>  <SCORE.INTRA.POLAR.0>
-0.311208

>  <SCORE.INTRA.REPUL>
0

>  <SCORE.INTRA.REPUL.0>
0

>  <SCORE.INTRA.SOLV>
-2.01575

>  <SCORE.INTRA.SOLV.lig_0>
-132.657

>  <SCORE.INTRA.VDW>
1.54683

>  <SCORE.INTRA.VDW.0>
-4.68867

>  <SCORE.INTRA.norm>
-0.186877

>  <SCORE.RESTR>
0.0922537

>  <SCORE.RESTR.CAVITY>
0.0922537

>  <SCORE.RESTR.norm>
0.00288293

>  <SCORE.SYSTEM>
0

>  <SCORE.SYSTEM.CONST>
0

>  <SCORE.SYSTEM.DIHEDRAL>
0

>  <SCORE.SYSTEM.SOLV>
0

>  <SCORE.SYSTEM.norm>
0

>  <SCORE.heavy>
32

>  <SCORE.norm>
-1.53234

>  <RMSD>
1.581

$$$$
1tob
 OpenBabel11021811413D
libRbt.so/2013.1/901 2013/11/27
 32 34  0  0  0  0  0  0  0  0999 V2000
   -3.6343    5.1873    1.4275 C   0  0  2  0  0  0  0  0  0  0  0  0
   -3.0804    3.8052    1.0897 C   0  0  1  0  0  0  0  0  0  0  0  0
   -3.0364    2.9489    2.3480 C   0  0  2  0  0  0  0  0  0  0  0  0
   -2.2277    3.6679    3.4211 C   0  0  1  0  0  0  0  0  0  0  0  0
   -2.8160    5.0536    3.6722 C   0  0  1  0  0  0  0  0  0  0  0  0
   -2.0075    5.8504    4.6772 C   0  0  0  0  0  0  0  0  0  0  0  0
   -3.9060    3.1828    0.1157 O   0  0  0  0  0  0  0  0  0  0  0  0
   -2.4968    1.6026    2.0588 N   0  3  0  0  0  0  0  0  0  0  0  0
   -2.2389    2.9075    4.6218 O   0  0  0  0  0  0  0  0  0  0  0  0
   -2.8390    5.8115    2.4433 O   0  0  0  0  0  0  0  0  0  0  0  0
   -1.9336    5.1836    5.9294 O   0  0  0  0  0  0  0  0  0  0  0  0
   -7.0368    5.2079    0.7057 C   0  0  2  0  0  0  0  0  0  0  0  0
   -8.0298    6.1770    0.0787 C   0  0  0  0  0  0  0  0  0  0  0  0
   -8.5431    7.1671    1.1244 C   0  0  1  0  0  0  0  0  0  0  0  0
   -7.3712    7.9539    1.7070 C   0  0  2  0  0  0  0  0  0  0  0  0
   -6.3585    6.9951    2.3348 C   0  0  1  0  0  0  0  0  0  0  0  0
   -5.8712    5.9892    1.2925 C   0  0  1  0  0  0  0  0  0  0  0  0
   -6.5116    4.2681   -0.3089 N   0  3  0  0  0  0  0  0  0  0  0  0
   -9.5732    8.0514    0.5202 N   0  3  0  0  0  0  0  0  0  0  0  0
   -5.2561    7.7289    2.8510 O   0  0  0  0  0  0  0  0  0  0  0  0
   -4.9314    5.0799    1.8932 O   0  0  0  0  0  0  0  0  0  0  0  0
   -7.0721   10.0303    2.8744 C   0  0  1  0  0  0  0  0  0  0  0  0
   -7.0069   10.4023    4.3568 C   0  0  1  0  0  0  0  0  0  0  0  0
   -8.3951   10.7454    4.8760 C   0  0  0  0  0  0  0  0  0  0  0  0
   -8.9944   11.8450    4.0145 C   0  0  1  0  0  0  0  0  0  0  0  0
   -9.0038   11.4064    2.5506 C   0  0  1  0  0  0  0  0  0  0  0  0
   -9.5368   12.4818    1.6212 C   0  0  0  0  0  0  0  0  0  0  0  0
   -6.3678    9.3257    5.1498 N   0  3  0  0  0  0  0  0  0  0  0  0
   -9.3924   12.0905    0.1986 N   0  3  0  0  0  0  0  0  0  0  0  0
   -7.8430    8.8889    2.6988 O   0  0  0  0  0  0  0  0  0  0  0  0
  -10.3179   12.1303    4.4434 O   0  0  0  0  0  0  0  0  0  0  0  0
   -7.6625   11.0934    2.1165 O   0  0  0  0  0  0  0  0  0  0  0  0
  1  2  1  0  0  0  0
  1 10  1  0  0  0  0
  1 21  1  1  0  0  0
  2  3  1  0  0  0  0
  2  7  1  6  0  0  0
  3  4  1  0  0  0  0
  3  8  1  6  0  0  0
  4  5  1  0  0  0  0
  4  9  1  1  0  0  0
  5  6  1  1  0  0  0
  5 10  1  0  0  0  0
  6 11  1  0  0  0  0
 12 13  1  0  0  0  0
 12 17  1  0  0  0  0
 12 18  1  6  0  0  0
 13 14  1  0  0  0  0
 14 15  1  0  0  0  0
 14 19  1  6  0  0  0
 15 16  1  0  0  0  0
 15 30  1  1  0  0  0
 16 17  1  0  0  0  0
 16 20  1  6  0  0  0
 17 21  1  1  0  0  0
 22 23  1  0  0  0  0
 22 30  1  1  0  0  0
 22 32  1  0  0  0  0
 23 24  1  0  0  0  0
 23 28  1  1  0  0  0
 24 25  1  0  0  0  0
 25 26  1  0  0  0  0
 25 31  1  1  0  0  0
 26 27  1  6  0  0  0
 26 32  1  0  0  0  0
 27 29  1  0  0  0  0
M  CHG  5   8   1  18   1  19   1  28   1  29   1
M  END
>  <CHROM.1>
-132.14279725,-97.00213405,-134.17118991,-169.21332583,-59.23914025,-178.16571217
80.74082325,69.71230041,-152.25517582,-57.28118481,124.76717391,-141.32131791
2.59566179,-67.22456598,173.56120597,79.23014254,-5.96626653,7.17261998,2.47009186
0.57931786,0.71487940,-2.35764517

>  <Name>
1tob

>  <RI>
0

>  <Rbt.Current_Directory>
/home/itssahil/PROJECTS/Mol_Feturizer/New_Systems/rnas/1tob

>  <Rbt.Executable>
rbdock ($Id: //depot/dev/client3/rdock/2013.1/src/exe/rbdock.cxx#4 $)

>  <Rbt.Library>
libRbt.so (2013.1, Build901 2013/11/27)

>  <Rbt.Parameter_File>
/export/apps/rDock/src/rDock_2013.1_src/data/scripts/dock_solv.prm

>  <Rbt.Receptor>
prm/pocket_docking_2.prm

>  <SCORE>
-55.41

>  <SCORE.INTER>
-59.2824

>  <SCORE.INTER.CONST>
1

>  <SCORE.INTER.POLAR>
-9.84342

>  <SCORE.INTER.ROT>
6

>  <SCORE.INTER.SOLV>
24.2686

>  <SCORE.INTER.VDW>
-22.3997

>  <SCORE.INTER.norm>
-1.85258

>  <SCORE.INTRA>
3.20671

>  <SCORE.INTRA.DIHEDRAL>
13.7356

>  <SCORE.INTRA.DIHEDRAL.0>
22.9177

>  <SCORE.INTRA.POLAR>
-1.73549

>  <SCORE.INTRA.POLAR.0>
-0.311208

>  <SCORE.INTRA.REPUL>
0

>  <SCORE.INTRA.REPUL.0>
0

>  <SCORE.INTRA.SOLV>
0.416035

>  <SCORE.INTRA.SOLV.lig_0>
-132.657

>  <SCORE.INTRA.VDW>
2.03158

>  <SCORE.INTRA.VDW.0>
-4.68867

>  <SCORE.INTRA.norm>
0.10021

>  <SCORE.RESTR>
0.665736

>  <SCORE.RESTR.CAVITY>
0.665736

>  <SCORE.RESTR.norm>
0.0208043

>  <SCORE.SYSTEM>
0

>  <SCORE.SYSTEM.CONST>
0

>  <SCORE.SYSTEM.DIHEDRAL>
0

>  <SCORE.SYSTEM.SOLV>
0

>  <SCORE.SYSTEM.norm>
0

>  <SCORE.heavy>
32

>  <SCORE.norm>
-1.73156

>  <RMSD>
1.617

$$$$
1tob
 OpenBabel11021811413D
libRbt.so/2013.1/901 2013/11/27
 32 34  0  0  0  0  0  0  0  0999 V2000
   -1.9733    5.2579    3.6190 C   0  0  2  0  0  0  0  0  0  0  0  0
   -1.0944    4.6784    2.5132 C   0  0  1  0  0  0  0  0  0  0  0  0
   -0.8291    3.2045    2.7886 C   0  0  2  0  0  0  0  0  0  0  0  0
   -0.2179    3.0512    4.1762 C   0  0  1  0  0  0  0  0  0  0  0  0
   -1.1317    3.6898    5.2186 C   0  0  1  0  0  0  0  0  0  0  0  0
   -0.5406    3.6377    6.6137 C   0  0  0  0  0  0  0  0  0  0  0  0
   -1.7453    4.8215    1.2589 O   0  0  0  0  0  0  0  0  0  0  0  0
    0.0275    2.6112    1.7390 N   0  3  0  0  0  0  0  0  0  0  0  0
   -0.0304    1.6732    4.4694 O   0  0  0  0  0  0  0  0  0  0  0  0
   -1.3518    5.0804    4.8981 O   0  0  0  0  0  0  0  0  0  0  0  0
    0.6836    4.3546    6.6858 O   0  0  0  0  0  0  0  0  0  0  0  0
   -5.0537    3.9764    2.2203 C   0  0  2  0  0  0  0  0  0  0  0  0
   -6.0689    4.5093    1.2185 C   0  0  0  0  0  0  0  0  0  0  0  0
   -6.9171    5.6121    1.8525 C   0  0  1  0  0  0  0  0  0  0  0  0
   -6.0149    6.7554    2.3115 C   0  0  2  0  0  0  0  0  0  0  0  0
   -4.9824    6.2365    3.3134 C   0  0  1  0  0  0  0  0  0  0  0  0
   -4.1575    5.1143    2.6842 C   0  0  1  0  0  0  0  0  0  0  0  0
   -4.2080    2.9318    1.6023 N   0  3  0  0  0  0  0  0  0  0  0  0
   -7.9581    6.0635    0.8931 N   0  3  0  0  0  0  0  0  0  0  0  0
   -4.1271    7.2975    3.7169 O   0  0  0  0  0  0  0  0  0  0  0  0
   -3.1992    4.6194    3.6369 O   0  0  0  0  0  0  0  0  0  0  0  0
   -7.0861    8.8944    2.1082 C   0  0  1  0  0  0  0  0  0  0  0  0
   -6.4215   10.1526    2.6696 C   0  0  1  0  0  0  0  0  0  0  0  0
   -6.9902   10.4820    4.0416 C   0  0  0  0  0  0  0  0  0  0  0  0
   -8.5019   10.6045    3.9409 C   0  0  1  0  0  0  0  0  0  0  0  0
   -9.0858    9.3204    3.3530 C   0  0  1  0  0  0  0  0  0  0  0  0
  -10.5907    9.3932    3.1683 C   0  0  0  0  0  0  0  0  0  0  0  0
   -4.9467   10.0092    2.6996 N   0  3  0  0  0  0  0  0  0  0  0  0
  -11.2998    9.3616    4.4698 N   0  3  0  0  0  0  0  0  0  0  0  0
   -6.8040    7.8006    2.9158 O   0  0  0  0  0  0  0  0  0  0  0  0
   -9.0559   10.8446    5.2263 O   0  0  0  0  0  0  0  0  0  0  0  0
   -8.5084    9.0601    2.0552 O   0  0  0  0  0  0  0  0  0  0  0  0
  1  2  1  0  0  0  0
  1 10  1  0  0  0  0
  1 21  1  1  0  0  0
  2  3  1  0  0  0  0
  2  7  1  6  0  0  0
  3  4  1  0  0  0  0
  3  8  1  6  0  0  0
  4  5  1  0  0  0  0
  4  9  1  1  0  0  0
  5  6  1  1  0  0  0
  5 10  1  0  0  0  0
  6 11  1  0  0  0  0
 12 13  1  0  0  0  0
 12 17  1  0  0  0  0
 12 18  1  6  0  0  0
 13 14  1  0  0  0  0
 14 15  1  0  0  0  0
 14 19  1  6  0  0  0
 15 16  1  0  0  0  0
 15 30  1  1  0  0  0
 16 17  1  0  0  0  0
 16 20  1  6  0  0  0
 17 21  1  1  0  0  0
 22 23  1  0  0  0  0
 22 30  1  1  0  0  0
 22 32  1  0  0  0  0
 23 24  1  0  0  0  0
 23 28  1  1  0  0  0
 24 25  1  0  0  0  0
 25 26  1  0  0  0  0
 25 31  1  1  0  0  0
 26 27  1  6  0  0  0
 26 32  1  0  0  0  0
 27 29  1  0  0  0  0
M  CHG  5   8   1  18   1  19   1  28   1  29   1
M  END
>  <CHROM.1>
-82.47686558,62.51586179,-22.81112656,177.33413047,61.61078042,175.76248955
-150.29116128,-39.50012254,-99.80079237,175.69138664,147.76969486,-115.30390689
89.55444028,66.47158546,-71.09445484,-65.56602908,-4.66986219,6.27663165
3.26603544,-0.39958703,-0.52578227,0.76805949

>  <Name>
1tob

>  <RI>
0

>  <Rbt.Current_Directory>
/home/itssahil/PROJECTS/Mol_Feturizer/New_Systems/rnas/1tob

>  <Rbt.Executable>
rbdock ($Id: //depot/dev/client3/rdock/2013.1/src/exe/rbdock.cxx#4 $)

>  <Rbt.Library>
libRbt.so (2013.1, Build901 2013/11/27)

>  <Rbt.Parameter_File>
/export/apps/rDock/src/rDock_2013.1_src/data/scripts/dock_solv.prm

>  <Rbt.Receptor>
prm/pocket_docking_3.prm

>  <SCORE>
-46.0236

>  <SCORE.INTER>
-38.3704

>  <SCORE.INTER.CONST>
1

>  <SCORE.INTER.POLAR>
-5.52674

>  <SCORE.INTER.ROT>
6

>  <SCORE.INTER.SOLV>
24.1043

>  <SCORE.INTER.VDW>
-22.7926

>  <SCORE.INTER.norm>
-1.19907

>  <SCORE.INTRA>
-7.65319

>  <SCORE.INTRA.DIHEDRAL>
3.71842

>  <SCORE.INTRA.DIHEDRAL.0>
22.9177

>  <SCORE.INTRA.POLAR>
-3.33576

>  <SCORE.INTRA.POLAR.0>
-0.311208

>  <SCORE.INTRA.REPUL>
0

>  <SCORE.INTRA.REPUL.0>
0

>  <SCORE.INTRA.SOLV>
0.978901

>  <SCORE.INTRA.SOLV.lig_0>
-132.657

>  <SCORE.INTRA.VDW>
1.33973

>  <SCORE.INTRA.VDW.0>
-4.68867

>  <SCORE.INTRA.norm>
-0.239162

>  <SCORE.RESTR>
0

>  <SCORE.RESTR.CAVITY>
0

>  <SCORE.RESTR.norm>
0

>  <SCORE.SYSTEM>
0

>  <SCORE.SYSTEM.CONST>
0

>  <SCORE.SYSTEM.DIHEDRAL>
0

>  <SCORE.SYSTEM.SOLV>
0

>  <SCORE.SYSTEM.norm>
0

>  <SCORE.heavy>
32

>  <SCORE.norm>
-1.43824

>  <RMSD>
1.640

$$$$
1tob
 OpenBabel11021811413D
libRbt.so/2013.1/901 2013/11/27
 32 34  0  0  0  0  0  0  0  0999 V2000
   -1.6717    5.4397    3.8142 C   0  0  2  0  0  0  0  0  0  0  0  0
   -0.7220    4.9469    2.7250 C   0  0  1  0  0  0  0  0  0  0  0  0
   -0.3295    3.5021    3.0023 C   0  0  2  0  0  0  0  0  0  0  0  0
    0.2655    3.3991    4.4016 C   0  0  1  0  0  0  0  0  0  0  0  0
   -0.7229    3.9478    5.4268 C   0  0  1  0  0  0  0  0  0  0  0  0
   -0.1573    3.9438    6.8334 C   0  0  0  0  0  0  0  0  0  0  0  0
   -1.3582    5.0355    1.4582 O   0  0  0  0  0  0  0  0  0  0  0  0
    0.5980    2.9932    1.9687 N   0  3  0  0  0  0  0  0  0  0  0  0
    0.5715    2.0426    4.6953 O   0  0  0  0  0  0  0  0  0  0  0  0
   -1.0621    5.3141    5.1052 O   0  0  0  0  0  0  0  0  0  0  0  0
   -0.9516    4.7254    7.7144 O   0  0  0  0  0  0  0  0  0  0  0  0
   -4.4086    3.8246    2.1848 C   0  0  2  0  0  0  0  0  0  0  0  0
   -5.4279    4.2334    1.1302 C   0  0  0  0  0  0  0  0  0  0  0  0
   -6.5245    5.0973    1.7535 C   0  0  1  0  0  0  0  0  0  0  0  0
   -5.9053    6.3508    2.3678 C   0  0  2  0  0  0  0  0  0  0  0  0
   -4.8719    5.9589    3.4250 C   0  0  1  0  0  0  0  0  0  0  0  0
   -3.7945    5.0712    2.8030 C   0  0  1  0  0  0  0  0  0  0  0  0
   -3.3272    3.0157    1.5810 N   0  3  0  0  0  0  0  0  0  0  0  0
   -7.5562    5.4181    0.7333 N   0  3  0  0  0  0  0  0  0  0  0  0
   -4.2778    7.1274    3.9744 O   0  0  0  0  0  0  0  0  0  0  0  0
   -2.8347    4.6925    3.8061 O   0  0  0  0  0  0  0  0  0  0  0  0
   -6.8985    8.5204    2.6326 C   0  0  1  0  0  0  0  0  0  0  0  0
   -7.3060    9.3708    3.8371 C   0  0  1  0  0  0  0  0  0  0  0  0
   -8.7424    9.0669    4.2355 C   0  0  0  0  0  0  0  0  0  0  0  0
   -9.6493    9.2694    3.0326 C   0  0  1  0  0  0  0  0  0  0  0  0
   -9.1643    8.4051    1.8693 C   0  0  1  0  0  0  0  0  0  0  0  0
   -9.9908    8.6007    0.6111 C   0  0  0  0  0  0  0  0  0  0  0  0
   -6.3648    9.1827    4.9663 N   0  3  0  0  0  0  0  0  0  0  0  0
   -9.7346    9.9237   -0.0068 N   0  3  0  0  0  0  0  0  0  0  0  0
   -6.9305    7.1722    2.9633 O   0  0  0  0  0  0  0  0  0  0  0  0
  -10.9853    8.9241    3.3687 O   0  0  0  0  0  0  0  0  0  0  0  0
   -7.7983    8.7371    1.5387 O   0  0  0  0  0  0  0  0  0  0  0  0
  1  2  1  0  0  0  0
  1 10  1  0  0  0  0
  1 21  1  1  0  0  0
  2  3  1  0  0  0  0
  2  7  1  6  0  0  0
  3  4  1  0  0  0  0
  3  8  1  6  0  0  0
  4  5  1  0  0  0  0
  4  9  1  1  0  0  0
  5  6  1  1  0  0  0
  5 10  1  0  0  0  0
  6 11  1  0  0  0  0
 12 13  1  0  0  0  0
 12 17  1  0  0  0  0
 12 18  1  6  0  0  0
 13 14  1  0  0  0  0
 14 15  1  0  0  0  0
 14 19  1  6  0  0  0
 15 16  1  0  0  0  0
 15 30  1  1  0  0  0
 16 17  1  0  0  0  0
 16 20  1  6  0  0  0
 17 21  1  1  0  0  0
 22 23  1  0  0  0  0
 22 30  1  1  0  0  0
 22 32  1  0  0  0  0
 23 24  1  0  0  0  0
 23 28  1  1  0  0  0
 24 25  1  0  0  0  0
 25 26  1  0  0  0  0
 25 31  1  1  0  0  0
 26 27  1  6  0  0  0
 26 32  1  0  0  0  0
 27 29  1  0  0  0  0
M  CHG  5   8   1  18   1  19   1  28   1  29   1
M  END
>  <CHROM.1>
-80.30654277,61.23782951,-41.28100934,-59.39123305,166.64097377,83.68310135
-37.79061564,-60.31549786,-131.52159085,179.40932534,138.86878578,-143.66794713
-22.55129833,-59.01592533,71.40788194,48.41763173,-4.61462607,6.03379396
3.12236518,-0.05520343,-0.56348315,1.07722364

>  <Name>
1tob

>  <RI>
0

>  <Rbt.Current_Directory>
/home/itssahil/PROJECTS/Mol_Feturizer/New_Systems/rnas/1tob

>  <Rbt.Executable>
rbdock ($Id: //depot/dev/client3/rdock/2013.1/src/exe/rbdock.cxx#4 $)

>  <Rbt.Library>
libRbt.so (2013.1, Build901 2013/11/27)

>  <Rbt.Parameter_File>
/export/apps/rDock/src/rDock_2013.1_src/data/scripts/dock_solv.prm

>  <Rbt.Receptor>
prm/pocket_docking_4.prm

>  <SCORE>
-45.6671

>  <SCORE.INTER>
-41.45

>  <SCORE.INTER.CONST>
1

>  <SCORE.INTER.POLAR>
-5.70204

>  <SCORE.INTER.ROT>
6

>  <SCORE.INTER.SOLV>
23.7407

>  <SCORE.INTER.VDW>
-24.1401

>  <SCORE.INTER.norm>
-1.29531

>  <SCORE.INTRA>
-4.21712

>  <SCORE.INTRA.DIHEDRAL>
4.12436

>  <SCORE.INTRA.DIHEDRAL.0>
22.9177

>  <SCORE.INTRA.POLAR>
-1.96564

>  <SCORE.INTRA.POLAR.0>
-0.311208

>  <SCORE.INTRA.REPUL>
0

>  <SCORE.INTRA.REPUL.0>
0

>  <SCORE.INTRA.SOLV>
1.64162

>  <SCORE.INTRA.SOLV.lig_0>
-132.657

>  <SCORE.INTRA.VDW>
-0.416932

>  <SCORE.INTRA.VDW.0>
-4.68867

>  <SCORE.INTRA.norm>
-0.131785

>  <SCORE.RESTR>
0

>  <SCORE.RESTR.CAVITY>
0

>  <SCORE.RESTR.norm>
0

>  <SCORE.SYSTEM>
0

>  <SCORE.SYSTEM.CONST>
0

>  <SCORE.SYSTEM.DIHEDRAL>
0

>  <SCORE.SYSTEM.SOLV>
0

>  <SCORE.SYSTEM.norm>
0

>  <SCORE.heavy>
32

>  <SCORE.norm>
-1.4271

>  <RMSD>
1.661

$$$$
1tob
 OpenBabel11021811413D
libRbt.so/2013.1/901 2013/11/27
 32 34  0  0  0  0  0  0  0  0999 V2000
   -1.5442    4.8901    3.8793 C   0  0  2  0  0  0  0  0  0  0  0  0
   -0.5086    4.2078    2.9887 C   0  0  1  0  0  0  0  0  0  0  0  0
   -0.3449    2.7547    3.4132 C   0  0  2  0  0  0  0  0  0  0  0  0
    0.0132    2.6975    4.8934 C   0  0  1  0  0  0  0  0  0  0  0  0
   -1.0438    3.4344    5.7114 C   0  0  1  0  0  0  0  0  0  0  0  0
   -0.7033    3.4790    7.1881 C   0  0  0  0  0  0  0  0  0  0  0  0
   -0.9291    4.2661    1.6332 O   0  0  0  0  0  0  0  0  0  0  0  0
    0.6584    2.0635    2.5749 N   0  3  0  0  0  0  0  0  0  0  0  0
    0.1004    1.3429    5.3149 O   0  0  0  0  0  0  0  0  0  0  0  0
   -1.1581    4.8001    5.2565 O   0  0  0  0  0  0  0  0  0  0  0  0
    0.1696    4.5591    7.4870 O   0  0  0  0  0  0  0  0  0  0  0  0
   -4.3895    3.5900    2.0636 C   0  0  2  0  0  0  0  0  0  0  0  0
   -5.2089    4.0811    0.8780 C   0  0  0  0  0  0  0  0  0  0  0  0
   -6.1166    5.2375    1.2980 C   0  0  1  0  0  0  0  0  0  0  0  0
   -5.2686    6.3883    1.8352 C   0  0  2  0  0  0  0  0  0  0  0  0
   -4.4318    5.9108    3.0230 C   0  0  1  0  0  0  0  0  0  0  0  0
   -3.5484    4.7358    2.6048 C   0  0  1  0  0  0  0  0  0  0  0  0
   -3.4851    2.4927    1.6556 N   0  3  0  0  0  0  0  0  0  0  0  0
   -6.9708    5.6505    0.1544 N   0  3  0  0  0  0  0  0  0  0  0  0
   -3.6233    6.9769    3.5024 O   0  0  0  0  0  0  0  0  0  0  0  0
   -2.7760    4.2807    3.7305 O   0  0  0  0  0  0  0  0  0  0  0  0
   -5.4892    8.7154    2.3823 C   0  0  1  0  0  0  0  0  0  0  0  0
   -5.9382    9.3899    3.6798 C   0  0  1  0  0  0  0  0  0  0  0  0
   -7.4315    9.6768    3.6357 C   0  0  0  0  0  0  0  0  0  0  0  0
   -7.7466   10.5020    2.3987 C   0  0  1  0  0  0  0  0  0  0  0  0
   -7.2488    9.7728    1.1512 C   0  0  1  0  0  0  0  0  0  0  0  0
   -7.4779   10.5678   -0.1214 C   0  0  0  0  0  0  0  0  0  0  0  0
   -5.5635    8.5773    4.8613 N   0  3  0  0  0  0  0  0  0  0  0  0
   -8.7511   10.1866   -0.7782 N   0  3  0  0  0  0  0  0  0  0  0  0
   -6.1149    7.4842    2.2392 O   0  0  0  0  0  0  0  0  0  0  0  0
   -9.1466   10.7213    2.3054 O   0  0  0  0  0  0  0  0  0  0  0  0
   -5.8293    9.5275    1.2518 O   0  0  0  0  0  0  0  0  0  0  0  0
  1  2  1  0  0  0  0
  1 10  1  0  0  0  0
  1 21  1  1  0  0  0
  2  3  1  0  0  0  0
  2  7  1  6  0  0  0
  3  4  1  0  0  0  0
  3  8  1  6  0  0  0
  4  5  1  0  0  0  0
  4  9  1  1  0  0  0
  5  6  1  1  0  0  0
  5 10  1  0  0  0  0
  6 11  1  0  0  0  0
 12 13  1  0  0  0  0
 12 17  1  0  0  0  0
 12 18  1  6  0  0  0
 13 14  1  0  0  0  0
 14 15  1  0  0  0  0
 14 19  1  6  0  0  0
 15 16  1  0  0  0  0
 15 30  1  1  0  0  0
 16 17  1  0  0  0  0
 16 20  1  6  0  0  0
 17 21  1  1  0  0  0
 22 23  1  0  0  0  0
 22 30  1  6  0  0  0
 22 32  1  0  0  0  0
 23 24  1  0  0  0  0
 23 28  1  1  0  0  0
 24 25  1  0  0  0  0
 25 26  1  0  0  0  0
 25 31  1  6  0  0  0
 26 27  1  6  0  0  0
 26 32  1  0  0  0  0
 27 29  1  0  0  0  0
M  CHG  5   8   1  18   1  19   1  28   1  29   1
M  END
>  <CHROM.1>
-83.47473063,169.34818939,-172.08008816,-52.36636152,84.35229092,50.04626990
104.26045333,-63.45142264,-162.25160497,178.42399014,147.64516232,-134.69232891
152.86747806,168.01528310,-94.23304895,-165.52728211,-3.98475628,6.01817424
2.93272529,-0.18128634,-0.78093550,0.86982742

>  <Name>
1tob

>  <RI>
0

>  <Rbt.Current_Directory>
/home/itssahil/PROJECTS/Mol_Feturizer/New_Systems/rnas/1tob

>  <Rbt.Executable>
rbdock ($Id: //depot/dev/client3/rdock/2013.1/src/exe/rbdock.cxx#4 $)

>  <Rbt.Library>
libRbt.so (2013.1, Build901 2013/11/27)

>  <Rbt.Parameter_File>
/export/apps/rDock/src/rDock_2013.1_src/data/scripts/dock_solv.prm

>  <Rbt.Receptor>
prm/pocket_docking_5.prm

>  <SCORE>
-38.8425

>  <SCORE.INTER>
-36.7628

>  <SCORE.INTER.CONST>
1

>  <SCORE.INTER.POLAR>
-5.24074

>  <SCORE.INTER.ROT>
6

>  <SCORE.INTER.SOLV>
22.2237

>  <SCORE.INTER.VDW>
-22.0473

>  <SCORE.INTER.norm>
-1.14884

>  <SCORE.INTRA>
-2.07972

>  <SCORE.INTRA.DIHEDRAL>
3.65784

>  <SCORE.INTRA.DIHEDRAL.0>
22.9177

>  <SCORE.INTRA.POLAR>
-1.66765

>  <SCORE.INTRA.POLAR.0>
-0.311208

>  <SCORE.INTRA.REPUL>
0

>  <SCORE.INTRA.REPUL.0>
0

>  <SCORE.INTRA.SOLV>
-0.284994

>  <SCORE.INTRA.SOLV.lig_0>
-132.657

>  <SCORE.INTRA.VDW>
1.90387

>  <SCORE.INTRA.VDW.0>
-4.68867

>  <SCORE.INTRA.norm>
-0.0649914

>  <SCORE.RESTR>
0

>  <SCORE.RESTR.CAVITY>
0

>  <SCORE.RESTR.norm>
0

>  <SCORE.SYSTEM>
0

>  <SCORE.SYSTEM.CONST>
0

>  <SCORE.SYSTEM.DIHEDRAL>
0

>  <SCORE.SYSTEM.SOLV>
0

>  <SCORE.SYSTEM.norm>
0

>  <SCORE.heavy>
32

>  <SCORE.norm>
-1.21383

>  <RMSD>
1.686

$$$$
1tob
 OpenBabel11021811413D
libRbt.so/2013.1/901 2013/11/27
 32 34  0  0  0  0  0  0  0  0999 V2000
   -1.9409    4.1649    1.9477 C   0  0  2  0  0  0  0  0  0  0  0  0
   -1.1564    2.8730    1.7318 C   0  0  1  0  0  0  0  0  0  0  0  0
   -1.3341    1.9580    2.9358 C   0  0  2  0  0  0  0  0  0  0  0  0
   -0.9211    2.7005    4.2009 C   0  0  1  0  0  0  0  0  0  0  0  0
   -1.7167    3.9970    4.3242 C   0  0  1  0  0  0  0  0  0  0  0  0
   -1.2957    4.8206    5.5255 C   0  0  0  0  0  0  0  0  0  0  0  0
   -1.6227    2.2190    0.5604 O   0  0  0  0  0  0  0  0  0  0  0  0
   -0.5801    0.6973    2.7640 N   0  3  0  0  0  0  0  0  0  0  0  0
   -1.1486    1.8777    5.3373 O   0  0  0  0  0  0  0  0  0  0  0  0
   -1.5144    4.8151    3.1516 O   0  0  0  0  0  0  0  0  0  0  0  0
    0.1185    4.9163    5.6192 O   0  0  0  0  0  0  0  0  0  0  0  0
   -5.3463    4.1379    0.7999 C   0  0  2  0  0  0  0  0  0  0  0  0
   -6.2639    5.1625    0.1470 C   0  0  0  0  0  0  0  0  0  0  0  0
   -6.7571    6.1742    1.1817 C   0  0  1  0  0  0  0  0  0  0  0  0
   -5.5642    6.8933    1.8075 C   0  0  2  0  0  0  0  0  0  0  0  0
   -4.6262    5.8778    2.4619 C   0  0  1  0  0  0  0  0  0  0  0  0
   -4.1600    4.8518    1.4296 C   0  0  1  0  0  0  0  0  0  0  0  0
   -4.8395    3.1757   -0.2030 N   0  3  0  0  0  0  0  0  0  0  0  0
   -7.7172    7.1161    0.5498 N   0  3  0  0  0  0  0  0  0  0  0  0
   -3.5034    6.5481    3.0188 O   0  0  0  0  0  0  0  0  0  0  0  0
   -3.2914    3.8899    2.0549 O   0  0  0  0  0  0  0  0  0  0  0  0
   -5.0317    8.6288    3.3787 C   0  0  1  0  0  0  0  0  0  0  0  0
   -5.2154    8.6563    4.8971 C   0  0  1  0  0  0  0  0  0  0  0  0
   -6.5425    9.3078    5.2560 C   0  0  0  0  0  0  0  0  0  0  0  0
   -6.6089   10.6893    4.6256 C   0  0  1  0  0  0  0  0  0  0  0  0
   -6.3950   10.5788    3.1164 C   0  0  1  0  0  0  0  0  0  0  0  0
   -6.3902   11.9305    2.4258 C   0  0  0  0  0  0  0  0  0  0  0  0
   -5.0897    7.2972    5.4747 N   0  3  0  0  0  0  0  0  0  0  0  0
   -6.2496   11.7893    0.9568 N   0  3  0  0  0  0  0  0  0  0  0  0
   -6.0171    7.8479    2.7894 O   0  0  0  0  0  0  0  0  0  0  0  0
   -7.8699   11.2849    4.8940 O   0  0  0  0  0  0  0  0  0  0  0  0
   -5.1236    9.9529    2.8388 O   0  0  0  0  0  0  0  0  0  0  0  0
  1  2  1  0  0  0  0
  1 10  1  0  0  0  0
  1 21  1  1  0  0  0
  2  3  1  0  0  0  0
  2  7  1  6  0  0  0
  3  4  1  0  0  0  0
  3  8  1  6  0  0  0
  4  5  1  0  0  0  0
  4  9  1  1  0  0  0
  5  6  1  1  0  0  0
  5 10  1  0  0  0  0
  6 11  1  0  0  0  0
 12 13  1  0  0  0  0
 12 17  1  0  0  0  0
 12 18  1  6  0  0  0
 13 14  1  0  0  0  0
 14 15  1  0  0  0  0
 14 19  1  6  0  0  0
 15 16  1  0  0  0  0
 15 30  1  1  0  0  0
 16 17  1  0  0  0  0
 16 20  1  6  0  0  0
 17 21  1  1  0  0  0
 22 23  1  0  0  0  0
 22 30  1  6  0  0  0
 22 32  1  0  0  0  0
 23 24  1  0  0  0  0
 23 28  1  6  0  0  0
 24 25  1  0  0  0  0
 25 26  1  0  0  0  0
 25 31  1  6  0  0  0
 26 27  1  6  0  0  0
 26 32  1  0  0  0  0
 27 29  1  0  0  0  0
M  CHG  5   8   1  18   1  19   1  28   1  29   1
M  END
>  <CHROM.1>
-141.81057959,-61.00257159,64.49838982,174.23111140,46.22511450,-62.87111946
-35.10279451,-59.64982096,-176.31618080,-175.47005312,142.92396885,-132.85949646
-73.82057083,56.40611497,-177.13503095,64.10442525,-4.09770030,6.13080354
2.87808383,0.63699696,0.78344962,-2.36650826

>  <Name>
1tob

>  <RI>
0

>  <Rbt.Current_Directory>
/home/itssahil/PROJECTS/Mol_Feturizer/New_Systems/rnas/1tob

>  <Rbt.Executable>
rbdock ($Id: //depot/dev/client3/rdock/2013.1/src/exe/rbdock.cxx#4 $)

>  <Rbt.Library>
libRbt.so (2013.1, Build901 2013/11/27)

>  <Rbt.Parameter_File>
/export/apps/rDock/src/rDock_2013.1_src/data/scripts/dock_solv.prm

>  <Rbt.Receptor>
prm/pocket_docking_4.prm

>  <SCORE>
-33.2941

>  <SCORE.INTER>
-31.0864

>  <SCORE.INTER.CONST>
1

>  <SCORE.INTER.POLAR>
-4.53758

>  <SCORE.INTER.ROT>
6

>  <SCORE.INTER.SOLV>
32.6598

>  <SCORE.INTER.VDW>
-24.0856

>  <SCORE.INTER.norm>
-0.971451

>  <SCORE.INTRA>
-2.20771

>  <SCORE.INTRA.DIHEDRAL>
-3.27715

>  <SCORE.INTRA.DIHEDRAL.0>
22.9177

>  <SCORE.INTRA.POLAR>
-0.616883

>  <SCORE.INTRA.POLAR.0>
-0.311208

>  <SCORE.INTRA.REPUL>
0

>  <SCORE.INTRA.REPUL.0>
0

>  <SCORE.INTRA.SOLV>
-3.22081

>  <SCORE.INTRA.SOLV.lig_0>
-132.657

>  <SCORE.INTRA.VDW>
3.13867

>  <SCORE.INTRA.VDW.0>
-4.68867

>  <SCORE.INTRA.norm>
-0.0689909

>  <SCORE.RESTR>
0

>  <SCORE.RESTR.CAVITY>
0

>  <SCORE.RESTR.norm>
0

>  <SCORE.SYSTEM>
0

>  <SCORE.SYSTEM.CONST>
0

>  <SCORE.SYSTEM.DIHEDRAL>
0

>  <SCORE.SYSTEM.SOLV>
0

>  <SCORE.SYSTEM.norm>
0

>  <SCORE.heavy>
32

>  <SCORE.norm>
-1.04044

>  <RMSD>
1.687

$$$$
1tob
 OpenBabel11021811413D
libRbt.so/2013.1/901 2013/11/27
 32 34  0  0  0  0  0  0  0  0999 V2000
   -3.3769    5.2081    1.1729 C   0  0  2  0  0  0  0  0  0  0  0  0
   -2.4758    3.9763    1.2174 C   0  0  1  0  0  0  0  0  0  0  0  0
   -2.2887    3.5298    2.6610 C   0  0  2  0  0  0  0  0  0  0  0  0
   -1.7477    4.6927    3.4841 C   0  0  1  0  0  0  0  0  0  0  0  0
   -2.6780    5.8958    3.3557 C   0  0  1  0  0  0  0  0  0  0  0  0
   -2.1528    7.1126    4.0920 C   0  0  0  0  0  0  0  0  0  0  0  0
   -3.0630    2.9254    0.4635 O   0  0  0  0  0  0  0  0  0  0  0  0
   -1.4133    2.3406    2.7427 N   0  3  0  0  0  0  0  0  0  0  0  0
   -1.6348    4.3057    4.8470 O   0  0  0  0  0  0  0  0  0  0  0  0
   -2.8217    6.2641    1.9669 O   0  0  0  0  0  0  0  0  0  0  0  0
   -2.4243    8.3093    3.3763 O   0  0  0  0  0  0  0  0  0  0  0  0
   -6.8644    4.9621    0.7425 C   0  0  2  0  0  0  0  0  0  0  0  0
   -7.9802    5.9004    0.3032 C   0  0  0  0  0  0  0  0  0  0  0  0
   -8.4239    6.7855    1.4682 C   0  0  1  0  0  0  0  0  0  0  0  0
   -7.2398    7.6104    1.9676 C   0  0  2  0  0  0  0  0  0  0  0  0
   -6.1049    6.6836    2.4062 C   0  0  1  0  0  0  0  0  0  0  0  0
   -5.6858    5.7809    1.2464 C   0  0  1  0  0  0  0  0  0  0  0  0
   -6.4083    4.1260   -0.3894 N   0  3  0  0  0  0  0  0  0  0  0  0
   -9.5687    7.6354    1.0497 N   0  3  0  0  0  0  0  0  0  0  0  0
   -4.9946    7.4553    2.8440 O   0  0  0  0  0  0  0  0  0  0  0  0
   -4.6294    4.9003    1.6700 O   0  0  0  0  0  0  0  0  0  0  0  0
   -7.0524    9.7007    3.1335 C   0  0  1  0  0  0  0  0  0  0  0  0
   -7.1678   10.2706    4.5483 C   0  0  1  0  0  0  0  0  0  0  0  0
   -8.6296   10.4749    4.9170 C   0  0  0  0  0  0  0  0  0  0  0  0
   -9.2927   11.3529    3.8683 C   0  0  1  0  0  0  0  0  0  0  0  0
   -9.1149   10.7282    2.4849 C   0  0  1  0  0  0  0  0  0  0  0  0
   -9.7034   11.5829    1.3772 C   0  0  0  0  0  0  0  0  0  0  0  0
   -6.4625    9.4119    5.5289 N   0  3  0  0  0  0  0  0  0  0  0  0
   -8.9061   12.8135    1.1589 N   0  3  0  0  0  0  0  0  0  0  0  0
   -7.6454    8.4468    3.0706 O   0  0  0  0  0  0  0  0  0  0  0  0
  -10.6749   11.4978    4.1605 O   0  0  0  0  0  0  0  0  0  0  0  0
   -7.7110   10.5579    2.1928 O   0  0  0  0  0  0  0  0  0  0  0  0
  1  2  1  0  0  0  0
  1 10  1  0  0  0  0
  1 21  1  1  0  0  0
  2  3  1  0  0  0  0
  2  7  1  6  0  0  0
  3  4  1  0  0  0  0
  3  8  1  6  0  0  0
  4  5  1  0  0  0  0
  4  9  1  1  0  0  0
  5  6  1  1  0  0  0
  5 10  1  0  0  0  0
  6 11  1  0  0  0  0
 12 13  1  0  0  0  0
 12 17  1  0  0  0  0
 12 18  1  6  0  0  0
 13 14  1  0  0  0  0
 14 15  1  0  0  0  0
 14 19  1  6  0  0  0
 15 16  1  0  0  0  0
 15 30  1  1  0  0  0
 16 17  1  0  0  0  0
 16 20  1  6  0  0  0
 17 21  1  1  0  0  0
 22 23  1  0  0  0  0
 22 30  1  1  0  0  0
 22 32  1  0  0  0  0
 23 24  1  0  0  0  0
 23 28  1  1  0  0  0
 24 25  1  0  0  0  0
 25 26  1  0  0  0  0
 25 31  1  1  0  0  0
 26 27  1  6  0  0  0
 26 32  1  0  0  0  0
 27 29  1  0  0  0  0
M  CHG  5   8   1  18   1  19   1  28   1  29   1
M  END
>  <CHROM.1>
-158.18658438,-64.76985985,174.47477721,178.38066820,142.60299959,48.06451613
-155.17520310,-57.41585438,-144.00208010,61.93782783,131.05461002,-160.07426590
-166.45424894,60.45872934,70.63649368,49.46991881,-5.81019947,7.29233468
2.48162510,0.64374626,0.51199211,-2.47623894

>  <Name>
1tob

>  <RI>
0

>  <Rbt.Current_Directory>
/home/itssahil/PROJECTS/Mol_Feturizer/New_Systems/rnas/1tob

>  <Rbt.Executable>
rbdock ($Id: //depot/dev/client3/rdock/2013.1/src/exe/rbdock.cxx#4 $)

>  <Rbt.Library>
libRbt.so (2013.1, Build901 2013/11/27)

>  <Rbt.Parameter_File>
/export/apps/rDock/src/rDock_2013.1_src/data/scripts/dock_solv.prm

>  <Rbt.Receptor>
prm/pocket_docking_2.prm

>  <SCORE>
-38.6223

>  <SCORE.INTER>
-36.5001

>  <SCORE.INTER.CONST>
1

>  <SCORE.INTER.POLAR>
-5.81165

>  <SCORE.INTER.ROT>
6

>  <SCORE.INTER.SOLV>
21.0435

>  <SCORE.INTER.VDW>
-19.5758

>  <SCORE.INTER.norm>
-1.14063

>  <SCORE.INTRA>
-3.06225

>  <SCORE.INTRA.DIHEDRAL>
-0.566659

>  <SCORE.INTRA.DIHEDRAL.0>
22.9177

>  <SCORE.INTRA.POLAR>
-0.742462

>  <SCORE.INTRA.POLAR.0>
-0.311208

>  <SCORE.INTRA.REPUL>
0

>  <SCORE.INTRA.REPUL.0>
0

>  <SCORE.INTRA.SOLV>
-0.79617

>  <SCORE.INTRA.SOLV.lig_0>
-132.657

>  <SCORE.INTRA.VDW>
0.143534

>  <SCORE.INTRA.VDW.0>
-4.68867

>  <SCORE.INTRA.norm>
-0.0956953

>  <SCORE.RESTR>
0.940066

>  <SCORE.RESTR.CAVITY>
0.940066

>  <SCORE.RESTR.norm>
0.0293771

>  <SCORE.SYSTEM>
0

>  <SCORE.SYSTEM.CONST>
0

>  <SCORE.SYSTEM.DIHEDRAL>
0

>  <SCORE.SYSTEM.SOLV>
0

>  <SCORE.SYSTEM.norm>
0

>  <SCORE.heavy>
32

>  <SCORE.norm>
-1.20695

>  <RMSD>
1.826

$$$$
1tob
 OpenBabel11021811413D
libRbt.so/2013.1/901 2013/11/27
 32 34  0  0  0  0  0  0  0  0999 V2000
   -2.0926    5.3429    3.8897 C   0  0  2  0  0  0  0  0  0  0  0  0
   -0.9596    5.1237    2.8900 C   0  0  1  0  0  0  0  0  0  0  0  0
   -0.4405    3.6972    3.0081 C   0  0  2  0  0  0  0  0  0  0  0  0
   -0.0228    3.4285    4.4489 C   0  0  1  0  0  0  0  0  0  0  0  0
   -1.1923    3.7091    5.3885 C   0  0  1  0  0  0  0  0  0  0  0  0
   -0.8160    3.5336    6.8467 C   0  0  0  0  0  0  0  0  0  0  0  0
   -1.4333    5.3532    1.5707 O   0  0  0  0  0  0  0  0  0  0  0  0
    0.6654    3.4512    2.0573 N   0  3  0  0  0  0  0  0  0  0  0  0
    0.3987    2.0778    4.5834 O   0  0  0  0  0  0  0  0  0  0  0  0
   -1.6440    5.0706    5.2234 O   0  0  0  0  0  0  0  0  0  0  0  0
    0.0793    4.5489    7.2774 O   0  0  0  0  0  0  0  0  0  0  0  0
   -4.8569    3.8692    2.0078 C   0  0  2  0  0  0  0  0  0  0  0  0
   -5.8708    4.4268    1.0182 C   0  0  0  0  0  0  0  0  0  0  0  0
   -6.8575    5.3535    1.7290 C   0  0  1  0  0  0  0  0  0  0  0  0
   -6.1006    6.5093    2.3794 C   0  0  2  0  0  0  0  0  0  0  0  0
   -5.0709    5.9672    3.3719 C   0  0  1  0  0  0  0  0  0  0  0  0
   -4.1056    5.0186    2.6619 C   0  0  1  0  0  0  0  0  0  0  0  0
   -3.8794    2.9977    1.3198 N   0  3  0  0  0  0  0  0  0  0  0  0
   -7.8908    5.8228    0.7698 N   0  3  0  0  0  0  0  0  0  0  0  0
   -4.3495    7.0444    3.9543 O   0  0  0  0  0  0  0  0  0  0  0  0
   -3.1498    4.4993    3.6041 O   0  0  0  0  0  0  0  0  0  0  0  0
   -7.6355    8.3520    2.2685 C   0  0  1  0  0  0  0  0  0  0  0  0
   -6.7391    9.5853    2.1445 C   0  0  1  0  0  0  0  0  0  0  0  0
   -6.5311   10.2254    3.5088 C   0  0  0  0  0  0  0  0  0  0  0  0
   -7.8842   10.5358    4.1278 C   0  0  1  0  0  0  0  0  0  0  0  0
   -8.7251    9.2615    4.1961 C   0  0  1  0  0  0  0  0  0  0  0  0
  -10.1160    9.5077    4.7517 C   0  0  0  0  0  0  0  0  0  0  0  0
   -5.4541    9.2474    1.4879 N   0  3  0  0  0  0  0  0  0  0  0  0
  -10.9032   10.4014    3.8689 N   0  3  0  0  0  0  0  0  0  0  0  0
   -7.0212    7.3886    3.0574 O   0  0  0  0  0  0  0  0  0  0  0  0
   -7.7098   11.0716    5.4314 O   0  0  0  0  0  0  0  0  0  0  0  0
   -8.8860    8.7005    2.8752 O   0  0  0  0  0  0  0  0  0  0  0  0
  1  2  1  0  0  0  0
  1 10  1  0  0  0  0
  1 21  1  6  0  0  0
  2  3  1  0  0  0  0
  2  7  1  6  0  0  0
  3  4  1  0  0  0  0
  3  8  1  6  0  0  0
  4  5  1  0  0  0  0
  4  9  1  6  0  0  0
  5  6  1  1  0  0  0
  5 10  1  0  0  0  0
  6 11  1  0  0  0  0
 12 13  1  0  0  0  0
 12 17  1  0  0  0  0
 12 18  1  6  0  0  0
 13 14  1  0  0  0  0
 14 15  1  0  0  0  0
 14 19  1  6  0  0  0
 15 16  1  0  0  0  0
 15 30  1  1  0  0  0
 16 17  1  0  0  0  0
 16 20  1  6  0  0  0
 17 21  1  1  0  0  0
 22 23  1  0  0  0  0
 22 30  1  1  0  0  0
 22 32  1  0  0  0  0
 23 24  1  0  0  0  0
 23 28  1  1  0  0  0
 24 25  1  0  0  0  0
 25 26  1  0  0  0  0
 25 31  1  1  0  0  0
 26 27  1  6  0  0  0
 26 32  1  0  0  0  0
 27 29  1  0  0  0  0
M  CHG  5   8   1  18   1  19   1  28   1  29   1
M  END
>  <CHROM.1>
-87.99388492,65.16921224,67.32077957,178.18204480,69.32691444,54.42962821
-179.50040541,49.92954979,-84.05343103,-66.48142217,156.99011147,-85.07581452
172.05643575,-77.05958229,63.85958932,174.36063750,-4.57495198,6.29006684
3.36366852,-0.29631216,-0.56587565,0.92425851

>  <Name>
1tob

>  <RI>
0

>  <Rbt.Current_Directory>
/home/itssahil/PROJECTS/Mol_Feturizer/New_Systems/rnas/1tob

>  <Rbt.Executable>
rbdock ($Id: //depot/dev/client3/rdock/2013.1/src/exe/rbdock.cxx#4 $)

>  <Rbt.Library>
libRbt.so (2013.1, Build901 2013/11/27)

>  <Rbt.Parameter_File>
/export/apps/rDock/src/rDock_2013.1_src/data/scripts/dock_solv.prm

>  <Rbt.Receptor>
prm/pocket_docking_5.prm

>  <SCORE>
-40.1147

>  <SCORE.INTER>
-37.1295

>  <SCORE.INTER.CONST>
1

>  <SCORE.INTER.POLAR>
-4.85525

>  <SCORE.INTER.ROT>
6

>  <SCORE.INTER.SOLV>
20.988

>  <SCORE.INTER.VDW>
-23.1648

>  <SCORE.INTER.norm>
-1.1603

>  <SCORE.INTRA>
-2.98521

>  <SCORE.INTRA.DIHEDRAL>
-9.27531

>  <SCORE.INTRA.DIHEDRAL.0>
22.9177

>  <SCORE.INTRA.POLAR>
0.2807

>  <SCORE.INTRA.POLAR.0>
-0.311208

>  <SCORE.INTRA.REPUL>
0

>  <SCORE.INTRA.REPUL.0>
0

>  <SCORE.INTRA.SOLV>
0.449238

>  <SCORE.INTRA.SOLV.lig_0>
-132.657

>  <SCORE.INTRA.VDW>
0.47345

>  <SCORE.INTRA.VDW.0>
-4.68867

>  <SCORE.INTRA.norm>
-0.0932877

>  <SCORE.RESTR>
0

>  <SCORE.RESTR.CAVITY>
0

>  <SCORE.RESTR.norm>
0

>  <SCORE.SYSTEM>
0

>  <SCORE.SYSTEM.CONST>
0

>  <SCORE.SYSTEM.DIHEDRAL>
0

>  <SCORE.SYSTEM.SOLV>
0

>  <SCORE.SYSTEM.norm>
0

>  <SCORE.heavy>
32

>  <SCORE.norm>
-1.25358

>  <RMSD>
1.927

$$$$
1tob
 OpenBabel11021811413D
libRbt.so/2013.1/901 2013/11/27
 32 34  0  0  0  0  0  0  0  0999 V2000
   -1.2859    4.4054    2.6837 C   0  0  2  0  0  0  0  0  0  0  0  0
   -0.4690    3.1943    2.2398 C   0  0  1  0  0  0  0  0  0  0  0  0
   -0.6385    2.0646    3.2465 C   0  0  2  0  0  0  0  0  0  0  0  0
   -0.2567    2.5630    4.6351 C   0  0  1  0  0  0  0  0  0  0  0  0
   -1.0837    3.7959    4.9890 C   0  0  1  0  0  0  0  0  0  0  0  0
   -0.6951    4.3861    6.3303 C   0  0  0  0  0  0  0  0  0  0  0  0
   -0.9072    2.7639    0.9590 O   0  0  0  0  0  0  0  0  0  0  0  0
    0.1466    0.8752    2.8512 N   0  3  0  0  0  0  0  0  0  0  0  0
   -0.4772    1.5357    5.5922 O   0  0  0  0  0  0  0  0  0  0  0  0
   -0.8878    4.8250    3.9950 O   0  0  0  0  0  0  0  0  0  0  0  0
    0.7090    4.5798    6.4249 O   0  0  0  0  0  0  0  0  0  0  0  0
   -4.5778    4.1771    1.2816 C   0  0  2  0  0  0  0  0  0  0  0  0
   -5.4816    5.1252    0.5055 C   0  0  0  0  0  0  0  0  0  0  0  0
   -6.1093    6.1547    1.4456 C   0  0  1  0  0  0  0  0  0  0  0  0
   -5.0098    6.9590    2.1356 C   0  0  2  0  0  0  0  0  0  0  0  0
   -4.0864    6.0211    2.9145 C   0  0  1  0  0  0  0  0  0  0  0  0
   -3.4852    4.9761    1.9751 C   0  0  1  0  0  0  0  0  0  0  0  0
   -3.9418    3.1991    0.3720 N   0  3  0  0  0  0  0  0  0  0  0  0
   -7.0532    7.0190    0.6907 N   0  3  0  0  0  0  0  0  0  0  0  0
   -3.0484    6.7702    3.5322 O   0  0  0  0  0  0  0  0  0  0  0  0
   -2.6306    4.0869    2.7167 O   0  0  0  0  0  0  0  0  0  0  0  0
   -4.6925    8.7280    3.7274 C   0  0  1  0  0  0  0  0  0  0  0  0
   -4.8184    8.4751    5.2308 C   0  0  1  0  0  0  0  0  0  0  0  0
   -6.2039    8.8716    5.7181 C   0  0  0  0  0  0  0  0  0  0  0  0
   -6.4746   10.3175    5.3354 C   0  0  1  0  0  0  0  0  0  0  0  0
   -6.3078   10.4918    3.8263 C   0  0  1  0  0  0  0  0  0  0  0  0
   -6.5064   11.9284    3.3780 C   0  0  0  0  0  0  0  0  0  0  0  0
   -4.4939    7.0680    5.5644 N   0  3  0  0  0  0  0  0  0  0  0  0
   -7.7876   12.4813    3.8786 N   0  3  0  0  0  0  0  0  0  0  0  0
   -5.5901    7.9312    3.0292 O   0  0  0  0  0  0  0  0  0  0  0  0
   -7.7910   10.6835    5.7228 O   0  0  0  0  0  0  0  0  0  0  0  0
   -4.9775   10.0992    3.4244 O   0  0  0  0  0  0  0  0  0  0  0  0
  1  2  1  0  0  0  0
  1 10  1  0  0  0  0
  1 21  1  1  0  0  0
  2  3  1  0  0  0  0
  2  7  1  6  0  0  0
  3  4  1  0  0  0  0
  3  8  1  6  0  0  0
  4  5  1  0  0  0  0
  4  9  1  1  0  0  0
  5  6  1  1  0  0  0
  5 10  1  0  0  0  0
  6 11  1  0  0  0  0
 12 13  1  0  0  0  0
 12 17  1  0  0  0  0
 12 18  1  6  0  0  0
 13 14  1  0  0  0  0
 14 15  1  0  0  0  0
 14 19  1  6  0  0  0
 15 16  1  0  0  0  0
 15 30  1  1  0  0  0
 16 17  1  0  0  0  0
 16 20  1  6  0  0  0
 17 21  1  1  0  0  0
 22 23  1  0  0  0  0
 22 30  1  6  0  0  0
 22 32  1  0  0  0  0
 23 24  1  0  0  0  0
 23 28  1  6  0  0  0
 24 25  1  0  0  0  0
 25 26  1  0  0  0  0
 25 31  1  6  0  0  0
 26 27  1  1  0  0  0
 26 32  1  0  0  0  0
 27 29  1  0  0  0  0
M  CHG  5   8   1  18   1  19   1  28   1  29   1
M  END
>  <CHROM.1>
-127.02633183,-137.58285258,-84.56736286,74.57996632,50.36084103,-169.26820886
152.33051136,-46.69879003,179.69816167,-168.13650666,141.37179832,-116.69621286
-59.81084497,-49.30562843,-52.18808094,-67.27795492,-3.64196742,6.12218595
3.45835033,0.55917269,0.74862064,-2.25367211

>  <Name>
1tob

>  <RI>
0

>  <Rbt.Current_Directory>
/home/itssahil/PROJECTS/Mol_Feturizer/New_Systems/rnas/1tob

>  <Rbt.Executable>
rbdock ($Id: //depot/dev/client3/rdock/2013.1/src/exe/rbdock.cxx#4 $)

>  <Rbt.Library>
libRbt.so (2013.1, Build901 2013/11/27)

>  <Rbt.Parameter_File>
/export/apps/rDock/src/rDock_2013.1_src/data/scripts/dock_solv.prm

>  <Rbt.Receptor>
prm/blind_docking_60.prm

>  <SCORE>
-28.6138

>  <SCORE.INTER>
-35.4056

>  <SCORE.INTER.CONST>
1

>  <SCORE.INTER.POLAR>
-5.61747

>  <SCORE.INTER.ROT>
6

>  <SCORE.INTER.SOLV>
32.0241

>  <SCORE.INTER.VDW>
-23.1535

>  <SCORE.INTER.norm>
-1.10642

>  <SCORE.INTRA>
4.43137

>  <SCORE.INTRA.DIHEDRAL>
8.82122

>  <SCORE.INTRA.DIHEDRAL.0>
22.9177

>  <SCORE.INTRA.POLAR>
-2.17894

>  <SCORE.INTRA.POLAR.0>
-0.311208

>  <SCORE.INTRA.REPUL>
0

>  <SCORE.INTRA.REPUL.0>
0

>  <SCORE.INTRA.SOLV>
2.93764

>  <SCORE.INTRA.SOLV.lig_0>
-132.657

>  <SCORE.INTRA.VDW>
5.96032

>  <SCORE.INTRA.VDW.0>
-4.68867

>  <SCORE.INTRA.norm>
0.13848

>  <SCORE.RESTR>
2.36044

>  <SCORE.RESTR.CAVITY>
2.36044

>  <SCORE.RESTR.norm>
0.0737637

>  <SCORE.SYSTEM>
0

>  <SCORE.SYSTEM.CONST>
0

>  <SCORE.SYSTEM.DIHEDRAL>
0

>  <SCORE.SYSTEM.SOLV>
0

>  <SCORE.SYSTEM.norm>
0

>  <SCORE.heavy>
32

>  <SCORE.norm>
-0.89418

>  <RMSD>
1.928

$$$$
1tob
 OpenBabel11021811413D
libRbt.so/2013.1/901 2013/11/27
 32 34  0  0  0  0  0  0  0  0999 V2000
   -2.2758    3.7477    1.7472 C   0  0  2  0  0  0  0  0  0  0  0  0
   -1.6266    2.3892    2.0008 C   0  0  1  0  0  0  0  0  0  0  0  0
   -1.8625    1.9699    3.4454 C   0  0  2  0  0  0  0  0  0  0  0  0
   -1.3473    3.0589    4.3787 C   0  0  1  0  0  0  0  0  0  0  0  0
   -2.0093    4.3908    4.0367 C   0  0  1  0  0  0  0  0  0  0  0  0
   -1.4799    5.5325    4.8821 C   0  0  0  0  0  0  0  0  0  0  0  0
   -2.1839    1.4205    1.1240 O   0  0  0  0  0  0  0  0  0  0  0  0
   -1.2396    0.6588    3.7291 N   0  3  0  0  0  0  0  0  0  0  0  0
   -1.6253    2.7073    5.7275 O   0  0  0  0  0  0  0  0  0  0  0  0
   -1.7578    4.7280    2.6553 O   0  0  0  0  0  0  0  0  0  0  0  0
   -1.8477    5.3821    6.2460 O   0  0  0  0  0  0  0  0  0  0  0  0
   -5.6064    4.1360    0.5940 C   0  0  2  0  0  0  0  0  0  0  0  0
   -6.4106    5.2618   -0.0416 C   0  0  0  0  0  0  0  0  0  0  0  0
   -6.8807    6.2510    1.0251 C   0  0  1  0  0  0  0  0  0  0  0  0
   -5.6720    6.8415    1.7476 C   0  0  2  0  0  0  0  0  0  0  0  0
   -4.8470    5.7231    2.3863 C   0  0  1  0  0  0  0  0  0  0  0  0
   -4.4050    4.7216    1.3198 C   0  0  1  0  0  0  0  0  0  0  0  0
   -5.1209    3.1932   -0.4375 N   0  3  0  0  0  0  0  0  0  0  0  0
   -7.7343    7.2965    0.4036 N   0  3  0  0  0  0  0  0  0  0  0  0
   -3.7081    6.2742    3.0338 O   0  0  0  0  0  0  0  0  0  0  0  0
   -3.6435    3.6635    1.9292 O   0  0  0  0  0  0  0  0  0  0  0  0
   -5.1101    8.5648    3.3219 C   0  0  1  0  0  0  0  0  0  0  0  0
   -5.3256    8.6934    4.8308 C   0  0  1  0  0  0  0  0  0  0  0  0
   -6.6419    9.4002    5.1173 C   0  0  0  0  0  0  0  0  0  0  0  0
   -6.6575   10.7401    4.3999 C   0  0  1  0  0  0  0  0  0  0  0  0
   -6.4144   10.5285    2.9060 C   0  0  1  0  0  0  0  0  0  0  0  0
   -6.3583   11.8331    2.1320 C   0  0  0  0  0  0  0  0  0  0  0  0
   -5.2490    7.3710    5.4956 N   0  3  0  0  0  0  0  0  0  0  0  0
   -5.2765   12.7150    2.6318 N   0  3  0  0  0  0  0  0  0  0  0  0
   -6.1034    7.7736    2.7602 O   0  0  0  0  0  0  0  0  0  0  0  0
   -7.9074   11.3836    4.6010 O   0  0  0  0  0  0  0  0  0  0  0  0
   -5.1546    9.8539    2.6977 O   0  0  0  0  0  0  0  0  0  0  0  0
  1  2  1  0  0  0  0
  1 10  1  0  0  0  0
  1 21  1  1  0  0  0
  2  3  1  0  0  0  0
  2  7  1  6  0  0  0
  3  4  1  0  0  0  0
  3  8  1  1  0  0  0
  4  5  1  0  0  0  0
  4  9  1  1  0  0  0
  5  6  1  1  0  0  0
  5 10  1  0  0  0  0
  6 11  1  0  0  0  0
 12 13  1  0  0  0  0
 12 17  1  0  0  0  0
 12 18  1  6  0  0  0
 13 14  1  0  0  0  0
 14 15  1  0  0  0  0
 14 19  1  6  0  0  0
 15 16  1  0  0  0  0
 15 30  1  1  0  0  0
 16 17  1  0  0  0  0
 16 20  1  6  0  0  0
 17 21  1  1  0  0  0
 22 23  1  0  0  0  0
 22 30  1  6  0  0  0
 22 32  1  0  0  0  0
 23 24  1  0  0  0  0
 23 28  1  1  0  0  0
 24 25  1  0  0  0  0
 25 26  1  0  0  0  0
 25 31  1  6  0  0  0
 26 27  1  6  0  0  0
 26 32  1  0  0  0  0
 27 29  1  0  0  0  0
M  CHG  5   8   1  18   1  19   1  28   1  29   1
M  END
>  <CHROM.1>
-160.89231389,73.48482127,-66.13934330,-169.81644603,-67.14725514,177.91862160
-45.22145990,179.34879470,-168.50519994,-60.05211768,134.65851843,-139.08998192
38.01567304,75.25044946,59.40493255,175.03399088,-4.34156151,6.19065264,2.92266503
0.76130106,0.82842582,-2.44513507

>  <Name>
1tob

>  <RI>
0

>  <Rbt.Current_Directory>
/home/itssahil/PROJECTS/Mol_Feturizer/New_Systems/rnas/1tob

>  <Rbt.Executable>
rbdock ($Id: //depot/dev/client3/rdock/2013.1/src/exe/rbdock.cxx#4 $)

>  <Rbt.Library>
libRbt.so (2013.1, Build901 2013/11/27)

>  <Rbt.Parameter_File>
/export/apps/rDock/src/rDock_2013.1_src/data/scripts/dock_solv.prm

>  <Rbt.Receptor>
prm/pocket_docking_6.prm

>  <SCORE>
-50.1388

>  <SCORE.INTER>
-44.5559

>  <SCORE.INTER.CONST>
1

>  <SCORE.INTER.POLAR>
-7.06828

>  <SCORE.INTER.ROT>
6

>  <SCORE.INTER.SOLV>
33.0316

>  <SCORE.INTER.VDW>
-24.7535

>  <SCORE.INTER.norm>
-1.39237

>  <SCORE.INTRA>
-5.58297

>  <SCORE.INTRA.DIHEDRAL>
-4.27285

>  <SCORE.INTRA.DIHEDRAL.0>
22.9177

>  <SCORE.INTRA.POLAR>
-1.05094

>  <SCORE.INTRA.POLAR.0>
-0.311208

>  <SCORE.INTRA.REPUL>
0

>  <SCORE.INTRA.REPUL.0>
0

>  <SCORE.INTRA.SOLV>
-1.8355

>  <SCORE.INTRA.SOLV.lig_0>
-132.657

>  <SCORE.INTRA.VDW>
1.04439

>  <SCORE.INTRA.VDW.0>
-4.68867

>  <SCORE.INTRA.norm>
-0.174468

>  <SCORE.RESTR>
0

>  <SCORE.RESTR.CAVITY>
0

>  <SCORE.RESTR.norm>
0

>  <SCORE.SYSTEM>
0

>  <SCORE.SYSTEM.CONST>
0

>  <SCORE.SYSTEM.DIHEDRAL>
0

>  <SCORE.SYSTEM.SOLV>
0

>  <SCORE.SYSTEM.norm>
0

>  <SCORE.heavy>
32

>  <SCORE.norm>
-1.56684

>  <RMSD>
1.945

$$$$
1tob
 OpenBabel11021811413D
libRbt.so/2013.1/901 2013/11/27
 32 34  0  0  0  0  0  0  0  0999 V2000
   -1.6974    3.9965    2.0300 C   0  0  2  0  0  0  0  0  0  0  0  0
   -0.8348    2.7589    1.7945 C   0  0  1  0  0  0  0  0  0  0  0  0
   -0.9787    1.8024    2.9703 C   0  0  2  0  0  0  0  0  0  0  0  0
   -0.6312    2.5327    4.2620 C   0  0  1  0  0  0  0  0  0  0  0  0
   -1.5036    3.7768    4.4049 C   0  0  1  0  0  0  0  0  0  0  0  0
   -1.1519    4.5902    5.6351 C   0  0  0  0  0  0  0  0  0  0  0  0
   -1.2422    2.1113    0.5978 O   0  0  0  0  0  0  0  0  0  0  0  0
   -0.1492    0.5930    2.7791 N   0  3  0  0  0  0  0  0  0  0  0  0
   -0.8290    1.6672    5.3719 O   0  0  0  0  0  0  0  0  0  0  0  0
   -1.3301    4.6372    3.2583 O   0  0  0  0  0  0  0  0  0  0  0  0
   -2.1710    5.5303    5.9444 O   0  0  0  0  0  0  0  0  0  0  0  0
   -5.1797    3.9719    1.0410 C   0  0  2  0  0  0  0  0  0  0  0  0
   -6.1559    5.0383    0.5634 C   0  0  0  0  0  0  0  0  0  0  0  0
   -6.5774    5.9365    1.7266 C   0  0  1  0  0  0  0  0  0  0  0  0
   -5.3468    6.6129    2.3266 C   0  0  2  0  0  0  0  0  0  0  0  0
   -4.3504    5.5558    2.8051 C   0  0  1  0  0  0  0  0  0  0  0  0
   -3.9555    4.6427    1.6449 C   0  0  1  0  0  0  0  0  0  0  0  0
   -4.7427    3.1202   -0.0868 N   0  3  0  0  0  0  0  0  0  0  0  0
   -7.5933    6.9177    1.2650 N   0  3  0  0  0  0  0  0  0  0  0  0
   -3.1946    6.1890    3.3372 O   0  0  0  0  0  0  0  0  0  0  0  0
   -3.0310    3.6405    2.1051 O   0  0  0  0  0  0  0  0  0  0  0  0
   -4.8187    8.4421    3.7891 C   0  0  1  0  0  0  0  0  0  0  0  0
   -4.7016    8.5230    5.3121 C   0  0  1  0  0  0  0  0  0  0  0  0
   -6.0321    8.9380    5.9220 C   0  0  0  0  0  0  0  0  0  0  0  0
   -6.4860   10.2447    5.2920 C   0  0  1  0  0  0  0  0  0  0  0  0
   -6.5563   10.0884    3.7734 C   0  0  1  0  0  0  0  0  0  0  0  0
   -6.9479   11.3755    3.0705 C   0  0  0  0  0  0  0  0  0  0  0  0
   -4.2055    7.2462    5.8780 N   0  3  0  0  0  0  0  0  0  0  0  0
   -8.3829   11.6889    3.2709 N   0  3  0  0  0  0  0  0  0  0  0  0
   -5.7318    7.4600    3.4287 O   0  0  0  0  0  0  0  0  0  0  0  0
   -7.7601   10.6118    5.8009 O   0  0  0  0  0  0  0  0  0  0  0  0
   -5.2682    9.6930    3.2539 O   0  0  0  0  0  0  0  0  0  0  0  0
  1  2  1  0  0  0  0
  1 10  1  0  0  0  0
  1 21  1  1  0  0  0
  2  3  1  0  0  0  0
  2  7  1  6  0  0  0
  3  4  1  0  0  0  0
  3  8  1  6  0  0  0
  4  5  1  0  0  0  0
  4  9  1  1  0  0  0
  5  6  1  1  0  0  0
  5 10  1  0  0  0  0
  6 11  1  0  0  0  0
 12 13  1  0  0  0  0
 12 17  1  0  0  0  0
 12 18  1  6  0  0  0
 13 14  1  0  0  0  0
 14 15  1  0  0  0  0
 14 19  1  6  0  0  0
 15 16  1  0  0  0  0
 15 30  1  1  0  0  0
 16 17  1  0  0  0  0
 16 20  1  6  0  0  0
 17 21  1  1  0  0  0
 22 23  1  0  0  0  0
 22 30  1  1  0  0  0
 22 32  1  0  0  0  0
 23 24  1  0  0  0  0
 23 28  1  1  0  0  0
 24 25  1  0  0  0  0
 25 26  1  0  0  0  0
 25 31  1  1  0  0  0
 26 27  1  6  0  0  0
 26 32  1  0  0  0  0
 27 29  1  0  0  0  0
M  CHG  5   8   1  18   1  19   1  28   1  29   1
M  END
>  <CHROM.1>
-149.42661939,-50.18537587,164.68957718,177.68758881,-164.84162932,-48.91798645
79.14619658,-55.65384582,-160.23156367,-64.94228012,148.31856783,-137.29730312
-131.20537808,159.76063539,-72.89398179,-112.12277565,-4.05266203,5.93050435
3.27462863,0.65169406,0.73004942,-2.26833531

>  <Name>
1tob

>  <RI>
0

>  <Rbt.Current_Directory>
/home/itssahil/PROJECTS/Mol_Feturizer/New_Systems/rnas/1tob

>  <Rbt.Executable>
rbdock ($Id: //depot/dev/client3/rdock/2013.1/src/exe/rbdock.cxx#4 $)

>  <Rbt.Library>
libRbt.so (2013.1, Build901 2013/11/27)

>  <Rbt.Parameter_File>
/export/apps/rDock/src/rDock_2013.1_src/data/scripts/dock_solv.prm

>  <Rbt.Receptor>
prm/blind_docking_60.prm

>  <SCORE>
-28.9074

>  <SCORE.INTER>
-31.329

>  <SCORE.INTER.CONST>
1

>  <SCORE.INTER.POLAR>
-5.64389

>  <SCORE.INTER.ROT>
6

>  <SCORE.INTER.SOLV>
35.7329

>  <SCORE.INTER.VDW>
-21.584

>  <SCORE.INTER.norm>
-0.979032

>  <SCORE.INTRA>
0.151007

>  <SCORE.INTRA.DIHEDRAL>
5.01111

>  <SCORE.INTRA.DIHEDRAL.0>
22.9177

>  <SCORE.INTRA.POLAR>
-1.74752

>  <SCORE.INTRA.POLAR.0>
-0.311208

>  <SCORE.INTRA.REPUL>
0

>  <SCORE.INTRA.REPUL.0>
0

>  <SCORE.INTRA.SOLV>
2.26283

>  <SCORE.INTRA.SOLV.lig_0>
-132.657

>  <SCORE.INTRA.VDW>
2.45561

>  <SCORE.INTRA.VDW.0>
-4.68867

>  <SCORE.INTRA.norm>
0.00471897

>  <SCORE.RESTR>
2.27058

>  <SCORE.RESTR.CAVITY>
2.27058

>  <SCORE.RESTR.norm>
0.0709556

>  <SCORE.SYSTEM>
0

>  <SCORE.SYSTEM.CONST>
0

>  <SCORE.SYSTEM.DIHEDRAL>
0

>  <SCORE.SYSTEM.SOLV>
0

>  <SCORE.SYSTEM.norm>
0

>  <SCORE.heavy>
32

>  <SCORE.norm>
-0.903357

>  <RMSD>
1.964

$$$$
1tob
 OpenBabel11021811413D
libRbt.so/2013.1/901 2013/11/27
 32 34  0  0  0  0  0  0  0  0999 V2000
   -1.3377    4.6068    3.4572 C   0  0  2  0  0  0  0  0  0  0  0  0
   -0.3477    3.6214    2.8408 C   0  0  1  0  0  0  0  0  0  0  0  0
   -0.2744    2.3648    3.6975 C   0  0  2  0  0  0  0  0  0  0  0  0
    0.0813    2.7485    5.1289 C   0  0  1  0  0  0  0  0  0  0  0  0
   -0.9267    3.7645    5.6590 C   0  0  1  0  0  0  0  0  0  0  0  0
   -0.5822    4.2448    7.0551 C   0  0  0  0  0  0  0  0  0  0  0  0
   -0.7655    3.2811    1.5265 O   0  0  0  0  0  0  0  0  0  0  0  0
    0.6830    1.3890    3.1329 N   0  3  0  0  0  0  0  0  0  0  0  0
    0.0846    1.5890    5.9508 O   0  0  0  0  0  0  0  0  0  0  0  0
   -0.9563    4.9258    4.8013 O   0  0  0  0  0  0  0  0  0  0  0  0
   -1.6650    4.9524    7.6423 O   0  0  0  0  0  0  0  0  0  0  0  0
   -4.5065    3.5391    2.0760 C   0  0  2  0  0  0  0  0  0  0  0  0
   -5.4858    4.1379    1.0757 C   0  0  0  0  0  0  0  0  0  0  0  0
   -6.2513    5.3007    1.7077 C   0  0  1  0  0  0  0  0  0  0  0  0
   -5.2687    6.3795    2.1577 C   0  0  2  0  0  0  0  0  0  0  0  0
   -4.2711    5.7934    3.1580 C   0  0  1  0  0  0  0  0  0  0  0  0
   -3.5302    4.6130    2.5309 C   0  0  1  0  0  0  0  0  0  0  0  0
   -3.7393    2.4346    1.4597 N   0  3  0  0  0  0  0  0  0  0  0  0
   -7.2619    5.8202    0.7502 N   0  3  0  0  0  0  0  0  0  0  0  0
   -3.3413    6.7932    3.5532 O   0  0  0  0  0  0  0  0  0  0  0  0
   -2.6053    4.0558    3.4822 O   0  0  0  0  0  0  0  0  0  0  0  0
   -5.2206    8.6046    3.0578 C   0  0  1  0  0  0  0  0  0  0  0  0
   -5.9111    9.4387    4.1383 C   0  0  1  0  0  0  0  0  0  0  0  0
   -7.2498    9.9540    3.6317 C   0  0  0  0  0  0  0  0  0  0  0  0
   -7.0339   10.7217    2.3377 C   0  0  1  0  0  0  0  0  0  0  0  0
   -6.3220    9.8298    1.3211 C   0  0  1  0  0  0  0  0  0  0  0  0
   -6.0200   10.5514    0.0203 C   0  0  0  0  0  0  0  0  0  0  0  0
   -6.0524    8.6698    5.3973 N   0  3  0  0  0  0  0  0  0  0  0  0
   -5.3030    9.6726   -0.9344 N   0  3  0  0  0  0  0  0  0  0  0  0
   -5.9795    7.4805    2.7601 O   0  0  0  0  0  0  0  0  0  0  0  0
   -8.2822   11.1518    1.8147 O   0  0  0  0  0  0  0  0  0  0  0  0
   -5.0621    9.3715    1.8577 O   0  0  0  0  0  0  0  0  0  0  0  0
  1  2  1  0  0  0  0
  1 10  1  0  0  0  0
  1 21  1  1  0  0  0
  2  3  1  0  0  0  0
  2  7  1  6  0  0  0
  3  4  1  0  0  0  0
  3  8  1  6  0  0  0
  4  5  1  0  0  0  0
  4  9  1  1  0  0  0
  5  6  1  1  0  0  0
  5 10  1  0  0  0  0
  6 11  1  0  0  0  0
 12 13  1  0  0  0  0
 12 17  1  0  0  0  0
 12 18  1  6  0  0  0
 13 14  1  0  0  0  0
 14 15  1  0  0  0  0
 14 19  1  6  0  0  0
 15 16  1  0  0  0  0
 15 30  1  1  0  0  0
 16 17  1  0  0  0  0
 16 20  1  6  0  0  0
 17 21  1  1  0  0  0
 22 23  1  0  0  0  0
 22 30  1  6  0  0  0
 22 32  1  0  0  0  0
 23 24  1  0  0  0  0
 23 28  1  1  0  0  0
 24 25  1  0  0  0  0
 25 26  1  0  0  0  0
 25 31  1  6  0  0  0
 26 27  1  6  0  0  0
 26 32  1  0  0  0  0
 27 29  1  0  0  0  0
M  CHG  5   8   1  18   1  19   1  28   1  29   1
M  END
>  <CHROM.1>
-107.36929870,94.93251917,-38.28019328,-32.05046730,-167.24015197,146.70002061
-23.97062273,67.59909416,-172.03099053,-62.34272173,147.81813720,-158.01837906
70.31084564,175.20382636,178.71214710,-48.60786588,-3.75755315,5.97727870
3.06285502,0.17360875,0.85761689,-2.17718509

>  <Name>
1tob

>  <RI>
0

>  <Rbt.Current_Directory>
/home/itssahil/PROJECTS/Mol_Feturizer/New_Systems/rnas/1tob

>  <Rbt.Executable>
rbdock ($Id: //depot/dev/client3/rdock/2013.1/src/exe/rbdock.cxx#4 $)

>  <Rbt.Library>
libRbt.so (2013.1, Build901 2013/11/27)

>  <Rbt.Parameter_File>
/export/apps/rDock/src/rDock_2013.1_src/data/scripts/dock_solv.prm

>  <Rbt.Receptor>
prm/pocket_docking_5.prm

>  <SCORE>
-43.4406

>  <SCORE.INTER>
-42.5709

>  <SCORE.INTER.CONST>
1

>  <SCORE.INTER.POLAR>
-6.21489

>  <SCORE.INTER.ROT>
6

>  <SCORE.INTER.SOLV>
27.3924

>  <SCORE.INTER.VDW>
-24.3951

>  <SCORE.INTER.norm>
-1.33034

>  <SCORE.INTRA>
-0.869611

>  <SCORE.INTRA.DIHEDRAL>
6.86038

>  <SCORE.INTRA.DIHEDRAL.0>
22.9177

>  <SCORE.INTRA.POLAR>
-0.915406

>  <SCORE.INTRA.POLAR.0>
-0.311208

>  <SCORE.INTRA.REPUL>
0

>  <SCORE.INTRA.REPUL.0>
0

>  <SCORE.INTRA.SOLV>
-5.01759

>  <SCORE.INTRA.SOLV.lig_0>
-132.657

>  <SCORE.INTRA.VDW>
1.32137

>  <SCORE.INTRA.VDW.0>
-4.68867

>  <SCORE.INTRA.norm>
-0.0271753

>  <SCORE.RESTR>
0

>  <SCORE.RESTR.CAVITY>
0

>  <SCORE.RESTR.norm>
0

>  <SCORE.SYSTEM>
0

>  <SCORE.SYSTEM.CONST>
0

>  <SCORE.SYSTEM.DIHEDRAL>
0

>  <SCORE.SYSTEM.SOLV>
0

>  <SCORE.SYSTEM.norm>
0

>  <SCORE.heavy>
32

>  <SCORE.norm>
-1.35752

>  <RMSD>
2.009

$$$$
1tob
 OpenBabel11021811413D
libRbt.so/2013.1/901 2013/11/27
 32 34  0  0  0  0  0  0  0  0999 V2000
   -2.2403    5.6484    3.4330 C   0  0  2  0  0  0  0  0  0  0  0  0
   -1.2187    5.0913    2.4446 C   0  0  1  0  0  0  0  0  0  0  0  0
   -0.8006    3.6915    2.8736 C   0  0  2  0  0  0  0  0  0  0  0  0
   -0.2804    3.7355    4.3054 C   0  0  1  0  0  0  0  0  0  0  0  0
   -1.3388    4.3411    5.2232 C   0  0  1  0  0  0  0  0  0  0  0  0
   -0.8510    4.4833    6.6516 C   0  0  0  0  0  0  0  0  0  0  0  0
   -1.7870    5.0436    1.1437 O   0  0  0  0  0  0  0  0  0  0  0  0
    0.1962    3.1227    1.9408 N   0  3  0  0  0  0  0  0  0  0  0  0
    0.0479    2.4221    4.7383 O   0  0  0  0  0  0  0  0  0  0  0  0
   -1.6988    5.6606    4.7600 O   0  0  0  0  0  0  0  0  0  0  0  0
   -1.8627    5.0158    7.4948 O   0  0  0  0  0  0  0  0  0  0  0  0
   -4.9844    3.8169    1.9556 C   0  0  2  0  0  0  0  0  0  0  0  0
   -5.9494    4.0876    0.8094 C   0  0  0  0  0  0  0  0  0  0  0  0
   -6.9881    5.1313    1.2206 C   0  0  1  0  0  0  0  0  0  0  0  0
   -6.2863    6.4318    1.6056 C   0  0  2  0  0  0  0  0  0  0  0  0
   -5.3059    6.1772    2.7516 C   0  0  1  0  0  0  0  0  0  0  0  0
   -4.2883    5.1117    2.3456 C   0  0  1  0  0  0  0  0  0  0  0  0
   -3.9569    2.8319    1.5525 N   0  3  0  0  0  0  0  0  0  0  0  0
   -7.9729    5.3234    0.1245 N   0  3  0  0  0  0  0  0  0  0  0  0
   -4.6345    7.3838    3.0883 O   0  0  0  0  0  0  0  0  0  0  0  0
   -3.3792    4.8649    3.4334 O   0  0  0  0  0  0  0  0  0  0  0  0
   -7.4645    8.4621    1.1024 C   0  0  1  0  0  0  0  0  0  0  0  0
   -7.4319    9.8066    1.8314 C   0  0  1  0  0  0  0  0  0  0  0  0
   -8.5669    9.8866    2.8411 C   0  0  0  0  0  0  0  0  0  0  0  0
   -9.8867    9.6281    2.1327 C   0  0  1  0  0  0  0  0  0  0  0  0
   -9.8310    8.2809    1.4133 C   0  0  1  0  0  0  0  0  0  0  0  0
  -11.0982    7.9818    0.6329 C   0  0  0  0  0  0  0  0  0  0  0  0
   -6.1108   10.0405    2.4610 N   0  3  0  0  0  0  0  0  0  0  0  0
  -11.1962    8.8201   -0.5858 N   0  3  0  0  0  0  0  0  0  0  0  0
   -7.2566    7.4234    2.0001 O   0  0  0  0  0  0  0  0  0  0  0  0
  -10.9508    9.6315    3.0731 O   0  0  0  0  0  0  0  0  0  0  0  0
   -8.7360    8.2647    0.4719 O   0  0  0  0  0  0  0  0  0  0  0  0
  1  2  1  0  0  0  0
  1 10  1  0  0  0  0
  1 21  1  1  0  0  0
  2  3  1  0  0  0  0
  2  7  1  6  0  0  0
  3  4  1  0  0  0  0
  3  8  1  6  0  0  0
  4  5  1  0  0  0  0
  4  9  1  1  0  0  0
  5  6  1  1  0  0  0
  5 10  1  0  0  0  0
  6 11  1  0  0  0  0
 12 13  1  0  0  0  0
 12 17  1  0  0  0  0
 12 18  1  6  0  0  0
 13 14  1  0  0  0  0
 14 15  1  0  0  0  0
 14 19  1  6  0  0  0
 15 16  1  0  0  0  0
 15 30  1  1  0  0  0
 16 17  1  0  0  0  0
 16 20  1  6  0  0  0
 17 21  1  1  0  0  0
 22 23  1  0  0  0  0
 22 30  1  1  0  0  0
 22 32  1  0  0  0  0
 23 24  1  0  0  0  0
 23 28  1  1  0  0  0
 24 25  1  0  0  0  0
 25 26  1  0  0  0  0
 25 31  1  1  0  0  0
 26 27  1  6  0  0  0
 26 32  1  0  0  0  0
 27 29  1  0  0  0  0
M  CHG  5   8   1  18   1  19   1  28   1  29   1
M  END
>  <CHROM.1>
-79.84724179,56.87907399,86.25535713,-55.79778979,-178.46517330,159.04886392
-142.36720091,152.94567748,-107.51747897,-69.85838189,147.18454488,-132.39328339
-45.68910874,173.79224704,72.72159467,41.12807192,-5.11799905,6.17172082
2.53511504,-0.10180870,-0.56855938,0.84468771

>  <Name>
1tob

>  <RI>
0

>  <Rbt.Current_Directory>
/home/itssahil/PROJECTS/Mol_Feturizer/New_Systems/rnas/1tob

>  <Rbt.Executable>
rbdock ($Id: //depot/dev/client3/rdock/2013.1/src/exe/rbdock.cxx#4 $)

>  <Rbt.Library>
libRbt.so (2013.1, Build901 2013/11/27)

>  <Rbt.Parameter_File>
/export/apps/rDock/src/rDock_2013.1_src/data/scripts/dock_solv.prm

>  <Rbt.Receptor>
prm/pocket_docking_4.prm

>  <SCORE>
-43.6279

>  <SCORE.INTER>
-39.777

>  <SCORE.INTER.CONST>
1

>  <SCORE.INTER.POLAR>
-5.72183

>  <SCORE.INTER.ROT>
6

>  <SCORE.INTER.SOLV>
21.9827

>  <SCORE.INTER.VDW>
-22.3728

>  <SCORE.INTER.norm>
-1.24303

>  <SCORE.INTRA>
-3.85084

>  <SCORE.INTRA.DIHEDRAL>
6.10868

>  <SCORE.INTRA.DIHEDRAL.0>
22.9177

>  <SCORE.INTRA.POLAR>
-2.15907

>  <SCORE.INTRA.POLAR.0>
-0.311208

>  <SCORE.INTRA.REPUL>
0

>  <SCORE.INTRA.REPUL.0>
0

>  <SCORE.INTRA.SOLV>
0.948925

>  <SCORE.INTRA.SOLV.lig_0>
-132.657

>  <SCORE.INTRA.VDW>
-0.0387969

>  <SCORE.INTRA.VDW.0>
-4.68867

>  <SCORE.INTRA.norm>
-0.120339

>  <SCORE.RESTR>
0

>  <SCORE.RESTR.CAVITY>
0

>  <SCORE.RESTR.norm>
0

>  <SCORE.SYSTEM>
0

>  <SCORE.SYSTEM.CONST>
0

>  <SCORE.SYSTEM.DIHEDRAL>
0

>  <SCORE.SYSTEM.SOLV>
0

>  <SCORE.SYSTEM.norm>
0

>  <SCORE.heavy>
32

>  <SCORE.norm>
-1.36337

>  <RMSD>
2.042

$$$$
1tob
 OpenBabel11021811413D
libRbt.so/2013.1/901 2013/11/27
 32 34  0  0  0  0  0  0  0  0999 V2000
   -3.4797    4.9928    1.7125 C   0  0  2  0  0  0  0  0  0  0  0  0
   -2.8286    3.6400    1.4345 C   0  0  1  0  0  0  0  0  0  0  0  0
   -2.7778    2.8220    2.7177 C   0  0  2  0  0  0  0  0  0  0  0  0
   -2.0558    3.6190    3.7975 C   0  0  1  0  0  0  0  0  0  0  0  0
   -2.7381    4.9709    3.9876 C   0  0  1  0  0  0  0  0  0  0  0  0
   -2.0186    5.8437    4.9970 C   0  0  0  0  0  0  0  0  0  0  0  0
   -3.5772    2.9410    0.4503 O   0  0  0  0  0  0  0  0  0  0  0  0
   -2.1451    1.5053    2.4867 N   0  3  0  0  0  0  0  0  0  0  0  0
   -2.0639    2.8916    5.0185 O   0  0  0  0  0  0  0  0  0  0  0  0
   -2.7629    5.6929    2.7373 O   0  0  0  0  0  0  0  0  0  0  0  0
   -1.8346    5.1656    6.2317 O   0  0  0  0  0  0  0  0  0  0  0  0
   -6.8513    4.9291    0.8813 C   0  0  2  0  0  0  0  0  0  0  0  0
   -7.8624    5.8929    0.2754 C   0  0  0  0  0  0  0  0  0  0  0  0
   -8.4521    6.7984    1.3569 C   0  0  1  0  0  0  0  0  0  0  0  0
   -7.3348    7.5959    2.0258 C   0  0  2  0  0  0  0  0  0  0  0  0
   -6.3044    6.6430    2.6339 C   0  0  1  0  0  0  0  0  0  0  0  0
   -5.7402    5.7206    1.5539 C   0  0  1  0  0  0  0  0  0  0  0  0
   -6.2529    4.0725   -0.1658 N   0  3  0  0  0  0  0  0  0  0  0  0
   -9.4974    7.6748    0.7675 N   0  3  0  0  0  0  0  0  0  0  0  0
   -5.2521    7.3887    3.2311 O   0  0  0  0  0  0  0  0  0  0  0  0
   -4.7839    4.8159    2.1351 O   0  0  0  0  0  0  0  0  0  0  0  0
   -8.1599    9.7564    2.6703 C   0  0  1  0  0  0  0  0  0  0  0  0
   -7.2685   10.7355    3.4363 C   0  0  1  0  0  0  0  0  0  0  0  0
   -7.5603   10.6586    4.9274 C   0  0  0  0  0  0  0  0  0  0  0  0
   -9.0429   10.8994    5.1607 C   0  0  1  0  0  0  0  0  0  0  0  0
   -9.8626    9.8988    4.3467 C   0  0  1  0  0  0  0  0  0  0  0  0
  -11.3582   10.1179    4.4854 C   0  0  0  0  0  0  0  0  0  0  0  0
   -5.8362   10.4992    3.1378 N   0  3  0  0  0  0  0  0  0  0  0  0
  -11.7927   11.3540    3.7918 N   0  3  0  0  0  0  0  0  0  0  0  0
   -7.8789    8.4512    3.0519 O   0  0  0  0  0  0  0  0  0  0  0  0
   -9.3450   10.7635    6.5417 O   0  0  0  0  0  0  0  0  0  0  0  0
   -9.5419   10.0178    2.9437 O   0  0  0  0  0  0  0  0  0  0  0  0
  1  2  1  0  0  0  0
  1 10  1  0  0  0  0
  1 21  1  1  0  0  0
  2  3  1  0  0  0  0
  2  7  1  6  0  0  0
  3  4  1  0  0  0  0
  3  8  1  6  0  0  0
  4  5  1  0  0  0  0
  4  9  1  1  0  0  0
  5  6  1  1  0  0  0
  5 10  1  0  0  0  0
  6 11  1  0  0  0  0
 12 13  1  0  0  0  0
 12 17  1  0  0  0  0
 12 18  1  6  0  0  0
 13 14  1  0  0  0  0
 14 15  1  0  0  0  0
 14 19  1  6  0  0  0
 15 16  1  0  0  0  0
 15 30  1  1  0  0  0
 16 17  1  0  0  0  0
 16 20  1  6  0  0  0
 17 21  1  1  0  0  0
 22 23  1  0  0  0  0
 22 30  1  1  0  0  0
 22 32  1  0  0  0  0
 23 24  1  0  0  0  0
 23 28  1  1  0  0  0
 24 25  1  0  0  0  0
 25 26  1  0  0  0  0
 25 31  1  1  0  0  0
 26 27  1  6  0  0  0
 26 32  1  0  0  0  0
 27 29  1  0  0  0  0
M  CHG  5   8   1  18   1  19   1  28   1  29   1
M  END
>  <CHROM.1>
-136.89567643,-82.31046272,29.37712970,-170.62177245,-53.54227989,-178.75563436
85.06775758,-165.91109264,-94.83587568,-159.84470554,124.08342381,-115.59418838
78.64407644,-177.77715162,70.92071839,-171.36357346,-6.05716643,6.82342200
2.97720241,0.56744849,0.57093201,-2.29072110

>  <Name>
1tob

>  <RI>
0

>  <Rbt.Current_Directory>
/home/itssahil/PROJECTS/Mol_Feturizer/New_Systems/rnas/1tob

>  <Rbt.Executable>
rbdock ($Id: //depot/dev/client3/rdock/2013.1/src/exe/rbdock.cxx#4 $)

>  <Rbt.Library>
libRbt.so (2013.1, Build901 2013/11/27)

>  <Rbt.Parameter_File>
/export/apps/rDock/src/rDock_2013.1_src/data/scripts/dock_solv.prm

>  <Rbt.Receptor>
prm/pocket_docking_2.prm

>  <SCORE>
-49.2309

>  <SCORE.INTER>
-51.0567

>  <SCORE.INTER.CONST>
1

>  <SCORE.INTER.POLAR>
-8.19186

>  <SCORE.INTER.ROT>
6

>  <SCORE.INTER.SOLV>
22.2578

>  <SCORE.INTER.VDW>
-21.7509

>  <SCORE.INTER.norm>
-1.59552

>  <SCORE.INTRA>
-0.656832

>  <SCORE.INTRA.DIHEDRAL>
11.5104

>  <SCORE.INTRA.DIHEDRAL.0>
22.9177

>  <SCORE.INTRA.POLAR>
-2.77649

>  <SCORE.INTRA.POLAR.0>
-0.311208

>  <SCORE.INTRA.REPUL>
0

>  <SCORE.INTRA.REPUL.0>
0

>  <SCORE.INTRA.SOLV>
0.879556

>  <SCORE.INTRA.SOLV.lig_0>
-132.657

>  <SCORE.INTRA.VDW>
2.58825

>  <SCORE.INTRA.VDW.0>
-4.68867

>  <SCORE.INTRA.norm>
-0.020526

>  <SCORE.RESTR>
2.4827

>  <SCORE.RESTR.CAVITY>
2.4827

>  <SCORE.RESTR.norm>
0.0775844

>  <SCORE.SYSTEM>
0

>  <SCORE.SYSTEM.CONST>
0

>  <SCORE.SYSTEM.DIHEDRAL>
0

>  <SCORE.SYSTEM.SOLV>
0

>  <SCORE.SYSTEM.norm>
0

>  <SCORE.heavy>
32

>  <SCORE.norm>
-1.53846

>  <RMSD>
2.045

$$$$
1tob
 OpenBabel11021811413D
libRbt.so/2013.1/901 2013/11/27
 32 34  0  0  0  0  0  0  0  0999 V2000
   -2.1131    4.4993    2.3350 C   0  0  2  0  0  0  0  0  0  0  0  0
   -1.3522    3.2431    1.9179 C   0  0  1  0  0  0  0  0  0  0  0  0
   -1.3861    2.2239    3.0486 C   0  0  2  0  0  0  0  0  0  0  0  0
   -0.8343    2.8593    4.3191 C   0  0  1  0  0  0  0  0  0  0  0  0
   -1.6170    4.1281    4.6464 C   0  0  1  0  0  0  0  0  0  0  0  0
   -1.0650    4.8498    5.8600 C   0  0  0  0  0  0  0  0  0  0  0  0
   -1.9466    2.6869    0.7539 O   0  0  0  0  0  0  0  0  0  0  0  0
   -0.6506    0.9945    2.6813 N   0  3  0  0  0  0  0  0  0  0  0  0
   -0.9259    1.9372    5.3968 O   0  0  0  0  0  0  0  0  0  0  0  0
   -1.5546    5.0483    3.5353 O   0  0  0  0  0  0  0  0  0  0  0  0
   -2.0625    5.6389    6.4927 O   0  0  0  0  0  0  0  0  0  0  0  0
   -5.3520    4.0366    1.0935 C   0  0  2  0  0  0  0  0  0  0  0  0
   -6.3532    4.8616    0.2964 C   0  0  0  0  0  0  0  0  0  0  0  0
   -7.1281    5.8007    1.2210 C   0  0  1  0  0  0  0  0  0  0  0  0
   -6.1564    6.7390    1.9332 C   0  0  2  0  0  0  0  0  0  0  0  0
   -5.1372    5.9266    2.7335 C   0  0  1  0  0  0  0  0  0  0  0  0
   -4.3864    4.9686    1.8092 C   0  0  1  0  0  0  0  0  0  0  0  0
   -4.5760    3.1494    0.1995 N   0  3  0  0  0  0  0  0  0  0  0  0
   -8.1587    6.5375    0.4444 N   0  3  0  0  0  0  0  0  0  0  0  0
   -4.2177    6.8022    3.3723 O   0  0  0  0  0  0  0  0  0  0  0  0
   -3.4410    4.1958    2.5705 O   0  0  0  0  0  0  0  0  0  0  0  0
   -6.1464    8.6848    3.3395 C   0  0  1  0  0  0  0  0  0  0  0  0
   -7.0871    9.7986    3.8024 C   0  0  1  0  0  0  0  0  0  0  0  0
   -7.8572   10.3645    2.6188 C   0  0  0  0  0  0  0  0  0  0  0  0
   -6.8737   10.8233    1.5545 C   0  0  1  0  0  0  0  0  0  0  0  0
   -5.9588    9.6634    1.1630 C   0  0  1  0  0  0  0  0  0  0  0  0
   -4.9090   10.0653    0.1429 C   0  0  0  0  0  0  0  0  0  0  0  0
   -7.9906    9.3223    4.8764 N   0  3  0  0  0  0  0  0  0  0  0  0
   -4.0701    8.9102   -0.2570 N   0  3  0  0  0  0  0  0  0  0  0  0
   -6.8760    7.6275    2.8124 O   0  0  0  0  0  0  0  0  0  0  0  0
   -7.5773   11.2918    0.4134 O   0  0  0  0  0  0  0  0  0  0  0  0
   -5.2580    9.1688    2.3247 O   0  0  0  0  0  0  0  0  0  0  0  0
  1  2  1  0  0  0  0
  1 10  1  0  0  0  0
  1 21  1  1  0  0  0
  2  3  1  0  0  0  0
  2  7  1  6  0  0  0
  3  4  1  0  0  0  0
  3  8  1  6  0  0  0
  4  5  1  0  0  0  0
  4  9  1  1  0  0  0
  5  6  1  1  0  0  0
  5 10  1  0  0  0  0
  6 11  1  0  0  0  0
 12 13  1  0  0  0  0
 12 17  1  0  0  0  0
 12 18  1  6  0  0  0
 13 14  1  0  0  0  0
 14 15  1  0  0  0  0
 14 19  1  6  0  0  0
 15 16  1  0  0  0  0
 15 30  1  1  0  0  0
 16 17  1  0  0  0  0
 16 20  1  6  0  0  0
 17 21  1  1  0  0  0
 22 23  1  0  0  0  0
 22 30  1  6  0  0  0
 22 32  1  0  0  0  0
 23 24  1  0  0  0  0
 23 28  1  1  0  0  0
 24 25  1  0  0  0  0
 25 26  1  0  0  0  0
 25 31  1  6  0  0  0
 26 27  1  6  0  0  0
 26 32  1  0  0  0  0
 27 29  1  0  0  0  0
M  CHG  5   8   1  18   1  19   1  28   1  29   1
M  END
>  <CHROM.1>
-124.27112714,178.12805900,-61.49339637,168.30243316,-154.70830547,-155.25104553
24.76142139,-157.87901741,-168.95581277,-169.45179802,127.70007431,159.17388180
-165.81972225,65.60772202,-177.81304018,68.51682497,-4.38867121,6.13308607
2.48642384,0.34713651,0.83868026,-2.27252584

>  <Name>
1tob

>  <RI>
0

>  <Rbt.Current_Directory>
/home/itssahil/PROJECTS/Mol_Feturizer/New_Systems/rnas/1tob

>  <Rbt.Executable>
rbdock ($Id: //depot/dev/client3/rdock/2013.1/src/exe/rbdock.cxx#4 $)

>  <Rbt.Library>
libRbt.so (2013.1, Build901 2013/11/27)

>  <Rbt.Parameter_File>
/export/apps/rDock/src/rDock_2013.1_src/data/scripts/dock_solv.prm

>  <Rbt.Receptor>
prm/pocket_docking_6.prm

>  <SCORE>
-43.5673

>  <SCORE.INTER>
-41.1907

>  <SCORE.INTER.CONST>
1

>  <SCORE.INTER.POLAR>
-6.57264

>  <SCORE.INTER.ROT>
6

>  <SCORE.INTER.SOLV>
27.9591

>  <SCORE.INTER.VDW>
-22.4714

>  <SCORE.INTER.norm>
-1.28721

>  <SCORE.INTRA>
-2.37657

>  <SCORE.INTRA.DIHEDRAL>
3.48627

>  <SCORE.INTRA.DIHEDRAL.0>
22.9177

>  <SCORE.INTRA.POLAR>
-1.35065

>  <SCORE.INTRA.POLAR.0>
-0.311208

>  <SCORE.INTRA.REPUL>
0

>  <SCORE.INTRA.REPUL.0>
0

>  <SCORE.INTRA.SOLV>
-2.57347

>  <SCORE.INTRA.SOLV.lig_0>
-132.657

>  <SCORE.INTRA.VDW>
1.75923

>  <SCORE.INTRA.VDW.0>
-4.68867

>  <SCORE.INTRA.norm>
-0.0742678

>  <SCORE.RESTR>
0

>  <SCORE.RESTR.CAVITY>
0

>  <SCORE.RESTR.norm>
0

>  <SCORE.SYSTEM>
0

>  <SCORE.SYSTEM.CONST>
0

>  <SCORE.SYSTEM.DIHEDRAL>
0

>  <SCORE.SYSTEM.SOLV>
0

>  <SCORE.SYSTEM.norm>
0

>  <SCORE.heavy>
32

>  <SCORE.norm>
-1.36148

>  <RMSD>
2.080

$$$$
1tob
 OpenBabel11021811413D
libRbt.so/2013.1/901 2013/11/27
 32 34  0  0  0  0  0  0  0  0999 V2000
   -3.3042    4.3574    3.8556 C   0  0  2  0  0  0  0  0  0  0  0  0
   -2.3357    4.7922    4.9530 C   0  0  1  0  0  0  0  0  0  0  0  0
   -0.9284    4.3226    4.6103 C   0  0  2  0  0  0  0  0  0  0  0  0
   -0.9382    2.8149    4.3886 C   0  0  1  0  0  0  0  0  0  0  0  0
   -1.9574    2.4560    3.3108 C   0  0  1  0  0  0  0  0  0  0  0  0
   -2.0696    0.9591    3.0981 C   0  0  0  0  0  0  0  0  0  0  0  0
   -2.3522    6.2074    5.0737 O   0  0  0  0  0  0  0  0  0  0  0  0
    0.0369    4.7208    5.6576 N   0  3  0  0  0  0  0  0  0  0  0  0
    0.3574    2.3775    4.0009 O   0  0  0  0  0  0  0  0  0  0  0  0
   -3.2663    2.9345    3.6886 O   0  0  0  0  0  0  0  0  0  0  0  0
   -0.7957    0.3685    2.8828 O   0  0  0  0  0  0  0  0  0  0  0  0
   -4.9248    4.2943    1.4022 C   0  0  2  0  0  0  0  0  0  0  0  0
   -6.0959    4.8369    0.5945 C   0  0  0  0  0  0  0  0  0  0  0  0
   -6.9367    5.7888    1.4457 C   0  0  1  0  0  0  0  0  0  0  0  0
   -6.0714    6.9532    1.9225 C   0  0  2  0  0  0  0  0  0  0  0  0
   -4.8842    6.4259    2.7299 C   0  0  1  0  0  0  0  0  0  0  0  0
   -4.0644    5.4523    1.8838 C   0  0  1  0  0  0  0  0  0  0  0  0
   -4.0887    3.3982    0.5736 N   0  3  0  0  0  0  0  0  0  0  0  0
   -8.1218    6.2441    0.6735 N   0  3  0  0  0  0  0  0  0  0  0  0
   -4.0663    7.5104    3.1481 O   0  0  0  0  0  0  0  0  0  0  0  0
   -2.9588    4.9473    2.6542 O   0  0  0  0  0  0  0  0  0  0  0  0
   -6.3755    9.1565    2.8261 C   0  0  1  0  0  0  0  0  0  0  0  0
   -6.8476    9.7999    4.1311 C   0  0  1  0  0  0  0  0  0  0  0  0
   -8.3652    9.9045    4.1488 C   0  0  0  0  0  0  0  0  0  0  0  0
   -8.8296   10.6591    2.9138 C   0  0  1  0  0  0  0  0  0  0  0  0
   -8.3005    9.9683    1.6575 C   0  0  1  0  0  0  0  0  0  0  0  0
   -8.6775   10.7024    0.3835 C   0  0  0  0  0  0  0  0  0  0  0  0
   -6.3279    9.0638    5.3078 N   0  3  0  0  0  0  0  0  0  0  0  0
   -8.0727   12.0551    0.3369 N   0  3  0  0  0  0  0  0  0  0  0  0
   -6.8533    7.8562    2.7309 O   0  0  0  0  0  0  0  0  0  0  0  0
  -10.2486   10.7066    2.8794 O   0  0  0  0  0  0  0  0  0  0  0  0
   -6.8587    9.8974    1.6987 O   0  0  0  0  0  0  0  0  0  0  0  0
  1  2  1  0  0  0  0
  1 10  1  0  0  0  0
  1 21  1  6  0  0  0
  2  3  1  0  0  0  0
  2  7  1  6  0  0  0
  3  4  1  0  0  0  0
  3  8  1  1  0  0  0
  4  5  1  0  0  0  0
  4  9  1  6  0  0  0
  5  6  1  1  0  0  0
  5 10  1  0  0  0  0
  6 11  1  0  0  0  0
 12 13  1  0  0  0  0
 12 17  1  0  0  0  0
 12 18  1  6  0  0  0
 13 14  1  0  0  0  0
 14 15  1  0  0  0  0
 14 19  1  6  0  0  0
 15 16  1  0  0  0  0
 15 30  1  1  0  0  0
 16 17  1  0  0  0  0
 16 20  1  6  0  0  0
 17 21  1  1  0  0  0
 22 23  1  0  0  0  0
 22 30  1  6  0  0  0
 22 32  1  0  0  0  0
 23 24  1  0  0  0  0
 23 28  1  1  0  0  0
 24 25  1  0  0  0  0
 25 26  1  0  0  0  0
 25 31  1  6  0  0  0
 26 27  1  6  0  0  0
 26 32  1  0  0  0  0
 27 29  1  0  0  0  0
M  CHG  5   8   1  18   1  19   1  28   1  29   1
M  END
>  <CHROM.1>
-137.42318690,169.66610465,-38.71651934,-68.20656488,-51.73037630,-175.34202579
-73.82281746,-159.25697797,-157.45305461,-70.17130812,-66.98270712,-153.87151389
-40.54151665,64.35099265,63.24374840,-61.26571848,-4.82956482,6.31382060
2.86657465,-0.50662758,-0.68850519,0.64286704

>  <Name>
1tob

>  <RI>
0

>  <Rbt.Current_Directory>
/home/itssahil/PROJECTS/Mol_Feturizer/New_Systems/rnas/1tob

>  <Rbt.Executable>
rbdock ($Id: //depot/dev/client3/rdock/2013.1/src/exe/rbdock.cxx#4 $)

>  <Rbt.Library>
libRbt.so (2013.1, Build901 2013/11/27)

>  <Rbt.Parameter_File>
/export/apps/rDock/src/rDock_2013.1_src/data/scripts/dock_solv.prm

>  <Rbt.Receptor>
prm/pocket_docking_2.prm

>  <SCORE>
-48.7916

>  <SCORE.INTER>
-49.0134

>  <SCORE.INTER.CONST>
1

>  <SCORE.INTER.POLAR>
-8.31043

>  <SCORE.INTER.ROT>
6

>  <SCORE.INTER.SOLV>
27.5053

>  <SCORE.INTER.VDW>
-21.7426

>  <SCORE.INTER.norm>
-1.53167

>  <SCORE.INTRA>
-1.05649

>  <SCORE.INTRA.DIHEDRAL>
-6.8109

>  <SCORE.INTRA.DIHEDRAL.0>
22.9177

>  <SCORE.INTRA.POLAR>
0.267555

>  <SCORE.INTRA.POLAR.0>
-0.311208

>  <SCORE.INTRA.REPUL>
0.00760137

>  <SCORE.INTRA.REPUL.0>
0

>  <SCORE.INTRA.SOLV>
-1.35359

>  <SCORE.INTRA.SOLV.lig_0>
-132.657

>  <SCORE.INTRA.VDW>
2.07806

>  <SCORE.INTRA.VDW.0>
-4.68867

>  <SCORE.INTRA.norm>
-0.0330154

>  <SCORE.RESTR>
1.27829

>  <SCORE.RESTR.CAVITY>
1.27829

>  <SCORE.RESTR.norm>
0.0399466

>  <SCORE.SYSTEM>
0

>  <SCORE.SYSTEM.CONST>
0

>  <SCORE.SYSTEM.DIHEDRAL>
0

>  <SCORE.SYSTEM.SOLV>
0

>  <SCORE.SYSTEM.norm>
0

>  <SCORE.heavy>
32

>  <SCORE.norm>
-1.52474

>  <RMSD>
2.115

$$$$
1tob
 OpenBabel11021811413D
libRbt.so/2013.1/901 2013/11/27
 32 34  0  0  0  0  0  0  0  0999 V2000
   -3.4542    4.1505    3.3358 C   0  0  2  0  0  0  0  0  0  0  0  0
   -2.6896    4.4917    4.6125 C   0  0  1  0  0  0  0  0  0  0  0  0
   -1.1957    4.5308    4.3206 C   0  0  2  0  0  0  0  0  0  0  0  0
   -0.7654    3.2043    3.7060 C   0  0  1  0  0  0  0  0  0  0  0  0
   -1.6010    2.9139    2.4623 C   0  0  1  0  0  0  0  0  0  0  0  0
   -1.2723    1.5676    1.8476 C   0  0  0  0  0  0  0  0  0  0  0  0
   -3.1149    5.7551    5.1028 O   0  0  0  0  0  0  0  0  0  0  0  0
   -0.4219    4.8519    5.5394 N   0  3  0  0  0  0  0  0  0  0  0  0
    0.6138    3.2565    3.3668 O   0  0  0  0  0  0  0  0  0  0  0  0
   -3.0045    2.8989    2.8016 O   0  0  0  0  0  0  0  0  0  0  0  0
   -1.6601    0.4993    2.6999 O   0  0  0  0  0  0  0  0  0  0  0  0
   -5.3911    4.5376    1.4199 C   0  0  2  0  0  0  0  0  0  0  0  0
   -6.6601    5.1175    0.8104 C   0  0  0  0  0  0  0  0  0  0  0  0
   -7.3497    6.0542    1.8026 C   0  0  1  0  0  0  0  0  0  0  0  0
   -6.4046    7.1938    2.1764 C   0  0  2  0  0  0  0  0  0  0  0  0
   -5.1193    6.6292    2.7836 C   0  0  1  0  0  0  0  0  0  0  0  0
   -4.4501    5.6708    1.7990 C   0  0  1  0  0  0  0  0  0  0  0  0
   -4.7019    3.6560    0.4523 N   0  3  0  0  0  0  0  0  0  0  0  0
   -8.6288    6.5459    1.2280 N   0  3  0  0  0  0  0  0  0  0  0  0
   -4.2309    7.6912    3.1043 O   0  0  0  0  0  0  0  0  0  0  0  0
   -3.2506    5.1304    2.3823 O   0  0  0  0  0  0  0  0  0  0  0  0
   -6.5284    9.3704    3.1819 C   0  0  1  0  0  0  0  0  0  0  0  0
   -6.8862   10.0159    4.5217 C   0  0  1  0  0  0  0  0  0  0  0  0
   -8.3953   10.1560    4.6533 C   0  0  0  0  0  0  0  0  0  0  0  0
   -8.9325   10.9297    3.4603 C   0  0  1  0  0  0  0  0  0  0  0  0
   -8.5152   10.2351    2.1645 C   0  0  1  0  0  0  0  0  0  0  0  0
   -8.9686   10.9864    0.9259 C   0  0  0  0  0  0  0  0  0  0  0  0
   -6.2980    9.2599    5.6526 N   0  3  0  0  0  0  0  0  0  0  0  0
   -8.4160   12.3617    0.8923 N   0  3  0  0  0  0  0  0  0  0  0  0
   -7.0430    8.0824    3.1162 O   0  0  0  0  0  0  0  0  0  0  0  0
  -10.3485   11.0108    3.5323 O   0  0  0  0  0  0  0  0  0  0  0  0
   -7.0765   10.1300    2.0975 O   0  0  0  0  0  0  0  0  0  0  0  0
  1  2  1  0  0  0  0
  1 10  1  0  0  0  0
  1 21  1  6  0  0  0
  2  3  1  0  0  0  0
  2  7  1  6  0  0  0
  3  4  1  0  0  0  0
  3  8  1  1  0  0  0
  4  5  1  0  0  0  0
  4  9  1  6  0  0  0
  5  6  1  1  0  0  0
  5 10  1  0  0  0  0
  6 11  1  0  0  0  0
 12 13  1  0  0  0  0
 12 17  1  0  0  0  0
 12 18  1  6  0  0  0
 13 14  1  0  0  0  0
 14 15  1  0  0  0  0
 14 19  1  6  0  0  0
 15 16  1  0  0  0  0
 15 30  1  1  0  0  0
 16 17  1  0  0  0  0
 16 20  1  6  0  0  0
 17 21  1  1  0  0  0
 22 23  1  0  0  0  0
 22 30  1  1  0  0  0
 22 32  1  0  0  0  0
 23 24  1  0  0  0  0
 23 28  1  1  0  0  0
 24 25  1  0  0  0  0
 25 26  1  0  0  0  0
 25 31  1  1  0  0  0
 26 27  1  6  0  0  0
 26 32  1  0  0  0  0
 27 29  1  0  0  0  0
M  CHG  5   8   1  18   1  19   1  28   1  29   1
M  END
>  <CHROM.1>
-128.25301210,60.17108034,-63.73402114,176.48793224,67.06423504,-57.84532601
-65.09998757,177.45300084,-157.95212364,-60.61569835,-46.25743907,-158.11715790
-49.61673242,174.33479296,59.03339290,-174.22097653,-5.04838849,6.53051141
2.88283862,0.56209734,0.62777048,-2.46053547

>  <Name>
1tob

>  <RI>
0

>  <Rbt.Current_Directory>
/home/itssahil/PROJECTS/Mol_Feturizer/New_Systems/rnas/1tob

>  <Rbt.Executable>
rbdock ($Id: //depot/dev/client3/rdock/2013.1/src/exe/rbdock.cxx#4 $)

>  <Rbt.Library>
libRbt.so (2013.1, Build901 2013/11/27)

>  <Rbt.Parameter_File>
/export/apps/rDock/src/rDock_2013.1_src/data/scripts/dock_solv.prm

>  <Rbt.Receptor>
prm/pocket_docking_3.prm

>  <SCORE>
-50.3636

>  <SCORE.INTER>
-44.9959

>  <SCORE.INTER.CONST>
1

>  <SCORE.INTER.POLAR>
-7.17851

>  <SCORE.INTER.ROT>
6

>  <SCORE.INTER.SOLV>
28.8973

>  <SCORE.INTER.VDW>
-23.3013

>  <SCORE.INTER.norm>
-1.40612

>  <SCORE.INTRA>
-5.36776

>  <SCORE.INTRA.DIHEDRAL>
-9.99401

>  <SCORE.INTRA.DIHEDRAL.0>
22.9177

>  <SCORE.INTRA.POLAR>
-0.172544

>  <SCORE.INTRA.POLAR.0>
-0.311208

>  <SCORE.INTRA.REPUL>
0

>  <SCORE.INTRA.REPUL.0>
0

>  <SCORE.INTRA.SOLV>
-1.91485

>  <SCORE.INTRA.SOLV.lig_0>
-132.657

>  <SCORE.INTRA.VDW>
1.17332

>  <SCORE.INTRA.VDW.0>
-4.68867

>  <SCORE.INTRA.norm>
-0.167742

>  <SCORE.RESTR>
0

>  <SCORE.RESTR.CAVITY>
0

>  <SCORE.RESTR.norm>
0

>  <SCORE.SYSTEM>
0

>  <SCORE.SYSTEM.CONST>
0

>  <SCORE.SYSTEM.DIHEDRAL>
0

>  <SCORE.SYSTEM.SOLV>
0

>  <SCORE.SYSTEM.norm>
0

>  <SCORE.heavy>
32

>  <SCORE.norm>
-1.57386

>  <RMSD>
2.117

$$$$
1tob
 OpenBabel11021811413D
libRbt.so/2013.1/901 2013/11/27
 32 34  0  0  0  0  0  0  0  0999 V2000
   -3.5359    4.1997    3.2840 C   0  0  2  0  0  0  0  0  0  0  0  0
   -2.7672    4.5434    4.5577 C   0  0  1  0  0  0  0  0  0  0  0  0
   -1.2740    4.5774    4.2619 C   0  0  2  0  0  0  0  0  0  0  0  0
   -0.8489    3.2475    3.6510 C   0  0  1  0  0  0  0  0  0  0  0  0
   -1.6883    2.9550    2.4104 C   0  0  1  0  0  0  0  0  0  0  0  0
   -1.3648    1.6056    1.7997 C   0  0  0  0  0  0  0  0  0  0  0  0
   -3.1879    5.8097    5.0445 O   0  0  0  0  0  0  0  0  0  0  0  0
   -0.4963    4.9006    5.4777 N   0  3  0  0  0  0  0  0  0  0  0  0
    0.5296    3.2946    3.3082 O   0  0  0  0  0  0  0  0  0  0  0  0
   -3.0910    2.9450    2.7532 O   0  0  0  0  0  0  0  0  0  0  0  0
   -1.8104    0.5409    2.6279 O   0  0  0  0  0  0  0  0  0  0  0  0
   -5.4768    4.5980    1.3646 C   0  0  2  0  0  0  0  0  0  0  0  0
   -6.7460    5.1872    0.7644 C   0  0  0  0  0  0  0  0  0  0  0  0
   -7.4303    6.1161    1.7677 C   0  0  1  0  0  0  0  0  0  0  0  0
   -6.4810    7.2495    2.1498 C   0  0  2  0  0  0  0  0  0  0  0  0
   -5.1956    6.6755    2.7477 C   0  0  1  0  0  0  0  0  0  0  0  0
   -4.5317    5.7249    1.7520 C   0  0  1  0  0  0  0  0  0  0  0  0
   -4.7928    3.7240    0.3865 N   0  3  0  0  0  0  0  0  0  0  0  0
   -8.7097    6.6168    1.2016 N   0  3  0  0  0  0  0  0  0  0  0  0
   -4.3034    7.7320    3.0763 O   0  0  0  0  0  0  0  0  0  0  0  0
   -3.3320    5.1757    2.3266 O   0  0  0  0  0  0  0  0  0  0  0  0
   -6.5999    9.4182    3.1726 C   0  0  1  0  0  0  0  0  0  0  0  0
   -6.9390   10.0485    4.5245 C   0  0  1  0  0  0  0  0  0  0  0  0
   -8.4461   10.1858    4.6793 C   0  0  0  0  0  0  0  0  0  0  0  0
   -9.0009   10.9721    3.5027 C   0  0  1  0  0  0  0  0  0  0  0  0
   -8.6017   10.2923    2.1934 C   0  0  1  0  0  0  0  0  0  0  0  0
   -9.0733   11.0569    0.9699 C   0  0  0  0  0  0  0  0  0  0  0  0
   -6.3340    9.2806    5.6384 N   0  3  0  0  0  0  0  0  0  0  0  0
   -8.2616   12.2770    0.7457 N   0  3  0  0  0  0  0  0  0  0  0  0
   -7.1143    8.1306    3.1001 O   0  0  0  0  0  0  0  0  0  0  0  0
  -10.4158   11.0511    3.5958 O   0  0  0  0  0  0  0  0  0  0  0  0
   -7.1640   10.1893    2.1047 O   0  0  0  0  0  0  0  0  0  0  0  0
  1  2  1  0  0  0  0
  1 10  1  0  0  0  0
  1 21  1  6  0  0  0
  2  3  1  0  0  0  0
  2  7  1  6  0  0  0
  3  4  1  0  0  0  0
  3  8  1  1  0  0  0
  4  5  1  0  0  0  0
  4  9  1  6  0  0  0
  5  6  1  1  0  0  0
  5 10  1  0  0  0  0
  6 11  1  0  0  0  0
 12 13  1  0  0  0  0
 12 17  1  0  0  0  0
 12 18  1  6  0  0  0
 13 14  1  0  0  0  0
 14 15  1  0  0  0  0
 14 19  1  6  0  0  0
 15 16  1  0  0  0  0
 15 30  1  1  0  0  0
 16 17  1  0  0  0  0
 16 20  1  6  0  0  0
 17 21  1  1  0  0  0
 22 23  1  0  0  0  0
 22 30  1  1  0  0  0
 22 32  1  0  0  0  0
 23 24  1  0  0  0  0
 23 28  1  1  0  0  0
 24 25  1  0  0  0  0
 25 26  1  0  0  0  0
 25 31  1  1  0  0  0
 26 27  1  6  0  0  0
 26 32  1  0  0  0  0
 27 29  1  0  0  0  0
M  CHG  5   8   1  18   1  19   1  28   1  29   1
M  END
>  <CHROM.1>
-127.77696843,178.92854799,177.76777847,-49.99119482,69.82834783,83.39877158
-64.52535189,73.20451046,-157.68400125,171.35299250,-47.08614528,-157.58773625
-49.00287673,-56.34654133,74.13750316,-174.45120499,-5.11855939,6.57283683
2.85352517,0.56692919,0.62372771,-2.45860819

>  <Name>
1tob

>  <RI>
0

>  <Rbt.Current_Directory>
/home/itssahil/PROJECTS/Mol_Feturizer/New_Systems/rnas/1tob

>  <Rbt.Executable>
rbdock ($Id: //depot/dev/client3/rdock/2013.1/src/exe/rbdock.cxx#4 $)

>  <Rbt.Library>
libRbt.so (2013.1, Build901 2013/11/27)

>  <Rbt.Parameter_File>
/export/apps/rDock/src/rDock_2013.1_src/data/scripts/dock_solv.prm

>  <Rbt.Receptor>
prm/pocket_docking_5.prm

>  <SCORE>
-56.2056

>  <SCORE.INTER>
-50.6207

>  <SCORE.INTER.CONST>
1

>  <SCORE.INTER.POLAR>
-8.24986

>  <SCORE.INTER.ROT>
6

>  <SCORE.INTER.SOLV>
28.3556

>  <SCORE.INTER.VDW>
-23.2995

>  <SCORE.INTER.norm>
-1.5819

>  <SCORE.INTRA>
-5.58483

>  <SCORE.INTRA.DIHEDRAL>
-5.63977

>  <SCORE.INTRA.DIHEDRAL.0>
22.9177

>  <SCORE.INTRA.POLAR>
-0.874634

>  <SCORE.INTRA.POLAR.0>
-0.311208

>  <SCORE.INTRA.REPUL>
0

>  <SCORE.INTRA.REPUL.0>
0

>  <SCORE.INTRA.SOLV>
-1.52878

>  <SCORE.INTRA.SOLV.lig_0>
-132.657

>  <SCORE.INTRA.VDW>
0.973203

>  <SCORE.INTRA.VDW.0>
-4.68867

>  <SCORE.INTRA.norm>
-0.174526

>  <SCORE.RESTR>
0

>  <SCORE.RESTR.CAVITY>
0

>  <SCORE.RESTR.norm>
0

>  <SCORE.SYSTEM>
0

>  <SCORE.SYSTEM.CONST>
0

>  <SCORE.SYSTEM.DIHEDRAL>
0

>  <SCORE.SYSTEM.SOLV>
0

>  <SCORE.SYSTEM.norm>
0

>  <SCORE.heavy>
32

>  <SCORE.norm>
-1.75642

>  <RMSD>
2.122

$$$$
1tob
 OpenBabel11021811413D
libRbt.so/2013.1/901 2013/11/27
 32 34  0  0  0  0  0  0  0  0999 V2000
   -3.1415    4.1937    3.9056 C   0  0  2  0  0  0  0  0  0  0  0  0
   -2.1788    4.6255    5.0092 C   0  0  1  0  0  0  0  0  0  0  0  0
   -0.7531    4.2623    4.6170 C   0  0  2  0  0  0  0  0  0  0  0  0
   -0.6769    2.7714    4.3108 C   0  0  1  0  0  0  0  0  0  0  0  0
   -1.6943    2.4110    3.2317 C   0  0  1  0  0  0  0  0  0  0  0  0
   -1.7208    0.9242    2.9369 C   0  0  0  0  0  0  0  0  0  0  0  0
   -2.2777    6.0281    5.2099 O   0  0  0  0  0  0  0  0  0  0  0  0
    0.2076    4.6602    5.6687 N   0  3  0  0  0  0  0  0  0  0  0  0
    0.6345    2.4360    3.8773 O   0  0  0  0  0  0  0  0  0  0  0  0
   -3.0217    2.7871    3.6580 O   0  0  0  0  0  0  0  0  0  0  0  0
   -1.7664    0.1587    4.1327 O   0  0  0  0  0  0  0  0  0  0  0  0
   -4.9055    4.2882    1.5834 C   0  0  2  0  0  0  0  0  0  0  0  0
   -6.1161    4.8755    0.8709 C   0  0  0  0  0  0  0  0  0  0  0  0
   -6.8886    5.8048    1.8074 C   0  0  1  0  0  0  0  0  0  0  0  0
   -5.9785    6.9396    2.2720 C   0  0  2  0  0  0  0  0  0  0  0  0
   -4.7516    6.3675    2.9837 C   0  0  1  0  0  0  0  0  0  0  0  0
   -4.0000    5.4165    2.0529 C   0  0  1  0  0  0  0  0  0  0  0  0
   -4.1355    3.4138    0.6718 N   0  3  0  0  0  0  0  0  0  0  0  0
   -8.1124    6.3036    1.1279 N   0  3  0  0  0  0  0  0  0  0  0  0
   -3.8934    7.4252    3.3899 O   0  0  0  0  0  0  0  0  0  0  0  0
   -2.8564    4.8691    2.7337 O   0  0  0  0  0  0  0  0  0  0  0  0
   -6.2648    9.1409    3.1863 C   0  0  1  0  0  0  0  0  0  0  0  0
   -6.7775    9.8405    4.4463 C   0  0  1  0  0  0  0  0  0  0  0  0
   -8.2979    9.8918    4.4395 C   0  0  0  0  0  0  0  0  0  0  0  0
   -8.7708   10.5576    3.1575 C   0  0  1  0  0  0  0  0  0  0  0  0
   -8.2001    9.8155    1.9496 C   0  0  1  0  0  0  0  0  0  0  0  0
   -8.5843   10.4618    0.6310 C   0  0  0  0  0  0  0  0  0  0  0  0
   -6.2491    9.1918    5.6696 N   0  3  0  0  0  0  0  0  0  0  0  0
  -10.0519   10.4397    0.4226 N   0  3  0  0  0  0  0  0  0  0  0  0
   -6.6955    7.8211    3.1604 O   0  0  0  0  0  0  0  0  0  0  0  0
  -10.1899   10.5525    3.1032 O   0  0  0  0  0  0  0  0  0  0  0  0
   -6.7575    9.7985    2.0124 O   0  0  0  0  0  0  0  0  0  0  0  0
  1  2  1  0  0  0  0
  1 10  1  0  0  0  0
  1 21  1  6  0  0  0
  2  3  1  0  0  0  0
  2  7  1  6  0  0  0
  3  4  1  0  0  0  0
  3  8  1  1  0  0  0
  4  5  1  0  0  0  0
  4  9  1  6  0  0  0
  5  6  1  1  0  0  0
  5 10  1  0  0  0  0
  6 11  1  0  0  0  0
 12 13  1  0  0  0  0
 12 17  1  0  0  0  0
 12 18  1  6  0  0  0
 13 14  1  0  0  0  0
 14 15  1  0  0  0  0
 14 19  1  6  0  0  0
 15 16  1  0  0  0  0
 15 30  1  1  0  0  0
 16 17  1  0  0  0  0
 16 20  1  6  0  0  0
 17 21  1  1  0  0  0
 22 23  1  0  0  0  0
 22 30  1  1  0  0  0
 22 32  1  0  0  0  0
 23 24  1  0  0  0  0
 23 28  1  1  0  0  0
 24 25  1  0  0  0  0
 25 26  1  0  0  0  0
 25 31  1  6  0  0  0
 26 27  1  6  0  0  0
 26 32  1  0  0  0  0
 27 29  1  0  0  0  0
M  CHG  5   8   1  18   1  19   1  28   1  29   1
M  END
>  <CHROM.1>
-133.88377979,175.75265114,-40.32276818,67.32602601,47.13434801,176.55441014
42.84010529,76.15626764,-152.10649761,73.73310040,-64.59049677,-161.94734036
-174.46234583,-46.95286821,-62.79548960,170.75069386,-4.82911849,6.19299819
3.08567314,-0.48988273,-0.64296421,0.63317740

>  <Name>
1tob

>  <RI>
0

>  <Rbt.Current_Directory>
/home/itssahil/PROJECTS/Mol_Feturizer/New_Systems/rnas/1tob

>  <Rbt.Executable>
rbdock ($Id: //depot/dev/client3/rdock/2013.1/src/exe/rbdock.cxx#4 $)

>  <Rbt.Library>
libRbt.so (2013.1, Build901 2013/11/27)

>  <Rbt.Parameter_File>
/export/apps/rDock/src/rDock_2013.1_src/data/scripts/dock_solv.prm

>  <Rbt.Receptor>
prm/pocket_docking_2.prm

>  <SCORE>
-55.3839

>  <SCORE.INTER>
-54.7615

>  <SCORE.INTER.CONST>
1

>  <SCORE.INTER.POLAR>
-9.32673

>  <SCORE.INTER.ROT>
6

>  <SCORE.INTER.SOLV>
29.9638

>  <SCORE.INTER.VDW>
-23.0065

>  <SCORE.INTER.norm>
-1.7113

>  <SCORE.INTRA>
-2.21421

>  <SCORE.INTRA.DIHEDRAL>
-6.78431

>  <SCORE.INTRA.DIHEDRAL.0>
22.9177

>  <SCORE.INTRA.POLAR>
-0.362577

>  <SCORE.INTRA.POLAR.0>
-0.311208

>  <SCORE.INTRA.REPUL>
0

>  <SCORE.INTRA.REPUL.0>
0

>  <SCORE.INTRA.SOLV>
0.424069

>  <SCORE.INTRA.SOLV.lig_0>
-132.657

>  <SCORE.INTRA.VDW>
2.19868

>  <SCORE.INTRA.VDW.0>
-4.68867

>  <SCORE.INTRA.norm>
-0.0691939

>  <SCORE.RESTR>
1.59184

>  <SCORE.RESTR.CAVITY>
1.59184

>  <SCORE.RESTR.norm>
0.0497449

>  <SCORE.SYSTEM>
0

>  <SCORE.SYSTEM.CONST>
0

>  <SCORE.SYSTEM.DIHEDRAL>
0

>  <SCORE.SYSTEM.SOLV>
0

>  <SCORE.SYSTEM.norm>
0

>  <SCORE.heavy>
32

>  <SCORE.norm>
-1.73075

>  <RMSD>
2.168

$$$$
1tob
 OpenBabel11021811413D
libRbt.so/2013.1/901 2013/11/27
 32 34  0  0  0  0  0  0  0  0999 V2000
   -3.6885    4.8224    3.7918 C   0  0  2  0  0  0  0  0  0  0  0  0
   -2.6409    4.9885    4.8900 C   0  0  1  0  0  0  0  0  0  0  0  0
   -1.2590    4.6773    4.3317 C   0  0  2  0  0  0  0  0  0  0  0  0
   -1.2632    3.2816    3.7196 C   0  0  1  0  0  0  0  0  0  0  0  0
   -2.3609    3.1817    2.6640 C   0  0  1  0  0  0  0  0  0  0  0  0
   -2.4667    1.7904    2.0712 C   0  0  0  0  0  0  0  0  0  0  0  0
   -2.6696    6.3205    5.3824 O   0  0  0  0  0  0  0  0  0  0  0  0
   -0.2180    4.8211    5.3724 N   0  3  0  0  0  0  0  0  0  0  0  0
    0.0032    3.0092    3.1348 O   0  0  0  0  0  0  0  0  0  0  0  0
   -3.6422    3.4959    3.2513 O   0  0  0  0  0  0  0  0  0  0  0  0
   -1.3646    1.5028    1.2222 O   0  0  0  0  0  0  0  0  0  0  0  0
   -5.5898    5.1542    1.7848 C   0  0  2  0  0  0  0  0  0  0  0  0
   -6.8381    5.7493    1.1478 C   0  0  0  0  0  0  0  0  0  0  0  0
   -7.5220    6.7166    2.1144 C   0  0  1  0  0  0  0  0  0  0  0  0
   -6.5589    7.8430    2.4824 C   0  0  2  0  0  0  0  0  0  0  0  0
   -5.2940    7.2627    3.1170 C   0  0  1  0  0  0  0  0  0  0  0  0
   -4.6310    6.2743    2.1582 C   0  0  1  0  0  0  0  0  0  0  0  0
   -4.9056    4.2425    0.8419 N   0  3  0  0  0  0  0  0  0  0  0  0
   -8.7827    7.2243    1.5136 N   0  3  0  0  0  0  0  0  0  0  0  0
   -4.3885    8.3118    3.4326 O   0  0  0  0  0  0  0  0  0  0  0  0
   -3.4511    5.7197    2.7674 O   0  0  0  0  0  0  0  0  0  0  0  0
   -6.6084   10.0159    3.5021 C   0  0  1  0  0  0  0  0  0  0  0  0
   -6.7037   10.5265    4.9409 C   0  0  1  0  0  0  0  0  0  0  0  0
   -8.1603   10.7023    5.3428 C   0  0  0  0  0  0  0  0  0  0  0  0
   -8.8491   11.6162    4.3425 C   0  0  1  0  0  0  0  0  0  0  0  0
   -8.6904   11.0501    2.9318 C   0  0  1  0  0  0  0  0  0  0  0  0
   -9.3054   11.9440    1.8703 C   0  0  0  0  0  0  0  0  0  0  0  0
   -5.9740    9.6350    5.8733 N   0  3  0  0  0  0  0  0  0  0  0  0
   -8.5725   13.2270    1.7494 N   0  3  0  0  0  0  0  0  0  0  0  0
   -7.1918    8.7602    3.3981 O   0  0  0  0  0  0  0  0  0  0  0  0
  -10.2271   11.7366    4.6641 O   0  0  0  0  0  0  0  0  0  0  0  0
   -7.2905   10.9047    2.6088 O   0  0  0  0  0  0  0  0  0  0  0  0
  1  2  1  0  0  0  0
  1 10  1  0  0  0  0
  1 21  1  6  0  0  0
  2  3  1  0  0  0  0
  2  7  1  6  0  0  0
  3  4  1  0  0  0  0
  3  8  1  1  0  0  0
  4  5  1  0  0  0  0
  4  9  1  6  0  0  0
  5  6  1  1  0  0  0
  5 10  1  0  0  0  0
  6 11  1  0  0  0  0
 12 13  1  0  0  0  0
 12 17  1  0  0  0  0
 12 18  1  6  0  0  0
 13 14  1  0  0  0  0
 14 15  1  0  0  0  0
 14 19  1  6  0  0  0
 15 16  1  0  0  0  0
 15 30  1  1  0  0  0
 16 17  1  0  0  0  0
 16 20  1  6  0  0  0
 17 21  1  1  0  0  0
 22 23  1  0  0  0  0
 22 30  1  1  0  0  0
 22 32  1  0  0  0  0
 23 24  1  0  0  0  0
 23 28  1  1  0  0  0
 24 25  1  0  0  0  0
 25 26  1  0  0  0  0
 25 31  1  1  0  0  0
 26 27  1  6  0  0  0
 26 32  1  0  0  0  0
 27 29  1  0  0  0  0
M  CHG  5   8   1  18   1  19   1  28   1  29   1
M  END
>  <CHROM.1>
-143.00379843,-177.40073824,-166.28386984,-50.75127035,-71.68593782,62.05763437
47.76317095,60.19528134,-161.25317466,-63.01725501,-50.13056951,-144.32714907
145.91190610,-46.83264717,67.02629077,-61.36727600,-5.18884936,7.08107848
3.20084083,-0.64179328,-0.61510025,0.69233173

>  <Name>
1tob

>  <RI>
0

>  <Rbt.Current_Directory>
/home/itssahil/PROJECTS/Mol_Feturizer/New_Systems/rnas/1tob

>  <Rbt.Executable>
rbdock ($Id: //depot/dev/client3/rdock/2013.1/src/exe/rbdock.cxx#4 $)

>  <Rbt.Library>
libRbt.so (2013.1, Build901 2013/11/27)

>  <Rbt.Parameter_File>
/export/apps/rDock/src/rDock_2013.1_src/data/scripts/dock_solv.prm

>  <Rbt.Receptor>
prm/pocket_docking_2.prm

>  <SCORE>
-45.4158

>  <SCORE.INTER>
-44.5628

>  <SCORE.INTER.CONST>
1

>  <SCORE.INTER.POLAR>
-7.86681

>  <SCORE.INTER.ROT>
6

>  <SCORE.INTER.SOLV>
27.6465

>  <SCORE.INTER.VDW>
-20.3014

>  <SCORE.INTER.norm>
-1.39259

>  <SCORE.INTRA>
-2.56107

>  <SCORE.INTRA.DIHEDRAL>
-6.32391

>  <SCORE.INTRA.DIHEDRAL.0>
22.9177

>  <SCORE.INTRA.POLAR>
-0.983225

>  <SCORE.INTRA.POLAR.0>
-0.311208

>  <SCORE.INTRA.REPUL>
0

>  <SCORE.INTRA.REPUL.0>
0

>  <SCORE.INTRA.SOLV>
-0.0658682

>  <SCORE.INTRA.SOLV.lig_0>
-132.657

>  <SCORE.INTRA.VDW>
3.97678

>  <SCORE.INTRA.VDW.0>
-4.68867

>  <SCORE.INTRA.norm>
-0.0800335

>  <SCORE.RESTR>
1.70806

>  <SCORE.RESTR.CAVITY>
1.70806

>  <SCORE.RESTR.norm>
0.0533768

>  <SCORE.SYSTEM>
0

>  <SCORE.SYSTEM.CONST>
0

>  <SCORE.SYSTEM.DIHEDRAL>
0

>  <SCORE.SYSTEM.SOLV>
0

>  <SCORE.SYSTEM.norm>
0

>  <SCORE.heavy>
32

>  <SCORE.norm>
-1.41925

>  <RMSD>
2.175

$$$$
1tob
 OpenBabel11021811413D
libRbt.so/2013.1/901 2013/11/27
 32 34  0  0  0  0  0  0  0  0999 V2000
   -3.0624    3.8106    3.4705 C   0  0  2  0  0  0  0  0  0  0  0  0
   -2.4055    4.2900    4.7627 C   0  0  1  0  0  0  0  0  0  0  0  0
   -0.8958    4.3569    4.5762 C   0  0  2  0  0  0  0  0  0  0  0  0
   -0.3821    2.9978    4.1164 C   0  0  1  0  0  0  0  0  0  0  0  0
   -1.1137    2.5693    2.8474 C   0  0  1  0  0  0  0  0  0  0  0  0
   -0.7007    1.1868    2.3820 C   0  0  0  0  0  0  0  0  0  0  0  0
   -2.9031    5.5756    5.1051 O   0  0  0  0  0  0  0  0  0  0  0  0
   -0.2248    4.8116    5.8133 N   0  3  0  0  0  0  0  0  0  0  0  0
    1.0164    3.0694    3.8735 O   0  0  0  0  0  0  0  0  0  0  0  0
   -2.5376    2.5338    3.0852 O   0  0  0  0  0  0  0  0  0  0  0  0
   -0.6781    0.2616    3.4597 O   0  0  0  0  0  0  0  0  0  0  0  0
   -4.9474    4.2015    1.4183 C   0  0  2  0  0  0  0  0  0  0  0  0
   -6.1897    4.8321    0.8043 C   0  0  0  0  0  0  0  0  0  0  0  0
   -6.8815    5.7452    1.8168 C   0  0  1  0  0  0  0  0  0  0  0  0
   -5.9210    6.8485    2.2550 C   0  0  2  0  0  0  0  0  0  0  0  0
   -4.6622    6.2328    2.8676 C   0  0  1  0  0  0  0  0  0  0  0  0
   -3.9913    5.2982    1.8615 C   0  0  1  0  0  0  0  0  0  0  0  0
   -4.2554    3.3425    0.4325 N   0  3  0  0  0  0  0  0  0  0  0  0
   -8.1366    6.2867    1.2339 N   0  3  0  0  0  0  0  0  0  0  0  0
   -3.7589    7.2618    3.2486 O   0  0  0  0  0  0  0  0  0  0  0  0
   -2.8171    4.7095    2.4494 O   0  0  0  0  0  0  0  0  0  0  0  0
   -6.1150    9.0289    3.2410 C   0  0  1  0  0  0  0  0  0  0  0  0
   -6.6827    9.7564    4.4610 C   0  0  1  0  0  0  0  0  0  0  0  0
   -8.1999    9.8266    4.3744 C   0  0  0  0  0  0  0  0  0  0  0  0
   -8.5969   10.4763    3.0589 C   0  0  1  0  0  0  0  0  0  0  0  0
   -7.9746    9.7065    1.8946 C   0  0  1  0  0  0  0  0  0  0  0  0
   -8.2815   10.3350    0.5474 C   0  0  0  0  0  0  0  0  0  0  0  0
   -6.2270    9.1221    5.7206 N   0  3  0  0  0  0  0  0  0  0  0  0
   -7.6087   11.6471    0.3942 N   0  3  0  0  0  0  0  0  0  0  0  0
   -6.5616    7.7144    3.2144 O   0  0  0  0  0  0  0  0  0  0  0  0
  -10.0113   10.4882    2.9311 O   0  0  0  0  0  0  0  0  0  0  0  0
   -6.5375    9.6725    2.0324 O   0  0  0  0  0  0  0  0  0  0  0  0
  1  2  1  0  0  0  0
  1 10  1  0  0  0  0
  1 21  1  6  0  0  0
  2  3  1  0  0  0  0
  2  7  1  6  0  0  0
  3  4  1  0  0  0  0
  3  8  1  1  0  0  0
  4  5  1  0  0  0  0
  4  9  1  6  0  0  0
  5  6  1  1  0  0  0
  5 10  1  0  0  0  0
  6 11  1  0  0  0  0
 12 13  1  0  0  0  0
 12 17  1  0  0  0  0
 12 18  1  6  0  0  0
 13 14  1  0  0  0  0
 14 15  1  0  0  0  0
 14 19  1  6  0  0  0
 15 16  1  0  0  0  0
 15 30  1  1  0  0  0
 16 17  1  0  0  0  0
 16 20  1  6  0  0  0
 17 21  1  1  0  0  0
 22 23  1  0  0  0  0
 22 30  1  6  0  0  0
 22 32  1  0  0  0  0
 23 24  1  0  0  0  0
 23 28  1  1  0  0  0
 24 25  1  0  0  0  0
 25 26  1  0  0  0  0
 25 31  1  6  0  0  0
 26 27  1  6  0  0  0
 26 32  1  0  0  0  0
 27 29  1  0  0  0  0
M  CHG  5   8   1  18   1  19   1  28   1  29   1
M  END
>  <CHROM.1>
-119.78801855,176.20375305,-178.08076681,-49.31673538,46.30387064,65.28484678
40.48790418,-50.07372746,-151.37188070,-64.81441752,-53.47614538,-169.47236411
-54.45364717,67.21255646,67.86457832,57.96768988,-4.61187171,6.19579626,2.94297466
0.48292535,0.66916849,-2.42828008

>  <Name>
1tob

>  <RI>
0

>  <Rbt.Current_Directory>
/home/itssahil/PROJECTS/Mol_Feturizer/New_Systems/rnas/1tob

>  <Rbt.Executable>
rbdock ($Id: //depot/dev/client3/rdock/2013.1/src/exe/rbdock.cxx#4 $)

>  <Rbt.Library>
libRbt.so (2013.1, Build901 2013/11/27)

>  <Rbt.Parameter_File>
/export/apps/rDock/src/rDock_2013.1_src/data/scripts/dock_solv.prm

>  <Rbt.Receptor>
prm/pocket_docking_3.prm

>  <SCORE>
-50.2819

>  <SCORE.INTER>
-47.4254

>  <SCORE.INTER.CONST>
1

>  <SCORE.INTER.POLAR>
-7.5236

>  <SCORE.INTER.ROT>
6

>  <SCORE.INTER.SOLV>
30.1584

>  <SCORE.INTER.VDW>
-24.191

>  <SCORE.INTER.norm>
-1.48204

>  <SCORE.INTRA>
-2.85655

>  <SCORE.INTRA.DIHEDRAL>
-8.52157

>  <SCORE.INTRA.DIHEDRAL.0>
22.9177

>  <SCORE.INTRA.POLAR>
0.303951

>  <SCORE.INTRA.POLAR.0>
-0.311208

>  <SCORE.INTRA.REPUL>
0.0412565

>  <SCORE.INTRA.REPUL.0>
0

>  <SCORE.INTRA.SOLV>
-1.71095

>  <SCORE.INTRA.SOLV.lig_0>
-132.657

>  <SCORE.INTRA.VDW>
1.02

>  <SCORE.INTRA.VDW.0>
-4.68867

>  <SCORE.INTRA.norm>
-0.0892671

>  <SCORE.RESTR>
0

>  <SCORE.RESTR.CAVITY>
0

>  <SCORE.RESTR.norm>
0

>  <SCORE.SYSTEM>
0

>  <SCORE.SYSTEM.CONST>
0

>  <SCORE.SYSTEM.DIHEDRAL>
0

>  <SCORE.SYSTEM.SOLV>
0

>  <SCORE.SYSTEM.norm>
0

>  <SCORE.heavy>
32

>  <SCORE.norm>
-1.57131

>  <RMSD>
2.190

$$$$
1tob
 OpenBabel11021811413D
libRbt.so/2013.1/901 2013/11/27
 32 34  0  0  0  0  0  0  0  0999 V2000
   -3.0860    4.0286    3.5441 C   0  0  2  0  0  0  0  0  0  0  0  0
   -2.3333    4.3972    4.8204 C   0  0  1  0  0  0  0  0  0  0  0  0
   -0.8336    4.3616    4.5595 C   0  0  2  0  0  0  0  0  0  0  0  0
   -0.4471    2.9915    4.0155 C   0  0  1  0  0  0  0  0  0  0  0  0
   -1.2692    2.6781    2.7684 C   0  0  1  0  0  0  0  0  0  0  0  0
   -0.9850    1.2924    2.2229 C   0  0  0  0  0  0  0  0  0  0  0  0
   -2.7150    5.6983    5.2432 O   0  0  0  0  0  0  0  0  0  0  0  0
   -0.0714    4.7070    5.7790 N   0  3  0  0  0  0  0  0  0  0  0  0
    0.9395    2.9715    3.7043 O   0  0  0  0  0  0  0  0  0  0  0  0
   -2.6786    2.7363    3.0774 O   0  0  0  0  0  0  0  0  0  0  0  0
   -1.5773    0.2851    3.0308 O   0  0  0  0  0  0  0  0  0  0  0  0
   -4.8810    4.3520    1.4290 C   0  0  2  0  0  0  0  0  0  0  0  0
   -6.1121    4.9268    0.7419 C   0  0  0  0  0  0  0  0  0  0  0  0
   -6.8837    5.8349    1.6999 C   0  0  1  0  0  0  0  0  0  0  0  0
   -5.9839    6.9794    2.1608 C   0  0  2  0  0  0  0  0  0  0  0  0
   -4.7368    6.4200    2.8470 C   0  0  1  0  0  0  0  0  0  0  0  0
   -3.9857    5.4899    1.8949 C   0  0  1  0  0  0  0  0  0  0  0  0
   -4.1124    3.4986    0.4966 N   0  3  0  0  0  0  0  0  0  0  0  0
   -8.1260    6.3208    1.0452 N   0  3  0  0  0  0  0  0  0  0  0  0
   -3.8888    7.4872    3.2496 O   0  0  0  0  0  0  0  0  0  0  0  0
   -2.8228    4.9541    2.5517 O   0  0  0  0  0  0  0  0  0  0  0  0
   -6.2783    9.1631    3.1139 C   0  0  1  0  0  0  0  0  0  0  0  0
   -6.8279    9.8523    4.3641 C   0  0  1  0  0  0  0  0  0  0  0  0
   -8.3479    9.8945    4.3179 C   0  0  0  0  0  0  0  0  0  0  0  0
   -8.7914   10.5649    3.0279 C   0  0  1  0  0  0  0  0  0  0  0  0
   -8.1849    9.8333    1.8310 C   0  0  1  0  0  0  0  0  0  0  0  0
   -8.5387   10.4849    0.5065 C   0  0  0  0  0  0  0  0  0  0  0  0
   -6.3275    9.1997    5.5970 N   0  3  0  0  0  0  0  0  0  0  0  0
   -7.8017   11.7565    0.3128 N   0  3  0  0  0  0  0  0  0  0  0  0
   -6.7001    7.8410    3.0693 O   0  0  0  0  0  0  0  0  0  0  0  0
  -10.2086   10.5516    2.9366 O   0  0  0  0  0  0  0  0  0  0  0  0
   -6.7443    9.8246    1.9313 O   0  0  0  0  0  0  0  0  0  0  0  0
  1  2  1  0  0  0  0
  1 10  1  0  0  0  0
  1 21  1  6  0  0  0
  2  3  1  0  0  0  0
  2  7  1  6  0  0  0
  3  4  1  0  0  0  0
  3  8  1  1  0  0  0
  4  5  1  0  0  0  0
  4  9  1  6  0  0  0
  5  6  1  1  0  0  0
  5 10  1  0  0  0  0
  6 11  1  0  0  0  0
 12 13  1  0  0  0  0
 12 17  1  0  0  0  0
 12 18  1  6  0  0  0
 13 14  1  0  0  0  0
 14 15  1  0  0  0  0
 14 19  1  6  0  0  0
 15 16  1  0  0  0  0
 15 30  1  1  0  0  0
 16 17  1  0  0  0  0
 16 20  1  6  0  0  0
 17 21  1  1  0  0  0
 22 23  1  0  0  0  0
 22 30  1  6  0  0  0
 22 32  1  0  0  0  0
 23 24  1  0  0  0  0
 23 28  1  1  0  0  0
 24 25  1  0  0  0  0
 25 26  1  0  0  0  0
 25 31  1  6  0  0  0
 26 27  1  6  0  0  0
 26 32  1  0  0  0  0
 27 29  1  0  0  0  0
M  CHG  5   8   1  18   1  19   1  28   1  29   1
M  END
>  <CHROM.1>
-129.78051431,167.35379362,-55.66277606,66.14060887,74.25767261,79.11912312
46.85161991,-162.00642322,-152.90856036,-65.45159144,-51.10827149,-163.98199533
-56.19478712,-59.64049092,72.92220457,-74.24440639,-4.70967658,6.29380729
2.88350449,-0.48354247,-0.66716241,0.70806659

>  <Name>
1tob

>  <RI>
0

>  <Rbt.Current_Directory>
/home/itssahil/PROJECTS/Mol_Feturizer/New_Systems/rnas/1tob

>  <Rbt.Executable>
rbdock ($Id: //depot/dev/client3/rdock/2013.1/src/exe/rbdock.cxx#4 $)

>  <Rbt.Library>
libRbt.so (2013.1, Build901 2013/11/27)

>  <Rbt.Parameter_File>
/export/apps/rDock/src/rDock_2013.1_src/data/scripts/dock_solv.prm

>  <Rbt.Receptor>
prm/pocket_docking_6.prm

>  <SCORE>
-54.0087

>  <SCORE.INTER>
-51.4487

>  <SCORE.INTER.CONST>
1

>  <SCORE.INTER.POLAR>
-8.42233

>  <SCORE.INTER.ROT>
6

>  <SCORE.INTER.SOLV>
28.2803

>  <SCORE.INTER.VDW>
-23.2515

>  <SCORE.INTER.norm>
-1.60777

>  <SCORE.INTRA>
-2.55999

>  <SCORE.INTRA.DIHEDRAL>
-5.8351

>  <SCORE.INTRA.DIHEDRAL.0>
22.9177

>  <SCORE.INTRA.POLAR>
0.0885921

>  <SCORE.INTRA.POLAR.0>
-0.311208

>  <SCORE.INTRA.REPUL>
0.00248837

>  <SCORE.INTRA.REPUL.0>
0

>  <SCORE.INTRA.SOLV>
-1.43789

>  <SCORE.INTRA.SOLV.lig_0>
-132.657

>  <SCORE.INTRA.VDW>
0.762845

>  <SCORE.INTRA.VDW.0>
-4.68867

>  <SCORE.INTRA.norm>
-0.0799998

>  <SCORE.RESTR>
0

>  <SCORE.RESTR.CAVITY>
0

>  <SCORE.RESTR.norm>
0

>  <SCORE.SYSTEM>
0

>  <SCORE.SYSTEM.CONST>
0

>  <SCORE.SYSTEM.DIHEDRAL>
0

>  <SCORE.SYSTEM.SOLV>
0

>  <SCORE.SYSTEM.norm>
0

>  <SCORE.heavy>
32

>  <SCORE.norm>
-1.68777

>  <RMSD>
2.192

$$$$
1tob
 OpenBabel11021811413D
libRbt.so/2013.1/901 2013/11/27
 32 34  0  0  0  0  0  0  0  0999 V2000
   -3.8424    4.3667    1.0471 C   0  0  2  0  0  0  0  0  0  0  0  0
   -3.1017    3.1317    1.5544 C   0  0  1  0  0  0  0  0  0  0  0  0
   -2.6138    3.3745    2.9761 C   0  0  2  0  0  0  0  0  0  0  0  0
   -1.7594    4.6361    3.0093 C   0  0  1  0  0  0  0  0  0  0  0  0
   -2.5523    5.8140    2.4497 C   0  0  1  0  0  0  0  0  0  0  0  0
   -1.7288    7.0852    2.3846 C   0  0  0  0  0  0  0  0  0  0  0  0
   -3.9708    2.0085    1.5317 O   0  0  0  0  0  0  0  0  0  0  0  0
   -1.8837    2.1989    3.4980 N   0  3  0  0  0  0  0  0  0  0  0  0
   -1.3563    4.9088    4.3446 O   0  0  0  0  0  0  0  0  0  0  0  0
   -2.9936    5.5199    1.1066 O   0  0  0  0  0  0  0  0  0  0  0  0
   -2.5396    8.2144    2.0921 O   0  0  0  0  0  0  0  0  0  0  0  0
   -7.0462    5.0185    0.6716 C   0  0  2  0  0  0  0  0  0  0  0  0
   -7.9662    6.1212    0.1659 C   0  0  0  0  0  0  0  0  0  0  0  0
   -8.4120    7.0173    1.3216 C   0  0  1  0  0  0  0  0  0  0  0  0
   -7.1894    7.6468    1.9857 C   0  0  2  0  0  0  0  0  0  0  0  0
   -6.2489    6.5528    2.4933 C   0  0  1  0  0  0  0  0  0  0  0  0
   -5.8303    5.6425    1.3392 C   0  0  1  0  0  0  0  0  0  0  0  0
   -6.5852    4.1679   -0.4474 N   0  3  0  0  0  0  0  0  0  0  0  0
   -9.3751    8.0360    0.8288 N   0  3  0  0  0  0  0  0  0  0  0  0
   -5.0993    7.1424    3.0857 O   0  0  0  0  0  0  0  0  0  0  0  0
   -4.9591    4.6059    1.8261 O   0  0  0  0  0  0  0  0  0  0  0  0
   -6.9444    9.7127    3.1840 C   0  0  1  0  0  0  0  0  0  0  0  0
   -7.0758   10.2655    4.6043 C   0  0  1  0  0  0  0  0  0  0  0  0
   -8.5364   10.5380    4.9311 C   0  0  0  0  0  0  0  0  0  0  0  0
   -9.1209   11.4648    3.8776 C   0  0  1  0  0  0  0  0  0  0  0  0
   -8.9310   10.8536    2.4899 C   0  0  1  0  0  0  0  0  0  0  0  0
   -9.4403   11.7543    1.3793 C   0  0  0  0  0  0  0  0  0  0  0  0
   -6.4460    9.3569    5.5912 N   0  3  0  0  0  0  0  0  0  0  0  0
   -8.6034   12.9699    1.2391 N   0  3  0  0  0  0  0  0  0  0  0  0
   -7.5974    8.4916    3.0813 O   0  0  0  0  0  0  0  0  0  0  0  0
  -10.5026   11.6753    4.1294 O   0  0  0  0  0  0  0  0  0  0  0  0
   -7.5288   10.6167    2.2383 O   0  0  0  0  0  0  0  0  0  0  0  0
  1  2  1  0  0  0  0
  1 10  1  0  0  0  0
  1 21  1  1  0  0  0
  2  3  1  0  0  0  0
  2  7  1  1  0  0  0
  3  4  1  0  0  0  0
  3  8  1  6  0  0  0
  4  5  1  0  0  0  0
  4  9  1  1  0  0  0
  5  6  1  6  0  0  0
  5 10  1  0  0  0  0
  6 11  1  0  0  0  0
 12 13  1  0  0  0  0
 12 17  1  0  0  0  0
 12 18  1  6  0  0  0
 13 14  1  0  0  0  0
 14 15  1  0  0  0  0
 14 19  1  6  0  0  0
 15 16  1  0  0  0  0
 15 30  1  1  0  0  0
 16 17  1  0  0  0  0
 16 20  1  6  0  0  0
 17 21  1  1  0  0  0
 22 23  1  0  0  0  0
 22 30  1  1  0  0  0
 22 32  1  0  0  0  0
 23 24  1  0  0  0  0
 23 28  1  1  0  0  0
 24 25  1  0  0  0  0
 25 26  1  0  0  0  0
 25 31  1  1  0  0  0
 26 27  1  6  0  0  0
 26 32  1  0  0  0  0
 27 29  1  0  0  0  0
M  CHG  5   8   1  18   1  19   1  28   1  29   1
M  END
>  <CHROM.1>
-172.35457593,-176.19667840,176.62101423,115.35056394,-169.51655895,174.02306839
72.29268852,-178.34111396,-137.29388589,-67.81821037,102.51280562,-159.42712598
-165.18371683,-60.90014915,68.61581279,53.66391233,-5.84785041,7.21779817
2.38314741,0.75116078,0.48143767,-2.58924331

>  <Name>
1tob

>  <RI>
0

>  <Rbt.Current_Directory>
/home/itssahil/PROJECTS/Mol_Feturizer/New_Systems/rnas/1tob

>  <Rbt.Executable>
rbdock ($Id: //depot/dev/client3/rdock/2013.1/src/exe/rbdock.cxx#4 $)

>  <Rbt.Library>
libRbt.so (2013.1, Build901 2013/11/27)

>  <Rbt.Parameter_File>
/export/apps/rDock/src/rDock_2013.1_src/data/scripts/dock_solv.prm

>  <Rbt.Receptor>
prm/pocket_docking_2.prm

>  <SCORE>
-34.7441

>  <SCORE.INTER>
-33.7181

>  <SCORE.INTER.CONST>
1

>  <SCORE.INTER.POLAR>
-5.42278

>  <SCORE.INTER.ROT>
6

>  <SCORE.INTER.SOLV>
22.1469

>  <SCORE.INTER.VDW>
-19.3851

>  <SCORE.INTER.norm>
-1.05369

>  <SCORE.INTRA>
-2.58131

>  <SCORE.INTRA.DIHEDRAL>
0.289832

>  <SCORE.INTRA.DIHEDRAL.0>
22.9177

>  <SCORE.INTRA.POLAR>
-0.473622

>  <SCORE.INTRA.POLAR.0>
-0.311208

>  <SCORE.INTRA.REPUL>
0

>  <SCORE.INTRA.REPUL.0>
0

>  <SCORE.INTRA.SOLV>
-0.671262

>  <SCORE.INTRA.SOLV.lig_0>
-132.657

>  <SCORE.INTRA.VDW>
-0.780279

>  <SCORE.INTRA.VDW.0>
-4.68867

>  <SCORE.INTRA.norm>
-0.0806659

>  <SCORE.RESTR>
1.55536

>  <SCORE.RESTR.CAVITY>
1.55536

>  <SCORE.RESTR.norm>
0.0486049

>  <SCORE.SYSTEM>
0

>  <SCORE.SYSTEM.CONST>
0

>  <SCORE.SYSTEM.DIHEDRAL>
0

>  <SCORE.SYSTEM.SOLV>
0

>  <SCORE.SYSTEM.norm>
0

>  <SCORE.heavy>
32

>  <SCORE.norm>
-1.08575

>  <RMSD>
2.193

$$$$
1tob
 OpenBabel11021811413D
libRbt.so/2013.1/901 2013/11/27
 32 34  0  0  0  0  0  0  0  0999 V2000
   -4.0645    4.7575    3.3865 C   0  0  2  0  0  0  0  0  0  0  0  0
   -3.1960    5.0190    4.6147 C   0  0  1  0  0  0  0  0  0  0  0  0
   -1.7274    4.8514    4.2493 C   0  0  2  0  0  0  0  0  0  0  0  0
   -1.5098    3.4669    3.6507 C   0  0  1  0  0  0  0  0  0  0  0  0
   -2.4401    3.2660    2.4575 C   0  0  1  0  0  0  0  0  0  0  0  0
   -2.3256    1.8755    1.8642 C   0  0  0  0  0  0  0  0  0  0  0  0
   -3.4235    6.3377    5.0908 O   0  0  0  0  0  0  0  0  0  0  0  0
   -0.8555    5.0905    5.4198 N   0  3  0  0  0  0  0  0  0  0  0  0
   -0.1554    3.3267    3.2432 O   0  0  0  0  0  0  0  0  0  0  0  0
   -3.8136    3.4463    2.8651 O   0  0  0  0  0  0  0  0  0  0  0  0
   -1.1038    1.7114    1.1584 O   0  0  0  0  0  0  0  0  0  0  0  0
   -5.8906    5.1379    1.3404 C   0  0  2  0  0  0  0  0  0  0  0  0
   -7.1094    5.7456    0.6597 C   0  0  0  0  0  0  0  0  0  0  0  0
   -7.8170    6.7203    1.6015 C   0  0  1  0  0  0  0  0  0  0  0  0
   -6.8559    7.8368    2.0033 C   0  0  2  0  0  0  0  0  0  0  0  0
   -5.6203    7.2438    2.6823 C   0  0  1  0  0  0  0  0  0  0  0  0
   -4.9341    6.2482    1.7475 C   0  0  1  0  0  0  0  0  0  0  0  0
   -5.1829    4.2188    0.4224 N   0  3  0  0  0  0  0  0  0  0  0  0
   -9.0503    7.2408    0.9565 N   0  3  0  0  0  0  0  0  0  0  0  0
   -4.7157    8.2835    3.0296 O   0  0  0  0  0  0  0  0  0  0  0  0
   -3.7823    5.6817    2.3980 O   0  0  0  0  0  0  0  0  0  0  0  0
   -6.8733    9.9793    3.0864 C   0  0  1  0  0  0  0  0  0  0  0  0
   -7.0735   10.4630    4.5238 C   0  0  1  0  0  0  0  0  0  0  0  0
   -8.5495   10.7113    4.7959 C   0  0  0  0  0  0  0  0  0  0  0  0
   -9.0927   11.6840    3.7619 C   0  0  1  0  0  0  0  0  0  0  0  0
   -8.8351   11.1408    2.3569 C   0  0  1  0  0  0  0  0  0  0  0  0
   -9.3004   12.0906    1.2681 C   0  0  0  0  0  0  0  0  0  0  0  0
   -6.4821    9.5119    5.4944 N   0  3  0  0  0  0  0  0  0  0  0  0
   -8.4061   13.2676    1.1555 N   0  3  0  0  0  0  0  0  0  0  0  0
   -7.5113    8.7608    2.8961 O   0  0  0  0  0  0  0  0  0  0  0  0
  -10.4861   11.8744    3.9599 O   0  0  0  0  0  0  0  0  0  0  0  0
   -7.4211   10.9242    2.1589 O   0  0  0  0  0  0  0  0  0  0  0  0
  1  2  1  0  0  0  0
  1 10  1  0  0  0  0
  1 21  1  6  0  0  0
  2  3  1  0  0  0  0
  2  7  1  6  0  0  0
  3  4  1  0  0  0  0
  3  8  1  1  0  0  0
  4  5  1  0  0  0  0
  4  9  1  6  0  0  0
  5  6  1  1  0  0  0
  5 10  1  0  0  0  0
  6 11  1  0  0  0  0
 12 13  1  0  0  0  0
 12 17  1  0  0  0  0
 12 18  1  6  0  0  0
 13 14  1  0  0  0  0
 14 15  1  0  0  0  0
 14 19  1  6  0  0  0
 15 16  1  0  0  0  0
 15 30  1  1  0  0  0
 16 17  1  0  0  0  0
 16 20  1  6  0  0  0
 17 21  1  1  0  0  0
 22 23  1  0  0  0  0
 22 30  1  1  0  0  0
 22 32  1  0  0  0  0
 23 24  1  0  0  0  0
 23 28  1  1  0  0  0
 24 25  1  0  0  0  0
 25 26  1  0  0  0  0
 25 31  1  1  0  0  0
 26 27  1  6  0  0  0
 26 32  1  0  0  0  0
 27 29  1  0  0  0  0
M  CHG  5   8   1  18   1  19   1  28   1  29   1
M  END
>  <CHROM.1>
-135.40625747,169.72207868,177.84750425,-54.89376805,-72.44016359,55.57334777
167.49542548,71.27144656,-165.19976932,167.07509678,-48.29453379,-145.13547066
-45.70776132,-55.96382289,72.94513232,174.95252531,-5.45348706,7.12552747
2.82849879,-0.58984425,-0.66015646,0.72679053

>  <Name>
1tob

>  <RI>
0

>  <Rbt.Current_Directory>
/home/itssahil/PROJECTS/Mol_Feturizer/New_Systems/rnas/1tob

>  <Rbt.Executable>
rbdock ($Id: //depot/dev/client3/rdock/2013.1/src/exe/rbdock.cxx#4 $)

>  <Rbt.Library>
libRbt.so (2013.1, Build901 2013/11/27)

>  <Rbt.Parameter_File>
/export/apps/rDock/src/rDock_2013.1_src/data/scripts/dock_solv.prm

>  <Rbt.Receptor>
prm/pocket_docking_2.prm

>  <SCORE>
-46.6606

>  <SCORE.INTER>
-41.3485

>  <SCORE.INTER.CONST>
1

>  <SCORE.INTER.POLAR>
-6.86402

>  <SCORE.INTER.ROT>
6

>  <SCORE.INTER.SOLV>
25.4674

>  <SCORE.INTER.VDW>
-20.7747

>  <SCORE.INTER.norm>
-1.29214

>  <SCORE.INTRA>
-6.44017

>  <SCORE.INTRA.DIHEDRAL>
-6.73156

>  <SCORE.INTRA.DIHEDRAL.0>
22.9177

>  <SCORE.INTRA.POLAR>
-1.18791

>  <SCORE.INTRA.POLAR.0>
-0.311208

>  <SCORE.INTRA.REPUL>
0

>  <SCORE.INTRA.REPUL.0>
0

>  <SCORE.INTRA.SOLV>
-0.62018

>  <SCORE.INTRA.SOLV.lig_0>
-132.657

>  <SCORE.INTRA.VDW>
1.27459

>  <SCORE.INTRA.VDW.0>
-4.68867

>  <SCORE.INTRA.norm>
-0.201255

>  <SCORE.RESTR>
1.12809

>  <SCORE.RESTR.CAVITY>
1.12809

>  <SCORE.RESTR.norm>
0.0352527

>  <SCORE.SYSTEM>
0

>  <SCORE.SYSTEM.CONST>
0

>  <SCORE.SYSTEM.DIHEDRAL>
0

>  <SCORE.SYSTEM.SOLV>
0

>  <SCORE.SYSTEM.norm>
0

>  <SCORE.heavy>
32

>  <SCORE.norm>
-1.45814

>  <RMSD>
2.213

$$$$
1tob
 OpenBabel11021811413D
libRbt.so/2013.1/901 2013/11/27
 32 34  0  0  0  0  0  0  0  0999 V2000
   -3.1633    5.2740    1.6217 C   0  0  2  0  0  0  0  0  0  0  0  0
   -2.4367    4.0552    1.0582 C   0  0  1  0  0  0  0  0  0  0  0  0
   -2.3644    2.9654    2.1191 C   0  0  2  0  0  0  0  0  0  0  0  0
   -1.7042    3.5240    3.3739 C   0  0  1  0  0  0  0  0  0  0  0  0
   -2.4606    4.7608    3.8509 C   0  0  1  0  0  0  0  0  0  0  0  0
   -1.8057    5.4093    5.0547 C   0  0  0  0  0  0  0  0  0  0  0  0
   -3.1301    3.5683   -0.0819 O   0  0  0  0  0  0  0  0  0  0  0  0
   -1.6588    1.7699    1.6090 N   0  3  0  0  0  0  0  0  0  0  0  0
   -1.6946    2.5339    4.3935 O   0  0  0  0  0  0  0  0  0  0  0  0
   -2.5023    5.7509    2.8005 O   0  0  0  0  0  0  0  0  0  0  0  0
   -1.8134    4.5419    6.1797 O   0  0  0  0  0  0  0  0  0  0  0  0
   -6.5799    4.8106    0.7873 C   0  0  2  0  0  0  0  0  0  0  0  0
   -7.6527    5.6468    0.1032 C   0  0  0  0  0  0  0  0  0  0  0  0
   -8.2382    6.6674    1.0795 C   0  0  1  0  0  0  0  0  0  0  0  0
   -7.1305    7.5875    1.5877 C   0  0  2  0  0  0  0  0  0  0  0  0
   -6.0388    6.7630    2.2716 C   0  0  1  0  0  0  0  0  0  0  0  0
   -5.4780    5.7250    1.3001 C   0  0  1  0  0  0  0  0  0  0  0  0
   -5.9865    3.8433   -0.1618 N   0  3  0  0  0  0  0  0  0  0  0  0
   -9.3409    7.4181    0.4249 N   0  3  0  0  0  0  0  0  0  0  0  0
   -4.9966    7.6199    2.7184 O   0  0  0  0  0  0  0  0  0  0  0  0
   -4.4633    4.9419    1.9543 O   0  0  0  0  0  0  0  0  0  0  0  0
   -8.4789    9.5380    1.9632 C   0  0  1  0  0  0  0  0  0  0  0  0
   -7.8083   10.9068    2.0931 C   0  0  1  0  0  0  0  0  0  0  0  0
   -7.6352   11.2721    3.5597 C   0  0  0  0  0  0  0  0  0  0  0  0
   -8.9849   11.2047    4.2554 C   0  0  1  0  0  0  0  0  0  0  0  0
   -9.5970    9.8179    4.0612 C   0  0  1  0  0  0  0  0  0  0  0  0
  -10.9768    9.6954    4.6818 C   0  0  0  0  0  0  0  0  0  0  0  0
   -6.5231   10.9437    1.3561 N   0  3  0  0  0  0  0  0  0  0  0  0
  -10.9105    9.7198    6.1626 N   0  3  0  0  0  0  0  0  0  0  0  0
   -7.6704    8.5525    2.5138 O   0  0  0  0  0  0  0  0  0  0  0  0
   -8.8308   11.4766    5.6408 O   0  0  0  0  0  0  0  0  0  0  0  0
   -9.7347    9.5278    2.6533 O   0  0  0  0  0  0  0  0  0  0  0  0
  1  2  1  0  0  0  0
  1 10  1  0  0  0  0
  1 21  1  1  0  0  0
  2  3  1  0  0  0  0
  2  7  1  6  0  0  0
  3  4  1  0  0  0  0
  3  8  1  6  0  0  0
  4  5  1  0  0  0  0
  4  9  1  1  0  0  0
  5  6  1  1  0  0  0
  5 10  1  0  0  0  0
  6 11  1  0  0  0  0
 12 13  1  0  0  0  0
 12 17  1  0  0  0  0
 12 18  1  6  0  0  0
 13 14  1  0  0  0  0
 14 15  1  0  0  0  0
 14 19  1  6  0  0  0
 15 16  1  0  0  0  0
 15 30  1  1  0  0  0
 16 17  1  0  0  0  0
 16 20  1  6  0  0  0
 17 21  1  1  0  0  0
 22 23  1  0  0  0  0
 22 30  1  1  0  0  0
 22 32  1  0  0  0  0
 23 24  1  0  0  0  0
 23 28  1  1  0  0  0
 24 25  1  0  0  0  0
 25 26  1  0  0  0  0
 25 31  1  1  0  0  0
 26 27  1  1  0  0  0
 26 32  1  0  0  0  0
 27 29  1  0  0  0  0
M  CHG  5   8   1  18   1  19   1  28   1  29   1
M  END
>  <CHROM.1>
-122.45029866,-122.31247539,-64.05748543,-171.29661730,-63.52228104,178.54856684
-24.75740197,-65.86667607,-70.76196147,-173.91412248,134.88706412,-113.58408176
179.36037732,69.90104190,-69.48362701,87.03972417,-5.84635169,6.78650530
2.61956123,0.48273425,0.62580576,-2.14740043

>  <Name>
1tob

>  <RI>
0

>  <Rbt.Current_Directory>
/home/itssahil/PROJECTS/Mol_Feturizer/New_Systems/rnas/1tob

>  <Rbt.Executable>
rbdock ($Id: //depot/dev/client3/rdock/2013.1/src/exe/rbdock.cxx#4 $)

>  <Rbt.Library>
libRbt.so (2013.1, Build901 2013/11/27)

>  <Rbt.Parameter_File>
/export/apps/rDock/src/rDock_2013.1_src/data/scripts/dock_solv.prm

>  <Rbt.Receptor>
prm/pocket_docking_2.prm

>  <SCORE>
-42.3084

>  <SCORE.INTER>
-45.9587

>  <SCORE.INTER.CONST>
1

>  <SCORE.INTER.POLAR>
-8.04232

>  <SCORE.INTER.ROT>
6

>  <SCORE.INTER.SOLV>
24.4962

>  <SCORE.INTER.VDW>
-19.5968

>  <SCORE.INTER.norm>
-1.43621

>  <SCORE.INTRA>
0.720999

>  <SCORE.INTRA.DIHEDRAL>
10.6683

>  <SCORE.INTRA.DIHEDRAL.0>
22.9177

>  <SCORE.INTRA.POLAR>
-2.71391

>  <SCORE.INTRA.POLAR.0>
-0.311208

>  <SCORE.INTRA.REPUL>
0

>  <SCORE.INTRA.REPUL.0>
0

>  <SCORE.INTRA.SOLV>
0.652486

>  <SCORE.INTRA.SOLV.lig_0>
-132.657

>  <SCORE.INTRA.VDW>
4.2879

>  <SCORE.INTRA.VDW.0>
-4.68867

>  <SCORE.INTRA.norm>
0.0225312

>  <SCORE.RESTR>
2.92928

>  <SCORE.RESTR.CAVITY>
2.92928

>  <SCORE.RESTR.norm>
0.0915399

>  <SCORE.SYSTEM>
0

>  <SCORE.SYSTEM.CONST>
0

>  <SCORE.SYSTEM.DIHEDRAL>
0

>  <SCORE.SYSTEM.SOLV>
0

>  <SCORE.SYSTEM.norm>
0

>  <SCORE.heavy>
32

>  <SCORE.norm>
-1.32214

>  <RMSD>
2.214

$$$$
1tob
 OpenBabel11021811413D
libRbt.so/2013.1/901 2013/11/27
 32 34  0  0  0  0  0  0  0  0999 V2000
   -3.4218    4.3446    3.6743 C   0  0  2  0  0  0  0  0  0  0  0  0
   -2.5294    4.7421    4.8477 C   0  0  1  0  0  0  0  0  0  0  0  0
   -1.0812    4.3939    4.5313 C   0  0  2  0  0  0  0  0  0  0  0  0
   -0.9813    2.9137    4.1826 C   0  0  1  0  0  0  0  0  0  0  0  0
   -1.9302    2.5868    3.0328 C   0  0  1  0  0  0  0  0  0  0  0  0
   -1.9336    1.1101    2.6894 C   0  0  0  0  0  0  0  0  0  0  0  0
   -2.6451    6.1374    5.0868 O   0  0  0  0  0  0  0  0  0  0  0  0
   -0.1875    4.7592    5.6516 N   0  3  0  0  0  0  0  0  0  0  0  0
    0.3551    2.5945    3.8191 O   0  0  0  0  0  0  0  0  0  0  0  0
   -3.2823    2.9469    3.3895 O   0  0  0  0  0  0  0  0  0  0  0  0
   -0.6166    0.6260    2.4670 O   0  0  0  0  0  0  0  0  0  0  0  0
   -4.9959    4.3281    1.2745 C   0  0  2  0  0  0  0  0  0  0  0  0
   -6.1662    4.8231    0.4357 C   0  0  0  0  0  0  0  0  0  0  0  0
   -7.0450    5.7716    1.2516 C   0  0  1  0  0  0  0  0  0  0  0  0
   -6.2174    6.9677    1.7167 C   0  0  2  0  0  0  0  0  0  0  0  0
   -5.0314    6.4884    2.5551 C   0  0  1  0  0  0  0  0  0  0  0  0
   -4.1731    5.5177    1.7446 C   0  0  1  0  0  0  0  0  0  0  0  0
   -4.1236    3.4357    0.4800 N   0  3  0  0  0  0  0  0  0  0  0  0
   -8.2277    6.1798    0.4499 N   0  3  0  0  0  0  0  0  0  0  0  0
   -4.2481    7.6021    2.9627 O   0  0  0  0  0  0  0  0  0  0  0  0
   -3.0686    5.0578    2.5441 O   0  0  0  0  0  0  0  0  0  0  0  0
   -6.6033    9.1864    2.5487 C   0  0  1  0  0  0  0  0  0  0  0  0
   -6.8708    9.7719    3.9363 C   0  0  1  0  0  0  0  0  0  0  0  0
   -8.3659    9.8042    4.2158 C   0  0  0  0  0  0  0  0  0  0  0  0
   -9.0668   10.5686    3.1045 C   0  0  1  0  0  0  0  0  0  0  0  0
   -8.7327    9.9371    1.7535 C   0  0  1  0  0  0  0  0  0  0  0  0
   -9.3533   10.6862    0.5883 C   0  0  0  0  0  0  0  0  0  0  0  0
   -6.1264    9.0302    4.9813 N   0  3  0  0  0  0  0  0  0  0  0  0
   -9.0513   10.0261   -0.7043 N   0  3  0  0  0  0  0  0  0  0  0  0
   -7.0353    7.8680    2.4918 O   0  0  0  0  0  0  0  0  0  0  0  0
  -10.4713   10.5500    3.3140 O   0  0  0  0  0  0  0  0  0  0  0  0
   -7.3036    9.9333    1.5461 O   0  0  0  0  0  0  0  0  0  0  0  0
  1  2  1  0  0  0  0
  1 10  1  0  0  0  0
  1 21  1  6  0  0  0
  2  3  1  0  0  0  0
  2  7  1  6  0  0  0
  3  4  1  0  0  0  0
  3  8  1  1  0  0  0
  4  5  1  0  0  0  0
  4  9  1  6  0  0  0
  5  6  1  1  0  0  0
  5 10  1  0  0  0  0
  6 11  1  0  0  0  0
 12 13  1  0  0  0  0
 12 17  1  0  0  0  0
 12 18  1  6  0  0  0
 13 14  1  0  0  0  0
 14 15  1  0  0  0  0
 14 19  1  6  0  0  0
 15 16  1  0  0  0  0
 15 30  1  1  0  0  0
 16 17  1  0  0  0  0
 16 20  1  6  0  0  0
 17 21  1  1  0  0  0
 22 23  1  0  0  0  0
 22 30  1  1  0  0  0
 22 32  1  0  0  0  0
 23 24  1  0  0  0  0
 23 28  1  1  0  0  0
 24 25  1  0  0  0  0
 25 26  1  0  0  0  0
 25 31  1  1  0  0  0
 26 27  1  6  0  0  0
 26 32  1  0  0  0  0
 27 29  1  0  0  0  0
M  CHG  5   8   1  18   1  19   1  28   1  29   1
M  END
>  <CHROM.1>
-139.48342557,66.47326070,-162.05983349,66.85220919,-52.46083120,-44.24162917
-71.34641232,-35.75326457,-156.47506047,-57.23522105,-59.60092514,-143.04946115
-118.35853423,64.16857535,-178.07245721,-160.28160946,-4.98904090,6.26626617
2.70618445,-0.39931959,-0.67877022,0.76393761

>  <Name>
1tob

>  <RI>
0

>  <Rbt.Current_Directory>
/home/itssahil/PROJECTS/Mol_Feturizer/New_Systems/rnas/1tob

>  <Rbt.Executable>
rbdock ($Id: //depot/dev/client3/rdock/2013.1/src/exe/rbdock.cxx#4 $)

>  <Rbt.Library>
libRbt.so (2013.1, Build901 2013/11/27)

>  <Rbt.Parameter_File>
/export/apps/rDock/src/rDock_2013.1_src/data/scripts/dock_solv.prm

>  <Rbt.Receptor>
prm/pocket_docking_7.prm

>  <SCORE>
-43.5981

>  <SCORE.INTER>
-41.2903

>  <SCORE.INTER.CONST>
1

>  <SCORE.INTER.POLAR>
-6.59773

>  <SCORE.INTER.ROT>
6

>  <SCORE.INTER.SOLV>
25.6841

>  <SCORE.INTER.VDW>
-21.6958

>  <SCORE.INTER.norm>
-1.29032

>  <SCORE.INTRA>
-2.30786

>  <SCORE.INTRA.DIHEDRAL>
-1.54555

>  <SCORE.INTRA.DIHEDRAL.0>
22.9177

>  <SCORE.INTRA.POLAR>
-0.932909

>  <SCORE.INTRA.POLAR.0>
-0.311208

>  <SCORE.INTRA.REPUL>
0

>  <SCORE.INTRA.REPUL.0>
0

>  <SCORE.INTRA.SOLV>
-0.270773

>  <SCORE.INTRA.SOLV.lig_0>
-132.657

>  <SCORE.INTRA.VDW>
1.7722

>  <SCORE.INTRA.VDW.0>
-4.68867

>  <SCORE.INTRA.norm>
-0.0721205

>  <SCORE.RESTR>
0

>  <SCORE.RESTR.CAVITY>
0

>  <SCORE.RESTR.norm>
0

>  <SCORE.SYSTEM>
0

>  <SCORE.SYSTEM.CONST>
0

>  <SCORE.SYSTEM.DIHEDRAL>
0

>  <SCORE.SYSTEM.SOLV>
0

>  <SCORE.SYSTEM.norm>
0

>  <SCORE.heavy>
32

>  <SCORE.norm>
-1.36244

>  <RMSD>
2.214

$$$$
1tob
 OpenBabel11021811413D
libRbt.so/2013.1/901 2013/11/27
 32 34  0  0  0  0  0  0  0  0999 V2000
   -3.1731    4.3525    3.8702 C   0  0  2  0  0  0  0  0  0  0  0  0
   -2.2311    4.6926    5.0227 C   0  0  1  0  0  0  0  0  0  0  0  0
   -0.7876    4.4928    4.5811 C   0  0  2  0  0  0  0  0  0  0  0  0
   -0.6084    3.0696    4.0664 C   0  0  1  0  0  0  0  0  0  0  0  0
   -1.6099    2.7926    2.9485 C   0  0  1  0  0  0  0  0  0  0  0  0
   -1.5333    1.3643    2.4458 C   0  0  0  0  0  0  0  0  0  0  0  0
   -2.4277    6.0419    5.4203 O   0  0  0  0  0  0  0  0  0  0  0  0
    0.1542    4.8066    5.6773 N   0  3  0  0  0  0  0  0  0  0  0  0
    0.7185    2.8948    3.5880 O   0  0  0  0  0  0  0  0  0  0  0  0
   -2.9558    3.0075    3.4255 O   0  0  0  0  0  0  0  0  0  0  0  0
   -2.6537    1.0386    1.6355 O   0  0  0  0  0  0  0  0  0  0  0  0
   -5.1078    4.6219    1.8754 C   0  0  2  0  0  0  0  0  0  0  0  0
   -6.3648    5.2043    1.2437 C   0  0  0  0  0  0  0  0  0  0  0  0
   -7.0286    6.2005    2.1948 C   0  0  1  0  0  0  0  0  0  0  0  0
   -6.0553    7.3327    2.5152 C   0  0  2  0  0  0  0  0  0  0  0  0
   -4.7818    6.7650    3.1439 C   0  0  1  0  0  0  0  0  0  0  0  0
   -4.1389    5.7480    2.2015 C   0  0  1  0  0  0  0  0  0  0  0  0
   -4.4431    3.6819    0.9465 N   0  3  0  0  0  0  0  0  0  0  0  0
   -8.2975    6.6966    1.6018 N   0  3  0  0  0  0  0  0  0  0  0  0
   -3.8673    7.8187    3.4150 O   0  0  0  0  0  0  0  0  0  0  0  0
   -2.9506    5.2056    2.8055 O   0  0  0  0  0  0  0  0  0  0  0  0
   -6.0383    9.5090    3.5287 C   0  0  1  0  0  0  0  0  0  0  0  0
   -6.3774   10.1566    4.8724 C   0  0  1  0  0  0  0  0  0  0  0  0
   -7.8702   10.4361    4.9613 C   0  0  0  0  0  0  0  0  0  0  0  0
   -8.2929   11.2825    3.7717 C   0  0  1  0  0  0  0  0  0  0  0  0
   -7.9007   10.5795    2.4727 C   0  0  1  0  0  0  0  0  0  0  0  0
   -8.2407   11.3968    1.2396 C   0  0  0  0  0  0  0  0  0  0  0  0
   -5.9001    9.3241    6.0019 N   0  3  0  0  0  0  0  0  0  0  0  0
   -8.1421   10.5830    0.0044 N   0  3  0  0  0  0  0  0  0  0  0  0
   -6.6692    8.2772    3.4160 O   0  0  0  0  0  0  0  0  0  0  0  0
   -9.6967   11.4958    3.8025 O   0  0  0  0  0  0  0  0  0  0  0  0
   -6.4769   10.3401    2.4470 O   0  0  0  0  0  0  0  0  0  0  0  0
  1  2  1  0  0  0  0
  1 10  1  0  0  0  0
  1 21  1  6  0  0  0
  2  3  1  0  0  0  0
  2  7  1  6  0  0  0
  3  4  1  0  0  0  0
  3  8  1  1  0  0  0
  4  5  1  0  0  0  0
  4  9  1  6  0  0  0
  5  6  1  1  0  0  0
  5 10  1  0  0  0  0
  6 11  1  0  0  0  0
 12 13  1  0  0  0  0
 12 17  1  0  0  0  0
 12 18  1  6  0  0  0
 13 14  1  0  0  0  0
 14 15  1  0  0  0  0
 14 19  1  6  0  0  0
 15 16  1  0  0  0  0
 15 30  1  1  0  0  0
 16 17  1  0  0  0  0
 16 20  1  6  0  0  0
 17 21  1  1  0  0  0
 22 23  1  0  0  0  0
 22 30  1  1  0  0  0
 22 32  1  0  0  0  0
 23 24  1  0  0  0  0
 23 28  1  1  0  0  0
 24 25  1  0  0  0  0
 25 26  1  0  0  0  0
 25 31  1  6  0  0  0
 26 27  1  6  0  0  0
 26 32  1  0  0  0  0
 27 29  1  0  0  0  0
M  CHG  5   8   1  18   1  19   1  28   1  29   1
M  END
>  <CHROM.1>
-134.52808811,-176.06631202,-45.39769632,-54.09527818,166.75160167,-49.33301560
-56.92164047,-55.97534491,-164.53896021,172.98984390,-51.00315718,-155.68456758
-97.40504730,66.24904115,-167.01378880,-168.38360491,-4.72655511,6.59423413
3.15902886,-0.58336491,-0.64639564,0.66680501

>  <Name>
1tob

>  <RI>
0

>  <Rbt.Current_Directory>
/home/itssahil/PROJECTS/Mol_Feturizer/New_Systems/rnas/1tob

>  <Rbt.Executable>
rbdock ($Id: //depot/dev/client3/rdock/2013.1/src/exe/rbdock.cxx#4 $)

>  <Rbt.Library>
libRbt.so (2013.1, Build901 2013/11/27)

>  <Rbt.Parameter_File>
/export/apps/rDock/src/rDock_2013.1_src/data/scripts/dock_solv.prm

>  <Rbt.Receptor>
prm/pocket_docking_3.prm

>  <SCORE>
-53.6967

>  <SCORE.INTER>
-49.8245

>  <SCORE.INTER.CONST>
1

>  <SCORE.INTER.POLAR>
-8.83893

>  <SCORE.INTER.ROT>
6

>  <SCORE.INTER.SOLV>
30.0333

>  <SCORE.INTER.VDW>
-21.3643

>  <SCORE.INTER.norm>
-1.55702

>  <SCORE.INTRA>
-3.87554

>  <SCORE.INTRA.DIHEDRAL>
-6.769

>  <SCORE.INTRA.DIHEDRAL.0>
22.9177

>  <SCORE.INTRA.POLAR>
-1.01751

>  <SCORE.INTRA.POLAR.0>
-0.311208

>  <SCORE.INTRA.REPUL>
0.00105002

>  <SCORE.INTRA.REPUL.0>
0

>  <SCORE.INTRA.SOLV>
-0.79129

>  <SCORE.INTRA.SOLV.lig_0>
-132.657

>  <SCORE.INTRA.VDW>
3.35889

>  <SCORE.INTRA.VDW.0>
-4.68867

>  <SCORE.INTRA.norm>
-0.121111

>  <SCORE.RESTR>
0.00338728

>  <SCORE.RESTR.CAVITY>
0.00338728

>  <SCORE.RESTR.norm>
0.000105852

>  <SCORE.SYSTEM>
0

>  <SCORE.SYSTEM.CONST>
0

>  <SCORE.SYSTEM.DIHEDRAL>
0

>  <SCORE.SYSTEM.SOLV>
0

>  <SCORE.SYSTEM.norm>
0

>  <SCORE.heavy>
32

>  <SCORE.norm>
-1.67802

>  <RMSD>
2.235

$$$$
1tob
 OpenBabel11021811413D
libRbt.so/2013.1/901 2013/11/27
 32 34  0  0  0  0  0  0  0  0999 V2000
   -3.2069    4.0768    3.4216 C   0  0  2  0  0  0  0  0  0  0  0  0
   -2.4847    4.4267    4.7205 C   0  0  1  0  0  0  0  0  0  0  0  0
   -0.9795    4.4083    4.4913 C   0  0  2  0  0  0  0  0  0  0  0  0
   -0.5699    3.0521    3.9296 C   0  0  1  0  0  0  0  0  0  0  0  0
   -1.3626    2.7562    2.6594 C   0  0  1  0  0  0  0  0  0  0  0  0
   -1.0551    1.3837    2.0937 C   0  0  0  0  0  0  0  0  0  0  0  0
   -2.8864    5.7164    5.1599 O   0  0  0  0  0  0  0  0  0  0  0  0
   -0.2465    4.7362    5.7333 N   0  3  0  0  0  0  0  0  0  0  0  0
    0.8231    3.0492    3.6480 O   0  0  0  0  0  0  0  0  0  0  0  0
   -2.7787    2.7971    2.9391 O   0  0  0  0  0  0  0  0  0  0  0  0
   -1.5206    0.3522    2.9525 O   0  0  0  0  0  0  0  0  0  0  0  0
   -4.9445    4.3541    1.2892 C   0  0  2  0  0  0  0  0  0  0  0  0
   -6.1604    4.8875    0.5439 C   0  0  0  0  0  0  0  0  0  0  0  0
   -6.9729    5.8187    1.4441 C   0  0  1  0  0  0  0  0  0  0  0  0
   -6.1023    6.9908    1.8913 C   0  0  2  0  0  0  0  0  0  0  0  0
   -4.8706    6.4731    2.6356 C   0  0  1  0  0  0  0  0  0  0  0  0
   -4.0785    5.5198    1.7414 C   0  0  1  0  0  0  0  0  0  0  0  0
   -4.1365    3.4784    0.4125 N   0  3  0  0  0  0  0  0  0  0  0  0
   -8.1998    6.2642    0.7341 N   0  3  0  0  0  0  0  0  0  0  0  0
   -4.0489    7.5652    3.0257 O   0  0  0  0  0  0  0  0  0  0  0  0
   -2.9303    5.0234    2.4529 O   0  0  0  0  0  0  0  0  0  0  0  0
   -6.3731    9.1709    2.8597 C   0  0  1  0  0  0  0  0  0  0  0  0
   -6.8497    9.8006    4.1697 C   0  0  1  0  0  0  0  0  0  0  0  0
   -8.3668    9.9132    4.1795 C   0  0  0  0  0  0  0  0  0  0  0  0
   -8.8196   10.6856    2.9512 C   0  0  1  0  0  0  0  0  0  0  0  0
   -8.2864   10.0076    1.6896 C   0  0  1  0  0  0  0  0  0  0  0  0
   -8.6516   10.7596    0.4226 C   0  0  0  0  0  0  0  0  0  0  0  0
   -6.3412    9.0471    5.3403 N   0  3  0  0  0  0  0  0  0  0  0  0
  -10.0438   10.4717    0.0024 N   0  3  0  0  0  0  0  0  0  0  0  0
   -6.8572    7.8745    2.7454 O   0  0  0  0  0  0  0  0  0  0  0  0
  -10.2380   10.7413    2.9088 O   0  0  0  0  0  0  0  0  0  0  0  0
   -6.8453    9.9283    1.7387 O   0  0  0  0  0  0  0  0  0  0  0  0
  1  2  1  0  0  0  0
  1 10  1  0  0  0  0
  1 21  1  6  0  0  0
  2  3  1  0  0  0  0
  2  7  1  6  0  0  0
  3  4  1  0  0  0  0
  3  8  1  1  0  0  0
  4  5  1  0  0  0  0
  4  9  1  6  0  0  0
  5  6  1  1  0  0  0
  5 10  1  0  0  0  0
  6 11  1  0  0  0  0
 12 13  1  0  0  0  0
 12 17  1  0  0  0  0
 12 18  1  6  0  0  0
 13 14  1  0  0  0  0
 14 15  1  0  0  0  0
 14 19  1  6  0  0  0
 15 16  1  0  0  0  0
 15 30  1  1  0  0  0
 16 17  1  0  0  0  0
 16 20  1  6  0  0  0
 17 21  1  1  0  0  0
 22 23  1  0  0  0  0
 22 30  1  6  0  0  0
 22 32  1  0  0  0  0
 23 24  1  0  0  0  0
 23 28  1  1  0  0  0
 24 25  1  0  0  0  0
 25 26  1  0  0  0  0
 25 31  1  6  0  0  0
 26 27  1  6  0  0  0
 26 32  1  0  0  0  0
 27 29  1  0  0  0  0
M  CHG  5   8   1  18   1  19   1  28   1  29   1
M  END
>  <CHROM.1>
-132.36424562,173.78462901,62.30377225,68.86695551,67.36583923,79.31217711
-72.73677739,-39.03892630,-159.12796680,-65.95904102,-47.81046037,-156.06061184
78.41537788,161.18679763,-80.02946775,-78.04448958,-4.87991735,6.29251453
2.72699754,-0.43678272,-0.65837575,0.73294003

>  <Name>
1tob

>  <RI>
0

>  <Rbt.Current_Directory>
/home/itssahil/PROJECTS/Mol_Feturizer/New_Systems/rnas/1tob

>  <Rbt.Executable>
rbdock ($Id: //depot/dev/client3/rdock/2013.1/src/exe/rbdock.cxx#4 $)

>  <Rbt.Library>
libRbt.so (2013.1, Build901 2013/11/27)

>  <Rbt.Parameter_File>
/export/apps/rDock/src/rDock_2013.1_src/data/scripts/dock_solv.prm

>  <Rbt.Receptor>
prm/pocket_docking_2.prm

>  <SCORE>
-48.5044

>  <SCORE.INTER>
-50.7033

>  <SCORE.INTER.CONST>
1

>  <SCORE.INTER.POLAR>
-8.2105

>  <SCORE.INTER.ROT>
6

>  <SCORE.INTER.SOLV>
26.7166

>  <SCORE.INTER.VDW>
-22.9394

>  <SCORE.INTER.norm>
-1.58448

>  <SCORE.INTRA>
0.5258

>  <SCORE.INTRA.DIHEDRAL>
-2.95288

>  <SCORE.INTRA.DIHEDRAL.0>
22.9177

>  <SCORE.INTRA.POLAR>
0.00927413

>  <SCORE.INTRA.POLAR.0>
-0.311208

>  <SCORE.INTRA.REPUL>
0

>  <SCORE.INTRA.REPUL.0>
0

>  <SCORE.INTRA.SOLV>
-0.631633

>  <SCORE.INTRA.SOLV.lig_0>
-132.657

>  <SCORE.INTRA.VDW>
2.28652

>  <SCORE.INTRA.VDW.0>
-4.68867

>  <SCORE.INTRA.norm>
0.0164312

>  <SCORE.RESTR>
1.67312

>  <SCORE.RESTR.CAVITY>
1.67312

>  <SCORE.RESTR.norm>
0.0522851

>  <SCORE.SYSTEM>
0

>  <SCORE.SYSTEM.CONST>
0

>  <SCORE.SYSTEM.DIHEDRAL>
0

>  <SCORE.SYSTEM.SOLV>
0

>  <SCORE.SYSTEM.norm>
0

>  <SCORE.heavy>
32

>  <SCORE.norm>
-1.51576

>  <RMSD>
2.237

$$$$
1tob
 OpenBabel11021811413D
libRbt.so/2013.1/901 2013/11/27
 32 34  0  0  0  0  0  0  0  0999 V2000
   -3.0404    3.9563    3.5269 C   0  0  2  0  0  0  0  0  0  0  0  0
   -2.3298    4.3962    4.8047 C   0  0  1  0  0  0  0  0  0  0  0  0
   -0.8249    4.4156    4.5738 C   0  0  2  0  0  0  0  0  0  0  0  0
   -0.3710    3.0464    4.0819 C   0  0  1  0  0  0  0  0  0  0  0  0
   -1.1538    2.6596    2.8301 C   0  0  1  0  0  0  0  0  0  0  0  0
   -0.8013    1.2706    2.3353 C   0  0  0  0  0  0  0  0  0  0  0  0
   -2.7737    5.6928    5.1780 O   0  0  0  0  0  0  0  0  0  0  0  0
   -0.1028    4.8309    5.7958 N   0  3  0  0  0  0  0  0  0  0  0  0
    1.0214    3.0749    3.7980 O   0  0  0  0  0  0  0  0  0  0  0  0
   -2.5704    2.6681    3.1101 O   0  0  0  0  0  0  0  0  0  0  0  0
   -1.9589    0.5564    1.9255 O   0  0  0  0  0  0  0  0  0  0  0  0
   -4.8707    4.2732    1.4111 C   0  0  2  0  0  0  0  0  0  0  0  0
   -6.1149    4.8572    0.7560 C   0  0  0  0  0  0  0  0  0  0  0  0
   -6.8727    5.7443    1.7441 C   0  0  1  0  0  0  0  0  0  0  0  0
   -5.9686    6.8827    2.2116 C   0  0  2  0  0  0  0  0  0  0  0  0
   -4.7084    6.3142    2.8659 C   0  0  1  0  0  0  0  0  0  0  0  0
   -3.9709    5.4048    1.8836 C   0  0  1  0  0  0  0  0  0  0  0  0
   -4.1155    3.4402    0.4497 N   0  3  0  0  0  0  0  0  0  0  0  0
   -8.1273    6.2387    1.1198 N   0  3  0  0  0  0  0  0  0  0  0  0
   -3.8567    7.3762    3.2745 O   0  0  0  0  0  0  0  0  0  0  0  0
   -2.7955    4.8603    2.5103 O   0  0  0  0  0  0  0  0  0  0  0  0
   -6.3087    9.0647    3.1533 C   0  0  1  0  0  0  0  0  0  0  0  0
   -6.8420    9.7531    4.4109 C   0  0  1  0  0  0  0  0  0  0  0  0
   -8.3631    9.7266    4.4219 C   0  0  0  0  0  0  0  0  0  0  0  0
   -8.8841   10.3513    3.1378 C   0  0  1  0  0  0  0  0  0  0  0  0
   -8.2900    9.6241    1.9321 C   0  0  1  0  0  0  0  0  0  0  0  0
   -8.7219   10.2333    0.6105 C   0  0  0  0  0  0  0  0  0  0  0  0
   -6.2673    9.1476    5.6354 N   0  3  0  0  0  0  0  0  0  0  0  0
   -8.3097   11.6535    0.5067 N   0  3  0  0  0  0  0  0  0  0  0  0
   -6.6717    7.7244    3.1484 O   0  0  0  0  0  0  0  0  0  0  0  0
  -10.3016   10.2731    3.1007 O   0  0  0  0  0  0  0  0  0  0  0  0
   -6.8478    9.6815    1.9776 O   0  0  0  0  0  0  0  0  0  0  0  0
  1  2  1  0  0  0  0
  1 10  1  0  0  0  0
  1 21  1  6  0  0  0
  2  3  1  0  0  0  0
  2  7  1  6  0  0  0
  3  4  1  0  0  0  0
  3  8  1  1  0  0  0
  4  5  1  0  0  0  0
  4  9  1  6  0  0  0
  5  6  1  1  0  0  0
  5 10  1  0  0  0  0
  6 11  1  0  0  0  0
 12 13  1  0  0  0  0
 12 17  1  0  0  0  0
 12 18  1  6  0  0  0
 13 14  1  0  0  0  0
 14 15  1  0  0  0  0
 14 19  1  6  0  0  0
 15 16  1  0  0  0  0
 15 30  1  1  0  0  0
 16 17  1  0  0  0  0
 16 20  1  6  0  0  0
 17 21  1  1  0  0  0
 22 23  1  0  0  0  0
 22 30  1  1  0  0  0
 22 32  1  0  0  0  0
 23 24  1  0  0  0  0
 23 28  1  1  0  0  0
 24 25  1  0  0  0  0
 25 26  1  0  0  0  0
 25 31  1  1  0  0  0
 26 27  1  6  0  0  0
 26 32  1  0  0  0  0
 27 29  1  0  0  0  0
M  CHG  5   8   1  18   1  19   1  28   1  29   1
M  END
>  <CHROM.1>
-125.15756566,173.47524589,65.04911341,68.04536134,138.32022569,71.96980148
43.62430178,-165.60523487,-149.12810606,171.81269704,-53.66366161,-165.07190624
64.40498986,-58.05876999,59.66352581,-59.03150793,-4.73611010,6.22798715
2.89082810,-0.47327082,-0.63636028,0.72695832

>  <Name>
1tob

>  <RI>
0

>  <Rbt.Current_Directory>
/home/itssahil/PROJECTS/Mol_Feturizer/New_Systems/rnas/1tob

>  <Rbt.Executable>
rbdock ($Id: //depot/dev/client3/rdock/2013.1/src/exe/rbdock.cxx#4 $)

>  <Rbt.Library>
libRbt.so (2013.1, Build901 2013/11/27)

>  <Rbt.Parameter_File>
/export/apps/rDock/src/rDock_2013.1_src/data/scripts/dock_solv.prm

>  <Rbt.Receptor>
prm/pocket_docking_2.prm

>  <SCORE>
-52.8824

>  <SCORE.INTER>
-52.7437

>  <SCORE.INTER.CONST>
1

>  <SCORE.INTER.POLAR>
-8.57049

>  <SCORE.INTER.ROT>
6

>  <SCORE.INTER.SOLV>
29.4735

>  <SCORE.INTER.VDW>
-24.0187

>  <SCORE.INTER.norm>
-1.64824

>  <SCORE.INTRA>
-2.6461

>  <SCORE.INTRA.DIHEDRAL>
-3.99031

>  <SCORE.INTRA.DIHEDRAL.0>
22.9177

>  <SCORE.INTRA.POLAR>
-0.446151

>  <SCORE.INTRA.POLAR.0>
-0.311208

>  <SCORE.INTRA.REPUL>
0.00457175

>  <SCORE.INTRA.REPUL.0>
0

>  <SCORE.INTRA.SOLV>
-0.318528

>  <SCORE.INTRA.SOLV.lig_0>
-132.657

>  <SCORE.INTRA.VDW>
1.00237

>  <SCORE.INTRA.VDW.0>
-4.68867

>  <SCORE.INTRA.norm>
-0.0826906

>  <SCORE.RESTR>
2.50739

>  <SCORE.RESTR.CAVITY>
2.50739

>  <SCORE.RESTR.norm>
0.0783561

>  <SCORE.SYSTEM>
0

>  <SCORE.SYSTEM.CONST>
0

>  <SCORE.SYSTEM.DIHEDRAL>
0

>  <SCORE.SYSTEM.SOLV>
0

>  <SCORE.SYSTEM.norm>
0

>  <SCORE.heavy>
32

>  <SCORE.norm>
-1.65258

>  <RMSD>
2.259

$$$$
1tob
 OpenBabel11021811413D
libRbt.so/2013.1/901 2013/11/27
 32 34  0  0  0  0  0  0  0  0999 V2000
   -2.9372    4.0755    3.8077 C   0  0  2  0  0  0  0  0  0  0  0  0
   -2.0500    4.4831    4.9815 C   0  0  1  0  0  0  0  0  0  0  0  0
   -0.5853    4.3484    4.5881 C   0  0  2  0  0  0  0  0  0  0  0  0
   -0.3193    2.9271    4.1068 C   0  0  1  0  0  0  0  0  0  0  0  0
   -1.2700    2.5802    2.9644 C   0  0  1  0  0  0  0  0  0  0  0  0
   -1.1066    1.1489    2.4921 C   0  0  0  0  0  0  0  0  0  0  0  0
   -2.3260    5.8276    5.3468 O   0  0  0  0  0  0  0  0  0  0  0  0
    0.3049    4.7288    5.7063 N   0  3  0  0  0  0  0  0  0  0  0  0
    1.0291    2.8109    3.6726 O   0  0  0  0  0  0  0  0  0  0  0  0
   -2.6393    2.7354    3.3959 O   0  0  0  0  0  0  0  0  0  0  0  0
   -2.2437    0.7103    1.7622 O   0  0  0  0  0  0  0  0  0  0  0  0
   -4.7846    4.1969    1.6892 C   0  0  2  0  0  0  0  0  0  0  0  0
   -6.0486    4.6972    1.0036 C   0  0  0  0  0  0  0  0  0  0  0  0
   -6.8295    5.6257    1.9339 C   0  0  1  0  0  0  0  0  0  0  0  0
   -5.9589    6.8200    2.3182 C   0  0  2  0  0  0  0  0  0  0  0  0
   -4.6793    6.3356    3.0019 C   0  0  1  0  0  0  0  0  0  0  0  0
   -3.9181    5.3846    2.0789 C   0  0  1  0  0  0  0  0  0  0  0  0
   -4.0080    3.3240    0.7818 N   0  3  0  0  0  0  0  0  0  0  0  0
   -8.1010    6.0385    1.2852 N   0  3  0  0  0  0  0  0  0  0  0  0
   -3.8591    7.4481    3.3328 O   0  0  0  0  0  0  0  0  0  0  0  0
   -2.7241    4.9197    2.7339 O   0  0  0  0  0  0  0  0  0  0  0  0
   -6.3156    9.0398    3.1603 C   0  0  1  0  0  0  0  0  0  0  0  0
   -6.8619    9.7759    4.3848 C   0  0  1  0  0  0  0  0  0  0  0  0
   -8.3830    9.7553    4.3775 C   0  0  0  0  0  0  0  0  0  0  0  0
   -8.8855   10.3339    3.0648 C   0  0  1  0  0  0  0  0  0  0  0  0
   -8.2793    9.5607    1.8943 C   0  0  1  0  0  0  0  0  0  0  0  0
   -8.6922   10.1222    0.5458 C   0  0  0  0  0  0  0  0  0  0  0  0
   -6.3049    9.2140    5.6380 N   0  3  0  0  0  0  0  0  0  0  0  0
   -8.0434   11.4283    0.2797 N   0  3  0  0  0  0  0  0  0  0  0  0
   -6.6838    7.7015    3.2001 O   0  0  0  0  0  0  0  0  0  0  0  0
  -10.3027   10.2594    3.0127 O   0  0  0  0  0  0  0  0  0  0  0  0
   -6.8375    9.6146    1.9559 O   0  0  0  0  0  0  0  0  0  0  0  0
  1  2  1  0  0  0  0
  1 10  1  0  0  0  0
  1 21  1  6  0  0  0
  2  3  1  0  0  0  0
  2  7  1  6  0  0  0
  3  4  1  0  0  0  0
  3  8  1  1  0  0  0
  4  5  1  0  0  0  0
  4  9  1  6  0  0  0
  5  6  1  1  0  0  0
  5 10  1  0  0  0  0
  6 11  1  0  0  0  0
 12 13  1  0  0  0  0
 12 17  1  0  0  0  0
 12 18  1  6  0  0  0
 13 14  1  0  0  0  0
 14 15  1  0  0  0  0
 14 19  1  6  0  0  0
 15 16  1  0  0  0  0
 15 30  1  1  0  0  0
 16 17  1  0  0  0  0
 16 20  1  6  0  0  0
 17 21  1  1  0  0  0
 22 23  1  0  0  0  0
 22 30  1  1  0  0  0
 22 32  1  0  0  0  0
 23 24  1  0  0  0  0
 23 28  1  1  0  0  0
 24 25  1  0  0  0  0
 25 26  1  0  0  0  0
 25 31  1  1  0  0  0
 26 27  1  6  0  0  0
 26 32  1  0  0  0  0
 27 29  1  0  0  0  0
M  CHG  5   8   1  18   1  19   1  28   1  29   1
M  END
>  <CHROM.1>
-134.86531613,-178.32956814,-165.95036266,-56.99362105,161.08402686,76.17988116
-62.02122689,-165.68238161,-152.22265447,170.39854644,-53.43230750,-164.19170020
-57.49586093,74.21909080,71.26213924,-56.18500626,-4.68702583,6.19464190
2.95484068,-0.49330446,-0.61645880,0.67145730

>  <Name>
1tob

>  <RI>
0

>  <Rbt.Current_Directory>
/home/itssahil/PROJECTS/Mol_Feturizer/New_Systems/rnas/1tob

>  <Rbt.Executable>
rbdock ($Id: //depot/dev/client3/rdock/2013.1/src/exe/rbdock.cxx#4 $)

>  <Rbt.Library>
libRbt.so (2013.1, Build901 2013/11/27)

>  <Rbt.Parameter_File>
/export/apps/rDock/src/rDock_2013.1_src/data/scripts/dock_solv.prm

>  <Rbt.Receptor>
prm/pocket_docking_3.prm

>  <SCORE>
-55.5761

>  <SCORE.INTER>
-50.7284

>  <SCORE.INTER.CONST>
1

>  <SCORE.INTER.POLAR>
-8.46112

>  <SCORE.INTER.ROT>
6

>  <SCORE.INTER.SOLV>
29.6593

>  <SCORE.INTER.VDW>
-23.1017

>  <SCORE.INTER.norm>
-1.58526

>  <SCORE.INTRA>
-4.84769

>  <SCORE.INTRA.DIHEDRAL>
-6.86216

>  <SCORE.INTRA.DIHEDRAL.0>
22.9177

>  <SCORE.INTRA.POLAR>
-0.880401

>  <SCORE.INTRA.POLAR.0>
-0.311208

>  <SCORE.INTRA.REPUL>
0

>  <SCORE.INTRA.REPUL.0>
0

>  <SCORE.INTRA.SOLV>
0.176882

>  <SCORE.INTRA.SOLV.lig_0>
-132.657

>  <SCORE.INTRA.VDW>
1.48831

>  <SCORE.INTRA.VDW.0>
-4.68867

>  <SCORE.INTRA.norm>
-0.15149

>  <SCORE.RESTR>
0

>  <SCORE.RESTR.CAVITY>
0

>  <SCORE.RESTR.norm>
0

>  <SCORE.SYSTEM>
0

>  <SCORE.SYSTEM.CONST>
0

>  <SCORE.SYSTEM.DIHEDRAL>
0

>  <SCORE.SYSTEM.SOLV>
0

>  <SCORE.SYSTEM.norm>
0

>  <SCORE.heavy>
32

>  <SCORE.norm>
-1.73675

>  <RMSD>
2.289

$$$$
1tob
 OpenBabel11021811413D
libRbt.so/2013.1/901 2013/11/27
 32 34  0  0  0  0  0  0  0  0999 V2000
   -3.0137    3.9158    3.8644 C   0  0  2  0  0  0  0  0  0  0  0  0
   -1.9660    4.2161    4.9336 C   0  0  1  0  0  0  0  0  0  0  0  0
   -0.5873    3.8143    4.4276 C   0  0  2  0  0  0  0  0  0  0  0  0
   -0.6087    2.3486    4.0108 C   0  0  1  0  0  0  0  0  0  0  0  0
   -1.7057    2.1203    2.9746 C   0  0  1  0  0  0  0  0  0  0  0  0
   -1.8287    0.6628    2.5758 C   0  0  0  0  0  0  0  0  0  0  0  0
   -1.9780    5.6029    5.2404 O   0  0  0  0  0  0  0  0  0  0  0  0
    0.4536    4.0849    5.4429 N   0  3  0  0  0  0  0  0  0  0  0  0
    0.6551    1.9832    3.4729 O   0  0  0  0  0  0  0  0  0  0  0  0
   -2.9838    2.5277    3.5092 O   0  0  0  0  0  0  0  0  0  0  0  0
   -2.4093   -0.1123    3.6151 O   0  0  0  0  0  0  0  0  0  0  0  0
   -4.8517    4.0691    1.6592 C   0  0  2  0  0  0  0  0  0  0  0  0
   -6.0880    4.6486    0.9855 C   0  0  0  0  0  0  0  0  0  0  0  0
   -6.8268    5.5866    1.9404 C   0  0  1  0  0  0  0  0  0  0  0  0
   -5.9016    6.7264    2.3605 C   0  0  2  0  0  0  0  0  0  0  0  0
   -4.6490    6.1621    3.0327 C   0  0  1  0  0  0  0  0  0  0  0  0
   -3.9308    5.2025    2.0845 C   0  0  1  0  0  0  0  0  0  0  0  0
   -4.1145    3.1863    0.7289 N   0  3  0  0  0  0  0  0  0  0  0  0
   -8.0750    6.0779    1.3011 N   0  3  0  0  0  0  0  0  0  0  0  0
   -3.7777    7.2243    3.3970 O   0  0  0  0  0  0  0  0  0  0  0  0
   -2.7627    4.6626    2.7285 O   0  0  0  0  0  0  0  0  0  0  0  0
   -6.1713    8.9410    3.2475 C   0  0  1  0  0  0  0  0  0  0  0  0
   -6.7236    9.6859    4.4640 C   0  0  1  0  0  0  0  0  0  0  0  0
   -8.2438    9.7185    4.4169 C   0  0  0  0  0  0  0  0  0  0  0  0
   -8.6911   10.3250    3.0969 C   0  0  1  0  0  0  0  0  0  0  0  0
   -8.0816    9.5405    1.9356 C   0  0  1  0  0  0  0  0  0  0  0  0
   -8.4391   10.1270    0.5820 C   0  0  0  0  0  0  0  0  0  0  0  0
   -6.2197    9.0947    5.7262 N   0  3  0  0  0  0  0  0  0  0  0  0
   -9.8917   10.0146    0.3079 N   0  3  0  0  0  0  0  0  0  0  0  0
   -6.5867    7.6161    3.2657 O   0  0  0  0  0  0  0  0  0  0  0  0
  -10.1083   10.3006    3.0073 O   0  0  0  0  0  0  0  0  0  0  0  0
   -6.6410    9.5435    2.0353 O   0  0  0  0  0  0  0  0  0  0  0  0
  1  2  1  0  0  0  0
  1 10  1  0  0  0  0
  1 21  1  6  0  0  0
  2  3  1  0  0  0  0
  2  7  1  6  0  0  0
  3  4  1  0  0  0  0
  3  8  1  1  0  0  0
  4  5  1  0  0  0  0
  4  9  1  6  0  0  0
  5  6  1  1  0  0  0
  5 10  1  0  0  0  0
  6 11  1  0  0  0  0
 12 13  1  0  0  0  0
 12 17  1  0  0  0  0
 12 18  1  6  0  0  0
 13 14  1  0  0  0  0
 14 15  1  0  0  0  0
 14 19  1  6  0  0  0
 15 16  1  0  0  0  0
 15 30  1  1  0  0  0
 16 17  1  0  0  0  0
 16 20  1  6  0  0  0
 17 21  1  1  0  0  0
 22 23  1  0  0  0  0
 22 30  1  1  0  0  0
 22 32  1  0  0  0  0
 23 24  1  0  0  0  0
 23 28  1  1  0  0  0
 24 25  1  0  0  0  0
 25 26  1  0  0  0  0
 25 31  1  6  0  0  0
 26 27  1  6  0  0  0
 26 32  1  0  0  0  0
 27 29  1  0  0  0  0
M  CHG  5   8   1  18   1  19   1  28   1  29   1
M  END
>  <CHROM.1>
-139.92047590,62.71473949,77.39528083,69.76582477,72.39345809,-161.72727450
51.71624696,71.51343403,-151.10048223,-55.63090545,-60.09903198,-166.30824861
64.49126652,67.90813323,-65.76242864,170.43654138,-4.76641874,5.91757448
3.02135384,-0.53508880,-0.62078891,0.60475554

>  <Name>
1tob

>  <RI>
0

>  <Rbt.Current_Directory>
/home/itssahil/PROJECTS/Mol_Feturizer/New_Systems/rnas/1tob

>  <Rbt.Executable>
rbdock ($Id: //depot/dev/client3/rdock/2013.1/src/exe/rbdock.cxx#4 $)

>  <Rbt.Library>
libRbt.so (2013.1, Build901 2013/11/27)

>  <Rbt.Parameter_File>
/export/apps/rDock/src/rDock_2013.1_src/data/scripts/dock_solv.prm

>  <Rbt.Receptor>
prm/pocket_docking_4.prm

>  <SCORE>
-54.0202

>  <SCORE.INTER>
-48.1836

>  <SCORE.INTER.CONST>
1

>  <SCORE.INTER.POLAR>
-7.28561

>  <SCORE.INTER.ROT>
6

>  <SCORE.INTER.SOLV>
29.9752

>  <SCORE.INTER.VDW>
-25.4288

>  <SCORE.INTER.norm>
-1.50574

>  <SCORE.INTRA>
-5.83655

>  <SCORE.INTRA.DIHEDRAL>
-8.72941

>  <SCORE.INTRA.DIHEDRAL.0>
22.9177

>  <SCORE.INTRA.POLAR>
-0.475465

>  <SCORE.INTRA.POLAR.0>
-0.311208

>  <SCORE.INTRA.REPUL>
0

>  <SCORE.INTRA.REPUL.0>
0

>  <SCORE.INTRA.SOLV>
-0.378392

>  <SCORE.INTRA.SOLV.lig_0>
-132.657

>  <SCORE.INTRA.VDW>
0.333939

>  <SCORE.INTRA.VDW.0>
-4.68867

>  <SCORE.INTRA.norm>
-0.182392

>  <SCORE.RESTR>
0

>  <SCORE.RESTR.CAVITY>
0

>  <SCORE.RESTR.norm>
0

>  <SCORE.SYSTEM>
0

>  <SCORE.SYSTEM.CONST>
0

>  <SCORE.SYSTEM.DIHEDRAL>
0

>  <SCORE.SYSTEM.SOLV>
0

>  <SCORE.SYSTEM.norm>
0

>  <SCORE.heavy>
32

>  <SCORE.norm>
-1.68813

>  <RMSD>
2.303

$$$$
1tob
 OpenBabel11021811413D
libRbt.so/2013.1/901 2013/11/27
 32 34  0  0  0  0  0  0  0  0999 V2000
   -3.0236    4.1165    3.8321 C   0  0  2  0  0  0  0  0  0  0  0  0
   -2.1043    4.5441    4.9737 C   0  0  1  0  0  0  0  0  0  0  0  0
   -0.6519    4.3304    4.5699 C   0  0  2  0  0  0  0  0  0  0  0  0
   -0.4503    2.8776    4.1560 C   0  0  1  0  0  0  0  0  0  0  0  0
   -1.4303    2.5147    3.0436 C   0  0  1  0  0  0  0  0  0  0  0  0
   -1.3315    1.0566    2.6404 C   0  0  0  0  0  0  0  0  0  0  0  0
   -2.3206    5.9151    5.2756 O   0  0  0  0  0  0  0  0  0  0  0  0
    0.2685    4.7279    5.6572 N   0  3  0  0  0  0  0  0  0  0  0  0
    0.8860    2.6851    3.7119 O   0  0  0  0  0  0  0  0  0  0  0  0
   -2.7860    2.7469    3.4833 O   0  0  0  0  0  0  0  0  0  0  0  0
   -2.1987    0.7583    1.5555 O   0  0  0  0  0  0  0  0  0  0  0  0
   -4.8715    4.2204    1.6790 C   0  0  2  0  0  0  0  0  0  0  0  0
   -6.1238    4.7478    0.9921 C   0  0  0  0  0  0  0  0  0  0  0  0
   -6.8794    5.7016    1.9177 C   0  0  1  0  0  0  0  0  0  0  0  0
   -5.9785    6.8761    2.2929 C   0  0  2  0  0  0  0  0  0  0  0  0
   -4.7103    6.3642    2.9776 C   0  0  1  0  0  0  0  0  0  0  0  0
   -3.9748    5.3885    2.0595 C   0  0  1  0  0  0  0  0  0  0  0  0
   -4.1186    3.3225    0.7759 N   0  3  0  0  0  0  0  0  0  0  0  0
   -8.1414    6.1420    1.2684 N   0  3  0  0  0  0  0  0  0  0  0  0
   -3.8618    7.4578    3.3000 O   0  0  0  0  0  0  0  0  0  0  0  0
   -2.7917    4.8979    2.7157 O   0  0  0  0  0  0  0  0  0  0  0  0
   -6.2155    9.0897    3.1915 C   0  0  1  0  0  0  0  0  0  0  0  0
   -6.7061    9.8051    4.4514 C   0  0  1  0  0  0  0  0  0  0  0  0
   -8.2247    9.8948    4.4495 C   0  0  0  0  0  0  0  0  0  0  0  0
   -8.6850   10.5693    3.1674 C   0  0  1  0  0  0  0  0  0  0  0  0
   -8.1373    9.8100    1.9595 C   0  0  1  0  0  0  0  0  0  0  0  0
   -8.5095   10.4627    0.6405 C   0  0  0  0  0  0  0  0  0  0  0  0
   -6.1902    9.1462    5.6746 N   0  3  0  0  0  0  0  0  0  0  0  0
   -8.5013    9.4826   -0.4717 N   0  3  0  0  0  0  0  0  0  0  0  0
   -6.6795    7.7812    3.1702 O   0  0  0  0  0  0  0  0  0  0  0  0
  -10.1039   10.5999    3.1178 O   0  0  0  0  0  0  0  0  0  0  0  0
   -6.6953    9.7567    2.0176 O   0  0  0  0  0  0  0  0  0  0  0  0
  1  2  1  0  0  0  0
  1 10  1  0  0  0  0
  1 21  1  6  0  0  0
  2  3  1  0  0  0  0
  2  7  1  6  0  0  0
  3  4  1  0  0  0  0
  3  8  1  1  0  0  0
  4  5  1  0  0  0  0
  4  9  1  6  0  0  0
  5  6  1  1  0  0  0
  5 10  1  0  0  0  0
  6 11  1  0  0  0  0
 12 13  1  0  0  0  0
 12 17  1  0  0  0  0
 12 18  1  6  0  0  0
 13 14  1  0  0  0  0
 14 15  1  0  0  0  0
 14 19  1  6  0  0  0
 15 16  1  0  0  0  0
 15 30  1  1  0  0  0
 16 17  1  0  0  0  0
 16 20  1  6  0  0  0
 17 21  1  1  0  0  0
 22 23  1  0  0  0  0
 22 30  1  1  0  0  0
 22 32  1  0  0  0  0
 23 24  1  0  0  0  0
 23 28  1  1  0  0  0
 24 25  1  0  0  0  0
 25 26  1  0  0  0  0
 25 31  1  6  0  0  0
 26 27  1  6  0  0  0
 26 32  1  0  0  0  0
 27 29  1  0  0  0  0
M  CHG  5   8   1  18   1  19   1  28   1  29   1
M  END
>  <CHROM.1>
-134.35798383,-179.51379037,75.52575583,-54.72354381,-176.78005763,69.93084649
173.77782823,-173.56120390,-156.63726011,69.34517878,-56.28870881,-161.27801583
-173.43136040,-176.08832342,-155.65473426,63.86072329,-4.71016904,6.17663260
2.93673055,-0.47152651,-0.63684510,0.70442255

>  <Name>
1tob

>  <RI>
0

>  <Rbt.Current_Directory>
/home/itssahil/PROJECTS/Mol_Feturizer/New_Systems/rnas/1tob

>  <Rbt.Executable>
rbdock ($Id: //depot/dev/client3/rdock/2013.1/src/exe/rbdock.cxx#4 $)

>  <Rbt.Library>
libRbt.so (2013.1, Build901 2013/11/27)

>  <Rbt.Parameter_File>
/export/apps/rDock/src/rDock_2013.1_src/data/scripts/dock_solv.prm

>  <Rbt.Receptor>
prm/pocket_docking_4.prm

>  <SCORE>
-50.53

>  <SCORE.INTER>
-49.7182

>  <SCORE.INTER.CONST>
1

>  <SCORE.INTER.POLAR>
-8.11589

>  <SCORE.INTER.ROT>
6

>  <SCORE.INTER.SOLV>
29.7516

>  <SCORE.INTER.VDW>
-23.6097

>  <SCORE.INTER.norm>
-1.5537

>  <SCORE.INTRA>
-0.811782

>  <SCORE.INTRA.DIHEDRAL>
-8.74815

>  <SCORE.INTRA.DIHEDRAL.0>
22.9177

>  <SCORE.INTRA.POLAR>
0.230421

>  <SCORE.INTRA.POLAR.0>
-0.311208

>  <SCORE.INTRA.REPUL>
0

>  <SCORE.INTRA.REPUL.0>
0

>  <SCORE.INTRA.SOLV>
0.776721

>  <SCORE.INTRA.SOLV.lig_0>
-132.657

>  <SCORE.INTRA.VDW>
2.3905

>  <SCORE.INTRA.VDW.0>
-4.68867

>  <SCORE.INTRA.norm>
-0.0253682

>  <SCORE.RESTR>
0

>  <SCORE.RESTR.CAVITY>
0

>  <SCORE.RESTR.norm>
0

>  <SCORE.SYSTEM>
0

>  <SCORE.SYSTEM.CONST>
0

>  <SCORE.SYSTEM.DIHEDRAL>
0

>  <SCORE.SYSTEM.SOLV>
0

>  <SCORE.SYSTEM.norm>
0

>  <SCORE.heavy>
32

>  <SCORE.norm>
-1.57906

>  <RMSD>
2.327

$$$$
1tob
 OpenBabel11021811413D
libRbt.so/2013.1/901 2013/11/27
 32 34  0  0  0  0  0  0  0  0999 V2000
   -3.0029    3.9844    3.5227 C   0  0  2  0  0  0  0  0  0  0  0  0
   -2.2626    4.3476    4.8077 C   0  0  1  0  0  0  0  0  0  0  0  0
   -0.7629    4.3730    4.5458 C   0  0  2  0  0  0  0  0  0  0  0  0
   -0.3276    3.0320    3.9671 C   0  0  1  0  0  0  0  0  0  0  0  0
   -1.1392    2.7207    2.7127 C   0  0  1  0  0  0  0  0  0  0  0  0
   -0.8056    1.3605    2.1322 C   0  0  0  0  0  0  0  0  0  0  0  0
   -2.6908    5.6229    5.2635 O   0  0  0  0  0  0  0  0  0  0  0  0
   -0.0124    4.7148    5.7734 N   0  3  0  0  0  0  0  0  0  0  0  0
    1.0585    3.0701    3.6553 O   0  0  0  0  0  0  0  0  0  0  0  0
   -2.5494    2.7199    3.0233 O   0  0  0  0  0  0  0  0  0  0  0  0
   -1.9769    0.5851    1.9206 O   0  0  0  0  0  0  0  0  0  0  0  0
   -4.8660    4.3066    1.5154 C   0  0  2  0  0  0  0  0  0  0  0  0
   -6.1179    4.8594    0.8481 C   0  0  0  0  0  0  0  0  0  0  0  0
   -6.8599    5.7989    1.7991 C   0  0  1  0  0  0  0  0  0  0  0  0
   -5.9468    6.9572    2.1945 C   0  0  2  0  0  0  0  0  0  0  0  0
   -4.6789    6.4197    2.8599 C   0  0  1  0  0  0  0  0  0  0  0  0
   -3.9572    5.4585    1.9161 C   0  0  1  0  0  0  0  0  0  0  0  0
   -4.1262    3.4226    0.5883 N   0  3  0  0  0  0  0  0  0  0  0  0
   -8.1220    6.2639    1.1674 N   0  3  0  0  0  0  0  0  0  0  0  0
   -3.8193    7.4989    3.2011 O   0  0  0  0  0  0  0  0  0  0  0  0
   -2.7745    4.9437    2.5540 O   0  0  0  0  0  0  0  0  0  0  0  0
   -6.1436    9.1456    3.1621 C   0  0  1  0  0  0  0  0  0  0  0  0
   -6.6844    9.8538    4.4054 C   0  0  1  0  0  0  0  0  0  0  0  0
   -8.1984    9.9786    4.3246 C   0  0  0  0  0  0  0  0  0  0  0  0
   -8.5747   10.6820    3.0308 C   0  0  1  0  0  0  0  0  0  0  0  0
   -7.9806    9.9278    1.8417 C   0  0  1  0  0  0  0  0  0  0  0  0
   -8.2676   10.6079    0.5153 C   0  0  0  0  0  0  0  0  0  0  0  0
   -6.2491    9.1655    5.6436 N   0  3  0  0  0  0  0  0  0  0  0  0
   -8.1364    9.6627   -0.6192 N   0  3  0  0  0  0  0  0  0  0  0  0
   -6.6349    7.8485    3.0959 O   0  0  0  0  0  0  0  0  0  0  0  0
   -9.9880   10.7461    2.9068 O   0  0  0  0  0  0  0  0  0  0  0  0
   -6.5454    9.8404    1.9750 O   0  0  0  0  0  0  0  0  0  0  0  0
  1  2  1  0  0  0  0
  1 10  1  0  0  0  0
  1 21  1  6  0  0  0
  2  3  1  0  0  0  0
  2  7  1  6  0  0  0
  3  4  1  0  0  0  0
  3  8  1  1  0  0  0
  4  5  1  0  0  0  0
  4  9  1  6  0  0  0
  5  6  1  1  0  0  0
  5 10  1  0  0  0  0
  6 11  1  0  0  0  0
 12 13  1  0  0  0  0
 12 17  1  0  0  0  0
 12 18  1  6  0  0  0
 13 14  1  0  0  0  0
 14 15  1  0  0  0  0
 14 19  1  6  0  0  0
 15 16  1  0  0  0  0
 15 30  1  1  0  0  0
 16 17  1  0  0  0  0
 16 20  1  6  0  0  0
 17 21  1  1  0  0  0
 22 23  1  0  0  0  0
 22 30  1  6  0  0  0
 22 32  1  0  0  0  0
 23 24  1  0  0  0  0
 23 28  1  1  0  0  0
 24 25  1  0  0  0  0
 25 26  1  0  0  0  0
 25 31  1  6  0  0  0
 26 27  1  6  0  0  0
 26 32  1  0  0  0  0
 27 29  1  0  0  0  0
M  CHG  5   8   1  18   1  19   1  28   1  29   1
M  END
>  <CHROM.1>
-129.46971297,172.76561629,-56.66717994,176.75065436,128.27072103,68.63514396
173.61018839,68.19068444,-157.82344174,-64.35768846,-46.95814151,-164.09903738
66.05906316,-62.24045519,-159.31842370,-60.65876257,-4.64707044,6.23513521
2.81709729,-0.45026849,-0.66183024,0.75681659

>  <Name>
1tob

>  <RI>
0

>  <Rbt.Current_Directory>
/home/itssahil/PROJECTS/Mol_Feturizer/New_Systems/rnas/1tob

>  <Rbt.Executable>
rbdock ($Id: //depot/dev/client3/rdock/2013.1/src/exe/rbdock.cxx#4 $)

>  <Rbt.Library>
libRbt.so (2013.1, Build901 2013/11/27)

>  <Rbt.Parameter_File>
/export/apps/rDock/src/rDock_2013.1_src/data/scripts/dock_solv.prm

>  <Rbt.Receptor>
prm/pocket_docking_5.prm

>  <SCORE>
-53.416

>  <SCORE.INTER>
-52.0906

>  <SCORE.INTER.CONST>
1

>  <SCORE.INTER.POLAR>
-8.37293

>  <SCORE.INTER.ROT>
6

>  <SCORE.INTER.SOLV>
28.6261

>  <SCORE.INTER.VDW>
-23.9593

>  <SCORE.INTER.norm>
-1.62783

>  <SCORE.INTRA>
-1.32541

>  <SCORE.INTRA.DIHEDRAL>
-4.39155

>  <SCORE.INTRA.DIHEDRAL.0>
22.9177

>  <SCORE.INTRA.POLAR>
-0.0858195

>  <SCORE.INTRA.POLAR.0>
-0.311208

>  <SCORE.INTRA.REPUL>
0.00476738

>  <SCORE.INTRA.REPUL.0>
0

>  <SCORE.INTRA.SOLV>
-0.623314

>  <SCORE.INTRA.SOLV.lig_0>
-132.657

>  <SCORE.INTRA.VDW>
1.44997

>  <SCORE.INTRA.VDW.0>
-4.68867

>  <SCORE.INTRA.norm>
-0.0414189

>  <SCORE.RESTR>
0

>  <SCORE.RESTR.CAVITY>
0

>  <SCORE.RESTR.norm>
0

>  <SCORE.SYSTEM>
0

>  <SCORE.SYSTEM.CONST>
0

>  <SCORE.SYSTEM.DIHEDRAL>
0

>  <SCORE.SYSTEM.SOLV>
0

>  <SCORE.SYSTEM.norm>
0

>  <SCORE.heavy>
32

>  <SCORE.norm>
-1.66925

>  <RMSD>
2.333

$$$$
1tob
 OpenBabel11021811413D
libRbt.so/2013.1/901 2013/11/27
 32 34  0  0  0  0  0  0  0  0999 V2000
   -3.1339    3.6078    3.1933 C   0  0  2  0  0  0  0  0  0  0  0  0
   -2.6386    4.1827    4.5182 C   0  0  1  0  0  0  0  0  0  0  0  0
   -1.1222    4.3161    4.4843 C   0  0  2  0  0  0  0  0  0  0  0  0
   -0.5027    2.9634    4.1542 C   0  0  1  0  0  0  0  0  0  0  0  0
   -1.0769    2.4366    2.8419 C   0  0  1  0  0  0  0  0  0  0  0  0
   -0.5558    1.0553    2.4971 C   0  0  0  0  0  0  0  0  0  0  0  0
   -3.2265    5.4571    4.7374 O   0  0  0  0  0  0  0  0  0  0  0  0
   -0.6061    4.8643    5.7573 N   0  3  0  0  0  0  0  0  0  0  0  0
    0.9090    3.0930    4.0527 O   0  0  0  0  0  0  0  0  0  0  0  0
   -2.5149    2.3415    2.9338 O   0  0  0  0  0  0  0  0  0  0  0  0
   -0.6229    0.1813    3.6150 O   0  0  0  0  0  0  0  0  0  0  0  0
   -5.0203    4.0978    1.2089 C   0  0  2  0  0  0  0  0  0  0  0  0
   -6.2130    4.8021    0.5769 C   0  0  0  0  0  0  0  0  0  0  0  0
   -6.7854    5.8474    1.5346 C   0  0  1  0  0  0  0  0  0  0  0  0
   -5.7116    6.8796    1.8712 C   0  0  2  0  0  0  0  0  0  0  0  0
   -4.5010    6.1884    2.5004 C   0  0  1  0  0  0  0  0  0  0  0  0
   -3.9514    5.1242    1.5511 C   0  0  1  0  0  0  0  0  0  0  0  0
   -4.4417    3.1081    0.2740 N   0  3  0  0  0  0  0  0  0  0  0  0
   -7.9984    6.4667    0.9403 N   0  3  0  0  0  0  0  0  0  0  0  0
   -3.4928    7.1484    2.7866 O   0  0  0  0  0  0  0  0  0  0  0  0
   -2.8232    4.4664    2.1555 O   0  0  0  0  0  0  0  0  0  0  0  0
   -5.3144    8.7524    3.3199 C   0  0  1  0  0  0  0  0  0  0  0  0
   -5.5392    8.8965    4.8261 C   0  0  1  0  0  0  0  0  0  0  0  0
   -6.9094    9.4982    5.0996 C   0  0  0  0  0  0  0  0  0  0  0  0
   -7.0361   10.8158    4.3525 C   0  0  1  0  0  0  0  0  0  0  0  0
   -6.7768   10.5915    2.8631 C   0  0  1  0  0  0  0  0  0  0  0  0
   -6.8292   11.8786    2.0600 C   0  0  0  0  0  0  0  0  0  0  0  0
   -5.3532    7.6003    5.5201 N   0  3  0  0  0  0  0  0  0  0  0  0
   -8.2036   12.4320    2.0099 N   0  3  0  0  0  0  0  0  0  0  0  0
   -6.2390    7.8693    2.7783 O   0  0  0  0  0  0  0  0  0  0  0  0
   -8.3349   11.3580    4.5419 O   0  0  0  0  0  0  0  0  0  0  0  0
   -5.4657   10.0190    2.6672 O   0  0  0  0  0  0  0  0  0  0  0  0
  1  2  1  0  0  0  0
  1 10  1  0  0  0  0
  1 21  1  6  0  0  0
  2  3  1  0  0  0  0
  2  7  1  6  0  0  0
  3  4  1  0  0  0  0
  3  8  1  1  0  0  0
  4  5  1  0  0  0  0
  4  9  1  6  0  0  0
  5  6  1  1  0  0  0
  5 10  1  0  0  0  0
  6 11  1  0  0  0  0
 12 13  1  0  0  0  0
 12 17  1  0  0  0  0
 12 18  1  6  0  0  0
 13 14  1  0  0  0  0
 14 15  1  0  0  0  0
 14 19  1  6  0  0  0
 15 16  1  0  0  0  0
 15 30  1  1  0  0  0
 16 17  1  0  0  0  0
 16 20  1  6  0  0  0
 17 21  1  1  0  0  0
 22 23  1  0  0  0  0
 22 30  1  6  0  0  0
 22 32  1  0  0  0  0
 23 24  1  0  0  0  0
 23 28  1  1  0  0  0
 24 25  1  0  0  0  0
 25 26  1  0  0  0  0
 25 31  1  6  0  0  0
 26 27  1  6  0  0  0
 26 32  1  0  0  0  0
 27 29  1  0  0  0  0
M  CHG  5   8   1  18   1  19   1  28   1  29   1
M  END
>  <CHROM.1>
-110.71143995,-178.37516664,-75.35810651,172.54606831,47.13438600,-60.44390284
155.45198874,-175.11302202,170.83000883,-62.97380929,-49.78333634,-134.01581440
-73.39288556,79.35054176,-68.10121987,44.89153415,-4.30245816,6.20161170
3.08805064,0.67133081,0.68723435,-2.49652952

>  <Name>
1tob

>  <RI>
0

>  <Rbt.Current_Directory>
/home/itssahil/PROJECTS/Mol_Feturizer/New_Systems/rnas/1tob

>  <Rbt.Executable>
rbdock ($Id: //depot/dev/client3/rdock/2013.1/src/exe/rbdock.cxx#4 $)

>  <Rbt.Library>
libRbt.so (2013.1, Build901 2013/11/27)

>  <Rbt.Parameter_File>
/export/apps/rDock/src/rDock_2013.1_src/data/scripts/dock_solv.prm

>  <Rbt.Receptor>
prm/pocket_docking_4.prm

>  <SCORE>
-41.9299

>  <SCORE.INTER>
-40.6882

>  <SCORE.INTER.CONST>
1

>  <SCORE.INTER.POLAR>
-6.21397

>  <SCORE.INTER.ROT>
6

>  <SCORE.INTER.SOLV>
28.8417

>  <SCORE.INTER.VDW>
-23.6262

>  <SCORE.INTER.norm>
-1.27151

>  <SCORE.INTRA>
-1.24169

>  <SCORE.INTRA.DIHEDRAL>
-3.25402

>  <SCORE.INTRA.DIHEDRAL.0>
22.9177

>  <SCORE.INTRA.POLAR>
-1.6823

>  <SCORE.INTRA.POLAR.0>
-0.311208

>  <SCORE.INTRA.REPUL>
0

>  <SCORE.INTRA.REPUL.0>
0

>  <SCORE.INTRA.SOLV>
0.620937

>  <SCORE.INTRA.SOLV.lig_0>
-132.657

>  <SCORE.INTRA.VDW>
5.79466

>  <SCORE.INTRA.VDW.0>
-4.68867

>  <SCORE.INTRA.norm>
-0.0388029

>  <SCORE.RESTR>
0

>  <SCORE.RESTR.CAVITY>
0

>  <SCORE.RESTR.norm>
0

>  <SCORE.SYSTEM>
0

>  <SCORE.SYSTEM.CONST>
0

>  <SCORE.SYSTEM.DIHEDRAL>
0

>  <SCORE.SYSTEM.SOLV>
0

>  <SCORE.SYSTEM.norm>
0

>  <SCORE.heavy>
32

>  <SCORE.norm>
-1.31031

>  <RMSD>
2.337

$$$$
1tob
 OpenBabel11021811413D
libRbt.so/2013.1/901 2013/11/27
 32 34  0  0  0  0  0  0  0  0999 V2000
   -4.1469    4.8072    3.2498 C   0  0  2  0  0  0  0  0  0  0  0  0
   -3.3389    4.9823    4.5335 C   0  0  1  0  0  0  0  0  0  0  0  0
   -1.8535    5.0277    4.2021 C   0  0  2  0  0  0  0  0  0  0  0  0
   -1.4701    3.7746    3.4241 C   0  0  1  0  0  0  0  0  0  0  0  0
   -2.3470    3.6475    2.1814 C   0  0  1  0  0  0  0  0  0  0  0  0
   -2.0655    2.3766    1.4040 C   0  0  0  0  0  0  0  0  0  0  0  0
   -3.7223    6.1872    5.1806 O   0  0  0  0  0  0  0  0  0  0  0  0
   -1.0384    5.1894    5.4256 N   0  3  0  0  0  0  0  0  0  0  0  0
   -0.1003    3.8407    3.0508 O   0  0  0  0  0  0  0  0  0  0  0  0
   -3.7402    3.6187    2.5598 O   0  0  0  0  0  0  0  0  0  0  0  0
   -0.6708    2.1788    1.2204 O   0  0  0  0  0  0  0  0  0  0  0  0
   -6.0604    5.2233    1.4317 C   0  0  2  0  0  0  0  0  0  0  0  0
   -7.3169    5.7565    0.7571 C   0  0  0  0  0  0  0  0  0  0  0  0
   -8.0376    6.7448    1.6744 C   0  0  1  0  0  0  0  0  0  0  0  0
   -7.1094    7.9117    2.0040 C   0  0  2  0  0  0  0  0  0  0  0  0
   -5.8367    7.3936    2.6758 C   0  0  1  0  0  0  0  0  0  0  0  0
   -5.1365    6.3840    1.7669 C   0  0  1  0  0  0  0  0  0  0  0  0
   -5.3412    4.2915    0.5357 N   0  3  0  0  0  0  0  0  0  0  0  0
   -9.3045    7.1920    1.0396 N   0  3  0  0  0  0  0  0  0  0  0  0
   -4.9634    8.4795    2.9556 O   0  0  0  0  0  0  0  0  0  0  0  0
   -3.9491    5.8882    2.4113 O   0  0  0  0  0  0  0  0  0  0  0  0
   -7.3027   10.1537    2.8405 C   0  0  1  0  0  0  0  0  0  0  0  0
   -7.2471   10.7325    4.2554 C   0  0  1  0  0  0  0  0  0  0  0  0
   -8.6452   10.8058    4.8505 C   0  0  0  0  0  0  0  0  0  0  0  0
   -9.5449   11.6017    3.9192 C   0  0  1  0  0  0  0  0  0  0  0  0
   -9.5291   10.9746    2.5256 C   0  0  1  0  0  0  0  0  0  0  0  0
  -10.3625   11.7535    1.5242 C   0  0  0  0  0  0  0  0  0  0  0  0
   -6.3184    9.9586    5.1127 N   0  3  0  0  0  0  0  0  0  0  0  0
  -10.1009   11.3062    0.1353 N   0  3  0  0  0  0  0  0  0  0  0  0
   -7.7772    8.8492    2.8732 O   0  0  0  0  0  0  0  0  0  0  0  0
  -10.8713   11.6221    4.4262 O   0  0  0  0  0  0  0  0  0  0  0  0
   -8.1789   10.9310    2.0152 O   0  0  0  0  0  0  0  0  0  0  0  0
  1  2  1  0  0  0  0
  1 10  1  0  0  0  0
  1 21  1  6  0  0  0
  2  3  1  0  0  0  0
  2  7  1  6  0  0  0
  3  4  1  0  0  0  0
  3  8  1  1  0  0  0
  4  5  1  0  0  0  0
  4  9  1  6  0  0  0
  5  6  1  1  0  0  0
  5 10  1  0  0  0  0
  6 11  1  0  0  0  0
 12 13  1  0  0  0  0
 12 17  1  0  0  0  0
 12 18  1  6  0  0  0
 13 14  1  0  0  0  0
 14 15  1  0  0  0  0
 14 19  1  6  0  0  0
 15 16  1  0  0  0  0
 15 30  1  1  0  0  0
 16 17  1  0  0  0  0
 16 20  1  6  0  0  0
 17 21  1  1  0  0  0
 22 23  1  0  0  0  0
 22 30  1  1  0  0  0
 22 32  1  0  0  0  0
 23 24  1  0  0  0  0
 23 28  1  1  0  0  0
 24 25  1  0  0  0  0
 25 26  1  0  0  0  0
 25 31  1  1  0  0  0
 26 27  1  6  0  0  0
 26 32  1  0  0  0  0
 27 29  1  0  0  0  0
M  CHG  5   8   1  18   1  19   1  28   1  29   1
M  END
>  <CHROM.1>
-137.56659067,99.64929326,44.78201936,77.88029825,-47.07491923,-57.70713090
-65.45609882,176.56408048,-155.77044551,-160.62249154,-35.72751698,-138.83104148
114.13289294,66.31113784,167.67399949,67.51872015,-5.70198913,7.16882275
2.75895894,-0.48915464,-0.61015786,0.80996464

>  <Name>
1tob

>  <RI>
0

>  <Rbt.Current_Directory>
/home/itssahil/PROJECTS/Mol_Feturizer/New_Systems/rnas/1tob

>  <Rbt.Executable>
rbdock ($Id: //depot/dev/client3/rdock/2013.1/src/exe/rbdock.cxx#4 $)

>  <Rbt.Library>
libRbt.so (2013.1, Build901 2013/11/27)

>  <Rbt.Parameter_File>
/export/apps/rDock/src/rDock_2013.1_src/data/scripts/dock_solv.prm

>  <Rbt.Receptor>
prm/pocket_docking_2.prm

>  <SCORE>
-43.0992

>  <SCORE.INTER>
-47.5026

>  <SCORE.INTER.CONST>
1

>  <SCORE.INTER.POLAR>
-8.10567

>  <SCORE.INTER.ROT>
6

>  <SCORE.INTER.SOLV>
24.2113

>  <SCORE.INTER.VDW>
-20.3199

>  <SCORE.INTER.norm>
-1.48446

>  <SCORE.INTRA>
3.56537

>  <SCORE.INTRA.DIHEDRAL>
7.64166

>  <SCORE.INTRA.DIHEDRAL.0>
22.9177

>  <SCORE.INTRA.POLAR>
-1.35632

>  <SCORE.INTRA.POLAR.0>
-0.311208

>  <SCORE.INTRA.REPUL>
0

>  <SCORE.INTRA.REPUL.0>
0

>  <SCORE.INTRA.SOLV>
0.405094

>  <SCORE.INTRA.SOLV.lig_0>
-132.657

>  <SCORE.INTRA.VDW>
4.15348

>  <SCORE.INTRA.VDW.0>
-4.68867

>  <SCORE.INTRA.norm>
0.111418

>  <SCORE.RESTR>
0.837975

>  <SCORE.RESTR.CAVITY>
0.837975

>  <SCORE.RESTR.norm>
0.0261867

>  <SCORE.SYSTEM>
0

>  <SCORE.SYSTEM.CONST>
0

>  <SCORE.SYSTEM.DIHEDRAL>
0

>  <SCORE.SYSTEM.SOLV>
0

>  <SCORE.SYSTEM.norm>
0

>  <SCORE.heavy>
32

>  <SCORE.norm>
-1.34685

>  <RMSD>
2.352

$$$$
1tob
 OpenBabel11021811413D
libRbt.so/2013.1/901 2013/11/27
 32 34  0  0  0  0  0  0  0  0999 V2000
   -2.9679    4.0572    3.7858 C   0  0  2  0  0  0  0  0  0  0  0  0
   -2.1351    4.4207    5.0128 C   0  0  1  0  0  0  0  0  0  0  0  0
   -0.6539    4.3376    4.6700 C   0  0  2  0  0  0  0  0  0  0  0  0
   -0.3375    2.9496    4.1261 C   0  0  1  0  0  0  0  0  0  0  0  0
   -1.2364    2.6437    2.9313 C   0  0  1  0  0  0  0  0  0  0  0  0
   -1.0227    1.2431    2.3918 C   0  0  0  0  0  0  0  0  0  0  0  0
   -2.4554    5.7380    5.4365 O   0  0  0  0  0  0  0  0  0  0  0  0
    0.1846    4.6769    5.8402 N   0  3  0  0  0  0  0  0  0  0  0  0
    1.0285    2.8847    3.7391 O   0  0  0  0  0  0  0  0  0  0  0  0
   -2.6242    2.7473    3.3168 O   0  0  0  0  0  0  0  0  0  0  0  0
   -2.1828    0.7592    1.7301 O   0  0  0  0  0  0  0  0  0  0  0  0
   -4.7561    4.2049    1.6718 C   0  0  2  0  0  0  0  0  0  0  0  0
   -6.0008    4.6836    0.9371 C   0  0  0  0  0  0  0  0  0  0  0  0
   -6.8162    5.6247    1.8242 C   0  0  1  0  0  0  0  0  0  0  0  0
   -5.9653    6.8319    2.2124 C   0  0  2  0  0  0  0  0  0  0  0  0
   -4.7051    6.3692    2.9452 C   0  0  1  0  0  0  0  0  0  0  0  0
   -3.9094    5.4056    2.0653 C   0  0  1  0  0  0  0  0  0  0  0  0
   -3.9460    3.3199    0.8064 N   0  3  0  0  0  0  0  0  0  0  0  0
   -8.0690    6.0165    1.1279 N   0  3  0  0  0  0  0  0  0  0  0  0
   -3.9023    7.4932    3.2801 O   0  0  0  0  0  0  0  0  0  0  0  0
   -2.7340    4.9612    2.7665 O   0  0  0  0  0  0  0  0  0  0  0  0
   -6.2982    9.0472    3.0756 C   0  0  1  0  0  0  0  0  0  0  0  0
   -6.8101    9.7472    4.3357 C   0  0  1  0  0  0  0  0  0  0  0  0
   -8.3307    9.7914    4.3336 C   0  0  0  0  0  0  0  0  0  0  0  0
   -8.8108   10.4524    3.0518 C   0  0  1  0  0  0  0  0  0  0  0  0
   -8.2405    9.7103    1.8436 C   0  0  1  0  0  0  0  0  0  0  0  0
   -8.6319   10.3520    0.5248 C   0  0  0  0  0  0  0  0  0  0  0  0
   -6.2749    9.1035    5.5587 N   0  3  0  0  0  0  0  0  0  0  0  0
   -7.8890    9.7556   -0.6110 N   0  3  0  0  0  0  0  0  0  0  0  0
   -6.7229    7.7254    3.0537 O   0  0  0  0  0  0  0  0  0  0  0  0
  -10.2300   10.4406    3.0020 O   0  0  0  0  0  0  0  0  0  0  0  0
   -6.7976    9.7001    1.9018 O   0  0  0  0  0  0  0  0  0  0  0  0
  1  2  1  0  0  0  0
  1 10  1  0  0  0  0
  1 21  1  6  0  0  0
  2  3  1  0  0  0  0
  2  7  1  6  0  0  0
  3  4  1  0  0  0  0
  3  8  1  1  0  0  0
  4  5  1  0  0  0  0
  4  9  1  6  0  0  0
  5  6  1  1  0  0  0
  5 10  1  0  0  0  0
  6 11  1  0  0  0  0
 12 13  1  0  0  0  0
 12 17  1  0  0  0  0
 12 18  1  6  0  0  0
 13 14  1  0  0  0  0
 14 15  1  0  0  0  0
 14 19  1  6  0  0  0
 15 16  1  0  0  0  0
 15 30  1  1  0  0  0
 16 17  1  0  0  0  0
 16 20  1  6  0  0  0
 17 21  1  1  0  0  0
 22 23  1  0  0  0  0
 22 30  1  1  0  0  0
 22 32  1  0  0  0  0
 23 24  1  0  0  0  0
 23 28  1  1  0  0  0
 24 25  1  0  0  0  0
 25 26  1  0  0  0  0
 25 31  1  6  0  0  0
 26 27  1  6  0  0  0
 26 32  1  0  0  0  0
 27 29  1  0  0  0  0
M  CHG  5   8   1  18   1  19   1  28   1  29   1
M  END
>  <CHROM.1>
-136.58192890,-130.71022218,-165.51143614,72.18060425,154.18399806,87.66632821
56.86310624,-36.84059036,-156.84634628,-68.02040356,-48.77413313,-159.15579789
68.11138666,179.69620164,170.51427795,-30.34794453,-4.67377063,6.15821578
2.88924533,-0.42563393,-0.65080705,0.74806694

>  <Name>
1tob

>  <RI>
0

>  <Rbt.Current_Directory>
/home/itssahil/PROJECTS/Mol_Feturizer/New_Systems/rnas/1tob

>  <Rbt.Executable>
rbdock ($Id: //depot/dev/client3/rdock/2013.1/src/exe/rbdock.cxx#4 $)

>  <Rbt.Library>
libRbt.so (2013.1, Build901 2013/11/27)

>  <Rbt.Parameter_File>
/export/apps/rDock/src/rDock_2013.1_src/data/scripts/dock_solv.prm

>  <Rbt.Receptor>
prm/pocket_docking_3.prm

>  <SCORE>
-46.3539

>  <SCORE.INTER>
-51.9464

>  <SCORE.INTER.CONST>
1

>  <SCORE.INTER.POLAR>
-8.48309

>  <SCORE.INTER.ROT>
6

>  <SCORE.INTER.SOLV>
27.9961

>  <SCORE.INTER.VDW>
-23.286

>  <SCORE.INTER.norm>
-1.62333

>  <SCORE.INTRA>
5.59253

>  <SCORE.INTRA.DIHEDRAL>
4.67353

>  <SCORE.INTRA.DIHEDRAL.0>
22.9177

>  <SCORE.INTRA.POLAR>
-0.191954

>  <SCORE.INTRA.POLAR.0>
-0.311208

>  <SCORE.INTRA.REPUL>
0

>  <SCORE.INTRA.REPUL.0>
0

>  <SCORE.INTRA.SOLV>
0.658226

>  <SCORE.INTRA.SOLV.lig_0>
-132.657

>  <SCORE.INTRA.VDW>
3.5793

>  <SCORE.INTRA.VDW.0>
-4.68867

>  <SCORE.INTRA.norm>
0.174767

>  <SCORE.RESTR>
0

>  <SCORE.RESTR.CAVITY>
0

>  <SCORE.RESTR.norm>
0

>  <SCORE.SYSTEM>
0

>  <SCORE.SYSTEM.CONST>
0

>  <SCORE.SYSTEM.DIHEDRAL>
0

>  <SCORE.SYSTEM.SOLV>
0

>  <SCORE.SYSTEM.norm>
0

>  <SCORE.heavy>
32

>  <SCORE.norm>
-1.44856

>  <RMSD>
2.361

$$$$
1tob
 OpenBabel11021811413D
libRbt.so/2013.1/901 2013/11/27
 32 34  0  0  0  0  0  0  0  0999 V2000
   -0.8946    4.3861    3.4263 C   0  0  2  0  0  0  0  0  0  0  0  0
    0.2708    3.5057    2.9816 C   0  0  1  0  0  0  0  0  0  0  0  0
    0.3364    2.2613    3.8565 C   0  0  2  0  0  0  0  0  0  0  0  0
    0.4288    2.6761    5.3200 C   0  0  1  0  0  0  0  0  0  0  0  0
   -0.7441    3.5852    5.6763 C   0  0  1  0  0  0  0  0  0  0  0  0
   -0.6669    4.0951    7.1020 C   0  0  0  0  0  0  0  0  0  0  0  0
    0.0951    3.1277    1.6237 O   0  0  0  0  0  0  0  0  0  0  0  0
    1.4608    1.3872    3.4579 N   0  3  0  0  0  0  0  0  0  0  0  0
    0.4211    1.5213    6.1485 O   0  0  0  0  0  0  0  0  0  0  0  0
   -0.7570    4.7393    4.8085 O   0  0  0  0  0  0  0  0  0  0  0  0
   -1.6702    5.0670    7.3606 O   0  0  0  0  0  0  0  0  0  0  0  0
   -4.1206    3.3945    1.9862 C   0  0  2  0  0  0  0  0  0  0  0  0
   -5.1528    4.1180    1.1321 C   0  0  0  0  0  0  0  0  0  0  0  0
   -5.8140    5.2417    1.9305 C   0  0  1  0  0  0  0  0  0  0  0  0
   -4.7532    6.2390    2.3907 C   0  0  2  0  0  0  0  0  0  0  0  0
   -3.7022    5.5276    3.2443 C   0  0  1  0  0  0  0  0  0  0  0  0
   -3.0658    4.3866    2.4513 C   0  0  1  0  0  0  0  0  0  0  0  0
   -3.4539    2.3272    1.2085 N   0  3  0  0  0  0  0  0  0  0  0  0
   -6.8772    5.8835    1.1144 N   0  3  0  0  0  0  0  0  0  0  0  0
   -2.7018    6.4532    3.6474 O   0  0  0  0  0  0  0  0  0  0  0  0
   -2.0901    3.7110    3.2652 O   0  0  0  0  0  0  0  0  0  0  0  0
   -4.4987    8.2538    3.6713 C   0  0  1  0  0  0  0  0  0  0  0  0
   -4.5576    8.2418    5.1998 C   0  0  1  0  0  0  0  0  0  0  0  0
   -5.9491    8.6296    5.6769 C   0  0  0  0  0  0  0  0  0  0  0  0
   -6.3265    9.9754    5.0795 C   0  0  1  0  0  0  0  0  0  0  0  0
   -6.2217    9.9114    3.5562 C   0  0  1  0  0  0  0  0  0  0  0  0
   -6.5288   11.2416    2.8924 C   0  0  0  0  0  0  0  0  0  0  0  0
   -4.1308    6.9295    5.7403 N   0  3  0  0  0  0  0  0  0  0  0  0
   -5.7761   12.3509    3.5252 N   0  3  0  0  0  0  0  0  0  0  0  0
   -5.3649    7.3023    3.1494 O   0  0  0  0  0  0  0  0  0  0  0  0
   -7.6504   10.3210    5.4600 O   0  0  0  0  0  0  0  0  0  0  0  0
   -4.8827    9.5381    3.1650 O   0  0  0  0  0  0  0  0  0  0  0  0
  1  2  1  0  0  0  0
  1 10  1  0  0  0  0
  1 21  1  1  0  0  0
  2  3  1  0  0  0  0
  2  7  1  6  0  0  0
  3  4  1  0  0  0  0
  3  8  1  6  0  0  0
  4  5  1  0  0  0  0
  4  9  1  1  0  0  0
  5  6  1  1  0  0  0
  5 10  1  0  0  0  0
  6 11  1  0  0  0  0
 12 13  1  0  0  0  0
 12 17  1  0  0  0  0
 12 18  1  6  0  0  0
 13 14  1  0  0  0  0
 14 15  1  0  0  0  0
 14 19  1  6  0  0  0
 15 16  1  0  0  0  0
 15 30  1  1  0  0  0
 16 17  1  0  0  0  0
 16 20  1  6  0  0  0
 17 21  1  1  0  0  0
 22 23  1  0  0  0  0
 22 30  1  6  0  0  0
 22 32  1  0  0  0  0
 23 24  1  0  0  0  0
 23 28  1  6  0  0  0
 24 25  1  0  0  0  0
 25 26  1  0  0  0  0
 25 31  1  6  0  0  0
 26 27  1  6  0  0  0
 26 32  1  0  0  0  0
 27 29  1  0  0  0  0
M  CHG  5   8   1  18   1  19   1  28   1  29   1
M  END
>  <CHROM.1>
-124.16847338,91.25816708,178.77622730,-55.61963878,172.66788701,-77.21772011
-48.56573494,-52.92283251,177.66962084,171.00270148,162.01370774,-117.12760959
75.47343814,54.72257558,49.01557051,25.21813921,-3.27628978,5.82030743,3.79935730
-0.51156044,-0.73497718,0.84260064

>  <Name>
1tob

>  <RI>
0

>  <Rbt.Current_Directory>
/home/itssahil/PROJECTS/Mol_Feturizer/New_Systems/rnas/1tob

>  <Rbt.Executable>
rbdock ($Id: //depot/dev/client3/rdock/2013.1/src/exe/rbdock.cxx#4 $)

>  <Rbt.Library>
libRbt.so (2013.1, Build901 2013/11/27)

>  <Rbt.Parameter_File>
/export/apps/rDock/src/rDock_2013.1_src/data/scripts/dock_solv.prm

>  <Rbt.Receptor>
prm/blind_docking_60.prm

>  <SCORE>
-41.9796

>  <SCORE.INTER>
-51.2386

>  <SCORE.INTER.CONST>
1

>  <SCORE.INTER.POLAR>
-7.16986

>  <SCORE.INTER.ROT>
6

>  <SCORE.INTER.SOLV>
30.2883

>  <SCORE.INTER.VDW>
-27.9556

>  <SCORE.INTER.norm>
-1.60121

>  <SCORE.INTRA>
5.70025

>  <SCORE.INTRA.DIHEDRAL>
2.66242

>  <SCORE.INTRA.DIHEDRAL.0>
22.9177

>  <SCORE.INTRA.POLAR>
-0.691449

>  <SCORE.INTRA.POLAR.0>
-0.311208

>  <SCORE.INTRA.REPUL>
0

>  <SCORE.INTRA.REPUL.0>
0

>  <SCORE.INTRA.SOLV>
0.847579

>  <SCORE.INTRA.SOLV.lig_0>
-132.657

>  <SCORE.INTRA.VDW>
6.29618

>  <SCORE.INTRA.VDW.0>
-4.68867

>  <SCORE.INTRA.norm>
0.178133

>  <SCORE.RESTR>
3.55873

>  <SCORE.RESTR.CAVITY>
3.55873

>  <SCORE.RESTR.norm>
0.11121

>  <SCORE.SYSTEM>
0

>  <SCORE.SYSTEM.CONST>
0

>  <SCORE.SYSTEM.DIHEDRAL>
0

>  <SCORE.SYSTEM.SOLV>
0

>  <SCORE.SYSTEM.norm>
0

>  <SCORE.heavy>
32

>  <SCORE.norm>
-1.31186

>  <RMSD>
2.388

$$$$
1tob
 OpenBabel11021811413D
libRbt.so/2013.1/901 2013/11/27
 32 34  0  0  0  0  0  0  0  0999 V2000
   -1.5016    4.4843    4.4922 C   0  0  2  0  0  0  0  0  0  0  0  0
   -0.4032    4.7294    3.4604 C   0  0  1  0  0  0  0  0  0  0  0  0
    0.2496    3.4067    3.0824 C   0  0  2  0  0  0  0  0  0  0  0  0
    0.7596    2.7162    4.3416 C   0  0  1  0  0  0  0  0  0  0  0  0
   -0.3836    2.5450    5.3382 C   0  0  1  0  0  0  0  0  0  0  0  0
    0.0776    1.9318    6.6458 C   0  0  0  0  0  0  0  0  0  0  0  0
   -0.9595    5.3368    2.3032 O   0  0  0  0  0  0  0  0  0  0  0  0
    1.3257    3.6076    2.0880 N   0  3  0  0  0  0  0  0  0  0  0  0
    1.3091    1.4491    4.0061 O   0  0  0  0  0  0  0  0  0  0  0  0
   -0.9656    3.8295    5.6489 O   0  0  0  0  0  0  0  0  0  0  0  0
   -1.0004    1.7863    7.5594 O   0  0  0  0  0  0  0  0  0  0  0  0
   -3.9857    3.1315    2.1326 C   0  0  2  0  0  0  0  0  0  0  0  0
   -4.6713    3.7029    0.8990 C   0  0  0  0  0  0  0  0  0  0  0  0
   -5.5499    4.8948    1.2798 C   0  0  1  0  0  0  0  0  0  0  0  0
   -4.6925    5.9799    1.9273 C   0  0  2  0  0  0  0  0  0  0  0  0
   -3.9890    5.4211    3.1650 C   0  0  1  0  0  0  0  0  0  0  0  0
   -3.1357    4.2120    2.7834 C   0  0  1  0  0  0  0  0  0  0  0  0
   -3.1083    1.9984    1.7655 N   0  3  0  0  0  0  0  0  0  0  0  0
   -6.2780    5.3888    0.0823 N   0  3  0  0  0  0  0  0  0  0  0  0
   -3.1704    6.4258    3.7486 O   0  0  0  0  0  0  0  0  0  0  0  0
   -2.4897    3.6810    3.9545 O   0  0  0  0  0  0  0  0  0  0  0  0
   -5.4909    8.1866    1.4203 C   0  0  1  0  0  0  0  0  0  0  0  0
   -5.1089    9.4664    2.1661 C   0  0  1  0  0  0  0  0  0  0  0  0
   -6.1567    9.7961    3.2187 C   0  0  0  0  0  0  0  0  0  0  0  0
   -7.5223    9.8807    2.5567 C   0  0  1  0  0  0  0  0  0  0  0  0
   -7.8190    8.5767    1.8171 C   0  0  1  0  0  0  0  0  0  0  0  0
   -9.1459    8.6108    1.0807 C   0  0  0  0  0  0  0  0  0  0  0  0
   -3.7506    9.3594    2.7491 N   0  3  0  0  0  0  0  0  0  0  0  0
   -9.1107    9.5589   -0.0584 N   0  3  0  0  0  0  0  0  0  0  0  0
   -5.5118    7.1085    2.2952 O   0  0  0  0  0  0  0  0  0  0  0  0
   -8.5222   10.1205    3.5362 O   0  0  0  0  0  0  0  0  0  0  0  0
   -6.7924    8.3171    0.8353 O   0  0  0  0  0  0  0  0  0  0  0  0
  1  2  1  0  0  0  0
  1 10  1  0  0  0  0
  1 21  1  6  0  0  0
  2  3  1  0  0  0  0
  2  7  1  6  0  0  0
  3  4  1  0  0  0  0
  3  8  1  6  0  0  0
  4  5  1  0  0  0  0
  4  9  1  6  0  0  0
  5  6  1  1  0  0  0
  5 10  1  0  0  0  0
  6 11  1  0  0  0  0
 12 13  1  0  0  0  0
 12 17  1  0  0  0  0
 12 18  1  6  0  0  0
 13 14  1  0  0  0  0
 14 15  1  0  0  0  0
 14 19  1  6  0  0  0
 15 16  1  0  0  0  0
 15 30  1  1  0  0  0
 16 17  1  0  0  0  0
 16 20  1  6  0  0  0
 17 21  1  1  0  0  0
 22 23  1  0  0  0  0
 22 30  1  1  0  0  0
 22 32  1  0  0  0  0
 23 24  1  0  0  0  0
 23 28  1  1  0  0  0
 24 25  1  0  0  0  0
 25 26  1  0  0  0  0
 25 31  1  1  0  0  0
 26 27  1  6  0  0  0
 26 32  1  0  0  0  0
 27 29  1  0  0  0  0
M  CHG  5   8   1  18   1  19   1  28   1  29   1
M  END
>  <CHROM.1>
-59.47422513,49.21618106,-75.93654070,-62.86633714,179.78426600,175.78201464
0.22845438,-171.74609151,-99.67412794,148.95854712,168.56389561,-125.15031391
-164.74391516,175.92516777,68.14544362,-48.95642488,-3.66083223,5.61069039
2.88196815,-0.27324400,-0.71633091,0.73273706

>  <Name>
1tob

>  <RI>
0

>  <Rbt.Current_Directory>
/home/itssahil/PROJECTS/Mol_Feturizer/New_Systems/rnas/1tob

>  <Rbt.Executable>
rbdock ($Id: //depot/dev/client3/rdock/2013.1/src/exe/rbdock.cxx#4 $)

>  <Rbt.Library>
libRbt.so (2013.1, Build901 2013/11/27)

>  <Rbt.Parameter_File>
/export/apps/rDock/src/rDock_2013.1_src/data/scripts/dock_solv.prm

>  <Rbt.Receptor>
prm/pocket_docking_8.prm

>  <SCORE>
-45.5187

>  <SCORE.INTER>
-41.7218

>  <SCORE.INTER.CONST>
1

>  <SCORE.INTER.POLAR>
-6.90194

>  <SCORE.INTER.ROT>
6

>  <SCORE.INTER.SOLV>
22.7912

>  <SCORE.INTER.VDW>
-20.0051

>  <SCORE.INTER.norm>
-1.30381

>  <SCORE.INTRA>
-3.79685

>  <SCORE.INTRA.DIHEDRAL>
0.145693

>  <SCORE.INTRA.DIHEDRAL.0>
22.9177

>  <SCORE.INTRA.POLAR>
-2.4096

>  <SCORE.INTRA.POLAR.0>
-0.311208

>  <SCORE.INTRA.REPUL>
0

>  <SCORE.INTRA.REPUL.0>
0

>  <SCORE.INTRA.SOLV>
-0.434018

>  <SCORE.INTRA.SOLV.lig_0>
-132.657

>  <SCORE.INTRA.VDW>
4.53993

>  <SCORE.INTRA.VDW.0>
-4.68867

>  <SCORE.INTRA.norm>
-0.118652

>  <SCORE.RESTR>
0

>  <SCORE.RESTR.CAVITY>
0

>  <SCORE.RESTR.norm>
0

>  <SCORE.SYSTEM>
0

>  <SCORE.SYSTEM.CONST>
0

>  <SCORE.SYSTEM.DIHEDRAL>
0

>  <SCORE.SYSTEM.SOLV>
0

>  <SCORE.SYSTEM.norm>
0

>  <SCORE.heavy>
32

>  <SCORE.norm>
-1.42246

>  <RMSD>
2.426

$$$$
1tob
 OpenBabel11021811413D
libRbt.so/2013.1/901 2013/11/27
 32 34  0  0  0  0  0  0  0  0999 V2000
   -2.7589    3.7720    4.1179 C   0  0  2  0  0  0  0  0  0  0  0  0
   -1.8703    4.1047    5.3140 C   0  0  1  0  0  0  0  0  0  0  0  0
   -0.4067    3.9441    4.9259 C   0  0  2  0  0  0  0  0  0  0  0  0
   -0.1776    2.5368    4.3877 C   0  0  1  0  0  0  0  0  0  0  0  0
   -1.1284    2.2651    3.2251 C   0  0  1  0  0  0  0  0  0  0  0  0
   -1.0022    0.8505    2.6948 C   0  0  0  0  0  0  0  0  0  0  0  0
   -2.1107    5.4405    5.7330 O   0  0  0  0  0  0  0  0  0  0  0  0
    0.4845    4.2518    6.0653 N   0  3  0  0  0  0  0  0  0  0  0  0
    1.1704    2.3996    3.9588 O   0  0  0  0  0  0  0  0  0  0  0  0
   -2.4962    2.4421    3.6528 O   0  0  0  0  0  0  0  0  0  0  0  0
   -1.9383    0.6003    1.6560 O   0  0  0  0  0  0  0  0  0  0  0  0
   -4.5456    3.9350    1.9814 C   0  0  2  0  0  0  0  0  0  0  0  0
   -5.7860    4.4377    1.2554 C   0  0  0  0  0  0  0  0  0  0  0  0
   -6.5886    5.3768    2.1562 C   0  0  1  0  0  0  0  0  0  0  0  0
   -5.7229    6.5687    2.5583 C   0  0  2  0  0  0  0  0  0  0  0  0
   -4.4669    6.0818    3.2826 C   0  0  1  0  0  0  0  0  0  0  0  0
   -3.6842    5.1205    2.3887 C   0  0  1  0  0  0  0  0  0  0  0  0
   -3.7475    3.0519    1.1030 N   0  3  0  0  0  0  0  0  0  0  0  0
   -7.8381    5.7922    1.4675 N   0  3  0  0  0  0  0  0  0  0  0  0
   -3.6504    7.1920    3.6305 O   0  0  0  0  0  0  0  0  0  0  0  0
   -2.5128    4.6534    3.0818 O   0  0  0  0  0  0  0  0  0  0  0  0
   -6.1471    8.8073    3.3149 C   0  0  1  0  0  0  0  0  0  0  0  0
   -6.7062    9.5736    4.5150 C   0  0  1  0  0  0  0  0  0  0  0  0
   -8.2257    9.5009    4.5256 C   0  0  0  0  0  0  0  0  0  0  0  0
   -8.7607   10.0085    3.1965 C   0  0  1  0  0  0  0  0  0  0  0  0
   -8.1399    9.2094    2.0513 C   0  0  1  0  0  0  0  0  0  0  0  0
   -8.5852    9.7014    0.6861 C   0  0  0  0  0  0  0  0  0  0  0  0
   -6.1178    9.0822    5.7834 N   0  3  0  0  0  0  0  0  0  0  0  0
   -8.1002   11.0767    0.4196 N   0  3  0  0  0  0  0  0  0  0  0  0
   -6.4685    7.4601    3.4127 O   0  0  0  0  0  0  0  0  0  0  0  0
  -10.1750    9.8838    3.1634 O   0  0  0  0  0  0  0  0  0  0  0  0
   -6.7003    9.3148    2.0944 O   0  0  0  0  0  0  0  0  0  0  0  0
  1  2  1  0  0  0  0
  1 10  1  0  0  0  0
  1 21  1  6  0  0  0
  2  3  1  0  0  0  0
  2  7  1  6  0  0  0
  3  4  1  0  0  0  0
  3  8  1  1  0  0  0
  4  5  1  0  0  0  0
  4  9  1  6  0  0  0
  5  6  1  1  0  0  0
  5 10  1  0  0  0  0
  6 11  1  0  0  0  0
 12 13  1  0  0  0  0
 12 17  1  0  0  0  0
 12 18  1  6  0  0  0
 13 14  1  0  0  0  0
 14 15  1  0  0  0  0
 14 19  1  6  0  0  0
 15 16  1  0  0  0  0
 15 30  1  1  0  0  0
 16 17  1  0  0  0  0
 16 20  1  6  0  0  0
 17 21  1  1  0  0  0
 22 23  1  0  0  0  0
 22 30  1  1  0  0  0
 22 32  1  0  0  0  0
 23 24  1  0  0  0  0
 23 28  1  1  0  0  0
 24 25  1  0  0  0  0
 25 26  1  0  0  0  0
 25 31  1  1  0  0  0
 26 27  1  6  0  0  0
 26 32  1  0  0  0  0
 27 29  1  0  0  0  0
M  CHG  5   8   1  18   1  19   1  28   1  29   1
M  END
>  <CHROM.1>
-138.24794685,-139.56381172,-23.40597936,62.08802523,177.26584388,-81.51963798
-53.08054052,-56.82329177,-148.43321670,-61.28083503,-50.76429541,-164.22240117
63.78689468,177.80808344,65.31043661,177.39469227,-4.50940773,5.89563511
3.18081623,-0.46235804,-0.63726141,0.69901575

>  <Name>
1tob

>  <RI>
0

>  <Rbt.Current_Directory>
/home/itssahil/PROJECTS/Mol_Feturizer/New_Systems/rnas/1tob

>  <Rbt.Executable>
rbdock ($Id: //depot/dev/client3/rdock/2013.1/src/exe/rbdock.cxx#4 $)

>  <Rbt.Library>
libRbt.so (2013.1, Build901 2013/11/27)

>  <Rbt.Parameter_File>
/export/apps/rDock/src/rDock_2013.1_src/data/scripts/dock_solv.prm

>  <Rbt.Receptor>
prm/pocket_docking_2.prm

>  <SCORE>
-37.6398

>  <SCORE.INTER>
-42.7529

>  <SCORE.INTER.CONST>
1

>  <SCORE.INTER.POLAR>
-6.4643

>  <SCORE.INTER.ROT>
6

>  <SCORE.INTER.SOLV>
28.6287

>  <SCORE.INTER.VDW>
-24.0971

>  <SCORE.INTER.norm>
-1.33603

>  <SCORE.INTRA>
2.34936

>  <SCORE.INTRA.DIHEDRAL>
-1.39398

>  <SCORE.INTRA.DIHEDRAL.0>
22.9177

>  <SCORE.INTRA.POLAR>
-0.202259

>  <SCORE.INTRA.POLAR.0>
-0.311208

>  <SCORE.INTRA.REPUL>
0.0168554

>  <SCORE.INTRA.REPUL.0>
0

>  <SCORE.INTRA.SOLV>
1.69227

>  <SCORE.INTRA.SOLV.lig_0>
-132.657

>  <SCORE.INTRA.VDW>
2.80362

>  <SCORE.INTRA.VDW.0>
-4.68867

>  <SCORE.INTRA.norm>
0.0734175

>  <SCORE.RESTR>
2.76369

>  <SCORE.RESTR.CAVITY>
2.76369

>  <SCORE.RESTR.norm>
0.0863654

>  <SCORE.SYSTEM>
0

>  <SCORE.SYSTEM.CONST>
0

>  <SCORE.SYSTEM.DIHEDRAL>
0

>  <SCORE.SYSTEM.SOLV>
0

>  <SCORE.SYSTEM.norm>
0

>  <SCORE.heavy>
32

>  <SCORE.norm>
-1.17624

>  <RMSD>
2.454

$$$$
1tob
 OpenBabel11021811413D
libRbt.so/2013.1/901 2013/11/27
 32 34  0  0  0  0  0  0  0  0999 V2000
   -2.2856    3.6953    3.7592 C   0  0  2  0  0  0  0  0  0  0  0  0
   -1.2250    4.0969    4.7814 C   0  0  1  0  0  0  0  0  0  0  0  0
    0.1613    3.8043    4.2238 C   0  0  2  0  0  0  0  0  0  0  0  0
    0.2462    2.3361    3.8240 C   0  0  1  0  0  0  0  0  0  0  0  0
   -0.8682    2.0026    2.8360 C   0  0  1  0  0  0  0  0  0  0  0  0
   -0.8844    0.5344    2.4583 C   0  0  0  0  0  0  0  0  0  0  0  0
   -1.3410    5.4821    5.0735 O   0  0  0  0  0  0  0  0  0  0  0  0
    1.2155    4.1749    5.1927 N   0  3  0  0  0  0  0  0  0  0  0  0
    1.5137    2.0697    3.2389 O   0  0  0  0  0  0  0  0  0  0  0  0
   -2.1536    2.3095    3.4180 O   0  0  0  0  0  0  0  0  0  0  0  0
   -1.0624   -0.2930    3.5992 O   0  0  0  0  0  0  0  0  0  0  0  0
   -4.3678    4.0125    1.7542 C   0  0  2  0  0  0  0  0  0  0  0  0
   -5.6424    4.6875    1.2665 C   0  0  0  0  0  0  0  0  0  0  0  0
   -6.2199    5.5903    2.3569 C   0  0  1  0  0  0  0  0  0  0  0  0
   -5.1970    6.6594    2.7348 C   0  0  2  0  0  0  0  0  0  0  0  0
   -3.9056    5.9989    3.2201 C   0  0  1  0  0  0  0  0  0  0  0  0
   -3.3491    5.0749    2.1373 C   0  0  1  0  0  0  0  0  0  0  0  0
   -3.7865    3.1631    0.6917 N   0  3  0  0  0  0  0  0  0  0  0  0
   -7.5067    6.1757    1.8993 N   0  3  0  0  0  0  0  0  0  0  0  0
   -2.9466    6.9965    3.5443 O   0  0  0  0  0  0  0  0  0  0  0  0
   -2.1435    4.4442    2.6060 O   0  0  0  0  0  0  0  0  0  0  0  0
   -5.2117    8.8027    3.8164 C   0  0  1  0  0  0  0  0  0  0  0  0
   -6.0099    9.6565    4.8031 C   0  0  1  0  0  0  0  0  0  0  0  0
   -7.4501    9.7973    4.3338 C   0  0  0  0  0  0  0  0  0  0  0  0
   -7.4640   10.3558    2.9202 C   0  0  1  0  0  0  0  0  0  0  0  0
   -6.6296    9.4616    2.0038 C   0  0  1  0  0  0  0  0  0  0  0  0
   -6.5500    9.9916    0.5837 C   0  0  0  0  0  0  0  0  0  0  0  0
   -5.9246    9.1057    6.1764 N   0  3  0  0  0  0  0  0  0  0  0  0
   -5.5655   11.0942    0.4699 N   0  3  0  0  0  0  0  0  0  0  0  0
   -5.7292    7.5151    3.7667 O   0  0  0  0  0  0  0  0  0  0  0  0
   -8.7988   10.4296    2.4409 O   0  0  0  0  0  0  0  0  0  0  0  0
   -5.2769    9.3652    2.5001 O   0  0  0  0  0  0  0  0  0  0  0  0
  1  2  1  0  0  0  0
  1 10  1  0  0  0  0
  1 21  1  6  0  0  0
  2  3  1  0  0  0  0
  2  7  1  6  0  0  0
  3  4  1  0  0  0  0
  3  8  1  1  0  0  0
  4  5  1  0  0  0  0
  4  9  1  6  0  0  0
  5  6  1  1  0  0  0
  5 10  1  0  0  0  0
  6 11  1  0  0  0  0
 12 13  1  0  0  0  0
 12 17  1  0  0  0  0
 12 18  1  6  0  0  0
 13 14  1  0  0  0  0
 14 15  1  0  0  0  0
 14 19  1  6  0  0  0
 15 16  1  0  0  0  0
 15 30  1  1  0  0  0
 16 17  1  0  0  0  0
 16 20  1  6  0  0  0
 17 21  1  1  0  0  0
 22 23  1  0  0  0  0
 22 30  1  6  0  0  0
 22 32  1  0  0  0  0
 23 24  1  0  0  0  0
 23 28  1  1  0  0  0
 24 25  1  0  0  0  0
 25 26  1  0  0  0  0
 25 31  1  6  0  0  0
 26 27  1  6  0  0  0
 26 32  1  0  0  0  0
 27 29  1  0  0  0  0
M  CHG  5   8   1  18   1  19   1  28   1  29   1
M  END
>  <CHROM.1>
-129.31267838,63.01049001,99.47542596,-56.52133340,59.24434495,67.19455357
-66.91826685,-60.91317361,-153.70842290,71.41152509,-63.57294097,171.27060043
-37.68666674,-59.21554362,78.73583371,64.55770739,-3.80413817,5.89451691
3.08442227,-0.65062543,-0.61060911,0.54022795

>  <Name>
1tob

>  <RI>
0

>  <Rbt.Current_Directory>
/home/itssahil/PROJECTS/Mol_Feturizer/New_Systems/rnas/1tob

>  <Rbt.Executable>
rbdock ($Id: //depot/dev/client3/rdock/2013.1/src/exe/rbdock.cxx#4 $)

>  <Rbt.Library>
libRbt.so (2013.1, Build901 2013/11/27)

>  <Rbt.Parameter_File>
/export/apps/rDock/src/rDock_2013.1_src/data/scripts/dock_solv.prm

>  <Rbt.Receptor>
prm/blind_docking_60.prm

>  <SCORE>
-32.3725

>  <SCORE.INTER>
-38.0932

>  <SCORE.INTER.CONST>
1

>  <SCORE.INTER.POLAR>
-5.53588

>  <SCORE.INTER.ROT>
6

>  <SCORE.INTER.SOLV>
33.5236

>  <SCORE.INTER.VDW>
-25.717

>  <SCORE.INTER.norm>
-1.19041

>  <SCORE.INTRA>
-2.65849

>  <SCORE.INTRA.DIHEDRAL>
-6.81292

>  <SCORE.INTRA.DIHEDRAL.0>
22.9177

>  <SCORE.INTRA.POLAR>
0.264857

>  <SCORE.INTRA.POLAR.0>
-0.311208

>  <SCORE.INTRA.REPUL>
0

>  <SCORE.INTRA.REPUL.0>
0

>  <SCORE.INTRA.SOLV>
-2.65681

>  <SCORE.INTRA.SOLV.lig_0>
-132.657

>  <SCORE.INTRA.VDW>
1.17587

>  <SCORE.INTRA.VDW.0>
-4.68867

>  <SCORE.INTRA.norm>
-0.0830777

>  <SCORE.RESTR>
8.37918

>  <SCORE.RESTR.CAVITY>
8.37918

>  <SCORE.RESTR.norm>
0.261849

>  <SCORE.SYSTEM>
0

>  <SCORE.SYSTEM.CONST>
0

>  <SCORE.SYSTEM.DIHEDRAL>
0

>  <SCORE.SYSTEM.SOLV>
0

>  <SCORE.SYSTEM.norm>
0

>  <SCORE.heavy>
32

>  <SCORE.norm>
-1.01164

>  <RMSD>
2.562

$$$$
1tob
 OpenBabel11021811413D
libRbt.so/2013.1/901 2013/11/27
 32 34  0  0  0  0  0  0  0  0999 V2000
   -3.1118    3.9896    3.5322 C   0  0  2  0  0  0  0  0  0  0  0  0
   -2.3770    4.3807    4.8122 C   0  0  1  0  0  0  0  0  0  0  0  0
   -0.8745    4.3649    4.5661 C   0  0  2  0  0  0  0  0  0  0  0  0
   -0.4627    2.9959    4.0383 C   0  0  1  0  0  0  0  0  0  0  0  0
   -1.2679    2.6592    2.7863 C   0  0  1  0  0  0  0  0  0  0  0  0
   -0.9580    1.2731    2.2561 C   0  0  0  0  0  0  0  0  0  0  0  0
   -2.7819    5.6798    5.2195 O   0  0  0  0  0  0  0  0  0  0  0  0
   -0.1294    4.7324    5.7896 N   0  3  0  0  0  0  0  0  0  0  0  0
    0.9271    2.9935    3.7406 O   0  0  0  0  0  0  0  0  0  0  0  0
   -2.6809    2.6993    3.0811 O   0  0  0  0  0  0  0  0  0  0  0  0
   -2.0147    0.7795    1.4450 O   0  0  0  0  0  0  0  0  0  0  0  0
   -5.0546    4.3916    1.6731 C   0  0  2  0  0  0  0  0  0  0  0  0
   -6.2881    5.0029    1.0228 C   0  0  0  0  0  0  0  0  0  0  0  0
   -6.8788    6.0933    1.9171 C   0  0  1  0  0  0  0  0  0  0  0  0
   -5.8387    7.1866    2.1507 C   0  0  2  0  0  0  0  0  0  0  0  0
   -4.5880    6.5888    2.7969 C   0  0  1  0  0  0  0  0  0  0  0  0
   -4.0190    5.4795    1.9129 C   0  0  1  0  0  0  0  0  0  0  0  0
   -4.4594    3.3586    0.7973 N   0  3  0  0  0  0  0  0  0  0  0  0
   -8.1284    6.6219    1.3111 N   0  3  0  0  0  0  0  0  0  0  0  0
   -3.6117    7.6041    2.9871 O   0  0  0  0  0  0  0  0  0  0  0  0
   -2.8525    4.9100    2.5339 O   0  0  0  0  0  0  0  0  0  0  0  0
   -6.9797    9.2901    2.3445 C   0  0  1  0  0  0  0  0  0  0  0  0
   -6.3624   10.6080    2.8156 C   0  0  1  0  0  0  0  0  0  0  0  0
   -6.6297   10.8151    4.2988 C   0  0  0  0  0  0  0  0  0  0  0  0
   -8.1261   10.7366    4.5538 C   0  0  1  0  0  0  0  0  0  0  0  0
   -8.6686    9.4047    4.0370 C   0  0  1  0  0  0  0  0  0  0  0  0
  -10.1720    9.2804    4.2057 C   0  0  0  0  0  0  0  0  0  0  0  0
   -4.9157   10.6632    2.4990 N   0  3  0  0  0  0  0  0  0  0  0  0
  -10.5797    9.4922    5.6152 N   0  3  0  0  0  0  0  0  0  0  0  0
   -6.3834    8.2195    2.9974 O   0  0  0  0  0  0  0  0  0  0  0  0
   -8.3884   10.8599    5.9441 O   0  0  0  0  0  0  0  0  0  0  0  0
   -8.3840    9.2648    2.6281 O   0  0  0  0  0  0  0  0  0  0  0  0
  1  2  1  0  0  0  0
  1 10  1  0  0  0  0
  1 21  1  6  0  0  0
  2  3  1  0  0  0  0
  2  7  1  6  0  0  0
  3  4  1  0  0  0  0
  3  8  1  1  0  0  0
  4  5  1  0  0  0  0
  4  9  1  6  0  0  0
  5  6  1  1  0  0  0
  5 10  1  0  0  0  0
  6 11  1  0  0  0  0
 12 13  1  0  0  0  0
 12 17  1  0  0  0  0
 12 18  1  6  0  0  0
 13 14  1  0  0  0  0
 14 15  1  0  0  0  0
 14 19  1  6  0  0  0
 15 16  1  0  0  0  0
 15 30  1  1  0  0  0
 16 17  1  0  0  0  0
 16 20  1  6  0  0  0
 17 21  1  1  0  0  0
 22 23  1  0  0  0  0
 22 30  1  1  0  0  0
 22 32  1  0  0  0  0
 23 24  1  0  0  0  0
 23 28  1  1  0  0  0
 24 25  1  0  0  0  0
 25 26  1  0  0  0  0
 25 31  1  1  0  0  0
 26 27  1  6  0  0  0
 26 32  1  0  0  0  0
 27 29  1  0  0  0  0
M  CHG  5   8   1  18   1  19   1  28   1  29   1
M  END
>  <CHROM.1>
-126.40268933,-52.08993137,67.45298071,174.63746430,158.05285033,56.95748425
64.88730288,-56.33399009,-92.46423676,-61.29432671,-42.13133906,-125.83125864
-109.39246310,-49.78232089,-55.23143439,-167.66979856,-4.76485367,6.32308080
3.21001119,-0.65009799,-0.46968577,0.63887468

>  <Name>
1tob

>  <RI>
0

>  <Rbt.Current_Directory>
/home/itssahil/PROJECTS/Mol_Feturizer/New_Systems/rnas/1tob

>  <Rbt.Executable>
rbdock ($Id: //depot/dev/client3/rdock/2013.1/src/exe/rbdock.cxx#4 $)

>  <Rbt.Library>
libRbt.so (2013.1, Build901 2013/11/27)

>  <Rbt.Parameter_File>
/export/apps/rDock/src/rDock_2013.1_src/data/scripts/dock_solv.prm

>  <Rbt.Receptor>
prm/pocket_docking_3.prm

>  <SCORE>
-47.9459

>  <SCORE.INTER>
-44.9784

>  <SCORE.INTER.CONST>
1

>  <SCORE.INTER.POLAR>
-6.85314

>  <SCORE.INTER.ROT>
6

>  <SCORE.INTER.SOLV>
24.915

>  <SCORE.INTER.VDW>
-23.0468

>  <SCORE.INTER.norm>
-1.40558

>  <SCORE.INTRA>
-2.96751

>  <SCORE.INTRA.DIHEDRAL>
3.27543

>  <SCORE.INTRA.DIHEDRAL.0>
22.9177

>  <SCORE.INTRA.POLAR>
-2.43296

>  <SCORE.INTRA.POLAR.0>
-0.311208

>  <SCORE.INTRA.REPUL>
0

>  <SCORE.INTRA.REPUL.0>
0

>  <SCORE.INTRA.SOLV>
2.1753

>  <SCORE.INTRA.SOLV.lig_0>
-132.657

>  <SCORE.INTRA.VDW>
2.57919

>  <SCORE.INTRA.VDW.0>
-4.68867

>  <SCORE.INTRA.norm>
-0.0927348

>  <SCORE.RESTR>
0

>  <SCORE.RESTR.CAVITY>
0

>  <SCORE.RESTR.norm>
0

>  <SCORE.SYSTEM>
0

>  <SCORE.SYSTEM.CONST>
0

>  <SCORE.SYSTEM.DIHEDRAL>
0

>  <SCORE.SYSTEM.SOLV>
0

>  <SCORE.SYSTEM.norm>
0

>  <SCORE.heavy>
32

>  <SCORE.norm>
-1.49831

>  <RMSD>
2.752

$$$$
1tob
 OpenBabel11021811413D
libRbt.so/2013.1/901 2013/11/27
 32 34  0  0  0  0  0  0  0  0999 V2000
   -2.5468    3.3901    4.0557 C   0  0  2  0  0  0  0  0  0  0  0  0
   -1.6544    3.6713    5.2623 C   0  0  1  0  0  0  0  0  0  0  0  0
   -0.1929    3.5043    4.8691 C   0  0  2  0  0  0  0  0  0  0  0  0
    0.0179    2.1127    4.2847 C   0  0  1  0  0  0  0  0  0  0  0  0
   -0.9358    1.8923    3.1136 C   0  0  1  0  0  0  0  0  0  0  0  0
   -0.8280    0.4944    2.5367 C   0  0  0  0  0  0  0  0  0  0  0  0
   -1.8774    4.9955    5.7252 O   0  0  0  0  0  0  0  0  0  0  0  0
    0.7018    3.7623    6.0181 N   0  3  0  0  0  0  0  0  0  0  0  0
    1.3642    1.9720    3.8515 O   0  0  0  0  0  0  0  0  0  0  0  0
   -2.3014    2.0730    3.5469 O   0  0  0  0  0  0  0  0  0  0  0  0
   -1.9722    0.1627    1.7629 O   0  0  0  0  0  0  0  0  0  0  0  0
   -4.4876    3.8590    2.1400 C   0  0  2  0  0  0  0  0  0  0  0  0
   -5.7195    4.5237    1.5412 C   0  0  0  0  0  0  0  0  0  0  0  0
   -6.3139    5.5321    2.5248 C   0  0  1  0  0  0  0  0  0  0  0  0
   -5.2754    6.6016    2.8557 C   0  0  2  0  0  0  0  0  0  0  0  0
   -4.0262    5.9507    3.4515 C   0  0  1  0  0  0  0  0  0  0  0  0
   -3.4536    4.9225    2.4764 C   0  0  1  0  0  0  0  0  0  0  0  0
   -3.8888    2.9061    1.1797 N   0  3  0  0  0  0  0  0  0  0  0  0
   -7.5621    6.1105    1.9630 N   0  3  0  0  0  0  0  0  0  0  0  0
   -3.0514    6.9462    3.7321 O   0  0  0  0  0  0  0  0  0  0  0  0
   -2.2885    4.3020    3.0494 O   0  0  0  0  0  0  0  0  0  0  0  0
   -5.1956    8.7946    3.8296 C   0  0  1  0  0  0  0  0  0  0  0  0
   -5.9008    9.7120    4.8301 C   0  0  1  0  0  0  0  0  0  0  0  0
   -7.3308    9.9782    4.3844 C   0  0  0  0  0  0  0  0  0  0  0  0
   -7.3189   10.5392    2.9717 C   0  0  1  0  0  0  0  0  0  0  0  0
   -6.5801    9.5783    2.0410 C   0  0  1  0  0  0  0  0  0  0  0  0
   -6.4776   10.1029    0.6203 C   0  0  0  0  0  0  0  0  0  0  0  0
   -5.8415    9.1525    6.2012 N   0  3  0  0  0  0  0  0  0  0  0  0
   -5.8799    9.0959   -0.2888 N   0  3  0  0  0  0  0  0  0  0  0  0
   -5.8236    7.5568    3.7871 O   0  0  0  0  0  0  0  0  0  0  0  0
   -8.6498   10.7297    2.5142 O   0  0  0  0  0  0  0  0  0  0  0  0
   -5.2330    9.3638    2.5151 O   0  0  0  0  0  0  0  0  0  0  0  0
  1  2  1  0  0  0  0
  1 10  1  0  0  0  0
  1 21  1  6  0  0  0
  2  3  1  0  0  0  0
  2  7  1  6  0  0  0
  3  4  1  0  0  0  0
  3  8  1  1  0  0  0
  4  5  1  0  0  0  0
  4  9  1  6  0  0  0
  5  6  1  1  0  0  0
  5 10  1  0  0  0  0
  6 11  1  0  0  0  0
 12 13  1  0  0  0  0
 12 17  1  0  0  0  0
 12 18  1  6  0  0  0
 13 14  1  0  0  0  0
 14 15  1  0  0  0  0
 14 19  1  6  0  0  0
 15 16  1  0  0  0  0
 15 30  1  1  0  0  0
 16 17  1  0  0  0  0
 16 20  1  6  0  0  0
 17 21  1  1  0  0  0
 22 23  1  0  0  0  0
 22 30  1  6  0  0  0
 22 32  1  0  0  0  0
 23 24  1  0  0  0  0
 23 28  1  1  0  0  0
 24 25  1  0  0  0  0
 25 26  1  0  0  0  0
 25 31  1  6  0  0  0
 26 27  1  6  0  0  0
 26 32  1  0  0  0  0
 27 29  1  0  0  0  0
M  CHG  5   8   1  18   1  19   1  28   1  29   1
M  END
>  <CHROM.1>
-131.41486436,-55.51251541,-174.27630713,-175.90156047,161.41183861,63.54290894
-174.19360752,179.41705981,-158.93223564,82.29680984,-48.09595652,178.59530394
137.81482422,174.37134598,-174.26736494,79.91194742,-3.93658023,5.75093246
3.21961130,-0.55959199,-0.72849656,0.68778251

>  <Name>
1tob

>  <RI>
0

>  <Rbt.Current_Directory>
/home/itssahil/PROJECTS/Mol_Feturizer/New_Systems/rnas/1tob

>  <Rbt.Executable>
rbdock ($Id: //depot/dev/client3/rdock/2013.1/src/exe/rbdock.cxx#4 $)

>  <Rbt.Library>
libRbt.so (2013.1, Build901 2013/11/27)

>  <Rbt.Parameter_File>
/export/apps/rDock/src/rDock_2013.1_src/data/scripts/dock_solv.prm

>  <Rbt.Receptor>
prm/blind_docking_60.prm

>  <SCORE>
-32.9215

>  <SCORE.INTER>
-37.6785

>  <SCORE.INTER.CONST>
1

>  <SCORE.INTER.POLAR>
-5.81742

>  <SCORE.INTER.ROT>
6

>  <SCORE.INTER.SOLV>
30.1418

>  <SCORE.INTER.VDW>
-23.3749

>  <SCORE.INTER.norm>
-1.17745

>  <SCORE.INTRA>
-2.59136

>  <SCORE.INTRA.DIHEDRAL>
-5.77166

>  <SCORE.INTRA.DIHEDRAL.0>
22.9177

>  <SCORE.INTRA.POLAR>
-0.435015

>  <SCORE.INTRA.POLAR.0>
-0.311208

>  <SCORE.INTRA.REPUL>
0.0731654

>  <SCORE.INTRA.REPUL.0>
0

>  <SCORE.INTRA.SOLV>
-0.796303

>  <SCORE.INTRA.SOLV.lig_0>
-132.657

>  <SCORE.INTRA.VDW>
1.80585

>  <SCORE.INTRA.VDW.0>
-4.68867

>  <SCORE.INTRA.norm>
-0.08098

>  <SCORE.RESTR>
7.3484

>  <SCORE.RESTR.CAVITY>
7.3484

>  <SCORE.RESTR.norm>
0.229638

>  <SCORE.SYSTEM>
0

>  <SCORE.SYSTEM.CONST>
0

>  <SCORE.SYSTEM.DIHEDRAL>
0

>  <SCORE.SYSTEM.SOLV>
0

>  <SCORE.SYSTEM.norm>
0

>  <SCORE.heavy>
32

>  <SCORE.norm>
-1.0288

>  <RMSD>
2.787

$$$$
1tob
 OpenBabel11021811413D
libRbt.so/2013.1/901 2013/11/27
 32 34  0  0  0  0  0  0  0  0999 V2000
   -2.3953    3.4816    4.1620 C   0  0  2  0  0  0  0  0  0  0  0  0
   -1.6247    3.8106    5.4384 C   0  0  1  0  0  0  0  0  0  0  0  0
   -0.1304    3.6591    5.1886 C   0  0  2  0  0  0  0  0  0  0  0  0
    0.1556    2.2564    4.6659 C   0  0  1  0  0  0  0  0  0  0  0  0
   -0.6803    1.9880    3.4174 C   0  0  1  0  0  0  0  0  0  0  0  0
   -0.4975    0.5774    2.8928 C   0  0  0  0  0  0  0  0  0  0  0  0
   -1.9103    5.1425    5.8410 O   0  0  0  0  0  0  0  0  0  0  0  0
    0.6483    3.9635    6.4086 N   0  3  0  0  0  0  0  0  0  0  0  0
    1.5386    2.1282    4.3647 O   0  0  0  0  0  0  0  0  0  0  0  0
   -2.0831    2.1559    3.7157 O   0  0  0  0  0  0  0  0  0  0  0  0
   -1.4225    0.2859    1.8547 O   0  0  0  0  0  0  0  0  0  0  0  0
   -3.9692    3.6522    1.8599 C   0  0  2  0  0  0  0  0  0  0  0  0
   -5.1387    4.1553    1.0248 C   0  0  0  0  0  0  0  0  0  0  0  0
   -6.0321    5.0761    1.8564 C   0  0  1  0  0  0  0  0  0  0  0  0
   -5.2192    6.2690    2.3547 C   0  0  2  0  0  0  0  0  0  0  0  0
   -4.0341    5.7818    3.1898 C   0  0  1  0  0  0  0  0  0  0  0  0
   -3.1611    4.8385    2.3628 C   0  0  1  0  0  0  0  0  0  0  0  0
   -3.0831    2.7868    1.0509 N   0  3  0  0  0  0  0  0  0  0  0  0
   -7.2134    5.4915    1.0565 N   0  3  0  0  0  0  0  0  0  0  0  0
   -3.2643    6.8932    3.6282 O   0  0  0  0  0  0  0  0  0  0  0  0
   -2.0574    4.3708    3.1590 O   0  0  0  0  0  0  0  0  0  0  0  0
   -5.7893    8.5019    3.0278 C   0  0  1  0  0  0  0  0  0  0  0  0
   -6.5865    9.2865    4.0713 C   0  0  1  0  0  0  0  0  0  0  0  0
   -8.0791    9.1207    3.8287 C   0  0  0  0  0  0  0  0  0  0  0  0
   -8.4035    9.5326    2.4020 C   0  0  1  0  0  0  0  0  0  0  0  0
   -7.5533    8.7216    1.4247 C   0  0  1  0  0  0  0  0  0  0  0  0
   -7.7824    9.1219   -0.0214 C   0  0  0  0  0  0  0  0  0  0  0  0
   -6.2000    8.8912    5.4464 N   0  3  0  0  0  0  0  0  0  0  0  0
   -7.2740   10.4875   -0.2940 N   0  3  0  0  0  0  0  0  0  0  0  0
   -6.0509    7.1432    3.1449 O   0  0  0  0  0  0  0  0  0  0  0  0
   -9.7823    9.3194    2.1371 O   0  0  0  0  0  0  0  0  0  0  0  0
   -6.1502    8.9176    1.7049 O   0  0  0  0  0  0  0  0  0  0  0  0
  1  2  1  0  0  0  0
  1 10  1  0  0  0  0
  1 21  1  6  0  0  0
  2  3  1  0  0  0  0
  2  7  1  6  0  0  0
  3  4  1  0  0  0  0
  3  8  1  1  0  0  0
  4  5  1  0  0  0  0
  4  9  1  6  0  0  0
  5  6  1  1  0  0  0
  5 10  1  0  0  0  0
  6 11  1  0  0  0  0
 12 13  1  0  0  0  0
 12 17  1  0  0  0  0
 12 18  1  6  0  0  0
 13 14  1  0  0  0  0
 14 15  1  0  0  0  0
 14 19  1  6  0  0  0
 15 16  1  0  0  0  0
 15 30  1  1  0  0  0
 16 17  1  0  0  0  0
 16 20  1  6  0  0  0
 17 21  1  1  0  0  0
 22 23  1  0  0  0  0
 22 30  1  6  0  0  0
 22 32  1  0  0  0  0
 23 24  1  0  0  0  0
 23 28  1  1  0  0  0
 24 25  1  0  0  0  0
 25 26  1  0  0  0  0
 25 31  1  6  0  0  0
 26 27  1  6  0  0  0
 26 32  1  0  0  0  0
 27 29  1  0  0  0  0
M  CHG  5   8   1  18   1  19   1  28   1  29   1
M  END
>  <CHROM.1>
-138.16769723,-42.60487362,-50.59795224,69.57819501,171.50049412,-69.49913680
-160.50003173,-179.19890648,-144.38812358,-62.27303039,-51.23401559,-171.21819278
-166.55990646,179.20413220,67.99754101,178.92404204,-4.08396046,5.56348134
3.00978305,-0.34501723,-0.70856086,0.76708243

>  <Name>
1tob

>  <RI>
0

>  <Rbt.Current_Directory>
/home/itssahil/PROJECTS/Mol_Feturizer/New_Systems/rnas/1tob

>  <Rbt.Executable>
rbdock ($Id: //depot/dev/client3/rdock/2013.1/src/exe/rbdock.cxx#4 $)

>  <Rbt.Library>
libRbt.so (2013.1, Build901 2013/11/27)

>  <Rbt.Parameter_File>
/export/apps/rDock/src/rDock_2013.1_src/data/scripts/dock_solv.prm

>  <Rbt.Receptor>
prm/pocket_docking_4.prm

>  <SCORE>
-42.6698

>  <SCORE.INTER>
-36.6602

>  <SCORE.INTER.CONST>
1

>  <SCORE.INTER.POLAR>
-5.08737

>  <SCORE.INTER.ROT>
6

>  <SCORE.INTER.SOLV>
24.5295

>  <SCORE.INTER.VDW>
-23.2588

>  <SCORE.INTER.norm>
-1.14563

>  <SCORE.INTRA>
-6.00964

>  <SCORE.INTRA.DIHEDRAL>
-7.40632

>  <SCORE.INTRA.DIHEDRAL.0>
22.9177

>  <SCORE.INTRA.POLAR>
-1.04098

>  <SCORE.INTRA.POLAR.0>
-0.311208

>  <SCORE.INTRA.REPUL>
0

>  <SCORE.INTRA.REPUL.0>
0

>  <SCORE.INTRA.SOLV>
1.44444

>  <SCORE.INTRA.SOLV.lig_0>
-132.657

>  <SCORE.INTRA.VDW>
0.510624

>  <SCORE.INTRA.VDW.0>
-4.68867

>  <SCORE.INTRA.norm>
-0.187801

>  <SCORE.RESTR>
0

>  <SCORE.RESTR.CAVITY>
0

>  <SCORE.RESTR.norm>
0

>  <SCORE.SYSTEM>
0

>  <SCORE.SYSTEM.CONST>
0

>  <SCORE.SYSTEM.DIHEDRAL>
0

>  <SCORE.SYSTEM.SOLV>
0

>  <SCORE.SYSTEM.norm>
0

>  <SCORE.heavy>
32

>  <SCORE.norm>
-1.33343

>  <RMSD>
2.788

$$$$
1tob
 OpenBabel11021811413D
libRbt.so/2013.1/901 2013/11/27
 32 34  0  0  0  0  0  0  0  0999 V2000
   -4.3351    5.8606    1.4985 C   0  0  2  0  0  0  0  0  0  0  0  0
   -3.7402    4.4562    1.4280 C   0  0  1  0  0  0  0  0  0  0  0  0
   -3.5532    3.9074    2.8359 C   0  0  2  0  0  0  0  0  0  0  0  0
   -2.6996    4.8750    3.6468 C   0  0  1  0  0  0  0  0  0  0  0  0
   -3.3358    6.2623    3.6354 C   0  0  1  0  0  0  0  0  0  0  0  0
   -2.4917    7.2903    4.3628 C   0  0  0  0  0  0  0  0  0  0  0  0
   -4.6076    3.6045    0.6934 O   0  0  0  0  0  0  0  0  0  0  0  0
   -2.9705    2.5483    2.8059 N   0  3  0  0  0  0  0  0  0  0  0  0
   -2.5770    4.4048    4.9824 O   0  0  0  0  0  0  0  0  0  0  0  0
   -3.4945    6.7226    2.2759 O   0  0  0  0  0  0  0  0  0  0  0  0
   -3.1890    7.8452    5.4692 O   0  0  0  0  0  0  0  0  0  0  0  0
   -7.9320    6.0194    1.5354 C   0  0  2  0  0  0  0  0  0  0  0  0
   -8.9667    6.9473    0.9137 C   0  0  0  0  0  0  0  0  0  0  0  0
   -9.0180    8.2744    1.6711 C   0  0  1  0  0  0  0  0  0  0  0  0
   -7.6475    8.9462    1.6254 C   0  0  2  0  0  0  0  0  0  0  0  0
   -6.5927    8.0242    2.2392 C   0  0  1  0  0  0  0  0  0  0  0  0
   -6.5666    6.6885    1.4970 C   0  0  1  0  0  0  0  0  0  0  0  0
   -7.8544    4.7460    0.7864 N   0  3  0  0  0  0  0  0  0  0  0  0
  -10.0893    9.1366    1.1080 N   0  3  0  0  0  0  0  0  0  0  0  0
   -5.3142    8.6412    2.1695 O   0  0  0  0  0  0  0  0  0  0  0  0
   -5.5841    5.8198    2.0894 O   0  0  0  0  0  0  0  0  0  0  0  0
   -6.6289   11.0688    2.0957 C   0  0  1  0  0  0  0  0  0  0  0  0
   -6.5916   12.1677    3.1592 C   0  0  1  0  0  0  0  0  0  0  0  0
   -7.8584   13.0075    3.0944 C   0  0  0  0  0  0  0  0  0  0  0  0
   -8.0272   13.5516    1.6852 C   0  0  1  0  0  0  0  0  0  0  0  0
   -8.0327   12.3974    0.6836 C   0  0  1  0  0  0  0  0  0  0  0  0
   -8.1394   12.8714   -0.7545 C   0  0  0  0  0  0  0  0  0  0  0  0
   -6.3720   11.5970    4.5092 N   0  3  0  0  0  0  0  0  0  0  0  0
   -9.4678   13.4678   -1.0326 N   0  3  0  0  0  0  0  0  0  0  0  0
   -7.6823   10.1980    2.3411 O   0  0  0  0  0  0  0  0  0  0  0  0
   -9.2413   14.2821    1.5894 O   0  0  0  0  0  0  0  0  0  0  0  0
   -6.8093   11.6379    0.7931 O   0  0  0  0  0  0  0  0  0  0  0  0
  1  2  1  0  0  0  0
  1 10  1  0  0  0  0
  1 21  1  1  0  0  0
  2  3  1  0  0  0  0
  2  7  1  6  0  0  0
  3  4  1  0  0  0  0
  3  8  1  6  0  0  0
  4  5  1  0  0  0  0
  4  9  1  1  0  0  0
  5  6  1  1  0  0  0
  5 10  1  0  0  0  0
  6 11  1  0  0  0  0
 12 13  1  0  0  0  0
 12 17  1  0  0  0  0
 12 18  1  6  0  0  0
 13 14  1  0  0  0  0
 14 15  1  0  0  0  0
 14 19  1  6  0  0  0
 15 16  1  0  0  0  0
 15 30  1  1  0  0  0
 16 17  1  0  0  0  0
 16 20  1  6  0  0  0
 17 21  1  1  0  0  0
 22 23  1  0  0  0  0
 22 30  1  1  0  0  0
 22 32  1  0  0  0  0
 23 24  1  0  0  0  0
 23 28  1  1  0  0  0
 24 25  1  0  0  0  0
 25 26  1  0  0  0  0
 25 31  1  1  0  0  0
 26 27  1  6  0  0  0
 26 32  1  0  0  0  0
 27 29  1  0  0  0  0
M  CHG  5   8   1  18   1  19   1  28   1  29   1
M  END
>  <CHROM.1>
-140.51382537,175.69617924,-94.66882667,75.23894903,-118.80216019,-89.73828515
-170.47354406,-50.83587733,-163.96322136,-179.76842635,144.24540997,-165.42272445
90.36192830,-48.42427958,-68.20326264,-62.01373482,-6.16922810,8.33777270
2.11710223,0.87615144,0.65347759,-2.88150774

>  <Name>
1tob

>  <RI>
0

>  <Rbt.Current_Directory>
/home/itssahil/PROJECTS/Mol_Feturizer/New_Systems/rnas/1tob

>  <Rbt.Executable>
rbdock ($Id: //depot/dev/client3/rdock/2013.1/src/exe/rbdock.cxx#4 $)

>  <Rbt.Library>
libRbt.so (2013.1, Build901 2013/11/27)

>  <Rbt.Parameter_File>
/export/apps/rDock/src/rDock_2013.1_src/data/scripts/dock_solv.prm

>  <Rbt.Receptor>
prm/pocket_docking_3.prm

>  <SCORE>
-30.1739

>  <SCORE.INTER>
-30.4941

>  <SCORE.INTER.CONST>
1

>  <SCORE.INTER.POLAR>
-5.45765

>  <SCORE.INTER.ROT>
6

>  <SCORE.INTER.SOLV>
20.6618

>  <SCORE.INTER.VDW>
-16.6245

>  <SCORE.INTER.norm>
-0.952941

>  <SCORE.INTRA>
0.320194

>  <SCORE.INTRA.DIHEDRAL>
4.71143

>  <SCORE.INTRA.DIHEDRAL.0>
22.9177

>  <SCORE.INTRA.POLAR>
-0.818552

>  <SCORE.INTRA.POLAR.0>
-0.311208

>  <SCORE.INTRA.REPUL>
0

>  <SCORE.INTRA.REPUL.0>
0

>  <SCORE.INTRA.SOLV>
-2.62633

>  <SCORE.INTRA.SOLV.lig_0>
-132.657

>  <SCORE.INTRA.VDW>
2.06072

>  <SCORE.INTRA.VDW.0>
-4.68867

>  <SCORE.INTRA.norm>
0.0100061

>  <SCORE.RESTR>
0

>  <SCORE.RESTR.CAVITY>
0

>  <SCORE.RESTR.norm>
0

>  <SCORE.SYSTEM>
0

>  <SCORE.SYSTEM.CONST>
0

>  <SCORE.SYSTEM.DIHEDRAL>
0

>  <SCORE.SYSTEM.SOLV>
0

>  <SCORE.SYSTEM.norm>
0

>  <SCORE.heavy>
32

>  <SCORE.norm>
-0.942935

>  <RMSD>
2.797

$$$$
1tob
 OpenBabel11021811413D
libRbt.so/2013.1/901 2013/11/27
 32 34  0  0  0  0  0  0  0  0999 V2000
   -2.0060    3.6605    4.2612 C   0  0  2  0  0  0  0  0  0  0  0  0
   -1.4696    4.0779    5.6284 C   0  0  1  0  0  0  0  0  0  0  0  0
    0.0463    4.2066    5.5669 C   0  0  2  0  0  0  0  0  0  0  0  0
    0.6453    2.8974    5.0673 C   0  0  1  0  0  0  0  0  0  0  0  0
    0.0308    2.5268    3.7204 C   0  0  1  0  0  0  0  0  0  0  0  0
    0.5308    1.1913    3.2057 C   0  0  0  0  0  0  0  0  0  0  0  0
   -2.0408    5.3218    6.0080 O   0  0  0  0  0  0  0  0  0  0  0  0
    0.6019    4.6033    6.8789 N   0  3  0  0  0  0  0  0  0  0  0  0
    2.0547    3.0307    4.9412 O   0  0  0  0  0  0  0  0  0  0  0  0
   -1.4048    2.4290    3.8416 O   0  0  0  0  0  0  0  0  0  0  0  0
    1.9504    1.1443    3.1782 O   0  0  0  0  0  0  0  0  0  0  0  0
   -3.6555    3.8988    2.0682 C   0  0  2  0  0  0  0  0  0  0  0  0
   -4.8507    4.3940    1.2653 C   0  0  0  0  0  0  0  0  0  0  0  0
   -5.7302    5.3045    2.1227 C   0  0  1  0  0  0  0  0  0  0  0  0
   -4.9152    6.5030    2.6035 C   0  0  2  0  0  0  0  0  0  0  0  0
   -3.7046    6.0238    3.4061 C   0  0  1  0  0  0  0  0  0  0  0  0
   -2.8451    5.0907    2.5538 C   0  0  1  0  0  0  0  0  0  0  0  0
   -2.7831    3.0437    1.2338 N   0  3  0  0  0  0  0  0  0  0  0  0
   -6.9355    5.7117    1.3549 N   0  3  0  0  0  0  0  0  0  0  0  0
   -2.9335    7.1407    3.8280 O   0  0  0  0  0  0  0  0  0  0  0  0
   -1.7171    4.6304    3.3197 O   0  0  0  0  0  0  0  0  0  0  0  0
   -5.3649    8.7059    3.4454 C   0  0  1  0  0  0  0  0  0  0  0  0
   -6.2310    9.4733    4.4458 C   0  0  1  0  0  0  0  0  0  0  0  0
   -7.6888    9.4451    4.0116 C   0  0  0  0  0  0  0  0  0  0  0  0
   -7.8000    9.9846    2.5950 C   0  0  1  0  0  0  0  0  0  0  0  0
   -6.8916    9.1819    1.6643 C   0  0  1  0  0  0  0  0  0  0  0  0
   -6.9069    9.7036    0.2389 C   0  0  0  0  0  0  0  0  0  0  0  0
   -6.0507    8.9492    5.8203 N   0  3  0  0  0  0  0  0  0  0  0  0
   -5.9505    8.9653   -0.6200 N   0  3  0  0  0  0  0  0  0  0  0  0
   -5.7337    7.3675    3.4177 O   0  0  0  0  0  0  0  0  0  0  0  0
   -9.1456    9.9018    2.1486 O   0  0  0  0  0  0  0  0  0  0  0  0
   -5.5252    9.2444    2.1273 O   0  0  0  0  0  0  0  0  0  0  0  0
  1  2  1  0  0  0  0
  1 10  1  0  0  0  0
  1 21  1  6  0  0  0
  2  3  1  0  0  0  0
  2  7  1  6  0  0  0
  3  4  1  0  0  0  0
  3  8  1  1  0  0  0
  4  5  1  0  0  0  0
  4  9  1  6  0  0  0
  5  6  1  1  0  0  0
  5 10  1  0  0  0  0
  6 11  1  0  0  0  0
 12 13  1  0  0  0  0
 12 17  1  0  0  0  0
 12 18  1  6  0  0  0
 13 14  1  0  0  0  0
 14 15  1  0  0  0  0
 14 19  1  6  0  0  0
 15 16  1  0  0  0  0
 15 30  1  1  0  0  0
 16 17  1  0  0  0  0
 16 20  1  6  0  0  0
 17 21  1  1  0  0  0
 22 23  1  0  0  0  0
 22 30  1  6  0  0  0
 22 32  1  0  0  0  0
 23 24  1  0  0  0  0
 23 28  1  1  0  0  0
 24 25  1  0  0  0  0
 25 26  1  0  0  0  0
 25 31  1  6  0  0  0
 26 27  1  6  0  0  0
 26 32  1  0  0  0  0
 27 29  1  0  0  0  0
M  CHG  5   8   1  18   1  19   1  28   1  29   1
M  END
>  <CHROM.1>
-127.57419548,-109.66786634,-174.29222171,66.01470118,-53.14424032,-149.47406517
-50.43649982,-177.87740765,-153.24195069,-58.83728389,-46.58446557,-174.58294960
58.49418422,63.84408435,176.20129261,85.73001729,-3.54305350,5.86531795,3.29540536
-0.19460670,-0.70962453,0.95276990

>  <Name>
1tob

>  <RI>
0

>  <Rbt.Current_Directory>
/home/itssahil/PROJECTS/Mol_Feturizer/New_Systems/rnas/1tob

>  <Rbt.Executable>
rbdock ($Id: //depot/dev/client3/rdock/2013.1/src/exe/rbdock.cxx#4 $)

>  <Rbt.Library>
libRbt.so (2013.1, Build901 2013/11/27)

>  <Rbt.Parameter_File>
/export/apps/rDock/src/rDock_2013.1_src/data/scripts/dock_solv.prm

>  <Rbt.Receptor>
prm/pocket_docking_8.prm

>  <SCORE>
-43.7811

>  <SCORE.INTER>
-43.7545

>  <SCORE.INTER.CONST>
1

>  <SCORE.INTER.POLAR>
-7.20733

>  <SCORE.INTER.ROT>
6

>  <SCORE.INTER.SOLV>
26.0656

>  <SCORE.INTER.VDW>
-21.4337

>  <SCORE.INTER.norm>
-1.36733

>  <SCORE.INTRA>
-0.0266063

>  <SCORE.INTRA.DIHEDRAL>
0.70959

>  <SCORE.INTRA.DIHEDRAL.0>
22.9177

>  <SCORE.INTRA.POLAR>
-0.497562

>  <SCORE.INTRA.POLAR.0>
-0.311208

>  <SCORE.INTRA.REPUL>
0

>  <SCORE.INTRA.REPUL.0>
0

>  <SCORE.INTRA.SOLV>
-0.528822

>  <SCORE.INTRA.SOLV.lig_0>
-132.657

>  <SCORE.INTRA.VDW>
1.57472

>  <SCORE.INTRA.VDW.0>
-4.68867

>  <SCORE.INTRA.norm>
-0.000831447

>  <SCORE.RESTR>
0

>  <SCORE.RESTR.CAVITY>
0

>  <SCORE.RESTR.norm>
0

>  <SCORE.SYSTEM>
0

>  <SCORE.SYSTEM.CONST>
0

>  <SCORE.SYSTEM.DIHEDRAL>
0

>  <SCORE.SYSTEM.SOLV>
0

>  <SCORE.SYSTEM.norm>
0

>  <SCORE.heavy>
32

>  <SCORE.norm>
-1.36816

>  <RMSD>
2.876

$$$$
1tob
 OpenBabel11021811413D
libRbt.so/2013.1/901 2013/11/27
 32 34  0  0  0  0  0  0  0  0999 V2000
   -1.6012    5.0068    3.5072 C   0  0  2  0  0  0  0  0  0  0  0  0
   -0.7093    3.9999    2.7848 C   0  0  1  0  0  0  0  0  0  0  0  0
   -0.7775    2.6539    3.4932 C   0  0  2  0  0  0  0  0  0  0  0  0
   -0.4043    2.8345    4.9597 C   0  0  1  0  0  0  0  0  0  0  0  0
   -1.3097    3.8832    5.5998 C   0  0  1  0  0  0  0  0  0  0  0  0
   -0.9372    4.1645    7.0422 C   0  0  0  0  0  0  0  0  0  0  0  0
   -1.1414    3.8554    1.4395 O   0  0  0  0  0  0  0  0  0  0  0  0
    0.0822    1.6540    2.8234 N   0  3  0  0  0  0  0  0  0  0  0  0
   -0.5318    1.5956    5.6444 O   0  0  0  0  0  0  0  0  0  0  0  0
   -1.2077    5.1307    4.8797 O   0  0  0  0  0  0  0  0  0  0  0  0
    0.4705    4.2634    7.2048 O   0  0  0  0  0  0  0  0  0  0  0  0
   -4.3679    3.5605    1.8243 C   0  0  2  0  0  0  0  0  0  0  0  0
   -5.0775    3.7996    0.4986 C   0  0  0  0  0  0  0  0  0  0  0  0
   -6.0269    4.9930    0.6082 C   0  0  1  0  0  0  0  0  0  0  0  0
   -5.2389    6.2440    0.9901 C   0  0  2  0  0  0  0  0  0  0  0  0
   -4.5121    6.0191    2.3170 C   0  0  1  0  0  0  0  0  0  0  0  0
   -3.5870    4.8072    2.2106 C   0  0  1  0  0  0  0  0  0  0  0  0
   -3.4233    2.4273    1.7149 N   0  3  0  0  0  0  0  0  0  0  0  0
   -6.7746    5.1624   -0.6647 N   0  3  0  0  0  0  0  0  0  0  0  0
   -3.7577    7.1752    2.6550 O   0  0  0  0  0  0  0  0  0  0  0  0
   -2.9189    4.5911    3.4666 O   0  0  0  0  0  0  0  0  0  0  0  0
   -7.2183    7.2135    1.9418 C   0  0  1  0  0  0  0  0  0  0  0  0
   -8.2442    8.3215    1.6971 C   0  0  1  0  0  0  0  0  0  0  0  0
   -7.6467    9.6783    2.0381 C   0  0  0  0  0  0  0  0  0  0  0  0
   -7.1305    9.6533    3.4676 C   0  0  1  0  0  0  0  0  0  0  0  0
   -6.1310    8.5094    3.6355 C   0  0  1  0  0  0  0  0  0  0  0  0
   -5.6161    8.3868    5.0581 C   0  0  0  0  0  0  0  0  0  0  0  0
   -8.7595    8.2747    0.3083 N   0  3  0  0  0  0  0  0  0  0  0  0
   -5.0596    7.0378    5.3199 N   0  3  0  0  0  0  0  0  0  0  0  0
   -6.1253    7.3764    1.1010 O   0  0  0  0  0  0  0  0  0  0  0  0
   -6.5077   10.8907    3.7802 O   0  0  0  0  0  0  0  0  0  0  0  0
   -6.7536    7.2512    3.2968 O   0  0  0  0  0  0  0  0  0  0  0  0
  1  2  1  0  0  0  0
  1 10  1  0  0  0  0
  1 21  1  1  0  0  0
  2  3  1  0  0  0  0
  2  7  1  6  0  0  0
  3  4  1  0  0  0  0
  3  8  1  6  0  0  0
  4  5  1  0  0  0  0
  4  9  1  1  0  0  0
  5  6  1  1  0  0  0
  5 10  1  0  0  0  0
  6 11  1  0  0  0  0
 12 13  1  0  0  0  0
 12 17  1  0  0  0  0
 12 18  1  6  0  0  0
 13 14  1  0  0  0  0
 14 15  1  0  0  0  0
 14 19  1  6  0  0  0
 15 16  1  0  0  0  0
 15 30  1  1  0  0  0
 16 17  1  0  0  0  0
 16 20  1  6  0  0  0
 17 21  1  1  0  0  0
 22 23  1  0  0  0  0
 22 30  1  6  0  0  0
 22 32  1  0  0  0  0
 23 24  1  0  0  0  0
 23 28  1  6  0  0  0
 24 25  1  0  0  0  0
 25 26  1  0  0  0  0
 25 31  1  6  0  0  0
 26 27  1  1  0  0  0
 26 32  1  0  0  0  0
 27 29  1  0  0  0  0
M  CHG  5   8   1  18   1  19   1  28   1  29   1
M  END
>  <CHROM.1>
-77.19876892,151.23485354,68.03035871,67.75154908,42.84486329,54.68506224
-14.70600096,-172.09314034,53.46898175,-56.07424316,134.77218395,-165.60915740
65.97751787,68.22257857,159.59568013,-54.69251386,-3.99489487,5.61895027
3.01979897,-0.16478684,-0.70808183,0.86671429

>  <Name>
1tob

>  <RI>
0

>  <Rbt.Current_Directory>
/home/itssahil/PROJECTS/Mol_Feturizer/New_Systems/rnas/1tob

>  <Rbt.Executable>
rbdock ($Id: //depot/dev/client3/rdock/2013.1/src/exe/rbdock.cxx#4 $)

>  <Rbt.Library>
libRbt.so (2013.1, Build901 2013/11/27)

>  <Rbt.Parameter_File>
/export/apps/rDock/src/rDock_2013.1_src/data/scripts/dock_solv.prm

>  <Rbt.Receptor>
prm/pocket_docking_2.prm

>  <SCORE>
-48.1861

>  <SCORE.INTER>
-47.3497

>  <SCORE.INTER.CONST>
1

>  <SCORE.INTER.POLAR>
-6.88708

>  <SCORE.INTER.ROT>
6

>  <SCORE.INTER.SOLV>
25.7403

>  <SCORE.INTER.VDW>
-24.7896

>  <SCORE.INTER.norm>
-1.47968

>  <SCORE.INTRA>
-2.90867

>  <SCORE.INTRA.DIHEDRAL>
-3.9748

>  <SCORE.INTRA.DIHEDRAL.0>
22.9177

>  <SCORE.INTRA.POLAR>
-1.68918

>  <SCORE.INTRA.POLAR.0>
-0.311208

>  <SCORE.INTRA.REPUL>
0

>  <SCORE.INTRA.REPUL.0>
0

>  <SCORE.INTRA.SOLV>
6.23555

>  <SCORE.INTRA.SOLV.lig_0>
-132.657

>  <SCORE.INTRA.VDW>
1.70418

>  <SCORE.INTRA.VDW.0>
-4.68867

>  <SCORE.INTRA.norm>
-0.0908958

>  <SCORE.RESTR>
2.07226

>  <SCORE.RESTR.CAVITY>
2.07226

>  <SCORE.RESTR.norm>
0.0647583

>  <SCORE.SYSTEM>
0

>  <SCORE.SYSTEM.CONST>
0

>  <SCORE.SYSTEM.DIHEDRAL>
0

>  <SCORE.SYSTEM.SOLV>
0

>  <SCORE.SYSTEM.norm>
0

>  <SCORE.heavy>
32

>  <SCORE.norm>
-1.50582

>  <RMSD>
2.878

$$$$
1tob
 OpenBabel11021811413D
libRbt.so/2013.1/901 2013/11/27
 32 34  0  0  0  0  0  0  0  0999 V2000
   -2.8020    4.1011    4.1117 C   0  0  2  0  0  0  0  0  0  0  0  0
   -1.7757    4.4555    5.1852 C   0  0  1  0  0  0  0  0  0  0  0  0
   -0.4191    3.8756    4.8089 C   0  0  2  0  0  0  0  0  0  0  0  0
   -0.5545    2.3738    4.5881 C   0  0  1  0  0  0  0  0  0  0  0  0
   -1.6247    2.0990    3.5353 C   0  0  1  0  0  0  0  0  0  0  0  0
   -1.8612    0.6162    3.3260 C   0  0  0  0  0  0  0  0  0  0  0  0
   -1.6762    5.8673    5.3057 O   0  0  0  0  0  0  0  0  0  0  0  0
    0.5999    4.1939    5.8325 N   0  3  0  0  0  0  0  0  0  0  0  0
    0.6923    1.8350    4.1695 O   0  0  0  0  0  0  0  0  0  0  0  0
   -2.8819    2.6799    3.9444 O   0  0  0  0  0  0  0  0  0  0  0  0
   -1.3456    0.1798    2.0763 O   0  0  0  0  0  0  0  0  0  0  0  0
   -4.5454    3.8926    1.9907 C   0  0  2  0  0  0  0  0  0  0  0  0
   -5.7074    4.2915    1.0914 C   0  0  0  0  0  0  0  0  0  0  0  0
   -6.3835    5.5563    1.6213 C   0  0  1  0  0  0  0  0  0  0  0  0
   -5.3709    6.6983    1.6718 C   0  0  2  0  0  0  0  0  0  0  0  0
   -4.1913    6.3118    2.5653 C   0  0  1  0  0  0  0  0  0  0  0  0
   -3.5380    5.0306    2.0480 C   0  0  1  0  0  0  0  0  0  0  0  0
   -3.8667    2.6879    1.4646 N   0  3  0  0  0  0  0  0  0  0  0  0
   -7.5660    5.8858    0.7840 N   0  3  0  0  0  0  0  0  0  0  0  0
   -3.2380    7.3658    2.5874 O   0  0  0  0  0  0  0  0  0  0  0  0
   -2.4395    4.6633    2.9020 O   0  0  0  0  0  0  0  0  0  0  0  0
   -6.7609    8.6126    1.2631 C   0  0  1  0  0  0  0  0  0  0  0  0
   -6.5157   10.1133    1.4297 C   0  0  1  0  0  0  0  0  0  0  0  0
   -6.9641   10.5710    2.8094 C   0  0  0  0  0  0  0  0  0  0  0  0
   -8.4182   10.1810    3.0185 C   0  0  1  0  0  0  0  0  0  0  0  0
   -8.5834    8.6756    2.8138 C   0  0  1  0  0  0  0  0  0  0  0  0
  -10.0254    8.2215    2.9499 C   0  0  0  0  0  0  0  0  0  0  0  0
   -5.0983   10.4553    1.1644 N   0  3  0  0  0  0  0  0  0  0  0  0
  -10.6306    7.9318    1.6280 N   0  3  0  0  0  0  0  0  0  0  0  0
   -5.9965    7.8966    2.1748 O   0  0  0  0  0  0  0  0  0  0  0  0
   -8.8334   10.5404    4.3283 O   0  0  0  0  0  0  0  0  0  0  0  0
   -8.1411    8.3021    1.4909 O   0  0  0  0  0  0  0  0  0  0  0  0
  1  2  1  0  0  0  0
  1 10  1  0  0  0  0
  1 21  1  6  0  0  0
  2  3  1  0  0  0  0
  2  7  1  6  0  0  0
  3  4  1  0  0  0  0
  3  8  1  1  0  0  0
  4  5  1  0  0  0  0
  4  9  1  6  0  0  0
  5  6  1  1  0  0  0
  5 10  1  0  0  0  0
  6 11  1  0  0  0  0
 12 13  1  0  0  0  0
 12 17  1  0  0  0  0
 12 18  1  6  0  0  0
 13 14  1  0  0  0  0
 14 15  1  0  0  0  0
 14 19  1  6  0  0  0
 15 16  1  0  0  0  0
 15 30  1  1  0  0  0
 16 17  1  0  0  0  0
 16 20  1  6  0  0  0
 17 21  1  1  0  0  0
 22 23  1  0  0  0  0
 22 30  1  1  0  0  0
 22 32  1  0  0  0  0
 23 24  1  0  0  0  0
 23 28  1  1  0  0  0
 24 25  1  0  0  0  0
 25 26  1  0  0  0  0
 25 31  1  1  0  0  0
 26 27  1  6  0  0  0
 26 32  1  0  0  0  0
 27 29  1  0  0  0  0
M  CHG  5   8   1  18   1  19   1  28   1  29   1
M  END
>  <CHROM.1>
-148.50384890,-50.46610677,95.84991002,175.15504683,-108.17817042,60.08902384
-14.80405610,52.39869365,-79.58695806,-60.48534581,-46.46924450,-138.52716215
-57.99340771,84.72040255,104.49353251,-0.94835381,-4.55253212,5.81068061
2.82719533,-0.61879527,-0.48062206,0.32224705

>  <Name>
1tob

>  <RI>
0

>  <Rbt.Current_Directory>
/home/itssahil/PROJECTS/Mol_Feturizer/New_Systems/rnas/1tob

>  <Rbt.Executable>
rbdock ($Id: //depot/dev/client3/rdock/2013.1/src/exe/rbdock.cxx#4 $)

>  <Rbt.Library>
libRbt.so (2013.1, Build901 2013/11/27)

>  <Rbt.Parameter_File>
/export/apps/rDock/src/rDock_2013.1_src/data/scripts/dock_solv.prm

>  <Rbt.Receptor>
prm/pocket_docking_3.prm

>  <SCORE>
-20.5308

>  <SCORE.INTER>
-26.9967

>  <SCORE.INTER.CONST>
1

>  <SCORE.INTER.POLAR>
-3.3213

>  <SCORE.INTER.ROT>
6

>  <SCORE.INTER.SOLV>
20.619

>  <SCORE.INTER.VDW>
-21.3998

>  <SCORE.INTER.norm>
-0.843647

>  <SCORE.INTRA>
6.4332

>  <SCORE.INTRA.DIHEDRAL>
10.9005

>  <SCORE.INTRA.DIHEDRAL.0>
22.9177

>  <SCORE.INTRA.POLAR>
-1.49898

>  <SCORE.INTRA.POLAR.0>
-0.311208

>  <SCORE.INTRA.REPUL>
0

>  <SCORE.INTRA.REPUL.0>
0

>  <SCORE.INTRA.SOLV>
4.16613

>  <SCORE.INTRA.SOLV.lig_0>
-132.657

>  <SCORE.INTRA.VDW>
3.99644

>  <SCORE.INTRA.VDW.0>
-4.68867

>  <SCORE.INTRA.norm>
0.201037

>  <SCORE.RESTR>
0.03266

>  <SCORE.RESTR.CAVITY>
0.03266

>  <SCORE.RESTR.norm>
0.00102062

>  <SCORE.SYSTEM>
0

>  <SCORE.SYSTEM.CONST>
0

>  <SCORE.SYSTEM.DIHEDRAL>
0

>  <SCORE.SYSTEM.SOLV>
0

>  <SCORE.SYSTEM.norm>
0

>  <SCORE.heavy>
32

>  <SCORE.norm>
-0.641589

>  <RMSD>
2.887

$$$$
1tob
 OpenBabel11021811413D
libRbt.so/2013.1/901 2013/11/27
 32 34  0  0  0  0  0  0  0  0999 V2000
   -3.1655    3.9433    1.7857 C   0  0  2  0  0  0  0  0  0  0  0  0
   -2.2235    3.3938    2.8543 C   0  0  1  0  0  0  0  0  0  0  0  0
   -2.2539    4.2983    4.0788 C   0  0  2  0  0  0  0  0  0  0  0  0
   -1.9143    5.7245    3.6628 C   0  0  1  0  0  0  0  0  0  0  0  0
   -2.8699    6.1861    2.5660 C   0  0  1  0  0  0  0  0  0  0  0  0
   -2.5344    7.5732    2.0543 C   0  0  0  0  0  0  0  0  0  0  0  0
   -2.6255    2.0811    3.2186 O   0  0  0  0  0  0  0  0  0  0  0  0
   -1.3454    3.7993    5.1337 N   0  3  0  0  0  0  0  0  0  0  0  0
   -2.0075    6.5885    4.7874 O   0  0  0  0  0  0  0  0  0  0  0  0
   -2.8018    5.2856    1.4392 O   0  0  0  0  0  0  0  0  0  0  0  0
   -1.2794    7.5914    1.3889 O   0  0  0  0  0  0  0  0  0  0  0  0
   -6.2105    4.0998    0.5838 C   0  0  2  0  0  0  0  0  0  0  0  0
   -7.1493    5.0700   -0.1201 C   0  0  0  0  0  0  0  0  0  0  0  0
   -8.0423    5.7821    0.8962 C   0  0  1  0  0  0  0  0  0  0  0  0
   -7.1768    6.5517    1.8915 C   0  0  2  0  0  0  0  0  0  0  0  0
   -6.2207    5.5932    2.6032 C   0  0  1  0  0  0  0  0  0  0  0  0
   -5.3513    4.8626    1.5805 C   0  0  1  0  0  0  0  0  0  0  0  0
   -5.3211    3.4320   -0.3916 N   0  3  0  0  0  0  0  0  0  0  0  0
   -9.0099    6.6614    0.1902 N   0  3  0  0  0  0  0  0  0  0  0  0
   -5.3979    6.3172    3.5082 O   0  0  0  0  0  0  0  0  0  0  0  0
   -4.4657    3.9507    2.2550 O   0  0  0  0  0  0  0  0  0  0  0  0
   -8.1971    8.5853    2.6576 C   0  0  1  0  0  0  0  0  0  0  0  0
   -8.3057    9.3091    4.0009 C   0  0  1  0  0  0  0  0  0  0  0  0
   -9.5271    8.8215    4.7655 C   0  0  0  0  0  0  0  0  0  0  0  0
  -10.7630    8.9936    3.8976 C   0  0  1  0  0  0  0  0  0  0  0  0
  -10.5673    8.2623    2.5700 C   0  0  1  0  0  0  0  0  0  0  0  0
  -11.7424    8.4400    1.6256 C   0  0  0  0  0  0  0  0  0  0  0  0
   -7.0602    9.1597    4.7901 N   0  3  0  0  0  0  0  0  0  0  0  0
  -11.8505    9.8402    1.1507 N   0  3  0  0  0  0  0  0  0  0  0  0
   -8.0087    7.2244    2.8588 O   0  0  0  0  0  0  0  0  0  0  0  0
  -11.9035    8.4800    4.5702 O   0  0  0  0  0  0  0  0  0  0  0  0
   -9.3954    8.7658    1.8929 O   0  0  0  0  0  0  0  0  0  0  0  0
  1  2  1  0  0  0  0
  1 10  1  0  0  0  0
  1 21  1  1  0  0  0
  2  3  1  0  0  0  0
  2  7  1  1  0  0  0
  3  4  1  0  0  0  0
  3  8  1  1  0  0  0
  4  5  1  0  0  0  0
  4  9  1  1  0  0  0
  5  6  1  6  0  0  0
  5 10  1  0  0  0  0
  6 11  1  0  0  0  0
 12 13  1  0  0  0  0
 12 17  1  0  0  0  0
 12 18  1  6  0  0  0
 13 14  1  0  0  0  0
 14 15  1  0  0  0  0
 14 19  1  6  0  0  0
 15 16  1  0  0  0  0
 15 30  1  1  0  0  0
 16 17  1  0  0  0  0
 16 20  1  1  0  0  0
 17 21  1  1  0  0  0
 22 23  1  0  0  0  0
 22 30  1  1  0  0  0
 22 32  1  0  0  0  0
 23 24  1  0  0  0  0
 23 28  1  1  0  0  0
 24 25  1  0  0  0  0
 25 26  1  0  0  0  0
 25 31  1  1  0  0  0
 26 27  1  6  0  0  0
 26 32  1  0  0  0  0
 27 29  1  0  0  0  0
M  CHG  5   8   1  18   1  19   1  28   1  29   1
M  END
>  <CHROM.1>
158.24215223,-44.37363477,-157.94070471,69.84054232,65.88172714,-178.88223307
79.70967218,-7.29450683,-101.71588887,81.47090129,101.06305540,-145.96955353
-160.63577803,-59.68035339,67.81639178,69.03947290,-6.12802083,6.40405265
2.53845897,0.29297470,0.36809421,-2.31906960

>  <Name>
1tob

>  <RI>
0

>  <Rbt.Current_Directory>
/home/itssahil/PROJECTS/Mol_Feturizer/New_Systems/rnas/1tob

>  <Rbt.Executable>
rbdock ($Id: //depot/dev/client3/rdock/2013.1/src/exe/rbdock.cxx#4 $)

>  <Rbt.Library>
libRbt.so (2013.1, Build901 2013/11/27)

>  <Rbt.Parameter_File>
/export/apps/rDock/src/rDock_2013.1_src/data/scripts/dock_solv.prm

>  <Rbt.Receptor>
prm/pocket_docking_6.prm

>  <SCORE>
-35.2639

>  <SCORE.INTER>
-38.4357

>  <SCORE.INTER.CONST>
1

>  <SCORE.INTER.POLAR>
-6.31083

>  <SCORE.INTER.ROT>
6

>  <SCORE.INTER.SOLV>
24.5171

>  <SCORE.INTER.VDW>
-20.36

>  <SCORE.INTER.norm>
-1.20111

>  <SCORE.INTRA>
3.17176

>  <SCORE.INTRA.DIHEDRAL>
5.28275

>  <SCORE.INTRA.DIHEDRAL.0>
22.9177

>  <SCORE.INTRA.POLAR>
-0.689582

>  <SCORE.INTRA.POLAR.0>
-0.311208

>  <SCORE.INTRA.REPUL>
0

>  <SCORE.INTRA.REPUL.0>
0

>  <SCORE.INTRA.SOLV>
1.09069

>  <SCORE.INTRA.SOLV.lig_0>
-132.657

>  <SCORE.INTRA.VDW>
2.32962

>  <SCORE.INTRA.VDW.0>
-4.68867

>  <SCORE.INTRA.norm>
0.0991174

>  <SCORE.RESTR>
0

>  <SCORE.RESTR.CAVITY>
0

>  <SCORE.RESTR.norm>
0

>  <SCORE.SYSTEM>
0

>  <SCORE.SYSTEM.CONST>
0

>  <SCORE.SYSTEM.DIHEDRAL>
0

>  <SCORE.SYSTEM.SOLV>
0

>  <SCORE.SYSTEM.norm>
0

>  <SCORE.heavy>
32

>  <SCORE.norm>
-1.102

>  <RMSD>
2.909

$$$$
1tob
 OpenBabel11021811413D
libRbt.so/2013.1/901 2013/11/27
 32 34  0  0  0  0  0  0  0  0999 V2000
   -0.1940    4.2335    3.5302 C   0  0  2  0  0  0  0  0  0  0  0  0
    0.9512    3.3307    3.0780 C   0  0  1  0  0  0  0  0  0  0  0  0
    1.0445    2.1210    3.9979 C   0  0  2  0  0  0  0  0  0  0  0  0
    1.1920    2.5921    5.4397 C   0  0  1  0  0  0  0  0  0  0  0  0
    0.0361    3.5202    5.8028 C   0  0  1  0  0  0  0  0  0  0  0  0
    0.1674    4.0848    7.2036 C   0  0  0  0  0  0  0  0  0  0  0  0
    0.7245    2.9009    1.7433 O   0  0  0  0  0  0  0  0  0  0  0  0
    2.1505    1.2265    3.5930 N   0  3  0  0  0  0  0  0  0  0  0  0
    1.2107    1.4705    6.3125 O   0  0  0  0  0  0  0  0  0  0  0  0
   -0.0046    4.6396    4.8915 O   0  0  0  0  0  0  0  0  0  0  0  0
   -0.2025    3.1275    8.1858 O   0  0  0  0  0  0  0  0  0  0  0  0
   -3.0625    2.9198    1.8032 C   0  0  2  0  0  0  0  0  0  0  0  0
   -4.0309    3.4706    0.7653 C   0  0  0  0  0  0  0  0  0  0  0  0
   -5.0211    4.4358    1.4174 C   0  0  1  0  0  0  0  0  0  0  0  0
   -4.2624    5.5935    2.0624 C   0  0  2  0  0  0  0  0  0  0  0  0
   -3.2780    5.0579    3.1033 C   0  0  1  0  0  0  0  0  0  0  0  0
   -2.3096    4.0712    2.4519 C   0  0  1  0  0  0  0  0  0  0  0  0
   -2.0811    2.0105    1.1721 N   0  3  0  0  0  0  0  0  0  0  0  0
   -6.0116    4.8996    0.4116 N   0  3  0  0  0  0  0  0  0  0  0  0
   -2.5541    6.1358    3.6813 O   0  0  0  0  0  0  0  0  0  0  0  0
   -1.3970    3.5586    3.4394 O   0  0  0  0  0  0  0  0  0  0  0  0
   -5.5385    7.6230    1.9347 C   0  0  1  0  0  0  0  0  0  0  0  0
   -5.1848    8.9046    2.6911 C   0  0  1  0  0  0  0  0  0  0  0  0
   -5.9857    8.9936    3.9814 C   0  0  0  0  0  0  0  0  0  0  0  0
   -7.4673    8.8848    3.6597 C   0  0  1  0  0  0  0  0  0  0  0  0
   -7.7343    7.5932    2.8875 C   0  0  1  0  0  0  0  0  0  0  0  0
   -9.1890    7.4454    2.4801 C   0  0  0  0  0  0  0  0  0  0  0  0
   -3.7258    8.9947    2.9357 N   0  3  0  0  0  0  0  0  0  0  0  0
   -9.5344    8.3534    1.3603 N   0  3  0  0  0  0  0  0  0  0  0  0
   -5.1865    6.5091    2.6853 O   0  0  0  0  0  0  0  0  0  0  0  0
   -8.2265    8.8975    4.8598 O   0  0  0  0  0  0  0  0  0  0  0  0
   -6.9470    7.5656    1.6772 O   0  0  0  0  0  0  0  0  0  0  0  0
  1  2  1  0  0  0  0
  1 10  1  0  0  0  0
  1 21  1  1  0  0  0
  2  3  1  0  0  0  0
  2  7  1  6  0  0  0
  3  4  1  0  0  0  0
  3  8  1  6  0  0  0
  4  5  1  0  0  0  0
  4  9  1  1  0  0  0
  5  6  1  1  0  0  0
  5 10  1  0  0  0  0
  6 11  1  0  0  0  0
 12 13  1  0  0  0  0
 12 17  1  0  0  0  0
 12 18  1  6  0  0  0
 13 14  1  0  0  0  0
 14 15  1  0  0  0  0
 14 19  1  6  0  0  0
 15 16  1  0  0  0  0
 15 30  1  1  0  0  0
 16 17  1  0  0  0  0
 16 20  1  6  0  0  0
 17 21  1  1  0  0  0
 22 23  1  0  0  0  0
 22 30  1  1  0  0  0
 22 32  1  0  0  0  0
 23 24  1  0  0  0  0
 23 28  1  1  0  0  0
 24 25  1  0  0  0  0
 25 26  1  0  0  0  0
 25 31  1  1  0  0  0
 26 27  1  6  0  0  0
 26 32  1  0  0  0  0
 27 29  1  0  0  0  0
M  CHG  5   8   1  18   1  19   1  28   1  29   1
M  END
>  <CHROM.1>
-113.36218944,69.38053171,71.39349269,-53.05704699,-77.44021252,-80.02043382
98.28083773,-43.57768182,-96.98168009,-175.98237399,143.50746802,-121.89349977
-47.81645424,179.42610830,74.01540171,174.24277849,-3.16714890,5.14729540
3.29458569,-0.09456092,-0.61701714,1.02929762

>  <Name>
1tob

>  <RI>
0

>  <Rbt.Current_Directory>
/home/itssahil/PROJECTS/Mol_Feturizer/New_Systems/rnas/1tob

>  <Rbt.Executable>
rbdock ($Id: //depot/dev/client3/rdock/2013.1/src/exe/rbdock.cxx#4 $)

>  <Rbt.Library>
libRbt.so (2013.1, Build901 2013/11/27)

>  <Rbt.Parameter_File>
/export/apps/rDock/src/rDock_2013.1_src/data/scripts/dock_solv.prm

>  <Rbt.Receptor>
prm/blind_docking_60.prm

>  <SCORE>
-38.138

>  <SCORE.INTER>
-42.0725

>  <SCORE.INTER.CONST>
1

>  <SCORE.INTER.POLAR>
-5.69785

>  <SCORE.INTER.ROT>
6

>  <SCORE.INTER.SOLV>
21.5946

>  <SCORE.INTER.VDW>
-23.8537

>  <SCORE.INTER.norm>
-1.31477

>  <SCORE.INTRA>
-6.53286

>  <SCORE.INTRA.DIHEDRAL>
9.21437

>  <SCORE.INTRA.DIHEDRAL.0>
22.9177

>  <SCORE.INTRA.POLAR>
-3.51663

>  <SCORE.INTRA.POLAR.0>
-0.311208

>  <SCORE.INTRA.REPUL>
0

>  <SCORE.INTRA.REPUL.0>
0

>  <SCORE.INTRA.SOLV>
0.11155

>  <SCORE.INTRA.SOLV.lig_0>
-132.657

>  <SCORE.INTRA.VDW>
0.760721

>  <SCORE.INTRA.VDW.0>
-4.68867

>  <SCORE.INTRA.norm>
-0.204152

>  <SCORE.RESTR>
10.4674

>  <SCORE.RESTR.CAVITY>
10.4674

>  <SCORE.RESTR.norm>
0.327106

>  <SCORE.SYSTEM>
0

>  <SCORE.SYSTEM.CONST>
0

>  <SCORE.SYSTEM.DIHEDRAL>
0

>  <SCORE.SYSTEM.SOLV>
0

>  <SCORE.SYSTEM.norm>
0

>  <SCORE.heavy>
32

>  <SCORE.norm>
-1.19181

>  <RMSD>
2.988

$$$$
1tob
 OpenBabel11021811413D
libRbt.so/2013.1/901 2013/11/27
 32 34  0  0  0  0  0  0  0  0999 V2000
   -3.0028    6.1930    2.7753 C   0  0  2  0  0  0  0  0  0  0  0  0
   -1.7405    5.3492    2.9354 C   0  0  1  0  0  0  0  0  0  0  0  0
   -1.7389    4.6835    4.3048 C   0  0  2  0  0  0  0  0  0  0  0  0
   -1.8836    5.7486    5.3852 C   0  0  1  0  0  0  0  0  0  0  0  0
   -3.1419    6.5748    5.1335 C   0  0  1  0  0  0  0  0  0  0  0  0
   -3.3010    7.7033    6.1334 C   0  0  0  0  0  0  0  0  0  0  0  0
   -1.6955    4.3565    1.9204 O   0  0  0  0  0  0  0  0  0  0  0  0
   -0.5242    3.8622    4.4977 N   0  3  0  0  0  0  0  0  0  0  0  0
   -1.9523    5.1308    6.6633 O   0  0  0  0  0  0  0  0  0  0  0  0
   -3.0877    7.1710    3.8194 O   0  0  0  0  0  0  0  0  0  0  0  0
   -4.6531    8.1292    6.2244 O   0  0  0  0  0  0  0  0  0  0  0  0
   -5.4278    4.1577    1.2115 C   0  0  2  0  0  0  0  0  0  0  0  0
   -6.4009    4.3172    0.0514 C   0  0  0  0  0  0  0  0  0  0  0  0
   -7.6515    5.0722    0.5029 C   0  0  1  0  0  0  0  0  0  0  0  0
   -7.2589    6.4527    1.0241 C   0  0  2  0  0  0  0  0  0  0  0  0
   -6.2743    6.3122    2.1861 C   0  0  1  0  0  0  0  0  0  0  0  0
   -5.0397    5.5312    1.7370 C   0  0  1  0  0  0  0  0  0  0  0  0
   -4.2013    3.4568    0.7725 N   0  3  0  0  0  0  0  0  0  0  0  0
   -8.6279    5.1464   -0.6148 N   0  3  0  0  0  0  0  0  0  0  0  0
   -5.8898    7.5994    2.6502 O   0  0  0  0  0  0  0  0  0  0  0  0
   -4.1250    5.3882    2.8387 O   0  0  0  0  0  0  0  0  0  0  0  0
   -8.3675    8.5565    1.3545 C   0  0  1  0  0  0  0  0  0  0  0  0
   -8.8529    9.2068    2.6511 C   0  0  1  0  0  0  0  0  0  0  0  0
  -10.3155    8.8675    2.8960 C   0  0  0  0  0  0  0  0  0  0  0  0
  -11.1348    9.2787    1.6836 C   0  0  1  0  0  0  0  0  0  0  0  0
  -10.5751    8.6066    0.4303 C   0  0  1  0  0  0  0  0  0  0  0  0
  -11.3103    9.0185   -0.8322 C   0  0  0  0  0  0  0  0  0  0  0  0
   -7.9941    8.8213    3.7958 N   0  3  0  0  0  0  0  0  0  0  0  0
  -10.8002    8.2917   -2.0193 N   0  3  0  0  0  0  0  0  0  0  0  0
   -8.4309    7.1732    1.4575 O   0  0  0  0  0  0  0  0  0  0  0  0
  -12.4931    8.9068    1.8671 O   0  0  0  0  0  0  0  0  0  0  0  0
   -9.1873    8.9639    0.2521 O   0  0  0  0  0  0  0  0  0  0  0  0
  1  2  1  0  0  0  0
  1 10  1  0  0  0  0
  1 21  1  1  0  0  0
  2  3  1  0  0  0  0
  2  7  1  6  0  0  0
  3  4  1  0  0  0  0
  3  8  1  1  0  0  0
  4  5  1  0  0  0  0
  4  9  1  1  0  0  0
  5  6  1  1  0  0  0
  5 10  1  0  0  0  0
  6 11  1  0  0  0  0
 12 13  1  0  0  0  0
 12 17  1  0  0  0  0
 12 18  1  6  0  0  0
 13 14  1  0  0  0  0
 14 15  1  0  0  0  0
 14 19  1  6  0  0  0
 15 16  1  0  0  0  0
 15 30  1  1  0  0  0
 16 17  1  0  0  0  0
 16 20  1  6  0  0  0
 17 21  1  1  0  0  0
 22 23  1  0  0  0  0
 22 30  1  1  0  0  0
 22 32  1  0  0  0  0
 23 24  1  0  0  0  0
 23 28  1  1  0  0  0
 24 25  1  0  0  0  0
 25 26  1  0  0  0  0
 25 31  1  1  0  0  0
 26 27  1  6  0  0  0
 26 32  1  0  0  0  0
 27 29  1  0  0  0  0
M  CHG  5   8   1  18   1  19   1  28   1  29   1
M  END
>  <CHROM.1>
-127.25919776,69.51562564,-55.25531862,68.43368895,-157.88435833,-170.03143700
-70.91488596,45.99383263,-150.71159002,-59.77723308,132.32998476,-132.82158396
-89.25008398,178.04604408,-176.61511335,-178.63635059,-6.14462907,6.68032855
2.36746035,-0.12560883,0.51958644,-2.19703690

>  <Name>
1tob

>  <RI>
0

>  <Rbt.Current_Directory>
/home/itssahil/PROJECTS/Mol_Feturizer/New_Systems/rnas/1tob

>  <Rbt.Executable>
rbdock ($Id: //depot/dev/client3/rdock/2013.1/src/exe/rbdock.cxx#4 $)

>  <Rbt.Library>
libRbt.so (2013.1, Build901 2013/11/27)

>  <Rbt.Parameter_File>
/export/apps/rDock/src/rDock_2013.1_src/data/scripts/dock_solv.prm

>  <Rbt.Receptor>
prm/pocket_docking_7.prm

>  <SCORE>
-45.1153

>  <SCORE.INTER>
-42.4074

>  <SCORE.INTER.CONST>
1

>  <SCORE.INTER.POLAR>
-6.41258

>  <SCORE.INTER.ROT>
6

>  <SCORE.INTER.SOLV>
23.6491

>  <SCORE.INTER.VDW>
-22.3794

>  <SCORE.INTER.norm>
-1.32523

>  <SCORE.INTRA>
-2.74122

>  <SCORE.INTRA.DIHEDRAL>
5.85056

>  <SCORE.INTRA.DIHEDRAL.0>
22.9177

>  <SCORE.INTRA.POLAR>
-1.75688

>  <SCORE.INTRA.POLAR.0>
-0.311208

>  <SCORE.INTRA.REPUL>
0.231307

>  <SCORE.INTRA.REPUL.0>
0

>  <SCORE.INTRA.SOLV>
0.45439

>  <SCORE.INTRA.SOLV.lig_0>
-132.657

>  <SCORE.INTRA.VDW>
-1.07684

>  <SCORE.INTRA.VDW.0>
-4.68867

>  <SCORE.INTRA.norm>
-0.0856632

>  <SCORE.RESTR>
0.033386

>  <SCORE.RESTR.CAVITY>
0.033386

>  <SCORE.RESTR.norm>
0.00104331

>  <SCORE.SYSTEM>
0

>  <SCORE.SYSTEM.CONST>
0

>  <SCORE.SYSTEM.DIHEDRAL>
0

>  <SCORE.SYSTEM.SOLV>
0

>  <SCORE.SYSTEM.norm>
0

>  <SCORE.heavy>
32

>  <SCORE.norm>
-1.40985

>  <RMSD>
2.999

$$$$
1tob
 OpenBabel11021811413D
libRbt.so/2013.1/901 2013/11/27
 32 34  0  0  0  0  0  0  0  0999 V2000
   -1.1663    3.9925    4.8529 C   0  0  2  0  0  0  0  0  0  0  0  0
    0.1024    4.2700    4.0499 C   0  0  1  0  0  0  0  0  0  0  0  0
    0.8876    2.9781    3.8691 C   0  0  2  0  0  0  0  0  0  0  0  0
    1.1704    2.3627    5.2344 C   0  0  1  0  0  0  0  0  0  0  0  0
   -0.1389    2.1550    5.9906 C   0  0  1  0  0  0  0  0  0  0  0  0
    0.0822    1.6154    7.3900 C   0  0  0  0  0  0  0  0  0  0  0  0
   -0.2417    4.8031    2.7791 O   0  0  0  0  0  0  0  0  0  0  0  0
    2.1293    3.2114    3.1004 N   0  3  0  0  0  0  0  0  0  0  0  0
    1.8431    1.1213    5.0722 O   0  0  0  0  0  0  0  0  0  0  0  0
   -0.8394    3.4110    6.1213 O   0  0  0  0  0  0  0  0  0  0  0  0
    0.0955    2.6598    8.3529 O   0  0  0  0  0  0  0  0  0  0  0  0
   -3.3799    2.5646    2.2678 C   0  0  2  0  0  0  0  0  0  0  0  0
   -4.0724    3.1571    1.0481 C   0  0  0  0  0  0  0  0  0  0  0  0
   -5.0497    4.2548    1.4692 C   0  0  1  0  0  0  0  0  0  0  0  0
   -4.2961    5.3596    2.2064 C   0  0  2  0  0  0  0  0  0  0  0  0
   -3.5868    4.7807    3.4316 C   0  0  1  0  0  0  0  0  0  0  0  0
   -2.6334    3.6639    3.0078 C   0  0  1  0  0  0  0  0  0  0  0  0
   -2.4086    1.5245    1.8639 N   0  3  0  0  0  0  0  0  0  0  0  0
   -5.7796    4.7650    0.2796 N   0  3  0  0  0  0  0  0  0  0  0  0
   -2.8640    5.8063    4.0991 O   0  0  0  0  0  0  0  0  0  0  0  0
   -1.9817    3.1125    4.1663 O   0  0  0  0  0  0  0  0  0  0  0  0
   -5.1443    7.5831    1.8896 C   0  0  1  0  0  0  0  0  0  0  0  0
   -5.0523    8.7792    2.8387 C   0  0  1  0  0  0  0  0  0  0  0  0
   -6.3083    8.8732    3.6920 C   0  0  0  0  0  0  0  0  0  0  0  0
   -7.5269    8.9281    2.7852 C   0  0  1  0  0  0  0  0  0  0  0  0
   -7.5342    7.7146    1.8564 C   0  0  1  0  0  0  0  0  0  0  0  0
   -8.6956    7.7330    0.8791 C   0  0  0  0  0  0  0  0  0  0  0  0
   -3.8235    8.7122    3.6645 N   0  3  0  0  0  0  0  0  0  0  0  0
   -9.9971    7.6223    1.5802 N   0  3  0  0  0  0  0  0  0  0  0  0
   -5.2092    6.3995    2.6128 O   0  0  0  0  0  0  0  0  0  0  0  0
   -8.7126    8.9473    3.5667 O   0  0  0  0  0  0  0  0  0  0  0  0
   -6.3198    7.6784    1.0757 O   0  0  0  0  0  0  0  0  0  0  0  0
  1  2  1  0  0  0  0
  1 10  1  0  0  0  0
  1 21  1  6  0  0  0
  2  3  1  0  0  0  0
  2  7  1  6  0  0  0
  3  4  1  0  0  0  0
  3  8  1  1  0  0  0
  4  5  1  0  0  0  0
  4  9  1  6  0  0  0
  5  6  1  1  0  0  0
  5 10  1  0  0  0  0
  6 11  1  0  0  0  0
 12 13  1  0  0  0  0
 12 17  1  0  0  0  0
 12 18  1  6  0  0  0
 13 14  1  0  0  0  0
 14 15  1  0  0  0  0
 14 19  1  6  0  0  0
 15 16  1  0  0  0  0
 15 30  1  1  0  0  0
 16 17  1  0  0  0  0
 16 20  1  6  0  0  0
 17 21  1  1  0  0  0
 22 23  1  0  0  0  0
 22 30  1  1  0  0  0
 22 32  1  0  0  0  0
 23 24  1  0  0  0  0
 23 28  1  1  0  0  0
 24 25  1  0  0  0  0
 25 26  1  0  0  0  0
 25 31  1  1  0  0  0
 26 27  1  6  0  0  0
 26 32  1  0  0  0  0
 27 29  1  0  0  0  0
M  CHG  5   8   1  18   1  19   1  28   1  29   1
M  END
>  <CHROM.1>
-72.02426974,-174.58481465,59.86310452,-56.09866129,95.91356034,65.93344881
8.50103019,72.74968657,-106.31263994,148.16757605,174.21743025,-130.60694785
71.68158970,-57.61823413,-64.83386122,149.08871256,-3.31519248,5.01143678
3.35664931,-0.11111484,-0.66058652,0.87072761

>  <Name>
1tob

>  <RI>
0

>  <Rbt.Current_Directory>
/home/itssahil/PROJECTS/Mol_Feturizer/New_Systems/rnas/1tob

>  <Rbt.Executable>
rbdock ($Id: //depot/dev/client3/rdock/2013.1/src/exe/rbdock.cxx#4 $)

>  <Rbt.Library>
libRbt.so (2013.1, Build901 2013/11/27)

>  <Rbt.Parameter_File>
/export/apps/rDock/src/rDock_2013.1_src/data/scripts/dock_solv.prm

>  <Rbt.Receptor>
prm/pocket_docking_5.prm

>  <SCORE>
-43.131

>  <SCORE.INTER>
-43.9051

>  <SCORE.INTER.CONST>
1

>  <SCORE.INTER.POLAR>
-6.64691

>  <SCORE.INTER.ROT>
6

>  <SCORE.INTER.SOLV>
22.5966

>  <SCORE.INTER.VDW>
-22.2459

>  <SCORE.INTER.norm>
-1.37203

>  <SCORE.INTRA>
0.774079

>  <SCORE.INTRA.DIHEDRAL>
4.7824

>  <SCORE.INTRA.DIHEDRAL.0>
22.9177

>  <SCORE.INTRA.POLAR>
-1.9559

>  <SCORE.INTRA.POLAR.0>
-0.311208

>  <SCORE.INTRA.REPUL>
0

>  <SCORE.INTRA.REPUL.0>
0

>  <SCORE.INTRA.SOLV>
0.471879

>  <SCORE.INTRA.SOLV.lig_0>
-132.657

>  <SCORE.INTRA.VDW>
4.797

>  <SCORE.INTRA.VDW.0>
-4.68867

>  <SCORE.INTRA.norm>
0.02419

>  <SCORE.RESTR>
0

>  <SCORE.RESTR.CAVITY>
0

>  <SCORE.RESTR.norm>
0

>  <SCORE.SYSTEM>
0

>  <SCORE.SYSTEM.CONST>
0

>  <SCORE.SYSTEM.DIHEDRAL>
0

>  <SCORE.SYSTEM.SOLV>
0

>  <SCORE.SYSTEM.norm>
0

>  <SCORE.heavy>
32

>  <SCORE.norm>
-1.34784

>  <RMSD>
3.051

$$$$
1tob
 OpenBabel11021811413D
libRbt.so/2013.1/901 2013/11/27
 32 34  0  0  0  0  0  0  0  0999 V2000
   -1.7841    5.0002    3.9051 C   0  0  2  0  0  0  0  0  0  0  0  0
   -0.6627    5.0999    2.8738 C   0  0  1  0  0  0  0  0  0  0  0  0
    0.0650    3.7660    2.7772 C   0  0  2  0  0  0  0  0  0  0  0  0
    0.5623    3.3598    4.1593 C   0  0  1  0  0  0  0  0  0  0  0  0
   -0.6061    3.3233    5.1406 C   0  0  1  0  0  0  0  0  0  0  0  0
   -0.1629    2.9996    6.5539 C   0  0  0  0  0  0  0  0  0  0  0  0
   -1.2059    5.4418    1.6066 O   0  0  0  0  0  0  0  0  0  0  0  0
    1.1650    3.8283    1.7905 N   0  3  0  0  0  0  0  0  0  0  0  0
    1.1829    2.0829    4.0910 O   0  0  0  0  0  0  0  0  0  0  0  0
   -1.2590    4.6107    5.1805 O   0  0  0  0  0  0  0  0  0  0  0  0
   -1.1551    2.2611    7.2525 O   0  0  0  0  0  0  0  0  0  0  0  0
   -4.0863    3.0833    1.7692 C   0  0  2  0  0  0  0  0  0  0  0  0
   -4.7737    3.3817    0.4438 C   0  0  0  0  0  0  0  0  0  0  0  0
   -5.7679    4.5320    0.6045 C   0  0  1  0  0  0  0  0  0  0  0  0
   -5.0346    5.7827    1.0840 C   0  0  2  0  0  0  0  0  0  0  0  0
   -4.3306    5.4989    2.4119 C   0  0  1  0  0  0  0  0  0  0  0  0
   -3.3601    4.3291    2.2526 C   0  0  1  0  0  0  0  0  0  0  0  0
   -3.0991    1.9928    1.6123 N   0  3  0  0  0  0  0  0  0  0  0  0
   -6.4920    4.7564   -0.6735 N   0  3  0  0  0  0  0  0  0  0  0  0
   -3.6263    6.6566    2.8408 O   0  0  0  0  0  0  0  0  0  0  0  0
   -2.7133    4.0566    3.5089 O   0  0  0  0  0  0  0  0  0  0  0  0
   -6.9056    6.7289    2.2536 C   0  0  1  0  0  0  0  0  0  0  0  0
   -8.0897    7.6667    2.0122 C   0  0  1  0  0  0  0  0  0  0  0  0
   -7.6332    9.1170    2.0652 C   0  0  0  0  0  0  0  0  0  0  0  0
   -6.9338    9.3738    3.3901 C   0  0  1  0  0  0  0  0  0  0  0  0
   -5.7812    8.3857    3.5654 C   0  0  1  0  0  0  0  0  0  0  0  0
   -5.0713    8.5455    4.8975 C   0  0  0  0  0  0  0  0  0  0  0  0
   -8.7735    7.3460    0.7371 N   0  3  0  0  0  0  0  0  0  0  0  0
   -5.8745    7.9870    6.0114 N   0  3  0  0  0  0  0  0  0  0  0  0
   -5.9636    6.8743    1.2438 O   0  0  0  0  0  0  0  0  0  0  0  0
   -6.4408   10.7051    3.4283 O   0  0  0  0  0  0  0  0  0  0  0  0
   -6.2748    7.0299    3.5045 O   0  0  0  0  0  0  0  0  0  0  0  0
  1  2  1  0  0  0  0
  1 10  1  0  0  0  0
  1 21  1  6  0  0  0
  2  3  1  0  0  0  0
  2  7  1  6  0  0  0
  3  4  1  0  0  0  0
  3  8  1  6  0  0  0
  4  5  1  0  0  0  0
  4  9  1  6  0  0  0
  5  6  1  1  0  0  0
  5 10  1  0  0  0  0
  6 11  1  0  0  0  0
 12 13  1  0  0  0  0
 12 17  1  0  0  0  0
 12 18  1  6  0  0  0
 13 14  1  0  0  0  0
 14 15  1  0  0  0  0
 14 19  1  6  0  0  0
 15 16  1  0  0  0  0
 15 30  1  1  0  0  0
 16 17  1  0  0  0  0
 16 20  1  6  0  0  0
 17 21  1  1  0  0  0
 22 23  1  0  0  0  0
 22 30  1  6  0  0  0
 22 32  1  0  0  0  0
 23 24  1  0  0  0  0
 23 28  1  6  0  0  0
 24 25  1  0  0  0  0
 25 26  1  0  0  0  0
 25 31  1  6  0  0  0
 26 27  1  1  0  0  0
 26 32  1  0  0  0  0
 27 29  1  0  0  0  0
M  CHG  5   8   1  18   1  19   1  28   1  29   1
M  END
>  <CHROM.1>
-60.58245116,-94.07839572,-70.07259462,-59.41960719,-147.28353359,-93.66082986
124.27740807,-175.22666266,66.63967448,156.74915178,166.25926687,-160.20802219
64.25184693,72.72145461,75.15002096,150.06886365,-3.76579193,5.47745751,2.95275930
-0.15897105,-0.63085935,0.94589619

>  <Name>
1tob

>  <RI>
0

>  <Rbt.Current_Directory>
/home/itssahil/PROJECTS/Mol_Feturizer/New_Systems/rnas/1tob

>  <Rbt.Executable>
rbdock ($Id: //depot/dev/client3/rdock/2013.1/src/exe/rbdock.cxx#4 $)

>  <Rbt.Library>
libRbt.so (2013.1, Build901 2013/11/27)

>  <Rbt.Parameter_File>
/export/apps/rDock/src/rDock_2013.1_src/data/scripts/dock_solv.prm

>  <Rbt.Receptor>
prm/blind_docking_60.prm

>  <SCORE>
-39.9487

>  <SCORE.INTER>
-54.3051

>  <SCORE.INTER.CONST>
1

>  <SCORE.INTER.POLAR>
-9.6681

>  <SCORE.INTER.ROT>
6

>  <SCORE.INTER.SOLV>
37.7933

>  <SCORE.INTER.VDW>
-24.1742

>  <SCORE.INTER.norm>
-1.69704

>  <SCORE.INTRA>
7.1669

>  <SCORE.INTRA.DIHEDRAL>
1.29205

>  <SCORE.INTRA.DIHEDRAL.0>
22.9177

>  <SCORE.INTRA.POLAR>
0.0685902

>  <SCORE.INTRA.POLAR.0>
-0.311208

>  <SCORE.INTRA.REPUL>
0

>  <SCORE.INTRA.REPUL.0>
0

>  <SCORE.INTRA.SOLV>
-0.705315

>  <SCORE.INTRA.SOLV.lig_0>
-132.657

>  <SCORE.INTRA.VDW>
6.64032

>  <SCORE.INTRA.VDW.0>
-4.68867

>  <SCORE.INTRA.norm>
0.223965

>  <SCORE.RESTR>
7.18957

>  <SCORE.RESTR.CAVITY>
7.18957

>  <SCORE.RESTR.norm>
0.224674

>  <SCORE.SYSTEM>
0

>  <SCORE.SYSTEM.CONST>
0

>  <SCORE.SYSTEM.DIHEDRAL>
0

>  <SCORE.SYSTEM.SOLV>
0

>  <SCORE.SYSTEM.norm>
0

>  <SCORE.heavy>
32

>  <SCORE.norm>
-1.2484

>  <RMSD>
3.067

$$$$
1tob
 OpenBabel11021811413D
libRbt.so/2013.1/901 2013/11/27
 32 34  0  0  0  0  0  0  0  0999 V2000
   -1.1356    3.9618    4.2859 C   0  0  2  0  0  0  0  0  0  0  0  0
   -0.0253    4.4167    3.3417 C   0  0  1  0  0  0  0  0  0  0  0  0
    0.6636    3.2009    2.7370 C   0  0  2  0  0  0  0  0  0  0  0  0
    1.1672    2.2964    3.8555 C   0  0  1  0  0  0  0  0  0  0  0  0
    0.0111    1.9199    4.7779 C   0  0  1  0  0  0  0  0  0  0  0  0
    0.4633    1.0814    5.9573 C   0  0  0  0  0  0  0  0  0  0  0  0
   -0.5750    5.2195    2.3069 O   0  0  0  0  0  0  0  0  0  0  0  0
    1.7520    3.6048    1.8208 N   0  3  0  0  0  0  0  0  0  0  0  0
    1.7509    1.1253    3.3007 O   0  0  0  0  0  0  0  0  0  0  0  0
   -0.6051    3.1122    5.3109 O   0  0  0  0  0  0  0  0  0  0  0  0
   -0.6416    0.4972    6.6327 O   0  0  0  0  0  0  0  0  0  0  0  0
   -4.0990    3.1735    2.2302 C   0  0  2  0  0  0  0  0  0  0  0  0
   -5.0986    4.0369    1.4729 C   0  0  0  0  0  0  0  0  0  0  0  0
   -5.7618    5.0398    2.4173 C   0  0  1  0  0  0  0  0  0  0  0  0
   -4.6973    5.9360    3.0461 C   0  0  2  0  0  0  0  0  0  0  0  0
   -3.6787    5.0842    3.8052 C   0  0  1  0  0  0  0  0  0  0  0  0
   -3.0407    4.0639    2.8630 C   0  0  1  0  0  0  0  0  0  0  0  0
   -3.4300    2.2231    1.3149 N   0  3  0  0  0  0  0  0  0  0  0  0
   -6.7945    5.8173    1.6844 N   0  3  0  0  0  0  0  0  0  0  0  0
   -2.6743    5.9193    4.3654 O   0  0  0  0  0  0  0  0  0  0  0  0
   -2.0958    3.2550    3.5866 O   0  0  0  0  0  0  0  0  0  0  0  0
   -4.4981    7.9209    4.3818 C   0  0  1  0  0  0  0  0  0  0  0  0
   -5.3404    9.0048    5.0569 C   0  0  1  0  0  0  0  0  0  0  0  0
   -6.3081    9.6198    4.0572 C   0  0  0  0  0  0  0  0  0  0  0  0
   -5.5291   10.1353    2.8581 C   0  0  1  0  0  0  0  0  0  0  0  0
   -4.6995    9.0020    2.2556 C   0  0  1  0  0  0  0  0  0  0  0  0
   -3.8474    9.4590    1.0855 C   0  0  0  0  0  0  0  0  0  0  0  0
   -6.0390    8.4719    6.2504 N   0  3  0  0  0  0  0  0  0  0  0  0
   -2.7758    8.4814    0.7795 N   0  3  0  0  0  0  0  0  0  0  0  0
   -5.3110    6.8841    3.9432 O   0  0  0  0  0  0  0  0  0  0  0  0
   -6.4240   10.6516    1.8837 O   0  0  0  0  0  0  0  0  0  0  0  0
   -3.8038    8.4586    3.2495 O   0  0  0  0  0  0  0  0  0  0  0  0
  1  2  1  0  0  0  0
  1 10  1  0  0  0  0
  1 21  1  6  0  0  0
  2  3  1  0  0  0  0
  2  7  1  6  0  0  0
  3  4  1  0  0  0  0
  3  8  1  1  0  0  0
  4  5  1  0  0  0  0
  4  9  1  6  0  0  0
  5  6  1  1  0  0  0
  5 10  1  0  0  0  0
  6 11  1  0  0  0  0
 12 13  1  0  0  0  0
 12 17  1  0  0  0  0
 12 18  1  6  0  0  0
 13 14  1  0  0  0  0
 14 15  1  0  0  0  0
 14 19  1  6  0  0  0
 15 16  1  0  0  0  0
 15 30  1  1  0  0  0
 16 17  1  0  0  0  0
 16 20  1  6  0  0  0
 17 21  1  1  0  0  0
 22 23  1  0  0  0  0
 22 30  1  6  0  0  0
 22 32  1  0  0  0  0
 23 24  1  0  0  0  0
 23 28  1  1  0  0  0
 24 25  1  0  0  0  0
 25 26  1  0  0  0  0
 25 31  1  6  0  0  0
 26 27  1  6  0  0  0
 26 32  1  0  0  0  0
 27 29  1  0  0  0  0
M  CHG  5   8   1  18   1  19   1  28   1  29   1
M  END
>  <CHROM.1>
-80.06513706,-73.52534285,-90.13630651,59.11651694,-167.04015313,-179.95405719
-55.44346729,-60.99987987,-167.97527981,87.63460628,-175.65716963,167.35779893
-72.55297787,176.04362562,163.11377027,62.37097953,-2.88692882,5.39460574
3.32710801,0.63428038,-0.64333113,2.30406526

>  <Name>
1tob

>  <RI>
0

>  <Rbt.Current_Directory>
/home/itssahil/PROJECTS/Mol_Feturizer/New_Systems/rnas/1tob

>  <Rbt.Executable>
rbdock ($Id: //depot/dev/client3/rdock/2013.1/src/exe/rbdock.cxx#4 $)

>  <Rbt.Library>
libRbt.so (2013.1, Build901 2013/11/27)

>  <Rbt.Parameter_File>
/export/apps/rDock/src/rDock_2013.1_src/data/scripts/dock_solv.prm

>  <Rbt.Receptor>
prm/blind_docking_60.prm

>  <SCORE>
-22.0298

>  <SCORE.INTER>
-26.7461

>  <SCORE.INTER.CONST>
1

>  <SCORE.INTER.POLAR>
-5.21143

>  <SCORE.INTER.ROT>
6

>  <SCORE.INTER.SOLV>
38.6062

>  <SCORE.INTER.VDW>
-20.928

>  <SCORE.INTER.norm>
-0.835815

>  <SCORE.INTRA>
-0.519977

>  <SCORE.INTRA.DIHEDRAL>
-11.4608

>  <SCORE.INTRA.DIHEDRAL.0>
22.9177

>  <SCORE.INTRA.POLAR>
0.311208

>  <SCORE.INTRA.POLAR.0>
-0.311208

>  <SCORE.INTRA.REPUL>
0

>  <SCORE.INTRA.REPUL.0>
0

>  <SCORE.INTRA.SOLV>
-5.57644

>  <SCORE.INTRA.SOLV.lig_0>
-132.657

>  <SCORE.INTRA.VDW>
6.94052

>  <SCORE.INTRA.VDW.0>
-4.68867

>  <SCORE.INTRA.norm>
-0.0162493

>  <SCORE.RESTR>
5.23627

>  <SCORE.RESTR.CAVITY>
5.23627

>  <SCORE.RESTR.norm>
0.163633

>  <SCORE.SYSTEM>
0

>  <SCORE.SYSTEM.CONST>
0

>  <SCORE.SYSTEM.DIHEDRAL>
0

>  <SCORE.SYSTEM.SOLV>
0

>  <SCORE.SYSTEM.norm>
0

>  <SCORE.heavy>
32

>  <SCORE.norm>
-0.688431

>  <RMSD>
3.070

$$$$
1tob
 OpenBabel11021811413D
libRbt.so/2013.1/901 2013/11/27
 32 34  0  0  0  0  0  0  0  0999 V2000
   -1.1702    4.6063    3.3506 C   0  0  2  0  0  0  0  0  0  0  0  0
   -0.4121    3.3709    2.8706 C   0  0  1  0  0  0  0  0  0  0  0  0
   -0.6742    2.2082    3.8180 C   0  0  2  0  0  0  0  0  0  0  0  0
   -0.3035    2.6192    5.2379 C   0  0  1  0  0  0  0  0  0  0  0  0
   -1.0680    3.8810    5.6287 C   0  0  1  0  0  0  0  0  0  0  0  0
   -0.6839    4.3852    7.0059 C   0  0  0  0  0  0  0  0  0  0  0  0
   -0.8382    3.0262    1.5601 O   0  0  0  0  0  0  0  0  0  0  0  0
    0.0520    0.9941    3.3868 N   0  3  0  0  0  0  0  0  0  0  0  0
   -0.6094    1.5637    6.1393 O   0  0  0  0  0  0  0  0  0  0  0  0
   -0.7856    4.9412    4.6900 O   0  0  0  0  0  0  0  0  0  0  0  0
    0.7003    4.6962    7.0773 O   0  0  0  0  0  0  0  0  0  0  0  0
   -4.3416    3.7401    1.8544 C   0  0  2  0  0  0  0  0  0  0  0  0
   -5.0432    4.1128    0.5555 C   0  0  0  0  0  0  0  0  0  0  0  0
   -5.5787    5.5430    0.6287 C   0  0  1  0  0  0  0  0  0  0  0  0
   -4.4246    6.5126    0.8736 C   0  0  2  0  0  0  0  0  0  0  0  0
   -3.7023    6.1482    2.1716 C   0  0  1  0  0  0  0  0  0  0  0  0
   -3.1953    4.7080    2.1043 C   0  0  1  0  0  0  0  0  0  0  0  0
   -3.7926    2.3686    1.7772 N   0  3  0  0  0  0  0  0  0  0  0  0
   -6.3335    5.8640   -0.6104 N   0  3  0  0  0  0  0  0  0  0  0  0
   -2.6120    7.0354    2.3816 O   0  0  0  0  0  0  0  0  0  0  0  0
   -2.5314    4.3660    3.3344 O   0  0  0  0  0  0  0  0  0  0  0  0
   -3.9612    8.8682    0.8668 C   0  0  1  0  0  0  0  0  0  0  0  0
   -4.2732    9.9817    1.8680 C   0  0  1  0  0  0  0  0  0  0  0  0
   -5.6033   10.6379    1.5295 C   0  0  0  0  0  0  0  0  0  0  0  0
   -5.5687   11.1269    0.0907 C   0  0  1  0  0  0  0  0  0  0  0  0
   -5.2303    9.9641   -0.8416 C   0  0  1  0  0  0  0  0  0  0  0  0
   -5.1206   10.3917   -2.2939 C   0  0  0  0  0  0  0  0  0  0  0  0
   -4.2436    9.4723    3.2594 N   0  3  0  0  0  0  0  0  0  0  0  0
   -4.9405    9.2255   -3.1913 N   0  3  0  0  0  0  0  0  0  0  0  0
   -4.9184    7.8657    0.9491 O   0  0  0  0  0  0  0  0  0  0  0  0
   -6.8272   11.6815   -0.2637 O   0  0  0  0  0  0  0  0  0  0  0  0
   -3.9616    9.3824   -0.4707 O   0  0  0  0  0  0  0  0  0  0  0  0
  1  2  1  0  0  0  0
  1 10  1  0  0  0  0
  1 21  1  1  0  0  0
  2  3  1  0  0  0  0
  2  7  1  6  0  0  0
  3  4  1  0  0  0  0
  3  8  1  6  0  0  0
  4  5  1  0  0  0  0
  4  9  1  1  0  0  0
  5  6  1  1  0  0  0
  5 10  1  0  0  0  0
  6 11  1  0  0  0  0
 12 13  1  0  0  0  0
 12 17  1  0  0  0  0
 12 18  1  6  0  0  0
 13 14  1  0  0  0  0
 14 15  1  0  0  0  0
 14 19  1  6  0  0  0
 15 16  1  0  0  0  0
 15 30  1  1  0  0  0
 16 17  1  0  0  0  0
 16 20  1  6  0  0  0
 17 21  1  1  0  0  0
 22 23  1  0  0  0  0
 22 30  1  6  0  0  0
 22 32  1  0  0  0  0
 23 24  1  0  0  0  0
 23 28  1  1  0  0  0
 24 25  1  0  0  0  0
 25 26  1  0  0  0  0
 25 31  1  6  0  0  0
 26 27  1  6  0  0  0
 26 32  1  0  0  0  0
 27 29  1  0  0  0  0
M  CHG  5   8   1  18   1  19   1  28   1  29   1
M  END
>  <CHROM.1>
-90.45765150,80.54297923,-17.05286673,64.07947338,59.77344787,-174.79209058
-137.24623325,-52.78235051,-166.00947805,-58.69570611,146.58861593,-138.88399639
-85.14086636,175.06871500,-173.73178531,-59.22581942,-3.16566056,6.07893749
2.09951277,-0.48797962,-0.99146901,0.35795187

>  <Name>
1tob

>  <RI>
0

>  <Rbt.Current_Directory>
/home/itssahil/PROJECTS/Mol_Feturizer/New_Systems/rnas/1tob

>  <Rbt.Executable>
rbdock ($Id: //depot/dev/client3/rdock/2013.1/src/exe/rbdock.cxx#4 $)

>  <Rbt.Library>
libRbt.so (2013.1, Build901 2013/11/27)

>  <Rbt.Parameter_File>
/export/apps/rDock/src/rDock_2013.1_src/data/scripts/dock_solv.prm

>  <Rbt.Receptor>
prm/pocket_docking_8.prm

>  <SCORE>
-47.7587

>  <SCORE.INTER>
-41.8351

>  <SCORE.INTER.CONST>
1

>  <SCORE.INTER.POLAR>
-6.66894

>  <SCORE.INTER.ROT>
6

>  <SCORE.INTER.SOLV>
23.0332

>  <SCORE.INTER.VDW>
-20.938

>  <SCORE.INTER.norm>
-1.30735

>  <SCORE.INTRA>
-5.92365

>  <SCORE.INTRA.DIHEDRAL>
1.36645

>  <SCORE.INTRA.DIHEDRAL.0>
22.9177

>  <SCORE.INTRA.POLAR>
-1.95909

>  <SCORE.INTRA.POLAR.0>
-0.311208

>  <SCORE.INTRA.REPUL>
0

>  <SCORE.INTRA.REPUL.0>
0

>  <SCORE.INTRA.SOLV>
-1.78662

>  <SCORE.INTRA.SOLV.lig_0>
-132.657

>  <SCORE.INTRA.VDW>
0.94734

>  <SCORE.INTRA.VDW.0>
-4.68867

>  <SCORE.INTRA.norm>
-0.185114

>  <SCORE.RESTR>
0

>  <SCORE.RESTR.CAVITY>
0

>  <SCORE.RESTR.norm>
0

>  <SCORE.SYSTEM>
0

>  <SCORE.SYSTEM.CONST>
0

>  <SCORE.SYSTEM.DIHEDRAL>
0

>  <SCORE.SYSTEM.SOLV>
0

>  <SCORE.SYSTEM.norm>
0

>  <SCORE.heavy>
32

>  <SCORE.norm>
-1.49246

>  <RMSD>
3.077

$$$$
1tob
 OpenBabel11021811413D
libRbt.so/2013.1/901 2013/11/27
 32 34  0  0  0  0  0  0  0  0999 V2000
   -2.7872    5.7830    3.2762 C   0  0  2  0  0  0  0  0  0  0  0  0
   -2.4381    5.1097    1.9511 C   0  0  1  0  0  0  0  0  0  0  0  0
   -2.2996    3.6079    2.1599 C   0  0  2  0  0  0  0  0  0  0  0  0
   -1.2703    3.3417    3.2518 C   0  0  1  0  0  0  0  0  0  0  0  0
   -1.6656    4.0796    4.5279 C   0  0  1  0  0  0  0  0  0  0  0  0
   -0.6383    3.9164    5.6308 C   0  0  0  0  0  0  0  0  0  0  0  0
   -3.4592    5.3685    0.9982 O   0  0  0  0  0  0  0  0  0  0  0  0
   -1.9536    2.9228    0.8956 N   0  3  0  0  0  0  0  0  0  0  0  0
   -1.1844    1.9452    3.5016 O   0  0  0  0  0  0  0  0  0  0  0  0
   -1.7894    5.4938    4.2635 O   0  0  0  0  0  0  0  0  0  0  0  0
   -0.9269    2.7894    6.4462 O   0  0  0  0  0  0  0  0  0  0  0  0
   -4.0833    7.3783    5.0125 C   0  0  2  0  0  0  0  0  0  0  0  0
   -5.0223    8.4534    5.5424 C   0  0  0  0  0  0  0  0  0  0  0  0
   -5.7737    9.1216    4.3908 C   0  0  1  0  0  0  0  0  0  0  0  0
   -6.5848    8.0753    3.6298 C   0  0  2  0  0  0  0  0  0  0  0  0
   -5.6579    6.9819    3.0963 C   0  0  1  0  0  0  0  0  0  0  0  0
   -4.8876    6.3378    4.2486 C   0  0  1  0  0  0  0  0  0  0  0  0
   -3.3778    6.7055    6.1251 N   0  3  0  0  0  0  0  0  0  0  0  0
   -6.6218   10.2243    4.9131 N   0  3  0  0  0  0  0  0  0  0  0  0
   -6.4196    5.9956    2.4128 O   0  0  0  0  0  0  0  0  0  0  0  0
   -4.0055    5.3216    3.7386 O   0  0  0  0  0  0  0  0  0  0  0  0
   -8.6806    8.6799    2.6269 C   0  0  1  0  0  0  0  0  0  0  0  0
   -9.2843    8.0052    1.3938 C   0  0  1  0  0  0  0  0  0  0  0  0
   -8.9493    8.8000    0.1407 C   0  0  0  0  0  0  0  0  0  0  0  0
   -9.4153   10.2358    0.3188 C   0  0  1  0  0  0  0  0  0  0  0  0
   -8.7875   10.8296    1.5793 C   0  0  1  0  0  0  0  0  0  0  0  0
   -9.2553   12.2473    1.8536 C   0  0  0  0  0  0  0  0  0  0  0  0
   -8.8462    6.5932    1.2896 N   0  3  0  0  0  0  0  0  0  0  0  0
   -9.0708   12.6141    3.2781 N   0  3  0  0  0  0  0  0  0  0  0  0
   -7.2950    8.6936    2.5372 O   0  0  0  0  0  0  0  0  0  0  0  0
   -9.0493   11.0088   -0.8150 O   0  0  0  0  0  0  0  0  0  0  0  0
   -9.1385   10.0336    2.7320 O   0  0  0  0  0  0  0  0  0  0  0  0
  1  2  1  0  0  0  0
  1 10  1  0  0  0  0
  1 21  1  1  0  0  0
  2  3  1  0  0  0  0
  2  7  1  6  0  0  0
  3  4  1  0  0  0  0
  3  8  1  6  0  0  0
  4  5  1  0  0  0  0
  4  9  1  1  0  0  0
  5  6  1  1  0  0  0
  5 10  1  0  0  0  0
  6 11  1  0  0  0  0
 12 13  1  0  0  0  0
 12 17  1  0  0  0  0
 12 18  1  1  0  0  0
 13 14  1  0  0  0  0
 14 15  1  0  0  0  0
 14 19  1  1  0  0  0
 15 16  1  0  0  0  0
 15 30  1  6  0  0  0
 16 17  1  0  0  0  0
 16 20  1  1  0  0  0
 17 21  1  6  0  0  0
 22 23  1  0  0  0  0
 22 30  1  6  0  0  0
 22 32  1  0  0  0  0
 23 24  1  0  0  0  0
 23 28  1  6  0  0  0
 24 25  1  0  0  0  0
 25 26  1  0  0  0  0
 25 31  1  6  0  0  0
 26 27  1  1  0  0  0
 26 32  1  0  0  0  0
 27 29  1  0  0  0  0
M  CHG  5   8   1  18   1  19   1  28   1  29   1
M  END
>  <CHROM.1>
-136.14380839,-179.75906247,140.13853849,-143.17666496,-90.65972005,105.89164268
-176.41316859,-165.06377949,-114.76280126,-62.36438061,-38.35763703,-123.39260873
-170.44448453,179.32362635,158.45801731,-38.39195528,-5.32136534,7.05919349
3.03265144,-0.19147135,-0.74737544,0.97344115

>  <Name>
1tob

>  <RI>
0

>  <Rbt.Current_Directory>
/home/itssahil/PROJECTS/Mol_Feturizer/New_Systems/rnas/1tob

>  <Rbt.Executable>
rbdock ($Id: //depot/dev/client3/rdock/2013.1/src/exe/rbdock.cxx#4 $)

>  <Rbt.Library>
libRbt.so (2013.1, Build901 2013/11/27)

>  <Rbt.Parameter_File>
/export/apps/rDock/src/rDock_2013.1_src/data/scripts/dock_solv.prm

>  <Rbt.Receptor>
prm/pocket_docking_2.prm

>  <SCORE>
-20.3005

>  <SCORE.INTER>
-31.8565

>  <SCORE.INTER.CONST>
1

>  <SCORE.INTER.POLAR>
-5.54999

>  <SCORE.INTER.ROT>
6

>  <SCORE.INTER.SOLV>
29.7326

>  <SCORE.INTER.VDW>
-20.2485

>  <SCORE.INTER.norm>
-0.995514

>  <SCORE.INTRA>
9.03587

>  <SCORE.INTRA.DIHEDRAL>
19.2792

>  <SCORE.INTRA.DIHEDRAL.0>
22.9177

>  <SCORE.INTRA.POLAR>
-1.79697

>  <SCORE.INTRA.POLAR.0>
-0.311208

>  <SCORE.INTRA.REPUL>
0

>  <SCORE.INTRA.REPUL.0>
0

>  <SCORE.INTRA.SOLV>
3.52964

>  <SCORE.INTRA.SOLV.lig_0>
-132.657

>  <SCORE.INTRA.VDW>
3.74113

>  <SCORE.INTRA.VDW.0>
-4.68867

>  <SCORE.INTRA.norm>
0.282371

>  <SCORE.RESTR>
2.52011

>  <SCORE.RESTR.CAVITY>
2.52011

>  <SCORE.RESTR.norm>
0.0787535

>  <SCORE.SYSTEM>
0

>  <SCORE.SYSTEM.CONST>
0

>  <SCORE.SYSTEM.DIHEDRAL>
0

>  <SCORE.SYSTEM.SOLV>
0

>  <SCORE.SYSTEM.norm>
0

>  <SCORE.heavy>
32

>  <SCORE.norm>
-0.63439

>  <RMSD>
3.099

$$$$
1tob
 OpenBabel11021811413D
libRbt.so/2013.1/901 2013/11/27
 32 34  0  0  0  0  0  0  0  0999 V2000
   -2.0482    3.6453    4.1975 C   0  0  2  0  0  0  0  0  0  0  0  0
   -1.5534    4.0512    5.5837 C   0  0  1  0  0  0  0  0  0  0  0  0
   -0.0438    4.2467    5.5524 C   0  0  2  0  0  0  0  0  0  0  0  0
    0.6200    2.9775    5.0319 C   0  0  1  0  0  0  0  0  0  0  0  0
    0.0449    2.6146    3.6656 C   0  0  1  0  0  0  0  0  0  0  0  0
    0.6113    1.3152    3.1276 C   0  0  0  0  0  0  0  0  0  0  0  0
   -2.1846    5.2593    5.9833 O   0  0  0  0  0  0  0  0  0  0  0  0
    0.4720    4.6340    6.8833 N   0  3  0  0  0  0  0  0  0  0  0  0
    2.0242    3.1746    4.9341 O   0  0  0  0  0  0  0  0  0  0  0  0
   -1.3869    2.4519    3.7588 O   0  0  0  0  0  0  0  0  0  0  0  0
   -0.3523    0.2723    3.1696 O   0  0  0  0  0  0  0  0  0  0  0  0
   -3.5608    3.6859    1.9511 C   0  0  2  0  0  0  0  0  0  0  0  0
   -4.7155    4.0300    1.0203 C   0  0  0  0  0  0  0  0  0  0  0  0
   -5.7220    4.9362    1.7298 C   0  0  1  0  0  0  0  0  0  0  0  0
   -5.0315    6.2242    2.1729 C   0  0  2  0  0  0  0  0  0  0  0  0
   -3.8624    5.8971    3.1033 C   0  0  1  0  0  0  0  0  0  0  0  0
   -2.8748    4.9673    2.3992 C   0  0  1  0  0  0  0  0  0  0  0  0
   -2.5670    2.8360    1.2593 N   0  3  0  0  0  0  0  0  0  0  0  0
   -6.8839    5.1948    0.8403 N   0  3  0  0  0  0  0  0  0  0  0  0
   -3.2053    7.0962    3.4912 O   0  0  0  0  0  0  0  0  0  0  0  0
   -1.7861    4.6501    3.2851 O   0  0  0  0  0  0  0  0  0  0  0  0
   -6.4590    8.1533    2.1063 C   0  0  1  0  0  0  0  0  0  0  0  0
   -6.2652    9.4631    2.8725 C   0  0  1  0  0  0  0  0  0  0  0  0
   -7.0689    9.4425    4.1639 C   0  0  0  0  0  0  0  0  0  0  0  0
   -8.5262    9.1538    3.8424 C   0  0  1  0  0  0  0  0  0  0  0  0
   -8.6326    7.8451    3.0604 C   0  0  1  0  0  0  0  0  0  0  0  0
  -10.0586    7.5216    2.6529 C   0  0  0  0  0  0  0  0  0  0  0  0
   -4.8282    9.7310    3.1168 N   0  3  0  0  0  0  0  0  0  0  0  0
  -10.2944    7.8181    1.2196 N   0  3  0  0  0  0  0  0  0  0  0  0
   -5.9707    7.0859    2.8481 O   0  0  0  0  0  0  0  0  0  0  0  0
   -9.2792    9.0634    5.0431 O   0  0  0  0  0  0  0  0  0  0  0  0
   -7.8499    7.9242    1.8494 O   0  0  0  0  0  0  0  0  0  0  0  0
  1  2  1  0  0  0  0
  1 10  1  0  0  0  0
  1 21  1  6  0  0  0
  2  3  1  0  0  0  0
  2  7  1  6  0  0  0
  3  4  1  0  0  0  0
  3  8  1  1  0  0  0
  4  5  1  0  0  0  0
  4  9  1  6  0  0  0
  5  6  1  1  0  0  0
  5 10  1  0  0  0  0
  6 11  1  0  0  0  0
 12 13  1  0  0  0  0
 12 17  1  0  0  0  0
 12 18  1  6  0  0  0
 13 14  1  0  0  0  0
 14 15  1  0  0  0  0
 14 19  1  6  0  0  0
 15 16  1  0  0  0  0
 15 30  1  1  0  0  0
 16 17  1  0  0  0  0
 16 20  1  6  0  0  0
 17 21  1  1  0  0  0
 22 23  1  0  0  0  0
 22 30  1  1  0  0  0
 22 32  1  0  0  0  0
 23 24  1  0  0  0  0
 23 28  1  1  0  0  0
 24 25  1  0  0  0  0
 25 26  1  0  0  0  0
 25 31  1  1  0  0  0
 26 27  1  6  0  0  0
 26 32  1  0  0  0  0
 27 29  1  0  0  0  0
M  CHG  5   8   1  18   1  19   1  28   1  29   1
M  END
>  <CHROM.1>
-134.83641551,-111.46433243,-59.23516609,-62.12279961,107.90292753,-54.78003114
69.78013490,-171.64987240,-102.53392328,-73.85677911,-40.77835166,-127.36315726
-46.20258125,-53.94230966,103.00974875,-4.32799530,-4.02146526,5.54269055
3.31749420,0.32277246,0.52293040,-2.44397368

>  <Name>
1tob

>  <RI>
0

>  <Rbt.Current_Directory>
/home/itssahil/PROJECTS/Mol_Feturizer/New_Systems/rnas/1tob

>  <Rbt.Executable>
rbdock ($Id: //depot/dev/client3/rdock/2013.1/src/exe/rbdock.cxx#4 $)

>  <Rbt.Library>
libRbt.so (2013.1, Build901 2013/11/27)

>  <Rbt.Parameter_File>
/export/apps/rDock/src/rDock_2013.1_src/data/scripts/dock_solv.prm

>  <Rbt.Receptor>
prm/pocket_docking_3.prm

>  <SCORE>
-36.4727

>  <SCORE.INTER>
-41.6142

>  <SCORE.INTER.CONST>
1

>  <SCORE.INTER.POLAR>
-6.29745

>  <SCORE.INTER.ROT>
6

>  <SCORE.INTER.SOLV>
22.9598

>  <SCORE.INTER.VDW>
-22.0046

>  <SCORE.INTER.norm>
-1.30044

>  <SCORE.INTRA>
5.13552

>  <SCORE.INTRA.DIHEDRAL>
19.3017

>  <SCORE.INTRA.DIHEDRAL.0>
22.9177

>  <SCORE.INTRA.POLAR>
-2.50286

>  <SCORE.INTRA.POLAR.0>
-0.311208

>  <SCORE.INTRA.REPUL>
0

>  <SCORE.INTRA.REPUL.0>
0

>  <SCORE.INTRA.SOLV>
1.92471

>  <SCORE.INTRA.SOLV.lig_0>
-132.657

>  <SCORE.INTRA.VDW>
3.03208

>  <SCORE.INTRA.VDW.0>
-4.68867

>  <SCORE.INTRA.norm>
0.160485

>  <SCORE.RESTR>
0.00602618

>  <SCORE.RESTR.CAVITY>
0.00602618

>  <SCORE.RESTR.norm>
0.000188318

>  <SCORE.SYSTEM>
0

>  <SCORE.SYSTEM.CONST>
0

>  <SCORE.SYSTEM.DIHEDRAL>
0

>  <SCORE.SYSTEM.SOLV>
0

>  <SCORE.SYSTEM.norm>
0

>  <SCORE.heavy>
32

>  <SCORE.norm>
-1.13977

>  <RMSD>
3.100

$$$$
1tob
 OpenBabel11021811413D
libRbt.so/2013.1/901 2013/11/27
 32 34  0  0  0  0  0  0  0  0999 V2000
   -0.3245    3.9317    3.8977 C   0  0  2  0  0  0  0  0  0  0  0  0
    0.7660    3.0302    3.3240 C   0  0  1  0  0  0  0  0  0  0  0  0
    0.8065    1.7190    4.0971 C   0  0  2  0  0  0  0  0  0  0  0  0
    0.9962    2.0120    5.5805 C   0  0  1  0  0  0  0  0  0  0  0  0
   -0.1047    2.9495    6.0687 C   0  0  1  0  0  0  0  0  0  0  0  0
    0.0732    3.3409    7.5226 C   0  0  0  0  0  0  0  0  0  0  0  0
    0.5008    2.7698    1.9531 O   0  0  0  0  0  0  0  0  0  0  0  0
    1.8589    0.8222    3.5720 N   0  3  0  0  0  0  0  0  0  0  0  0
    0.9663    0.7975    6.3182 O   0  0  0  0  0  0  0  0  0  0  0  0
   -0.0974    4.1675    5.2930 O   0  0  0  0  0  0  0  0  0  0  0  0
   -0.1188    2.2297    8.3864 O   0  0  0  0  0  0  0  0  0  0  0  0
   -3.2208    2.6728    2.1173 C   0  0  2  0  0  0  0  0  0  0  0  0
   -4.0385    3.1728    0.9342 C   0  0  0  0  0  0  0  0  0  0  0  0
   -4.9001    4.3665    1.3465 C   0  0  1  0  0  0  0  0  0  0  0  0
   -4.0060    5.4957    1.8537 C   0  0  2  0  0  0  0  0  0  0  0  0
   -3.1703    5.0088    3.0385 C   0  0  1  0  0  0  0  0  0  0  0  0
   -2.3336    3.7973    2.6287 C   0  0  1  0  0  0  0  0  0  0  0  0
   -2.3602    1.5384    1.7160 N   0  3  0  0  0  0  0  0  0  0  0  0
   -5.7548    4.7903    0.2072 N   0  3  0  0  0  0  0  0  0  0  0  0
   -2.3194    6.0539    3.4898 O   0  0  0  0  0  0  0  0  0  0  0  0
   -1.5624    3.3340    3.7518 O   0  0  0  0  0  0  0  0  0  0  0  0
   -4.2024    7.8711    2.1412 C   0  0  1  0  0  0  0  0  0  0  0  0
   -4.6382    8.7753    3.2956 C   0  0  1  0  0  0  0  0  0  0  0  0
   -6.1370    9.0277    3.2309 C   0  0  0  0  0  0  0  0  0  0  0  0
   -6.4907    9.5963    1.8664 C   0  0  1  0  0  0  0  0  0  0  0  0
   -6.0042    8.6487    0.7705 C   0  0  1  0  0  0  0  0  0  0  0  0
   -6.2721    9.1819   -0.6252 C   0  0  0  0  0  0  0  0  0  0  0  0
   -4.2262    8.2093    4.6019 N   0  3  0  0  0  0  0  0  0  0  0  0
   -7.7250    9.2429   -0.9137 N   0  3  0  0  0  0  0  0  0  0  0  0
   -4.8086    6.6267    2.2502 O   0  0  0  0  0  0  0  0  0  0  0  0
   -7.8960    9.7742    1.7644 O   0  0  0  0  0  0  0  0  0  0  0  0
   -4.5788    8.4469    0.8842 O   0  0  0  0  0  0  0  0  0  0  0  0
  1  2  1  0  0  0  0
  1 10  1  0  0  0  0
  1 21  1  1  0  0  0
  2  3  1  0  0  0  0
  2  7  1  6  0  0  0
  3  4  1  0  0  0  0
  3  8  1  6  0  0  0
  4  5  1  0  0  0  0
  4  9  1  1  0  0  0
  5  6  1  1  0  0  0
  5 10  1  0  0  0  0
  6 11  1  0  0  0  0
 12 13  1  0  0  0  0
 12 17  1  0  0  0  0
 12 18  1  6  0  0  0
 13 14  1  0  0  0  0
 14 15  1  0  0  0  0
 14 19  1  6  0  0  0
 15 16  1  0  0  0  0
 15 30  1  1  0  0  0
 16 17  1  0  0  0  0
 16 20  1  6  0  0  0
 17 21  1  1  0  0  0
 22 23  1  0  0  0  0
 22 30  1  1  0  0  0
 22 32  1  0  0  0  0
 23 24  1  0  0  0  0
 23 28  1  1  0  0  0
 24 25  1  0  0  0  0
 25 26  1  0  0  0  0
 25 31  1  1  0  0  0
 26 27  1  6  0  0  0
 26 32  1  0  0  0  0
 27 29  1  0  0  0  0
M  CHG  5   8   1  18   1  19   1  28   1  29   1
M  END
>  <CHROM.1>
-99.05523040,71.17562933,-175.61733778,-172.95585958,-67.63047839,-178.62118551
-111.43237714,71.39109228,-151.45407870,-61.01662051,149.49092613,-143.47982353
-88.97814689,65.25968236,-66.74197704,162.93237894,-2.84832376,5.09027440
3.01972318,-0.06527855,-0.84757059,0.93322832

>  <Name>
1tob

>  <RI>
0

>  <Rbt.Current_Directory>
/home/itssahil/PROJECTS/Mol_Feturizer/New_Systems/rnas/1tob

>  <Rbt.Executable>
rbdock ($Id: //depot/dev/client3/rdock/2013.1/src/exe/rbdock.cxx#4 $)

>  <Rbt.Library>
libRbt.so (2013.1, Build901 2013/11/27)

>  <Rbt.Parameter_File>
/export/apps/rDock/src/rDock_2013.1_src/data/scripts/dock_solv.prm

>  <Rbt.Receptor>
prm/pocket_docking_4.prm

>  <SCORE>
-47.935

>  <SCORE.INTER>
-37.7754

>  <SCORE.INTER.CONST>
1

>  <SCORE.INTER.POLAR>
-5.44562

>  <SCORE.INTER.ROT>
6

>  <SCORE.INTER.SOLV>
22.9968

>  <SCORE.INTER.VDW>
-22.2971

>  <SCORE.INTER.norm>
-1.18048

>  <SCORE.INTRA>
-10.2454

>  <SCORE.INTRA.DIHEDRAL>
1.68784

>  <SCORE.INTRA.DIHEDRAL.0>
22.9177

>  <SCORE.INTRA.POLAR>
-3.40275

>  <SCORE.INTRA.POLAR.0>
-0.311208

>  <SCORE.INTRA.REPUL>
0

>  <SCORE.INTRA.REPUL.0>
0

>  <SCORE.INTRA.SOLV>
-0.689247

>  <SCORE.INTRA.SOLV.lig_0>
-132.657

>  <SCORE.INTRA.VDW>
0.824606

>  <SCORE.INTRA.VDW.0>
-4.68867

>  <SCORE.INTRA.norm>
-0.32017

>  <SCORE.RESTR>
0.0858232

>  <SCORE.RESTR.CAVITY>
0.0858232

>  <SCORE.RESTR.norm>
0.00268198

>  <SCORE.SYSTEM>
0

>  <SCORE.SYSTEM.CONST>
0

>  <SCORE.SYSTEM.DIHEDRAL>
0

>  <SCORE.SYSTEM.SOLV>
0

>  <SCORE.SYSTEM.norm>
0

>  <SCORE.heavy>
32

>  <SCORE.norm>
-1.49797

>  <RMSD>
3.118

$$$$
1tob
 OpenBabel11021811413D
libRbt.so/2013.1/901 2013/11/27
 32 34  0  0  0  0  0  0  0  0999 V2000
   -3.3205    4.3524    1.5748 C   0  0  2  0  0  0  0  0  0  0  0  0
   -2.4519    3.8128    2.7087 C   0  0  1  0  0  0  0  0  0  0  0  0
   -2.5417    4.7433    3.9105 C   0  0  2  0  0  0  0  0  0  0  0  0
   -2.1569    6.1557    3.4867 C   0  0  1  0  0  0  0  0  0  0  0  0
   -3.0387    6.6069    2.3257 C   0  0  1  0  0  0  0  0  0  0  0  0
   -2.6529    7.9783    1.8069 C   0  0  0  0  0  0  0  0  0  0  0  0
   -2.8942    2.5137    3.0748 O   0  0  0  0  0  0  0  0  0  0  0  0
   -1.7049    4.2544    5.0277 N   0  3  0  0  0  0  0  0  0  0  0  0
   -2.3040    7.0444    4.5861 O   0  0  0  0  0  0  0  0  0  0  0  0
   -2.9171    5.6820    1.2235 O   0  0  0  0  0  0  0  0  0  0  0  0
   -2.8271    8.9773    2.8017 O   0  0  0  0  0  0  0  0  0  0  0  0
   -6.2325    4.0234    0.1737 C   0  0  2  0  0  0  0  0  0  0  0  0
   -7.1746    4.7344   -0.7881 C   0  0  0  0  0  0  0  0  0  0  0  0
   -8.2125    5.5487   -0.0154 C   0  0  1  0  0  0  0  0  0  0  0  0
   -7.5078    6.5849    0.8572 C   0  0  2  0  0  0  0  0  0  0  0  0
   -6.5501    5.8886    1.8254 C   0  0  1  0  0  0  0  0  0  0  0  0
   -5.5335    5.0526    1.0486 C   0  0  1  0  0  0  0  0  0  0  0  0
   -5.2055    3.2601   -0.5688 N   0  3  0  0  0  0  0  0  0  0  0  0
   -9.1759    6.1680   -0.9622 N   0  3  0  0  0  0  0  0  0  0  0  0
   -5.8756    6.8578    2.6164 O   0  0  0  0  0  0  0  0  0  0  0  0
   -4.6461    4.3872    1.9653 O   0  0  0  0  0  0  0  0  0  0  0  0
   -7.9730    8.4133    2.3419 C   0  0  1  0  0  0  0  0  0  0  0  0
   -9.1005    9.1034    3.1116 C   0  0  1  0  0  0  0  0  0  0  0  0
  -10.1049    9.7109    2.1439 C   0  0  0  0  0  0  0  0  0  0  0  0
   -9.3791   10.6460    1.1904 C   0  0  1  0  0  0  0  0  0  0  0  0
   -8.2579    9.8895    0.4791 C   0  0  1  0  0  0  0  0  0  0  0  0
   -7.4498   10.7781   -0.4490 C   0  0  0  0  0  0  0  0  0  0  0  0
   -9.7438    8.1703    4.0667 N   0  3  0  0  0  0  0  0  0  0  0  0
   -6.3326   10.0335   -1.0776 N   0  3  0  0  0  0  0  0  0  0  0  0
   -8.4773    7.3569    1.5951 O   0  0  0  0  0  0  0  0  0  0  0  0
  -10.2914   11.1697    0.2363 O   0  0  0  0  0  0  0  0  0  0  0  0
   -7.3399    9.3358    1.4466 O   0  0  0  0  0  0  0  0  0  0  0  0
  1  2  1  0  0  0  0
  1 10  1  0  0  0  0
  1 21  1  1  0  0  0
  2  3  1  0  0  0  0
  2  7  1  1  0  0  0
  3  4  1  0  0  0  0
  3  8  1  1  0  0  0
  4  5  1  0  0  0  0
  4  9  1  1  0  0  0
  5  6  1  6  0  0  0
  5 10  1  0  0  0  0
  6 11  1  0  0  0  0
 12 13  1  0  0  0  0
 12 17  1  0  0  0  0
 12 18  1  6  0  0  0
 13 14  1  0  0  0  0
 14 15  1  0  0  0  0
 14 19  1  6  0  0  0
 15 16  1  0  0  0  0
 15 30  1  1  0  0  0
 16 17  1  0  0  0  0
 16 20  1  6  0  0  0
 17 21  1  1  0  0  0
 22 23  1  0  0  0  0
 22 30  1  6  0  0  0
 22 32  1  0  0  0  0
 23 24  1  0  0  0  0
 23 28  1  1  0  0  0
 24 25  1  0  0  0  0
 25 26  1  0  0  0  0
 25 31  1  6  0  0  0
 26 27  1  6  0  0  0
 26 32  1  0  0  0  0
 27 29  1  0  0  0  0
M  CHG  5   8   1  18   1  19   1  28   1  29   1
M  END
>  <CHROM.1>
171.63353334,-50.47826237,-179.13160969,72.04627838,-62.83243697,-176.31249541
-30.25143697,160.96788019,-174.64875835,170.29062772,97.98809042,-177.71767871
38.64489730,174.99343139,177.41944310,-167.52671923,-5.89602664,6.85755323
1.69489087,0.46441370,0.52310554,-2.75804494

>  <Name>
1tob

>  <RI>
0

>  <Rbt.Current_Directory>
/home/itssahil/PROJECTS/Mol_Feturizer/New_Systems/rnas/1tob

>  <Rbt.Executable>
rbdock ($Id: //depot/dev/client3/rdock/2013.1/src/exe/rbdock.cxx#4 $)

>  <Rbt.Library>
libRbt.so (2013.1, Build901 2013/11/27)

>  <Rbt.Parameter_File>
/export/apps/rDock/src/rDock_2013.1_src/data/scripts/dock_solv.prm

>  <Rbt.Receptor>
prm/pocket_docking_4.prm

>  <SCORE>
-31.2441

>  <SCORE.INTER>
-26.0618

>  <SCORE.INTER.CONST>
1

>  <SCORE.INTER.POLAR>
-4.42177

>  <SCORE.INTER.ROT>
6

>  <SCORE.INTER.SOLV>
24.9519

>  <SCORE.INTER.VDW>
-18.5526

>  <SCORE.INTER.norm>
-0.814432

>  <SCORE.INTRA>
-5.18232

>  <SCORE.INTRA.DIHEDRAL>
-11.2705

>  <SCORE.INTRA.DIHEDRAL.0>
22.9177

>  <SCORE.INTRA.POLAR>
0.246127

>  <SCORE.INTRA.POLAR.0>
-0.311208

>  <SCORE.INTRA.REPUL>
0

>  <SCORE.INTRA.REPUL.0>
0

>  <SCORE.INTRA.SOLV>
-5.08756

>  <SCORE.INTRA.SOLV.lig_0>
-132.657

>  <SCORE.INTRA.VDW>
2.15989

>  <SCORE.INTRA.VDW.0>
-4.68867

>  <SCORE.INTRA.norm>
-0.161948

>  <SCORE.RESTR>
0

>  <SCORE.RESTR.CAVITY>
0

>  <SCORE.RESTR.norm>
0

>  <SCORE.SYSTEM>
0

>  <SCORE.SYSTEM.CONST>
0

>  <SCORE.SYSTEM.DIHEDRAL>
0

>  <SCORE.SYSTEM.SOLV>
0

>  <SCORE.SYSTEM.norm>
0

>  <SCORE.heavy>
32

>  <SCORE.norm>
-0.976379

>  <RMSD>
3.144

$$$$
1tob
 OpenBabel11021811413D
libRbt.so/2013.1/901 2013/11/27
 32 34  0  0  0  0  0  0  0  0999 V2000
   -1.0954    4.7761    3.6767 C   0  0  2  0  0  0  0  0  0  0  0  0
   -0.0831    3.8819    2.9647 C   0  0  1  0  0  0  0  0  0  0  0  0
   -0.0315    2.5216    3.6469 C   0  0  2  0  0  0  0  0  0  0  0  0
    0.2781    2.7094    5.1272 C   0  0  1  0  0  0  0  0  0  0  0  0
   -0.7496    3.6454    5.7572 C   0  0  1  0  0  0  0  0  0  0  0  0
   -0.4504    3.9337    7.2152 C   0  0  0  0  0  0  0  0  0  0  0  0
   -0.4585    3.7215    1.6043 O   0  0  0  0  0  0  0  0  0  0  0  0
    0.9465    1.6301    2.9865 N   0  3  0  0  0  0  0  0  0  0  0  0
    0.2603    1.4500    5.7857 O   0  0  0  0  0  0  0  0  0  0  0  0
   -0.7569    4.9115    5.0628 O   0  0  0  0  0  0  0  0  0  0  0  0
   -0.8985    5.2284    7.5908 O   0  0  0  0  0  0  0  0  0  0  0  0
   -3.8908    3.2477    1.9882 C   0  0  2  0  0  0  0  0  0  0  0  0
   -4.6092    3.5015    0.6700 C   0  0  0  0  0  0  0  0  0  0  0  0
   -5.4915    4.7458    0.7731 C   0  0  1  0  0  0  0  0  0  0  0  0
   -4.6315    5.9591    1.1195 C   0  0  2  0  0  0  0  0  0  0  0  0
   -3.8952    5.7186    2.4383 C   0  0  1  0  0  0  0  0  0  0  0  0
   -3.0380    4.4572    2.3391 C   0  0  1  0  0  0  0  0  0  0  0  0
   -3.0100    2.0637    1.8842 N   0  3  0  0  0  0  0  0  0  0  0  0
   -6.2508    4.9331   -0.4904 N   0  3  0  0  0  0  0  0  0  0  0  0
   -3.0745    6.8382    2.7431 O   0  0  0  0  0  0  0  0  0  0  0  0
   -2.3610    4.2273    3.5879 O   0  0  0  0  0  0  0  0  0  0  0  0
   -6.5281    7.0566    2.1004 C   0  0  1  0  0  0  0  0  0  0  0  0
   -7.5372    8.1683    1.8075 C   0  0  1  0  0  0  0  0  0  0  0  0
   -6.9035    9.5312    2.0422 C   0  0  0  0  0  0  0  0  0  0  0  0
   -6.3510    9.5897    3.4571 C   0  0  1  0  0  0  0  0  0  0  0  0
   -5.3710    8.4377    3.6764 C   0  0  1  0  0  0  0  0  0  0  0  0
   -4.8218    8.3984    5.0910 C   0  0  0  0  0  0  0  0  0  0  0  0
   -8.0893    8.0409    0.4381 N   0  3  0  0  0  0  0  0  0  0  0  0
   -5.8444    7.9323    6.0578 N   0  3  0  0  0  0  0  0  0  0  0  0
   -5.4542    7.1392    1.2241 O   0  0  0  0  0  0  0  0  0  0  0  0
   -5.6952   10.8311    3.6708 O   0  0  0  0  0  0  0  0  0  0  0  0
   -6.0276    7.1739    3.4380 O   0  0  0  0  0  0  0  0  0  0  0  0
  1  2  1  0  0  0  0
  1 10  1  0  0  0  0
  1 21  1  1  0  0  0
  2  3  1  0  0  0  0
  2  7  1  6  0  0  0
  3  4  1  0  0  0  0
  3  8  1  6  0  0  0
  4  5  1  0  0  0  0
  4  9  1  1  0  0  0
  5  6  1  1  0  0  0
  5 10  1  0  0  0  0
  6 11  1  0  0  0  0
 12 13  1  0  0  0  0
 12 17  1  0  0  0  0
 12 18  1  6  0  0  0
 13 14  1  0  0  0  0
 14 15  1  0  0  0  0
 14 19  1  6  0  0  0
 15 16  1  0  0  0  0
 15 30  1  1  0  0  0
 16 17  1  0  0  0  0
 16 20  1  6  0  0  0
 17 21  1  1  0  0  0
 22 23  1  0  0  0  0
 22 30  1  6  0  0  0
 22 32  1  0  0  0  0
 23 24  1  0  0  0  0
 23 28  1  6  0  0  0
 24 25  1  0  0  0  0
 25 26  1  0  0  0  0
 25 31  1  6  0  0  0
 26 27  1  1  0  0  0
 26 32  1  0  0  0  0
 27 29  1  0  0  0  0
M  CHG  5   8   1  18   1  19   1  28   1  29   1
M  END
>  <CHROM.1>
-80.18705610,158.53194570,167.22347746,178.12196707,149.46246140,55.12430566
-12.64094725,-54.61767906,54.40810577,36.00951628,145.29142215,-162.73319094
-168.60794534,65.04012167,72.87093742,-82.24089842,-3.48645822,5.50718218
3.18069631,-0.17972337,-0.72417851,0.90044565

>  <Name>
1tob

>  <RI>
0

>  <Rbt.Current_Directory>
/home/itssahil/PROJECTS/Mol_Feturizer/New_Systems/rnas/1tob

>  <Rbt.Executable>
rbdock ($Id: //depot/dev/client3/rdock/2013.1/src/exe/rbdock.cxx#4 $)

>  <Rbt.Library>
libRbt.so (2013.1, Build901 2013/11/27)

>  <Rbt.Parameter_File>
/export/apps/rDock/src/rDock_2013.1_src/data/scripts/dock_solv.prm

>  <Rbt.Receptor>
prm/blind_docking_60.prm

>  <SCORE>
-34.3328

>  <SCORE.INTER>
-39.1451

>  <SCORE.INTER.CONST>
1

>  <SCORE.INTER.POLAR>
-5.91615

>  <SCORE.INTER.ROT>
6

>  <SCORE.INTER.SOLV>
33.2662

>  <SCORE.INTER.VDW>
-25.065

>  <SCORE.INTER.norm>
-1.22329

>  <SCORE.INTRA>
-1.3525

>  <SCORE.INTRA.DIHEDRAL>
-1.78468

>  <SCORE.INTRA.DIHEDRAL.0>
22.9177

>  <SCORE.INTRA.POLAR>
-1.04431

>  <SCORE.INTRA.POLAR.0>
-0.311208

>  <SCORE.INTRA.REPUL>
0

>  <SCORE.INTRA.REPUL.0>
0

>  <SCORE.INTRA.SOLV>
0.602342

>  <SCORE.INTRA.SOLV.lig_0>
-132.657

>  <SCORE.INTRA.VDW>
2.78933

>  <SCORE.INTRA.VDW.0>
-4.68867

>  <SCORE.INTRA.norm>
-0.0422655

>  <SCORE.RESTR>
6.16479

>  <SCORE.RESTR.CAVITY>
6.16479

>  <SCORE.RESTR.norm>
0.19265

>  <SCORE.SYSTEM>
0

>  <SCORE.SYSTEM.CONST>
0

>  <SCORE.SYSTEM.DIHEDRAL>
0

>  <SCORE.SYSTEM.SOLV>
0

>  <SCORE.SYSTEM.norm>
0

>  <SCORE.heavy>
32

>  <SCORE.norm>
-1.0729

>  <RMSD>
3.151

$$$$
1tob
 OpenBabel11021811413D
libRbt.so/2013.1/901 2013/11/27
 32 34  0  0  0  0  0  0  0  0999 V2000
   -2.1076    3.3641    4.2343 C   0  0  2  0  0  0  0  0  0  0  0  0
   -1.4831    3.6497    5.5980 C   0  0  1  0  0  0  0  0  0  0  0  0
    0.0245    3.4494    5.5236 C   0  0  2  0  0  0  0  0  0  0  0  0
    0.3237    2.0444    5.0148 C   0  0  1  0  0  0  0  0  0  0  0  0
   -0.3668    1.8213    3.6721 C   0  0  1  0  0  0  0  0  0  0  0  0
   -0.1700    0.4120    3.1490 C   0  0  0  0  0  0  0  0  0  0  0  0
   -1.7701    4.9854    5.9864 O   0  0  0  0  0  0  0  0  0  0  0  0
    0.6628    3.7109    6.8319 N   0  3  0  0  0  0  0  0  0  0  0  0
    1.7277    1.8719    4.8767 O   0  0  0  0  0  0  0  0  0  0  0  0
   -1.7888    2.0342    3.8057 O   0  0  0  0  0  0  0  0  0  0  0  0
   -1.3658   -0.1020    2.5799 O   0  0  0  0  0  0  0  0  0  0  0  0
   -3.2217    3.3552    1.7122 C   0  0  2  0  0  0  0  0  0  0  0  0
   -4.2116    3.7410    0.6217 C   0  0  0  0  0  0  0  0  0  0  0  0
   -5.2730    4.6919    1.1754 C   0  0  1  0  0  0  0  0  0  0  0  0
   -4.6025    5.9530    1.7157 C   0  0  2  0  0  0  0  0  0  0  0  0
   -3.5976    5.5837    2.8080 C   0  0  1  0  0  0  0  0  0  0  0  0
   -2.5566    4.6100    2.2567 C   0  0  1  0  0  0  0  0  0  0  0  0
   -2.1730    2.4612    1.1741 N   0  3  0  0  0  0  0  0  0  0  0  0
   -6.2797    4.9927    0.1246 N   0  3  0  0  0  0  0  0  0  0  0  0
   -2.9555    6.7571    3.2886 O   0  0  0  0  0  0  0  0  0  0  0  0
   -1.6241    4.2537    3.2932 O   0  0  0  0  0  0  0  0  0  0  0  0
   -5.2507    8.2019    2.2508 C   0  0  1  0  0  0  0  0  0  0  0  0
   -5.8737    8.9026    3.4594 C   0  0  1  0  0  0  0  0  0  0  0  0
   -7.3917    8.8540    3.3725 C   0  0  0  0  0  0  0  0  0  0  0  0
   -7.8369    9.4501    2.0470 C   0  0  1  0  0  0  0  0  0  0  0  0
   -7.1561    8.7123    0.8948 C   0  0  1  0  0  0  0  0  0  0  0  0
   -7.5097    9.2936   -0.4621 C   0  0  0  0  0  0  0  0  0  0  0  0
   -5.3713    8.3255    4.7287 N   0  3  0  0  0  0  0  0  0  0  0  0
   -8.9590    9.1664   -0.7465 N   0  3  0  0  0  0  0  0  0  0  0  0
   -5.5942    6.8565    2.2453 O   0  0  0  0  0  0  0  0  0  0  0  0
   -9.2478    9.3505    1.9198 O   0  0  0  0  0  0  0  0  0  0  0  0
   -5.7208    8.7916    1.0324 O   0  0  0  0  0  0  0  0  0  0  0  0
  1  2  1  0  0  0  0
  1 10  1  0  0  0  0
  1 21  1  6  0  0  0
  2  3  1  0  0  0  0
  2  7  1  6  0  0  0
  3  4  1  0  0  0  0
  3  8  1  1  0  0  0
  4  5  1  0  0  0  0
  4  9  1  6  0  0  0
  5  6  1  1  0  0  0
  5 10  1  0  0  0  0
  6 11  1  0  0  0  0
 12 13  1  0  0  0  0
 12 17  1  0  0  0  0
 12 18  1  6  0  0  0
 13 14  1  0  0  0  0
 14 15  1  0  0  0  0
 14 19  1  6  0  0  0
 15 16  1  0  0  0  0
 15 30  1  1  0  0  0
 16 17  1  0  0  0  0
 16 20  1  6  0  0  0
 17 21  1  1  0  0  0
 22 23  1  0  0  0  0
 22 30  1  6  0  0  0
 22 32  1  0  0  0  0
 23 24  1  0  0  0  0
 23 28  1  1  0  0  0
 24 25  1  0  0  0  0
 25 26  1  0  0  0  0
 25 31  1  6  0  0  0
 26 27  1  6  0  0  0
 26 32  1  0  0  0  0
 27 29  1  0  0  0  0
M  CHG  5   8   1  18   1  19   1  28   1  29   1
M  END
>  <CHROM.1>
-147.35754481,-69.88672314,-171.41889888,-52.64132507,138.74422650,-141.61878188
93.89720276,-159.58978365,-154.10518527,-166.86210356,-46.91800132,-146.77667889
134.85520784,-48.87849347,-62.93793798,176.30887785,-3.70461637,5.28976375
2.82510629,-0.25632370,-0.75746306,0.76988598

>  <Name>
1tob

>  <RI>
0

>  <Rbt.Current_Directory>
/home/itssahil/PROJECTS/Mol_Feturizer/New_Systems/rnas/1tob

>  <Rbt.Executable>
rbdock ($Id: //depot/dev/client3/rdock/2013.1/src/exe/rbdock.cxx#4 $)

>  <Rbt.Library>
libRbt.so (2013.1, Build901 2013/11/27)

>  <Rbt.Parameter_File>
/export/apps/rDock/src/rDock_2013.1_src/data/scripts/dock_solv.prm

>  <Rbt.Receptor>
prm/pocket_docking_7.prm

>  <SCORE>
-39.2026

>  <SCORE.INTER>
-39.4261

>  <SCORE.INTER.CONST>
1

>  <SCORE.INTER.POLAR>
-5.86794

>  <SCORE.INTER.ROT>
6

>  <SCORE.INTER.SOLV>
20.5363

>  <SCORE.INTER.VDW>
-21.1697

>  <SCORE.INTER.norm>
-1.23207

>  <SCORE.INTRA>
0.223464

>  <SCORE.INTRA.DIHEDRAL>
7.0113

>  <SCORE.INTRA.DIHEDRAL.0>
22.9177

>  <SCORE.INTRA.POLAR>
-2.69015

>  <SCORE.INTRA.POLAR.0>
-0.311208

>  <SCORE.INTRA.REPUL>
0

>  <SCORE.INTRA.REPUL.0>
0

>  <SCORE.INTRA.SOLV>
2.49495

>  <SCORE.INTRA.SOLV.lig_0>
-132.657

>  <SCORE.INTRA.VDW>
4.61687

>  <SCORE.INTRA.VDW.0>
-4.68867

>  <SCORE.INTRA.norm>
0.00698326

>  <SCORE.RESTR>
0

>  <SCORE.RESTR.CAVITY>
0

>  <SCORE.RESTR.norm>
0

>  <SCORE.SYSTEM>
0

>  <SCORE.SYSTEM.CONST>
0

>  <SCORE.SYSTEM.DIHEDRAL>
0

>  <SCORE.SYSTEM.SOLV>
0

>  <SCORE.SYSTEM.norm>
0

>  <SCORE.heavy>
32

>  <SCORE.norm>
-1.22508

>  <RMSD>
3.177

$$$$
1tob
 OpenBabel11021811413D
libRbt.so/2013.1/901 2013/11/27
 32 34  0  0  0  0  0  0  0  0999 V2000
   -2.9420    4.5417    2.2353 C   0  0  2  0  0  0  0  0  0  0  0  0
   -1.5374    5.1304    2.1268 C   0  0  1  0  0  0  0  0  0  0  0  0
   -0.5921    4.0953    1.5323 C   0  0  2  0  0  0  0  0  0  0  0  0
   -0.6412    2.8242    2.3717 C   0  0  1  0  0  0  0  0  0  0  0  0
   -2.0792    2.3219    2.4682 C   0  0  1  0  0  0  0  0  0  0  0  0
   -2.2052    1.0997    3.3564 C   0  0  0  0  0  0  0  0  0  0  0  0
   -1.5641    6.2851    1.3000 O   0  0  0  0  0  0  0  0  0  0  0  0
    0.7821    4.6300    1.4193 N   0  3  0  0  0  0  0  0  0  0  0  0
    0.1859    1.8284    1.7851 O   0  0  0  0  0  0  0  0  0  0  0  0
   -2.9254    3.3486    3.0292 O   0  0  0  0  0  0  0  0  0  0  0  0
   -1.3108    1.1645    4.4582 O   0  0  0  0  0  0  0  0  0  0  0  0
   -5.7420    4.1346    0.2895 C   0  0  2  0  0  0  0  0  0  0  0  0
   -6.9125    4.9895   -0.1766 C   0  0  0  0  0  0  0  0  0  0  0  0
   -7.2503    6.0502    0.8715 C   0  0  1  0  0  0  0  0  0  0  0  0
   -6.0357    6.9452    1.1076 C   0  0  2  0  0  0  0  0  0  0  0  0
   -4.8465    6.1015    1.5692 C   0  0  1  0  0  0  0  0  0  0  0  0
   -4.5324    5.0242    0.5316 C   0  0  1  0  0  0  0  0  0  0  0  0
   -5.3894    3.1275   -0.7351 N   0  3  0  0  0  0  0  0  0  0  0  0
   -8.4460    6.8213    0.4429 N   0  3  0  0  0  0  0  0  0  0  0  0
   -3.7106    6.9340    1.7610 O   0  0  0  0  0  0  0  0  0  0  0  0
   -3.4235    4.2236    0.9792 O   0  0  0  0  0  0  0  0  0  0  0  0
   -6.7416    7.4737    3.3406 C   0  0  1  0  0  0  0  0  0  0  0  0
   -7.7018    8.4645    4.0011 C   0  0  1  0  0  0  0  0  0  0  0  0
   -6.9979    9.7879    4.2605 C   0  0  0  0  0  0  0  0  0  0  0  0
   -5.7459    9.5362    5.0848 C   0  0  1  0  0  0  0  0  0  0  0  0
   -4.8525    8.5230    4.3702 C   0  0  1  0  0  0  0  0  0  0  0  0
   -3.6069    8.1778    5.1661 C   0  0  0  0  0  0  0  0  0  0  0  0
   -8.9304    8.6383    3.1907 N   0  3  0  0  0  0  0  0  0  0  0  0
   -3.7177    6.8400    5.7951 N   0  3  0  0  0  0  0  0  0  0  0  0
   -6.3410    7.9479    2.0985 O   0  0  0  0  0  0  0  0  0  0  0  0
   -5.0398   10.7531    5.2784 O   0  0  0  0  0  0  0  0  0  0  0  0
   -5.5740    7.2914    4.1509 O   0  0  0  0  0  0  0  0  0  0  0  0
  1  2  1  0  0  0  0
  1 10  1  0  0  0  0
  1 21  1  6  0  0  0
  2  3  1  0  0  0  0
  2  7  1  6  0  0  0
  3  4  1  0  0  0  0
  3  8  1  1  0  0  0
  4  5  1  0  0  0  0
  4  9  1  6  0  0  0
  5  6  1  1  0  0  0
  5 10  1  0  0  0  0
  6 11  1  0  0  0  0
 12 13  1  0  0  0  0
 12 17  1  0  0  0  0
 12 18  1  6  0  0  0
 13 14  1  0  0  0  0
 14 15  1  0  0  0  0
 14 19  1  6  0  0  0
 15 16  1  0  0  0  0
 15 30  1  1  0  0  0
 16 17  1  0  0  0  0
 16 20  1  6  0  0  0
 17 21  1  1  0  0  0
 22 23  1  0  0  0  0
 22 30  1  6  0  0  0
 22 32  1  0  0  0  0
 23 24  1  0  0  0  0
 23 28  1  6  0  0  0
 24 25  1  0  0  0  0
 25 26  1  0  0  0  0
 25 31  1  6  0  0  0
 26 27  1  1  0  0  0
 26 32  1  0  0  0  0
 27 29  1  0  0  0  0
M  CHG  5   8   1  18   1  19   1  28   1  29   1
M  END
>  <CHROM.1>
-112.56851955,167.40804866,94.01001915,86.05069522,35.78347400,-157.49774887
-147.12715577,-31.77130335,58.35533084,114.92906519,-119.01169917,-149.69856198
-69.59276777,-52.18855866,104.50565118,-177.26556414,-4.22419347,5.77508192
2.48904670,-0.68004972,-0.48044244,0.73879437

>  <Name>
1tob

>  <RI>
0

>  <Rbt.Current_Directory>
/home/itssahil/PROJECTS/Mol_Feturizer/New_Systems/rnas/1tob

>  <Rbt.Executable>
rbdock ($Id: //depot/dev/client3/rdock/2013.1/src/exe/rbdock.cxx#4 $)

>  <Rbt.Library>
libRbt.so (2013.1, Build901 2013/11/27)

>  <Rbt.Parameter_File>
/export/apps/rDock/src/rDock_2013.1_src/data/scripts/dock_solv.prm

>  <Rbt.Receptor>
prm/blind_docking_100.prm

>  <SCORE>
26.854

>  <SCORE.INTER>
-11.1388

>  <SCORE.INTER.CONST>
1

>  <SCORE.INTER.POLAR>
-4.64958

>  <SCORE.INTER.ROT>
6

>  <SCORE.INTER.SOLV>
38.5141

>  <SCORE.INTER.VDW>
-12.3653

>  <SCORE.INTER.norm>
-0.348086

>  <SCORE.INTRA>
23.0937

>  <SCORE.INTRA.DIHEDRAL>
20.6379

>  <SCORE.INTRA.DIHEDRAL.0>
22.9177

>  <SCORE.INTRA.POLAR>
0.30311

>  <SCORE.INTRA.POLAR.0>
-0.311208

>  <SCORE.INTRA.REPUL>
0.00123873

>  <SCORE.INTRA.REPUL.0>
0

>  <SCORE.INTRA.SOLV>
1.60087

>  <SCORE.INTRA.SOLV.lig_0>
-132.657

>  <SCORE.INTRA.VDW>
10.9375

>  <SCORE.INTRA.VDW.0>
-4.68867

>  <SCORE.INTRA.norm>
0.721678

>  <SCORE.RESTR>
14.8991

>  <SCORE.RESTR.CAVITY>
14.8991

>  <SCORE.RESTR.norm>
0.465596

>  <SCORE.SYSTEM>
0

>  <SCORE.SYSTEM.CONST>
0

>  <SCORE.SYSTEM.DIHEDRAL>
0

>  <SCORE.SYSTEM.SOLV>
0

>  <SCORE.SYSTEM.norm>
0

>  <SCORE.heavy>
32

>  <SCORE.norm>
0.839187

>  <RMSD>
3.250

$$$$
1tob
 OpenBabel11021811413D
libRbt.so/2013.1/901 2013/11/27
 32 34  0  0  0  0  0  0  0  0999 V2000
   -1.5823    3.3051    3.9139 C   0  0  2  0  0  0  0  0  0  0  0  0
   -0.9425    3.8604    5.1842 C   0  0  1  0  0  0  0  0  0  0  0  0
    0.5714    3.8910    5.0245 C   0  0  2  0  0  0  0  0  0  0  0  0
    1.0707    2.4960    4.6676 C   0  0  1  0  0  0  0  0  0  0  0  0
    0.3567    1.9944    3.4155 C   0  0  1  0  0  0  0  0  0  0  0  0
    0.7551    0.5774    3.0525 C   0  0  0  0  0  0  0  0  0  0  0  0
   -1.4248    5.1737    5.4292 O   0  0  0  0  0  0  0  0  0  0  0  0
    1.2259    4.4175    6.2417 N   0  3  0  0  0  0  0  0  0  0  0  0
    2.4747    2.5293    4.4491 O   0  0  0  0  0  0  0  0  0  0  0  0
   -1.0719    1.9973    3.6260 O   0  0  0  0  0  0  0  0  0  0  0  0
   -0.3739   -0.2835    3.0061 O   0  0  0  0  0  0  0  0  0  0  0  0
   -3.3908    3.4783    1.8041 C   0  0  2  0  0  0  0  0  0  0  0  0
   -4.6113    4.0165    1.0699 C   0  0  0  0  0  0  0  0  0  0  0  0
   -5.3433    5.0449    1.9325 C   0  0  1  0  0  0  0  0  0  0  0  0
   -4.4033    6.2022    2.2624 C   0  0  2  0  0  0  0  0  0  0  0  0
   -3.1663    5.6787    2.9939 C   0  0  1  0  0  0  0  0  0  0  0  0
   -2.4554    4.6297    2.1396 C   0  0  1  0  0  0  0  0  0  0  0  0
   -2.6598    2.5069    0.9611 N   0  3  0  0  0  0  0  0  0  0  0  0
   -6.5773    5.4986    1.2401 N   0  3  0  0  0  0  0  0  0  0  0  0
   -2.2810    6.7547    3.2743 O   0  0  0  0  0  0  0  0  0  0  0  0
   -1.3022    4.1292    2.8400 O   0  0  0  0  0  0  0  0  0  0  0  0
   -4.2779    8.1479    3.6633 C   0  0  1  0  0  0  0  0  0  0  0  0
   -4.3970    8.0887    5.1871 C   0  0  1  0  0  0  0  0  0  0  0  0
   -5.8215    8.4049    5.6175 C   0  0  0  0  0  0  0  0  0  0  0  0
   -6.2312    9.7510    5.0426 C   0  0  1  0  0  0  0  0  0  0  0  0
   -6.0633    9.7362    3.5237 C   0  0  1  0  0  0  0  0  0  0  0  0
   -6.3995   11.0716    2.8850 C   0  0  0  0  0  0  0  0  0  0  0  0
   -3.9371    6.7797    5.7081 N   0  3  0  0  0  0  0  0  0  0  0  0
   -5.9026   12.2047    3.7017 N   0  3  0  0  0  0  0  0  0  0  0  0
   -5.0819    7.1775    3.0802 O   0  0  0  0  0  0  0  0  0  0  0  0
   -7.5825   10.0308    5.3780 O   0  0  0  0  0  0  0  0  0  0  0  0
   -4.6952    9.4297    3.1775 O   0  0  0  0  0  0  0  0  0  0  0  0
  1  2  1  0  0  0  0
  1 10  1  0  0  0  0
  1 21  1  6  0  0  0
  2  3  1  0  0  0  0
  2  7  1  6  0  0  0
  3  4  1  0  0  0  0
  3  8  1  1  0  0  0
  4  5  1  0  0  0  0
  4  9  1  6  0  0  0
  5  6  1  1  0  0  0
  5 10  1  0  0  0  0
  6 11  1  0  0  0  0
 12 13  1  0  0  0  0
 12 17  1  0  0  0  0
 12 18  1  6  0  0  0
 13 14  1  0  0  0  0
 14 15  1  0  0  0  0
 14 19  1  6  0  0  0
 15 16  1  0  0  0  0
 15 30  1  1  0  0  0
 16 17  1  0  0  0  0
 16 20  1  6  0  0  0
 17 21  1  1  0  0  0
 22 23  1  0  0  0  0
 22 30  1  6  0  0  0
 22 32  1  0  0  0  0
 23 24  1  0  0  0  0
 23 28  1  6  0  0  0
 24 25  1  0  0  0  0
 25 26  1  0  0  0  0
 25 31  1  6  0  0  0
 26 27  1  1  0  0  0
 26 32  1  0  0  0  0
 27 29  1  0  0  0  0
M  CHG  5   8   1  18   1  19   1  28   1  29   1
M  END
>  <CHROM.1>
-123.42231177,173.15821741,-36.22369914,-179.16873053,122.20299776,67.03887226
60.15850614,-46.12344826,168.11332019,170.25726429,-50.10857333,-120.15627000
-44.61408860,65.28599293,39.84228010,34.78892270,-2.96830346,5.58793154,3.62728656
0.68288669,0.60526310,-2.50652326

>  <Name>
1tob

>  <RI>
0

>  <Rbt.Current_Directory>
/home/itssahil/PROJECTS/Mol_Feturizer/New_Systems/rnas/1tob

>  <Rbt.Executable>
rbdock ($Id: //depot/dev/client3/rdock/2013.1/src/exe/rbdock.cxx#4 $)

>  <Rbt.Library>
libRbt.so (2013.1, Build901 2013/11/27)

>  <Rbt.Parameter_File>
/export/apps/rDock/src/rDock_2013.1_src/data/scripts/dock_solv.prm

>  <Rbt.Receptor>
prm/blind_docking_60.prm

>  <SCORE>
-26.8139

>  <SCORE.INTER>
-36.5853

>  <SCORE.INTER.CONST>
1

>  <SCORE.INTER.POLAR>
-4.874

>  <SCORE.INTER.ROT>
6

>  <SCORE.INTER.SOLV>
31.925

>  <SCORE.INTER.VDW>
-26.3852

>  <SCORE.INTER.norm>
-1.14329

>  <SCORE.INTRA>
5.87499

>  <SCORE.INTRA.DIHEDRAL>
3.79175

>  <SCORE.INTRA.DIHEDRAL.0>
22.9177

>  <SCORE.INTRA.POLAR>
-1.36674

>  <SCORE.INTRA.POLAR.0>
-0.311208

>  <SCORE.INTRA.REPUL>
0.140794

>  <SCORE.INTRA.REPUL.0>
0

>  <SCORE.INTRA.SOLV>
2.98226

>  <SCORE.INTRA.SOLV.lig_0>
-132.657

>  <SCORE.INTRA.VDW>
6.43094

>  <SCORE.INTRA.VDW.0>
-4.68867

>  <SCORE.INTRA.norm>
0.183593

>  <SCORE.RESTR>
3.89642

>  <SCORE.RESTR.CAVITY>
3.89642

>  <SCORE.RESTR.norm>
0.121763

>  <SCORE.SYSTEM>
0

>  <SCORE.SYSTEM.CONST>
0

>  <SCORE.SYSTEM.DIHEDRAL>
0

>  <SCORE.SYSTEM.SOLV>
0

>  <SCORE.SYSTEM.norm>
0

>  <SCORE.heavy>
32

>  <SCORE.norm>
-0.837935

>  <RMSD>
3.256

$$$$
1tob
 OpenBabel11021811413D
libRbt.so/2013.1/901 2013/11/27
 32 34  0  0  0  0  0  0  0  0999 V2000
   -3.4758    5.2822    2.8690 C   0  0  2  0  0  0  0  0  0  0  0  0
   -3.5524    4.0967    1.9099 C   0  0  1  0  0  0  0  0  0  0  0  0
   -3.2080    2.8130    2.6528 C   0  0  2  0  0  0  0  0  0  0  0  0
   -1.8405    2.9598    3.3093 C   0  0  1  0  0  0  0  0  0  0  0  0
   -1.8303    4.1864    4.2174 C   0  0  1  0  0  0  0  0  0  0  0  0
   -0.4706    4.4312    4.8416 C   0  0  0  0  0  0  0  0  0  0  0  0
   -4.8626    4.0007    1.3700 O   0  0  0  0  0  0  0  0  0  0  0  0
   -3.2650    1.6425    1.7506 N   0  3  0  0  0  0  0  0  0  0  0  0
   -1.5408    1.7922    4.0622 O   0  0  0  0  0  0  0  0  0  0  0  0
   -2.1723    5.3665    3.4587 O   0  0  0  0  0  0  0  0  0  0  0  0
   -0.0709    3.3404    5.6591 O   0  0  0  0  0  0  0  0  0  0  0  0
   -4.3545    7.4316    4.6481 C   0  0  2  0  0  0  0  0  0  0  0  0
   -5.2247    8.6549    4.9019 C   0  0  0  0  0  0  0  0  0  0  0  0
   -5.9310    9.0844    3.6158 C   0  0  1  0  0  0  0  0  0  0  0  0
   -6.8053    7.9424    3.1029 C   0  0  2  0  0  0  0  0  0  0  0  0
   -5.9484    6.7011    2.8497 C   0  0  1  0  0  0  0  0  0  0  0  0
   -5.2217    6.2940    4.1311 C   0  0  1  0  0  0  0  0  0  0  0  0
   -3.6942    6.9914    5.8966 N   0  3  0  0  0  0  0  0  0  0  0  0
   -6.7087   10.3274    3.8573 N   0  3  0  0  0  0  0  0  0  0  0  0
   -6.7698    5.6322    2.3992 O   0  0  0  0  0  0  0  0  0  0  0  0
   -4.4047    5.1358    3.8823 O   0  0  0  0  0  0  0  0  0  0  0  0
   -8.8460    8.1249    1.8514 C   0  0  1  0  0  0  0  0  0  0  0  0
   -9.2758    7.6633    0.4578 C   0  0  1  0  0  0  0  0  0  0  0  0
   -8.9872    8.7478   -0.5693 C   0  0  0  0  0  0  0  0  0  0  0  0
   -9.6631   10.0390   -0.1377 C   0  0  1  0  0  0  0  0  0  0  0  0
   -9.1996   10.4194    1.2680 C   0  0  1  0  0  0  0  0  0  0  0  0
   -9.8802   11.6720    1.7895 C   0  0  0  0  0  0  0  0  0  0  0  0
   -8.6350    6.3756    0.1007 N   0  3  0  0  0  0  0  0  0  0  0  0
   -9.4511   12.8760    1.0386 N   0  3  0  0  0  0  0  0  0  0  0  0
   -7.4738    8.3345    1.8864 O   0  0  0  0  0  0  0  0  0  0  0  0
   -9.3475   11.0804   -1.0503 O   0  0  0  0  0  0  0  0  0  0  0  0
   -9.4981    9.3536    2.1956 O   0  0  0  0  0  0  0  0  0  0  0  0
  1  2  1  0  0  0  0
  1 10  1  0  0  0  0
  1 21  1  1  0  0  0
  2  3  1  0  0  0  0
  2  7  1  1  0  0  0
  3  4  1  0  0  0  0
  3  8  1  6  0  0  0
  4  5  1  0  0  0  0
  4  9  1  1  0  0  0
  5  6  1  6  0  0  0
  5 10  1  0  0  0  0
  6 11  1  0  0  0  0
 12 13  1  0  0  0  0
 12 17  1  0  0  0  0
 12 18  1  1  0  0  0
 13 14  1  0  0  0  0
 14 15  1  0  0  0  0
 14 19  1  1  0  0  0
 15 16  1  0  0  0  0
 15 30  1  6  0  0  0
 16 17  1  0  0  0  0
 16 20  1  1  0  0  0
 17 21  1  6  0  0  0
 22 23  1  0  0  0  0
 22 30  1  6  0  0  0
 22 32  1  0  0  0  0
 23 24  1  0  0  0  0
 23 28  1  6  0  0  0
 24 25  1  0  0  0  0
 25 26  1  0  0  0  0
 25 31  1  6  0  0  0
 26 27  1  1  0  0  0
 26 32  1  0  0  0  0
 27 29  1  0  0  0  0
M  CHG  5   8   1  18   1  19   1  28   1  29   1
M  END
>  <CHROM.1>
-131.10862124,-173.88133618,67.38028305,65.09777025,-61.40708393,-173.67935714
62.12185051,-33.42524821,-129.43863824,174.90505643,-65.35884945,-142.03414303
95.70335709,61.99814529,-68.32467544,166.90174055,-5.66053833,6.81326050
2.62279846,0.40207457,0.71232585,-2.55726777

>  <Name>
1tob

>  <RI>
0

>  <Rbt.Current_Directory>
/home/itssahil/PROJECTS/Mol_Feturizer/New_Systems/rnas/1tob

>  <Rbt.Executable>
rbdock ($Id: //depot/dev/client3/rdock/2013.1/src/exe/rbdock.cxx#4 $)

>  <Rbt.Library>
libRbt.so (2013.1, Build901 2013/11/27)

>  <Rbt.Parameter_File>
/export/apps/rDock/src/rDock_2013.1_src/data/scripts/dock_solv.prm

>  <Rbt.Receptor>
prm/pocket_docking_4.prm

>  <SCORE>
-33.5792

>  <SCORE.INTER>
-28.1767

>  <SCORE.INTER.CONST>
1

>  <SCORE.INTER.POLAR>
-4.86842

>  <SCORE.INTER.ROT>
6

>  <SCORE.INTER.SOLV>
26.0942

>  <SCORE.INTER.VDW>
-18.8545

>  <SCORE.INTER.norm>
-0.880522

>  <SCORE.INTRA>
-5.40248

>  <SCORE.INTRA.DIHEDRAL>
0.886632

>  <SCORE.INTRA.DIHEDRAL.0>
22.9177

>  <SCORE.INTRA.POLAR>
-2.64633

>  <SCORE.INTRA.POLAR.0>
-0.311208

>  <SCORE.INTRA.REPUL>
0.0216896

>  <SCORE.INTRA.REPUL.0>
0

>  <SCORE.INTRA.SOLV>
1.02735

>  <SCORE.INTRA.SOLV.lig_0>
-132.657

>  <SCORE.INTRA.VDW>
2.5296

>  <SCORE.INTRA.VDW.0>
-4.68867

>  <SCORE.INTRA.norm>
-0.168827

>  <SCORE.RESTR>
0

>  <SCORE.RESTR.CAVITY>
0

>  <SCORE.RESTR.norm>
0

>  <SCORE.SYSTEM>
0

>  <SCORE.SYSTEM.CONST>
0

>  <SCORE.SYSTEM.DIHEDRAL>
0

>  <SCORE.SYSTEM.SOLV>
0

>  <SCORE.SYSTEM.norm>
0

>  <SCORE.heavy>
32

>  <SCORE.norm>
-1.04935

>  <RMSD>
3.292

$$$$
1tob
 OpenBabel11021811413D
libRbt.so/2013.1/901 2013/11/27
 32 34  0  0  0  0  0  0  0  0999 V2000
   -0.0221    3.9528    3.6107 C   0  0  2  0  0  0  0  0  0  0  0  0
    1.0773    3.0100    3.1273 C   0  0  1  0  0  0  0  0  0  0  0  0
    1.2211    1.8482    4.1008 C   0  0  2  0  0  0  0  0  0  0  0  0
    1.4763    2.3908    5.5019 C   0  0  1  0  0  0  0  0  0  0  0  0
    0.3602    3.3544    5.8958 C   0  0  1  0  0  0  0  0  0  0  0  0
    0.5973    3.9886    7.2523 C   0  0  0  0  0  0  0  0  0  0  0  0
    0.7513    2.5154    1.8363 O   0  0  0  0  0  0  0  0  0  0  0  0
    2.2848    0.9167    3.6669 N   0  3  0  0  0  0  0  0  0  0  0  0
    1.5434    1.3157    6.4290 O   0  0  0  0  0  0  0  0  0  0  0  0
    0.2684    4.4257    4.9320 O   0  0  0  0  0  0  0  0  0  0  0  0
    0.1925    3.1264    8.3062 O   0  0  0  0  0  0  0  0  0  0  0  0
   -3.0284    2.4803    2.2305 C   0  0  2  0  0  0  0  0  0  0  0  0
   -4.0080    2.8912    1.1397 C   0  0  0  0  0  0  0  0  0  0  0  0
   -4.8897    4.0443    1.6200 C   0  0  1  0  0  0  0  0  0  0  0  0
   -4.0158    5.2411    1.9888 C   0  0  2  0  0  0  0  0  0  0  0  0
   -3.0190    4.8443    3.0788 C   0  0  1  0  0  0  0  0  0  0  0  0
   -2.1607    3.6721    2.6044 C   0  0  1  0  0  0  0  0  0  0  0  0
   -2.1503    1.3867    1.7598 N   0  3  0  0  0  0  0  0  0  0  0  0
   -5.8960    4.3785    0.5790 N   0  3  0  0  0  0  0  0  0  0  0  0
   -2.1892    5.9527    3.3995 O   0  0  0  0  0  0  0  0  0  0  0  0
   -1.2364    3.2930    3.6402 O   0  0  0  0  0  0  0  0  0  0  0  0
   -4.8026    7.4875    1.6750 C   0  0  1  0  0  0  0  0  0  0  0  0
   -4.6939    8.7226    2.5709 C   0  0  1  0  0  0  0  0  0  0  0  0
   -5.9259    8.8426    3.4553 C   0  0  0  0  0  0  0  0  0  0  0  0
   -7.1702    8.8509    2.5824 C   0  0  1  0  0  0  0  0  0  0  0  0
   -7.1935    7.5999    1.7050 C   0  0  1  0  0  0  0  0  0  0  0  0
   -8.3823    7.5692    0.7616 C   0  0  0  0  0  0  0  0  0  0  0  0
   -3.4417    8.6989    3.3632 N   0  3  0  0  0  0  0  0  0  0  0  0
   -9.6594    7.4307    1.5015 N   0  3  0  0  0  0  0  0  0  0  0  0
   -4.8368    6.3345    2.4480 O   0  0  0  0  0  0  0  0  0  0  0  0
   -8.3334    8.8937    3.3962 O   0  0  0  0  0  0  0  0  0  0  0  0
   -6.0015    7.5403    0.8920 O   0  0  0  0  0  0  0  0  0  0  0  0
  1  2  1  0  0  0  0
  1 10  1  0  0  0  0
  1 21  1  1  0  0  0
  2  3  1  0  0  0  0
  2  7  1  6  0  0  0
  3  4  1  0  0  0  0
  3  8  1  6  0  0  0
  4  5  1  0  0  0  0
  4  9  1  1  0  0  0
  5  6  1  1  0  0  0
  5 10  1  0  0  0  0
  6 11  1  0  0  0  0
 12 13  1  0  0  0  0
 12 17  1  0  0  0  0
 12 18  1  6  0  0  0
 13 14  1  0  0  0  0
 14 15  1  0  0  0  0
 14 19  1  6  0  0  0
 15 16  1  0  0  0  0
 15 30  1  1  0  0  0
 16 17  1  0  0  0  0
 16 20  1  6  0  0  0
 17 21  1  1  0  0  0
 22 23  1  0  0  0  0
 22 30  1  1  0  0  0
 22 32  1  0  0  0  0
 23 24  1  0  0  0  0
 23 28  1  1  0  0  0
 24 25  1  0  0  0  0
 25 26  1  0  0  0  0
 25 31  1  1  0  0  0
 26 27  1  6  0  0  0
 26 32  1  0  0  0  0
 27 29  1  0  0  0  0
M  CHG  5   8   1  18   1  19   1  28   1  29   1
M  END
>  <CHROM.1>
-107.19640627,70.49507179,-166.24493258,-171.27520564,-81.82490182,-78.60023322
16.48772936,-58.84820241,-116.70431732,178.68448455,148.49956795,-135.98001740
-37.20841253,-58.26735511,-66.80936880,-93.52317683,-2.90947930,4.88601938
3.17880441,-0.17005201,-0.63477576,0.78216361

>  <Name>
1tob

>  <RI>
0

>  <Rbt.Current_Directory>
/home/itssahil/PROJECTS/Mol_Feturizer/New_Systems/rnas/1tob

>  <Rbt.Executable>
rbdock ($Id: //depot/dev/client3/rdock/2013.1/src/exe/rbdock.cxx#4 $)

>  <Rbt.Library>
libRbt.so (2013.1, Build901 2013/11/27)

>  <Rbt.Parameter_File>
/export/apps/rDock/src/rDock_2013.1_src/data/scripts/dock_solv.prm

>  <Rbt.Receptor>
prm/pocket_docking_7.prm

>  <SCORE>
-60.0307

>  <SCORE.INTER>
-55.8865

>  <SCORE.INTER.CONST>
1

>  <SCORE.INTER.POLAR>
-9.1221

>  <SCORE.INTER.ROT>
6

>  <SCORE.INTER.SOLV>
23.2835

>  <SCORE.INTER.VDW>
-22.2119

>  <SCORE.INTER.norm>
-1.74645

>  <SCORE.INTRA>
-4.14419

>  <SCORE.INTRA.DIHEDRAL>
11.2661

>  <SCORE.INTRA.DIHEDRAL.0>
22.9177

>  <SCORE.INTRA.POLAR>
-3.28677

>  <SCORE.INTRA.POLAR.0>
-0.311208

>  <SCORE.INTRA.REPUL>
0

>  <SCORE.INTRA.REPUL.0>
0

>  <SCORE.INTRA.SOLV>
0.43774

>  <SCORE.INTRA.SOLV.lig_0>
-132.657

>  <SCORE.INTRA.VDW>
1.17889

>  <SCORE.INTRA.VDW.0>
-4.68867

>  <SCORE.INTRA.norm>
-0.129506

>  <SCORE.RESTR>
0

>  <SCORE.RESTR.CAVITY>
0

>  <SCORE.RESTR.norm>
0

>  <SCORE.SYSTEM>
0

>  <SCORE.SYSTEM.CONST>
0

>  <SCORE.SYSTEM.DIHEDRAL>
0

>  <SCORE.SYSTEM.SOLV>
0

>  <SCORE.SYSTEM.norm>
0

>  <SCORE.heavy>
32

>  <SCORE.norm>
-1.87596

>  <RMSD>
3.306

$$$$
1tob
 OpenBabel11021811413D
libRbt.so/2013.1/901 2013/11/27
 32 34  0  0  0  0  0  0  0  0999 V2000
   -3.3168    5.9581    3.0285 C   0  0  2  0  0  0  0  0  0  0  0  0
   -3.0703    5.3355    1.6564 C   0  0  1  0  0  0  0  0  0  0  0  0
   -3.0409    3.8182    1.7795 C   0  0  2  0  0  0  0  0  0  0  0  0
   -1.9956    3.4146    2.8125 C   0  0  1  0  0  0  0  0  0  0  0  0
   -2.2849    4.1077    4.1410 C   0  0  1  0  0  0  0  0  0  0  0  0
   -1.2332    3.8061    5.1905 C   0  0  0  0  0  0  0  0  0  0  0  0
   -4.1028    5.7234    0.7614 O   0  0  0  0  0  0  0  0  0  0  0  0
   -2.7962    3.1808    0.4676 N   0  3  0  0  0  0  0  0  0  0  0  0
   -2.0090    2.0039    2.9843 O   0  0  0  0  0  0  0  0  0  0  0  0
   -2.3085    5.5398    3.9572 O   0  0  0  0  0  0  0  0  0  0  0  0
   -1.4715    4.5326    6.3878 O   0  0  0  0  0  0  0  0  0  0  0  0
   -4.3602    7.5120    4.9409 C   0  0  2  0  0  0  0  0  0  0  0  0
   -5.1646    8.6085    5.6256 C   0  0  0  0  0  0  0  0  0  0  0  0
   -5.9454    9.4223    4.5934 C   0  0  1  0  0  0  0  0  0  0  0  0
   -6.8956    8.5049    3.8269 C   0  0  2  0  0  0  0  0  0  0  0  0
   -6.1050    7.3913    3.1384 C   0  0  1  0  0  0  0  0  0  0  0  0
   -5.3034    6.6001    4.1714 C   0  0  1  0  0  0  0  0  0  0  0  0
   -3.6283    6.7003    5.9379 N   0  3  0  0  0  0  0  0  0  0  0  0
   -6.6578   10.5401    5.2651 N   0  3  0  0  0  0  0  0  0  0  0  0
   -6.9952    6.5237    2.4492 O   0  0  0  0  0  0  0  0  0  0  0  0
   -4.5492    5.5647    3.5156 O   0  0  0  0  0  0  0  0  0  0  0  0
   -8.8709    8.7425    2.4832 C   0  0  1  0  0  0  0  0  0  0  0  0
   -9.4156    9.4800    1.2587 C   0  0  1  0  0  0  0  0  0  0  0  0
   -9.6525   10.9461    1.5883 C   0  0  0  0  0  0  0  0  0  0  0  0
  -10.5689   11.0460    2.7969 C   0  0  1  0  0  0  0  0  0  0  0  0
   -9.9671   10.2682    3.9666 C   0  0  1  0  0  0  0  0  0  0  0  0
  -10.8594   10.2752    5.1945 C   0  0  0  0  0  0  0  0  0  0  0  0
   -8.5187    9.3112    0.0911 N   0  3  0  0  0  0  0  0  0  0  0  0
  -12.1271    9.5470    4.9488 N   0  3  0  0  0  0  0  0  0  0  0  0
   -7.6351    9.2612    2.8463 O   0  0  0  0  0  0  0  0  0  0  0  0
  -10.7459   12.4075    3.1602 O   0  0  0  0  0  0  0  0  0  0  0  0
   -9.7642    8.8878    3.5941 O   0  0  0  0  0  0  0  0  0  0  0  0
  1  2  1  0  0  0  0
  1 10  1  0  0  0  0
  1 21  1  1  0  0  0
  2  3  1  0  0  0  0
  2  7  1  6  0  0  0
  3  4  1  0  0  0  0
  3  8  1  6  0  0  0
  4  5  1  0  0  0  0
  4  9  1  1  0  0  0
  5  6  1  1  0  0  0
  5 10  1  0  0  0  0
  6 11  1  0  0  0  0
 12 13  1  0  0  0  0
 12 17  1  0  0  0  0
 12 18  1  1  0  0  0
 13 14  1  0  0  0  0
 14 15  1  0  0  0  0
 14 19  1  1  0  0  0
 15 16  1  0  0  0  0
 15 30  1  6  0  0  0
 16 17  1  0  0  0  0
 16 20  1  1  0  0  0
 17 21  1  6  0  0  0
 22 23  1  0  0  0  0
 22 30  1  1  0  0  0
 22 32  1  0  0  0  0
 23 24  1  0  0  0  0
 23 28  1  6  0  0  0
 24 25  1  0  0  0  0
 25 26  1  0  0  0  0
 25 31  1  1  0  0  0
 26 27  1  1  0  0  0
 26 32  1  0  0  0  0
 27 29  1  0  0  0  0
M  CHG  5   8   1  18   1  19   1  28   1  29   1
M  END
>  <CHROM.1>
-138.97891860,166.53801423,-31.04512166,60.59740650,175.96973389,178.99337491
-58.97152662,82.26461767,-153.98721225,-175.50856640,-36.27999619,-169.02794710
-170.77733711,-58.40965851,65.59252623,61.22569789,-5.97640748,7.32123027
3.38602990,0.23030189,0.65140485,-1.95713925

>  <Name>
1tob

>  <RI>
0

>  <Rbt.Current_Directory>
/home/itssahil/PROJECTS/Mol_Feturizer/New_Systems/rnas/1tob

>  <Rbt.Executable>
rbdock ($Id: //depot/dev/client3/rdock/2013.1/src/exe/rbdock.cxx#4 $)

>  <Rbt.Library>
libRbt.so (2013.1, Build901 2013/11/27)

>  <Rbt.Parameter_File>
/export/apps/rDock/src/rDock_2013.1_src/data/scripts/dock_solv.prm

>  <Rbt.Receptor>
prm/pocket_docking_3.prm

>  <SCORE>
-42.5978

>  <SCORE.INTER>
-40.5624

>  <SCORE.INTER.CONST>
1

>  <SCORE.INTER.POLAR>
-7.07777

>  <SCORE.INTER.ROT>
6

>  <SCORE.INTER.SOLV>
29.154

>  <SCORE.INTER.VDW>
-20.7671

>  <SCORE.INTER.norm>
-1.26757

>  <SCORE.INTRA>
-2.03877

>  <SCORE.INTRA.DIHEDRAL>
-7.35223

>  <SCORE.INTRA.DIHEDRAL.0>
22.9177

>  <SCORE.INTRA.POLAR>
-0.750738

>  <SCORE.INTRA.POLAR.0>
-0.311208

>  <SCORE.INTRA.REPUL>
0

>  <SCORE.INTRA.REPUL.0>
0

>  <SCORE.INTRA.SOLV>
1.32117

>  <SCORE.INTRA.SOLV.lig_0>
-132.657

>  <SCORE.INTRA.VDW>
3.52927

>  <SCORE.INTRA.VDW.0>
-4.68867

>  <SCORE.INTRA.norm>
-0.0637115

>  <SCORE.RESTR>
0.00338861

>  <SCORE.RESTR.CAVITY>
0.00338861

>  <SCORE.RESTR.norm>
0.000105894

>  <SCORE.SYSTEM>
0

>  <SCORE.SYSTEM.CONST>
0

>  <SCORE.SYSTEM.DIHEDRAL>
0

>  <SCORE.SYSTEM.SOLV>
0

>  <SCORE.SYSTEM.norm>
0

>  <SCORE.heavy>
32

>  <SCORE.norm>
-1.33118

>  <RMSD>
3.339

$$$$
1tob
 OpenBabel11021811413D
libRbt.so/2013.1/901 2013/11/27
 32 34  0  0  0  0  0  0  0  0999 V2000
   -3.6411    5.8195    2.8581 C   0  0  2  0  0  0  0  0  0  0  0  0
   -3.7885    5.2582    1.4459 C   0  0  1  0  0  0  0  0  0  0  0  0
   -3.7818    3.7364    1.4957 C   0  0  2  0  0  0  0  0  0  0  0  0
   -2.5156    3.2588    2.1966 C   0  0  1  0  0  0  0  0  0  0  0  0
   -2.4185    3.8937    3.5811 C   0  0  1  0  0  0  0  0  0  0  0  0
   -1.1381    3.5169    4.3003 C   0  0  0  0  0  0  0  0  0  0  0  0
   -5.0064    5.7132    0.8739 O   0  0  0  0  0  0  0  0  0  0  0  0
   -3.9155    3.1575    0.1414 N   0  3  0  0  0  0  0  0  0  0  0  0
   -2.5335    1.8421    2.3089 O   0  0  0  0  0  0  0  0  0  0  0  0
   -2.4387    5.3331    3.4678 O   0  0  0  0  0  0  0  0  0  0  0  0
    0.0079    3.9473    3.5795 O   0  0  0  0  0  0  0  0  0  0  0  0
   -4.3960    7.4561    4.9284 C   0  0  2  0  0  0  0  0  0  0  0  0
   -5.1346    8.5944    5.6191 C   0  0  0  0  0  0  0  0  0  0  0  0
   -6.0047    9.3530    4.6165 C   0  0  1  0  0  0  0  0  0  0  0  0
   -7.0207    8.3993    3.9920 C   0  0  2  0  0  0  0  0  0  0  0  0
   -6.2961    7.2438    3.2997 C   0  0  1  0  0  0  0  0  0  0  0  0
   -5.4053    6.5077    4.2999 C   0  0  1  0  0  0  0  0  0  0  0  0
   -3.5779    6.6980    5.9001 N   0  3  0  0  0  0  0  0  0  0  0  0
   -6.6529   10.5112    5.2847 N   0  3  0  0  0  0  0  0  0  0  0  0
   -7.2454    6.3438    2.7439 O   0  0  0  0  0  0  0  0  0  0  0  0
   -4.7140    5.4324    3.6390 O   0  0  0  0  0  0  0  0  0  0  0  0
   -9.2032    8.8181    3.0837 C   0  0  1  0  0  0  0  0  0  0  0  0
   -9.7664    8.7064    1.6659 C   0  0  1  0  0  0  0  0  0  0  0  0
   -9.6363   10.0372    0.9403 C   0  0  0  0  0  0  0  0  0  0  0  0
  -10.3105   11.1236    1.7622 C   0  0  1  0  0  0  0  0  0  0  0  0
   -9.7093   11.1563    3.1668 C   0  0  1  0  0  0  0  0  0  0  0  0
  -10.3767   12.1819    4.0650 C   0  0  0  0  0  0  0  0  0  0  0  0
   -9.1190    7.6015    0.9198 N   0  3  0  0  0  0  0  0  0  0  0  0
   -9.4939   13.3480    4.3073 N   0  3  0  0  0  0  0  0  0  0  0  0
   -7.8449    9.1031    3.0403 O   0  0  0  0  0  0  0  0  0  0  0  0
  -10.1393   12.3850    1.1324 O   0  0  0  0  0  0  0  0  0  0  0  0
   -9.8609    9.8687    3.8028 O   0  0  0  0  0  0  0  0  0  0  0  0
  1  2  1  0  0  0  0
  1 10  1  0  0  0  0
  1 21  1  1  0  0  0
  2  3  1  0  0  0  0
  2  7  1  1  0  0  0
  3  4  1  0  0  0  0
  3  8  1  6  0  0  0
  4  5  1  0  0  0  0
  4  9  1  1  0  0  0
  5  6  1  6  0  0  0
  5 10  1  0  0  0  0
  6 11  1  0  0  0  0
 12 13  1  0  0  0  0
 12 17  1  0  0  0  0
 12 18  1  1  0  0  0
 13 14  1  0  0  0  0
 14 15  1  0  0  0  0
 14 19  1  1  0  0  0
 15 16  1  0  0  0  0
 15 30  1  6  0  0  0
 16 17  1  0  0  0  0
 16 20  1  1  0  0  0
 17 21  1  6  0  0  0
 22 23  1  0  0  0  0
 22 30  1  6  0  0  0
 22 32  1  0  0  0  0
 23 24  1  0  0  0  0
 23 28  1  6  0  0  0
 24 25  1  0  0  0  0
 25 26  1  0  0  0  0
 25 31  1  6  0  0  0
 26 27  1  1  0  0  0
 26 32  1  0  0  0  0
 27 29  1  0  0  0  0
M  CHG  5   8   1  18   1  19   1  28   1  29   1
M  END
>  <CHROM.1>
-126.61260169,170.85152946,131.20454270,-56.75045256,60.64638648,-59.22184490
64.07302050,75.02135545,-136.79696348,-59.22191409,-45.41980841,-138.80834039
-138.13081293,68.30201451,-107.63243618,-73.92784070,-6.02279147,7.37470466
3.05875660,-0.50797810,-0.63310095,0.82746615

>  <Name>
1tob

>  <RI>
0

>  <Rbt.Current_Directory>
/home/itssahil/PROJECTS/Mol_Feturizer/New_Systems/rnas/1tob

>  <Rbt.Executable>
rbdock ($Id: //depot/dev/client3/rdock/2013.1/src/exe/rbdock.cxx#4 $)

>  <Rbt.Library>
libRbt.so (2013.1, Build901 2013/11/27)

>  <Rbt.Parameter_File>
/export/apps/rDock/src/rDock_2013.1_src/data/scripts/dock_solv.prm

>  <Rbt.Receptor>
prm/pocket_docking_3.prm

>  <SCORE>
-48.8524

>  <SCORE.INTER>
-50.3577

>  <SCORE.INTER.CONST>
1

>  <SCORE.INTER.POLAR>
-9.59808

>  <SCORE.INTER.ROT>
6

>  <SCORE.INTER.SOLV>
31.3701

>  <SCORE.INTER.VDW>
-19.6349

>  <SCORE.INTER.norm>
-1.57368

>  <SCORE.INTRA>
1.50528

>  <SCORE.INTRA.DIHEDRAL>
9.26973

>  <SCORE.INTRA.DIHEDRAL.0>
22.9177

>  <SCORE.INTRA.POLAR>
-1.45319

>  <SCORE.INTRA.POLAR.0>
-0.311208

>  <SCORE.INTRA.REPUL>
0.000917758

>  <SCORE.INTRA.REPUL.0>
0

>  <SCORE.INTRA.SOLV>
0.347492

>  <SCORE.INTRA.SOLV.lig_0>
-132.657

>  <SCORE.INTRA.VDW>
1.63292

>  <SCORE.INTRA.VDW.0>
-4.68867

>  <SCORE.INTRA.norm>
0.04704

>  <SCORE.RESTR>
0

>  <SCORE.RESTR.CAVITY>
0

>  <SCORE.RESTR.norm>
0

>  <SCORE.SYSTEM>
0

>  <SCORE.SYSTEM.CONST>
0

>  <SCORE.SYSTEM.DIHEDRAL>
0

>  <SCORE.SYSTEM.SOLV>
0

>  <SCORE.SYSTEM.norm>
0

>  <SCORE.heavy>
32

>  <SCORE.norm>
-1.52664

>  <RMSD>
3.370

$$$$
1tob
 OpenBabel11021811413D
libRbt.so/2013.1/901 2013/11/27
 32 34  0  0  0  0  0  0  0  0999 V2000
   -3.0569    3.9831    3.5937 C   0  0  2  0  0  0  0  0  0  0  0  0
   -2.3971    4.4857    4.8757 C   0  0  1  0  0  0  0  0  0  0  0  0
   -0.8830    4.3973    4.7417 C   0  0  2  0  0  0  0  0  0  0  0  0
   -0.4888    2.9676    4.3906 C   0  0  1  0  0  0  0  0  0  0  0  0
   -1.2187    2.5243    3.1257 C   0  0  1  0  0  0  0  0  0  0  0  0
   -0.9267    1.0805    2.7668 C   0  0  0  0  0  0  0  0  0  0  0  0
   -2.7788    5.8327    5.1150 O   0  0  0  0  0  0  0  0  0  0  0  0
   -0.2098    4.8700    5.9708 N   0  3  0  0  0  0  0  0  0  0  0  0
    0.9170    2.8905    4.1960 O   0  0  0  0  0  0  0  0  0  0  0  0
   -2.6460    2.6393    3.3121 O   0  0  0  0  0  0  0  0  0  0  0  0
   -0.6756    0.2983    3.9257 O   0  0  0  0  0  0  0  0  0  0  0  0
   -4.6364    3.7358    1.5304 C   0  0  2  0  0  0  0  0  0  0  0  0
   -5.7036    3.9085    0.4583 C   0  0  0  0  0  0  0  0  0  0  0  0
   -6.5013    5.1902    0.6998 C   0  0  1  0  0  0  0  0  0  0  0  0
   -5.5618    6.3937    0.6733 C   0  0  2  0  0  0  0  0  0  0  0  0
   -4.4770    6.2336    1.7396 C   0  0  1  0  0  0  0  0  0  0  0  0
   -3.7025    4.9362    1.5105 C   0  0  1  0  0  0  0  0  0  0  0  0
   -3.8396    2.5142    1.2831 N   0  3  0  0  0  0  0  0  0  0  0  0
   -7.5926    5.3027   -0.3024 N   0  3  0  0  0  0  0  0  0  0  0  0
   -3.5884    7.3419    1.6931 O   0  0  0  0  0  0  0  0  0  0  0  0
   -2.6947    4.7832    2.5263 O   0  0  0  0  0  0  0  0  0  0  0  0
   -7.2217    7.5730    1.9451 C   0  0  1  0  0  0  0  0  0  0  0  0
   -8.1268    8.8052    1.8952 C   0  0  1  0  0  0  0  0  0  0  0  0
   -7.3070   10.0704    2.0988 C   0  0  0  0  0  0  0  0  0  0  0  0
   -6.5284    9.9589    3.3994 C   0  0  1  0  0  0  0  0  0  0  0  0
   -5.6686    8.6956    3.3795 C   0  0  1  0  0  0  0  0  0  0  0  0
   -4.9048    8.4874    4.6747 C   0  0  0  0  0  0  0  0  0  0  0  0
   -8.9057    8.8449    0.6350 N   0  3  0  0  0  0  0  0  0  0  0  0
   -5.7846    7.9604    5.7453 N   0  3  0  0  0  0  0  0  0  0  0  0
   -6.3028    7.6093    0.9047 O   0  0  0  0  0  0  0  0  0  0  0  0
   -5.7047   11.1029    3.5714 O   0  0  0  0  0  0  0  0  0  0  0  0
   -6.4998    7.5313    3.1821 O   0  0  0  0  0  0  0  0  0  0  0  0
  1  2  1  0  0  0  0
  1 10  1  0  0  0  0
  1 21  1  6  0  0  0
  2  3  1  0  0  0  0
  2  7  1  6  0  0  0
  3  4  1  0  0  0  0
  3  8  1  1  0  0  0
  4  5  1  0  0  0  0
  4  9  1  6  0  0  0
  5  6  1  1  0  0  0
  5 10  1  0  0  0  0
  6 11  1  0  0  0  0
 12 13  1  0  0  0  0
 12 17  1  0  0  0  0
 12 18  1  6  0  0  0
 13 14  1  0  0  0  0
 14 15  1  0  0  0  0
 14 19  1  6  0  0  0
 15 16  1  0  0  0  0
 15 30  1  1  0  0  0
 16 17  1  0  0  0  0
 16 20  1  6  0  0  0
 17 21  1  1  0  0  0
 22 23  1  0  0  0  0
 22 30  1  6  0  0  0
 22 32  1  0  0  0  0
 23 24  1  0  0  0  0
 23 28  1  6  0  0  0
 24 25  1  0  0  0  0
 25 26  1  0  0  0  0
 25 31  1  6  0  0  0
 26 27  1  1  0  0  0
 26 32  1  0  0  0  0
 27 29  1  0  0  0  0
M  CHG  5   8   1  18   1  19   1  28   1  29   1
M  END
>  <CHROM.1>
-147.14154391,174.24861133,-172.87259730,-60.05995957,30.74433373,84.21822405
102.22987976,-56.90444337,45.42252841,-167.53916626,-25.45570708,-168.35928843
52.41494272,176.38733627,77.17438580,38.63849565,-4.21361004,5.71405936,2.81659602
0.47054775,0.68139993,-2.53524993

>  <Name>
1tob

>  <RI>
0

>  <Rbt.Current_Directory>
/home/itssahil/PROJECTS/Mol_Feturizer/New_Systems/rnas/1tob

>  <Rbt.Executable>
rbdock ($Id: //depot/dev/client3/rdock/2013.1/src/exe/rbdock.cxx#4 $)

>  <Rbt.Library>
libRbt.so (2013.1, Build901 2013/11/27)

>  <Rbt.Parameter_File>
/export/apps/rDock/src/rDock_2013.1_src/data/scripts/dock_solv.prm

>  <Rbt.Receptor>
prm/pocket_docking_3.prm

>  <SCORE>
-35.8944

>  <SCORE.INTER>
-42.6779

>  <SCORE.INTER.CONST>
1

>  <SCORE.INTER.POLAR>
-7.20484

>  <SCORE.INTER.ROT>
6

>  <SCORE.INTER.SOLV>
31.0519

>  <SCORE.INTER.VDW>
-22.3864

>  <SCORE.INTER.norm>
-1.33368

>  <SCORE.INTRA>
6.78346

>  <SCORE.INTRA.DIHEDRAL>
-1.28791

>  <SCORE.INTRA.DIHEDRAL.0>
22.9177

>  <SCORE.INTRA.POLAR>
-0.288063

>  <SCORE.INTRA.POLAR.0>
-0.311208

>  <SCORE.INTRA.REPUL>
0

>  <SCORE.INTRA.REPUL.0>
0

>  <SCORE.INTRA.SOLV>
2.48678

>  <SCORE.INTRA.SOLV.lig_0>
-132.657

>  <SCORE.INTRA.VDW>
7.16344

>  <SCORE.INTRA.VDW.0>
-4.68867

>  <SCORE.INTRA.norm>
0.211983

>  <SCORE.RESTR>
0

>  <SCORE.RESTR.CAVITY>
0

>  <SCORE.RESTR.norm>
0

>  <SCORE.SYSTEM>
0

>  <SCORE.SYSTEM.CONST>
0

>  <SCORE.SYSTEM.DIHEDRAL>
0

>  <SCORE.SYSTEM.SOLV>
0

>  <SCORE.SYSTEM.norm>
0

>  <SCORE.heavy>
32

>  <SCORE.norm>
-1.1217

>  <RMSD>
3.373

$$$$
1tob
 OpenBabel11021811413D
libRbt.so/2013.1/901 2013/11/27
 32 34  0  0  0  0  0  0  0  0999 V2000
   -3.4291    5.9039    2.7962 C   0  0  2  0  0  0  0  0  0  0  0  0
   -3.7404    5.3093    1.4248 C   0  0  1  0  0  0  0  0  0  0  0  0
   -3.6323    3.7918    1.4873 C   0  0  2  0  0  0  0  0  0  0  0  0
   -2.2522    3.4039    2.0046 C   0  0  1  0  0  0  0  0  0  0  0  0
   -1.9991    4.0683    3.3550 C   0  0  1  0  0  0  0  0  0  0  0  0
   -0.6088    3.7822    3.8875 C   0  0  0  0  0  0  0  0  0  0  0  0
   -5.0530    5.6799    1.0284 O   0  0  0  0  0  0  0  0  0  0  0  0
   -3.9208    3.1815    0.1714 N   0  3  0  0  0  0  0  0  0  0  0  0
   -2.1661    1.9909    2.1315 O   0  0  0  0  0  0  0  0  0  0  0  0
   -2.1245    5.5016    3.2325 O   0  0  0  0  0  0  0  0  0  0  0  0
   -0.5092    4.0904    5.2707 O   0  0  0  0  0  0  0  0  0  0  0  0
   -4.1993    7.4816    5.0591 C   0  0  2  0  0  0  0  0  0  0  0  0
   -5.0244    8.5830    5.7104 C   0  0  0  0  0  0  0  0  0  0  0  0
   -5.8495    9.3254    4.6589 C   0  0  1  0  0  0  0  0  0  0  0  0
   -6.7848    8.3460    3.9533 C   0  0  2  0  0  0  0  0  0  0  0  0
   -5.9730    7.2269    3.2992 C   0  0  1  0  0  0  0  0  0  0  0  0
   -5.1278    6.5078    4.3500 C   0  0  1  0  0  0  0  0  0  0  0  0
   -3.4238    6.7382    6.0762 N   0  3  0  0  0  0  0  0  0  0  0  0
   -6.5837   10.4502    5.2944 N   0  3  0  0  0  0  0  0  0  0  0  0
   -6.8485    6.3026    2.6674 O   0  0  0  0  0  0  0  0  0  0  0  0
   -4.3542    5.4672    3.7259 O   0  0  0  0  0  0  0  0  0  0  0  0
   -8.7682    8.4356    2.6034 C   0  0  1  0  0  0  0  0  0  0  0  0
   -9.0160    8.5873    1.1016 C   0  0  1  0  0  0  0  0  0  0  0  0
   -9.1528   10.0575    0.7355 C   0  0  0  0  0  0  0  0  0  0  0  0
  -10.2471   10.6851    1.5833 C   0  0  1  0  0  0  0  0  0  0  0  0
   -9.9382   10.4724    3.0648 C   0  0  1  0  0  0  0  0  0  0  0  0
  -11.0219   11.0239    3.9734 C   0  0  0  0  0  0  0  0  0  0  0  0
   -7.9548    7.9154    0.3149 N   0  3  0  0  0  0  0  0  0  0  0  0
  -10.5277   12.1684    4.7755 N   0  3  0  0  0  0  0  0  0  0  0  0
   -7.5658    9.0346    2.9551 O   0  0  0  0  0  0  0  0  0  0  0  0
  -10.3418   12.0741    1.3027 O   0  0  0  0  0  0  0  0  0  0  0  0
   -9.8185    9.0619    3.3503 O   0  0  0  0  0  0  0  0  0  0  0  0
  1  2  1  0  0  0  0
  1 10  1  0  0  0  0
  1 21  1  1  0  0  0
  2  3  1  0  0  0  0
  2  7  1  1  0  0  0
  3  4  1  0  0  0  0
  3  8  1  6  0  0  0
  4  5  1  0  0  0  0
  4  9  1  1  0  0  0
  5  6  1  6  0  0  0
  5 10  1  0  0  0  0
  6 11  1  0  0  0  0
 12 13  1  0  0  0  0
 12 17  1  0  0  0  0
 12 18  1  1  0  0  0
 13 14  1  0  0  0  0
 14 15  1  0  0  0  0
 14 19  1  1  0  0  0
 15 16  1  0  0  0  0
 15 30  1  6  0  0  0
 16 17  1  0  0  0  0
 16 20  1  1  0  0  0
 17 21  1  6  0  0  0
 22 23  1  0  0  0  0
 22 30  1  1  0  0  0
 22 32  1  0  0  0  0
 23 24  1  0  0  0  0
 23 28  1  6  0  0  0
 24 25  1  0  0  0  0
 25 26  1  0  0  0  0
 25 31  1  1  0  0  0
 26 27  1  1  0  0  0
 26 32  1  0  0  0  0
 27 29  1  0  0  0  0
M  CHG  5   8   1  18   1  19   1  28   1  29   1
M  END
>  <CHROM.1>
-119.25994980,73.57101144,141.16869624,-177.44024790,-164.26817660,-65.67556382
66.63995627,-42.36336311,-156.34739014,-175.15795867,-58.96371595,-141.80992809
153.04567113,-177.31397879,-113.56733761,-53.49785802,-5.86585284,7.26540561
3.04349073,-0.37173191,-0.63730499,0.96535641

>  <Name>
1tob

>  <RI>
0

>  <Rbt.Current_Directory>
/home/itssahil/PROJECTS/Mol_Feturizer/New_Systems/rnas/1tob

>  <Rbt.Executable>
rbdock ($Id: //depot/dev/client3/rdock/2013.1/src/exe/rbdock.cxx#4 $)

>  <Rbt.Library>
libRbt.so (2013.1, Build901 2013/11/27)

>  <Rbt.Parameter_File>
/export/apps/rDock/src/rDock_2013.1_src/data/scripts/dock_solv.prm

>  <Rbt.Receptor>
prm/pocket_docking_2.prm

>  <SCORE>
-30.1045

>  <SCORE.INTER>
-31.9518

>  <SCORE.INTER.CONST>
1

>  <SCORE.INTER.POLAR>
-6.08201

>  <SCORE.INTER.ROT>
6

>  <SCORE.INTER.SOLV>
30.282

>  <SCORE.INTER.VDW>
-18.7219

>  <SCORE.INTER.norm>
-0.998495

>  <SCORE.INTRA>
-0.594752

>  <SCORE.INTRA.DIHEDRAL>
4.21732

>  <SCORE.INTRA.DIHEDRAL.0>
22.9177

>  <SCORE.INTRA.POLAR>
-1.20434

>  <SCORE.INTRA.POLAR.0>
-0.311208

>  <SCORE.INTRA.REPUL>
0.0122002

>  <SCORE.INTRA.REPUL.0>
0

>  <SCORE.INTRA.SOLV>
-0.843299

>  <SCORE.INTRA.SOLV.lig_0>
-132.657

>  <SCORE.INTRA.VDW>
1.75199

>  <SCORE.INTRA.VDW.0>
-4.68867

>  <SCORE.INTRA.norm>
-0.018586

>  <SCORE.RESTR>
2.44206

>  <SCORE.RESTR.CAVITY>
2.44206

>  <SCORE.RESTR.norm>
0.0763143

>  <SCORE.SYSTEM>
0

>  <SCORE.SYSTEM.CONST>
0

>  <SCORE.SYSTEM.DIHEDRAL>
0

>  <SCORE.SYSTEM.SOLV>
0

>  <SCORE.SYSTEM.norm>
0

>  <SCORE.heavy>
32

>  <SCORE.norm>
-0.940766

>  <RMSD>
3.385

$$$$
1tob
 OpenBabel11021811413D
libRbt.so/2013.1/901 2013/11/27
 32 34  0  0  0  0  0  0  0  0999 V2000
   -2.6690    4.6313    2.8553 C   0  0  2  0  0  0  0  0  0  0  0  0
   -2.6412    3.3967    1.9574 C   0  0  1  0  0  0  0  0  0  0  0  0
   -2.2746    2.1708    2.7826 C   0  0  2  0  0  0  0  0  0  0  0  0
   -0.9503    2.4181    3.4952 C   0  0  1  0  0  0  0  0  0  0  0  0
   -1.0438    3.6879    4.3368 C   0  0  1  0  0  0  0  0  0  0  0  0
    0.2698    4.0310    5.0116 C   0  0  0  0  0  0  0  0  0  0  0  0
   -3.9166    3.2087    1.3612 O   0  0  0  0  0  0  0  0  0  0  0  0
   -2.2308    0.9549    1.9416 N   0  3  0  0  0  0  0  0  0  0  0  0
   -0.6342    1.3061    4.3220 O   0  0  0  0  0  0  0  0  0  0  0  0
   -1.4023    4.8098    3.5014 O   0  0  0  0  0  0  0  0  0  0  0  0
    0.0594    4.6283    6.2832 O   0  0  0  0  0  0  0  0  0  0  0  0
   -3.5263    6.8042    4.5306 C   0  0  2  0  0  0  0  0  0  0  0  0
   -4.3678    8.0476    4.7834 C   0  0  0  0  0  0  0  0  0  0  0  0
   -5.1152    8.4545    3.5132 C   0  0  1  0  0  0  0  0  0  0  0  0
   -6.0253    7.3136    3.0639 C   0  0  2  0  0  0  0  0  0  0  0  0
   -5.1973    6.0524    2.8127 C   0  0  1  0  0  0  0  0  0  0  0  0
   -4.4294    5.6675    4.0769 C   0  0  1  0  0  0  0  0  0  0  0  0
   -2.8265    6.3865    5.7651 N   0  3  0  0  0  0  0  0  0  0  0  0
   -5.8644    9.7157    3.7498 N   0  3  0  0  0  0  0  0  0  0  0  0
   -6.0510    4.9854    2.4219 O   0  0  0  0  0  0  0  0  0  0  0  0
   -3.6398    4.4902    3.8292 O   0  0  0  0  0  0  0  0  0  0  0  0
   -7.7291    6.8100    1.4492 C   0  0  1  0  0  0  0  0  0  0  0  0
   -8.4190    7.3488    0.1948 C   0  0  1  0  0  0  0  0  0  0  0  0
   -9.1134    8.6675    0.5001 C   0  0  0  0  0  0  0  0  0  0  0  0
  -10.0698    8.4720    1.6651 C   0  0  1  0  0  0  0  0  0  0  0  0
   -9.3106    7.9128    2.8678 C   0  0  1  0  0  0  0  0  0  0  0  0
  -10.2163    7.6363    4.0542 C   0  0  0  0  0  0  0  0  0  0  0  0
   -7.4615    7.4726   -0.9296 N   0  3  0  0  0  0  0  0  0  0  0  0
  -10.1914    8.7534    5.0284 N   0  3  0  0  0  0  0  0  0  0  0  0
   -6.7328    7.6843    1.8629 O   0  0  0  0  0  0  0  0  0  0  0  0
  -10.6764    9.7096    2.0078 O   0  0  0  0  0  0  0  0  0  0  0  0
   -8.6732    6.6653    2.5174 O   0  0  0  0  0  0  0  0  0  0  0  0
  1  2  1  0  0  0  0
  1 10  1  0  0  0  0
  1 21  1  1  0  0  0
  2  3  1  0  0  0  0
  2  7  1  1  0  0  0
  3  4  1  0  0  0  0
  3  8  1  6  0  0  0
  4  5  1  0  0  0  0
  4  9  1  1  0  0  0
  5  6  1  6  0  0  0
  5 10  1  0  0  0  0
  6 11  1  0  0  0  0
 12 13  1  0  0  0  0
 12 17  1  0  0  0  0
 12 18  1  1  0  0  0
 13 14  1  0  0  0  0
 14 15  1  0  0  0  0
 14 19  1  1  0  0  0
 15 16  1  0  0  0  0
 15 30  1  6  0  0  0
 16 17  1  0  0  0  0
 16 20  1  1  0  0  0
 17 21  1  6  0  0  0
 22 23  1  0  0  0  0
 22 30  1  1  0  0  0
 22 32  1  0  0  0  0
 23 24  1  0  0  0  0
 23 28  1  6  0  0  0
 24 25  1  0  0  0  0
 25 26  1  0  0  0  0
 25 31  1  1  0  0  0
 26 27  1  1  0  0  0
 26 32  1  0  0  0  0
 27 29  1  0  0  0  0
M  CHG  5   8   1  18   1  19   1  28   1  29   1
M  END
>  <CHROM.1>
-137.48187459,178.02673170,-114.17898219,179.84808743,-145.97622131,-69.00684131
-66.69602296,48.79711104,-171.53466119,174.34258570,-60.07242511,178.27021012
-164.53787877,65.40381686,-97.26803633,-70.54365200,-5.09058091,5.93661228
3.06175528,0.25073265,0.55975241,-2.34073986

>  <Name>
1tob

>  <RI>
0

>  <Rbt.Current_Directory>
/home/itssahil/PROJECTS/Mol_Feturizer/New_Systems/rnas/1tob

>  <Rbt.Executable>
rbdock ($Id: //depot/dev/client3/rdock/2013.1/src/exe/rbdock.cxx#4 $)

>  <Rbt.Library>
libRbt.so (2013.1, Build901 2013/11/27)

>  <Rbt.Parameter_File>
/export/apps/rDock/src/rDock_2013.1_src/data/scripts/dock_solv.prm

>  <Rbt.Receptor>
prm/pocket_docking_4.prm

>  <SCORE>
-54.3475

>  <SCORE.INTER>
-50.6166

>  <SCORE.INTER.CONST>
1

>  <SCORE.INTER.POLAR>
-7.78813

>  <SCORE.INTER.ROT>
6

>  <SCORE.INTER.SOLV>
27.5444

>  <SCORE.INTER.VDW>
-24.5654

>  <SCORE.INTER.norm>
-1.58177

>  <SCORE.INTRA>
-3.73093

>  <SCORE.INTRA.DIHEDRAL>
-4.49906

>  <SCORE.INTRA.DIHEDRAL.0>
22.9177

>  <SCORE.INTRA.POLAR>
-0.734458

>  <SCORE.INTRA.POLAR.0>
-0.311208

>  <SCORE.INTRA.REPUL>
0

>  <SCORE.INTRA.REPUL.0>
0

>  <SCORE.INTRA.SOLV>
-2.62131

>  <SCORE.INTRA.SOLV.lig_0>
-132.657

>  <SCORE.INTRA.VDW>
2.32642

>  <SCORE.INTRA.VDW.0>
-4.68867

>  <SCORE.INTRA.norm>
-0.116591

>  <SCORE.RESTR>
0

>  <SCORE.RESTR.CAVITY>
0

>  <SCORE.RESTR.norm>
0

>  <SCORE.SYSTEM>
0

>  <SCORE.SYSTEM.CONST>
0

>  <SCORE.SYSTEM.DIHEDRAL>
0

>  <SCORE.SYSTEM.SOLV>
0

>  <SCORE.SYSTEM.norm>
0

>  <SCORE.heavy>
32

>  <SCORE.norm>
-1.69836

>  <RMSD>
3.418

$$$$
1tob
 OpenBabel11021811413D
libRbt.so/2013.1/901 2013/11/27
 32 34  0  0  0  0  0  0  0  0999 V2000
   -2.5271    4.8093    2.9697 C   0  0  2  0  0  0  0  0  0  0  0  0
   -2.3389    3.6401    2.0059 C   0  0  1  0  0  0  0  0  0  0  0  0
   -2.2379    2.3395    2.7912 C   0  0  2  0  0  0  0  0  0  0  0  0
   -1.1151    2.4529    3.8154 C   0  0  1  0  0  0  0  0  0  0  0  0
   -1.3516    3.6651    4.7120 C   0  0  1  0  0  0  0  0  0  0  0  0
   -0.2258    3.8770    5.7049 C   0  0  0  0  0  0  0  0  0  0  0  0
   -3.4399    3.5747    1.1109 O   0  0  0  0  0  0  0  0  0  0  0  0
   -2.0472    1.1841    1.8879 N   0  3  0  0  0  0  0  0  0  0  0  0
   -1.0583    1.2689    4.5996 O   0  0  0  0  0  0  0  0  0  0  0  0
   -1.4470    4.8623    3.9103 O   0  0  0  0  0  0  0  0  0  0  0  0
    1.0029    4.1494    5.0460 O   0  0  0  0  0  0  0  0  0  0  0  0
   -3.6196    6.9765    4.3777 C   0  0  2  0  0  0  0  0  0  0  0  0
   -4.4483    8.2466    4.5131 C   0  0  0  0  0  0  0  0  0  0  0  0
   -5.0048    8.6691    3.1532 C   0  0  1  0  0  0  0  0  0  0  0  0
   -5.8812    7.5542    2.5869 C   0  0  2  0  0  0  0  0  0  0  0  0
   -5.0666    6.2668    2.4513 C   0  0  1  0  0  0  0  0  0  0  0  0
   -4.4883    5.8656    3.8080 C   0  0  1  0  0  0  0  0  0  0  0  0
   -3.1058    6.5444    5.6959 N   0  3  0  0  0  0  0  0  0  0  0  0
   -5.7395    9.9541    3.2850 N   0  3  0  0  0  0  0  0  0  0  0  0
   -5.8927    5.2244    1.9504 O   0  0  0  0  0  0  0  0  0  0  0  0
   -3.7096    4.6633    3.6706 O   0  0  0  0  0  0  0  0  0  0  0  0
   -7.4308    7.1450    0.7995 C   0  0  1  0  0  0  0  0  0  0  0  0
   -7.9863    7.7490   -0.4915 C   0  0  1  0  0  0  0  0  0  0  0  0
   -8.6065    9.1099   -0.2127 C   0  0  0  0  0  0  0  0  0  0  0  0
   -9.6579    8.9676    0.8757 C   0  0  1  0  0  0  0  0  0  0  0  0
   -9.0311    8.3390    2.1197 C   0  0  1  0  0  0  0  0  0  0  0  0
  -10.0393    8.1121    3.2316 C   0  0  0  0  0  0  0  0  0  0  0  0
   -6.9420    7.8191   -1.5407 N   0  3  0  0  0  0  0  0  0  0  0  0
  -11.1204    7.1917    2.8049 N   0  3  0  0  0  0  0  0  0  0  0  0
   -6.4086    7.9398    1.3010 O   0  0  0  0  0  0  0  0  0  0  0  0
  -10.1993   10.2408    1.1966 O   0  0  0  0  0  0  0  0  0  0  0  0
   -8.4592    7.0539    1.7931 O   0  0  0  0  0  0  0  0  0  0  0  0
  1  2  1  0  0  0  0
  1 10  1  0  0  0  0
  1 21  1  1  0  0  0
  2  3  1  0  0  0  0
  2  7  1  6  0  0  0
  3  4  1  0  0  0  0
  3  8  1  6  0  0  0
  4  5  1  0  0  0  0
  4  9  1  1  0  0  0
  5  6  1  1  0  0  0
  5 10  1  0  0  0  0
  6 11  1  0  0  0  0
 12 13  1  0  0  0  0
 12 17  1  0  0  0  0
 12 18  1  1  0  0  0
 13 14  1  0  0  0  0
 14 15  1  0  0  0  0
 14 19  1  1  0  0  0
 15 16  1  0  0  0  0
 15 30  1  6  0  0  0
 16 17  1  0  0  0  0
 16 20  1  1  0  0  0
 17 21  1  6  0  0  0
 22 23  1  0  0  0  0
 22 30  1  1  0  0  0
 22 32  1  0  0  0  0
 23 24  1  0  0  0  0
 23 28  1  6  0  0  0
 24 25  1  0  0  0  0
 25 26  1  0  0  0  0
 25 31  1  1  0  0  0
 26 27  1  1  0  0  0
 26 32  1  0  0  0  0
 27 29  1  0  0  0  0
M  CHG  5   8   1  18   1  19   1  28   1  29   1
M  END
>  <CHROM.1>
-136.88612264,-42.22544885,-24.85227065,170.64201683,62.80981996,178.69033313
-64.15461812,43.25751936,-167.32867442,-54.44480790,-52.58856151,174.23775603
-178.82954985,175.31127768,60.78107659,40.54249826,-4.98681491,6.08438046
2.68858022,0.23376419,0.62097073,-2.43242336

>  <Name>
1tob

>  <RI>
0

>  <Rbt.Current_Directory>
/home/itssahil/PROJECTS/Mol_Feturizer/New_Systems/rnas/1tob

>  <Rbt.Executable>
rbdock ($Id: //depot/dev/client3/rdock/2013.1/src/exe/rbdock.cxx#4 $)

>  <Rbt.Library>
libRbt.so (2013.1, Build901 2013/11/27)

>  <Rbt.Parameter_File>
/export/apps/rDock/src/rDock_2013.1_src/data/scripts/dock_solv.prm

>  <Rbt.Receptor>
prm/pocket_docking_3.prm

>  <SCORE>
-44.7124

>  <SCORE.INTER>
-38.4401

>  <SCORE.INTER.CONST>
1

>  <SCORE.INTER.POLAR>
-5.64064

>  <SCORE.INTER.ROT>
6

>  <SCORE.INTER.SOLV>
25.426

>  <SCORE.INTER.VDW>
-22.8999

>  <SCORE.INTER.norm>
-1.20125

>  <SCORE.INTRA>
-7.00558

>  <SCORE.INTRA.DIHEDRAL>
-9.81843

>  <SCORE.INTRA.DIHEDRAL.0>
22.9177

>  <SCORE.INTRA.POLAR>
-0.831112

>  <SCORE.INTRA.POLAR.0>
-0.311208

>  <SCORE.INTRA.REPUL>
0

>  <SCORE.INTRA.REPUL.0>
0

>  <SCORE.INTRA.SOLV>
-2.77293

>  <SCORE.INTRA.SOLV.lig_0>
-132.657

>  <SCORE.INTRA.VDW>
2.11588

>  <SCORE.INTRA.VDW.0>
-4.68867

>  <SCORE.INTRA.norm>
-0.218924

>  <SCORE.RESTR>
0.733291

>  <SCORE.RESTR.CAVITY>
0.733291

>  <SCORE.RESTR.norm>
0.0229154

>  <SCORE.SYSTEM>
0

>  <SCORE.SYSTEM.CONST>
0

>  <SCORE.SYSTEM.DIHEDRAL>
0

>  <SCORE.SYSTEM.SOLV>
0

>  <SCORE.SYSTEM.norm>
0

>  <SCORE.heavy>
32

>  <SCORE.norm>
-1.39726

>  <RMSD>
3.421

$$$$
1tob
 OpenBabel11021811413D
libRbt.so/2013.1/901 2013/11/27
 32 34  0  0  0  0  0  0  0  0999 V2000
   -0.9479    4.6297    3.5295 C   0  0  2  0  0  0  0  0  0  0  0  0
    0.2328    3.7313    3.1690 C   0  0  1  0  0  0  0  0  0  0  0  0
    0.3077    2.5663    4.1465 C   0  0  2  0  0  0  0  0  0  0  0  0
    0.3828    3.1045    5.5703 C   0  0  1  0  0  0  0  0  0  0  0  0
   -0.8050    4.0241    5.8402 C   0  0  1  0  0  0  0  0  0  0  0  0
   -0.7462    4.6537    7.2181 C   0  0  0  0  0  0  0  0  0  0  0  0
    0.0732    3.2374    1.8468 O   0  0  0  0  0  0  0  0  0  0  0  0
    1.4469    1.6773    3.8312 N   0  3  0  0  0  0  0  0  0  0  0  0
    0.3837    2.0239    6.4935 O   0  0  0  0  0  0  0  0  0  0  0  0
   -0.8262    5.1004    4.8778 O   0  0  0  0  0  0  0  0  0  0  0  0
    0.5839    4.6902    7.7156 O   0  0  0  0  0  0  0  0  0  0  0  0
   -3.4370    2.8537    1.6838 C   0  0  2  0  0  0  0  0  0  0  0  0
   -4.2213    3.1152    0.4052 C   0  0  0  0  0  0  0  0  0  0  0  0
   -5.3578    4.1035    0.6681 C   0  0  1  0  0  0  0  0  0  0  0  0
   -4.7847    5.4210    1.1855 C   0  0  2  0  0  0  0  0  0  0  0  0
   -3.9860    5.1762    2.4667 C   0  0  1  0  0  0  0  0  0  0  0  0
   -2.8701    4.1652    2.2051 C   0  0  1  0  0  0  0  0  0  0  0  0
   -2.3155    1.9235    1.4283 N   0  3  0  0  0  0  0  0  0  0  0  0
   -6.1658    4.2843   -0.5659 N   0  3  0  0  0  0  0  0  0  0  0  0
   -3.4310    6.4000    2.9297 O   0  0  0  0  0  0  0  0  0  0  0  0
   -2.1329    3.9269    3.4178 O   0  0  0  0  0  0  0  0  0  0  0  0
   -6.6612    6.0775    2.5314 C   0  0  1  0  0  0  0  0  0  0  0  0
   -7.9270    6.9351    2.4851 C   0  0  1  0  0  0  0  0  0  0  0  0
   -7.5694    8.4096    2.5957 C   0  0  0  0  0  0  0  0  0  0  0  0
   -6.7479    8.6326    3.8550 C   0  0  1  0  0  0  0  0  0  0  0  0
   -5.5171    7.7269    3.8354 C   0  0  1  0  0  0  0  0  0  0  0  0
   -4.6775    7.8536    5.0936 C   0  0  0  0  0  0  0  0  0  0  0  0
   -8.7232    6.6465    1.2688 N   0  3  0  0  0  0  0  0  0  0  0  0
   -5.5256    8.0230    6.2977 N   0  3  0  0  0  0  0  0  0  0  0  0
   -5.8487    6.3605    1.4416 O   0  0  0  0  0  0  0  0  0  0  0  0
   -6.3474    9.9926    3.9384 O   0  0  0  0  0  0  0  0  0  0  0  0
   -5.9189    6.3440    3.7277 O   0  0  0  0  0  0  0  0  0  0  0  0
  1  2  1  0  0  0  0
  1 10  1  0  0  0  0
  1 21  1  1  0  0  0
  2  3  1  0  0  0  0
  2  7  1  6  0  0  0
  3  4  1  0  0  0  0
  3  8  1  6  0  0  0
  4  5  1  0  0  0  0
  4  9  1  1  0  0  0
  5  6  1  1  0  0  0
  5 10  1  0  0  0  0
  6 11  1  0  0  0  0
 12 13  1  0  0  0  0
 12 17  1  0  0  0  0
 12 18  1  6  0  0  0
 13 14  1  0  0  0  0
 14 15  1  0  0  0  0
 14 19  1  6  0  0  0
 15 16  1  0  0  0  0
 15 30  1  1  0  0  0
 16 17  1  0  0  0  0
 16 20  1  6  0  0  0
 17 21  1  1  0  0  0
 22 23  1  0  0  0  0
 22 30  1  6  0  0  0
 22 32  1  0  0  0  0
 23 24  1  0  0  0  0
 23 28  1  6  0  0  0
 24 25  1  0  0  0  0
 25 26  1  0  0  0  0
 25 31  1  6  0  0  0
 26 27  1  1  0  0  0
 26 32  1  0  0  0  0
 27 29  1  0  0  0  0
M  CHG  5   8   1  18   1  19   1  28   1  29   1
M  END
>  <CHROM.1>
-100.07583198,76.86702728,-166.19903374,-139.61817830,23.33214448,174.72784288
96.61990080,179.49683499,70.55224744,-61.73970776,138.93078249,-166.08714517
64.96271184,-177.47033724,37.63018727,136.19030511,-3.41478254,5.11689812
3.36650178,-0.07109848,-0.59015471,0.93348693

>  <Name>
1tob

>  <RI>
0

>  <Rbt.Current_Directory>
/home/itssahil/PROJECTS/Mol_Feturizer/New_Systems/rnas/1tob

>  <Rbt.Executable>
rbdock ($Id: //depot/dev/client3/rdock/2013.1/src/exe/rbdock.cxx#4 $)

>  <Rbt.Library>
libRbt.so (2013.1, Build901 2013/11/27)

>  <Rbt.Parameter_File>
/export/apps/rDock/src/rDock_2013.1_src/data/scripts/dock_solv.prm

>  <Rbt.Receptor>
prm/blind_docking_80.prm

>  <SCORE>
-22.2771

>  <SCORE.INTER>
-41.2344

>  <SCORE.INTER.CONST>
1

>  <SCORE.INTER.POLAR>
-5.58235

>  <SCORE.INTER.ROT>
6

>  <SCORE.INTER.SOLV>
33.2464

>  <SCORE.INTER.VDW>
-27.5639

>  <SCORE.INTER.norm>
-1.28858

>  <SCORE.INTRA>
7.68572

>  <SCORE.INTRA.DIHEDRAL>
7.68023

>  <SCORE.INTRA.DIHEDRAL.0>
22.9177

>  <SCORE.INTRA.POLAR>
-0.859934

>  <SCORE.INTRA.POLAR.0>
-0.311208

>  <SCORE.INTRA.REPUL>
0

>  <SCORE.INTRA.REPUL.0>
0

>  <SCORE.INTRA.SOLV>
1.41324

>  <SCORE.INTRA.SOLV.lig_0>
-132.657

>  <SCORE.INTRA.VDW>
6.06276

>  <SCORE.INTRA.VDW.0>
-4.68867

>  <SCORE.INTRA.norm>
0.240179

>  <SCORE.RESTR>
11.2717

>  <SCORE.RESTR.CAVITY>
11.2717

>  <SCORE.RESTR.norm>
0.352239

>  <SCORE.SYSTEM>
0

>  <SCORE.SYSTEM.CONST>
0

>  <SCORE.SYSTEM.DIHEDRAL>
0

>  <SCORE.SYSTEM.SOLV>
0

>  <SCORE.SYSTEM.norm>
0

>  <SCORE.heavy>
32

>  <SCORE.norm>
-0.696158

>  <RMSD>
3.445

$$$$
1tob
 OpenBabel11021811413D
libRbt.so/2013.1/901 2013/11/27
 32 34  0  0  0  0  0  0  0  0999 V2000
   -0.6178    3.5437    4.2163 C   0  0  2  0  0  0  0  0  0  0  0  0
    0.8093    3.3167    4.7095 C   0  0  1  0  0  0  0  0  0  0  0  0
    1.4691    2.2212    3.8832 C   0  0  2  0  0  0  0  0  0  0  0  0
    0.6133    0.9614    3.9377 C   0  0  1  0  0  0  0  0  0  0  0  0
   -0.8049    1.2775    3.4710 C   0  0  1  0  0  0  0  0  0  0  0  0
   -1.7275    0.0789    3.5755 C   0  0  0  0  0  0  0  0  0  0  0  0
    1.5544    4.5201    4.5914 O   0  0  0  0  0  0  0  0  0  0  0  0
    2.8533    1.9691    4.3392 N   0  3  0  0  0  0  0  0  0  0  0  0
    1.1860   -0.0450    3.1136 O   0  0  0  0  0  0  0  0  0  0  0  0
   -1.3715    2.3267    4.2854 O   0  0  0  0  0  0  0  0  0  0  0  0
   -1.5552   -0.8058    2.4775 O   0  0  0  0  0  0  0  0  0  0  0  0
   -2.7561    3.3025    2.0203 C   0  0  2  0  0  0  0  0  0  0  0  0
   -4.0883    3.8339    1.5096 C   0  0  0  0  0  0  0  0  0  0  0  0
   -4.7767    4.6737    2.5859 C   0  0  1  0  0  0  0  0  0  0  0  0
   -3.8812    5.8484    2.9730 C   0  0  2  0  0  0  0  0  0  0  0  0
   -2.5339    5.3332    3.4815 C   0  0  1  0  0  0  0  0  0  0  0  0
   -1.8640    4.4703    2.4127 C   0  0  1  0  0  0  0  0  0  0  0  0
   -2.0700    2.5164    0.9716 N   0  3  0  0  0  0  0  0  0  0  0  0
   -6.1119    5.1148    2.1055 N   0  3  0  0  0  0  0  0  0  0  0  0
   -1.6932    6.4299    3.8144 O   0  0  0  0  0  0  0  0  0  0  0  0
   -0.6050    3.9753    2.9031 O   0  0  0  0  0  0  0  0  0  0  0  0
   -4.1315    7.9781    4.0527 C   0  0  1  0  0  0  0  0  0  0  0  0
   -4.6394    8.6186    5.3456 C   0  0  1  0  0  0  0  0  0  0  0  0
   -6.1604    8.6185    5.3721 C   0  0  0  0  0  0  0  0  0  0  0  0
   -6.6831    9.3093    4.1231 C   0  0  1  0  0  0  0  0  0  0  0  0
   -6.1147    8.6266    2.8796 C   0  0  1  0  0  0  0  0  0  0  0  0
   -6.5490    9.3021    1.5914 C   0  0  0  0  0  0  0  0  0  0  0  0
   -4.0632    7.9486    6.5355 N   0  3  0  0  0  0  0  0  0  0  0  0
   -8.0066    9.1542    1.3653 N   0  3  0  0  0  0  0  0  0  0  0  0
   -4.5186    6.6460    3.9918 O   0  0  0  0  0  0  0  0  0  0  0  0
   -8.1022    9.2579    4.0981 O   0  0  0  0  0  0  0  0  0  0  0  0
   -4.6713    8.6564    2.9118 O   0  0  0  0  0  0  0  0  0  0  0  0
  1  2  1  0  0  0  0
  1 10  1  0  0  0  0
  1 21  1  6  0  0  0
  2  3  1  0  0  0  0
  2  7  1  6  0  0  0
  3  4  1  0  0  0  0
  3  8  1  1  0  0  0
  4  5  1  0  0  0  0
  4  9  1  6  0  0  0
  5  6  1  1  0  0  0
  5 10  1  0  0  0  0
  6 11  1  0  0  0  0
 12 13  1  0  0  0  0
 12 17  1  0  0  0  0
 12 18  1  6  0  0  0
 13 14  1  0  0  0  0
 14 15  1  0  0  0  0
 14 19  1  6  0  0  0
 15 16  1  0  0  0  0
 15 30  1  1  0  0  0
 16 17  1  0  0  0  0
 16 20  1  6  0  0  0
 17 21  1  1  0  0  0
 22 23  1  0  0  0  0
 22 30  1  1  0  0  0
 22 32  1  0  0  0  0
 23 24  1  0  0  0  0
 23 28  1  1  0  0  0
 24 25  1  0  0  0  0
 25 26  1  0  0  0  0
 25 31  1  6  0  0  0
 26 27  1  6  0  0  0
 26 32  1  0  0  0  0
 27 29  1  0  0  0  0
M  CHG  5   8   1  18   1  19   1  28   1  29   1
M  END
>  <CHROM.1>
-168.39088211,-72.96676979,-48.06864127,62.75890297,-80.34282299,148.01917027
-21.16028208,173.56199426,-154.48889119,-57.69457624,-80.37406737,-167.59535470
29.97447809,66.03928296,-66.80261484,-73.25000484,-2.85265026,4.95083686
3.41698950,-0.68517466,-0.48543971,0.51043819

>  <Name>
1tob

>  <RI>
0

>  <Rbt.Current_Directory>
/home/itssahil/PROJECTS/Mol_Feturizer/New_Systems/rnas/1tob

>  <Rbt.Executable>
rbdock ($Id: //depot/dev/client3/rdock/2013.1/src/exe/rbdock.cxx#4 $)

>  <Rbt.Library>
libRbt.so (2013.1, Build901 2013/11/27)

>  <Rbt.Parameter_File>
/export/apps/rDock/src/rDock_2013.1_src/data/scripts/dock_solv.prm

>  <Rbt.Receptor>
prm/blind_docking_60.prm

>  <SCORE>
-25.613

>  <SCORE.INTER>
-30.522

>  <SCORE.INTER.CONST>
1

>  <SCORE.INTER.POLAR>
-4.87618

>  <SCORE.INTER.ROT>
6

>  <SCORE.INTER.SOLV>
35.1258

>  <SCORE.INTER.VDW>
-23.4027

>  <SCORE.INTER.norm>
-0.953814

>  <SCORE.INTRA>
-0.534377

>  <SCORE.INTRA.DIHEDRAL>
-4.88783

>  <SCORE.INTRA.DIHEDRAL.0>
22.9177

>  <SCORE.INTRA.POLAR>
-0.504085

>  <SCORE.INTRA.POLAR.0>
-0.311208

>  <SCORE.INTRA.REPUL>
0

>  <SCORE.INTRA.REPUL.0>
0

>  <SCORE.INTRA.SOLV>
0.0385419

>  <SCORE.INTRA.SOLV.lig_0>
-132.657

>  <SCORE.INTRA.VDW>
3.60416

>  <SCORE.INTRA.VDW.0>
-4.68867

>  <SCORE.INTRA.norm>
-0.0166993

>  <SCORE.RESTR>
5.44339

>  <SCORE.RESTR.CAVITY>
5.44339

>  <SCORE.RESTR.norm>
0.170106

>  <SCORE.SYSTEM>
0

>  <SCORE.SYSTEM.CONST>
0

>  <SCORE.SYSTEM.DIHEDRAL>
0

>  <SCORE.SYSTEM.SOLV>
0

>  <SCORE.SYSTEM.norm>
0

>  <SCORE.heavy>
32

>  <SCORE.norm>
-0.800407

>  <RMSD>
3.455

$$$$
1tob
 OpenBabel11021811413D
libRbt.so/2013.1/901 2013/11/27
 32 34  0  0  0  0  0  0  0  0999 V2000
   -2.6796    6.3465    1.4526 C   0  0  2  0  0  0  0  0  0  0  0  0
   -3.5934    5.4780    0.5914 C   0  0  1  0  0  0  0  0  0  0  0  0
   -3.5884    4.0493    1.1179 C   0  0  2  0  0  0  0  0  0  0  0  0
   -2.1550    3.5346    1.1706 C   0  0  1  0  0  0  0  0  0  0  0  0
   -1.2970    4.4752    2.0123 C   0  0  1  0  0  0  0  0  0  0  0  0
    0.1602    4.0579    2.0398 C   0  0  0  0  0  0  0  0  0  0  0  0
   -4.9158    5.9954    0.6230 O   0  0  0  0  0  0  0  0  0  0  0  0
   -4.4592    3.1764    0.3011 N   0  3  0  0  0  0  0  0  0  0  0  0
   -2.1340    2.2263    1.7256 O   0  0  0  0  0  0  0  0  0  0  0  0
   -1.3498    5.8121    1.4691 O   0  0  0  0  0  0  0  0  0  0  0  0
    0.3314    2.8141    2.7044 O   0  0  0  0  0  0  0  0  0  0  0  0
   -2.9021    8.7845    2.5046 C   0  0  2  0  0  0  0  0  0  0  0  0
   -3.4794   10.1244    2.9397 C   0  0  0  0  0  0  0  0  0  0  0  0
   -4.9549   10.2221    2.5511 C   0  0  1  0  0  0  0  0  0  0  0  0
   -5.7388    9.0951    3.2199 C   0  0  2  0  0  0  0  0  0  0  0  0
   -5.1670    7.7400    2.8002 C   0  0  1  0  0  0  0  0  0  0  0  0
   -3.6849    7.6596    3.1643 C   0  0  1  0  0  0  0  0  0  0  0  0
   -1.4831    8.6709    2.9073 N   0  3  0  0  0  0  0  0  0  0  0  0
   -5.4828   11.5653    2.9049 N   0  3  0  0  0  0  0  0  0  0  0  0
   -5.8811    6.6948    3.4463 O   0  0  0  0  0  0  0  0  0  0  0  0
   -3.1490    6.3893    2.7521 O   0  0  0  0  0  0  0  0  0  0  0  0
   -8.0226    8.5497    3.7203 C   0  0  1  0  0  0  0  0  0  0  0  0
   -9.1506    7.8856    2.9287 C   0  0  1  0  0  0  0  0  0  0  0  0
   -9.9559    8.9347    2.1770 C   0  0  0  0  0  0  0  0  0  0  0  0
  -10.4572    9.9803    3.1598 C   0  0  1  0  0  0  0  0  0  0  0  0
   -9.2765   10.5785    3.9237 C   0  0  1  0  0  0  0  0  0  0  0  0
   -9.7086   11.5920    4.9679 C   0  0  0  0  0  0  0  0  0  0  0  0
   -8.6224    6.8374    2.0238 N   0  3  0  0  0  0  0  0  0  0  0  0
  -10.2189   12.8344    4.3404 N   0  3  0  0  0  0  0  0  0  0  0  0
   -7.1325    9.1742    2.8568 O   0  0  0  0  0  0  0  0  0  0  0  0
  -11.1538   11.0045    2.4651 O   0  0  0  0  0  0  0  0  0  0  0  0
   -8.5515    9.5374    4.6136 O   0  0  0  0  0  0  0  0  0  0  0  0
  1  2  1  0  0  0  0
  1 10  1  0  0  0  0
  1 21  1  1  0  0  0
  2  3  1  0  0  0  0
  2  7  1  1  0  0  0
  3  4  1  0  0  0  0
  3  8  1  6  0  0  0
  4  5  1  0  0  0  0
  4  9  1  1  0  0  0
  5  6  1  6  0  0  0
  5 10  1  0  0  0  0
  6 11  1  0  0  0  0
 12 13  1  0  0  0  0
 12 17  1  0  0  0  0
 12 18  1  1  0  0  0
 13 14  1  0  0  0  0
 14 15  1  0  0  0  0
 14 19  1  1  0  0  0
 15 16  1  0  0  0  0
 15 30  1  6  0  0  0
 16 17  1  0  0  0  0
 16 20  1  1  0  0  0
 17 21  1  6  0  0  0
 22 23  1  0  0  0  0
 22 30  1  6  0  0  0
 22 32  1  0  0  0  0
 23 24  1  0  0  0  0
 23 28  1  6  0  0  0
 24 25  1  0  0  0  0
 25 26  1  0  0  0  0
 25 31  1  6  0  0  0
 26 27  1  1  0  0  0
 26 32  1  0  0  0  0
 27 29  1  0  0  0  0
M  CHG  5   8   1  18   1  19   1  28   1  29   1
M  END
>  <CHROM.1>
-110.29647991,66.69181933,25.96979575,75.60922126,-65.79230867,56.53219889
-54.03275102,-169.29031116,-157.98667017,-171.50425274,-34.60264904,-142.30005798
155.78443337,-47.92220854,-70.21270898,57.09155862,-5.31287734,7.53769145
2.53703545,-0.70916260,-0.03392119,0.31760968

>  <Name>
1tob

>  <RI>
0

>  <Rbt.Current_Directory>
/home/itssahil/PROJECTS/Mol_Feturizer/New_Systems/rnas/1tob

>  <Rbt.Executable>
rbdock ($Id: //depot/dev/client3/rdock/2013.1/src/exe/rbdock.cxx#4 $)

>  <Rbt.Library>
libRbt.so (2013.1, Build901 2013/11/27)

>  <Rbt.Parameter_File>
/export/apps/rDock/src/rDock_2013.1_src/data/scripts/dock_solv.prm

>  <Rbt.Receptor>
prm/pocket_docking_4.prm

>  <SCORE>
-35.3634

>  <SCORE.INTER>
-31.1853

>  <SCORE.INTER.CONST>
1

>  <SCORE.INTER.POLAR>
-5.20463

>  <SCORE.INTER.ROT>
6

>  <SCORE.INTER.SOLV>
21.157

>  <SCORE.INTER.VDW>
-18.0938

>  <SCORE.INTER.norm>
-0.97454

>  <SCORE.INTRA>
-4.20248

>  <SCORE.INTRA.DIHEDRAL>
0.674417

>  <SCORE.INTRA.DIHEDRAL.0>
22.9177

>  <SCORE.INTRA.POLAR>
-2.33825

>  <SCORE.INTRA.POLAR.0>
-0.311208

>  <SCORE.INTRA.REPUL>
0

>  <SCORE.INTRA.REPUL.0>
0

>  <SCORE.INTRA.SOLV>
-0.243944

>  <SCORE.INTRA.SOLV.lig_0>
-132.657

>  <SCORE.INTRA.VDW>
3.53233

>  <SCORE.INTRA.VDW.0>
-4.68867

>  <SCORE.INTRA.norm>
-0.131328

>  <SCORE.RESTR>
0.0244107

>  <SCORE.RESTR.CAVITY>
0.0244107

>  <SCORE.RESTR.norm>
0.000762834

>  <SCORE.SYSTEM>
0

>  <SCORE.SYSTEM.CONST>
0

>  <SCORE.SYSTEM.DIHEDRAL>
0

>  <SCORE.SYSTEM.SOLV>
0

>  <SCORE.SYSTEM.norm>
0

>  <SCORE.heavy>
32

>  <SCORE.norm>
-1.10511

>  <RMSD>
3.461

$$$$
1tob
 OpenBabel11021811413D
libRbt.so/2013.1/901 2013/11/27
 32 34  0  0  0  0  0  0  0  0999 V2000
   -0.7910    4.2176    3.6019 C   0  0  2  0  0  0  0  0  0  0  0  0
    0.3766    3.3400    3.1574 C   0  0  1  0  0  0  0  0  0  0  0  0
    0.4470    2.0974    4.0345 C   0  0  2  0  0  0  0  0  0  0  0  0
    0.5400    2.5152    5.4971 C   0  0  1  0  0  0  0  0  0  0  0  0
   -0.6353    3.4215    5.8531 C   0  0  1  0  0  0  0  0  0  0  0  0
   -0.5579    3.9343    7.2778 C   0  0  0  0  0  0  0  0  0  0  0  0
    0.2004    2.9589    1.8004 O   0  0  0  0  0  0  0  0  0  0  0  0
    1.5736    1.2259    3.6362 N   0  3  0  0  0  0  0  0  0  0  0  0
    0.5368    1.3620    6.3278 O   0  0  0  0  0  0  0  0  0  0  0  0
   -0.6527    4.5739    4.9832 O   0  0  0  0  0  0  0  0  0  0  0  0
   -1.6058    4.8520    7.5566 O   0  0  0  0  0  0  0  0  0  0  0  0
   -3.4686    2.6702    1.7398 C   0  0  2  0  0  0  0  0  0  0  0  0
   -4.2662    3.0553    0.5013 C   0  0  0  0  0  0  0  0  0  0  0  0
   -5.2711    4.1583    0.8345 C   0  0  1  0  0  0  0  0  0  0  0  0
   -4.5314    5.3870    1.3591 C   0  0  2  0  0  0  0  0  0  0  0  0
   -3.7174    5.0168    2.5999 C   0  0  1  0  0  0  0  0  0  0  0  0
   -2.7355    3.8935    2.2683 C   0  0  1  0  0  0  0  0  0  0  0  0
   -2.4717    1.6263    1.4160 N   0  3  0  0  0  0  0  0  0  0  0  0
   -6.0998    4.4647   -0.3603 N   0  3  0  0  0  0  0  0  0  0  0  0
   -3.0086    6.1560    3.0686 O   0  0  0  0  0  0  0  0  0  0  0  0
   -1.9846    3.5387    3.4435 O   0  0  0  0  0  0  0  0  0  0  0  0
   -6.4587    6.1030    2.5987 C   0  0  1  0  0  0  0  0  0  0  0  0
   -7.7243    6.9191    2.3303 C   0  0  1  0  0  0  0  0  0  0  0  0
   -7.4465    8.4022    2.5238 C   0  0  0  0  0  0  0  0  0  0  0  0
   -6.8794    8.6282    3.9158 C   0  0  1  0  0  0  0  0  0  0  0  0
   -5.6342    7.7642    4.1123 C   0  0  1  0  0  0  0  0  0  0  0  0
   -5.0457    7.8946    5.5054 C   0  0  0  0  0  0  0  0  0  0  0  0
   -8.2722    6.6276    0.9845 N   0  3  0  0  0  0  0  0  0  0  0  0
   -5.5540    9.1023    6.1989 N   0  3  0  0  0  0  0  0  0  0  0  0
   -5.4702    6.4336    1.6813 O   0  0  0  0  0  0  0  0  0  0  0  0
   -6.5503    9.9988    4.0889 O   0  0  0  0  0  0  0  0  0  0  0  0
   -5.9593    6.3711    3.9148 O   0  0  0  0  0  0  0  0  0  0  0  0
  1  2  1  0  0  0  0
  1 10  1  0  0  0  0
  1 21  1  1  0  0  0
  2  3  1  0  0  0  0
  2  7  1  6  0  0  0
  3  4  1  0  0  0  0
  3  8  1  6  0  0  0
  4  5  1  0  0  0  0
  4  9  1  1  0  0  0
  5  6  1  1  0  0  0
  5 10  1  0  0  0  0
  6 11  1  0  0  0  0
 12 13  1  0  0  0  0
 12 17  1  0  0  0  0
 12 18  1  6  0  0  0
 13 14  1  0  0  0  0
 14 15  1  0  0  0  0
 14 19  1  6  0  0  0
 15 16  1  0  0  0  0
 15 30  1  1  0  0  0
 16 17  1  0  0  0  0
 16 20  1  6  0  0  0
 17 21  1  1  0  0  0
 22 23  1  0  0  0  0
 22 30  1  6  0  0  0
 22 32  1  0  0  0  0
 23 24  1  0  0  0  0
 23 28  1  6  0  0  0
 24 25  1  0  0  0  0
 25 26  1  0  0  0  0
 25 31  1  6  0  0  0
 26 27  1  1  0  0  0
 26 32  1  0  0  0  0
 27 29  1  0  0  0  0
M  CHG  5   8   1  18   1  19   1  28   1  29   1
M  END
>  <CHROM.1>
-100.65665104,77.64744996,75.65779281,-176.58153802,175.68898150,-73.05309891
1.47297059,-164.92439040,56.89818759,63.33292871,146.15134084,-150.60398731
61.05119677,-49.74562976,-17.03641406,70.46978677,-3.39536595,4.96903786
3.39843310,-0.18314315,-0.63876305,0.95630546

>  <Name>
1tob

>  <RI>
0

>  <Rbt.Current_Directory>
/home/itssahil/PROJECTS/Mol_Feturizer/New_Systems/rnas/1tob

>  <Rbt.Executable>
rbdock ($Id: //depot/dev/client3/rdock/2013.1/src/exe/rbdock.cxx#4 $)

>  <Rbt.Library>
libRbt.so (2013.1, Build901 2013/11/27)

>  <Rbt.Parameter_File>
/export/apps/rDock/src/rDock_2013.1_src/data/scripts/dock_solv.prm

>  <Rbt.Receptor>
prm/blind_docking_20.prm

>  <SCORE>
-35.4341

>  <SCORE.INTER>
-49.6728

>  <SCORE.INTER.CONST>
1

>  <SCORE.INTER.POLAR>
-7.95503

>  <SCORE.INTER.ROT>
6

>  <SCORE.INTER.SOLV>
35.9555

>  <SCORE.INTER.VDW>
-26.1836

>  <SCORE.INTER.norm>
-1.55227

>  <SCORE.INTRA>
3.47855

>  <SCORE.INTRA.DIHEDRAL>
2.61606

>  <SCORE.INTRA.DIHEDRAL.0>
22.9177

>  <SCORE.INTRA.POLAR>
-1.21363

>  <SCORE.INTRA.POLAR.0>
-0.311208

>  <SCORE.INTRA.REPUL>
0

>  <SCORE.INTRA.REPUL.0>
0

>  <SCORE.INTRA.SOLV>
2.67033

>  <SCORE.INTRA.SOLV.lig_0>
-132.657

>  <SCORE.INTRA.VDW>
4.96168

>  <SCORE.INTRA.VDW.0>
-4.68867

>  <SCORE.INTRA.norm>
0.108705

>  <SCORE.RESTR>
10.7601

>  <SCORE.RESTR.CAVITY>
10.7601

>  <SCORE.RESTR.norm>
0.336254

>  <SCORE.SYSTEM>
0

>  <SCORE.SYSTEM.CONST>
0

>  <SCORE.SYSTEM.DIHEDRAL>
0

>  <SCORE.SYSTEM.SOLV>
0

>  <SCORE.SYSTEM.norm>
0

>  <SCORE.heavy>
32

>  <SCORE.norm>
-1.10732

>  <RMSD>
3.468

$$$$
1tob
 OpenBabel11021811413D
libRbt.so/2013.1/901 2013/11/27
 32 34  0  0  0  0  0  0  0  0999 V2000
    0.2025    4.0281    3.7205 C   0  0  2  0  0  0  0  0  0  0  0  0
    1.3181    3.1709    3.1273 C   0  0  1  0  0  0  0  0  0  0  0  0
    1.5313    1.9363    3.9927 C   0  0  2  0  0  0  0  0  0  0  0  0
    1.8108    2.3666    5.4277 C   0  0  1  0  0  0  0  0  0  0  0  0
    0.6751    3.2515    5.9341 C   0  0  1  0  0  0  0  0  0  0  0  0
    0.9320    3.7761    7.3331 C   0  0  0  0  0  0  0  0  0  0  0  0
    0.9696    2.7764    1.8080 O   0  0  0  0  0  0  0  0  0  0  0  0
    2.6124    1.0849    3.4507 N   0  3  0  0  0  0  0  0  0  0  0  0
    1.9430    1.2196    6.2565 O   0  0  0  0  0  0  0  0  0  0  0  0
    0.5171    4.3970    5.0692 O   0  0  0  0  0  0  0  0  0  0  0  0
    2.2663    4.2424    7.4756 O   0  0  0  0  0  0  0  0  0  0  0  0
   -2.7491    2.4946    2.2891 C   0  0  2  0  0  0  0  0  0  0  0  0
   -3.7430    2.9059    1.2115 C   0  0  0  0  0  0  0  0  0  0  0  0
   -4.6653    4.0102    1.7286 C   0  0  1  0  0  0  0  0  0  0  0  0
   -3.8348    5.2247    2.1375 C   0  0  2  0  0  0  0  0  0  0  0  0
   -2.8243    4.8282    3.2149 C   0  0  1  0  0  0  0  0  0  0  0  0
   -1.9245    3.7038    2.7030 C   0  0  1  0  0  0  0  0  0  0  0  0
   -1.8324    1.4493    1.7836 N   0  3  0  0  0  0  0  0  0  0  0  0
   -5.6831    4.3421    0.6981 N   0  3  0  0  0  0  0  0  0  0  0  0
   -2.0346    5.9544    3.5727 O   0  0  0  0  0  0  0  0  0  0  0  0
   -0.9871    3.3241    3.7267 O   0  0  0  0  0  0  0  0  0  0  0  0
   -4.7386    7.4328    1.8705 C   0  0  1  0  0  0  0  0  0  0  0  0
   -4.6831    8.6633    2.7775 C   0  0  1  0  0  0  0  0  0  0  0  0
   -5.9038    8.7054    3.6844 C   0  0  0  0  0  0  0  0  0  0  0  0
   -7.1621    8.6524    2.8334 C   0  0  1  0  0  0  0  0  0  0  0  0
   -7.1311    7.4105    1.9432 C   0  0  1  0  0  0  0  0  0  0  0  0
   -8.3330    7.3223    1.0202 C   0  0  0  0  0  0  0  0  0  0  0  0
   -3.4175    8.7022    3.5477 N   0  3  0  0  0  0  0  0  0  0  0  0
   -8.1992    6.2009    0.0600 N   0  3  0  0  0  0  0  0  0  0  0  0
   -4.6944    6.2722    2.6316 O   0  0  0  0  0  0  0  0  0  0  0  0
   -8.3111    8.6220    3.6676 O   0  0  0  0  0  0  0  0  0  0  0  0
   -5.9524    7.4259    1.1090 O   0  0  0  0  0  0  0  0  0  0  0  0
  1  2  1  0  0  0  0
  1 10  1  0  0  0  0
  1 21  1  1  0  0  0
  2  3  1  0  0  0  0
  2  7  1  6  0  0  0
  3  4  1  0  0  0  0
  3  8  1  6  0  0  0
  4  5  1  0  0  0  0
  4  9  1  1  0  0  0
  5  6  1  1  0  0  0
  5 10  1  0  0  0  0
  6 11  1  0  0  0  0
 12 13  1  0  0  0  0
 12 17  1  0  0  0  0
 12 18  1  6  0  0  0
 13 14  1  0  0  0  0
 14 15  1  0  0  0  0
 14 19  1  6  0  0  0
 15 16  1  0  0  0  0
 15 30  1  1  0  0  0
 16 17  1  0  0  0  0
 16 20  1  6  0  0  0
 17 21  1  1  0  0  0
 22 23  1  0  0  0  0
 22 30  1  1  0  0  0
 22 32  1  0  0  0  0
 23 24  1  0  0  0  0
 23 28  1  1  0  0  0
 24 25  1  0  0  0  0
 25 26  1  0  0  0  0
 25 31  1  1  0  0  0
 26 27  1  6  0  0  0
 26 32  1  0  0  0  0
 27 29  1  0  0  0  0
M  CHG  5   8   1  18   1  19   1  28   1  29   1
M  END
>  <CHROM.1>
-103.73418595,67.61321209,-71.05700826,171.64222936,44.45930462,64.35715601
-24.40770710,-175.79537037,-114.46346156,-68.64965924,148.53314845,-136.73526272
-157.35749472,-63.13920376,173.25707856,-50.02187333,-2.59920052,4.85467935
3.18075564,-0.18349178,-0.58042798,0.70148403

>  <Name>
1tob

>  <RI>
0

>  <Rbt.Current_Directory>
/home/itssahil/PROJECTS/Mol_Feturizer/New_Systems/rnas/1tob

>  <Rbt.Executable>
rbdock ($Id: //depot/dev/client3/rdock/2013.1/src/exe/rbdock.cxx#4 $)

>  <Rbt.Library>
libRbt.so (2013.1, Build901 2013/11/27)

>  <Rbt.Parameter_File>
/export/apps/rDock/src/rDock_2013.1_src/data/scripts/dock_solv.prm

>  <Rbt.Receptor>
prm/pocket_docking_7.prm

>  <SCORE>
-49.9481

>  <SCORE.INTER>
-47.0846

>  <SCORE.INTER.CONST>
1

>  <SCORE.INTER.POLAR>
-6.92388

>  <SCORE.INTER.ROT>
6

>  <SCORE.INTER.SOLV>
22.6419

>  <SCORE.INTER.VDW>
-23.4574

>  <SCORE.INTER.norm>
-1.47139

>  <SCORE.INTRA>
-2.86351

>  <SCORE.INTRA.DIHEDRAL>
6.1423

>  <SCORE.INTRA.DIHEDRAL.0>
22.9177

>  <SCORE.INTRA.POLAR>
-2.21534

>  <SCORE.INTRA.POLAR.0>
-0.311208

>  <SCORE.INTRA.REPUL>
0

>  <SCORE.INTRA.REPUL.0>
0

>  <SCORE.INTRA.SOLV>
4.19346

>  <SCORE.INTRA.SOLV.lig_0>
-132.657

>  <SCORE.INTRA.VDW>
-0.499248

>  <SCORE.INTRA.VDW.0>
-4.68867

>  <SCORE.INTRA.norm>
-0.0894846

>  <SCORE.RESTR>
0

>  <SCORE.RESTR.CAVITY>
0

>  <SCORE.RESTR.norm>
0

>  <SCORE.SYSTEM>
0

>  <SCORE.SYSTEM.CONST>
0

>  <SCORE.SYSTEM.DIHEDRAL>
0

>  <SCORE.SYSTEM.SOLV>
0

>  <SCORE.SYSTEM.norm>
0

>  <SCORE.heavy>
32

>  <SCORE.norm>
-1.56088

>  <RMSD>
3.492

$$$$
1tob
 OpenBabel11021811413D
libRbt.so/2013.1/901 2013/11/27
 32 34  0  0  0  0  0  0  0  0999 V2000
    0.1480    4.2217    3.9446 C   0  0  2  0  0  0  0  0  0  0  0  0
    1.5388    3.6595    3.6604 C   0  0  1  0  0  0  0  0  0  0  0  0
    1.7905    2.4439    4.5421 C   0  0  2  0  0  0  0  0  0  0  0  0
    1.5914    2.8288    6.0032 C   0  0  1  0  0  0  0  0  0  0  0  0
    0.1978    3.4195    6.1985 C   0  0  1  0  0  0  0  0  0  0  0  0
   -0.0340    3.8940    7.6196 C   0  0  0  0  0  0  0  0  0  0  0  0
    1.6353    3.2874    2.2930 O   0  0  0  0  0  0  0  0  0  0  0  0
    3.1344    1.8767    4.2983 N   0  3  0  0  0  0  0  0  0  0  0  0
    1.7569    1.6838    6.8289 O   0  0  0  0  0  0  0  0  0  0  0  0
    0.0177    4.5598    5.3312 O   0  0  0  0  0  0  0  0  0  0  0  0
    0.8724    4.9282    7.9758 O   0  0  0  0  0  0  0  0  0  0  0  0
   -2.5449    2.4978    2.1282 C   0  0  2  0  0  0  0  0  0  0  0  0
   -3.5642    2.9527    1.0927 C   0  0  0  0  0  0  0  0  0  0  0  0
   -4.5372    3.9594    1.7070 C   0  0  1  0  0  0  0  0  0  0  0  0
   -3.7658    5.1729    2.2208 C   0  0  2  0  0  0  0  0  0  0  0  0
   -2.7305    4.7336    3.2574 C   0  0  1  0  0  0  0  0  0  0  0  0
   -1.7790    3.7053    2.6466 C   0  0  1  0  0  0  0  0  0  0  0  0
   -1.5804    1.5485    1.5307 N   0  3  0  0  0  0  0  0  0  0  0  0
   -5.5763    4.3300    0.7114 N   0  3  0  0  0  0  0  0  0  0  0  0
   -1.9958    5.8618    3.7127 O   0  0  0  0  0  0  0  0  0  0  0  0
   -0.8180    3.2838    3.6313 O   0  0  0  0  0  0  0  0  0  0  0  0
   -4.5185    7.4458    2.3969 C   0  0  1  0  0  0  0  0  0  0  0  0
   -4.7123    8.3952    3.5806 C   0  0  1  0  0  0  0  0  0  0  0  0
   -6.1307    8.2839    4.1191 C   0  0  0  0  0  0  0  0  0  0  0  0
   -7.1165    8.5353    2.9898 C   0  0  1  0  0  0  0  0  0  0  0  0
   -6.8437    7.5650    1.8410 C   0  0  1  0  0  0  0  0  0  0  0  0
   -7.7557    7.7973    0.6501 C   0  0  0  0  0  0  0  0  0  0  0  0
   -3.6979    8.1505    4.6329 N   0  3  0  0  0  0  0  0  0  0  0  0
   -7.2477    7.1154   -0.5642 N   0  3  0  0  0  0  0  0  0  0  0  0
   -4.6734    6.1283    2.8071 O   0  0  0  0  0  0  0  0  0  0  0  0
   -8.4460    8.3680    3.4600 O   0  0  0  0  0  0  0  0  0  0  0  0
   -5.4854    7.7158    1.3745 O   0  0  0  0  0  0  0  0  0  0  0  0
  1  2  1  0  0  0  0
  1 10  1  0  0  0  0
  1 21  1  1  0  0  0
  2  3  1  0  0  0  0
  2  7  1  6  0  0  0
  3  4  1  0  0  0  0
  3  8  1  1  0  0  0
  4  5  1  0  0  0  0
  4  9  1  1  0  0  0
  5  6  1  1  0  0  0
  5 10  1  0  0  0  0
  6 11  1  0  0  0  0
 12 13  1  0  0  0  0
 12 17  1  0  0  0  0
 12 18  1  6  0  0  0
 13 14  1  0  0  0  0
 14 15  1  0  0  0  0
 14 19  1  6  0  0  0
 15 16  1  0  0  0  0
 15 30  1  1  0  0  0
 16 17  1  0  0  0  0
 16 20  1  6  0  0  0
 17 21  1  1  0  0  0
 22 23  1  0  0  0  0
 22 30  1  1  0  0  0
 22 32  1  0  0  0  0
 23 24  1  0  0  0  0
 23 28  1  1  0  0  0
 24 25  1  0  0  0  0
 25 26  1  0  0  0  0
 25 31  1  1  0  0  0
 26 27  1  6  0  0  0
 26 32  1  0  0  0  0
 27 29  1  0  0  0  0
M  CHG  5   8   1  18   1  19   1  28   1  29   1
M  END
>  <CHROM.1>
-121.39103603,70.79836234,64.34031452,177.14286516,61.71545084,-62.55033054
92.01899935,-56.13920404,-131.56539382,162.74746956,165.29894286,-140.81936444
28.56151342,-44.62625175,164.59128849,-43.96841015,-2.56144116,4.99849356
3.40016547,0.00803260,0.61720904,-2.20775019

>  <Name>
1tob

>  <RI>
0

>  <Rbt.Current_Directory>
/home/itssahil/PROJECTS/Mol_Feturizer/New_Systems/rnas/1tob

>  <Rbt.Executable>
rbdock ($Id: //depot/dev/client3/rdock/2013.1/src/exe/rbdock.cxx#4 $)

>  <Rbt.Library>
libRbt.so (2013.1, Build901 2013/11/27)

>  <Rbt.Parameter_File>
/export/apps/rDock/src/rDock_2013.1_src/data/scripts/dock_solv.prm

>  <Rbt.Receptor>
prm/pocket_docking_5.prm

>  <SCORE>
-38.2716

>  <SCORE.INTER>
-38.3937

>  <SCORE.INTER.CONST>
1

>  <SCORE.INTER.POLAR>
-5.25116

>  <SCORE.INTER.ROT>
6

>  <SCORE.INTER.SOLV>
22.0252

>  <SCORE.INTER.VDW>
-23.0337

>  <SCORE.INTER.norm>
-1.1998

>  <SCORE.INTRA>
0.122117

>  <SCORE.INTRA.DIHEDRAL>
5.87487

>  <SCORE.INTRA.DIHEDRAL.0>
22.9177

>  <SCORE.INTRA.POLAR>
-1.51664

>  <SCORE.INTRA.POLAR.0>
-0.311208

>  <SCORE.INTRA.REPUL>
0

>  <SCORE.INTRA.REPUL.0>
0

>  <SCORE.INTRA.SOLV>
0.71137

>  <SCORE.INTRA.SOLV.lig_0>
-132.657

>  <SCORE.INTRA.VDW>
1.98559

>  <SCORE.INTRA.VDW.0>
-4.68867

>  <SCORE.INTRA.norm>
0.00381617

>  <SCORE.RESTR>
0

>  <SCORE.RESTR.CAVITY>
0

>  <SCORE.RESTR.norm>
0

>  <SCORE.SYSTEM>
0

>  <SCORE.SYSTEM.CONST>
0

>  <SCORE.SYSTEM.DIHEDRAL>
0

>  <SCORE.SYSTEM.SOLV>
0

>  <SCORE.SYSTEM.norm>
0

>  <SCORE.heavy>
32

>  <SCORE.norm>
-1.19599

>  <RMSD>
3.497

$$$$
1tob
 OpenBabel11021811413D
libRbt.so/2013.1/901 2013/11/27
 32 34  0  0  0  0  0  0  0  0999 V2000
   -0.0133    3.8493    3.7154 C   0  0  2  0  0  0  0  0  0  0  0  0
    1.0435    2.9135    3.1335 C   0  0  1  0  0  0  0  0  0  0  0  0
    1.2079    1.6999    4.0382 C   0  0  2  0  0  0  0  0  0  0  0  0
    1.5377    2.1639    5.4519 C   0  0  1  0  0  0  0  0  0  0  0  0
    0.4607    3.1255    5.9465 C   0  0  1  0  0  0  0  0  0  0  0  0
    0.7723    3.6835    7.3212 C   0  0  0  0  0  0  0  0  0  0  0  0
    0.6488    2.4930    1.8354 O   0  0  0  0  0  0  0  0  0  0  0  0
    2.2314    0.7735    3.5078 N   0  3  0  0  0  0  0  0  0  0  0  0
    1.6252    1.0407    6.3184 O   0  0  0  0  0  0  0  0  0  0  0  0
    0.3468    4.2472    5.0444 O   0  0  0  0  0  0  0  0  0  0  0  0
   -0.2782    4.5145    7.7944 O   0  0  0  0  0  0  0  0  0  0  0  0
   -3.1891    2.6501    2.4491 C   0  0  2  0  0  0  0  0  0  0  0  0
   -4.2569    3.2361    1.5356 C   0  0  0  0  0  0  0  0  0  0  0  0
   -5.0450    4.3248    2.2644 C   0  0  1  0  0  0  0  0  0  0  0  0
   -4.0968    5.4365    2.7084 C   0  0  2  0  0  0  0  0  0  0  0  0
   -3.0114    4.8642    3.6214 C   0  0  1  0  0  0  0  0  0  0  0  0
   -2.2467    3.7562    2.8980 C   0  0  1  0  0  0  0  0  0  0  0  0
   -2.4016    1.6189    1.7385 N   0  3  0  0  0  0  0  0  0  0  0  0
   -6.1372    4.8282    1.3917 N   0  3  0  0  0  0  0  0  0  0  0  0
   -2.1149    5.8964    4.0099 O   0  0  0  0  0  0  0  0  0  0  0  0
   -1.2382    3.2108    3.7677 O   0  0  0  0  0  0  0  0  0  0  0  0
   -4.0656    7.4843    3.9610 C   0  0  1  0  0  0  0  0  0  0  0  0
   -4.9715    8.5208    4.6282 C   0  0  1  0  0  0  0  0  0  0  0  0
   -5.8658    9.1846    3.5919 C   0  0  0  0  0  0  0  0  0  0  0  0
   -5.0020    9.7744    2.4890 C   0  0  1  0  0  0  0  0  0  0  0  0
   -4.1139    8.6843    1.8903 C   0  0  1  0  0  0  0  0  0  0  0  0
   -3.1788    9.2147    0.8187 C   0  0  0  0  0  0  0  0  0  0  0  0
   -5.7545    7.9145    5.7308 N   0  3  0  0  0  0  0  0  0  0  0  0
   -3.8913    9.4376   -0.4620 N   0  3  0  0  0  0  0  0  0  0  0  0
   -4.8287    6.4680    3.4017 O   0  0  0  0  0  0  0  0  0  0  0  0
   -5.8244   10.3388    1.4781 O   0  0  0  0  0  0  0  0  0  0  0  0
   -3.2918    8.0918    2.9192 O   0  0  0  0  0  0  0  0  0  0  0  0
  1  2  1  0  0  0  0
  1 10  1  0  0  0  0
  1 21  1  1  0  0  0
  2  3  1  0  0  0  0
  2  7  1  6  0  0  0
  3  4  1  0  0  0  0
  3  8  1  6  0  0  0
  4  5  1  0  0  0  0
  4  9  1  1  0  0  0
  5  6  1  1  0  0  0
  5 10  1  0  0  0  0
  6 11  1  0  0  0  0
 12 13  1  0  0  0  0
 12 17  1  0  0  0  0
 12 18  1  6  0  0  0
 13 14  1  0  0  0  0
 14 15  1  0  0  0  0
 14 19  1  6  0  0  0
 15 16  1  0  0  0  0
 15 30  1  1  0  0  0
 16 17  1  0  0  0  0
 16 20  1  6  0  0  0
 17 21  1  1  0  0  0
 22 23  1  0  0  0  0
 22 30  1  6  0  0  0
 22 32  1  0  0  0  0
 23 24  1  0  0  0  0
 23 28  1  1  0  0  0
 24 25  1  0  0  0  0
 25 26  1  0  0  0  0
 25 31  1  6  0  0  0
 26 27  1  6  0  0  0
 26 32  1  0  0  0  0
 27 29  1  0  0  0  0
M  CHG  5   8   1  18   1  19   1  28   1  29   1
M  END
>  <CHROM.1>
-113.64763806,69.66283859,-159.90437040,-57.01510223,-176.62703250,76.47467449
-106.84296428,62.99010466,174.60680599,177.97865345,149.00473527,178.51603559
57.89567068,-55.26285059,-77.25989032,60.98277317,-2.33828702,5.15829649
3.45865717,0.22388837,0.83642901,-2.23134002

>  <Name>
1tob

>  <RI>
0

>  <Rbt.Current_Directory>
/home/itssahil/PROJECTS/Mol_Feturizer/New_Systems/rnas/1tob

>  <Rbt.Executable>
rbdock ($Id: //depot/dev/client3/rdock/2013.1/src/exe/rbdock.cxx#4 $)

>  <Rbt.Library>
libRbt.so (2013.1, Build901 2013/11/27)

>  <Rbt.Parameter_File>
/export/apps/rDock/src/rDock_2013.1_src/data/scripts/dock_solv.prm

>  <Rbt.Receptor>
prm/pocket_docking_6.prm

>  <SCORE>
-57.6464

>  <SCORE.INTER>
-49.6519

>  <SCORE.INTER.CONST>
1

>  <SCORE.INTER.POLAR>
-7.61394

>  <SCORE.INTER.ROT>
6

>  <SCORE.INTER.SOLV>
29.8187

>  <SCORE.INTER.VDW>
-25.261

>  <SCORE.INTER.norm>
-1.55162

>  <SCORE.INTRA>
-7.99454

>  <SCORE.INTRA.DIHEDRAL>
-4.98538

>  <SCORE.INTRA.DIHEDRAL.0>
22.9177

>  <SCORE.INTRA.POLAR>
-1.97594

>  <SCORE.INTRA.POLAR.0>
-0.311208

>  <SCORE.INTRA.REPUL>
0

>  <SCORE.INTRA.REPUL.0>
0

>  <SCORE.INTRA.SOLV>
-5.09933

>  <SCORE.INTRA.SOLV.lig_0>
-132.657

>  <SCORE.INTRA.VDW>
3.76599

>  <SCORE.INTRA.VDW.0>
-4.68867

>  <SCORE.INTRA.norm>
-0.249829

>  <SCORE.RESTR>
0

>  <SCORE.RESTR.CAVITY>
0

>  <SCORE.RESTR.norm>
0

>  <SCORE.SYSTEM>
0

>  <SCORE.SYSTEM.CONST>
0

>  <SCORE.SYSTEM.DIHEDRAL>
0

>  <SCORE.SYSTEM.SOLV>
0

>  <SCORE.SYSTEM.norm>
0

>  <SCORE.heavy>
32

>  <SCORE.norm>
-1.80145

>  <RMSD>
3.514

$$$$
1tob
 OpenBabel11021811413D
libRbt.so/2013.1/901 2013/11/27
 32 34  0  0  0  0  0  0  0  0999 V2000
   -2.2279    4.6138    3.2392 C   0  0  2  0  0  0  0  0  0  0  0  0
   -2.0372    3.5379    2.1727 C   0  0  1  0  0  0  0  0  0  0  0  0
   -2.1142    2.1597    2.8153 C   0  0  2  0  0  0  0  0  0  0  0  0
   -1.0915    2.0688    3.9416 C   0  0  1  0  0  0  0  0  0  0  0  0
   -1.3204    3.1984    4.9420 C   0  0  1  0  0  0  0  0  0  0  0  0
   -0.2841    3.2081    6.0485 C   0  0  0  0  0  0  0  0  0  0  0  0
   -3.0470    3.6612    1.1815 O   0  0  0  0  0  0  0  0  0  0  0  0
   -1.9258    1.0910    1.8104 N   0  3  0  0  0  0  0  0  0  0  0  0
   -1.2033    0.8100    4.5920 O   0  0  0  0  0  0  0  0  0  0  0  0
   -1.2442    4.4754    4.2723 O   0  0  0  0  0  0  0  0  0  0  0  0
   -0.6641    4.0751    7.1078 O   0  0  0  0  0  0  0  0  0  0  0  0
   -3.3637    6.8407    4.4178 C   0  0  2  0  0  0  0  0  0  0  0  0
   -4.1683    8.1323    4.4684 C   0  0  0  0  0  0  0  0  0  0  0  0
   -4.6703    8.5042    3.0730 C   0  0  1  0  0  0  0  0  0  0  0  0
   -5.5518    7.3829    2.5275 C   0  0  2  0  0  0  0  0  0  0  0  0
   -4.7616    6.0744    2.4770 C   0  0  1  0  0  0  0  0  0  0  0  0
   -4.2373    5.7232    3.8689 C   0  0  1  0  0  0  0  0  0  0  0  0
   -2.9031    6.4582    5.7705 N   0  3  0  0  0  0  0  0  0  0  0  0
   -5.3806    9.8085    3.1225 N   0  3  0  0  0  0  0  0  0  0  0  0
   -5.5935    5.0275    1.9952 O   0  0  0  0  0  0  0  0  0  0  0  0
   -3.4810    4.5002    3.8117 O   0  0  0  0  0  0  0  0  0  0  0  0
   -6.9010    6.8118    0.6256 C   0  0  1  0  0  0  0  0  0  0  0  0
   -7.1701    7.1953   -0.8306 C   0  0  1  0  0  0  0  0  0  0  0  0
   -7.8602    8.5492   -0.9005 C   0  0  0  0  0  0  0  0  0  0  0  0
   -9.1223    8.5124   -0.0542 C   0  0  1  0  0  0  0  0  0  0  0  0
   -8.7730    8.1014    1.3757 C   0  0  1  0  0  0  0  0  0  0  0  0
   -9.9965    7.9864    2.2667 C   0  0  0  0  0  0  0  0  0  0  0  0
   -5.9223    7.1660   -1.6296 N   0  3  0  0  0  0  0  0  0  0  0  0
  -10.6500    9.3023    2.4645 N   0  3  0  0  0  0  0  0  0  0  0  0
   -6.0281    7.7207    1.2086 O   0  0  0  0  0  0  0  0  0  0  0  0
   -9.7432    9.7896   -0.0532 O   0  0  0  0  0  0  0  0  0  0  0  0
   -8.1207    6.8130    1.3777 O   0  0  0  0  0  0  0  0  0  0  0  0
  1  2  1  0  0  0  0
  1 10  1  0  0  0  0
  1 21  1  1  0  0  0
  2  3  1  0  0  0  0
  2  7  1  6  0  0  0
  3  4  1  0  0  0  0
  3  8  1  6  0  0  0
  4  5  1  0  0  0  0
  4  9  1  1  0  0  0
  5  6  1  1  0  0  0
  5 10  1  0  0  0  0
  6 11  1  0  0  0  0
 12 13  1  0  0  0  0
 12 17  1  0  0  0  0
 12 18  1  1  0  0  0
 13 14  1  0  0  0  0
 14 15  1  0  0  0  0
 14 19  1  1  0  0  0
 15 16  1  0  0  0  0
 15 30  1  6  0  0  0
 16 17  1  0  0  0  0
 16 20  1  1  0  0  0
 17 21  1  6  0  0  0
 22 23  1  0  0  0  0
 22 30  1  1  0  0  0
 22 32  1  0  0  0  0
 23 24  1  0  0  0  0
 23 28  1  6  0  0  0
 24 25  1  0  0  0  0
 25 26  1  0  0  0  0
 25 31  1  1  0  0  0
 26 27  1  1  0  0  0
 26 32  1  0  0  0  0
 27 29  1  0  0  0  0
M  CHG  5   8   1  18   1  19   1  28   1  29   1
M  END
>  <CHROM.1>
-129.97573780,-49.04434713,84.46932162,176.55264946,-167.85541432,70.17576006
173.03587058,164.09125049,-176.74991513,-61.50407239,-47.70074987,-172.23367533
54.65066965,59.67187852,-65.52233626,-80.07888023,-4.74429103,5.90796855
2.61912038,0.06360548,0.74841186,-2.24953487

>  <Name>
1tob

>  <RI>
0

>  <Rbt.Current_Directory>
/home/itssahil/PROJECTS/Mol_Feturizer/New_Systems/rnas/1tob

>  <Rbt.Executable>
rbdock ($Id: //depot/dev/client3/rdock/2013.1/src/exe/rbdock.cxx#4 $)

>  <Rbt.Library>
libRbt.so (2013.1, Build901 2013/11/27)

>  <Rbt.Parameter_File>
/export/apps/rDock/src/rDock_2013.1_src/data/scripts/dock_solv.prm

>  <Rbt.Receptor>
prm/pocket_docking_4.prm

>  <SCORE>
-52.2904

>  <SCORE.INTER>
-42.7916

>  <SCORE.INTER.CONST>
1

>  <SCORE.INTER.POLAR>
-6.72352

>  <SCORE.INTER.ROT>
6

>  <SCORE.INTER.SOLV>
25.7743

>  <SCORE.INTER.VDW>
-22.3074

>  <SCORE.INTER.norm>
-1.33724

>  <SCORE.INTRA>
-9.49881

>  <SCORE.INTRA.DIHEDRAL>
-10.3615

>  <SCORE.INTRA.DIHEDRAL.0>
22.9177

>  <SCORE.INTRA.POLAR>
-1.80503

>  <SCORE.INTRA.POLAR.0>
-0.311208

>  <SCORE.INTRA.REPUL>
0

>  <SCORE.INTRA.REPUL.0>
0

>  <SCORE.INTRA.SOLV>
-2.92935

>  <SCORE.INTRA.SOLV.lig_0>
-132.657

>  <SCORE.INTRA.VDW>
3.28371

>  <SCORE.INTRA.VDW.0>
-4.68867

>  <SCORE.INTRA.norm>
-0.296838

>  <SCORE.RESTR>
0

>  <SCORE.RESTR.CAVITY>
0

>  <SCORE.RESTR.norm>
0

>  <SCORE.SYSTEM>
0

>  <SCORE.SYSTEM.CONST>
0

>  <SCORE.SYSTEM.DIHEDRAL>
0

>  <SCORE.SYSTEM.SOLV>
0

>  <SCORE.SYSTEM.norm>
0

>  <SCORE.heavy>
32

>  <SCORE.norm>
-1.63407

>  <RMSD>
3.527

$$$$
1tob
 OpenBabel11021811413D
libRbt.so/2013.1/901 2013/11/27
 32 34  0  0  0  0  0  0  0  0999 V2000
   -2.2801    4.5996    3.0013 C   0  0  2  0  0  0  0  0  0  0  0  0
   -2.1859    3.4186    2.0382 C   0  0  1  0  0  0  0  0  0  0  0  0
   -2.1598    2.1157    2.8256 C   0  0  2  0  0  0  0  0  0  0  0  0
   -1.0159    2.1555    3.8318 C   0  0  1  0  0  0  0  0  0  0  0  0
   -1.1566    3.3826    4.7284 C   0  0  1  0  0  0  0  0  0  0  0  0
   -0.0036    3.5205    5.7030 C   0  0  0  0  0  0  0  0  0  0  0  0
   -3.3027    3.4254    1.1605 O   0  0  0  0  0  0  0  0  0  0  0  0
   -2.0612    0.9484    1.9229 N   0  3  0  0  0  0  0  0  0  0  0  0
   -1.0262    0.9719    4.6185 O   0  0  0  0  0  0  0  0  0  0  0  0
   -1.1843    4.5820    3.9247 O   0  0  0  0  0  0  0  0  0  0  0  0
   -0.1701    4.6509    6.5472 O   0  0  0  0  0  0  0  0  0  0  0  0
   -3.3098    6.8489    4.4142 C   0  0  2  0  0  0  0  0  0  0  0  0
   -4.0890    8.1547    4.4906 C   0  0  0  0  0  0  0  0  0  0  0  0
   -4.5459    8.5868    3.0970 C   0  0  1  0  0  0  0  0  0  0  0  0
   -5.4352    7.5047    2.4886 C   0  0  2  0  0  0  0  0  0  0  0  0
   -4.6707    6.1822    2.4113 C   0  0  1  0  0  0  0  0  0  0  0  0
   -4.1910    5.7705    3.8028 C   0  0  1  0  0  0  0  0  0  0  0  0
   -2.8934    6.4087    5.7638 N   0  3  0  0  0  0  0  0  0  0  0  0
   -5.2304    9.9033    3.1752 N   0  3  0  0  0  0  0  0  0  0  0  0
   -5.5105    5.1712    1.8706 O   0  0  0  0  0  0  0  0  0  0  0  0
   -3.4586    4.5345    3.7209 O   0  0  0  0  0  0  0  0  0  0  0  0
   -6.8322    7.0922    0.5802 C   0  0  1  0  0  0  0  0  0  0  0  0
   -7.0287    7.4875   -0.8843 C   0  0  1  0  0  0  0  0  0  0  0  0
   -7.5539    8.9121   -0.9801 C   0  0  0  0  0  0  0  0  0  0  0  0
   -8.8263    9.0332   -0.1574 C   0  0  1  0  0  0  0  0  0  0  0  0
   -8.5528    8.6008    1.2827 C   0  0  1  0  0  0  0  0  0  0  0  0
   -9.7969    8.6403    2.1515 C   0  0  0  0  0  0  0  0  0  0  0  0
   -5.7791    7.3030   -1.6594 N   0  3  0  0  0  0  0  0  0  0  0  0
  -10.8934    7.8319    1.5669 N   0  3  0  0  0  0  0  0  0  0  0  0
   -5.8690    7.8993    1.1709 O   0  0  0  0  0  0  0  0  0  0  0  0
   -9.2930   10.3743   -0.1803 O   0  0  0  0  0  0  0  0  0  0  0  0
   -8.0563    7.2450    1.3091 O   0  0  0  0  0  0  0  0  0  0  0  0
  1  2  1  0  0  0  0
  1 10  1  0  0  0  0
  1 21  1  1  0  0  0
  2  3  1  0  0  0  0
  2  7  1  6  0  0  0
  3  4  1  0  0  0  0
  3  8  1  6  0  0  0
  4  5  1  0  0  0  0
  4  9  1  1  0  0  0
  5  6  1  1  0  0  0
  5 10  1  0  0  0  0
  6 11  1  0  0  0  0
 12 13  1  0  0  0  0
 12 17  1  0  0  0  0
 12 18  1  1  0  0  0
 13 14  1  0  0  0  0
 14 15  1  0  0  0  0
 14 19  1  1  0  0  0
 15 16  1  0  0  0  0
 15 30  1  6  0  0  0
 16 17  1  0  0  0  0
 16 20  1  1  0  0  0
 17 21  1  6  0  0  0
 22 23  1  0  0  0  0
 22 30  1  1  0  0  0
 22 32  1  0  0  0  0
 23 24  1  0  0  0  0
 23 28  1  6  0  0  0
 24 25  1  0  0  0  0
 25 26  1  0  0  0  0
 25 31  1  1  0  0  0
 26 27  1  1  0  0  0
 26 32  1  0  0  0  0
 27 29  1  0  0  0  0
M  CHG  5   8   1  18   1  19   1  28   1  29   1
M  END
>  <CHROM.1>
-133.53248755,71.30433231,-22.60630478,165.84294971,-178.67017379,175.66678821
53.07899239,42.78958809,-171.36792240,171.69493531,-57.32738742,-170.77403512
173.93854251,175.35944855,55.13575799,61.16285057,-4.63806147,6.02006360
2.49520909,0.17988594,0.73866951,-2.42051543

>  <Name>
1tob

>  <RI>
0

>  <Rbt.Current_Directory>
/home/itssahil/PROJECTS/Mol_Feturizer/New_Systems/rnas/1tob

>  <Rbt.Executable>
rbdock ($Id: //depot/dev/client3/rdock/2013.1/src/exe/rbdock.cxx#4 $)

>  <Rbt.Library>
libRbt.so (2013.1, Build901 2013/11/27)

>  <Rbt.Parameter_File>
/export/apps/rDock/src/rDock_2013.1_src/data/scripts/dock_solv.prm

>  <Rbt.Receptor>
prm/pocket_docking_6.prm

>  <SCORE>
-50.2294

>  <SCORE.INTER>
-43.4086

>  <SCORE.INTER.CONST>
1

>  <SCORE.INTER.POLAR>
-6.91848

>  <SCORE.INTER.ROT>
6

>  <SCORE.INTER.SOLV>
28.1488

>  <SCORE.INTER.VDW>
-22.8604

>  <SCORE.INTER.norm>
-1.35652

>  <SCORE.INTRA>
-6.82082

>  <SCORE.INTRA.DIHEDRAL>
-10.2094

>  <SCORE.INTRA.DIHEDRAL.0>
22.9177

>  <SCORE.INTRA.POLAR>
-0.636684

>  <SCORE.INTRA.POLAR.0>
-0.311208

>  <SCORE.INTRA.REPUL>
0

>  <SCORE.INTRA.REPUL.0>
0

>  <SCORE.INTRA.SOLV>
-2.56129

>  <SCORE.INTRA.SOLV.lig_0>
-132.657

>  <SCORE.INTRA.VDW>
1.72927

>  <SCORE.INTRA.VDW.0>
-4.68867

>  <SCORE.INTRA.norm>
-0.213151

>  <SCORE.RESTR>
0

>  <SCORE.RESTR.CAVITY>
0

>  <SCORE.RESTR.norm>
0

>  <SCORE.SYSTEM>
0

>  <SCORE.SYSTEM.CONST>
0

>  <SCORE.SYSTEM.DIHEDRAL>
0

>  <SCORE.SYSTEM.SOLV>
0

>  <SCORE.SYSTEM.norm>
0

>  <SCORE.heavy>
32

>  <SCORE.norm>
-1.56967

>  <RMSD>
3.535

$$$$
1tob
 OpenBabel11021811413D
libRbt.so/2013.1/901 2013/11/27
 32 34  0  0  0  0  0  0  0  0999 V2000
   -1.2705    3.9956    4.4926 C   0  0  2  0  0  0  0  0  0  0  0  0
   -0.3125    4.5053    3.4185 C   0  0  1  0  0  0  0  0  0  0  0  0
    0.3726    3.3261    2.7412 C   0  0  2  0  0  0  0  0  0  0  0  0
    1.0624    2.4683    3.7952 C   0  0  1  0  0  0  0  0  0  0  0  0
    0.0515    2.0338    4.8528 C   0  0  1  0  0  0  0  0  0  0  0  0
    0.6937    1.2394    5.9731 C   0  0  0  0  0  0  0  0  0  0  0  0
   -1.0316    5.2599    2.4537 O   0  0  0  0  0  0  0  0  0  0  0  0
    1.3154    3.7840    1.6978 N   0  3  0  0  0  0  0  0  0  0  0  0
    1.6465    1.3280    3.1800 O   0  0  0  0  0  0  0  0  0  0  0  0
   -0.5686    3.1929    5.4503 O   0  0  0  0  0  0  0  0  0  0  0  0
    1.4771    0.1681    5.4667 O   0  0  0  0  0  0  0  0  0  0  0  0
   -3.5970    2.6894    1.9707 C   0  0  2  0  0  0  0  0  0  0  0  0
   -4.2291    3.2866    0.7210 C   0  0  0  0  0  0  0  0  0  0  0  0
   -5.1990    4.4074    1.0962 C   0  0  1  0  0  0  0  0  0  0  0  0
   -4.4517    5.5020    1.8546 C   0  0  2  0  0  0  0  0  0  0  0  0
   -3.8027    4.9180    3.1104 C   0  0  1  0  0  0  0  0  0  0  0  0
   -2.8570    3.7787    2.7317 C   0  0  1  0  0  0  0  0  0  0  0  0
   -2.6327    1.6264    1.6120 N   0  3  0  0  0  0  0  0  0  0  0  0
   -5.8714    4.9234   -0.1244 N   0  3  0  0  0  0  0  0  0  0  0  0
   -3.0850    5.9336    3.7986 O   0  0  0  0  0  0  0  0  0  0  0  0
   -2.2624    3.2228    3.9184 O   0  0  0  0  0  0  0  0  0  0  0  0
   -6.3069    6.2502    3.1821 C   0  0  1  0  0  0  0  0  0  0  0  0
   -7.6521    6.8863    2.8274 C   0  0  1  0  0  0  0  0  0  0  0  0
   -7.5344    8.4031    2.8271 C   0  0  0  0  0  0  0  0  0  0  0  0
   -6.9968    8.8640    4.1720 C   0  0  1  0  0  0  0  0  0  0  0  0
   -5.6669    8.1691    4.4618 C   0  0  1  0  0  0  0  0  0  0  0  0
   -5.0978    8.5382    5.8198 C   0  0  0  0  0  0  0  0  0  0  0  0
   -8.1636    6.3687    1.5363 N   0  3  0  0  0  0  0  0  0  0  0  0
   -3.9655    7.6567    6.1920 N   0  3  0  0  0  0  0  0  0  0  0  0
   -5.3579    6.5636    2.2181 O   0  0  0  0  0  0  0  0  0  0  0  0
   -6.8162   10.2726    4.1654 O   0  0  0  0  0  0  0  0  0  0  0  0
   -5.8411    6.7357    4.4472 O   0  0  0  0  0  0  0  0  0  0  0  0
  1  2  1  0  0  0  0
  1 10  1  0  0  0  0
  1 21  1  6  0  0  0
  2  3  1  0  0  0  0
  2  7  1  6  0  0  0
  3  4  1  0  0  0  0
  3  8  1  6  0  0  0
  4  5  1  0  0  0  0
  4  9  1  6  0  0  0
  5  6  1  1  0  0  0
  5 10  1  0  0  0  0
  6 11  1  0  0  0  0
 12 13  1  0  0  0  0
 12 17  1  0  0  0  0
 12 18  1  6  0  0  0
 13 14  1  0  0  0  0
 14 15  1  0  0  0  0
 14 19  1  6  0  0  0
 15 16  1  0  0  0  0
 15 30  1  1  0  0  0
 16 17  1  0  0  0  0
 16 20  1  6  0  0  0
 17 21  1  1  0  0  0
 22 23  1  0  0  0  0
 22 30  1  6  0  0  0
 22 32  1  0  0  0  0
 23 24  1  0  0  0  0
 23 28  1  6  0  0  0
 24 25  1  0  0  0  0
 25 26  1  0  0  0  0
 25 31  1  6  0  0  0
 26 27  1  1  0  0  0
 26 32  1  0  0  0  0
 27 29  1  0  0  0  0
M  CHG  5   8   1  18   1  19   1  28   1  29   1
M  END
>  <CHROM.1>
-45.55983063,60.08607322,138.75842658,67.93033388,-51.42850484,177.99452167
108.39611441,66.58368243,68.96546930,164.33882064,162.76631979,-140.26269624
33.09746412,57.06670041,168.52949029,153.16993627,-3.21355886,4.87623467
3.30711172,-0.34565135,-0.58624082,0.87946870

>  <Name>
1tob

>  <RI>
0

>  <Rbt.Current_Directory>
/home/itssahil/PROJECTS/Mol_Feturizer/New_Systems/rnas/1tob

>  <Rbt.Executable>
rbdock ($Id: //depot/dev/client3/rdock/2013.1/src/exe/rbdock.cxx#4 $)

>  <Rbt.Library>
libRbt.so (2013.1, Build901 2013/11/27)

>  <Rbt.Parameter_File>
/export/apps/rDock/src/rDock_2013.1_src/data/scripts/dock_solv.prm

>  <Rbt.Receptor>
prm/blind_docking_60.prm

>  <SCORE>
-26.9379

>  <SCORE.INTER>
-39.6197

>  <SCORE.INTER.CONST>
1

>  <SCORE.INTER.POLAR>
-6.09695

>  <SCORE.INTER.ROT>
6

>  <SCORE.INTER.SOLV>
37.0271

>  <SCORE.INTER.VDW>
-26.0324

>  <SCORE.INTER.norm>
-1.23812

>  <SCORE.INTRA>
9.08609

>  <SCORE.INTRA.DIHEDRAL>
-3.16762

>  <SCORE.INTRA.DIHEDRAL.0>
22.9177

>  <SCORE.INTRA.POLAR>
-1.05715

>  <SCORE.INTRA.POLAR.0>
-0.311208

>  <SCORE.INTRA.REPUL>
0

>  <SCORE.INTRA.REPUL.0>
0

>  <SCORE.INTRA.SOLV>
4.84353

>  <SCORE.INTRA.SOLV.lig_0>
-132.657

>  <SCORE.INTRA.VDW>
11.8425

>  <SCORE.INTRA.VDW.0>
-4.68867

>  <SCORE.INTRA.norm>
0.28394

>  <SCORE.RESTR>
3.59576

>  <SCORE.RESTR.CAVITY>
3.59576

>  <SCORE.RESTR.norm>
0.112368

>  <SCORE.SYSTEM>
0

>  <SCORE.SYSTEM.CONST>
0

>  <SCORE.SYSTEM.DIHEDRAL>
0

>  <SCORE.SYSTEM.SOLV>
0

>  <SCORE.SYSTEM.norm>
0

>  <SCORE.heavy>
32

>  <SCORE.norm>
-0.841809

>  <RMSD>
3.556

$$$$
1tob
 OpenBabel11021811413D
libRbt.so/2013.1/901 2013/11/27
 32 34  0  0  0  0  0  0  0  0999 V2000
   -2.1918    4.8150    2.7290 C   0  0  2  0  0  0  0  0  0  0  0  0
   -2.1979    3.7528    1.6323 C   0  0  1  0  0  0  0  0  0  0  0  0
   -1.9554    2.3807    2.2461 C   0  0  2  0  0  0  0  0  0  0  0  0
   -0.6567    2.4055    3.0432 C   0  0  1  0  0  0  0  0  0  0  0  0
   -0.7108    3.5167    4.0880 C   0  0  1  0  0  0  0  0  0  0  0  0
    0.5854    3.6428    4.8642 C   0  0  0  0  0  0  0  0  0  0  0  0
   -3.4501    3.7629    0.9620 O   0  0  0  0  0  0  0  0  0  0  0  0
   -1.9473    1.3260    1.2094 N   0  3  0  0  0  0  0  0  0  0  0  0
   -0.4572    1.1488    3.6765 O   0  0  0  0  0  0  0  0  0  0  0  0
   -0.9515    4.7877    3.4464 O   0  0  0  0  0  0  0  0  0  0  0  0
    0.4924    4.6404    5.8712 O   0  0  0  0  0  0  0  0  0  0  0  0
   -3.3769    6.8482    4.4585 C   0  0  2  0  0  0  0  0  0  0  0  0
   -4.3352    8.0152    4.6536 C   0  0  0  0  0  0  0  0  0  0  0  0
   -4.9244    8.4528    3.3124 C   0  0  1  0  0  0  0  0  0  0  0  0
   -5.6753    7.2859    2.6750 C   0  0  2  0  0  0  0  0  0  0  0  0
   -4.7292    6.1003    2.4786 C   0  0  1  0  0  0  0  0  0  0  0  0
   -4.1205    5.6863    3.8179 C   0  0  1  0  0  0  0  0  0  0  0  0
   -2.8287    6.3990    5.7570 N   0  3  0  0  0  0  0  0  0  0  0  0
   -5.7907    9.6445    3.5058 N   0  3  0  0  0  0  0  0  0  0  0  0
   -5.4382    5.0070    1.9110 O   0  0  0  0  0  0  0  0  0  0  0  0
   -3.2191    4.5815    3.6240 O   0  0  0  0  0  0  0  0  0  0  0  0
   -7.0643    6.7615    0.7884 C   0  0  1  0  0  0  0  0  0  0  0  0
   -7.2609    7.1268   -0.6840 C   0  0  1  0  0  0  0  0  0  0  0  0
   -7.9602    8.4725   -0.8046 C   0  0  0  0  0  0  0  0  0  0  0  0
   -9.2642    8.4310   -0.0248 C   0  0  1  0  0  0  0  0  0  0  0  0
   -8.9858    8.0388    1.4258 C   0  0  1  0  0  0  0  0  0  0  0  0
  -10.2530    7.9200    2.2531 C   0  0  0  0  0  0  0  0  0  0  0  0
   -5.9729    7.1026   -1.4166 N   0  3  0  0  0  0  0  0  0  0  0  0
   -9.9758    8.0933    3.6990 N   0  3  0  0  0  0  0  0  0  0  0  0
   -6.2323    7.6857    1.4060 O   0  0  0  0  0  0  0  0  0  0  0  0
   -9.8972    9.7015   -0.0702 O   0  0  0  0  0  0  0  0  0  0  0  0
   -8.3216    6.7575    1.4758 O   0  0  0  0  0  0  0  0  0  0  0  0
  1  2  1  0  0  0  0
  1 10  1  0  0  0  0
  1 21  1  1  0  0  0
  2  3  1  0  0  0  0
  2  7  1  1  0  0  0
  3  4  1  0  0  0  0
  3  8  1  6  0  0  0
  4  5  1  0  0  0  0
  4  9  1  1  0  0  0
  5  6  1  6  0  0  0
  5 10  1  0  0  0  0
  6 11  1  0  0  0  0
 12 13  1  0  0  0  0
 12 17  1  0  0  0  0
 12 18  1  1  0  0  0
 13 14  1  0  0  0  0
 14 15  1  0  0  0  0
 14 19  1  1  0  0  0
 15 16  1  0  0  0  0
 15 30  1  6  0  0  0
 16 17  1  0  0  0  0
 16 20  1  1  0  0  0
 17 21  1  6  0  0  0
 22 23  1  0  0  0  0
 22 30  1  1  0  0  0
 22 32  1  0  0  0  0
 23 24  1  0  0  0  0
 23 28  1  6  0  0  0
 24 25  1  0  0  0  0
 25 26  1  0  0  0  0
 25 31  1  1  0  0  0
 26 27  1  1  0  0  0
 26 32  1  0  0  0  0
 27 29  1  0  0  0  0
M  CHG  5   8   1  18   1  19   1  28   1  29   1
M  END
>  <CHROM.1>
-124.57295778,93.78664722,175.12684355,-57.88511975,-177.31957190,-179.39550543
46.72815582,51.35503959,-173.21657161,-64.45282930,-64.87181733,-164.08352672
179.48718971,65.31669163,-156.71753145,-52.27222421,-4.65514670,5.93420701
2.44950642,0.09687233,0.62922957,-2.22601656

>  <Name>
1tob

>  <RI>
0

>  <Rbt.Current_Directory>
/home/itssahil/PROJECTS/Mol_Feturizer/New_Systems/rnas/1tob

>  <Rbt.Executable>
rbdock ($Id: //depot/dev/client3/rdock/2013.1/src/exe/rbdock.cxx#4 $)

>  <Rbt.Library>
libRbt.so (2013.1, Build901 2013/11/27)

>  <Rbt.Parameter_File>
/export/apps/rDock/src/rDock_2013.1_src/data/scripts/dock_solv.prm

>  <Rbt.Receptor>
prm/pocket_docking_3.prm

>  <SCORE>
-42.8782

>  <SCORE.INTER>
-40.2245

>  <SCORE.INTER.CONST>
1

>  <SCORE.INTER.POLAR>
-6.5189

>  <SCORE.INTER.ROT>
6

>  <SCORE.INTER.SOLV>
29.6716

>  <SCORE.INTER.VDW>
-22.5772

>  <SCORE.INTER.norm>
-1.25701

>  <SCORE.INTRA>
-3.08944

>  <SCORE.INTRA.DIHEDRAL>
-7.15088

>  <SCORE.INTRA.DIHEDRAL.0>
22.9177

>  <SCORE.INTRA.POLAR>
0.308736

>  <SCORE.INTRA.POLAR.0>
-0.311208

>  <SCORE.INTRA.REPUL>
0.0235197

>  <SCORE.INTRA.REPUL.0>
0

>  <SCORE.INTRA.SOLV>
-4.8997

>  <SCORE.INTRA.SOLV.lig_0>
-132.657

>  <SCORE.INTRA.VDW>
1.76855

>  <SCORE.INTRA.VDW.0>
-4.68867

>  <SCORE.INTRA.norm>
-0.0965449

>  <SCORE.RESTR>
0.435706

>  <SCORE.RESTR.CAVITY>
0.435706

>  <SCORE.RESTR.norm>
0.0136158

>  <SCORE.SYSTEM>
0

>  <SCORE.SYSTEM.CONST>
0

>  <SCORE.SYSTEM.DIHEDRAL>
0

>  <SCORE.SYSTEM.SOLV>
0

>  <SCORE.SYSTEM.norm>
0

>  <SCORE.heavy>
32

>  <SCORE.norm>
-1.33994

>  <RMSD>
3.556

$$$$
1tob
 OpenBabel11021811413D
libRbt.so/2013.1/901 2013/11/27
 32 34  0  0  0  0  0  0  0  0999 V2000
   -2.3452    4.5114    3.0950 C   0  0  2  0  0  0  0  0  0  0  0  0
   -2.2693    3.3501    2.1067 C   0  0  1  0  0  0  0  0  0  0  0  0
   -2.1637    2.0354    2.8676 C   0  0  2  0  0  0  0  0  0  0  0  0
   -0.9689    2.0920    3.8119 C   0  0  1  0  0  0  0  0  0  0  0  0
   -1.0961    3.2991    4.7371 C   0  0  1  0  0  0  0  0  0  0  0  0
    0.1033    3.4545    5.6513 C   0  0  0  0  0  0  0  0  0  0  0  0
   -3.4315    3.3388    1.2902 O   0  0  0  0  0  0  0  0  0  0  0  0
   -2.0806    0.8869    1.9395 N   0  3  0  0  0  0  0  0  0  0  0  0
   -0.9031    0.8955    4.5762 O   0  0  0  0  0  0  0  0  0  0  0  0
   -1.2011    4.5105    3.9583 O   0  0  0  0  0  0  0  0  0  0  0  0
    0.1441    2.4284    6.6329 O   0  0  0  0  0  0  0  0  0  0  0  0
   -3.4226    6.7402    4.4892 C   0  0  2  0  0  0  0  0  0  0  0  0
   -4.2693    8.0026    4.5766 C   0  0  0  0  0  0  0  0  0  0  0  0
   -4.8354    8.3625    3.2027 C   0  0  1  0  0  0  0  0  0  0  0  0
   -5.6970    7.2133    2.6842 C   0  0  2  0  0  0  0  0  0  0  0  0
   -4.8641    5.9334    2.5974 C   0  0  1  0  0  0  0  0  0  0  0  0
   -4.2765    5.5951    3.9670 C   0  0  1  0  0  0  0  0  0  0  0  0
   -2.8990    6.3685    5.8220 N   0  3  0  0  0  0  0  0  0  0  0  0
   -5.5883    9.6409    3.2855 N   0  3  0  0  0  0  0  0  0  0  0  0
   -5.6763    4.8600    2.1411 O   0  0  0  0  0  0  0  0  0  0  0  0
   -3.4808    4.3995    3.8752 O   0  0  0  0  0  0  0  0  0  0  0  0
   -7.1142    6.6145    0.8411 C   0  0  1  0  0  0  0  0  0  0  0  0
   -7.4275    6.9736   -0.6124 C   0  0  1  0  0  0  0  0  0  0  0  0
   -8.1315    8.3204   -0.6829 C   0  0  0  0  0  0  0  0  0  0  0  0
   -9.3689    8.2855    0.1992 C   0  0  1  0  0  0  0  0  0  0  0  0
   -8.9758    7.8992    1.6246 C   0  0  1  0  0  0  0  0  0  0  0  0
  -10.1728    7.7872    2.5514 C   0  0  0  0  0  0  0  0  0  0  0  0
   -6.2025    6.9430   -1.4459 N   0  3  0  0  0  0  0  0  0  0  0  0
  -10.6870    9.1227    2.9382 N   0  3  0  0  0  0  0  0  0  0  0  0
   -6.2334    7.5396    1.3856 O   0  0  0  0  0  0  0  0  0  0  0  0
  -10.0010    9.5572    0.1986 O   0  0  0  0  0  0  0  0  0  0  0  0
   -8.3122    6.6166    1.6272 O   0  0  0  0  0  0  0  0  0  0  0  0
  1  2  1  0  0  0  0
  1 10  1  0  0  0  0
  1 21  1  1  0  0  0
  2  3  1  0  0  0  0
  2  7  1  1  0  0  0
  3  4  1  0  0  0  0
  3  8  1  6  0  0  0
  4  5  1  0  0  0  0
  4  9  1  1  0  0  0
  5  6  1  1  0  0  0
  5 10  1  0  0  0  0
  6 11  1  0  0  0  0
 12 13  1  0  0  0  0
 12 17  1  0  0  0  0
 12 18  1  1  0  0  0
 13 14  1  0  0  0  0
 14 15  1  0  0  0  0
 14 19  1  1  0  0  0
 15 16  1  0  0  0  0
 15 30  1  6  0  0  0
 16 17  1  0  0  0  0
 16 20  1  1  0  0  0
 17 21  1  6  0  0  0
 22 23  1  0  0  0  0
 22 30  1  1  0  0  0
 22 32  1  0  0  0  0
 23 24  1  0  0  0  0
 23 28  1  6  0  0  0
 24 25  1  0  0  0  0
 25 26  1  0  0  0  0
 25 31  1  1  0  0  0
 26 27  1  1  0  0  0
 26 32  1  0  0  0  0
 27 29  1  0  0  0  0
M  CHG  5   8   1  18   1  19   1  28   1  29   1
M  END
>  <CHROM.1>
-130.71900949,174.71932283,109.21144831,57.86273294,-70.03883530,59.51707011
175.00038683,52.16629256,-175.62171091,176.31552466,-56.49361754,-171.06842883
175.79466819,-48.38623229,-75.52028234,-178.17324554,-4.80435589,5.71504709
2.68938122,0.13660631,0.70076965,-2.30609324

>  <Name>
1tob

>  <RI>
0

>  <Rbt.Current_Directory>
/home/itssahil/PROJECTS/Mol_Feturizer/New_Systems/rnas/1tob

>  <Rbt.Executable>
rbdock ($Id: //depot/dev/client3/rdock/2013.1/src/exe/rbdock.cxx#4 $)

>  <Rbt.Library>
libRbt.so (2013.1, Build901 2013/11/27)

>  <Rbt.Parameter_File>
/export/apps/rDock/src/rDock_2013.1_src/data/scripts/dock_solv.prm

>  <Rbt.Receptor>
prm/pocket_docking_3.prm

>  <SCORE>
-51.9339

>  <SCORE.INTER>
-44.0687

>  <SCORE.INTER.CONST>
1

>  <SCORE.INTER.POLAR>
-6.62675

>  <SCORE.INTER.ROT>
6

>  <SCORE.INTER.SOLV>
24.8563

>  <SCORE.INTER.VDW>
-23.1754

>  <SCORE.INTER.norm>
-1.37715

>  <SCORE.INTRA>
-8.09407

>  <SCORE.INTRA.DIHEDRAL>
-10.0719

>  <SCORE.INTRA.DIHEDRAL.0>
22.9177

>  <SCORE.INTRA.POLAR>
-1.53323

>  <SCORE.INTRA.POLAR.0>
-0.311208

>  <SCORE.INTRA.REPUL>
0

>  <SCORE.INTRA.REPUL.0>
0

>  <SCORE.INTRA.SOLV>
-2.79666

>  <SCORE.INTRA.SOLV.lig_0>
-132.657

>  <SCORE.INTRA.VDW>
3.55321

>  <SCORE.INTRA.VDW.0>
-4.68867

>  <SCORE.INTRA.norm>
-0.25294

>  <SCORE.RESTR>
0.228868

>  <SCORE.RESTR.CAVITY>
0.228868

>  <SCORE.RESTR.norm>
0.00715212

>  <SCORE.SYSTEM>
0

>  <SCORE.SYSTEM.CONST>
0

>  <SCORE.SYSTEM.DIHEDRAL>
0

>  <SCORE.SYSTEM.SOLV>
0

>  <SCORE.SYSTEM.norm>
0

>  <SCORE.heavy>
32

>  <SCORE.norm>
-1.62294

>  <RMSD>
3.556

$$$$
1tob
 OpenBabel11021811413D
libRbt.so/2013.1/901 2013/11/27
 32 34  0  0  0  0  0  0  0  0999 V2000
   -2.4668    4.7094    2.7454 C   0  0  2  0  0  0  0  0  0  0  0  0
   -2.4215    3.5045    1.8087 C   0  0  1  0  0  0  0  0  0  0  0  0
   -2.3315    2.2229    2.6258 C   0  0  2  0  0  0  0  0  0  0  0  0
   -1.1263    2.2993    3.5554 C   0  0  1  0  0  0  0  0  0  0  0  0
   -1.2226    3.5481    4.4276 C   0  0  1  0  0  0  0  0  0  0  0  0
   -0.0113    3.7218    5.3226 C   0  0  0  0  0  0  0  0  0  0  0  0
   -3.5920    3.4784    1.0044 O   0  0  0  0  0  0  0  0  0  0  0  0
   -2.2782    1.0333    1.7487 N   0  3  0  0  0  0  0  0  0  0  0  0
   -1.0738    1.1366    4.3711 O   0  0  0  0  0  0  0  0  0  0  0  0
   -1.3141    4.7257    3.5970 O   0  0  0  0  0  0  0  0  0  0  0  0
    1.1542    4.0188    4.5668 O   0  0  0  0  0  0  0  0  0  0  0  0
   -3.4188    6.9350    4.3268 C   0  0  2  0  0  0  0  0  0  0  0  0
   -4.1810    8.2469    4.4538 C   0  0  0  0  0  0  0  0  0  0  0  0
   -4.6279    8.7408    3.0776 C   0  0  1  0  0  0  0  0  0  0  0  0
   -5.5296    7.6960    2.4239 C   0  0  2  0  0  0  0  0  0  0  0  0
   -4.7825    6.3677    2.2953 C   0  0  1  0  0  0  0  0  0  0  0  0
   -4.3124    5.8939    3.6702 C   0  0  1  0  0  0  0  0  0  0  0  0
   -3.0124    6.4353    5.6585 N   0  3  0  0  0  0  0  0  0  0  0  0
   -5.2952   10.0621    3.2071 N   0  3  0  0  0  0  0  0  0  0  0  0
   -5.6340    5.3905    1.7121 O   0  0  0  0  0  0  0  0  0  0  0  0
   -3.5962    4.6526    3.5404 O   0  0  0  0  0  0  0  0  0  0  0  0
   -6.8534    7.3276    0.4553 C   0  0  1  0  0  0  0  0  0  0  0  0
   -6.8936    7.6837   -1.0318 C   0  0  1  0  0  0  0  0  0  0  0  0
   -7.3999    9.1058   -1.2202 C   0  0  0  0  0  0  0  0  0  0  0  0
   -8.7511    9.2507   -0.5391 C   0  0  1  0  0  0  0  0  0  0  0  0
   -8.6320    8.8569    0.9327 C   0  0  1  0  0  0  0  0  0  0  0  0
   -9.9602    8.9214    1.6647 C   0  0  0  0  0  0  0  0  0  0  0  0
   -5.5703    7.4768   -1.6663 N   0  3  0  0  0  0  0  0  0  0  0  0
  -10.9633    8.0193    1.0503 N   0  3  0  0  0  0  0  0  0  0  0  0
   -5.9542    8.1492    1.1221 O   0  0  0  0  0  0  0  0  0  0  0  0
   -9.2073   10.5913   -0.6466 O   0  0  0  0  0  0  0  0  0  0  0  0
   -8.1467    7.5017    1.0473 O   0  0  0  0  0  0  0  0  0  0  0  0
  1  2  1  0  0  0  0
  1 10  1  0  0  0  0
  1 21  1  1  0  0  0
  2  3  1  0  0  0  0
  2  7  1  1  0  0  0
  3  4  1  0  0  0  0
  3  8  1  6  0  0  0
  4  5  1  0  0  0  0
  4  9  1  1  0  0  0
  5  6  1  6  0  0  0
  5 10  1  0  0  0  0
  6 11  1  0  0  0  0
 12 13  1  0  0  0  0
 12 17  1  0  0  0  0
 12 18  1  1  0  0  0
 13 14  1  0  0  0  0
 14 15  1  0  0  0  0
 14 19  1  1  0  0  0
 15 16  1  0  0  0  0
 15 30  1  6  0  0  0
 16 17  1  0  0  0  0
 16 20  1  1  0  0  0
 17 21  1  6  0  0  0
 22 23  1  0  0  0  0
 22 30  1  1  0  0  0
 22 32  1  0  0  0  0
 23 24  1  0  0  0  0
 23 28  1  1  0  0  0
 24 25  1  0  0  0  0
 25 26  1  0  0  0  0
 25 31  1  1  0  0  0
 26 27  1  6  0  0  0
 26 32  1  0  0  0  0
 27 29  1  0  0  0  0
M  CHG  5   8   1  18   1  19   1  28   1  29   1
M  END
>  <CHROM.1>
-135.33852322,84.76577210,105.34390480,61.11208030,67.90329569,174.37768039
52.69956132,41.47286087,-175.89320900,178.48589502,-61.85498216,-163.03992074
-62.56230465,-178.84894658,59.46157866,174.30259197,-4.66553615,6.15253095
2.22095535,0.25407279,0.71591507,-2.49294342

>  <Name>
1tob

>  <RI>
0

>  <Rbt.Current_Directory>
/home/itssahil/PROJECTS/Mol_Feturizer/New_Systems/rnas/1tob

>  <Rbt.Executable>
rbdock ($Id: //depot/dev/client3/rdock/2013.1/src/exe/rbdock.cxx#4 $)

>  <Rbt.Library>
libRbt.so (2013.1, Build901 2013/11/27)

>  <Rbt.Parameter_File>
/export/apps/rDock/src/rDock_2013.1_src/data/scripts/dock_solv.prm

>  <Rbt.Receptor>
prm/pocket_docking_5.prm

>  <SCORE>
-51.7894

>  <SCORE.INTER>
-46.2445

>  <SCORE.INTER.CONST>
1

>  <SCORE.INTER.POLAR>
-7.71415

>  <SCORE.INTER.ROT>
6

>  <SCORE.INTER.SOLV>
27.8124

>  <SCORE.INTER.VDW>
-21.9866

>  <SCORE.INTER.norm>
-1.44514

>  <SCORE.INTRA>
-5.5449

>  <SCORE.INTRA.DIHEDRAL>
-8.24371

>  <SCORE.INTRA.DIHEDRAL.0>
22.9177

>  <SCORE.INTRA.POLAR>
-0.693734

>  <SCORE.INTRA.POLAR.0>
-0.311208

>  <SCORE.INTRA.REPUL>
0

>  <SCORE.INTRA.REPUL.0>
0

>  <SCORE.INTRA.SOLV>
-2.84162

>  <SCORE.INTRA.SOLV.lig_0>
-132.657

>  <SCORE.INTRA.VDW>
2.35646

>  <SCORE.INTRA.VDW.0>
-4.68867

>  <SCORE.INTRA.norm>
-0.173278

>  <SCORE.RESTR>
0

>  <SCORE.RESTR.CAVITY>
0

>  <SCORE.RESTR.norm>
0

>  <SCORE.SYSTEM>
0

>  <SCORE.SYSTEM.CONST>
0

>  <SCORE.SYSTEM.DIHEDRAL>
0

>  <SCORE.SYSTEM.SOLV>
0

>  <SCORE.SYSTEM.norm>
0

>  <SCORE.heavy>
32

>  <SCORE.norm>
-1.61842

>  <RMSD>
3.557

$$$$
1tob
 OpenBabel11021811413D
libRbt.so/2013.1/901 2013/11/27
 32 34  0  0  0  0  0  0  0  0999 V2000
   -2.3452    4.6515    3.1298 C   0  0  2  0  0  0  0  0  0  0  0  0
   -2.1000    3.3574    2.3575 C   0  0  1  0  0  0  0  0  0  0  0  0
   -2.0613    2.1824    3.3251 C   0  0  2  0  0  0  0  0  0  0  0  0
   -1.0098    2.4439    4.3968 C   0  0  1  0  0  0  0  0  0  0  0  0
   -1.2984    3.7709    5.0933 C   0  0  1  0  0  0  0  0  0  0  0  0
   -0.2411    4.1256    6.1203 C   0  0  0  0  0  0  0  0  0  0  0  0
   -3.1381    3.1618    1.4080 O   0  0  0  0  0  0  0  0  0  0  0  0
   -1.8177    0.9105    2.6107 N   0  3  0  0  0  0  0  0  0  0  0  0
   -1.0144    1.3840    5.3436 O   0  0  0  0  0  0  0  0  0  0  0  0
   -1.3311    4.8413    4.1246 O   0  0  0  0  0  0  0  0  0  0  0  0
   -0.4109    3.3812    7.3182 O   0  0  0  0  0  0  0  0  0  0  0  0
   -3.3859    6.9390    4.3700 C   0  0  2  0  0  0  0  0  0  0  0  0
   -4.1449    8.2584    4.4027 C   0  0  0  0  0  0  0  0  0  0  0  0
   -4.6029    8.6465    2.9966 C   0  0  1  0  0  0  0  0  0  0  0  0
   -5.5118    7.5568    2.4325 C   0  0  2  0  0  0  0  0  0  0  0  0
   -4.7679    6.2208    2.3995 C   0  0  1  0  0  0  0  0  0  0  0  0
   -4.2867    5.8527    3.8026 C   0  0  1  0  0  0  0  0  0  0  0  0
   -2.9686    6.5418    5.7325 N   0  3  0  0  0  0  0  0  0  0  0  0
   -5.2671    9.9753    3.0302 N   0  3  0  0  0  0  0  0  0  0  0  0
   -5.6259    5.2037    1.9002 O   0  0  0  0  0  0  0  0  0  0  0  0
   -3.5735    4.6034    3.7622 O   0  0  0  0  0  0  0  0  0  0  0  0
   -6.8859    7.0653    0.5262 C   0  0  1  0  0  0  0  0  0  0  0  0
   -7.1056    7.4413   -0.9402 C   0  0  1  0  0  0  0  0  0  0  0  0
   -7.6798    8.8462   -1.0441 C   0  0  0  0  0  0  0  0  0  0  0  0
   -8.9500    8.9309   -0.2136 C   0  0  1  0  0  0  0  0  0  0  0  0
   -8.6524    8.5203    1.2280 C   0  0  1  0  0  0  0  0  0  0  0  0
   -9.8913    8.5247    2.1051 C   0  0  0  0  0  0  0  0  0  0  0  0
   -5.8556    7.2930   -1.7225 N   0  3  0  0  0  0  0  0  0  0  0  0
  -10.9574    7.6611    1.5435 N   0  3  0  0  0  0  0  0  0  0  0  0
   -5.9470    7.9098    1.1034 O   0  0  0  0  0  0  0  0  0  0  0  0
   -9.4624   10.2550   -0.2444 O   0  0  0  0  0  0  0  0  0  0  0  0
   -8.1097    7.1825    1.2622 O   0  0  0  0  0  0  0  0  0  0  0  0
  1  2  1  0  0  0  0
  1 10  1  0  0  0  0
  1 21  1  1  0  0  0
  2  3  1  0  0  0  0
  2  7  1  6  0  0  0
  3  4  1  0  0  0  0
  3  8  1  6  0  0  0
  4  5  1  0  0  0  0
  4  9  1  1  0  0  0
  5  6  1  1  0  0  0
  5 10  1  0  0  0  0
  6 11  1  0  0  0  0
 12 13  1  0  0  0  0
 12 17  1  0  0  0  0
 12 18  1  1  0  0  0
 13 14  1  0  0  0  0
 14 15  1  0  0  0  0
 14 19  1  1  0  0  0
 15 16  1  0  0  0  0
 15 30  1  6  0  0  0
 16 17  1  0  0  0  0
 16 20  1  1  0  0  0
 17 21  1  6  0  0  0
 22 23  1  0  0  0  0
 22 30  1  1  0  0  0
 22 32  1  0  0  0  0
 23 24  1  0  0  0  0
 23 28  1  6  0  0  0
 24 25  1  0  0  0  0
 25 26  1  0  0  0  0
 25 31  1  1  0  0  0
 26 27  1  1  0  0  0
 26 32  1  0  0  0  0
 27 29  1  0  0  0  0
M  CHG  5   8   1  18   1  19   1  28   1  29   1
M  END
>  <CHROM.1>
-143.50024526,-177.97245838,164.45335772,73.12739854,-77.43660869,-60.66010351
172.81022903,-79.45631901,-173.88083821,-63.42410419,-52.19061789,-172.01321763
-67.34741465,62.74337168,55.84037082,-67.89107268,-4.70683168,6.01973781
2.61921231,0.12151570,0.76814585,-2.40547781

>  <Name>
1tob

>  <RI>
0

>  <Rbt.Current_Directory>
/home/itssahil/PROJECTS/Mol_Feturizer/New_Systems/rnas/1tob

>  <Rbt.Executable>
rbdock ($Id: //depot/dev/client3/rdock/2013.1/src/exe/rbdock.cxx#4 $)

>  <Rbt.Library>
libRbt.so (2013.1, Build901 2013/11/27)

>  <Rbt.Parameter_File>
/export/apps/rDock/src/rDock_2013.1_src/data/scripts/dock_solv.prm

>  <Rbt.Receptor>
prm/pocket_docking_4.prm

>  <SCORE>
-55.208

>  <SCORE.INTER>
-52.0168

>  <SCORE.INTER.CONST>
1

>  <SCORE.INTER.POLAR>
-8.68346

>  <SCORE.INTER.ROT>
6

>  <SCORE.INTER.SOLV>
25.4758

>  <SCORE.INTER.VDW>
-21.8249

>  <SCORE.INTER.norm>
-1.62552

>  <SCORE.INTRA>
-3.22092

>  <SCORE.INTRA.DIHEDRAL>
-13.3717

>  <SCORE.INTRA.DIHEDRAL.0>
22.9177

>  <SCORE.INTRA.POLAR>
0.220278

>  <SCORE.INTRA.POLAR.0>
-0.311208

>  <SCORE.INTRA.REPUL>
0

>  <SCORE.INTRA.REPUL.0>
0

>  <SCORE.INTRA.SOLV>
-1.71039

>  <SCORE.INTRA.SOLV.lig_0>
-132.657

>  <SCORE.INTRA.VDW>
3.5712

>  <SCORE.INTRA.VDW.0>
-4.68867

>  <SCORE.INTRA.norm>
-0.100654

>  <SCORE.RESTR>
0.029757

>  <SCORE.RESTR.CAVITY>
0.029757

>  <SCORE.RESTR.norm>
0.000929906

>  <SCORE.SYSTEM>
0

>  <SCORE.SYSTEM.CONST>
0

>  <SCORE.SYSTEM.DIHEDRAL>
0

>  <SCORE.SYSTEM.SOLV>
0

>  <SCORE.SYSTEM.norm>
0

>  <SCORE.heavy>
32

>  <SCORE.norm>
-1.72525

>  <RMSD>
3.581

$$$$
1tob
 OpenBabel11021811413D
libRbt.so/2013.1/901 2013/11/27
 32 34  0  0  0  0  0  0  0  0999 V2000
   -0.1698    4.1501    4.2515 C   0  0  2  0  0  0  0  0  0  0  0  0
    1.0600    3.3095    3.9166 C   0  0  1  0  0  0  0  0  0  0  0  0
    1.1807    2.1599    4.9076 C   0  0  2  0  0  0  0  0  0  0  0  0
    1.2084    2.7157    6.3263 C   0  0  1  0  0  0  0  0  0  0  0  0
   -0.0283    3.5761    6.5703 C   0  0  1  0  0  0  0  0  0  0  0  0
   -0.0207    4.2218    7.9420 C   0  0  0  0  0  0  0  0  0  0  0  0
    0.9441    2.7948    2.5978 O   0  0  0  0  0  0  0  0  0  0  0  0
    2.3679    1.3272    4.6171 N   0  3  0  0  0  0  0  0  0  0  0  0
    1.2516    1.6460    7.2611 O   0  0  0  0  0  0  0  0  0  0  0  0
   -0.0910    4.6401    5.5961 O   0  0  0  0  0  0  0  0  0  0  0  0
    0.0384    3.2474    8.9740 O   0  0  0  0  0  0  0  0  0  0  0  0
   -2.9768    2.5114    2.6037 C   0  0  2  0  0  0  0  0  0  0  0  0
   -3.8719    2.8805    1.4286 C   0  0  0  0  0  0  0  0  0  0  0  0
   -4.8063    4.0293    1.8088 C   0  0  1  0  0  0  0  0  0  0  0  0
   -3.9828    5.2488    2.2169 C   0  0  2  0  0  0  0  0  0  0  0  0
   -3.0707    4.8942    3.3923 C   0  0  1  0  0  0  0  0  0  0  0  0
   -2.1597    3.7260    3.0165 C   0  0  1  0  0  0  0  0  0  0  0  0
   -2.0475    1.4223    2.2313 N   0  3  0  0  0  0  0  0  0  0  0  0
   -5.7309    4.3224    0.6830 N   0  3  0  0  0  0  0  0  0  0  0  0
   -2.2859    6.0235    3.7510 O   0  0  0  0  0  0  0  0  0  0  0  0
   -1.3158    3.3865    4.1316 O   0  0  0  0  0  0  0  0  0  0  0  0
   -4.2700    7.5976    2.6227 C   0  0  1  0  0  0  0  0  0  0  0  0
   -5.1172    8.5475    3.4711 C   0  0  1  0  0  0  0  0  0  0  0  0
   -6.4883    8.7375    2.8400 C   0  0  0  0  0  0  0  0  0  0  0  0
   -6.3183    9.2143    1.4068 C   0  0  1  0  0  0  0  0  0  0  0  0
   -5.4451    8.2262    0.6343 C   0  0  1  0  0  0  0  0  0  0  0  0
   -5.1833    8.6694   -0.7937 C   0  0  0  0  0  0  0  0  0  0  0  0
   -5.2115    8.0723    4.8717 N   0  3  0  0  0  0  0  0  0  0  0  0
   -5.3906    7.5589   -1.7536 N   0  3  0  0  0  0  0  0  0  0  0  0
   -4.8542    6.3386    2.5824 O   0  0  0  0  0  0  0  0  0  0  0  0
   -7.5876    9.3314    0.7807 O   0  0  0  0  0  0  0  0  0  0  0  0
   -4.1611    8.0867    1.2803 O   0  0  0  0  0  0  0  0  0  0  0  0
  1  2  1  0  0  0  0
  1 10  1  0  0  0  0
  1 21  1  1  0  0  0
  2  3  1  0  0  0  0
  2  7  1  6  0  0  0
  3  4  1  0  0  0  0
  3  8  1  6  0  0  0
  4  5  1  0  0  0  0
  4  9  1  1  0  0  0
  5  6  1  1  0  0  0
  5 10  1  0  0  0  0
  6 11  1  0  0  0  0
 12 13  1  0  0  0  0
 12 17  1  0  0  0  0
 12 18  1  6  0  0  0
 13 14  1  0  0  0  0
 14 15  1  0  0  0  0
 14 19  1  6  0  0  0
 15 16  1  0  0  0  0
 15 30  1  1  0  0  0
 16 17  1  0  0  0  0
 16 20  1  6  0  0  0
 17 21  1  1  0  0  0
 22 23  1  0  0  0  0
 22 30  1  6  0  0  0
 22 32  1  0  0  0  0
 23 24  1  0  0  0  0
 23 28  1  1  0  0  0
 24 25  1  0  0  0  0
 25 26  1  0  0  0  0
 25 31  1  6  0  0  0
 26 27  1  6  0  0  0
 26 32  1  0  0  0  0
 27 29  1  0  0  0  0
M  CHG  5   8   1  18   1  19   1  28   1  29   1
M  END
>  <CHROM.1>
-109.67627640,61.07580831,61.38301287,65.63779769,-59.00411078,-176.12685550
167.15049561,65.15471803,-163.17434047,-60.41423175,154.11193645,-160.03885923
14.60628042,-58.31260291,-133.45500511,-52.60360594,-2.62463772,5.05669903
3.31912528,-0.12317489,0.82451275,-2.13214901

>  <Name>
1tob

>  <RI>
0

>  <Rbt.Current_Directory>
/home/itssahil/PROJECTS/Mol_Feturizer/New_Systems/rnas/1tob

>  <Rbt.Executable>
rbdock ($Id: //depot/dev/client3/rdock/2013.1/src/exe/rbdock.cxx#4 $)

>  <Rbt.Library>
libRbt.so (2013.1, Build901 2013/11/27)

>  <Rbt.Parameter_File>
/export/apps/rDock/src/rDock_2013.1_src/data/scripts/dock_solv.prm

>  <Rbt.Receptor>
prm/pocket_docking_7.prm

>  <SCORE>
-39.4427

>  <SCORE.INTER>
-38.9774

>  <SCORE.INTER.CONST>
1

>  <SCORE.INTER.POLAR>
-5.46619

>  <SCORE.INTER.ROT>
6

>  <SCORE.INTER.SOLV>
21.6294

>  <SCORE.INTER.VDW>
-22.5741

>  <SCORE.INTER.norm>
-1.21804

>  <SCORE.INTRA>
-0.465284

>  <SCORE.INTRA.DIHEDRAL>
-1.72074

>  <SCORE.INTRA.DIHEDRAL.0>
22.9177

>  <SCORE.INTRA.POLAR>
0.258177

>  <SCORE.INTRA.POLAR.0>
-0.311208

>  <SCORE.INTRA.REPUL>
0.057292

>  <SCORE.INTRA.REPUL.0>
0

>  <SCORE.INTRA.SOLV>
-2.99263

>  <SCORE.INTRA.SOLV.lig_0>
-132.657

>  <SCORE.INTRA.VDW>
0.727142

>  <SCORE.INTRA.VDW.0>
-4.68867

>  <SCORE.INTRA.norm>
-0.0145401

>  <SCORE.RESTR>
0

>  <SCORE.RESTR.CAVITY>
0

>  <SCORE.RESTR.norm>
0

>  <SCORE.SYSTEM>
0

>  <SCORE.SYSTEM.CONST>
0

>  <SCORE.SYSTEM.DIHEDRAL>
0

>  <SCORE.SYSTEM.SOLV>
0

>  <SCORE.SYSTEM.norm>
0

>  <SCORE.heavy>
32

>  <SCORE.norm>
-1.23258

>  <RMSD>
3.590

$$$$
1tob
 OpenBabel11021811413D
libRbt.so/2013.1/901 2013/11/27
 32 34  0  0  0  0  0  0  0  0999 V2000
   -2.8626    4.4246    3.4234 C   0  0  2  0  0  0  0  0  0  0  0  0
   -2.1425    4.8481    4.7014 C   0  0  1  0  0  0  0  0  0  0  0  0
   -0.7360    4.2650    4.7148 C   0  0  2  0  0  0  0  0  0  0  0  0
   -0.8141    2.7520    4.5495 C   0  0  1  0  0  0  0  0  0  0  0  0
   -1.5818    2.4086    3.2759 C   0  0  1  0  0  0  0  0  0  0  0  0
   -1.7604    0.9140    3.0949 C   0  0  0  0  0  0  0  0  0  0  0  0
   -2.0739    6.2654    4.7658 O   0  0  0  0  0  0  0  0  0  0  0  0
   -0.0104    4.6497    5.9448 N   0  3  0  0  0  0  0  0  0  0  0  0
    0.4970    2.2064    4.4918 O   0  0  0  0  0  0  0  0  0  0  0  0
   -2.9003    2.9957    3.3195 O   0  0  0  0  0  0  0  0  0  0  0  0
   -2.1478    0.5948    1.7660 O   0  0  0  0  0  0  0  0  0  0  0  0
   -4.3979    5.0743    1.3070 C   0  0  2  0  0  0  0  0  0  0  0  0
   -5.2566    5.9080    0.3658 C   0  0  0  0  0  0  0  0  0  0  0  0
   -5.3829    7.3403    0.8853 C   0  0  1  0  0  0  0  0  0  0  0  0
   -3.9970    7.9720    0.9947 C   0  0  2  0  0  0  0  0  0  0  0  0
   -3.1169    7.1426    1.9310 C   0  0  1  0  0  0  0  0  0  0  0  0
   -3.0185    5.7046    1.4229 C   0  0  1  0  0  0  0  0  0  0  0  0
   -4.2449    3.6958    0.7923 N   0  3  0  0  0  0  0  0  0  0  0  0
   -6.2913    8.1192    0.0043 N   0  3  0  0  0  0  0  0  0  0  0  0
   -1.8196    7.7179    2.0083 O   0  0  0  0  0  0  0  0  0  0  0  0
   -2.2030    4.9255    2.3167 O   0  0  0  0  0  0  0  0  0  0  0  0
   -3.1567   10.2209    1.0127 C   0  0  1  0  0  0  0  0  0  0  0  0
   -2.7639   11.2088    2.1125 C   0  0  1  0  0  0  0  0  0  0  0  0
   -3.9671   12.0424    2.5269 C   0  0  0  0  0  0  0  0  0  0  0  0
   -4.5515   12.7229    1.2998 C   0  0  1  0  0  0  0  0  0  0  0  0
   -4.8962   11.6741    0.2430 C   0  0  1  0  0  0  0  0  0  0  0  0
   -5.4323   12.2881   -1.0374 C   0  0  0  0  0  0  0  0  0  0  0  0
   -2.1503   10.5081    3.2653 N   0  3  0  0  0  0  0  0  0  0  0  0
   -5.6027   11.2677   -2.0993 N   0  3  0  0  0  0  0  0  0  0  0  0
   -4.1030    9.3231    1.4885 O   0  0  0  0  0  0  0  0  0  0  0  0
   -5.7170   13.4512    1.6578 O   0  0  0  0  0  0  0  0  0  0  0  0
   -3.7184   10.9156   -0.1076 O   0  0  0  0  0  0  0  0  0  0  0  0
  1  2  1  0  0  0  0
  1 10  1  0  0  0  0
  1 21  1  6  0  0  0
  2  3  1  0  0  0  0
  2  7  1  6  0  0  0
  3  4  1  0  0  0  0
  3  8  1  1  0  0  0
  4  5  1  0  0  0  0
  4  9  1  6  0  0  0
  5  6  1  1  0  0  0
  5 10  1  0  0  0  0
  6 11  1  0  0  0  0
 12 13  1  0  0  0  0
 12 17  1  0  0  0  0
 12 18  1  6  0  0  0
 13 14  1  0  0  0  0
 14 15  1  0  0  0  0
 14 19  1  6  0  0  0
 15 16  1  0  0  0  0
 15 30  1  1  0  0  0
 16 17  1  0  0  0  0
 16 20  1  6  0  0  0
 17 21  1  1  0  0  0
 22 23  1  0  0  0  0
 22 30  1  1  0  0  0
 22 32  1  0  0  0  0
 23 24  1  0  0  0  0
 23 28  1  1  0  0  0
 24 25  1  0  0  0  0
 25 26  1  0  0  0  0
 25 31  1  1  0  0  0
 26 27  1  6  0  0  0
 26 32  1  0  0  0  0
 27 29  1  0  0  0  0
M  CHG  5   8   1  18   1  19   1  28   1  29   1
M  END
>  <CHROM.1>
-125.27121728,174.18206251,-155.64723623,65.70460978,-164.45441890,54.87473314
-70.49429907,68.22202389,-147.33796608,175.90357630,-38.84786487,-143.80093615
25.40241668,65.80519041,173.09929024,-40.94767764,-3.17954355,7.03725363
2.08188820,1.02906132,0.87593046,-3.05226166

>  <Name>
1tob

>  <RI>
0

>  <Rbt.Current_Directory>
/home/itssahil/PROJECTS/Mol_Feturizer/New_Systems/rnas/1tob

>  <Rbt.Executable>
rbdock ($Id: //depot/dev/client3/rdock/2013.1/src/exe/rbdock.cxx#4 $)

>  <Rbt.Library>
libRbt.so (2013.1, Build901 2013/11/27)

>  <Rbt.Parameter_File>
/export/apps/rDock/src/rDock_2013.1_src/data/scripts/dock_solv.prm

>  <Rbt.Receptor>
prm/pocket_docking_7.prm

>  <SCORE>
-33.1782

>  <SCORE.INTER>
-31.2538

>  <SCORE.INTER.CONST>
1

>  <SCORE.INTER.POLAR>
-5.00562

>  <SCORE.INTER.ROT>
6

>  <SCORE.INTER.SOLV>
21.1026

>  <SCORE.INTER.VDW>
-18.7847

>  <SCORE.INTER.norm>
-0.976683

>  <SCORE.INTRA>
-1.92439

>  <SCORE.INTRA.DIHEDRAL>
1.4077

>  <SCORE.INTRA.DIHEDRAL.0>
22.9177

>  <SCORE.INTRA.POLAR>
-1.72594

>  <SCORE.INTRA.POLAR.0>
-0.311208

>  <SCORE.INTRA.REPUL>
0

>  <SCORE.INTRA.REPUL.0>
0

>  <SCORE.INTRA.SOLV>
1.57339

>  <SCORE.INTRA.SOLV.lig_0>
-132.657

>  <SCORE.INTRA.VDW>
2.45324

>  <SCORE.INTRA.VDW.0>
-4.68867

>  <SCORE.INTRA.norm>
-0.0601372

>  <SCORE.RESTR>
0

>  <SCORE.RESTR.CAVITY>
0

>  <SCORE.RESTR.norm>
0

>  <SCORE.SYSTEM>
0

>  <SCORE.SYSTEM.CONST>
0

>  <SCORE.SYSTEM.DIHEDRAL>
0

>  <SCORE.SYSTEM.SOLV>
0

>  <SCORE.SYSTEM.norm>
0

>  <SCORE.heavy>
32

>  <SCORE.norm>
-1.03682

>  <RMSD>
3.594

$$$$
1tob
 OpenBabel11021811413D
libRbt.so/2013.1/901 2013/11/27
 32 34  0  0  0  0  0  0  0  0999 V2000
   -2.8159    6.2651    2.4746 C   0  0  2  0  0  0  0  0  0  0  0  0
   -1.5729    5.5667    3.0207 C   0  0  1  0  0  0  0  0  0  0  0  0
   -1.8588    5.0277    4.4157 C   0  0  2  0  0  0  0  0  0  0  0  0
   -2.3428    6.1645    5.3079 C   0  0  1  0  0  0  0  0  0  0  0  0
   -3.5581    6.8379    4.6763 C   0  0  1  0  0  0  0  0  0  0  0  0
   -4.0409    8.0290    5.4804 C   0  0  0  0  0  0  0  0  0  0  0  0
   -1.2067    4.4977    2.1601 O   0  0  0  0  0  0  0  0  0  0  0  0
   -0.6715    4.3498    4.9797 N   0  3  0  0  0  0  0  0  0  0  0  0
   -2.6777    5.6580    6.5929 O   0  0  0  0  0  0  0  0  0  0  0  0
   -3.2268    7.3183    3.3555 O   0  0  0  0  0  0  0  0  0  0  0  0
   -5.1676    7.6942    6.2782 O   0  0  0  0  0  0  0  0  0  0  0  0
   -5.3258    4.1236    0.8862 C   0  0  2  0  0  0  0  0  0  0  0  0
   -6.1005    4.2073   -0.4218 C   0  0  0  0  0  0  0  0  0  0  0  0
   -7.0970    5.3660   -0.3795 C   0  0  1  0  0  0  0  0  0  0  0  0
   -6.3506    6.6785   -0.1517 C   0  0  2  0  0  0  0  0  0  0  0  0
   -5.5593    6.6098    1.1554 C   0  0  1  0  0  0  0  0  0  0  0  0
   -4.5861    5.4320    1.1191 C   0  0  1  0  0  0  0  0  0  0  0  0
   -4.3367    3.0246    0.8388 N   0  3  0  0  0  0  0  0  0  0  0  0
   -7.9045    5.3839   -1.6268 N   0  3  0  0  0  0  0  0  0  0  0  0
   -4.8439    7.8224    1.3499 O   0  0  0  0  0  0  0  0  0  0  0  0
   -3.8567    5.3629    2.3577 O   0  0  0  0  0  0  0  0  0  0  0  0
   -6.7417    9.0418   -0.3122 C   0  0  1  0  0  0  0  0  0  0  0  0
   -7.4086   10.0610    0.6133 C   0  0  1  0  0  0  0  0  0  0  0  0
   -8.8906   10.1764    0.2898 C   0  0  0  0  0  0  0  0  0  0  0  0
   -9.0571   10.5146   -1.1827 C   0  0  1  0  0  0  0  0  0  0  0  0
   -8.3468    9.4651   -2.0368 C   0  0  1  0  0  0  0  0  0  0  0  0
   -8.4216    9.7712   -3.5217 C   0  0  0  0  0  0  0  0  0  0  0  0
   -7.1756    9.7219    2.0370 N   0  3  0  0  0  0  0  0  0  0  0  0
   -7.5472   10.9116   -3.8858 N   0  3  0  0  0  0  0  0  0  0  0  0
   -7.2815    7.7793   -0.1053 O   0  0  0  0  0  0  0  0  0  0  0  0
  -10.4365   10.5590   -1.5173 O   0  0  0  0  0  0  0  0  0  0  0  0
   -6.9480    9.4005   -1.6841 O   0  0  0  0  0  0  0  0  0  0  0  0
  1  2  1  0  0  0  0
  1 10  1  0  0  0  0
  1 21  1  1  0  0  0
  2  3  1  0  0  0  0
  2  7  1  6  0  0  0
  3  4  1  0  0  0  0
  3  8  1  1  0  0  0
  4  5  1  0  0  0  0
  4  9  1  1  0  0  0
  5  6  1  1  0  0  0
  5 10  1  0  0  0  0
  6 11  1  0  0  0  0
 12 13  1  0  0  0  0
 12 17  1  0  0  0  0
 12 18  1  6  0  0  0
 13 14  1  0  0  0  0
 14 15  1  0  0  0  0
 14 19  1  6  0  0  0
 15 16  1  0  0  0  0
 15 30  1  1  0  0  0
 16 17  1  0  0  0  0
 16 20  1  6  0  0  0
 17 21  1  1  0  0  0
 22 23  1  0  0  0  0
 22 30  1  6  0  0  0
 22 32  1  0  0  0  0
 23 24  1  0  0  0  0
 23 28  1  1  0  0  0
 24 25  1  0  0  0  0
 25 26  1  0  0  0  0
 25 31  1  6  0  0  0
 26 27  1  6  0  0  0
 26 32  1  0  0  0  0
 27 29  1  0  0  0  0
M  CHG  5   8   1  18   1  19   1  28   1  29   1
M  END
>  <CHROM.1>
-134.54679063,66.21587163,-42.98969208,73.66711601,-100.44907147,-59.09936987
-58.80442452,-19.45428600,-161.07709712,-54.21601198,159.30056378,-141.24246960
-86.45561746,-178.66595461,72.50758158,65.29207730,-5.40315037,7.14922542
1.34080905,-0.18418188,0.87868771,-2.30847292

>  <Name>
1tob

>  <RI>
0

>  <Rbt.Current_Directory>
/home/itssahil/PROJECTS/Mol_Feturizer/New_Systems/rnas/1tob

>  <Rbt.Executable>
rbdock ($Id: //depot/dev/client3/rdock/2013.1/src/exe/rbdock.cxx#4 $)

>  <Rbt.Library>
libRbt.so (2013.1, Build901 2013/11/27)

>  <Rbt.Parameter_File>
/export/apps/rDock/src/rDock_2013.1_src/data/scripts/dock_solv.prm

>  <Rbt.Receptor>
prm/pocket_docking_7.prm

>  <SCORE>
-27.9198

>  <SCORE.INTER>
-26.1119

>  <SCORE.INTER.CONST>
1

>  <SCORE.INTER.POLAR>
-4.12542

>  <SCORE.INTER.ROT>
6

>  <SCORE.INTER.SOLV>
22.1273

>  <SCORE.INTER.VDW>
-18.6323

>  <SCORE.INTER.norm>
-0.815997

>  <SCORE.INTRA>
-1.80789

>  <SCORE.INTRA.DIHEDRAL>
2.8432

>  <SCORE.INTRA.DIHEDRAL.0>
22.9177

>  <SCORE.INTRA.POLAR>
-0.839933

>  <SCORE.INTRA.POLAR.0>
-0.311208

>  <SCORE.INTRA.REPUL>
0

>  <SCORE.INTRA.REPUL.0>
0

>  <SCORE.INTRA.SOLV>
-2.7026

>  <SCORE.INTRA.SOLV.lig_0>
-132.657

>  <SCORE.INTRA.VDW>
0.977581

>  <SCORE.INTRA.VDW.0>
-4.68867

>  <SCORE.INTRA.norm>
-0.0564967

>  <SCORE.RESTR>
0

>  <SCORE.RESTR.CAVITY>
0

>  <SCORE.RESTR.norm>
0

>  <SCORE.SYSTEM>
0

>  <SCORE.SYSTEM.CONST>
0

>  <SCORE.SYSTEM.DIHEDRAL>
0

>  <SCORE.SYSTEM.SOLV>
0

>  <SCORE.SYSTEM.norm>
0

>  <SCORE.heavy>
32

>  <SCORE.norm>
-0.872494

>  <RMSD>
3.596

$$$$
1tob
 OpenBabel11021811413D
libRbt.so/2013.1/901 2013/11/27
 32 34  0  0  0  0  0  0  0  0999 V2000
   -2.2714    4.4970    3.1722 C   0  0  2  0  0  0  0  0  0  0  0  0
   -2.0751    3.3502    2.1836 C   0  0  1  0  0  0  0  0  0  0  0  0
   -2.1133    2.0212    2.9257 C   0  0  2  0  0  0  0  0  0  0  0  0
   -1.0714    2.0328    4.0379 C   0  0  1  0  0  0  0  0  0  0  0  0
   -1.3080    3.2276    4.9574 C   0  0  1  0  0  0  0  0  0  0  0  0
   -0.2549    3.3384    6.0424 C   0  0  0  0  0  0  0  0  0  0  0  0
   -3.1027    3.3810    1.2035 O   0  0  0  0  0  0  0  0  0  0  0  0
   -1.9184    0.8860    1.9979 N   0  3  0  0  0  0  0  0  0  0  0  0
   -1.1467    0.8229    4.7798 O   0  0  0  0  0  0  0  0  0  0  0  0
   -1.2690    4.4537    4.1956 O   0  0  0  0  0  0  0  0  0  0  0  0
   -0.6878    4.1800    7.1018 O   0  0  0  0  0  0  0  0  0  0  0  0
   -3.3744    6.7386    4.3854 C   0  0  2  0  0  0  0  0  0  0  0  0
   -4.1668    8.0376    4.4377 C   0  0  0  0  0  0  0  0  0  0  0  0
   -4.6622    8.4180    3.0423 C   0  0  1  0  0  0  0  0  0  0  0  0
   -5.5533    7.3066    2.4920 C   0  0  2  0  0  0  0  0  0  0  0  0
   -4.7755    5.9907    2.4397 C   0  0  1  0  0  0  0  0  0  0  0  0
   -4.2574    5.6309    3.8318 C   0  0  1  0  0  0  0  0  0  0  0  0
   -2.9203    6.3481    5.7381 N   0  3  0  0  0  0  0  0  0  0  0  0
   -5.3601    9.7289    3.0937 N   0  3  0  0  0  0  0  0  0  0  0  0
   -5.6163    4.9531    1.9534 O   0  0  0  0  0  0  0  0  0  0  0  0
   -3.5128    4.4009    3.7728 O   0  0  0  0  0  0  0  0  0  0  0  0
   -7.0251    8.6123    1.1163 C   0  0  1  0  0  0  0  0  0  0  0  0
   -8.3216    7.9945    0.5897 C   0  0  1  0  0  0  0  0  0  0  0  0
   -8.1289    7.4995   -0.8358 C   0  0  0  0  0  0  0  0  0  0  0  0
   -7.6239    8.6438   -1.6994 C   0  0  1  0  0  0  0  0  0  0  0  0
   -6.3429    9.2191   -1.0965 C   0  0  1  0  0  0  0  0  0  0  0  0
   -5.8116   10.4078   -1.8768 C   0  0  0  0  0  0  0  0  0  0  0  0
   -8.8054    6.9210    1.4897 N   0  3  0  0  0  0  0  0  0  0  0  0
   -6.7472   11.5564   -1.8206 N   0  3  0  0  0  0  0  0  0  0  0  0
   -6.0235    7.6523    1.1730 O   0  0  0  0  0  0  0  0  0  0  0  0
   -7.3735    8.1820   -3.0189 O   0  0  0  0  0  0  0  0  0  0  0  0
   -6.5873    9.6694    0.2537 O   0  0  0  0  0  0  0  0  0  0  0  0
  1  2  1  0  0  0  0
  1 10  1  0  0  0  0
  1 21  1  1  0  0  0
  2  3  1  0  0  0  0
  2  7  1  6  0  0  0
  3  4  1  0  0  0  0
  3  8  1  6  0  0  0
  4  5  1  0  0  0  0
  4  9  1  1  0  0  0
  5  6  1  1  0  0  0
  5 10  1  0  0  0  0
  6 11  1  0  0  0  0
 12 13  1  0  0  0  0
 12 17  1  0  0  0  0
 12 18  1  1  0  0  0
 13 14  1  0  0  0  0
 14 15  1  0  0  0  0
 14 19  1  1  0  0  0
 15 16  1  0  0  0  0
 15 30  1  6  0  0  0
 16 17  1  0  0  0  0
 16 20  1  1  0  0  0
 17 21  1  6  0  0  0
 22 23  1  0  0  0  0
 22 30  1  6  0  0  0
 22 32  1  0  0  0  0
 23 24  1  0  0  0  0
 23 28  1  1  0  0  0
 24 25  1  0  0  0  0
 25 26  1  0  0  0  0
 25 31  1  6  0  0  0
 26 27  1  6  0  0  0
 26 32  1  0  0  0  0
 27 29  1  0  0  0  0
M  CHG  5   8   1  18   1  19   1  28   1  29   1
M  END
>  <CHROM.1>
-133.84782750,178.36537527,72.89980090,176.72886907,-162.58269008,71.85613885
175.44745363,49.24093572,-74.96147585,171.73646651,-49.29235761,-113.97071438
71.26469123,-54.22368911,64.95222710,-53.76858026,-4.38073766,6.10551409
2.25467429,0.16094559,0.95220326,-2.46027587

>  <Name>
1tob

>  <RI>
0

>  <Rbt.Current_Directory>
/home/itssahil/PROJECTS/Mol_Feturizer/New_Systems/rnas/1tob

>  <Rbt.Executable>
rbdock ($Id: //depot/dev/client3/rdock/2013.1/src/exe/rbdock.cxx#4 $)

>  <Rbt.Library>
libRbt.so (2013.1, Build901 2013/11/27)

>  <Rbt.Parameter_File>
/export/apps/rDock/src/rDock_2013.1_src/data/scripts/dock_solv.prm

>  <Rbt.Receptor>
prm/pocket_docking_8.prm

>  <SCORE>
-48.862

>  <SCORE.INTER>
-44.1432

>  <SCORE.INTER.CONST>
1

>  <SCORE.INTER.POLAR>
-7.16592

>  <SCORE.INTER.ROT>
6

>  <SCORE.INTER.SOLV>
24.8128

>  <SCORE.INTER.VDW>
-21.4133

>  <SCORE.INTER.norm>
-1.37947

>  <SCORE.INTRA>
-4.71877

>  <SCORE.INTRA.DIHEDRAL>
-4.54012

>  <SCORE.INTRA.DIHEDRAL.0>
22.9177

>  <SCORE.INTRA.POLAR>
-1.80066

>  <SCORE.INTRA.POLAR.0>
-0.311208

>  <SCORE.INTRA.REPUL>
0

>  <SCORE.INTRA.REPUL.0>
0

>  <SCORE.INTRA.SOLV>
0.996649

>  <SCORE.INTRA.SOLV.lig_0>
-132.657

>  <SCORE.INTRA.VDW>
3.17521

>  <SCORE.INTRA.VDW.0>
-4.68867

>  <SCORE.INTRA.norm>
-0.147462

>  <SCORE.RESTR>
0

>  <SCORE.RESTR.CAVITY>
0

>  <SCORE.RESTR.norm>
0

>  <SCORE.SYSTEM>
0

>  <SCORE.SYSTEM.CONST>
0

>  <SCORE.SYSTEM.DIHEDRAL>
0

>  <SCORE.SYSTEM.SOLV>
0

>  <SCORE.SYSTEM.norm>
0

>  <SCORE.heavy>
32

>  <SCORE.norm>
-1.52694

>  <RMSD>
3.608

$$$$
1tob
 OpenBabel11021811413D
libRbt.so/2013.1/901 2013/11/27
 32 34  0  0  0  0  0  0  0  0999 V2000
   -2.2865    4.4883    3.0068 C   0  0  2  0  0  0  0  0  0  0  0  0
   -2.2752    3.2881    2.0630 C   0  0  1  0  0  0  0  0  0  0  0  0
   -2.1970    2.0005    2.8718 C   0  0  2  0  0  0  0  0  0  0  0  0
   -0.9783    2.0503    3.7855 C   0  0  1  0  0  0  0  0  0  0  0  0
   -1.0408    3.2956    4.6657 C   0  0  1  0  0  0  0  0  0  0  0  0
    0.1852    3.4428    5.5453 C   0  0  0  0  0  0  0  0  0  0  0  0
   -3.4566    3.2872    1.2744 O   0  0  0  0  0  0  0  0  0  0  0  0
   -2.1765    0.8151    1.9876 N   0  3  0  0  0  0  0  0  0  0  0  0
   -0.9356    0.8822    4.5941 O   0  0  0  0  0  0  0  0  0  0  0  0
   -1.1225    4.4794    3.8428 O   0  0  0  0  0  0  0  0  0  0  0  0
    0.2390    2.4252    6.5351 O   0  0  0  0  0  0  0  0  0  0  0  0
   -3.3209    6.7950    4.3982 C   0  0  2  0  0  0  0  0  0  0  0  0
   -4.1403    8.0779    4.4267 C   0  0  0  0  0  0  0  0  0  0  0  0
   -4.6323    8.4290    3.0223 C   0  0  1  0  0  0  0  0  0  0  0  0
   -5.4957    7.2921    2.4804 C   0  0  2  0  0  0  0  0  0  0  0  0
   -4.6905    5.9920    2.4521 C   0  0  1  0  0  0  0  0  0  0  0  0
   -4.1764    5.6618    3.8529 C   0  0  1  0  0  0  0  0  0  0  0  0
   -2.8697    6.4323    5.7596 N   0  3  0  0  0  0  0  0  0  0  0  0
   -5.3575    9.7257    3.0505 N   0  3  0  0  0  0  0  0  0  0  0  0
   -5.5058    4.9307    1.9735 O   0  0  0  0  0  0  0  0  0  0  0  0
   -3.4060    4.4469    3.8166 O   0  0  0  0  0  0  0  0  0  0  0  0
   -6.9490    6.7790    0.6396 C   0  0  1  0  0  0  0  0  0  0  0  0
   -7.2959    7.1910   -0.7922 C   0  0  1  0  0  0  0  0  0  0  0  0
   -7.8758    8.5973   -0.8104 C   0  0  0  0  0  0  0  0  0  0  0  0
   -9.0684    8.6595    0.1300 C   0  0  1  0  0  0  0  0  0  0  0  0
   -8.6459    8.2137    1.5294 C   0  0  1  0  0  0  0  0  0  0  0  0
   -9.8032    8.1946    2.5115 C   0  0  0  0  0  0  0  0  0  0  0  0
   -6.1193    7.0638   -1.6843 N   0  3  0  0  0  0  0  0  0  0  0  0
  -10.9452    7.4064    1.9898 N   0  3  0  0  0  0  0  0  0  0  0  0
   -5.9624    7.6102    1.1532 O   0  0  0  0  0  0  0  0  0  0  0  0
   -9.5804    9.9833    0.1772 O   0  0  0  0  0  0  0  0  0  0  0  0
   -8.1035    6.8762    1.4827 O   0  0  0  0  0  0  0  0  0  0  0  0
  1  2  1  0  0  0  0
  1 10  1  0  0  0  0
  1 21  1  1  0  0  0
  2  3  1  0  0  0  0
  2  7  1  1  0  0  0
  3  4  1  0  0  0  0
  3  8  1  6  0  0  0
  4  5  1  0  0  0  0
  4  9  1  1  0  0  0
  5  6  1  6  0  0  0
  5 10  1  0  0  0  0
  6 11  1  0  0  0  0
 12 13  1  0  0  0  0
 12 17  1  0  0  0  0
 12 18  1  1  0  0  0
 13 14  1  0  0  0  0
 14 15  1  0  0  0  0
 14 19  1  1  0  0  0
 15 16  1  0  0  0  0
 15 30  1  6  0  0  0
 16 17  1  0  0  0  0
 16 20  1  1  0  0  0
 17 21  1  6  0  0  0
 22 23  1  0  0  0  0
 22 30  1  1  0  0  0
 22 32  1  0  0  0  0
 23 24  1  0  0  0  0
 23 28  1  6  0  0  0
 24 25  1  0  0  0  0
 25 26  1  0  0  0  0
 25 31  1  1  0  0  0
 26 27  1  1  0  0  0
 26 32  1  0  0  0  0
 27 29  1  0  0  0  0
M  CHG  5   8   1  18   1  19   1  28   1  29   1
M  END
>  <CHROM.1>
-129.18346779,178.80655795,-6.17675220,-176.96545703,-67.93851853,-66.93681661
172.58822248,44.38292742,-168.75859592,177.98397537,-61.24854265,-177.23945963
44.95114254,57.00793812,52.62470129,173.12200070,-4.69092126,5.74339037,2.55638007
0.19629992,0.71489675,-2.42930127

>  <Name>
1tob

>  <RI>
0

>  <Rbt.Current_Directory>
/home/itssahil/PROJECTS/Mol_Feturizer/New_Systems/rnas/1tob

>  <Rbt.Executable>
rbdock ($Id: //depot/dev/client3/rdock/2013.1/src/exe/rbdock.cxx#4 $)

>  <Rbt.Library>
libRbt.so (2013.1, Build901 2013/11/27)

>  <Rbt.Parameter_File>
/export/apps/rDock/src/rDock_2013.1_src/data/scripts/dock_solv.prm

>  <Rbt.Receptor>
prm/pocket_docking_3.prm

>  <SCORE>
-55.5028

>  <SCORE.INTER>
-50.0506

>  <SCORE.INTER.CONST>
1

>  <SCORE.INTER.POLAR>
-8.11796

>  <SCORE.INTER.ROT>
6

>  <SCORE.INTER.SOLV>
28.4626

>  <SCORE.INTER.VDW>
-23.3948

>  <SCORE.INTER.norm>
-1.56408

>  <SCORE.INTRA>
-6.21044

>  <SCORE.INTRA.DIHEDRAL>
-9.79946

>  <SCORE.INTRA.DIHEDRAL.0>
22.9177

>  <SCORE.INTRA.POLAR>
-0.945464

>  <SCORE.INTRA.POLAR.0>
-0.311208

>  <SCORE.INTRA.REPUL>
0

>  <SCORE.INTRA.REPUL.0>
0

>  <SCORE.INTRA.SOLV>
-3.02748

>  <SCORE.INTRA.SOLV.lig_0>
-132.657

>  <SCORE.INTRA.VDW>
3.41761

>  <SCORE.INTRA.VDW.0>
-4.68867

>  <SCORE.INTRA.norm>
-0.194076

>  <SCORE.RESTR>
0.758311

>  <SCORE.RESTR.CAVITY>
0.758311

>  <SCORE.RESTR.norm>
0.0236972

>  <SCORE.SYSTEM>
0

>  <SCORE.SYSTEM.CONST>
0

>  <SCORE.SYSTEM.DIHEDRAL>
0

>  <SCORE.SYSTEM.SOLV>
0

>  <SCORE.SYSTEM.norm>
0

>  <SCORE.heavy>
32

>  <SCORE.norm>
-1.73446

>  <RMSD>
3.609

$$$$
1tob
 OpenBabel11021811413D
libRbt.so/2013.1/901 2013/11/27
 32 34  0  0  0  0  0  0  0  0999 V2000
   -1.8876    3.2798    4.3126 C   0  0  2  0  0  0  0  0  0  0  0  0
   -0.9393    3.4051    5.5026 C   0  0  1  0  0  0  0  0  0  0  0  0
    0.3562    2.6620    5.2064 C   0  0  2  0  0  0  0  0  0  0  0  0
    0.0389    1.2151    4.8484 C   0  0  1  0  0  0  0  0  0  0  0  0
   -0.9438    1.1733    3.6815 C   0  0  1  0  0  0  0  0  0  0  0  0
   -1.3592   -0.2411    3.3271 C   0  0  0  0  0  0  0  0  0  0  0  0
   -0.6595    4.7755    5.7503 O   0  0  0  0  0  0  0  0  0  0  0  0
    1.2975    2.7563    6.3433 N   0  3  0  0  0  0  0  0  0  0  0  0
    1.2363    0.5315    4.5034 O   0  0  0  0  0  0  0  0  0  0  0  0
   -2.1446    1.9006    4.0196 O   0  0  0  0  0  0  0  0  0  0  0  0
   -2.7250   -0.4747    3.6402 O   0  0  0  0  0  0  0  0  0  0  0  0
   -2.9068    3.0860    1.5333 C   0  0  2  0  0  0  0  0  0  0  0  0
   -3.9083    3.5507    0.4849 C   0  0  0  0  0  0  0  0  0  0  0  0
   -4.9910    4.4181    1.1275 C   0  0  1  0  0  0  0  0  0  0  0  0
   -4.3497    5.6373    1.7864 C   0  0  2  0  0  0  0  0  0  0  0  0
   -3.3337    5.1892    2.8382 C   0  0  1  0  0  0  0  0  0  0  0  0
   -2.2708    4.2984    2.1959 C   0  0  1  0  0  0  0  0  0  0  0  0
   -1.8383    2.2734    0.9118 N   0  3  0  0  0  0  0  0  0  0  0  0
   -6.0071    4.7940    0.1105 N   0  3  0  0  0  0  0  0  0  0  0  0
   -2.7189    6.3261    3.4293 O   0  0  0  0  0  0  0  0  0  0  0  0
   -1.3276    3.8668    3.1933 O   0  0  0  0  0  0  0  0  0  0  0  0
   -5.7664    7.5722    1.6720 C   0  0  1  0  0  0  0  0  0  0  0  0
   -4.7846    8.7270    1.8779 C   0  0  1  0  0  0  0  0  0  0  0  0
   -4.7759    9.1581    3.3368 C   0  0  0  0  0  0  0  0  0  0  0  0
   -6.1931    9.5011    3.7661 C   0  0  1  0  0  0  0  0  0  0  0  0
   -7.1132    8.3083    3.5089 C   0  0  1  0  0  0  0  0  0  0  0  0
   -8.5608    8.5997    3.8608 C   0  0  0  0  0  0  0  0  0  0  0  0
   -3.4296    8.3678    1.3968 N   0  3  0  0  0  0  0  0  0  0  0  0
   -8.6948    9.8843    4.5886 N   0  3  0  0  0  0  0  0  0  0  0  0
   -5.3617    6.4615    2.4005 O   0  0  0  0  0  0  0  0  0  0  0  0
   -6.2136    9.8403    5.1450 O   0  0  0  0  0  0  0  0  0  0  0  0
   -7.0782    7.9454    2.1116 O   0  0  0  0  0  0  0  0  0  0  0  0
  1  2  1  0  0  0  0
  1 10  1  0  0  0  0
  1 21  1  6  0  0  0
  2  3  1  0  0  0  0
  2  7  1  6  0  0  0
  3  4  1  0  0  0  0
  3  8  1  1  0  0  0
  4  5  1  0  0  0  0
  4  9  1  6  0  0  0
  5  6  1  1  0  0  0
  5 10  1  0  0  0  0
  6 11  1  0  0  0  0
 12 13  1  0  0  0  0
 12 17  1  0  0  0  0
 12 18  1  6  0  0  0
 13 14  1  0  0  0  0
 14 15  1  0  0  0  0
 14 19  1  6  0  0  0
 15 16  1  0  0  0  0
 15 30  1  1  0  0  0
 16 17  1  0  0  0  0
 16 20  1  6  0  0  0
 17 21  1  1  0  0  0
 22 23  1  0  0  0  0
 22 30  1  1  0  0  0
 22 32  1  0  0  0  0
 23 24  1  0  0  0  0
 23 28  1  1  0  0  0
 24 25  1  0  0  0  0
 25 26  1  0  0  0  0
 25 31  1  1  0  0  0
 26 27  1  6  0  0  0
 26 32  1  0  0  0  0
 27 29  1  0  0  0  0
M  CHG  5   8   1  18   1  19   1  28   1  29   1
M  END
>  <CHROM.1>
-155.97687994,-46.95079793,-178.91852058,-58.82144545,111.53987660,69.26099035
-34.26025925,67.21545209,-99.45259563,-99.21452010,-69.57287549,-82.27529636
-76.90027717,54.87143649,-9.97647217,-46.23835833,-3.39753964,4.96859544
3.21570953,-0.53005800,-0.72463082,0.69841184

>  <Name>
1tob

>  <RI>
0

>  <Rbt.Current_Directory>
/home/itssahil/PROJECTS/Mol_Feturizer/New_Systems/rnas/1tob

>  <Rbt.Executable>
rbdock ($Id: //depot/dev/client3/rdock/2013.1/src/exe/rbdock.cxx#4 $)

>  <Rbt.Library>
libRbt.so (2013.1, Build901 2013/11/27)

>  <Rbt.Parameter_File>
/export/apps/rDock/src/rDock_2013.1_src/data/scripts/dock_solv.prm

>  <Rbt.Receptor>
prm/blind_docking_60.prm

>  <SCORE>
-12.3561

>  <SCORE.INTER>
-26.2123

>  <SCORE.INTER.CONST>
1

>  <SCORE.INTER.POLAR>
-3.89391

>  <SCORE.INTER.ROT>
6

>  <SCORE.INTER.SOLV>
24.9044

>  <SCORE.INTER.VDW>
-20.3966

>  <SCORE.INTER.norm>
-0.819135

>  <SCORE.INTRA>
9.33477

>  <SCORE.INTRA.DIHEDRAL>
6.97111

>  <SCORE.INTRA.DIHEDRAL.0>
22.9177

>  <SCORE.INTRA.POLAR>
-0.670512

>  <SCORE.INTRA.POLAR.0>
-0.311208

>  <SCORE.INTRA.REPUL>
0

>  <SCORE.INTRA.REPUL.0>
0

>  <SCORE.INTRA.SOLV>
3.8334

>  <SCORE.INTRA.SOLV.lig_0>
-132.657

>  <SCORE.INTRA.VDW>
6.21226

>  <SCORE.INTRA.VDW.0>
-4.68867

>  <SCORE.INTRA.norm>
0.291712

>  <SCORE.RESTR>
4.52145

>  <SCORE.RESTR.CAVITY>
4.52145

>  <SCORE.RESTR.norm>
0.141295

>  <SCORE.SYSTEM>
0

>  <SCORE.SYSTEM.CONST>
0

>  <SCORE.SYSTEM.DIHEDRAL>
0

>  <SCORE.SYSTEM.SOLV>
0

>  <SCORE.SYSTEM.norm>
0

>  <SCORE.heavy>
32

>  <SCORE.norm>
-0.386128

>  <RMSD>
3.625

$$$$
1tob
 OpenBabel11021811413D
libRbt.so/2013.1/901 2013/11/27
 32 34  0  0  0  0  0  0  0  0999 V2000
   -2.2863    4.5285    3.0233 C   0  0  2  0  0  0  0  0  0  0  0  0
   -2.2201    3.3302    2.0794 C   0  0  1  0  0  0  0  0  0  0  0  0
   -2.1612    2.0422    2.8893 C   0  0  2  0  0  0  0  0  0  0  0  0
   -0.9836    2.1049    3.8546 C   0  0  1  0  0  0  0  0  0  0  0  0
   -1.0987    3.3479    4.7327 C   0  0  1  0  0  0  0  0  0  0  0  0
    0.0866    3.5081    5.6643 C   0  0  0  0  0  0  0  0  0  0  0  0
   -3.3665    3.3166    1.2409 O   0  0  0  0  0  0  0  0  0  0  0  0
   -2.0886    0.8587    2.0053 N   0  3  0  0  0  0  0  0  0  0  0  0
   -0.9616    0.9360    4.6628 O   0  0  0  0  0  0  0  0  0  0  0  0
   -1.1592    4.5320    3.9086 O   0  0  0  0  0  0  0  0  0  0  0  0
   -0.2067    3.0203    6.9659 O   0  0  0  0  0  0  0  0  0  0  0  0
   -3.3297    6.8132    4.3906 C   0  0  2  0  0  0  0  0  0  0  0  0
   -4.1357    8.1043    4.4319 C   0  0  0  0  0  0  0  0  0  0  0  0
   -4.6228    8.4752    3.0309 C   0  0  1  0  0  0  0  0  0  0  0  0
   -5.4976    7.3531    2.4764 C   0  0  2  0  0  0  0  0  0  0  0  0
   -4.7060    6.0451    2.4351 C   0  0  1  0  0  0  0  0  0  0  0  0
   -4.1966    5.6948    3.8328 C   0  0  1  0  0  0  0  0  0  0  0  0
   -2.8836    6.4316    5.7485 N   0  3  0  0  0  0  0  0  0  0  0  0
   -5.3343    9.7791    3.0721 N   0  3  0  0  0  0  0  0  0  0  0  0
   -5.5319    4.9974    1.9448 O   0  0  0  0  0  0  0  0  0  0  0  0
   -3.4389    4.4723    3.7843 O   0  0  0  0  0  0  0  0  0  0  0  0
   -6.8475    6.7943    0.5714 C   0  0  1  0  0  0  0  0  0  0  0  0
   -7.1224    7.1877   -0.8810 C   0  0  1  0  0  0  0  0  0  0  0  0
   -7.7967    8.5501   -0.9398 C   0  0  0  0  0  0  0  0  0  0  0  0
   -9.0531    8.5244   -0.0846 C   0  0  1  0  0  0  0  0  0  0  0  0
   -8.6985    8.1027    1.3408 C   0  0  1  0  0  0  0  0  0  0  0  0
   -9.9170    7.9981    2.2400 C   0  0  0  0  0  0  0  0  0  0  0  0
   -5.8807    7.1473   -1.6892 N   0  3  0  0  0  0  0  0  0  0  0  0
   -9.8790    6.7671    3.0653 N   0  3  0  0  0  0  0  0  0  0  0  0
   -5.9597    7.6900    1.1523 O   0  0  0  0  0  0  0  0  0  0  0  0
   -9.6587    9.8089   -0.0734 O   0  0  0  0  0  0  0  0  0  0  0  0
   -8.0617    6.8066    1.3322 O   0  0  0  0  0  0  0  0  0  0  0  0
  1  2  1  0  0  0  0
  1 10  1  0  0  0  0
  1 21  1  1  0  0  0
  2  3  1  0  0  0  0
  2  7  1  6  0  0  0
  3  4  1  0  0  0  0
  3  8  1  6  0  0  0
  4  5  1  0  0  0  0
  4  9  1  1  0  0  0
  5  6  1  1  0  0  0
  5 10  1  0  0  0  0
  6 11  1  0  0  0  0
 12 13  1  0  0  0  0
 12 17  1  0  0  0  0
 12 18  1  1  0  0  0
 13 14  1  0  0  0  0
 14 15  1  0  0  0  0
 14 19  1  1  0  0  0
 15 16  1  0  0  0  0
 15 30  1  6  0  0  0
 16 17  1  0  0  0  0
 16 20  1  1  0  0  0
 17 21  1  6  0  0  0
 22 23  1  0  0  0  0
 22 30  1  1  0  0  0
 22 32  1  0  0  0  0
 23 24  1  0  0  0  0
 23 28  1  6  0  0  0
 24 25  1  0  0  0  0
 25 26  1  0  0  0  0
 25 31  1  1  0  0  0
 26 27  1  1  0  0  0
 26 32  1  0  0  0  0
 27 29  1  0  0  0  0
M  CHG  5   8   1  18   1  19   1  28   1  29   1
M  END
>  <CHROM.1>
-131.58703015,168.21606272,101.35985035,169.96191391,-98.28467162,54.26987141
173.99244159,43.55284939,-175.44891247,174.72981905,-58.50030150,-173.35532492
57.26016681,-56.02909028,135.56901278,175.26567708,-4.65065390,5.74943651
2.58187211,0.12168230,0.74285362,-2.34793152

>  <Name>
1tob

>  <RI>
0

>  <Rbt.Current_Directory>
/home/itssahil/PROJECTS/Mol_Feturizer/New_Systems/rnas/1tob

>  <Rbt.Executable>
rbdock ($Id: //depot/dev/client3/rdock/2013.1/src/exe/rbdock.cxx#4 $)

>  <Rbt.Library>
libRbt.so (2013.1, Build901 2013/11/27)

>  <Rbt.Parameter_File>
/export/apps/rDock/src/rDock_2013.1_src/data/scripts/dock_solv.prm

>  <Rbt.Receptor>
prm/pocket_docking_5.prm

>  <SCORE>
-57.594

>  <SCORE.INTER>
-55.4985

>  <SCORE.INTER.CONST>
1

>  <SCORE.INTER.POLAR>
-8.94294

>  <SCORE.INTER.ROT>
6

>  <SCORE.INTER.SOLV>
30.6368

>  <SCORE.INTER.VDW>
-25.0014

>  <SCORE.INTER.norm>
-1.73433

>  <SCORE.INTRA>
-2.09548

>  <SCORE.INTRA.DIHEDRAL>
-2.71613

>  <SCORE.INTRA.DIHEDRAL.0>
22.9177

>  <SCORE.INTRA.POLAR>
-0.66026

>  <SCORE.INTRA.POLAR.0>
-0.311208

>  <SCORE.INTRA.REPUL>
0

>  <SCORE.INTRA.REPUL.0>
0

>  <SCORE.INTRA.SOLV>
-4.38501

>  <SCORE.INTRA.SOLV.lig_0>
-132.657

>  <SCORE.INTRA.VDW>
3.69998

>  <SCORE.INTRA.VDW.0>
-4.68867

>  <SCORE.INTRA.norm>
-0.0654836

>  <SCORE.RESTR>
0

>  <SCORE.RESTR.CAVITY>
0

>  <SCORE.RESTR.norm>
0

>  <SCORE.SYSTEM>
0

>  <SCORE.SYSTEM.CONST>
0

>  <SCORE.SYSTEM.DIHEDRAL>
0

>  <SCORE.SYSTEM.SOLV>
0

>  <SCORE.SYSTEM.norm>
0

>  <SCORE.heavy>
32

>  <SCORE.norm>
-1.79981

>  <RMSD>
3.661

$$$$
1tob
 OpenBabel11021811413D
libRbt.so/2013.1/901 2013/11/27
 32 34  0  0  0  0  0  0  0  0999 V2000
   -1.8266    4.2655    3.0411 C   0  0  2  0  0  0  0  0  0  0  0  0
   -1.9437    3.1138    2.0456 C   0  0  1  0  0  0  0  0  0  0  0  0
   -1.7388    1.7891    2.7677 C   0  0  2  0  0  0  0  0  0  0  0  0
   -0.4005    1.8119    3.4963 C   0  0  1  0  0  0  0  0  0  0  0  0
   -0.3436    3.0110    4.4386 C   0  0  1  0  0  0  0  0  0  0  0  0
    0.9963    3.1329    5.1375 C   0  0  0  0  0  0  0  0  0  0  0  0
   -3.2273    3.1342    1.4377 O   0  0  0  0  0  0  0  0  0  0  0  0
   -1.8383    0.6493    1.8304 N   0  3  0  0  0  0  0  0  0  0  0  0
   -0.2316    0.6060    4.2294 O   0  0  0  0  0  0  0  0  0  0  0  0
   -0.5532    4.2327    3.6979 O   0  0  0  0  0  0  0  0  0  0  0  0
    1.2580    2.0034    5.9584 O   0  0  0  0  0  0  0  0  0  0  0  0
   -2.8362    6.5125    4.6010 C   0  0  2  0  0  0  0  0  0  0  0  0
   -3.7351    7.7353    4.7232 C   0  0  0  0  0  0  0  0  0  0  0  0
   -4.3826    8.0593    3.3766 C   0  0  1  0  0  0  0  0  0  0  0  0
   -5.2142    6.8683    2.9057 C   0  0  2  0  0  0  0  0  0  0  0  0
   -4.3283    5.6274    2.7848 C   0  0  1  0  0  0  0  0  0  0  0  0
   -3.6606    5.3258    4.1261 C   0  0  1  0  0  0  0  0  0  0  0  0
   -2.2326    6.1744    5.9086 N   0  3  0  0  0  0  0  0  0  0  0  0
   -5.1888    9.3025    3.4896 N   0  3  0  0  0  0  0  0  0  0  0  0
   -5.1112    4.5148    2.3734 O   0  0  0  0  0  0  0  0  0  0  0  0
   -2.8159    4.1674    4.0016 O   0  0  0  0  0  0  0  0  0  0  0  0
   -7.2118    7.0703    1.5894 C   0  0  1  0  0  0  0  0  0  0  0  0
   -7.6475    6.1731    0.4296 C   0  0  1  0  0  0  0  0  0  0  0  0
   -7.2213    6.7824   -0.8975 C   0  0  0  0  0  0  0  0  0  0  0  0
   -7.7736    8.1948   -1.0006 C   0  0  1  0  0  0  0  0  0  0  0  0
   -7.3128    9.0181    0.2017 C   0  0  1  0  0  0  0  0  0  0  0  0
   -7.8763   10.4276    0.1958 C   0  0  0  0  0  0  0  0  0  0  0  0
   -7.1319    4.7940    0.5987 N   0  3  0  0  0  0  0  0  0  0  0  0
   -7.3432   11.2303    1.3224 N   0  3  0  0  0  0  0  0  0  0  0  0
   -5.8269    7.1607    1.6331 O   0  0  0  0  0  0  0  0  0  0  0  0
   -7.3281    8.8033   -2.2039 O   0  0  0  0  0  0  0  0  0  0  0  0
   -7.7443    8.3909    1.4288 O   0  0  0  0  0  0  0  0  0  0  0  0
  1  2  1  0  0  0  0
  1 10  1  0  0  0  0
  1 21  1  1  0  0  0
  2  3  1  0  0  0  0
  2  7  1  1  0  0  0
  3  4  1  0  0  0  0
  3  8  1  6  0  0  0
  4  5  1  0  0  0  0
  4  9  1  1  0  0  0
  5  6  1  6  0  0  0
  5 10  1  0  0  0  0
  6 11  1  0  0  0  0
 12 13  1  0  0  0  0
 12 17  1  0  0  0  0
 12 18  1  1  0  0  0
 13 14  1  0  0  0  0
 14 15  1  0  0  0  0
 14 19  1  1  0  0  0
 15 16  1  0  0  0  0
 15 30  1  6  0  0  0
 16 17  1  0  0  0  0
 16 20  1  1  0  0  0
 17 21  1  6  0  0  0
 22 23  1  0  0  0  0
 22 30  1  6  0  0  0
 22 32  1  0  0  0  0
 23 24  1  0  0  0  0
 23 28  1  1  0  0  0
 24 25  1  0  0  0  0
 25 26  1  0  0  0  0
 25 31  1  6  0  0  0
 26 27  1  6  0  0  0
 26 32  1  0  0  0  0
 27 29  1  0  0  0  0
M  CHG  5   8   1  18   1  19   1  28   1  29   1
M  END
>  <CHROM.1>
-123.76976423,170.46663248,-127.97408573,-170.12551460,-62.30148262,178.43526747
-72.89375963,-69.89720232,-122.42324439,-88.82220445,-64.38217746,-128.01689266
84.15866615,173.97371319,-176.24658518,-179.89989418,-4.04194517,5.60452075
2.49822264,-0.34032020,-0.76267932,0.56254077

>  <Name>
1tob

>  <RI>
0

>  <Rbt.Current_Directory>
/home/itssahil/PROJECTS/Mol_Feturizer/New_Systems/rnas/1tob

>  <Rbt.Executable>
rbdock ($Id: //depot/dev/client3/rdock/2013.1/src/exe/rbdock.cxx#4 $)

>  <Rbt.Library>
libRbt.so (2013.1, Build901 2013/11/27)

>  <Rbt.Parameter_File>
/export/apps/rDock/src/rDock_2013.1_src/data/scripts/dock_solv.prm

>  <Rbt.Receptor>
prm/pocket_docking_5.prm

>  <SCORE>
-37.915

>  <SCORE.INTER>
-40.5359

>  <SCORE.INTER.CONST>
1

>  <SCORE.INTER.POLAR>
-6.15336

>  <SCORE.INTER.ROT>
6

>  <SCORE.INTER.SOLV>
27.735

>  <SCORE.INTER.VDW>
-23.3578

>  <SCORE.INTER.norm>
-1.26675

>  <SCORE.INTRA>
2.62098

>  <SCORE.INTRA.DIHEDRAL>
8.11138

>  <SCORE.INTRA.DIHEDRAL.0>
22.9177

>  <SCORE.INTRA.POLAR>
-1.49822

>  <SCORE.INTRA.POLAR.0>
-0.311208

>  <SCORE.INTRA.REPUL>
0

>  <SCORE.INTRA.REPUL.0>
0

>  <SCORE.INTRA.SOLV>
2.45158

>  <SCORE.INTRA.SOLV.lig_0>
-132.657

>  <SCORE.INTRA.VDW>
2.43346

>  <SCORE.INTRA.VDW.0>
-4.68867

>  <SCORE.INTRA.norm>
0.0819057

>  <SCORE.RESTR>
0

>  <SCORE.RESTR.CAVITY>
0

>  <SCORE.RESTR.norm>
0

>  <SCORE.SYSTEM>
0

>  <SCORE.SYSTEM.CONST>
0

>  <SCORE.SYSTEM.DIHEDRAL>
0

>  <SCORE.SYSTEM.SOLV>
0

>  <SCORE.SYSTEM.norm>
0

>  <SCORE.heavy>
32

>  <SCORE.norm>
-1.18484

>  <RMSD>
3.684

$$$$
1tob
 OpenBabel11021811413D
libRbt.so/2013.1/901 2013/11/27
 32 34  0  0  0  0  0  0  0  0999 V2000
   -0.1374    3.8331    3.6802 C   0  0  2  0  0  0  0  0  0  0  0  0
    1.1013    3.0011    3.3569 C   0  0  1  0  0  0  0  0  0  0  0  0
    1.0385    1.6762    4.1046 C   0  0  2  0  0  0  0  0  0  0  0  0
    0.8745    1.9441    5.5958 C   0  0  1  0  0  0  0  0  0  0  0  0
   -0.3570    2.8135    5.8340 C   0  0  1  0  0  0  0  0  0  0  0  0
   -0.5312    3.1799    7.2948 C   0  0  0  0  0  0  0  0  0  0  0  0
    1.1647    2.7593    1.9586 O   0  0  0  0  0  0  0  0  0  0  0  0
    2.2288    0.8458    3.8201 N   0  3  0  0  0  0  0  0  0  0  0  0
    0.7459    0.7130    6.2943 O   0  0  0  0  0  0  0  0  0  0  0  0
   -0.2421    4.0478    5.0934 O   0  0  0  0  0  0  0  0  0  0  0  0
    0.0884    4.4223    7.5957 O   0  0  0  0  0  0  0  0  0  0  0  0
   -3.2719    3.1807    1.8823 C   0  0  2  0  0  0  0  0  0  0  0  0
   -4.3412    4.0833    1.2820 C   0  0  0  0  0  0  0  0  0  0  0  0
   -5.0798    4.8429    2.3842 C   0  0  1  0  0  0  0  0  0  0  0  0
   -4.0890    5.6938    3.1755 C   0  0  2  0  0  0  0  0  0  0  0  0
   -3.0018    4.8038    3.7799 C   0  0  1  0  0  0  0  0  0  0  0  0
   -2.2869    4.0248    2.6764 C   0  0  1  0  0  0  0  0  0  0  0  0
   -2.5316    2.4679    0.8182 N   0  3  0  0  0  0  0  0  0  0  0  0
   -6.1750    5.6541    1.7921 N   0  3  0  0  0  0  0  0  0  0  0  0
   -2.0662    5.6023    4.4920 O   0  0  0  0  0  0  0  0  0  0  0  0
   -1.2767    3.1773    3.2527 O   0  0  0  0  0  0  0  0  0  0  0  0
   -4.0433    7.4092    4.8545 C   0  0  1  0  0  0  0  0  0  0  0  0
   -4.9532    8.5848    5.2148 C   0  0  1  0  0  0  0  0  0  0  0  0
   -5.5251    9.2149    3.9538 C   0  0  0  0  0  0  0  0  0  0  0  0
   -4.3848    9.6093    3.0294 C   0  0  1  0  0  0  0  0  0  0  0  0
   -3.5127    8.3891    2.7360 C   0  0  1  0  0  0  0  0  0  0  0  0
   -2.3164    8.7216    1.8628 C   0  0  0  0  0  0  0  0  0  0  0  0
   -6.0169    8.1670    6.1584 N   0  3  0  0  0  0  0  0  0  0  0  0
   -2.4318    8.0978    0.5229 N   0  3  0  0  0  0  0  0  0  0  0  0
   -4.7740    6.4122    4.2219 O   0  0  0  0  0  0  0  0  0  0  0  0
   -4.9032   10.1372    1.8172 O   0  0  0  0  0  0  0  0  0  0  0  0
   -3.0015    7.8353    3.9678 O   0  0  0  0  0  0  0  0  0  0  0  0
  1  2  1  0  0  0  0
  1 10  1  0  0  0  0
  1 21  1  1  0  0  0
  2  3  1  0  0  0  0
  2  7  1  6  0  0  0
  3  4  1  0  0  0  0
  3  8  1  1  0  0  0
  4  5  1  0  0  0  0
  4  9  1  1  0  0  0
  5  6  1  1  0  0  0
  5 10  1  0  0  0  0
  6 11  1  0  0  0  0
 12 13  1  0  0  0  0
 12 17  1  0  0  0  0
 12 18  1  6  0  0  0
 13 14  1  0  0  0  0
 14 15  1  0  0  0  0
 14 19  1  6  0  0  0
 15 16  1  0  0  0  0
 15 30  1  1  0  0  0
 16 17  1  0  0  0  0
 16 20  1  6  0  0  0
 17 21  1  1  0  0  0
 22 23  1  0  0  0  0
 22 30  1  6  0  0  0
 22 32  1  0  0  0  0
 23 24  1  0  0  0  0
 23 28  1  1  0  0  0
 24 25  1  0  0  0  0
 25 26  1  0  0  0  0
 25 31  1  6  0  0  0
 26 27  1  6  0  0  0
 26 32  1  0  0  0  0
 27 29  1  0  0  0  0
M  CHG  5   8   1  18   1  19   1  28   1  29   1
M  END
>  <CHROM.1>
-140.86748129,-78.33118189,64.69329820,-72.72427000,92.67592666,67.85069366
-88.30069025,174.86088651,-168.37457991,-44.30000838,163.03144041,144.26510292
56.69714669,66.41481511,-112.16299485,-175.94914076,-2.29885054,5.15830433
3.69175347,0.08057587,0.86560889,-1.91254811

>  <Name>
1tob

>  <RI>
0

>  <Rbt.Current_Directory>
/home/itssahil/PROJECTS/Mol_Feturizer/New_Systems/rnas/1tob

>  <Rbt.Executable>
rbdock ($Id: //depot/dev/client3/rdock/2013.1/src/exe/rbdock.cxx#4 $)

>  <Rbt.Library>
libRbt.so (2013.1, Build901 2013/11/27)

>  <Rbt.Parameter_File>
/export/apps/rDock/src/rDock_2013.1_src/data/scripts/dock_solv.prm

>  <Rbt.Receptor>
prm/blind_docking_20.prm

>  <SCORE>
-11.3559

>  <SCORE.INTER>
-25.3004

>  <SCORE.INTER.CONST>
1

>  <SCORE.INTER.POLAR>
-3.56265

>  <SCORE.INTER.ROT>
6

>  <SCORE.INTER.SOLV>
34.0661

>  <SCORE.INTER.VDW>
-23.9468

>  <SCORE.INTER.norm>
-0.790637

>  <SCORE.INTRA>
4.12419

>  <SCORE.INTRA.DIHEDRAL>
2.75641

>  <SCORE.INTRA.DIHEDRAL.0>
22.9177

>  <SCORE.INTRA.POLAR>
-0.093412

>  <SCORE.INTRA.POLAR.0>
-0.311208

>  <SCORE.INTRA.REPUL>
0.132975

>  <SCORE.INTRA.REPUL.0>
0

>  <SCORE.INTRA.SOLV>
-4.41436

>  <SCORE.INTRA.SOLV.lig_0>
-132.657

>  <SCORE.INTRA.VDW>
4.60589

>  <SCORE.INTRA.VDW.0>
-4.68867

>  <SCORE.INTRA.norm>
0.128881

>  <SCORE.RESTR>
9.82027

>  <SCORE.RESTR.CAVITY>
9.82027

>  <SCORE.RESTR.norm>
0.306883

>  <SCORE.SYSTEM>
0

>  <SCORE.SYSTEM.CONST>
0

>  <SCORE.SYSTEM.DIHEDRAL>
0

>  <SCORE.SYSTEM.SOLV>
0

>  <SCORE.SYSTEM.norm>
0

>  <SCORE.heavy>
32

>  <SCORE.norm>
-0.354873

>  <RMSD>
3.699

$$$$
1tob
 OpenBabel11021811413D
libRbt.so/2013.1/901 2013/11/27
 32 34  0  0  0  0  0  0  0  0999 V2000
   -0.4245    3.6309    4.6913 C   0  0  2  0  0  0  0  0  0  0  0  0
    0.8608    3.2438    3.9637 C   0  0  1  0  0  0  0  0  0  0  0  0
    1.1515    1.7661    4.1876 C   0  0  2  0  0  0  0  0  0  0  0  0
    1.2064    1.4823    5.6839 C   0  0  1  0  0  0  0  0  0  0  0  0
   -0.0930    1.9335    6.3451 C   0  0  1  0  0  0  0  0  0  0  0  0
   -0.0698    1.7479    7.8496 C   0  0  0  0  0  0  0  0  0  0  0  0
    0.7201    3.4989    2.5735 O   0  0  0  0  0  0  0  0  0  0  0  0
    2.3964    1.3571    3.5016 N   0  3  0  0  0  0  0  0  0  0  0  0
    1.4090    0.0926    5.9026 O   0  0  0  0  0  0  0  0  0  0  0  0
   -0.3167    3.3370    6.0899 O   0  0  0  0  0  0  0  0  0  0  0  0
    0.2064    2.9700    8.5191 O   0  0  0  0  0  0  0  0  0  0  0  0
   -3.1306    2.6092    2.4214 C   0  0  2  0  0  0  0  0  0  0  0  0
   -3.9178    3.3367    1.3400 C   0  0  0  0  0  0  0  0  0  0  0  0
   -4.7695    4.4475    1.9548 C   0  0  1  0  0  0  0  0  0  0  0  0
   -3.8688    5.4454    2.6792 C   0  0  2  0  0  0  0  0  0  0  0  0
   -3.0635    4.7301    3.7651 C   0  0  1  0  0  0  0  0  0  0  0  0
   -2.2369    3.6018    3.1489 C   0  0  1  0  0  0  0  0  0  0  0  0
   -2.2793    1.5546    1.8285 N   0  3  0  0  0  0  0  0  0  0  0  0
   -5.5956    5.0926    0.9015 N   0  3  0  0  0  0  0  0  0  0  0  0
   -2.2061    5.6566    4.4181 O   0  0  0  0  0  0  0  0  0  0  0  0
   -1.4945    2.9224    4.1776 O   0  0  0  0  0  0  0  0  0  0  0  0
   -3.9605    7.4693    3.9673 C   0  0  1  0  0  0  0  0  0  0  0  0
   -4.9312    8.4456    4.6340 C   0  0  1  0  0  0  0  0  0  0  0  0
   -5.7426    9.1846    3.5805 C   0  0  0  0  0  0  0  0  0  0  0  0
   -4.7958    9.8636    2.6043 C   0  0  1  0  0  0  0  0  0  0  0  0
   -3.8479    8.8283    2.0000 C   0  0  1  0  0  0  0  0  0  0  0  0
   -2.8320    9.4459    1.0562 C   0  0  0  0  0  0  0  0  0  0  0  0
   -5.7973    7.7507    5.6156 N   0  3  0  0  0  0  0  0  0  0  0  0
   -3.2303    9.2702   -0.3609 N   0  3  0  0  0  0  0  0  0  0  0  0
   -4.6621    6.4965    3.2677 O   0  0  0  0  0  0  0  0  0  0  0  0
   -5.5366   10.5018    1.5744 O   0  0  0  0  0  0  0  0  0  0  0  0
   -3.1087    8.1606    3.0455 O   0  0  0  0  0  0  0  0  0  0  0  0
  1  2  1  0  0  0  0
  1 10  1  0  0  0  0
  1 21  1  6  0  0  0
  2  3  1  0  0  0  0
  2  7  1  6  0  0  0
  3  4  1  0  0  0  0
  3  8  1  1  0  0  0
  4  5  1  0  0  0  0
  4  9  1  6  0  0  0
  5  6  1  1  0  0  0
  5 10  1  0  0  0  0
  6 11  1  0  0  0  0
 12 13  1  0  0  0  0
 12 17  1  0  0  0  0
 12 18  1  6  0  0  0
 13 14  1  0  0  0  0
 14 15  1  0  0  0  0
 14 19  1  6  0  0  0
 15 16  1  0  0  0  0
 15 30  1  1  0  0  0
 16 17  1  0  0  0  0
 16 20  1  6  0  0  0
 17 21  1  1  0  0  0
 22 23  1  0  0  0  0
 22 30  1  6  0  0  0
 22 32  1  0  0  0  0
 23 24  1  0  0  0  0
 23 28  1  1  0  0  0
 24 25  1  0  0  0  0
 25 26  1  0  0  0  0
 25 31  1  6  0  0  0
 26 27  1  6  0  0  0
 26 32  1  0  0  0  0
 27 29  1  0  0  0  0
M  CHG  5   8   1  18   1  19   1  28   1  29   1
M  END
>  <CHROM.1>
-94.55512979,59.43649773,169.92284780,71.73930493,100.29800980,-56.96739828
-113.40384190,-33.85151830,179.56963295,-55.42394015,165.12834787,-175.13123423
-62.55653001,176.46292965,-100.09643781,174.72203298,-2.28681713,4.99325888
3.63822806,0.08508599,-0.94933603,1.25418754

>  <Name>
1tob

>  <RI>
0

>  <Rbt.Current_Directory>
/home/itssahil/PROJECTS/Mol_Feturizer/New_Systems/rnas/1tob

>  <Rbt.Executable>
rbdock ($Id: //depot/dev/client3/rdock/2013.1/src/exe/rbdock.cxx#4 $)

>  <Rbt.Library>
libRbt.so (2013.1, Build901 2013/11/27)

>  <Rbt.Parameter_File>
/export/apps/rDock/src/rDock_2013.1_src/data/scripts/dock_solv.prm

>  <Rbt.Receptor>
prm/pocket_docking_7.prm

>  <SCORE>
-41.6637

>  <SCORE.INTER>
-41.9711

>  <SCORE.INTER.CONST>
1

>  <SCORE.INTER.POLAR>
-6.34073

>  <SCORE.INTER.ROT>
6

>  <SCORE.INTER.SOLV>
26.4942

>  <SCORE.INTER.VDW>
-23.2763

>  <SCORE.INTER.norm>
-1.3116

>  <SCORE.INTRA>
0.307344

>  <SCORE.INTRA.DIHEDRAL>
-3.18846

>  <SCORE.INTRA.DIHEDRAL.0>
22.9177

>  <SCORE.INTRA.POLAR>
0.24033

>  <SCORE.INTRA.POLAR.0>
-0.311208

>  <SCORE.INTRA.REPUL>
0

>  <SCORE.INTRA.REPUL.0>
0

>  <SCORE.INTRA.SOLV>
-6.06371

>  <SCORE.INTRA.SOLV.lig_0>
-132.657

>  <SCORE.INTRA.VDW>
4.1163

>  <SCORE.INTRA.VDW.0>
-4.68867

>  <SCORE.INTRA.norm>
0.00960449

>  <SCORE.RESTR>
0

>  <SCORE.RESTR.CAVITY>
0

>  <SCORE.RESTR.norm>
0

>  <SCORE.SYSTEM>
0

>  <SCORE.SYSTEM.CONST>
0

>  <SCORE.SYSTEM.DIHEDRAL>
0

>  <SCORE.SYSTEM.SOLV>
0

>  <SCORE.SYSTEM.norm>
0

>  <SCORE.heavy>
32

>  <SCORE.norm>
-1.30199

>  <RMSD>
3.706

$$$$
1tob
 OpenBabel11021811413D
libRbt.so/2013.1/901 2013/11/27
 32 34  0  0  0  0  0  0  0  0999 V2000
   -2.2682    3.7920    3.9943 C   0  0  2  0  0  0  0  0  0  0  0  0
   -1.6467    4.3088    5.2896 C   0  0  1  0  0  0  0  0  0  0  0  0
   -0.1334    4.1509    5.2308 C   0  0  2  0  0  0  0  0  0  0  0  0
    0.2125    2.6945    4.9446 C   0  0  1  0  0  0  0  0  0  0  0  0
   -0.4771    2.2405    3.6610 C   0  0  1  0  0  0  0  0  0  0  0  0
   -0.2334    0.7742    3.3625 C   0  0  0  0  0  0  0  0  0  0  0  0
   -1.9787    5.6783    5.4676 O   0  0  0  0  0  0  0  0  0  0  0  0
    0.5025    4.6356    6.4750 N   0  3  0  0  0  0  0  0  0  0  0  0
    1.6210    2.5505    4.8197 O   0  0  0  0  0  0  0  0  0  0  0  0
   -1.9050    2.4230    3.7753 O   0  0  0  0  0  0  0  0  0  0  0  0
    1.1540    0.4917    3.2472 O   0  0  0  0  0  0  0  0  0  0  0  0
   -3.3982    3.3516    1.5191 C   0  0  2  0  0  0  0  0  0  0  0  0
   -4.4075    3.5284    0.3929 C   0  0  0  0  0  0  0  0  0  0  0  0
   -5.4967    4.5200    0.8024 C   0  0  1  0  0  0  0  0  0  0  0  0
   -4.8656    5.8715    1.1295 C   0  0  2  0  0  0  0  0  0  0  0  0
   -3.8420    5.7117    2.2547 C   0  0  1  0  0  0  0  0  0  0  0  0
   -2.7723    4.6973    1.8516 C   0  0  1  0  0  0  0  0  0  0  0  0
   -2.3235    2.4182    1.1164 N   0  3  0  0  0  0  0  0  0  0  0  0
   -6.5196    4.6187   -0.2710 N   0  3  0  0  0  0  0  0  0  0  0  0
   -3.2367    6.9663    2.5372 O   0  0  0  0  0  0  0  0  0  0  0  0
   -1.8218    4.5392    2.9204 O   0  0  0  0  0  0  0  0  0  0  0  0
   -6.6052    6.4918    2.6635 C   0  0  1  0  0  0  0  0  0  0  0  0
   -7.8896    7.3200    2.7303 C   0  0  1  0  0  0  0  0  0  0  0  0
   -7.5573    8.8001    2.8445 C   0  0  0  0  0  0  0  0  0  0  0  0
   -6.6481    9.0184    4.0428 C   0  0  1  0  0  0  0  0  0  0  0  0
   -5.4026    8.1425    3.9119 C   0  0  1  0  0  0  0  0  0  0  0  0
   -4.4733    8.2650    5.1059 C   0  0  0  0  0  0  0  0  0  0  0  0
   -8.7688    7.0359    1.5716 N   0  3  0  0  0  0  0  0  0  0  0  0
   -5.2288    8.2981    6.3810 N   0  3  0  0  0  0  0  0  0  0  0  0
   -5.8839    6.8148    1.5218 O   0  0  0  0  0  0  0  0  0  0  0  0
   -6.2726   10.3856    4.1243 O   0  0  0  0  0  0  0  0  0  0  0  0
   -5.7806    6.7529    3.8059 O   0  0  0  0  0  0  0  0  0  0  0  0
  1  2  1  0  0  0  0
  1 10  1  0  0  0  0
  1 21  1  6  0  0  0
  2  3  1  0  0  0  0
  2  7  1  6  0  0  0
  3  4  1  0  0  0  0
  3  8  1  1  0  0  0
  4  5  1  0  0  0  0
  4  9  1  6  0  0  0
  5  6  1  1  0  0  0
  5 10  1  0  0  0  0
  6 11  1  0  0  0  0
 12 13  1  0  0  0  0
 12 17  1  0  0  0  0
 12 18  1  6  0  0  0
 13 14  1  0  0  0  0
 14 15  1  0  0  0  0
 14 19  1  6  0  0  0
 15 16  1  0  0  0  0
 15 30  1  1  0  0  0
 16 17  1  0  0  0  0
 16 20  1  6  0  0  0
 17 21  1  1  0  0  0
 22 23  1  0  0  0  0
 22 30  1  6  0  0  0
 22 32  1  0  0  0  0
 23 24  1  0  0  0  0
 23 28  1  6  0  0  0
 24 25  1  0  0  0  0
 25 26  1  0  0  0  0
 25 31  1  6  0  0  0
 26 27  1  1  0  0  0
 26 32  1  0  0  0  0
 27 29  1  0  0  0  0
M  CHG  5   8   1  18   1  19   1  28   1  29   1
M  END
>  <CHROM.1>
-147.32784919,177.52764154,-159.46919536,-164.76456708,-58.25105549,177.59344834
97.81772478,-168.80428533,62.02442989,-60.64971089,-46.80624982,-163.12349100
-171.57889011,-51.90414541,41.51290145,-143.89913915,-3.54356336,5.23023240
3.24114972,-0.34417841,-0.61097317,0.79448838

>  <Name>
1tob

>  <RI>
0

>  <Rbt.Current_Directory>
/home/itssahil/PROJECTS/Mol_Feturizer/New_Systems/rnas/1tob

>  <Rbt.Executable>
rbdock ($Id: //depot/dev/client3/rdock/2013.1/src/exe/rbdock.cxx#4 $)

>  <Rbt.Library>
libRbt.so (2013.1, Build901 2013/11/27)

>  <Rbt.Parameter_File>
/export/apps/rDock/src/rDock_2013.1_src/data/scripts/dock_solv.prm

>  <Rbt.Receptor>
prm/blind_docking_60.prm

>  <SCORE>
-38.7816

>  <SCORE.INTER>
-46.4674

>  <SCORE.INTER.CONST>
1

>  <SCORE.INTER.POLAR>
-7.03384

>  <SCORE.INTER.ROT>
6

>  <SCORE.INTER.SOLV>
35.5143

>  <SCORE.INTER.VDW>
-26.9702

>  <SCORE.INTER.norm>
-1.45211

>  <SCORE.INTRA>
3.12884

>  <SCORE.INTRA.DIHEDRAL>
-7.62305

>  <SCORE.INTRA.DIHEDRAL.0>
22.9177

>  <SCORE.INTRA.POLAR>
-0.802639

>  <SCORE.INTRA.POLAR.0>
-0.311208

>  <SCORE.INTRA.REPUL>
0.0476266

>  <SCORE.INTRA.REPUL.0>
0

>  <SCORE.INTRA.SOLV>
2.34232

>  <SCORE.INTRA.SOLV.lig_0>
-132.657

>  <SCORE.INTRA.VDW>
8.26004

>  <SCORE.INTRA.VDW.0>
-4.68867

>  <SCORE.INTRA.norm>
0.0977763

>  <SCORE.RESTR>
4.5569

>  <SCORE.RESTR.CAVITY>
4.5569

>  <SCORE.RESTR.norm>
0.142403

>  <SCORE.SYSTEM>
0

>  <SCORE.SYSTEM.CONST>
0

>  <SCORE.SYSTEM.DIHEDRAL>
0

>  <SCORE.SYSTEM.SOLV>
0

>  <SCORE.SYSTEM.norm>
0

>  <SCORE.heavy>
32

>  <SCORE.norm>
-1.21193

>  <RMSD>
3.711

$$$$
1tob
 OpenBabel11021811413D
libRbt.so/2013.1/901 2013/11/27
 32 34  0  0  0  0  0  0  0  0999 V2000
   -3.8999    5.9487    2.3253 C   0  0  2  0  0  0  0  0  0  0  0  0
   -4.4634    5.3634    1.0326 C   0  0  1  0  0  0  0  0  0  0  0  0
   -4.3495    3.8454    1.0646 C   0  0  2  0  0  0  0  0  0  0  0  0
   -2.8982    3.4521    1.3127 C   0  0  1  0  0  0  0  0  0  0  0  0
   -2.3956    4.1075    2.5961 C   0  0  1  0  0  0  0  0  0  0  0  0
   -0.9310    3.8159    2.8579 C   0  0  0  0  0  0  0  0  0  0  0  0
   -5.8260    5.7385    0.8905 O   0  0  0  0  0  0  0  0  0  0  0  0
   -4.8803    3.2440   -0.1779 N   0  3  0  0  0  0  0  0  0  0  0  0
   -2.7936    2.0383    1.4128 O   0  0  0  0  0  0  0  0  0  0  0  0
   -2.5379    5.5418    2.5078 O   0  0  0  0  0  0  0  0  0  0  0  0
   -0.0902    4.5589    1.9867 O   0  0  0  0  0  0  0  0  0  0  0  0
   -4.2668    7.4765    4.7671 C   0  0  2  0  0  0  0  0  0  0  0  0
   -4.9768    8.5728    5.5496 C   0  0  0  0  0  0  0  0  0  0  0  0
   -5.9124    9.3626    4.6340 C   0  0  1  0  0  0  0  0  0  0  0  0
   -6.9521    8.4233    4.0269 C   0  0  2  0  0  0  0  0  0  0  0  0
   -6.2560    7.3098    3.2429 C   0  0  1  0  0  0  0  0  0  0  0  0
   -5.3001    6.5427    4.1559 C   0  0  1  0  0  0  0  0  0  0  0  0
   -3.3848    6.6877    5.6550 N   0  3  0  0  0  0  0  0  0  0  0  0
   -6.5336   10.4810    5.3898 N   0  3  0  0  0  0  0  0  0  0  0  0
   -7.2257    6.4220    2.7029 O   0  0  0  0  0  0  0  0  0  0  0  0
   -4.6363    5.5074    3.4087 O   0  0  0  0  0  0  0  0  0  0  0  0
   -9.1865    8.8390    3.2535 C   0  0  1  0  0  0  0  0  0  0  0  0
   -9.9390    9.3428    2.0206 C   0  0  1  0  0  0  0  0  0  0  0  0
   -9.8667   10.8603    1.9424 C   0  0  0  0  0  0  0  0  0  0  0  0
  -10.3899   11.4543    3.2400 C   0  0  1  0  0  0  0  0  0  0  0  0
   -9.6040   10.8864    4.4213 C   0  0  1  0  0  0  0  0  0  0  0  0
  -10.1120   11.3923    5.7592 C   0  0  0  0  0  0  0  0  0  0  0  0
   -9.4327    8.6983    0.7859 N   0  3  0  0  0  0  0  0  0  0  0  0
  -11.5056   10.9544    6.0119 N   0  3  0  0  0  0  0  0  0  0  0  0
   -7.8383    9.1569    3.1570 O   0  0  0  0  0  0  0  0  0  0  0  0
  -10.2661   12.8687    3.2108 O   0  0  0  0  0  0  0  0  0  0  0  0
   -9.7084    9.4462    4.4419 O   0  0  0  0  0  0  0  0  0  0  0  0
  1  2  1  0  0  0  0
  1 10  1  0  0  0  0
  1 21  1  1  0  0  0
  2  3  1  0  0  0  0
  2  7  1  1  0  0  0
  3  4  1  0  0  0  0
  3  8  1  6  0  0  0
  4  5  1  0  0  0  0
  4  9  1  1  0  0  0
  5  6  1  6  0  0  0
  5 10  1  0  0  0  0
  6 11  1  0  0  0  0
 12 13  1  0  0  0  0
 12 17  1  0  0  0  0
 12 18  1  1  0  0  0
 13 14  1  0  0  0  0
 14 15  1  0  0  0  0
 14 19  1  1  0  0  0
 15 16  1  0  0  0  0
 15 30  1  6  0  0  0
 16 17  1  0  0  0  0
 16 20  1  1  0  0  0
 17 21  1  6  0  0  0
 22 23  1  0  0  0  0
 22 30  1  6  0  0  0
 22 32  1  0  0  0  0
 23 24  1  0  0  0  0
 23 28  1  6  0  0  0
 24 25  1  0  0  0  0
 25 26  1  0  0  0  0
 25 31  1  6  0  0  0
 26 27  1  1  0  0  0
 26 32  1  0  0  0  0
 27 29  1  0  0  0  0
M  CHG  5   8   1  18   1  19   1  28   1  29   1
M  END
>  <CHROM.1>
-118.00489969,-61.85069763,62.01812646,-178.50845542,74.13652131,-76.85863383
173.27814223,-170.39152468,-137.60382167,65.90535752,-63.13328031,-162.47815265
68.81501040,66.23418186,63.50185363,58.06941786,-6.20401627,7.43141829,3.09527376
-0.61393149,-0.50639422,0.89663262

>  <Name>
1tob

>  <RI>
0

>  <Rbt.Current_Directory>
/home/itssahil/PROJECTS/Mol_Feturizer/New_Systems/rnas/1tob

>  <Rbt.Executable>
rbdock ($Id: //depot/dev/client3/rdock/2013.1/src/exe/rbdock.cxx#4 $)

>  <Rbt.Library>
libRbt.so (2013.1, Build901 2013/11/27)

>  <Rbt.Parameter_File>
/export/apps/rDock/src/rDock_2013.1_src/data/scripts/dock_solv.prm

>  <Rbt.Receptor>
prm/pocket_docking_3.prm

>  <SCORE>
-35.9188

>  <SCORE.INTER>
-35.1457

>  <SCORE.INTER.CONST>
1

>  <SCORE.INTER.POLAR>
-6.37629

>  <SCORE.INTER.ROT>
6

>  <SCORE.INTER.SOLV>
30.7047

>  <SCORE.INTER.VDW>
-20.0111

>  <SCORE.INTER.norm>
-1.0983

>  <SCORE.INTRA>
-0.773082

>  <SCORE.INTRA.DIHEDRAL>
-5.52651

>  <SCORE.INTRA.DIHEDRAL.0>
22.9177

>  <SCORE.INTRA.POLAR>
0.0050831

>  <SCORE.INTRA.POLAR.0>
-0.311208

>  <SCORE.INTRA.REPUL>
0

>  <SCORE.INTRA.REPUL.0>
0

>  <SCORE.INTRA.SOLV>
-0.482542

>  <SCORE.INTRA.SOLV.lig_0>
-132.657

>  <SCORE.INTRA.VDW>
2.21416

>  <SCORE.INTRA.VDW.0>
-4.68867

>  <SCORE.INTRA.norm>
-0.0241588

>  <SCORE.RESTR>
0

>  <SCORE.RESTR.CAVITY>
0

>  <SCORE.RESTR.norm>
0

>  <SCORE.SYSTEM>
0

>  <SCORE.SYSTEM.CONST>
0

>  <SCORE.SYSTEM.DIHEDRAL>
0

>  <SCORE.SYSTEM.SOLV>
0

>  <SCORE.SYSTEM.norm>
0

>  <SCORE.heavy>
32

>  <SCORE.norm>
-1.12246

>  <RMSD>
3.719

$$$$
1tob
 OpenBabel11021811413D
libRbt.so/2013.1/901 2013/11/27
 32 34  0  0  0  0  0  0  0  0999 V2000
   -0.9893    4.5928    3.3824 C   0  0  2  0  0  0  0  0  0  0  0  0
   -0.2818    3.3538    2.8387 C   0  0  1  0  0  0  0  0  0  0  0  0
   -0.5313    2.1725    3.7663 C   0  0  2  0  0  0  0  0  0  0  0  0
   -0.0913    2.5369    5.1791 C   0  0  1  0  0  0  0  0  0  0  0  0
   -0.8083    3.8048    5.6346 C   0  0  1  0  0  0  0  0  0  0  0  0
   -0.3546    4.2633    7.0066 C   0  0  0  0  0  0  0  0  0  0  0  0
   -0.7710    3.0540    1.5393 O   0  0  0  0  0  0  0  0  0  0  0  0
    0.1470    0.9542    3.2733 N   0  3  0  0  0  0  0  0  0  0  0  0
   -0.3839    1.4650    6.0654 O   0  0  0  0  0  0  0  0  0  0  0  0
   -0.5407    4.8831    4.7122 O   0  0  0  0  0  0  0  0  0  0  0  0
   -0.4780    3.2247    7.9680 O   0  0  0  0  0  0  0  0  0  0  0  0
   -4.2388    3.8336    2.0011 C   0  0  2  0  0  0  0  0  0  0  0  0
   -4.9851    4.2531    0.7420 C   0  0  0  0  0  0  0  0  0  0  0  0
   -5.4850    5.6921    0.8715 C   0  0  1  0  0  0  0  0  0  0  0  0
   -4.3004    6.6305    1.0908 C   0  0  2  0  0  0  0  0  0  0  0  0
   -3.5333    6.2189    2.3483 C   0  0  1  0  0  0  0  0  0  0  0  0
   -3.0618    4.7703    2.2256 C   0  0  1  0  0  0  0  0  0  0  0  0
   -3.7242    2.4530    1.8684 N   0  3  0  0  0  0  0  0  0  0  0  0
   -6.2832    6.0596   -0.3268 N   0  3  0  0  0  0  0  0  0  0  0  0
   -2.4157    7.0772    2.5335 O   0  0  0  0  0  0  0  0  0  0  0  0
   -2.3554    4.3840    3.4183 O   0  0  0  0  0  0  0  0  0  0  0  0
   -3.7785    8.9724    1.1741 C   0  0  1  0  0  0  0  0  0  0  0  0
   -4.4069   10.3582    1.3306 C   0  0  1  0  0  0  0  0  0  0  0  0
   -5.3457   10.6458    0.1686 C   0  0  0  0  0  0  0  0  0  0  0  0
   -4.5887   10.4824   -1.1393 C   0  0  1  0  0  0  0  0  0  0  0  0
   -3.9747    9.0846   -1.2090 C   0  0  1  0  0  0  0  0  0  0  0  0
   -3.1518    8.8693   -2.4662 C   0  0  0  0  0  0  0  0  0  0  0  0
   -5.0874   10.4910    2.6404 N   0  3  0  0  0  0  0  0  0  0  0  0
   -1.8237    9.5200   -2.3642 N   0  3  0  0  0  0  0  0  0  0  0  0
   -4.7603    7.9915    1.2190 O   0  0  0  0  0  0  0  0  0  0  0  0
   -5.4679   10.6806   -2.2368 O   0  0  0  0  0  0  0  0  0  0  0  0
   -3.0971    8.8701   -0.0824 O   0  0  0  0  0  0  0  0  0  0  0  0
  1  2  1  0  0  0  0
  1 10  1  0  0  0  0
  1 21  1  1  0  0  0
  2  3  1  0  0  0  0
  2  7  1  6  0  0  0
  3  4  1  0  0  0  0
  3  8  1  6  0  0  0
  4  5  1  0  0  0  0
  4  9  1  1  0  0  0
  5  6  1  1  0  0  0
  5 10  1  0  0  0  0
  6 11  1  0  0  0  0
 12 13  1  0  0  0  0
 12 17  1  0  0  0  0
 12 18  1  6  0  0  0
 13 14  1  0  0  0  0
 14 15  1  0  0  0  0
 14 19  1  6  0  0  0
 15 16  1  0  0  0  0
 15 30  1  1  0  0  0
 16 17  1  0  0  0  0
 16 20  1  6  0  0  0
 17 21  1  1  0  0  0
 22 23  1  0  0  0  0
 22 30  1  6  0  0  0
 22 32  1  0  0  0  0
 23 24  1  0  0  0  0
 23 28  1  1  0  0  0
 24 25  1  0  0  0  0
 25 26  1  0  0  0  0
 25 31  1  6  0  0  0
 26 27  1  6  0  0  0
 26 32  1  0  0  0  0
 27 29  1  0  0  0  0
M  CHG  5   8   1  18   1  19   1  28   1  29   1
M  END
>  <CHROM.1>
-90.29569984,80.97789986,-156.02505966,66.06478805,-54.18893699,-78.29681106
-16.30768789,68.97473997,-168.49254006,84.79499871,146.49333717,-179.63694831
-49.15710377,-62.02105481,77.50032963,63.52285516,-2.82632016,5.96707965
2.04190910,-0.37653302,-1.12275919,0.47057840

>  <Name>
1tob

>  <RI>
0

>  <Rbt.Current_Directory>
/home/itssahil/PROJECTS/Mol_Feturizer/New_Systems/rnas/1tob

>  <Rbt.Executable>
rbdock ($Id: //depot/dev/client3/rdock/2013.1/src/exe/rbdock.cxx#4 $)

>  <Rbt.Library>
libRbt.so (2013.1, Build901 2013/11/27)

>  <Rbt.Parameter_File>
/export/apps/rDock/src/rDock_2013.1_src/data/scripts/dock_solv.prm

>  <Rbt.Receptor>
prm/pocket_docking_8.prm

>  <SCORE>
-52.0374

>  <SCORE.INTER>
-48.5269

>  <SCORE.INTER.CONST>
1

>  <SCORE.INTER.POLAR>
-7.82274

>  <SCORE.INTER.ROT>
6

>  <SCORE.INTER.SOLV>
21.4062

>  <SCORE.INTER.VDW>
-21.0109

>  <SCORE.INTER.norm>
-1.51646

>  <SCORE.INTRA>
-3.51055

>  <SCORE.INTRA.DIHEDRAL>
-2.08049

>  <SCORE.INTRA.DIHEDRAL.0>
22.9177

>  <SCORE.INTRA.POLAR>
-0.889793

>  <SCORE.INTRA.POLAR.0>
-0.311208

>  <SCORE.INTRA.REPUL>
0

>  <SCORE.INTRA.REPUL.0>
0

>  <SCORE.INTRA.SOLV>
-2.45324

>  <SCORE.INTRA.SOLV.lig_0>
-132.657

>  <SCORE.INTRA.VDW>
1.78161

>  <SCORE.INTRA.VDW.0>
-4.68867

>  <SCORE.INTRA.norm>
-0.109705

>  <SCORE.RESTR>
0

>  <SCORE.RESTR.CAVITY>
0

>  <SCORE.RESTR.norm>
0

>  <SCORE.SYSTEM>
0

>  <SCORE.SYSTEM.CONST>
0

>  <SCORE.SYSTEM.DIHEDRAL>
0

>  <SCORE.SYSTEM.SOLV>
0

>  <SCORE.SYSTEM.norm>
0

>  <SCORE.heavy>
32

>  <SCORE.norm>
-1.62617

>  <RMSD>
3.724

$$$$
1tob
 OpenBabel11021811413D
libRbt.so/2013.1/901 2013/11/27
 32 34  0  0  0  0  0  0  0  0999 V2000
   -1.9720    4.2241    2.9179 C   0  0  2  0  0  0  0  0  0  0  0  0
   -2.1096    3.0354    1.9696 C   0  0  1  0  0  0  0  0  0  0  0  0
   -1.8402    1.7419    2.7263 C   0  0  2  0  0  0  0  0  0  0  0  0
   -0.4697    1.8192    3.3884 C   0  0  1  0  0  0  0  0  0  0  0  0
   -0.3959    3.0522    4.2849 C   0  0  1  0  0  0  0  0  0  0  0  0
    0.9725    3.2274    4.9138 C   0  0  0  0  0  0  0  0  0  0  0  0
   -3.4207    3.0067    1.4239 O   0  0  0  0  0  0  0  0  0  0  0  0
   -1.9577    0.5676    1.8349 N   0  3  0  0  0  0  0  0  0  0  0  0
   -0.2385    0.6441    4.1538 O   0  0  0  0  0  0  0  0  0  0  0  0
   -0.6685    4.2419    3.5134 O   0  0  0  0  0  0  0  0  0  0  0  0
    2.0027    3.1778    3.9369 O   0  0  0  0  0  0  0  0  0  0  0  0
   -2.9034    6.5014    4.4557 C   0  0  2  0  0  0  0  0  0  0  0  0
   -3.7982    7.7243    4.6038 C   0  0  0  0  0  0  0  0  0  0  0  0
   -4.5406    8.0047    3.2970 C   0  0  1  0  0  0  0  0  0  0  0  0
   -5.3966    6.7969    2.9222 C   0  0  2  0  0  0  0  0  0  0  0  0
   -4.5145    5.5559    2.7769 C   0  0  1  0  0  0  0  0  0  0  0  0
   -3.7524    5.2979    4.0763 C   0  0  1  0  0  0  0  0  0  0  0  0
   -2.2075    6.2056    5.7272 N   0  3  0  0  0  0  0  0  0  0  0  0
   -5.3438    9.2479    3.4288 N   0  3  0  0  0  0  0  0  0  0  0  0
   -5.3181    4.4285    2.4556 O   0  0  0  0  0  0  0  0  0  0  0  0
   -2.9122    4.1391    3.9277 O   0  0  0  0  0  0  0  0  0  0  0  0
   -7.1074    6.1488    1.3675 C   0  0  1  0  0  0  0  0  0  0  0  0
   -7.3770    6.1697   -0.1381 C   0  0  1  0  0  0  0  0  0  0  0  0
   -7.8811    7.5402   -0.5647 C   0  0  0  0  0  0  0  0  0  0  0  0
   -9.1039    7.9036    0.2617 C   0  0  1  0  0  0  0  0  0  0  0  0
   -8.7595    7.8384    1.7492 C   0  0  1  0  0  0  0  0  0  0  0  0
   -9.9530    8.1336    2.6395 C   0  0  0  0  0  0  0  0  0  0  0  0
   -6.1754    5.7576   -0.9014 N   0  3  0  0  0  0  0  0  0  0  0  0
   -9.5525    8.2573    4.0614 N   0  3  0  0  0  0  0  0  0  0  0  0
   -6.0989    7.0480    1.6876 O   0  0  0  0  0  0  0  0  0  0  0  0
   -9.5471    9.2098   -0.0762 O   0  0  0  0  0  0  0  0  0  0  0  0
   -8.2867    6.5179    2.0929 O   0  0  0  0  0  0  0  0  0  0  0  0
  1  2  1  0  0  0  0
  1 10  1  0  0  0  0
  1 21  1  1  0  0  0
  2  3  1  0  0  0  0
  2  7  1  1  0  0  0
  3  4  1  0  0  0  0
  3  8  1  6  0  0  0
  4  5  1  0  0  0  0
  4  9  1  1  0  0  0
  5  6  1  6  0  0  0
  5 10  1  0  0  0  0
  6 11  1  0  0  0  0
 12 13  1  0  0  0  0
 12 17  1  0  0  0  0
 12 18  1  1  0  0  0
 13 14  1  0  0  0  0
 14 15  1  0  0  0  0
 14 19  1  1  0  0  0
 15 16  1  0  0  0  0
 15 30  1  6  0  0  0
 16 17  1  0  0  0  0
 16 20  1  1  0  0  0
 17 21  1  6  0  0  0
 22 23  1  0  0  0  0
 22 30  1  6  0  0  0
 22 32  1  0  0  0  0
 23 24  1  0  0  0  0
 23 28  1  6  0  0  0
 24 25  1  0  0  0  0
 25 26  1  0  0  0  0
 25 31  1  6  0  0  0
 26 27  1  1  0  0  0
 26 32  1  0  0  0  0
 27 29  1  0  0  0  0
M  CHG  5   8   1  18   1  19   1  28   1  29   1
M  END
>  <CHROM.1>
-125.38804524,175.05055935,-114.97649198,-57.35984191,51.47636574,178.07921990
-70.92003524,48.48927724,-167.81256235,-102.73887853,-62.90476373,-157.47469969
-173.46006910,176.25309600,-171.77145764,-168.13161322,-4.38528492,5.39018774
2.66114525,0.25809696,0.57507576,-2.43093296

>  <Name>
1tob

>  <RI>
0

>  <Rbt.Current_Directory>
/home/itssahil/PROJECTS/Mol_Feturizer/New_Systems/rnas/1tob

>  <Rbt.Executable>
rbdock ($Id: //depot/dev/client3/rdock/2013.1/src/exe/rbdock.cxx#4 $)

>  <Rbt.Library>
libRbt.so (2013.1, Build901 2013/11/27)

>  <Rbt.Parameter_File>
/export/apps/rDock/src/rDock_2013.1_src/data/scripts/dock_solv.prm

>  <Rbt.Receptor>
prm/pocket_docking_3.prm

>  <SCORE>
-44.4077

>  <SCORE.INTER>
-46.0221

>  <SCORE.INTER.CONST>
1

>  <SCORE.INTER.POLAR>
-7.09591

>  <SCORE.INTER.ROT>
6

>  <SCORE.INTER.SOLV>
32.0506

>  <SCORE.INTER.VDW>
-25.3119

>  <SCORE.INTER.norm>
-1.43819

>  <SCORE.INTRA>
1.11434

>  <SCORE.INTRA.DIHEDRAL>
-1.76172

>  <SCORE.INTRA.DIHEDRAL.0>
22.9177

>  <SCORE.INTRA.POLAR>
0.301954

>  <SCORE.INTRA.POLAR.0>
-0.311208

>  <SCORE.INTRA.REPUL>
0

>  <SCORE.INTRA.REPUL.0>
0

>  <SCORE.INTRA.SOLV>
-3.41671

>  <SCORE.INTRA.SOLV.lig_0>
-132.657

>  <SCORE.INTRA.VDW>
2.67692

>  <SCORE.INTRA.VDW.0>
-4.68867

>  <SCORE.INTRA.norm>
0.0348232

>  <SCORE.RESTR>
0.500065

>  <SCORE.RESTR.CAVITY>
0.500065

>  <SCORE.RESTR.norm>
0.015627

>  <SCORE.SYSTEM>
0

>  <SCORE.SYSTEM.CONST>
0

>  <SCORE.SYSTEM.DIHEDRAL>
0

>  <SCORE.SYSTEM.SOLV>
0

>  <SCORE.SYSTEM.norm>
0

>  <SCORE.heavy>
32

>  <SCORE.norm>
-1.38774

>  <RMSD>
3.742

$$$$
1tob
 OpenBabel11021811413D
libRbt.so/2013.1/901 2013/11/27
 32 34  0  0  0  0  0  0  0  0999 V2000
   -3.4534    5.2235    1.4950 C   0  0  2  0  0  0  0  0  0  0  0  0
   -3.0615    3.8176    1.0466 C   0  0  1  0  0  0  0  0  0  0  0  0
   -3.0507    2.8809    2.2470 C   0  0  2  0  0  0  0  0  0  0  0  0
   -2.1249    3.4431    3.3191 C   0  0  1  0  0  0  0  0  0  0  0  0
   -2.5545    4.8617    3.6831 C   0  0  1  0  0  0  0  0  0  0  0  0
   -1.6238    5.5057    4.6919 C   0  0  0  0  0  0  0  0  0  0  0  0
   -3.9896    3.3466    0.0800 O   0  0  0  0  0  0  0  0  0  0  0  0
   -2.6672    1.5089    1.8500 N   0  3  0  0  0  0  0  0  0  0  0  0
   -2.1616    2.6110    4.4707 O   0  0  0  0  0  0  0  0  0  0  0  0
   -2.5532    5.6967    2.5049 O   0  0  0  0  0  0  0  0  0  0  0  0
   -2.2378    5.6152    5.9682 O   0  0  0  0  0  0  0  0  0  0  0  0
   -4.7168    7.1069    3.5313 C   0  0  2  0  0  0  0  0  0  0  0  0
   -5.3161    8.4859    3.7712 C   0  0  0  0  0  0  0  0  0  0  0  0
   -5.0190    9.4105    2.5904 C   0  0  1  0  0  0  0  0  0  0  0  0
   -5.6108    8.8196    1.3127 C   0  0  2  0  0  0  0  0  0  0  0  0
   -5.0256    7.4294    1.0597 C   0  0  1  0  0  0  0  0  0  0  0  0
   -5.2998    6.5183    2.2558 C   0  0  1  0  0  0  0  0  0  0  0  0
   -5.0293    6.1981    4.6560 N   0  3  0  0  0  0  0  0  0  0  0  0
   -5.5351   10.7746    2.8744 N   0  3  0  0  0  0  0  0  0  0  0  0
   -5.5995    6.8714   -0.1147 O   0  0  0  0  0  0  0  0  0  0  0  0
   -4.7326    5.2172    2.0187 O   0  0  0  0  0  0  0  0  0  0  0  0
   -6.0531    9.4232   -0.9685 C   0  0  1  0  0  0  0  0  0  0  0  0
   -5.6930   10.4395   -2.0536 C   0  0  1  0  0  0  0  0  0  0  0  0
   -6.0870   11.8417   -1.6145 C   0  0  0  0  0  0  0  0  0  0  0  0
   -7.5635   11.8574   -1.2539 C   0  0  1  0  0  0  0  0  0  0  0  0
   -7.8447   10.8032   -0.1838 C   0  0  1  0  0  0  0  0  0  0  0  0
   -9.3149   10.7214    0.1847 C   0  0  0  0  0  0  0  0  0  0  0  0
   -4.2575   10.3523   -2.4115 N   0  3  0  0  0  0  0  0  0  0  0  0
  -10.1330   10.2320   -0.9506 N   0  3  0  0  0  0  0  0  0  0  0  0
   -5.3328    9.6816    0.1901 O   0  0  0  0  0  0  0  0  0  0  0  0
   -7.9327   13.1429   -0.7765 O   0  0  0  0  0  0  0  0  0  0  0  0
   -7.4496    9.4971   -0.6564 O   0  0  0  0  0  0  0  0  0  0  0  0
  1  2  1  0  0  0  0
  1 10  1  0  0  0  0
  1 21  1  1  0  0  0
  2  3  1  0  0  0  0
  2  7  1  6  0  0  0
  3  4  1  0  0  0  0
  3  8  1  6  0  0  0
  4  5  1  0  0  0  0
  4  9  1  1  0  0  0
  5  6  1  1  0  0  0
  5 10  1  0  0  0  0
  6 11  1  0  0  0  0
 12 13  1  0  0  0  0
 12 17  1  0  0  0  0
 12 18  1  1  0  0  0
 13 14  1  0  0  0  0
 14 15  1  0  0  0  0
 14 19  1  1  0  0  0
 15 16  1  0  0  0  0
 15 30  1  6  0  0  0
 16 17  1  0  0  0  0
 16 20  1  6  0  0  0
 17 21  1  6  0  0  0
 22 23  1  0  0  0  0
 22 30  1  1  0  0  0
 22 32  1  0  0  0  0
 23 24  1  0  0  0  0
 23 28  1  1  0  0  0
 24 25  1  0  0  0  0
 25 26  1  0  0  0  0
 25 31  1  1  0  0  0
 26 27  1  6  0  0  0
 26 32  1  0  0  0  0
 27 29  1  0  0  0  0
M  CHG  5   8   1  18   1  19   1  28   1  29   1
M  END
>  <CHROM.1>
-169.48235436,-82.36096789,-15.82813338,76.76662300,-108.17406244,-165.27064246
-99.38207452,-60.93772990,-166.39787255,167.58579937,-77.72880003,178.01699922
-63.86276937,169.43834217,66.07495824,68.02327824,-4.97497795,7.45406651
1.40848875,0.00321810,1.06137506,-2.08589707

>  <Name>
1tob

>  <RI>
0

>  <Rbt.Current_Directory>
/home/itssahil/PROJECTS/Mol_Feturizer/New_Systems/rnas/1tob

>  <Rbt.Executable>
rbdock ($Id: //depot/dev/client3/rdock/2013.1/src/exe/rbdock.cxx#4 $)

>  <Rbt.Library>
libRbt.so (2013.1, Build901 2013/11/27)

>  <Rbt.Parameter_File>
/export/apps/rDock/src/rDock_2013.1_src/data/scripts/dock_solv.prm

>  <Rbt.Receptor>
prm/pocket_docking_7.prm

>  <SCORE>
-52.6626

>  <SCORE.INTER>
-50.0585

>  <SCORE.INTER.CONST>
1

>  <SCORE.INTER.POLAR>
-9.42866

>  <SCORE.INTER.ROT>
6

>  <SCORE.INTER.SOLV>
21.8164

>  <SCORE.INTER.VDW>
-16.8156

>  <SCORE.INTER.norm>
-1.56433

>  <SCORE.INTRA>
-2.6041

>  <SCORE.INTRA.DIHEDRAL>
-3.57834

>  <SCORE.INTRA.DIHEDRAL.0>
22.9177

>  <SCORE.INTRA.POLAR>
-0.931841

>  <SCORE.INTRA.POLAR.0>
-0.311208

>  <SCORE.INTRA.REPUL>
0

>  <SCORE.INTRA.REPUL.0>
0

>  <SCORE.INTRA.SOLV>
-0.832104

>  <SCORE.INTRA.SOLV.lig_0>
-132.657

>  <SCORE.INTRA.VDW>
2.76938

>  <SCORE.INTRA.VDW.0>
-4.68867

>  <SCORE.INTRA.norm>
-0.0813781

>  <SCORE.RESTR>
0

>  <SCORE.RESTR.CAVITY>
0

>  <SCORE.RESTR.norm>
0

>  <SCORE.SYSTEM>
0

>  <SCORE.SYSTEM.CONST>
0

>  <SCORE.SYSTEM.DIHEDRAL>
0

>  <SCORE.SYSTEM.SOLV>
0

>  <SCORE.SYSTEM.norm>
0

>  <SCORE.heavy>
32

>  <SCORE.norm>
-1.64571

>  <RMSD>
3.754

$$$$
1tob
 OpenBabel11021811413D
libRbt.so/2013.1/901 2013/11/27
 32 34  0  0  0  0  0  0  0  0999 V2000
   -4.7484    5.8485    1.7238 C   0  0  2  0  0  0  0  0  0  0  0  0
   -4.1483    4.6585    0.9790 C   0  0  1  0  0  0  0  0  0  0  0  0
   -2.8825    4.1956    1.6874 C   0  0  2  0  0  0  0  0  0  0  0  0
   -1.9161    5.3672    1.8136 C   0  0  1  0  0  0  0  0  0  0  0  0
   -2.6002    6.5287    2.5293 C   0  0  1  0  0  0  0  0  0  0  0  0
   -1.7132    7.7550    2.6178 C   0  0  0  0  0  0  0  0  0  0  0  0
   -5.0893    3.5954    0.9366 O   0  0  0  0  0  0  0  0  0  0  0  0
   -2.2690    3.0462    0.9874 N   0  3  0  0  0  0  0  0  0  0  0  0
   -0.7603    4.9617    2.5345 O   0  0  0  0  0  0  0  0  0  0  0  0
   -3.7950    6.9146    1.8161 O   0  0  0  0  0  0  0  0  0  0  0  0
   -2.3210    8.7805    3.3903 O   0  0  0  0  0  0  0  0  0  0  0  0
   -4.6338    7.2961    4.5261 C   0  0  2  0  0  0  0  0  0  0  0  0
   -5.2795    8.3994    5.3531 C   0  0  0  0  0  0  0  0  0  0  0  0
   -6.0805    9.3418    4.4543 C   0  0  1  0  0  0  0  0  0  0  0  0
   -7.1686    8.5565    3.7255 C   0  0  2  0  0  0  0  0  0  0  0  0
   -6.5383    7.4375    2.8949 C   0  0  1  0  0  0  0  0  0  0  0  0
   -5.7148    6.5159    3.7940 C   0  0  1  0  0  0  0  0  0  0  0  0
   -3.8844    6.3620    5.3947 N   0  3  0  0  0  0  0  0  0  0  0  0
   -6.6343   10.4601    5.2609 N   0  3  0  0  0  0  0  0  0  0  0  0
   -7.5558    6.6917    2.2404 O   0  0  0  0  0  0  0  0  0  0  0  0
   -5.1112    5.4752    3.0044 O   0  0  0  0  0  0  0  0  0  0  0  0
   -9.1805    8.9748    2.4840 C   0  0  1  0  0  0  0  0  0  0  0  0
   -9.4376    9.3107    1.0140 C   0  0  1  0  0  0  0  0  0  0  0  0
   -9.4608   10.8186    0.8138 C   0  0  0  0  0  0  0  0  0  0  0  0
  -10.4882   11.4325    1.7508 C   0  0  1  0  0  0  0  0  0  0  0  0
  -10.1754   11.0335    3.1925 C   0  0  1  0  0  0  0  0  0  0  0  0
  -11.1974   11.5644    4.1813 C   0  0  0  0  0  0  0  0  0  0  0  0
   -8.4459    8.6488    0.1337 N   0  3  0  0  0  0  0  0  0  0  0  0
  -12.4892   10.8464    4.0653 N   0  3  0  0  0  0  0  0  0  0  0  0
   -7.9286    9.4349    2.8703 O   0  0  0  0  0  0  0  0  0  0  0  0
  -10.4747   12.8471    1.6258 O   0  0  0  0  0  0  0  0  0  0  0  0
  -10.1656    9.5950    3.3195 O   0  0  0  0  0  0  0  0  0  0  0  0
  1  2  1  0  0  0  0
  1 10  1  0  0  0  0
  1 21  1  1  0  0  0
  2  3  1  0  0  0  0
  2  7  1  1  0  0  0
  3  4  1  0  0  0  0
  3  8  1  6  0  0  0
  4  5  1  0  0  0  0
  4  9  1  1  0  0  0
  5  6  1  6  0  0  0
  5 10  1  0  0  0  0
  6 11  1  0  0  0  0
 12 13  1  0  0  0  0
 12 17  1  0  0  0  0
 12 18  1  1  0  0  0
 13 14  1  0  0  0  0
 14 15  1  0  0  0  0
 14 19  1  1  0  0  0
 15 16  1  0  0  0  0
 15 30  1  6  0  0  0
 16 17  1  0  0  0  0
 16 20  1  1  0  0  0
 17 21  1  6  0  0  0
 22 23  1  0  0  0  0
 22 30  1  1  0  0  0
 22 32  1  0  0  0  0
 23 24  1  0  0  0  0
 23 28  1  6  0  0  0
 24 25  1  0  0  0  0
 25 26  1  0  0  0  0
 25 31  1  1  0  0  0
 26 27  1  1  0  0  0
 26 32  1  0  0  0  0
 27 29  1  0  0  0  0
M  CHG  5   8   1  18   1  19   1  28   1  29   1
M  END
>  <CHROM.1>
-178.86201842,72.66911369,-138.50979240,-55.82585854,-174.73331429,-170.38423730
160.85407382,-36.74045209,-160.31690726,-166.36777087,-88.54623637,-139.40856902
159.33540699,59.41333963,71.88886415,-170.48426942,-6.25455110,7.88407070
2.71940058,0.47306393,0.45219675,-2.34611174

>  <Name>
1tob

>  <RI>
0

>  <Rbt.Current_Directory>
/home/itssahil/PROJECTS/Mol_Feturizer/New_Systems/rnas/1tob

>  <Rbt.Executable>
rbdock ($Id: //depot/dev/client3/rdock/2013.1/src/exe/rbdock.cxx#4 $)

>  <Rbt.Library>
libRbt.so (2013.1, Build901 2013/11/27)

>  <Rbt.Parameter_File>
/export/apps/rDock/src/rDock_2013.1_src/data/scripts/dock_solv.prm

>  <Rbt.Receptor>
prm/pocket_docking_4.prm

>  <SCORE>
-29.4218

>  <SCORE.INTER>
-28.2412

>  <SCORE.INTER.CONST>
1

>  <SCORE.INTER.POLAR>
-4.74573

>  <SCORE.INTER.ROT>
6

>  <SCORE.INTER.SOLV>
25.3721

>  <SCORE.INTER.VDW>
-19.0657

>  <SCORE.INTER.norm>
-0.882537

>  <SCORE.INTRA>
-1.18064

>  <SCORE.INTRA.DIHEDRAL>
-3.64873

>  <SCORE.INTRA.DIHEDRAL.0>
22.9177

>  <SCORE.INTRA.POLAR>
-0.779863

>  <SCORE.INTRA.POLAR.0>
-0.311208

>  <SCORE.INTRA.REPUL>
0

>  <SCORE.INTRA.REPUL.0>
0

>  <SCORE.INTRA.SOLV>
-0.401696

>  <SCORE.INTRA.SOLV.lig_0>
-132.657

>  <SCORE.INTRA.VDW>
3.49611

>  <SCORE.INTRA.VDW.0>
-4.68867

>  <SCORE.INTRA.norm>
-0.0368949

>  <SCORE.RESTR>
0

>  <SCORE.RESTR.CAVITY>
0

>  <SCORE.RESTR.norm>
0

>  <SCORE.SYSTEM>
0

>  <SCORE.SYSTEM.CONST>
0

>  <SCORE.SYSTEM.DIHEDRAL>
0

>  <SCORE.SYSTEM.SOLV>
0

>  <SCORE.SYSTEM.norm>
0

>  <SCORE.heavy>
32

>  <SCORE.norm>
-0.919432

>  <RMSD>
3.760

$$$$
1tob
 OpenBabel11021811413D
libRbt.so/2013.1/901 2013/11/27
 32 34  0  0  0  0  0  0  0  0999 V2000
   -1.8063    4.2955    3.0916 C   0  0  2  0  0  0  0  0  0  0  0  0
   -1.9415    3.2465    1.9904 C   0  0  1  0  0  0  0  0  0  0  0  0
   -1.7360    1.8570    2.5780 C   0  0  2  0  0  0  0  0  0  0  0  0
   -0.3893    1.8026    3.2894 C   0  0  1  0  0  0  0  0  0  0  0  0
   -0.3147    2.9043    4.3429 C   0  0  1  0  0  0  0  0  0  0  0  0
    1.0338    2.9514    5.0342 C   0  0  0  0  0  0  0  0  0  0  0  0
   -3.2318    3.3319    1.4028 O   0  0  0  0  0  0  0  0  0  0  0  0
   -1.8528    0.8141    1.5358 N   0  3  0  0  0  0  0  0  0  0  0  0
   -0.2190    0.5304    3.8998 O   0  0  0  0  0  0  0  0  0  0  0  0
   -0.5257    4.1931    3.7269 O   0  0  0  0  0  0  0  0  0  0  0  0
    2.0861    3.1679    4.1049 O   0  0  0  0  0  0  0  0  0  0  0  0
   -2.9260    6.4619    4.6007 C   0  0  2  0  0  0  0  0  0  0  0  0
   -3.8967    7.6239    4.7617 C   0  0  0  0  0  0  0  0  0  0  0  0
   -4.6576    7.8690    3.4584 C   0  0  1  0  0  0  0  0  0  0  0  0
   -5.4355    6.6128    3.0728 C   0  0  2  0  0  0  0  0  0  0  0  0
   -4.4764    5.4320    2.9144 C   0  0  1  0  0  0  0  0  0  0  0  0
   -3.6973    5.2105    4.2105 C   0  0  1  0  0  0  0  0  0  0  0  0
   -2.2105    6.1989    5.8685 N   0  3  0  0  0  0  0  0  0  0  0  0
   -5.5382    9.0571    3.6032 N   0  3  0  0  0  0  0  0  0  0  0  0
   -5.2071    4.2588    2.5830 O   0  0  0  0  0  0  0  0  0  0  0  0
   -2.7851    4.1091    4.0498 O   0  0  0  0  0  0  0  0  0  0  0  0
   -7.3238    6.0990    1.6820 C   0  0  1  0  0  0  0  0  0  0  0  0
   -7.3785    5.4867    0.2813 C   0  0  1  0  0  0  0  0  0  0  0  0
   -7.4185    6.5832   -0.7725 C   0  0  0  0  0  0  0  0  0  0  0  0
   -8.5872    7.5116   -0.4851 C   0  0  1  0  0  0  0  0  0  0  0  0
   -8.4715    8.0626    0.9356 C   0  0  1  0  0  0  0  0  0  0  0  0
   -9.6398    8.9548    1.3139 C   0  0  0  0  0  0  0  0  0  0  0  0
   -6.2517    4.5488    0.0643 N   0  3  0  0  0  0  0  0  0  0  0  0
   -9.6185   10.2284    0.5554 N   0  3  0  0  0  0  0  0  0  0  0  0
   -6.1544    6.8306    1.8414 O   0  0  0  0  0  0  0  0  0  0  0  0
   -8.5988    8.5806   -1.4200 O   0  0  0  0  0  0  0  0  0  0  0  0
   -8.4364    6.9780    1.8884 O   0  0  0  0  0  0  0  0  0  0  0  0
  1  2  1  0  0  0  0
  1 10  1  0  0  0  0
  1 21  1  1  0  0  0
  2  3  1  0  0  0  0
  2  7  1  1  0  0  0
  3  4  1  0  0  0  0
  3  8  1  6  0  0  0
  4  5  1  0  0  0  0
  4  9  1  1  0  0  0
  5  6  1  6  0  0  0
  5 10  1  0  0  0  0
  6 11  1  0  0  0  0
 12 13  1  0  0  0  0
 12 17  1  0  0  0  0
 12 18  1  1  0  0  0
 13 14  1  0  0  0  0
 14 15  1  0  0  0  0
 14 19  1  1  0  0  0
 15 16  1  0  0  0  0
 15 30  1  6  0  0  0
 16 17  1  0  0  0  0
 16 20  1  1  0  0  0
 17 21  1  6  0  0  0
 22 23  1  0  0  0  0
 22 30  1  6  0  0  0
 22 32  1  0  0  0  0
 23 24  1  0  0  0  0
 23 28  1  6  0  0  0
 24 25  1  0  0  0  0
 25 26  1  0  0  0  0
 25 31  1  6  0  0  0
 26 27  1  1  0  0  0
 26 32  1  0  0  0  0
 27 29  1  0  0  0  0
M  CHG  5   8   1  18   1  19   1  28   1  29   1
M  END
>  <CHROM.1>
-118.39122527,-178.81081027,-76.30138675,70.60450276,58.91183001,-179.73418976
-74.43039710,-66.63596710,-151.32191763,177.33466929,-59.36928394,-134.15272296
144.32324224,-50.31952788,-69.11899340,168.11432151,-4.28353388,5.35378541
2.48299959,-0.24156301,-0.62870357,0.65640653

>  <Name>
1tob

>  <RI>
0

>  <Rbt.Current_Directory>
/home/itssahil/PROJECTS/Mol_Feturizer/New_Systems/rnas/1tob

>  <Rbt.Executable>
rbdock ($Id: //depot/dev/client3/rdock/2013.1/src/exe/rbdock.cxx#4 $)

>  <Rbt.Library>
libRbt.so (2013.1, Build901 2013/11/27)

>  <Rbt.Parameter_File>
/export/apps/rDock/src/rDock_2013.1_src/data/scripts/dock_solv.prm

>  <Rbt.Receptor>
prm/pocket_docking_6.prm

>  <SCORE>
-41.1367

>  <SCORE.INTER>
-36.6305

>  <SCORE.INTER.CONST>
1

>  <SCORE.INTER.POLAR>
-5.29199

>  <SCORE.INTER.ROT>
6

>  <SCORE.INTER.SOLV>
28.7562

>  <SCORE.INTER.VDW>
-23.9658

>  <SCORE.INTER.norm>
-1.1447

>  <SCORE.INTRA>
-4.50622

>  <SCORE.INTRA.DIHEDRAL>
-0.857194

>  <SCORE.INTRA.DIHEDRAL.0>
22.9177

>  <SCORE.INTRA.POLAR>
-1.97619

>  <SCORE.INTRA.POLAR.0>
-0.311208

>  <SCORE.INTRA.REPUL>
0

>  <SCORE.INTRA.REPUL.0>
0

>  <SCORE.INTRA.SOLV>
1.51745

>  <SCORE.INTRA.SOLV.lig_0>
-132.657

>  <SCORE.INTRA.VDW>
1.8827

>  <SCORE.INTRA.VDW.0>
-4.68867

>  <SCORE.INTRA.norm>
-0.140819

>  <SCORE.RESTR>
0

>  <SCORE.RESTR.CAVITY>
0

>  <SCORE.RESTR.norm>
0

>  <SCORE.SYSTEM>
0

>  <SCORE.SYSTEM.CONST>
0

>  <SCORE.SYSTEM.DIHEDRAL>
0

>  <SCORE.SYSTEM.SOLV>
0

>  <SCORE.SYSTEM.norm>
0

>  <SCORE.heavy>
32

>  <SCORE.norm>
-1.28552

>  <RMSD>
3.762

$$$$
1tob
 OpenBabel11021811413D
libRbt.so/2013.1/901 2013/11/27
 32 34  0  0  0  0  0  0  0  0999 V2000
   -4.4413    6.5220    1.1766 C   0  0  2  0  0  0  0  0  0  0  0  0
   -3.9855    5.0690    1.2867 C   0  0  1  0  0  0  0  0  0  0  0  0
   -3.5812    4.7659    2.7230 C   0  0  2  0  0  0  0  0  0  0  0  0
   -2.5150    5.7593    3.1688 C   0  0  1  0  0  0  0  0  0  0  0  0
   -3.0280    7.1855    2.9901 C   0  0  1  0  0  0  0  0  0  0  0  0
   -1.9820    8.2239    3.3450 C   0  0  0  0  0  0  0  0  0  0  0  0
   -5.0416    4.2042    0.8938 O   0  0  0  0  0  0  0  0  0  0  0  0
   -3.1261    3.3659    2.8652 N   0  3  0  0  0  0  0  0  0  0  0  0
   -2.1810    5.5272    4.5307 O   0  0  0  0  0  0  0  0  0  0  0  0
   -3.4026    7.4077    1.6133 O   0  0  0  0  0  0  0  0  0  0  0  0
   -2.4734    9.5427    3.1517 O   0  0  0  0  0  0  0  0  0  0  0  0
   -7.9233    6.8802    1.4855 C   0  0  2  0  0  0  0  0  0  0  0  0
   -8.9921    7.7716    0.8678 C   0  0  0  0  0  0  0  0  0  0  0  0
   -9.0385    9.1231    1.5811 C   0  0  1  0  0  0  0  0  0  0  0  0
   -7.6806    9.8121    1.4668 C   0  0  2  0  0  0  0  0  0  0  0  0
   -6.5922    8.9267    2.0757 C   0  0  1  0  0  0  0  0  0  0  0  0
   -6.5703    7.5668    1.3787 C   0  0  1  0  0  0  0  0  0  0  0  0
   -7.8512    5.5831    0.7779 N   0  3  0  0  0  0  0  0  0  0  0  0
  -10.1408    9.9501    1.0253 N   0  3  0  0  0  0  0  0  0  0  0  0
   -5.3263    9.5589    1.9424 O   0  0  0  0  0  0  0  0  0  0  0  0
   -5.5557    6.7328    1.9670 O   0  0  0  0  0  0  0  0  0  0  0  0
   -8.3335   12.1224    1.4559 C   0  0  1  0  0  0  0  0  0  0  0  0
   -7.3195   13.2147    1.1115 C   0  0  1  0  0  0  0  0  0  0  0  0
   -6.7534   13.8287    2.3831 C   0  0  0  0  0  0  0  0  0  0  0  0
   -7.8972   14.3327    3.2481 C   0  0  1  0  0  0  0  0  0  0  0  0
   -8.8741   13.1914    3.5283 C   0  0  1  0  0  0  0  0  0  0  0  0
  -10.0763   13.6368    4.3410 C   0  0  0  0  0  0  0  0  0  0  0  0
   -6.2532   12.6929    0.2243 N   0  3  0  0  0  0  0  0  0  0  0  0
  -10.3840   12.6756    5.4269 N   0  3  0  0  0  0  0  0  0  0  0  0
   -7.7109   11.0872    2.1404 O   0  0  0  0  0  0  0  0  0  0  0  0
   -7.3903   14.8477    4.4707 O   0  0  0  0  0  0  0  0  0  0  0  0
   -9.3750   12.6495    2.2870 O   0  0  0  0  0  0  0  0  0  0  0  0
  1  2  1  0  0  0  0
  1 10  1  0  0  0  0
  1 21  1  1  0  0  0
  2  3  1  0  0  0  0
  2  7  1  1  0  0  0
  3  4  1  0  0  0  0
  3  8  1  6  0  0  0
  4  5  1  0  0  0  0
  4  9  1  1  0  0  0
  5  6  1  6  0  0  0
  5 10  1  0  0  0  0
  6 11  1  0  0  0  0
 12 13  1  0  0  0  0
 12 17  1  0  0  0  0
 12 18  1  6  0  0  0
 13 14  1  0  0  0  0
 14 15  1  0  0  0  0
 14 19  1  6  0  0  0
 15 16  1  0  0  0  0
 15 30  1  1  0  0  0
 16 17  1  0  0  0  0
 16 20  1  6  0  0  0
 17 21  1  1  0  0  0
 22 23  1  0  0  0  0
 22 30  1  1  0  0  0
 22 32  1  0  0  0  0
 23 24  1  0  0  0  0
 23 28  1  1  0  0  0
 24 25  1  0  0  0  0
 25 26  1  0  0  0  0
 25 31  1  1  0  0  0
 26 27  1  1  0  0  0
 26 32  1  0  0  0  0
 27 29  1  0  0  0  0
M  CHG  5   8   1  18   1  19   1  28   1  29   1
M  END
>  <CHROM.1>
-139.38075151,83.26522182,47.00364472,-56.59170174,179.08784012,71.48680685
173.80386946,174.92527624,-77.90657733,-58.12791439,129.77930087,-115.30983334
62.51303556,65.77354085,-135.27330085,64.93923076,-6.29397853,9.16673711
2.29362867,0.96013708,0.31007912,-2.85530872

>  <Name>
1tob

>  <RI>
0

>  <Rbt.Current_Directory>
/home/itssahil/PROJECTS/Mol_Feturizer/New_Systems/rnas/1tob

>  <Rbt.Executable>
rbdock ($Id: //depot/dev/client3/rdock/2013.1/src/exe/rbdock.cxx#4 $)

>  <Rbt.Library>
libRbt.so (2013.1, Build901 2013/11/27)

>  <Rbt.Parameter_File>
/export/apps/rDock/src/rDock_2013.1_src/data/scripts/dock_solv.prm

>  <Rbt.Receptor>
prm/pocket_docking_6.prm

>  <SCORE>
-27.3886

>  <SCORE.INTER>
-22.7983

>  <SCORE.INTER.CONST>
1

>  <SCORE.INTER.POLAR>
-4.46578

>  <SCORE.INTER.ROT>
6

>  <SCORE.INTER.SOLV>
10.1545

>  <SCORE.INTER.VDW>
-11.2978

>  <SCORE.INTER.norm>
-0.712447

>  <SCORE.INTRA>
-4.59033

>  <SCORE.INTRA.DIHEDRAL>
6.25685

>  <SCORE.INTRA.DIHEDRAL.0>
22.9177

>  <SCORE.INTRA.POLAR>
-1.85105

>  <SCORE.INTRA.POLAR.0>
-0.311208

>  <SCORE.INTRA.REPUL>
0

>  <SCORE.INTRA.REPUL.0>
0

>  <SCORE.INTRA.SOLV>
-2.21572

>  <SCORE.INTRA.SOLV.lig_0>
-132.657

>  <SCORE.INTRA.VDW>
-0.317316

>  <SCORE.INTRA.VDW.0>
-4.68867

>  <SCORE.INTRA.norm>
-0.143448

>  <SCORE.RESTR>
0

>  <SCORE.RESTR.CAVITY>
0

>  <SCORE.RESTR.norm>
0

>  <SCORE.SYSTEM>
0

>  <SCORE.SYSTEM.CONST>
0

>  <SCORE.SYSTEM.DIHEDRAL>
0

>  <SCORE.SYSTEM.SOLV>
0

>  <SCORE.SYSTEM.norm>
0

>  <SCORE.heavy>
32

>  <SCORE.norm>
-0.855895

>  <RMSD>
3.763

$$$$
1tob
 OpenBabel11021811413D
libRbt.so/2013.1/901 2013/11/27
 32 34  0  0  0  0  0  0  0  0999 V2000
   -2.2037    3.8378    4.1766 C   0  0  2  0  0  0  0  0  0  0  0  0
   -1.3635    4.2984    5.3654 C   0  0  1  0  0  0  0  0  0  0  0  0
    0.0112    3.6465    5.3050 C   0  0  2  0  0  0  0  0  0  0  0  0
   -0.1493    2.1324    5.2410 C   0  0  1  0  0  0  0  0  0  0  0  0
   -1.0329    1.7543    4.0553 C   0  0  1  0  0  0  0  0  0  0  0  0
   -1.2940    0.2627    3.9826 C   0  0  0  0  0  0  0  0  0  0  0  0
   -1.2250    5.7117    5.3356 O   0  0  0  0  0  0  0  0  0  0  0  0
    0.8512    4.0653    6.4479 N   0  3  0  0  0  0  0  0  0  0  0  0
    1.1263    1.5185    5.1149 O   0  0  0  0  0  0  0  0  0  0  0  0
   -2.3152    2.4090    4.1654 O   0  0  0  0  0  0  0  0  0  0  0  0
   -1.2773   -0.2022    2.6403 O   0  0  0  0  0  0  0  0  0  0  0  0
   -3.1233    3.1303    1.4590 C   0  0  2  0  0  0  0  0  0  0  0  0
   -4.0925    3.3705    0.3097 C   0  0  0  0  0  0  0  0  0  0  0  0
   -5.2081    4.3227    0.7415 C   0  0  1  0  0  0  0  0  0  0  0  0
   -4.6058    5.6559    1.1792 C   0  0  2  0  0  0  0  0  0  0  0  0
   -3.6224    5.4329    2.3292 C   0  0  1  0  0  0  0  0  0  0  0  0
   -2.5263    4.4574    1.9014 C   0  0  1  0  0  0  0  0  0  0  0  0
   -2.0233    2.2356    1.0370 N   0  3  0  0  0  0  0  0  0  0  0  0
   -6.1919    4.4814   -0.3607 N   0  3  0  0  0  0  0  0  0  0  0  0
   -3.0432    6.6721    2.7150 O   0  0  0  0  0  0  0  0  0  0  0  0
   -1.6139    4.2390    2.9925 O   0  0  0  0  0  0  0  0  0  0  0  0
   -6.4456    6.1315    2.6465 C   0  0  1  0  0  0  0  0  0  0  0  0
   -7.8696    6.6670    2.4864 C   0  0  1  0  0  0  0  0  0  0  0  0
   -7.8715    8.1870    2.5479 C   0  0  0  0  0  0  0  0  0  0  0  0
   -7.2108    8.6367    3.8409 C   0  0  1  0  0  0  0  0  0  0  0  0
   -5.8052    8.0442    3.9355 C   0  0  1  0  0  0  0  0  0  0  0  0
   -5.1047    8.4046    5.2330 C   0  0  0  0  0  0  0  0  0  0  0  0
   -8.4933    6.1608    1.2409 N   0  3  0  0  0  0  0  0  0  0  0  0
   -5.9095    9.3532    6.0394 N   0  3  0  0  0  0  0  0  0  0  0  0
   -5.6491    6.5616    1.5935 O   0  0  0  0  0  0  0  0  0  0  0  0
   -7.1427   10.0546    3.8832 O   0  0  0  0  0  0  0  0  0  0  0  0
   -5.8676    6.6030    3.8700 O   0  0  0  0  0  0  0  0  0  0  0  0
  1  2  1  0  0  0  0
  1 10  1  0  0  0  0
  1 21  1  6  0  0  0
  2  3  1  0  0  0  0
  2  7  1  6  0  0  0
  3  4  1  0  0  0  0
  3  8  1  1  0  0  0
  4  5  1  0  0  0  0
  4  9  1  6  0  0  0
  5  6  1  1  0  0  0
  5 10  1  0  0  0  0
  6 11  1  0  0  0  0
 12 13  1  0  0  0  0
 12 17  1  0  0  0  0
 12 18  1  6  0  0  0
 13 14  1  0  0  0  0
 14 15  1  0  0  0  0
 14 19  1  6  0  0  0
 15 16  1  0  0  0  0
 15 30  1  1  0  0  0
 16 17  1  0  0  0  0
 16 20  1  6  0  0  0
 17 21  1  1  0  0  0
 22 23  1  0  0  0  0
 22 30  1  6  0  0  0
 22 32  1  0  0  0  0
 23 24  1  0  0  0  0
 23 28  1  6  0  0  0
 24 25  1  0  0  0  0
 25 26  1  0  0  0  0
 25 31  1  6  0  0  0
 26 27  1  1  0  0  0
 26 32  1  0  0  0  0
 27 29  1  0  0  0  0
M  CHG  5   8   1  18   1  19   1  28   1  29   1
M  END
>  <CHROM.1>
-151.52327103,161.61395632,-54.41439366,178.75896858,-141.02724414,175.79231869
-25.56679570,81.50397080,59.30552349,-64.01319000,-68.39786307,-147.51735122
160.92977144,-51.60246976,-5.39540091,-52.67258381,-3.67609015,4.94926267
3.24115181,-0.39541147,-0.64692512,0.75248448

>  <Name>
1tob

>  <RI>
0

>  <Rbt.Current_Directory>
/home/itssahil/PROJECTS/Mol_Feturizer/New_Systems/rnas/1tob

>  <Rbt.Executable>
rbdock ($Id: //depot/dev/client3/rdock/2013.1/src/exe/rbdock.cxx#4 $)

>  <Rbt.Library>
libRbt.so (2013.1, Build901 2013/11/27)

>  <Rbt.Parameter_File>
/export/apps/rDock/src/rDock_2013.1_src/data/scripts/dock_solv.prm

>  <Rbt.Receptor>
prm/blind_docking_60.prm

>  <SCORE>
-35.8867

>  <SCORE.INTER>
-42.4029

>  <SCORE.INTER.CONST>
1

>  <SCORE.INTER.POLAR>
-6.52267

>  <SCORE.INTER.ROT>
6

>  <SCORE.INTER.SOLV>
37.197

>  <SCORE.INTER.VDW>
-26.5254

>  <SCORE.INTER.norm>
-1.32509

>  <SCORE.INTRA>
2.63352

>  <SCORE.INTRA.DIHEDRAL>
0.380705

>  <SCORE.INTRA.DIHEDRAL.0>
22.9177

>  <SCORE.INTRA.POLAR>
-1.39271

>  <SCORE.INTRA.POLAR.0>
-0.311208

>  <SCORE.INTRA.REPUL>
0

>  <SCORE.INTRA.REPUL.0>
0

>  <SCORE.INTRA.SOLV>
5.83348

>  <SCORE.INTRA.SOLV.lig_0>
-132.657

>  <SCORE.INTRA.VDW>
4.26165

>  <SCORE.INTRA.VDW.0>
-4.68867

>  <SCORE.INTRA.norm>
0.0822975

>  <SCORE.RESTR>
3.88272

>  <SCORE.RESTR.CAVITY>
3.88272

>  <SCORE.RESTR.norm>
0.121335

>  <SCORE.SYSTEM>
0

>  <SCORE.SYSTEM.CONST>
0

>  <SCORE.SYSTEM.DIHEDRAL>
0

>  <SCORE.SYSTEM.SOLV>
0

>  <SCORE.SYSTEM.norm>
0

>  <SCORE.heavy>
32

>  <SCORE.norm>
-1.12146

>  <RMSD>
3.780

$$$$
1tob
 OpenBabel11021811413D
libRbt.so/2013.1/901 2013/11/27
 32 34  0  0  0  0  0  0  0  0999 V2000
    0.2451    4.1713    3.9425 C   0  0  2  0  0  0  0  0  0  0  0  0
    1.6600    3.6121    3.8130 C   0  0  1  0  0  0  0  0  0  0  0  0
    1.8275    2.4201    4.7453 C   0  0  2  0  0  0  0  0  0  0  0  0
    1.4814    2.8389    6.1692 C   0  0  1  0  0  0  0  0  0  0  0  0
    0.0725    3.4243    6.2094 C   0  0  1  0  0  0  0  0  0  0  0  0
   -0.3026    3.9316    7.5879 C   0  0  0  0  0  0  0  0  0  0  0  0
    1.8947    3.2077    2.4718 O   0  0  0  0  0  0  0  0  0  0  0  0
    3.1917    1.8566    4.6514 N   0  3  0  0  0  0  0  0  0  0  0  0
    1.5685    1.7155    7.0354 O   0  0  0  0  0  0  0  0  0  0  0  0
   -0.0249    4.5420    5.3003 O   0  0  0  0  0  0  0  0  0  0  0  0
    0.6054    4.9262    8.0398 O   0  0  0  0  0  0  0  0  0  0  0  0
   -2.4331    2.4877    2.0570 C   0  0  2  0  0  0  0  0  0  0  0  0
   -3.4835    2.9810    1.0714 C   0  0  0  0  0  0  0  0  0  0  0  0
   -4.4544    3.9402    1.7605 C   0  0  1  0  0  0  0  0  0  0  0  0
   -3.6866    5.1364    2.3187 C   0  0  2  0  0  0  0  0  0  0  0  0
   -2.6205    4.6588    3.3059 C   0  0  1  0  0  0  0  0  0  0  0  0
   -1.6708    3.6775    2.6195 C   0  0  1  0  0  0  0  0  0  0  0  0
   -1.4712    1.5848    1.3878 N   0  3  0  0  0  0  0  0  0  0  0  0
   -5.5223    4.3471    0.8108 N   0  3  0  0  0  0  0  0  0  0  0  0
   -1.8897    5.7723    3.8019 O   0  0  0  0  0  0  0  0  0  0  0  0
   -0.6804    3.2193    3.5576 O   0  0  0  0  0  0  0  0  0  0  0  0
   -4.1262    7.3420    3.1589 C   0  0  1  0  0  0  0  0  0  0  0  0
   -5.1339    8.1571    3.9714 C   0  0  1  0  0  0  0  0  0  0  0  0
   -6.4456    8.2830    3.2112 C   0  0  0  0  0  0  0  0  0  0  0  0
   -6.1738    8.8750    1.8379 C   0  0  1  0  0  0  0  0  0  0  0  0
   -5.1447    8.0185    1.1010 C   0  0  1  0  0  0  0  0  0  0  0  0
   -4.7796    8.5840   -0.2595 C   0  0  0  0  0  0  0  0  0  0  0  0
   -5.3275    7.5751    5.3205 N   0  3  0  0  0  0  0  0  0  0  0  0
   -3.7280    7.7740   -0.9198 N   0  3  0  0  0  0  0  0  0  0  0  0
   -4.5921    6.0468    2.9757 O   0  0  0  0  0  0  0  0  0  0  0  0
   -7.3788    8.9362    1.0888 O   0  0  0  0  0  0  0  0  0  0  0  0
   -3.9253    7.9347    1.8700 O   0  0  0  0  0  0  0  0  0  0  0  0
  1  2  1  0  0  0  0
  1 10  1  0  0  0  0
  1 21  1  1  0  0  0
  2  3  1  0  0  0  0
  2  7  1  6  0  0  0
  3  4  1  0  0  0  0
  3  8  1  1  0  0  0
  4  5  1  0  0  0  0
  4  9  1  1  0  0  0
  5  6  1  1  0  0  0
  5 10  1  0  0  0  0
  6 11  1  0  0  0  0
 12 13  1  0  0  0  0
 12 17  1  0  0  0  0
 12 18  1  6  0  0  0
 13 14  1  0  0  0  0
 14 15  1  0  0  0  0
 14 19  1  6  0  0  0
 15 16  1  0  0  0  0
 15 30  1  1  0  0  0
 16 17  1  0  0  0  0
 16 20  1  6  0  0  0
 17 21  1  1  0  0  0
 22 23  1  0  0  0  0
 22 30  1  6  0  0  0
 22 32  1  0  0  0  0
 23 24  1  0  0  0  0
 23 28  1  1  0  0  0
 24 25  1  0  0  0  0
 25 26  1  0  0  0  0
 25 31  1  6  0  0  0
 26 27  1  6  0  0  0
 26 32  1  0  0  0  0
 27 29  1  0  0  0  0
M  CHG  5   8   1  18   1  19   1  28   1  29   1
M  END
>  <CHROM.1>
-130.57739368,-59.09213407,64.16391856,176.59195397,58.30950807,-176.90358708
86.16116589,-167.91870561,-160.71780883,-57.30426675,168.08165658,-175.04177795
-89.17756175,173.89017106,176.95766870,-174.34887410,-2.23703254,5.05224495
3.31500566,-0.13878629,0.72695873,-2.01988055

>  <Name>
1tob

>  <RI>
0

>  <Rbt.Current_Directory>
/home/itssahil/PROJECTS/Mol_Feturizer/New_Systems/rnas/1tob

>  <Rbt.Executable>
rbdock ($Id: //depot/dev/client3/rdock/2013.1/src/exe/rbdock.cxx#4 $)

>  <Rbt.Library>
libRbt.so (2013.1, Build901 2013/11/27)

>  <Rbt.Parameter_File>
/export/apps/rDock/src/rDock_2013.1_src/data/scripts/dock_solv.prm

>  <Rbt.Receptor>
prm/pocket_docking_7.prm

>  <SCORE>
-42.9951

>  <SCORE.INTER>
-39.1023

>  <SCORE.INTER.CONST>
1

>  <SCORE.INTER.POLAR>
-5.30764

>  <SCORE.INTER.ROT>
6

>  <SCORE.INTER.SOLV>
27.2516

>  <SCORE.INTER.VDW>
-25.0599

>  <SCORE.INTER.norm>
-1.22195

>  <SCORE.INTRA>
-3.8928

>  <SCORE.INTRA.DIHEDRAL>
-9.52276

>  <SCORE.INTRA.DIHEDRAL.0>
22.9177

>  <SCORE.INTRA.POLAR>
0.292345

>  <SCORE.INTRA.POLAR.0>
-0.311208

>  <SCORE.INTRA.REPUL>
0.053761

>  <SCORE.INTRA.REPUL.0>
0

>  <SCORE.INTRA.SOLV>
-4.45741

>  <SCORE.INTRA.SOLV.lig_0>
-132.657

>  <SCORE.INTRA.VDW>
1.83451

>  <SCORE.INTRA.VDW.0>
-4.68867

>  <SCORE.INTRA.norm>
-0.12165

>  <SCORE.RESTR>
0

>  <SCORE.RESTR.CAVITY>
0

>  <SCORE.RESTR.norm>
0

>  <SCORE.SYSTEM>
0

>  <SCORE.SYSTEM.CONST>
0

>  <SCORE.SYSTEM.DIHEDRAL>
0

>  <SCORE.SYSTEM.SOLV>
0

>  <SCORE.SYSTEM.norm>
0

>  <SCORE.heavy>
32

>  <SCORE.norm>
-1.3436

>  <RMSD>
3.785

$$$$
1tob
 OpenBabel11021811413D
libRbt.so/2013.1/901 2013/11/27
 32 34  0  0  0  0  0  0  0  0999 V2000
   -2.8654    5.4142    2.7752 C   0  0  2  0  0  0  0  0  0  0  0  0
   -2.0124    5.0665    3.9929 C   0  0  1  0  0  0  0  0  0  0  0  0
   -2.5644    5.7723    5.2240 C   0  0  2  0  0  0  0  0  0  0  0  0
   -2.6379    7.2710    4.9574 C   0  0  1  0  0  0  0  0  0  0  0  0
   -3.4695    7.5347    3.7052 C   0  0  1  0  0  0  0  0  0  0  0  0
   -3.5162    9.0060    3.3425 C   0  0  0  0  0  0  0  0  0  0  0  0
   -2.0241    3.6615    4.2010 O   0  0  0  0  0  0  0  0  0  0  0  0
   -1.7563    5.4635    6.4235 N   0  3  0  0  0  0  0  0  0  0  0  0
   -3.2162    7.9305    6.0758 O   0  0  0  0  0  0  0  0  0  0  0  0
   -2.9022    6.8332    2.5777 O   0  0  0  0  0  0  0  0  0  0  0  0
   -2.2163    9.5194    3.0884 O   0  0  0  0  0  0  0  0  0  0  0  0
   -5.3865    4.0312    1.0903 C   0  0  2  0  0  0  0  0  0  0  0  0
   -6.3559    4.3775   -0.0315 C   0  0  0  0  0  0  0  0  0  0  0  0
   -7.6459    4.9666    0.5398 C   0  0  1  0  0  0  0  0  0  0  0  0
   -7.3262    6.2293    1.3367 C   0  0  2  0  0  0  0  0  0  0  0  0
   -6.3462    5.9018    2.4643 C   0  0  1  0  0  0  0  0  0  0  0  0
   -5.0709    5.2860    1.8898 C   0  0  1  0  0  0  0  0  0  0  0  0
   -4.1232    3.4913    0.5416 N   0  3  0  0  0  0  0  0  0  0  0  0
   -8.6149    5.2207   -0.5577 N   0  3  0  0  0  0  0  0  0  0  0  0
   -6.0295    7.0844    3.1861 O   0  0  0  0  0  0  0  0  0  0  0  0
   -4.1600    4.9649    2.9566 O   0  0  0  0  0  0  0  0  0  0  0  0
   -8.7457    8.1421    1.6372 C   0  0  1  0  0  0  0  0  0  0  0  0
   -9.7413    8.7170    2.6462 C   0  0  1  0  0  0  0  0  0  0  0  0
  -11.0965    8.0432    2.4925 C   0  0  0  0  0  0  0  0  0  0  0  0
  -11.5644    8.1818    1.0530 C   0  0  1  0  0  0  0  0  0  0  0  0
  -10.5089    7.6061    0.1095 C   0  0  1  0  0  0  0  0  0  0  0  0
  -10.8835    7.7634   -1.3530 C   0  0  0  0  0  0  0  0  0  0  0  0
   -9.2213    8.6095    4.0298 N   0  3  0  0  0  0  0  0  0  0  0  0
  -10.8671    9.1866   -1.7678 N   0  3  0  0  0  0  0  0  0  0  0  0
   -8.5359    6.7920    1.8848 O   0  0  0  0  0  0  0  0  0  0  0  0
  -12.7969    7.4989    0.8756 O   0  0  0  0  0  0  0  0  0  0  0  0
   -9.2476    8.2823    0.3024 O   0  0  0  0  0  0  0  0  0  0  0  0
  1  2  1  0  0  0  0
  1 10  1  0  0  0  0
  1 21  1  1  0  0  0
  2  3  1  0  0  0  0
  2  7  1  1  0  0  0
  3  4  1  0  0  0  0
  3  8  1  1  0  0  0
  4  5  1  0  0  0  0
  4  9  1  1  0  0  0
  5  6  1  6  0  0  0
  5 10  1  0  0  0  0
  6 11  1  0  0  0  0
 12 13  1  0  0  0  0
 12 17  1  0  0  0  0
 12 18  1  6  0  0  0
 13 14  1  0  0  0  0
 14 15  1  0  0  0  0
 14 19  1  6  0  0  0
 15 16  1  0  0  0  0
 15 30  1  1  0  0  0
 16 17  1  0  0  0  0
 16 20  1  6  0  0  0
 17 21  1  1  0  0  0
 22 23  1  0  0  0  0
 22 30  1  1  0  0  0
 22 32  1  0  0  0  0
 23 24  1  0  0  0  0
 23 28  1  1  0  0  0
 24 25  1  0  0  0  0
 25 26  1  0  0  0  0
 25 31  1  1  0  0  0
 26 27  1  6  0  0  0
 26 32  1  0  0  0  0
 27 29  1  0  0  0  0
M  CHG  5   8   1  18   1  19   1  28   1  29   1
M  END
>  <CHROM.1>
177.61173689,58.56673626,-159.34192144,-43.80775791,60.14288488,62.72212032
-77.52230726,167.25461839,-128.75098520,163.01687729,107.10633240,-159.81024446
-53.12585697,58.47300288,67.94550474,173.74653755,-6.34320302,6.69390245
2.25539254,-0.12193585,0.46154386,-2.43634715

>  <Name>
1tob

>  <RI>
0

>  <Rbt.Current_Directory>
/home/itssahil/PROJECTS/Mol_Feturizer/New_Systems/rnas/1tob

>  <Rbt.Executable>
rbdock ($Id: //depot/dev/client3/rdock/2013.1/src/exe/rbdock.cxx#4 $)

>  <Rbt.Library>
libRbt.so (2013.1, Build901 2013/11/27)

>  <Rbt.Parameter_File>
/export/apps/rDock/src/rDock_2013.1_src/data/scripts/dock_solv.prm

>  <Rbt.Receptor>
prm/pocket_docking_8.prm

>  <SCORE>
-34.9325

>  <SCORE.INTER>
-35.5269

>  <SCORE.INTER.CONST>
1

>  <SCORE.INTER.POLAR>
-5.61418

>  <SCORE.INTER.ROT>
6

>  <SCORE.INTER.SOLV>
30.3547

>  <SCORE.INTER.VDW>
-22.6889

>  <SCORE.INTER.norm>
-1.11022

>  <SCORE.INTRA>
0.594383

>  <SCORE.INTRA.DIHEDRAL>
-2.84376

>  <SCORE.INTRA.DIHEDRAL.0>
22.9177

>  <SCORE.INTRA.POLAR>
0.273251

>  <SCORE.INTRA.POLAR.0>
-0.311208

>  <SCORE.INTRA.REPUL>
0

>  <SCORE.INTRA.REPUL.0>
0

>  <SCORE.INTRA.SOLV>
-0.638129

>  <SCORE.INTRA.SOLV.lig_0>
-132.657

>  <SCORE.INTRA.VDW>
1.40627

>  <SCORE.INTRA.VDW.0>
-4.68867

>  <SCORE.INTRA.norm>
0.0185745

>  <SCORE.RESTR>
0

>  <SCORE.RESTR.CAVITY>
0

>  <SCORE.RESTR.norm>
0

>  <SCORE.SYSTEM>
0

>  <SCORE.SYSTEM.CONST>
0

>  <SCORE.SYSTEM.DIHEDRAL>
0

>  <SCORE.SYSTEM.SOLV>
0

>  <SCORE.SYSTEM.norm>
0

>  <SCORE.heavy>
32

>  <SCORE.norm>
-1.09164

>  <RMSD>
3.810

$$$$
1tob
 OpenBabel11021811413D
libRbt.so/2013.1/901 2013/11/27
 32 34  0  0  0  0  0  0  0  0999 V2000
   -0.1588    4.1201    3.4506 C   0  0  2  0  0  0  0  0  0  0  0  0
    0.9397    3.1553    3.0105 C   0  0  1  0  0  0  0  0  0  0  0  0
    1.0816    2.0381    4.0352 C   0  0  2  0  0  0  0  0  0  0  0  0
    1.3367    2.6426    5.4107 C   0  0  1  0  0  0  0  0  0  0  0  0
    0.2216    3.6242    5.7605 C   0  0  1  0  0  0  0  0  0  0  0  0
    0.4588    4.3183    7.0874 C   0  0  0  0  0  0  0  0  0  0  0  0
    0.6137    2.6038    1.7428 O   0  0  0  0  0  0  0  0  0  0  0  0
    2.1443    1.0869    3.6441 N   0  3  0  0  0  0  0  0  0  0  0  0
    1.4020    1.6100    6.3852 O   0  0  0  0  0  0  0  0  0  0  0  0
    0.1316    4.6514    4.7496 O   0  0  0  0  0  0  0  0  0  0  0  0
   -0.3813    3.7930    8.1053 O   0  0  0  0  0  0  0  0  0  0  0  0
   -3.1051    2.5195    2.1053 C   0  0  2  0  0  0  0  0  0  0  0  0
   -4.0604    2.8356    0.9627 C   0  0  0  0  0  0  0  0  0  0  0  0
   -4.9807    3.9964    1.3412 C   0  0  1  0  0  0  0  0  0  0  0  0
   -4.1443    5.2347    1.6554 C   0  0  2  0  0  0  0  0  0  0  0  0
   -3.1721    4.9331    2.7969 C   0  0  1  0  0  0  0  0  0  0  0  0
   -2.2749    3.7531    2.4248 C   0  0  1  0  0  0  0  0  0  0  0  0
   -2.1900    1.4186    1.7324 N   0  3  0  0  0  0  0  0  0  0  0  0
   -5.9626    4.2385    0.2524 N   0  3  0  0  0  0  0  0  0  0  0  0
   -2.3764    6.0792    3.0676 O   0  0  0  0  0  0  0  0  0  0  0  0
   -1.3740    3.4638    3.5090 O   0  0  0  0  0  0  0  0  0  0  0  0
   -5.8164    6.1340    3.1248 C   0  0  1  0  0  0  0  0  0  0  0  0
   -7.1002    6.9556    2.9945 C   0  0  1  0  0  0  0  0  0  0  0  0
   -6.7754    8.4416    2.9740 C   0  0  0  0  0  0  0  0  0  0  0  0
   -5.9684    8.7951    4.2126 C   0  0  1  0  0  0  0  0  0  0  0  0
   -4.7182    7.9190    4.2814 C   0  0  1  0  0  0  0  0  0  0  0  0
   -3.8910    8.1769    5.5278 C   0  0  0  0  0  0  0  0  0  0  0  0
   -7.8807    6.5412    1.8048 N   0  3  0  0  0  0  0  0  0  0  0  0
   -4.7482    8.3163    6.7293 N   0  3  0  0  0  0  0  0  0  0  0  0
   -5.0021    6.3361    2.0184 O   0  0  0  0  0  0  0  0  0  0  0  0
   -5.5982   10.1657    4.1756 O   0  0  0  0  0  0  0  0  0  0  0  0
   -5.0891    6.5234    4.2964 O   0  0  0  0  0  0  0  0  0  0  0  0
  1  2  1  0  0  0  0
  1 10  1  0  0  0  0
  1 21  1  1  0  0  0
  2  3  1  0  0  0  0
  2  7  1  6  0  0  0
  3  4  1  0  0  0  0
  3  8  1  6  0  0  0
  4  5  1  0  0  0  0
  4  9  1  1  0  0  0
  5  6  1  1  0  0  0
  5 10  1  0  0  0  0
  6 11  1  0  0  0  0
 12 13  1  0  0  0  0
 12 17  1  0  0  0  0
 12 18  1  6  0  0  0
 13 14  1  0  0  0  0
 14 15  1  0  0  0  0
 14 19  1  6  0  0  0
 15 16  1  0  0  0  0
 15 30  1  1  0  0  0
 16 17  1  0  0  0  0
 16 20  1  6  0  0  0
 17 21  1  1  0  0  0
 22 23  1  0  0  0  0
 22 30  1  6  0  0  0
 22 32  1  0  0  0  0
 23 24  1  0  0  0  0
 23 28  1  6  0  0  0
 24 25  1  0  0  0  0
 25 26  1  0  0  0  0
 25 31  1  6  0  0  0
 26 27  1  1  0  0  0
 26 32  1  0  0  0  0
 27 29  1  0  0  0  0
M  CHG  5   8   1  18   1  19   1  28   1  29   1
M  END
>  <CHROM.1>
-104.60764584,72.53964266,-164.87276874,177.82071465,-104.76716887,-177.84348928
19.84422787,164.40142449,59.62111735,-179.56079710,146.76331838,-150.78237293
-173.25457396,-59.13950689,42.64318633,78.82296547,-2.74706472,4.88082535
3.62346223,-0.25640160,-0.59998023,0.86658780

>  <Name>
1tob

>  <RI>
0

>  <Rbt.Current_Directory>
/home/itssahil/PROJECTS/Mol_Feturizer/New_Systems/rnas/1tob

>  <Rbt.Executable>
rbdock ($Id: //depot/dev/client3/rdock/2013.1/src/exe/rbdock.cxx#4 $)

>  <Rbt.Library>
libRbt.so (2013.1, Build901 2013/11/27)

>  <Rbt.Parameter_File>
/export/apps/rDock/src/rDock_2013.1_src/data/scripts/dock_solv.prm

>  <Rbt.Receptor>
prm/blind_docking_40.prm

>  <SCORE>
-28.6244

>  <SCORE.INTER>
-42.5461

>  <SCORE.INTER.CONST>
1

>  <SCORE.INTER.POLAR>
-7.24592

>  <SCORE.INTER.ROT>
6

>  <SCORE.INTER.SOLV>
35.4068

>  <SCORE.INTER.VDW>
-23.6133

>  <SCORE.INTER.norm>
-1.32957

>  <SCORE.INTRA>
0.618108

>  <SCORE.INTRA.DIHEDRAL>
1.72924

>  <SCORE.INTRA.DIHEDRAL.0>
22.9177

>  <SCORE.INTRA.POLAR>
-1.06113

>  <SCORE.INTRA.POLAR.0>
-0.311208

>  <SCORE.INTRA.REPUL>
0

>  <SCORE.INTRA.REPUL.0>
0

>  <SCORE.INTRA.SOLV>
1.18671

>  <SCORE.INTRA.SOLV.lig_0>
-132.657

>  <SCORE.INTRA.VDW>
2.76799

>  <SCORE.INTRA.VDW.0>
-4.68867

>  <SCORE.INTRA.norm>
0.0193159

>  <SCORE.RESTR>
13.3036

>  <SCORE.RESTR.CAVITY>
13.3036

>  <SCORE.RESTR.norm>
0.415738

>  <SCORE.SYSTEM>
0

>  <SCORE.SYSTEM.CONST>
0

>  <SCORE.SYSTEM.DIHEDRAL>
0

>  <SCORE.SYSTEM.SOLV>
0

>  <SCORE.SYSTEM.norm>
0

>  <SCORE.heavy>
32

>  <SCORE.norm>
-0.894513

>  <RMSD>
3.813

$$$$
1tob
 OpenBabel11021811413D
libRbt.so/2013.1/901 2013/11/27
 32 34  0  0  0  0  0  0  0  0999 V2000
   -2.6297    4.8640    2.3103 C   0  0  2  0  0  0  0  0  0  0  0  0
   -2.4905    3.5676    1.5157 C   0  0  1  0  0  0  0  0  0  0  0  0
   -2.4259    2.3846    2.4721 C   0  0  2  0  0  0  0  0  0  0  0  0
   -1.2900    2.5984    3.4653 C   0  0  1  0  0  0  0  0  0  0  0  0
   -1.4768    3.9299    4.1876 C   0  0  1  0  0  0  0  0  0  0  0  0
   -0.3348    4.2369    5.1364 C   0  0  0  0  0  0  0  0  0  0  0  0
   -3.6016    3.4182    0.6436 O   0  0  0  0  0  0  0  0  0  0  0  0
   -2.2831    1.1100    1.7355 N   0  3  0  0  0  0  0  0  0  0  0  0
   -1.2656    1.5322    4.4048 O   0  0  0  0  0  0  0  0  0  0  0  0
   -1.5394    5.0081    3.2292 O   0  0  0  0  0  0  0  0  0  0  0  0
   -0.3991    3.4304    6.3041 O   0  0  0  0  0  0  0  0  0  0  0  0
   -3.7593    7.2769    3.0426 C   0  0  2  0  0  0  0  0  0  0  0  0
   -4.6243    8.5186    2.8743 C   0  0  0  0  0  0  0  0  0  0  0  0
   -5.2875    8.5251    1.4967 C   0  0  1  0  0  0  0  0  0  0  0  0
   -6.1576    7.2802    1.3387 C   0  0  2  0  0  0  0  0  0  0  0  0
   -5.3060    6.0217    1.5128 C   0  0  1  0  0  0  0  0  0  0  0  0
   -4.6221    6.0350    2.8794 C   0  0  1  0  0  0  0  0  0  0  0  0
   -3.1410    7.2486    4.3862 N   0  3  0  0  0  0  0  0  0  0  0  0
   -6.0595    9.7815    1.3136 N   0  3  0  0  0  0  0  0  0  0  0  0
   -6.1243    4.8658    1.3928 O   0  0  0  0  0  0  0  0  0  0  0  0
   -3.8096    4.8569    3.0304 O   0  0  0  0  0  0  0  0  0  0  0  0
   -7.7221    6.2713   -0.1773 C   0  0  1  0  0  0  0  0  0  0  0  0
   -8.4637    6.5162   -1.4926 C   0  0  1  0  0  0  0  0  0  0  0  0
   -9.2461    7.8189   -1.4223 C   0  0  0  0  0  0  0  0  0  0  0  0
  -10.1721    7.7826   -0.2174 C   0  0  1  0  0  0  0  0  0  0  0  0
   -9.3607    7.5126    1.0492 C   0  0  1  0  0  0  0  0  0  0  0  0
  -10.2301    7.4044    2.2888 C   0  0  0  0  0  0  0  0  0  0  0  0
   -7.5311    6.4899   -2.6441 N   0  3  0  0  0  0  0  0  0  0  0  0
   -9.5910    8.0530    3.4587 N   0  3  0  0  0  0  0  0  0  0  0  0
   -6.7855    7.2730    0.0402 O   0  0  0  0  0  0  0  0  0  0  0  0
  -10.8607    9.0188   -0.0974 O   0  0  0  0  0  0  0  0  0  0  0  0
   -8.6406    6.2673    0.9225 O   0  0  0  0  0  0  0  0  0  0  0  0
  1  2  1  0  0  0  0
  1 10  1  0  0  0  0
  1 21  1  1  0  0  0
  2  3  1  0  0  0  0
  2  7  1  6  0  0  0
  3  4  1  0  0  0  0
  3  8  1  6  0  0  0
  4  5  1  0  0  0  0
  4  9  1  1  0  0  0
  5  6  1  1  0  0  0
  5 10  1  0  0  0  0
  6 11  1  0  0  0  0
 12 13  1  0  0  0  0
 12 17  1  0  0  0  0
 12 18  1  1  0  0  0
 13 14  1  0  0  0  0
 14 15  1  0  0  0  0
 14 19  1  1  0  0  0
 15 16  1  0  0  0  0
 15 30  1  6  0  0  0
 16 17  1  0  0  0  0
 16 20  1  1  0  0  0
 17 21  1  6  0  0  0
 22 23  1  0  0  0  0
 22 30  1  1  0  0  0
 22 32  1  0  0  0  0
 23 24  1  0  0  0  0
 23 28  1  6  0  0  0
 24 25  1  0  0  0  0
 25 26  1  0  0  0  0
 25 31  1  1  0  0  0
 26 27  1  1  0  0  0
 26 32  1  0  0  0  0
 27 29  1  0  0  0  0
M  CHG  5   8   1  18   1  19   1  28   1  29   1
M  END
>  <CHROM.1>
-129.95032558,64.90975653,-17.74092638,63.91783508,-73.82497679,53.72667469
-51.12418369,61.74287559,-173.05132418,-35.97323349,-47.62015242,170.88196858
-156.26161314,169.12653790,-140.70395172,-76.65993213,-5.22199080,5.82006701
1.90453720,0.10809057,0.64600810,-2.42481859

>  <Name>
1tob

>  <RI>
0

>  <Rbt.Current_Directory>
/home/itssahil/PROJECTS/Mol_Feturizer/New_Systems/rnas/1tob

>  <Rbt.Executable>
rbdock ($Id: //depot/dev/client3/rdock/2013.1/src/exe/rbdock.cxx#4 $)

>  <Rbt.Library>
libRbt.so (2013.1, Build901 2013/11/27)

>  <Rbt.Parameter_File>
/export/apps/rDock/src/rDock_2013.1_src/data/scripts/dock_solv.prm

>  <Rbt.Receptor>
prm/pocket_docking_5.prm

>  <SCORE>
-41.6306

>  <SCORE.INTER>
-36.8937

>  <SCORE.INTER.CONST>
1

>  <SCORE.INTER.POLAR>
-5.57398

>  <SCORE.INTER.ROT>
6

>  <SCORE.INTER.SOLV>
22.355

>  <SCORE.INTER.VDW>
-21.0675

>  <SCORE.INTER.norm>
-1.15293

>  <SCORE.INTRA>
-4.73693

>  <SCORE.INTRA.DIHEDRAL>
-1.88153

>  <SCORE.INTRA.DIHEDRAL.0>
22.9177

>  <SCORE.INTRA.POLAR>
-1.46373

>  <SCORE.INTRA.POLAR.0>
-0.311208

>  <SCORE.INTRA.REPUL>
0

>  <SCORE.INTRA.REPUL.0>
0

>  <SCORE.INTRA.SOLV>
-3.98339

>  <SCORE.INTRA.SOLV.lig_0>
-132.657

>  <SCORE.INTRA.VDW>
3.17221

>  <SCORE.INTRA.VDW.0>
-4.68867

>  <SCORE.INTRA.norm>
-0.148029

>  <SCORE.RESTR>
0

>  <SCORE.RESTR.CAVITY>
0

>  <SCORE.RESTR.norm>
0

>  <SCORE.SYSTEM>
0

>  <SCORE.SYSTEM.CONST>
0

>  <SCORE.SYSTEM.DIHEDRAL>
0

>  <SCORE.SYSTEM.SOLV>
0

>  <SCORE.SYSTEM.norm>
0

>  <SCORE.heavy>
32

>  <SCORE.norm>
-1.30096

>  <RMSD>
3.819

$$$$
1tob
 OpenBabel11021811413D
libRbt.so/2013.1/901 2013/11/27
 32 34  0  0  0  0  0  0  0  0999 V2000
   -1.9384    3.9572    2.9756 C   0  0  2  0  0  0  0  0  0  0  0  0
   -1.9342    2.7880    1.9937 C   0  0  1  0  0  0  0  0  0  0  0  0
   -1.9291    1.4733    2.7618 C   0  0  2  0  0  0  0  0  0  0  0  0
   -0.7430    1.4510    3.7185 C   0  0  1  0  0  0  0  0  0  0  0  0
   -0.7945    2.6691    4.6366 C   0  0  1  0  0  0  0  0  0  0  0  0
    0.4035    2.7449    5.5626 C   0  0  0  0  0  0  0  0  0  0  0  0
   -3.0859    2.8539    1.1649 O   0  0  0  0  0  0  0  0  0  0  0  0
   -1.9174    0.3167    1.8402 N   0  3  0  0  0  0  0  0  0  0  0  0
   -0.7693    0.2570    4.4890 O   0  0  0  0  0  0  0  0  0  0  0  0
   -0.8061    3.8806    3.8509 O   0  0  0  0  0  0  0  0  0  0  0  0
    0.1575    3.6136    6.6593 O   0  0  0  0  0  0  0  0  0  0  0  0
   -3.0347    6.3468    3.8612 C   0  0  2  0  0  0  0  0  0  0  0  0
   -3.9025    7.5943    3.7674 C   0  0  0  0  0  0  0  0  0  0  0  0
   -4.5973    7.6610    2.4072 C   0  0  1  0  0  0  0  0  0  0  0  0
   -5.4716    6.4240    2.2148 C   0  0  2  0  0  0  0  0  0  0  0  0
   -4.6171    5.1593    2.3139 C   0  0  1  0  0  0  0  0  0  0  0  0
   -3.9019    5.1130    3.6638 C   0  0  1  0  0  0  0  0  0  0  0  0
   -2.3856    6.2598    5.1877 N   0  3  0  0  0  0  0  0  0  0  0  0
   -5.3725    8.9240    2.2971 N   0  3  0  0  0  0  0  0  0  0  0  0
   -5.4388    4.0096    2.1623 O   0  0  0  0  0  0  0  0  0  0  0  0
   -3.0870    3.9296    3.7442 O   0  0  0  0  0  0  0  0  0  0  0  0
   -7.3330    5.7875    0.8385 C   0  0  1  0  0  0  0  0  0  0  0  0
   -7.8139    5.7576   -0.6133 C   0  0  1  0  0  0  0  0  0  0  0  0
   -8.0923    7.1698   -1.1058 C   0  0  0  0  0  0  0  0  0  0  0  0
   -9.0813    7.8417   -0.1673 C   0  0  1  0  0  0  0  0  0  0  0  0
   -8.5395    7.8112    1.2613 C   0  0  1  0  0  0  0  0  0  0  0  0
   -9.5043    8.4149    2.2658 C   0  0  0  0  0  0  0  0  0  0  0  0
   -6.8457    5.0473   -1.4819 N   0  3  0  0  0  0  0  0  0  0  0  0
  -10.6784    7.5371    2.4864 N   0  3  0  0  0  0  0  0  0  0  0  0
   -6.1293    6.4734    0.9321 O   0  0  0  0  0  0  0  0  0  0  0  0
   -9.3004    9.1846   -0.5739 O   0  0  0  0  0  0  0  0  0  0  0  0
   -8.2937    6.4485    1.6711 O   0  0  0  0  0  0  0  0  0  0  0  0
  1  2  1  0  0  0  0
  1 10  1  0  0  0  0
  1 21  1  1  0  0  0
  2  3  1  0  0  0  0
  2  7  1  1  0  0  0
  3  4  1  0  0  0  0
  3  8  1  6  0  0  0
  4  5  1  0  0  0  0
  4  9  1  1  0  0  0
  5  6  1  1  0  0  0
  5 10  1  0  0  0  0
  6 11  1  0  0  0  0
 12 13  1  0  0  0  0
 12 17  1  0  0  0  0
 12 18  1  1  0  0  0
 13 14  1  0  0  0  0
 14 15  1  0  0  0  0
 14 19  1  1  0  0  0
 15 16  1  0  0  0  0
 15 30  1  6  0  0  0
 16 17  1  0  0  0  0
 16 20  1  1  0  0  0
 17 21  1  6  0  0  0
 22 23  1  0  0  0  0
 22 30  1  6  0  0  0
 22 32  1  0  0  0  0
 23 24  1  0  0  0  0
 23 28  1  6  0  0  0
 24 25  1  0  0  0  0
 25 26  1  0  0  0  0
 25 31  1  6  0  0  0
 26 27  1  1  0  0  0
 26 32  1  0  0  0  0
 27 29  1  0  0  0  0
M  CHG  5   8   1  18   1  19   1  28   1  29   1
M  END
>  <CHROM.1>
-121.89997181,68.25986776,103.85002231,31.78158055,-162.13189850,-72.70857129
-59.22938015,176.43279213,-153.31151202,74.53528353,-48.94695309,-171.98245175
-63.55683916,-68.72068149,71.59970360,4.10547970,-4.59044289,5.13636134,2.40144788
0.21633563,0.66000391,-2.51361692

>  <Name>
1tob

>  <RI>
0

>  <Rbt.Current_Directory>
/home/itssahil/PROJECTS/Mol_Feturizer/New_Systems/rnas/1tob

>  <Rbt.Executable>
rbdock ($Id: //depot/dev/client3/rdock/2013.1/src/exe/rbdock.cxx#4 $)

>  <Rbt.Library>
libRbt.so (2013.1, Build901 2013/11/27)

>  <Rbt.Parameter_File>
/export/apps/rDock/src/rDock_2013.1_src/data/scripts/dock_solv.prm

>  <Rbt.Receptor>
prm/pocket_docking_3.prm

>  <SCORE>
-34.7223

>  <SCORE.INTER>
-36.1556

>  <SCORE.INTER.CONST>
1

>  <SCORE.INTER.POLAR>
-5.0322

>  <SCORE.INTER.ROT>
6

>  <SCORE.INTER.SOLV>
30.81

>  <SCORE.INTER.VDW>
-25.1997

>  <SCORE.INTER.norm>
-1.12986

>  <SCORE.INTRA>
1.29223

>  <SCORE.INTRA.DIHEDRAL>
2.09392

>  <SCORE.INTRA.DIHEDRAL.0>
22.9177

>  <SCORE.INTRA.POLAR>
-0.160536

>  <SCORE.INTRA.POLAR.0>
-0.311208

>  <SCORE.INTRA.REPUL>
0

>  <SCORE.INTRA.REPUL.0>
0

>  <SCORE.INTRA.SOLV>
-1.19194

>  <SCORE.INTRA.SOLV.lig_0>
-132.657

>  <SCORE.INTRA.VDW>
1.38706

>  <SCORE.INTRA.VDW.0>
-4.68867

>  <SCORE.INTRA.norm>
0.0403823

>  <SCORE.RESTR>
0.141056

>  <SCORE.RESTR.CAVITY>
0.141056

>  <SCORE.RESTR.norm>
0.00440802

>  <SCORE.SYSTEM>
0

>  <SCORE.SYSTEM.CONST>
0

>  <SCORE.SYSTEM.DIHEDRAL>
0

>  <SCORE.SYSTEM.SOLV>
0

>  <SCORE.SYSTEM.norm>
0

>  <SCORE.heavy>
32

>  <SCORE.norm>
-1.08507

>  <RMSD>
3.840

$$$$
1tob
 OpenBabel11021811413D
libRbt.so/2013.1/901 2013/11/27
 32 34  0  0  0  0  0  0  0  0999 V2000
    0.3163    4.1450    3.8840 C   0  0  2  0  0  0  0  0  0  0  0  0
    1.7228    3.5521    3.8469 C   0  0  1  0  0  0  0  0  0  0  0  0
    1.8234    2.4078    4.8463 C   0  0  2  0  0  0  0  0  0  0  0  0
    1.4249    2.9079    6.2296 C   0  0  1  0  0  0  0  0  0  0  0  0
    0.0288    3.5222    6.1765 C   0  0  1  0  0  0  0  0  0  0  0  0
   -0.3948    4.1087    7.5088 C   0  0  0  0  0  0  0  0  0  0  0  0
    2.0068    3.0730    2.5402 O   0  0  0  0  0  0  0  0  0  0  0  0
    3.1776    1.8134    4.8426 N   0  3  0  0  0  0  0  0  0  0  0  0
    1.4495    1.8302    7.1559 O   0  0  0  0  0  0  0  0  0  0  0  0
   -0.0044    4.5922    5.2073 O   0  0  0  0  0  0  0  0  0  0  0  0
   -1.5685    4.8983    7.3786 O   0  0  0  0  0  0  0  0  0  0  0  0
   -2.3793    2.4596    2.0249 C   0  0  2  0  0  0  0  0  0  0  0  0
   -3.4389    2.9520    1.0487 C   0  0  0  0  0  0  0  0  0  0  0  0
   -4.4029    3.9122    1.7459 C   0  0  1  0  0  0  0  0  0  0  0  0
   -3.6297    5.1089    2.2954 C   0  0  2  0  0  0  0  0  0  0  0  0
   -2.5543    4.6321    3.2730 C   0  0  1  0  0  0  0  0  0  0  0  0
   -1.6114    3.6499    2.5788 C   0  0  1  0  0  0  0  0  0  0  0  0
   -1.4239    1.5557    1.3476 N   0  3  0  0  0  0  0  0  0  0  0  0
   -5.4798    4.3182    0.8059 N   0  3  0  0  0  0  0  0  0  0  0  0
   -1.8186    5.7461    3.7608 O   0  0  0  0  0  0  0  0  0  0  0  0
   -0.6122    3.1926    3.5080 O   0  0  0  0  0  0  0  0  0  0  0  0
   -4.0552    7.3116    3.1500 C   0  0  1  0  0  0  0  0  0  0  0  0
   -5.0543    8.1259    3.9739 C   0  0  1  0  0  0  0  0  0  0  0  0
   -6.3694    8.2640    3.2219 C   0  0  0  0  0  0  0  0  0  0  0  0
   -6.1021    8.8648    1.8515 C   0  0  1  0  0  0  0  0  0  0  0  0
   -5.0815    8.0084    1.1028 C   0  0  1  0  0  0  0  0  0  0  0  0
   -4.7208    8.5821   -0.2555 C   0  0  0  0  0  0  0  0  0  0  0  0
   -5.2435    7.5349    5.3198 N   0  3  0  0  0  0  0  0  0  0  0  0
   -3.6537    7.7907   -0.9134 N   0  3  0  0  0  0  0  0  0  0  0  0
   -4.5287    6.0202    2.9599 O   0  0  0  0  0  0  0  0  0  0  0  0
   -7.3108    8.9375    1.1095 O   0  0  0  0  0  0  0  0  0  0  0  0
   -3.8583    7.9129    1.8644 O   0  0  0  0  0  0  0  0  0  0  0  0
  1  2  1  0  0  0  0
  1 10  1  0  0  0  0
  1 21  1  1  0  0  0
  2  3  1  0  0  0  0
  2  7  1  6  0  0  0
  3  4  1  0  0  0  0
  3  8  1  1  0  0  0
  4  5  1  0  0  0  0
  4  9  1  1  0  0  0
  5  6  1  1  0  0  0
  5 10  1  0  0  0  0
  6 11  1  0  0  0  0
 12 13  1  0  0  0  0
 12 17  1  0  0  0  0
 12 18  1  6  0  0  0
 13 14  1  0  0  0  0
 14 15  1  0  0  0  0
 14 19  1  6  0  0  0
 15 16  1  0  0  0  0
 15 30  1  1  0  0  0
 16 17  1  0  0  0  0
 16 20  1  6  0  0  0
 17 21  1  1  0  0  0
 22 23  1  0  0  0  0
 22 30  1  6  0  0  0
 22 32  1  0  0  0  0
 23 24  1  0  0  0  0
 23 28  1  1  0  0  0
 24 25  1  0  0  0  0
 25 26  1  0  0  0  0
 25 31  1  6  0  0  0
 26 27  1  6  0  0  0
 26 32  1  0  0  0  0
 27 29  1  0  0  0  0
M  CHG  5   8   1  18   1  19   1  28   1  29   1
M  END
>  <CHROM.1>
-135.00777198,62.35051933,84.15665914,-56.86689054,168.54642687,-74.34970162
-28.43448008,-48.20976946,-161.38574491,77.88615792,168.13989576,-174.83527185
-13.37689761,-56.36646703,175.57740182,62.66818717,-2.27743981,5.04286733
3.29244408,-0.17223643,0.72800235,-1.93355396

>  <Name>
1tob

>  <RI>
0

>  <Rbt.Current_Directory>
/home/itssahil/PROJECTS/Mol_Feturizer/New_Systems/rnas/1tob

>  <Rbt.Executable>
rbdock ($Id: //depot/dev/client3/rdock/2013.1/src/exe/rbdock.cxx#4 $)

>  <Rbt.Library>
libRbt.so (2013.1, Build901 2013/11/27)

>  <Rbt.Parameter_File>
/export/apps/rDock/src/rDock_2013.1_src/data/scripts/dock_solv.prm

>  <Rbt.Receptor>
prm/pocket_docking_6.prm

>  <SCORE>
-50.9536

>  <SCORE.INTER>
-49.9214

>  <SCORE.INTER.CONST>
1

>  <SCORE.INTER.POLAR>
-7.4385

>  <SCORE.INTER.ROT>
6

>  <SCORE.INTER.SOLV>
29.0534

>  <SCORE.INTER.VDW>
-25.7704

>  <SCORE.INTER.norm>
-1.56004

>  <SCORE.INTRA>
-1.03219

>  <SCORE.INTRA.DIHEDRAL>
-4.48241

>  <SCORE.INTRA.DIHEDRAL.0>
22.9177

>  <SCORE.INTRA.POLAR>
0.267254

>  <SCORE.INTRA.POLAR.0>
-0.311208

>  <SCORE.INTRA.REPUL>
0.0385924

>  <SCORE.INTRA.REPUL.0>
0

>  <SCORE.INTRA.SOLV>
-4.8857

>  <SCORE.INTRA.SOLV.lig_0>
-132.657

>  <SCORE.INTRA.VDW>
2.55024

>  <SCORE.INTRA.VDW.0>
-4.68867

>  <SCORE.INTRA.norm>
-0.032256

>  <SCORE.RESTR>
0

>  <SCORE.RESTR.CAVITY>
0

>  <SCORE.RESTR.norm>
0

>  <SCORE.SYSTEM>
0

>  <SCORE.SYSTEM.CONST>
0

>  <SCORE.SYSTEM.DIHEDRAL>
0

>  <SCORE.SYSTEM.SOLV>
0

>  <SCORE.SYSTEM.norm>
0

>  <SCORE.heavy>
32

>  <SCORE.norm>
-1.5923

>  <RMSD>
3.840

$$$$
1tob
 OpenBabel11021811413D
libRbt.so/2013.1/901 2013/11/27
 32 34  0  0  0  0  0  0  0  0999 V2000
   -1.2867    3.4985    1.6353 C   0  0  2  0  0  0  0  0  0  0  0  0
   -1.1849    1.9753    1.6099 C   0  0  1  0  0  0  0  0  0  0  0  0
   -0.9770    1.4517    3.0244 C   0  0  2  0  0  0  0  0  0  0  0  0
    0.2486    2.1197    3.6362 C   0  0  1  0  0  0  0  0  0  0  0  0
    0.0907    3.6369    3.5873 C   0  0  1  0  0  0  0  0  0  0  0  0
    1.3142    4.3618    4.1126 C   0  0  0  0  0  0  0  0  0  0  0  0
   -2.3755    1.4243    1.0655 O   0  0  0  0  0  0  0  0  0  0  0  0
   -0.8664   -0.0231    3.0368 N   0  3  0  0  0  0  0  0  0  0  0  0
    0.4104    1.6885    4.9807 O   0  0  0  0  0  0  0  0  0  0  0  0
   -0.1117    4.0697    2.2245 O   0  0  0  0  0  0  0  0  0  0  0  0
    1.4892    4.1427    5.5052 O   0  0  0  0  0  0  0  0  0  0  0  0
   -4.4387    3.9803    1.1052 C   0  0  2  0  0  0  0  0  0  0  0  0
   -5.3990    4.9279    0.3994 C   0  0  0  0  0  0  0  0  0  0  0  0
   -5.9465    5.9635    1.3818 C   0  0  1  0  0  0  0  0  0  0  0  0
   -4.7931    6.7675    1.9778 C   0  0  2  0  0  0  0  0  0  0  0  0
   -3.8129    5.8300    2.6848 C   0  0  1  0  0  0  0  0  0  0  0  0
   -3.2918    4.7789    1.7053 C   0  0  1  0  0  0  0  0  0  0  0  0
   -3.8802    2.9962    0.1522 N   0  3  0  0  0  0  0  0  0  0  0  0
   -6.9453    6.8275    0.7008 N   0  3  0  0  0  0  0  0  0  0  0  0
   -2.7268    6.5786    3.2139 O   0  0  0  0  0  0  0  0  0  0  0  0
   -2.3832    3.8903    2.3803 O   0  0  0  0  0  0  0  0  0  0  0  0
   -6.0956    7.2544    3.9349 C   0  0  1  0  0  0  0  0  0  0  0  0
   -6.6029    8.4035    4.8079 C   0  0  1  0  0  0  0  0  0  0  0  0
   -5.4356    9.1087    5.4821 C   0  0  0  0  0  0  0  0  0  0  0  0
   -4.6166    8.0907    6.2589 C   0  0  1  0  0  0  0  0  0  0  0  0
   -4.1674    6.9682    5.3242 C   0  0  1  0  0  0  0  0  0  0  0  0
   -3.3911    5.8816    6.0458 C   0  0  0  0  0  0  0  0  0  0  0  0
   -7.4398    9.3413    4.0228 N   0  3  0  0  0  0  0  0  0  0  0  0
   -1.9626    5.8803    5.6496 N   0  3  0  0  0  0  0  0  0  0  0  0
   -5.2973    7.7455    2.9104 O   0  0  0  0  0  0  0  0  0  0  0  0
   -3.4836    8.7206    6.8390 O   0  0  0  0  0  0  0  0  0  0  0  0
   -5.3155    6.3395    4.7144 O   0  0  0  0  0  0  0  0  0  0  0  0
  1  2  1  0  0  0  0
  1 10  1  0  0  0  0
  1 21  1  1  0  0  0
  2  3  1  0  0  0  0
  2  7  1  1  0  0  0
  3  4  1  0  0  0  0
  3  8  1  6  0  0  0
  4  5  1  0  0  0  0
  4  9  1  1  0  0  0
  5  6  1  6  0  0  0
  5 10  1  0  0  0  0
  6 11  1  0  0  0  0
 12 13  1  0  0  0  0
 12 17  1  0  0  0  0
 12 18  1  6  0  0  0
 13 14  1  0  0  0  0
 14 15  1  0  0  0  0
 14 19  1  6  0  0  0
 15 16  1  0  0  0  0
 15 30  1  1  0  0  0
 16 17  1  0  0  0  0
 16 20  1  6  0  0  0
 17 21  1  1  0  0  0
 22 23  1  0  0  0  0
 22 30  1  6  0  0  0
 22 32  1  0  0  0  0
 23 24  1  0  0  0  0
 23 28  1  6  0  0  0
 24 25  1  0  0  0  0
 25 26  1  0  0  0  0
 25 31  1  6  0  0  0
 26 27  1  1  0  0  0
 26 32  1  0  0  0  0
 27 29  1  0  0  0  0
M  CHG  5   8   1  18   1  19   1  28   1  29   1
M  END
>  <CHROM.1>
-126.38130470,112.96046217,-148.62694193,-175.08348208,-66.98170398,-68.15910996
153.68401884,179.88202474,55.00563869,-61.39087716,96.33247042,-177.67727894
60.01098904,-72.92917989,-110.88878791,83.87518874,-3.11550764,5.13057961
3.32467057,0.60615255,0.59177641,-2.28733688

>  <Name>
1tob

>  <RI>
0

>  <Rbt.Current_Directory>
/home/itssahil/PROJECTS/Mol_Feturizer/New_Systems/rnas/1tob

>  <Rbt.Executable>
rbdock ($Id: //depot/dev/client3/rdock/2013.1/src/exe/rbdock.cxx#4 $)

>  <Rbt.Library>
libRbt.so (2013.1, Build901 2013/11/27)

>  <Rbt.Parameter_File>
/export/apps/rDock/src/rDock_2013.1_src/data/scripts/dock_solv.prm

>  <Rbt.Receptor>
prm/blind_docking_100.prm

>  <SCORE>
63.2147

>  <SCORE.INTER>
45.0824

>  <SCORE.INTER.CONST>
1

>  <SCORE.INTER.POLAR>
-4.2801

>  <SCORE.INTER.ROT>
6

>  <SCORE.INTER.SOLV>
37.3674

>  <SCORE.INTER.VDW>
24.2661

>  <SCORE.INTER.norm>
1.40883

>  <SCORE.INTRA>
10.5503

>  <SCORE.INTRA.DIHEDRAL>
6.82527

>  <SCORE.INTRA.DIHEDRAL.0>
22.9177

>  <SCORE.INTRA.POLAR>
-1.45249

>  <SCORE.INTRA.POLAR.0>
-0.311208

>  <SCORE.INTRA.REPUL>
0.0110762

>  <SCORE.INTRA.REPUL.0>
0

>  <SCORE.INTRA.SOLV>
6.04633

>  <SCORE.INTRA.SOLV.lig_0>
-132.657

>  <SCORE.INTRA.VDW>
8.99762

>  <SCORE.INTRA.VDW.0>
-4.68867

>  <SCORE.INTRA.norm>
0.329698

>  <SCORE.RESTR>
7.58196

>  <SCORE.RESTR.CAVITY>
7.58196

>  <SCORE.RESTR.norm>
0.236936

>  <SCORE.SYSTEM>
0

>  <SCORE.SYSTEM.CONST>
0

>  <SCORE.SYSTEM.DIHEDRAL>
0

>  <SCORE.SYSTEM.SOLV>
0

>  <SCORE.SYSTEM.norm>
0

>  <SCORE.heavy>
32

>  <SCORE.norm>
1.97546

>  <RMSD>
3.850

$$$$
1tob
 OpenBabel11021811413D
libRbt.so/2013.1/901 2013/11/27
 32 34  0  0  0  0  0  0  0  0999 V2000
   -0.2035    3.6308    4.3117 C   0  0  2  0  0  0  0  0  0  0  0  0
    0.8757    2.6047    4.6489 C   0  0  1  0  0  0  0  0  0  0  0  0
    0.4898    1.8519    5.9149 C   0  0  2  0  0  0  0  0  0  0  0  0
    0.2441    2.8487    7.0412 C   0  0  1  0  0  0  0  0  0  0  0  0
   -0.8132    3.8632    6.6140 C   0  0  1  0  0  0  0  0  0  0  0  0
   -1.0471    4.9303    7.6653 C   0  0  0  0  0  0  0  0  0  0  0  0
    1.0197    1.6892    3.5725 O   0  0  0  0  0  0  0  0  0  0  0  0
    1.5186    0.8526    6.2762 N   0  3  0  0  0  0  0  0  0  0  0  0
   -0.1835    2.1596    8.2084 O   0  0  0  0  0  0  0  0  0  0  0  0
   -0.3944    4.5356    5.4067 O   0  0  0  0  0  0  0  0  0  0  0  0
    0.1737    5.3539    8.2554 O   0  0  0  0  0  0  0  0  0  0  0  0
   -3.1925    2.6395    2.4657 C   0  0  2  0  0  0  0  0  0  0  0  0
   -4.0908    3.3452    1.4591 C   0  0  0  0  0  0  0  0  0  0  0  0
   -4.9000    4.4463    2.1448 C   0  0  1  0  0  0  0  0  0  0  0  0
   -3.9524    5.4647    2.7747 C   0  0  2  0  0  0  0  0  0  0  0  0
   -3.0359    4.7715    3.7840 C   0  0  1  0  0  0  0  0  0  0  0  0
   -2.2516    3.6526    3.0994 C   0  0  1  0  0  0  0  0  0  0  0  0
   -2.3826    1.5947    1.8015 N   0  3  0  0  0  0  0  0  0  0  0  0
   -5.8329    5.0692    1.1703 N   0  3  0  0  0  0  0  0  0  0  0  0
   -2.1370    5.7173    4.3475 O   0  0  0  0  0  0  0  0  0  0  0  0
   -1.4037    2.9937    4.0575 O   0  0  0  0  0  0  0  0  0  0  0  0
   -3.9579    7.4807    4.0784 C   0  0  1  0  0  0  0  0  0  0  0  0
   -4.8825    8.5128    4.7264 C   0  0  1  0  0  0  0  0  0  0  0  0
   -5.6903    9.2393    3.6615 C   0  0  0  0  0  0  0  0  0  0  0  0
   -4.7417    9.8498    2.6429 C   0  0  1  0  0  0  0  0  0  0  0  0
   -3.8406    8.7619    2.0599 C   0  0  1  0  0  0  0  0  0  0  0  0
   -2.8243    9.3100    1.0746 C   0  0  0  0  0  0  0  0  0  0  0  0
   -5.7509    7.8838    5.7495 N   0  3  0  0  0  0  0  0  0  0  0  0
   -1.8228   10.1700    1.7493 N   0  3  0  0  0  0  0  0  0  0  0  0
   -4.7049    6.5068    3.4291 O   0  0  0  0  0  0  0  0  0  0  0  0
   -5.4818   10.4742    1.6040 O   0  0  0  0  0  0  0  0  0  0  0  0
   -3.1027    8.1087    3.1154 O   0  0  0  0  0  0  0  0  0  0  0  0
  1  2  1  0  0  0  0
  1 10  1  0  0  0  0
  1 21  1  1  0  0  0
  2  3  1  0  0  0  0
  2  7  1  6  0  0  0
  3  4  1  0  0  0  0
  3  8  1  1  0  0  0
  4  5  1  0  0  0  0
  4  9  1  1  0  0  0
  5  6  1  1  0  0  0
  5 10  1  0  0  0  0
  6 11  1  0  0  0  0
 12 13  1  0  0  0  0
 12 17  1  0  0  0  0
 12 18  1  6  0  0  0
 13 14  1  0  0  0  0
 14 15  1  0  0  0  0
 14 19  1  6  0  0  0
 15 16  1  0  0  0  0
 15 30  1  1  0  0  0
 16 17  1  0  0  0  0
 16 20  1  6  0  0  0
 17 21  1  1  0  0  0
 22 23  1  0  0  0  0
 22 30  1  6  0  0  0
 22 32  1  0  0  0  0
 23 24  1  0  0  0  0
 23 28  1  1  0  0  0
 24 25  1  0  0  0  0
 25 26  1  0  0  0  0
 25 31  1  6  0  0  0
 26 27  1  6  0  0  0
 26 32  1  0  0  0  0
 27 29  1  0  0  0  0
M  CHG  5   8   1  18   1  19   1  28   1  29   1
M  END
>  <CHROM.1>
-148.51520595,57.17252547,-176.41680888,-152.38396774,40.71921410,-177.00527611
4.60477171,173.61486955,178.20334133,-56.91813552,155.79934973,-179.84794775
57.30561608,-58.05959105,67.43752176,64.02907745,-2.42362829,5.32204051,4.04245736
0.39911804,0.91817629,-2.54710813

>  <Name>
1tob

>  <RI>
0

>  <Rbt.Current_Directory>
/home/itssahil/PROJECTS/Mol_Feturizer/New_Systems/rnas/1tob

>  <Rbt.Executable>
rbdock ($Id: //depot/dev/client3/rdock/2013.1/src/exe/rbdock.cxx#4 $)

>  <Rbt.Library>
libRbt.so (2013.1, Build901 2013/11/27)

>  <Rbt.Parameter_File>
/export/apps/rDock/src/rDock_2013.1_src/data/scripts/dock_solv.prm

>  <Rbt.Receptor>
prm/pocket_docking_7.prm

>  <SCORE>
-44.1911

>  <SCORE.INTER>
-43.9733

>  <SCORE.INTER.CONST>
1

>  <SCORE.INTER.POLAR>
-6.18577

>  <SCORE.INTER.ROT>
6

>  <SCORE.INTER.SOLV>
27.7799

>  <SCORE.INTER.VDW>
-25.5563

>  <SCORE.INTER.norm>
-1.37417

>  <SCORE.INTRA>
-0.217752

>  <SCORE.INTRA.DIHEDRAL>
-7.99347

>  <SCORE.INTRA.DIHEDRAL.0>
22.9177

>  <SCORE.INTRA.POLAR>
0.309783

>  <SCORE.INTRA.POLAR.0>
-0.311208

>  <SCORE.INTRA.REPUL>
0

>  <SCORE.INTRA.REPUL.0>
0

>  <SCORE.INTRA.SOLV>
-5.60638

>  <SCORE.INTRA.SOLV.lig_0>
-132.657

>  <SCORE.INTRA.VDW>
5.52891

>  <SCORE.INTRA.VDW.0>
-4.68867

>  <SCORE.INTRA.norm>
-0.00680474

>  <SCORE.RESTR>
0

>  <SCORE.RESTR.CAVITY>
0

>  <SCORE.RESTR.norm>
0

>  <SCORE.SYSTEM>
0

>  <SCORE.SYSTEM.CONST>
0

>  <SCORE.SYSTEM.DIHEDRAL>
0

>  <SCORE.SYSTEM.SOLV>
0

>  <SCORE.SYSTEM.norm>
0

>  <SCORE.heavy>
32

>  <SCORE.norm>
-1.38097

>  <RMSD>
3.853

$$$$
1tob
 OpenBabel11021811413D
libRbt.so/2013.1/901 2013/11/27
 32 34  0  0  0  0  0  0  0  0999 V2000
    0.1630    3.7282    4.2316 C   0  0  2  0  0  0  0  0  0  0  0  0
    1.2713    2.8746    3.6199 C   0  0  1  0  0  0  0  0  0  0  0  0
    1.2700    1.4947    4.2634 C   0  0  2  0  0  0  0  0  0  0  0  0
    1.3975    1.6412    5.7749 C   0  0  1  0  0  0  0  0  0  0  0  0
    0.2827    2.5389    6.3046 C   0  0  1  0  0  0  0  0  0  0  0  0
    0.4003    2.7864    7.7958 C   0  0  0  0  0  0  0  0  0  0  0  0
    1.0637    2.7505    2.2203 O   0  0  0  0  0  0  0  0  0  0  0  0
    2.3381    0.6415    3.6989 N   0  3  0  0  0  0  0  0  0  0  0  0
    1.3280    0.3616    6.3896 O   0  0  0  0  0  0  0  0  0  0  0  0
    0.3313    3.8259    5.6515 O   0  0  0  0  0  0  0  0  0  0  0  0
    0.0120    1.6428    8.5438 O   0  0  0  0  0  0  0  0  0  0  0  0
   -2.6914    2.8580    2.2036 C   0  0  2  0  0  0  0  0  0  0  0  0
   -3.5421    3.6036    1.1845 C   0  0  0  0  0  0  0  0  0  0  0  0
   -4.4740    4.5915    1.8868 C   0  0  1  0  0  0  0  0  0  0  0  0
   -3.6491    5.5975    2.6864 C   0  0  2  0  0  0  0  0  0  0  0  0
   -2.7812    4.8650    3.7109 C   0  0  1  0  0  0  0  0  0  0  0  0
   -1.8732    3.8579    3.0060 C   0  0  1  0  0  0  0  0  0  0  0  0
   -1.7643    1.9242    1.5276 N   0  3  0  0  0  0  0  0  0  0  0  0
   -5.3568    5.2501    0.8892 N   0  3  0  0  0  0  0  0  0  0  0  0
   -1.9945    5.8022    4.4339 O   0  0  0  0  0  0  0  0  0  0  0  0
   -1.0713    3.1606    3.9763 O   0  0  0  0  0  0  0  0  0  0  0  0
   -3.8899    7.5717    4.0311 C   0  0  1  0  0  0  0  0  0  0  0  0
   -4.9296    8.4931    4.6714 C   0  0  1  0  0  0  0  0  0  0  0  0
   -5.7900    9.1434    3.5985 C   0  0  0  0  0  0  0  0  0  0  0  0
   -4.8925    9.8626    2.6046 C   0  0  1  0  0  0  0  0  0  0  0  0
   -3.8714    8.8825    2.0282 C   0  0  1  0  0  0  0  0  0  0  0  0
   -2.9007    9.5463    1.0684 C   0  0  0  0  0  0  0  0  0  0  0  0
   -5.7454    7.7640    5.6711 N   0  3  0  0  0  0  0  0  0  0  0  0
   -1.8537    8.6002    0.6141 N   0  3  0  0  0  0  0  0  0  0  0  0
   -4.5182    6.5327    3.3576 O   0  0  0  0  0  0  0  0  0  0  0  0
   -5.6752   10.4182    1.5579 O   0  0  0  0  0  0  0  0  0  0  0  0
   -3.0881    8.2978    3.0912 O   0  0  0  0  0  0  0  0  0  0  0  0
  1  2  1  0  0  0  0
  1 10  1  0  0  0  0
  1 21  1  1  0  0  0
  2  3  1  0  0  0  0
  2  7  1  6  0  0  0
  3  4  1  0  0  0  0
  3  8  1  6  0  0  0
  4  5  1  0  0  0  0
  4  9  1  1  0  0  0
  5  6  1  1  0  0  0
  5 10  1  0  0  0  0
  6 11  1  0  0  0  0
 12 13  1  0  0  0  0
 12 17  1  0  0  0  0
 12 18  1  6  0  0  0
 13 14  1  0  0  0  0
 14 15  1  0  0  0  0
 14 19  1  6  0  0  0
 15 16  1  0  0  0  0
 15 30  1  1  0  0  0
 16 17  1  0  0  0  0
 16 20  1  6  0  0  0
 17 21  1  1  0  0  0
 22 23  1  0  0  0  0
 22 30  1  6  0  0  0
 22 32  1  0  0  0  0
 23 24  1  0  0  0  0
 23 28  1  1  0  0  0
 24 25  1  0  0  0  0
 25 26  1  0  0  0  0
 25 31  1  6  0  0  0
 26 27  1  6  0  0  0
 26 32  1  0  0  0  0
 27 29  1  0  0  0  0
M  CHG  5   8   1  18   1  19   1  28   1  29   1
M  END
>  <CHROM.1>
-107.75923290,61.92667769,-165.95916433,-169.13649324,-74.49383945,-176.78224303
-29.99410556,-148.46775815,-174.78101998,-178.49212632,145.75672143,179.03325164
174.20789168,-55.64067975,175.18979466,-54.96082201,-2.05727313,5.00199909
3.63651318,-0.19317068,0.91231304,-1.71716071

>  <Name>
1tob

>  <RI>
0

>  <Rbt.Current_Directory>
/home/itssahil/PROJECTS/Mol_Feturizer/New_Systems/rnas/1tob

>  <Rbt.Executable>
rbdock ($Id: //depot/dev/client3/rdock/2013.1/src/exe/rbdock.cxx#4 $)

>  <Rbt.Library>
libRbt.so (2013.1, Build901 2013/11/27)

>  <Rbt.Parameter_File>
/export/apps/rDock/src/rDock_2013.1_src/data/scripts/dock_solv.prm

>  <Rbt.Receptor>
prm/pocket_docking_5.prm

>  <SCORE>
-56.4061

>  <SCORE.INTER>
-47.7951

>  <SCORE.INTER.CONST>
1

>  <SCORE.INTER.POLAR>
-7.14514

>  <SCORE.INTER.ROT>
6

>  <SCORE.INTER.SOLV>
29.2583

>  <SCORE.INTER.VDW>
-25.399

>  <SCORE.INTER.norm>
-1.4936

>  <SCORE.INTRA>
-8.61099

>  <SCORE.INTRA.DIHEDRAL>
-5.83093

>  <SCORE.INTRA.DIHEDRAL.0>
22.9177

>  <SCORE.INTRA.POLAR>
-1.78211

>  <SCORE.INTRA.POLAR.0>
-0.311208

>  <SCORE.INTRA.REPUL>
0

>  <SCORE.INTRA.REPUL.0>
0

>  <SCORE.INTRA.SOLV>
-5.00796

>  <SCORE.INTRA.SOLV.lig_0>
-132.657

>  <SCORE.INTRA.VDW>
2.86762

>  <SCORE.INTRA.VDW.0>
-4.68867

>  <SCORE.INTRA.norm>
-0.269094

>  <SCORE.RESTR>
0

>  <SCORE.RESTR.CAVITY>
0

>  <SCORE.RESTR.norm>
0

>  <SCORE.SYSTEM>
0

>  <SCORE.SYSTEM.CONST>
0

>  <SCORE.SYSTEM.DIHEDRAL>
0

>  <SCORE.SYSTEM.SOLV>
0

>  <SCORE.SYSTEM.norm>
0

>  <SCORE.heavy>
32

>  <SCORE.norm>
-1.76269

>  <RMSD>
3.856

$$$$
1tob
 OpenBabel11021811413D
libRbt.so/2013.1/901 2013/11/27
 32 34  0  0  0  0  0  0  0  0999 V2000
   -2.2926    3.5956    4.0097 C   0  0  2  0  0  0  0  0  0  0  0  0
   -1.7788    4.1328    5.3434 C   0  0  1  0  0  0  0  0  0  0  0  0
   -0.2586    4.0546    5.3761 C   0  0  2  0  0  0  0  0  0  0  0  0
    0.1802    2.6208    5.1035 C   0  0  1  0  0  0  0  0  0  0  0  0
   -0.4055    2.1426    3.7778 C   0  0  1  0  0  0  0  0  0  0  0  0
   -0.0673    0.6937    3.4866 C   0  0  0  0  0  0  0  0  0  0  0  0
   -2.1926    5.4815    5.5083 O   0  0  0  0  0  0  0  0  0  0  0  0
    0.2744    4.5609    6.6595 N   0  3  0  0  0  0  0  0  0  0  0  0
    1.5993    2.5515    5.0640 O   0  0  0  0  0  0  0  0  0  0  0  0
   -1.8453    2.2494    3.8058 O   0  0  0  0  0  0  0  0  0  0  0  0
   -1.1620    0.0158    2.8864 O   0  0  0  0  0  0  0  0  0  0  0  0
   -3.3554    3.1985    1.5117 C   0  0  2  0  0  0  0  0  0  0  0  0
   -4.3270    3.3839    0.3542 C   0  0  0  0  0  0  0  0  0  0  0  0
   -5.4261    4.3771    0.7329 C   0  0  1  0  0  0  0  0  0  0  0  0
   -4.8018    5.7249    1.0870 C   0  0  2  0  0  0  0  0  0  0  0  0
   -3.8158    5.5565    2.2440 C   0  0  1  0  0  0  0  0  0  0  0  0
   -2.7366    4.5407    1.8709 C   0  0  1  0  0  0  0  0  0  0  0  0
   -2.2710    2.2636    1.1395 N   0  3  0  0  0  0  0  0  0  0  0  0
   -6.4132    4.4841   -0.3726 N   0  3  0  0  0  0  0  0  0  0  0  0
   -3.2163    6.8078    2.5521 O   0  0  0  0  0  0  0  0  0  0  0  0
   -1.8218    4.3744    2.9692 O   0  0  0  0  0  0  0  0  0  0  0  0
   -6.7067    6.2610    2.4464 C   0  0  1  0  0  0  0  0  0  0  0  0
   -7.9562    7.1434    2.4460 C   0  0  1  0  0  0  0  0  0  0  0  0
   -7.5858    8.5823    2.7727 C   0  0  0  0  0  0  0  0  0  0  0  0
   -6.8347    8.6186    4.0937 C   0  0  1  0  0  0  0  0  0  0  0  0
   -5.6171    7.6980    4.0205 C   0  0  1  0  0  0  0  0  0  0  0  0
   -4.8492    7.6387    5.3286 C   0  0  0  0  0  0  0  0  0  0  0  0
   -8.6853    7.0358    1.1602 N   0  3  0  0  0  0  0  0  0  0  0  0
   -3.4394    8.0611    5.1504 N   0  3  0  0  0  0  0  0  0  0  0  0
   -5.8294    6.6695    1.4506 O   0  0  0  0  0  0  0  0  0  0  0  0
   -6.4216    9.9467    4.3805 O   0  0  0  0  0  0  0  0  0  0  0  0
   -6.0305    6.3505    3.7066 O   0  0  0  0  0  0  0  0  0  0  0  0
  1  2  1  0  0  0  0
  1 10  1  0  0  0  0
  1 21  1  6  0  0  0
  2  3  1  0  0  0  0
  2  7  1  6  0  0  0
  3  4  1  0  0  0  0
  3  8  1  1  0  0  0
  4  5  1  0  0  0  0
  4  9  1  6  0  0  0
  5  6  1  1  0  0  0
  5 10  1  0  0  0  0
  6 11  1  0  0  0  0
 12 13  1  0  0  0  0
 12 17  1  0  0  0  0
 12 18  1  6  0  0  0
 13 14  1  0  0  0  0
 14 15  1  0  0  0  0
 14 19  1  6  0  0  0
 15 16  1  0  0  0  0
 15 30  1  1  0  0  0
 16 17  1  0  0  0  0
 16 20  1  6  0  0  0
 17 21  1  1  0  0  0
 22 23  1  0  0  0  0
 22 30  1  6  0  0  0
 22 32  1  0  0  0  0
 23 24  1  0  0  0  0
 23 28  1  6  0  0  0
 24 25  1  0  0  0  0
 25 26  1  0  0  0  0
 25 31  1  6  0  0  0
 26 27  1  1  0  0  0
 26 32  1  0  0  0  0
 27 29  1  0  0  0  0
M  CHG  5   8   1  18   1  19   1  28   1  29   1
M  END
>  <CHROM.1>
-144.69470771,-74.38398037,-48.97009113,65.59908554,141.44942510,-156.79109323
-27.91388926,-55.60139976,53.40248758,-158.54165013,-45.25667623,-163.35619308
-169.25643980,-172.29017258,-121.66070865,-145.56159672,-3.59474887,5.03031644
3.20320650,-0.32488494,-0.62727019,0.74423999

>  <Name>
1tob

>  <RI>
0

>  <Rbt.Current_Directory>
/home/itssahil/PROJECTS/Mol_Feturizer/New_Systems/rnas/1tob

>  <Rbt.Executable>
rbdock ($Id: //depot/dev/client3/rdock/2013.1/src/exe/rbdock.cxx#4 $)

>  <Rbt.Library>
libRbt.so (2013.1, Build901 2013/11/27)

>  <Rbt.Parameter_File>
/export/apps/rDock/src/rDock_2013.1_src/data/scripts/dock_solv.prm

>  <Rbt.Receptor>
prm/blind_docking_60.prm

>  <SCORE>
-39.3275

>  <SCORE.INTER>
-42.955

>  <SCORE.INTER.CONST>
1

>  <SCORE.INTER.POLAR>
-6.45791

>  <SCORE.INTER.ROT>
6

>  <SCORE.INTER.SOLV>
30.4194

>  <SCORE.INTER.VDW>
-24.8501

>  <SCORE.INTER.norm>
-1.34234

>  <SCORE.INTRA>
-1.40948

>  <SCORE.INTRA.DIHEDRAL>
4.0033

>  <SCORE.INTRA.DIHEDRAL.0>
22.9177

>  <SCORE.INTRA.POLAR>
-3.0557

>  <SCORE.INTRA.POLAR.0>
-0.311208

>  <SCORE.INTRA.REPUL>
0.00690583

>  <SCORE.INTRA.REPUL.0>
0

>  <SCORE.INTRA.SOLV>
6.9712

>  <SCORE.INTRA.SOLV.lig_0>
-132.657

>  <SCORE.INTRA.VDW>
3.45812

>  <SCORE.INTRA.VDW.0>
-4.68867

>  <SCORE.INTRA.norm>
-0.0440462

>  <SCORE.RESTR>
5.03692

>  <SCORE.RESTR.CAVITY>
5.03692

>  <SCORE.RESTR.norm>
0.157404

>  <SCORE.SYSTEM>
0

>  <SCORE.SYSTEM.CONST>
0

>  <SCORE.SYSTEM.DIHEDRAL>
0

>  <SCORE.SYSTEM.SOLV>
0

>  <SCORE.SYSTEM.norm>
0

>  <SCORE.heavy>
32

>  <SCORE.norm>
-1.22899

>  <RMSD>
3.881

$$$$
1tob
 OpenBabel11021811413D
libRbt.so/2013.1/901 2013/11/27
 32 34  0  0  0  0  0  0  0  0999 V2000
   -2.0166    3.3486    1.1653 C   0  0  2  0  0  0  0  0  0  0  0  0
   -1.9191    1.9848    1.8449 C   0  0  1  0  0  0  0  0  0  0  0  0
   -1.1060    2.1075    3.1263 C   0  0  2  0  0  0  0  0  0  0  0  0
    0.2561    2.7111    2.8054 C   0  0  1  0  0  0  0  0  0  0  0  0
    0.0756    4.0483    2.0923 C   0  0  1  0  0  0  0  0  0  0  0  0
    1.3973    4.6639    1.6768 C   0  0  0  0  0  0  0  0  0  0  0  0
   -3.2215    1.5061    2.1482 O   0  0  0  0  0  0  0  0  0  0  0  0
   -0.9844    0.8009    3.8085 N   0  3  0  0  0  0  0  0  0  0  0  0
    0.9961    2.8931    4.0050 O   0  0  0  0  0  0  0  0  0  0  0  0
   -0.7088    3.8678    0.8934 O   0  0  0  0  0  0  0  0  0  0  0  0
    2.2914    3.6820    1.1724 O   0  0  0  0  0  0  0  0  0  0  0  0
   -4.8324    4.1067    0.8864 C   0  0  2  0  0  0  0  0  0  0  0  0
   -5.9133    4.9370    0.2079 C   0  0  0  0  0  0  0  0  0  0  0  0
   -6.4542    5.9971    1.1677 C   0  0  1  0  0  0  0  0  0  0  0  0
   -5.3185    6.9159    1.6124 C   0  0  2  0  0  0  0  0  0  0  0  0
   -4.2185    6.0972    2.2898 C   0  0  1  0  0  0  0  0  0  0  0  0
   -3.7024    5.0201    1.3362 C   0  0  1  0  0  0  0  0  0  0  0  0
   -4.2820    3.1006   -0.0481 N   0  3  0  0  0  0  0  0  0  0  0  0
   -7.5653    6.7433    0.5223 N   0  3  0  0  0  0  0  0  0  0  0  0
   -3.1509    6.9518    2.6772 O   0  0  0  0  0  0  0  0  0  0  0  0
   -2.6796    4.2429    1.9848 O   0  0  0  0  0  0  0  0  0  0  0  0
   -6.5621    7.4493    3.5955 C   0  0  1  0  0  0  0  0  0  0  0  0
   -6.9384    8.6051    4.5242 C   0  0  1  0  0  0  0  0  0  0  0  0
   -5.6869    9.2314    5.1206 C   0  0  0  0  0  0  0  0  0  0  0  0
   -4.8702    8.1541    5.8156 C   0  0  1  0  0  0  0  0  0  0  0  0
   -4.5549    7.0293    4.8303 C   0  0  1  0  0  0  0  0  0  0  0  0
   -3.7887    5.8870    5.4724 C   0  0  0  0  0  0  0  0  0  0  0  0
   -7.7779    9.6035    3.8208 N   0  3  0  0  0  0  0  0  0  0  0  0
   -2.3255    6.0485    5.2977 N   0  3  0  0  0  0  0  0  0  0  0  0
   -5.8161    7.9183    2.5224 O   0  0  0  0  0  0  0  0  0  0  0  0
   -3.6640    8.7092    6.3195 O   0  0  0  0  0  0  0  0  0  0  0  0
   -5.7784    6.4769    4.2980 O   0  0  0  0  0  0  0  0  0  0  0  0
  1  2  1  0  0  0  0
  1 10  1  0  0  0  0
  1 21  1  1  0  0  0
  2  3  1  0  0  0  0
  2  7  1  1  0  0  0
  3  4  1  0  0  0  0
  3  8  1  6  0  0  0
  4  5  1  0  0  0  0
  4  9  1  1  0  0  0
  5  6  1  6  0  0  0
  5 10  1  0  0  0  0
  6 11  1  0  0  0  0
 12 13  1  0  0  0  0
 12 17  1  0  0  0  0
 12 18  1  6  0  0  0
 13 14  1  0  0  0  0
 14 15  1  0  0  0  0
 14 19  1  6  0  0  0
 15 16  1  0  0  0  0
 15 30  1  1  0  0  0
 16 17  1  0  0  0  0
 16 20  1  6  0  0  0
 17 21  1  1  0  0  0
 22 23  1  0  0  0  0
 22 30  1  6  0  0  0
 22 32  1  0  0  0  0
 23 24  1  0  0  0  0
 23 28  1  6  0  0  0
 24 25  1  0  0  0  0
 25 26  1  0  0  0  0
 25 31  1  6  0  0  0
 26 27  1  1  0  0  0
 26 32  1  0  0  0  0
 27 29  1  0  0  0  0
M  CHG  5   8   1  18   1  19   1  28   1  29   1
M  END
>  <CHROM.1>
-133.23511352,70.62175572,67.64437458,-179.66713655,40.62722037,159.14879983
152.69876632,-52.33837885,51.15988276,32.53757533,65.77710937,176.04215888
-172.69868944,87.00186118,-93.89157806,77.79717704,-3.42716118,5.32857088
2.78735378,0.60352796,0.45854685,-2.28313034

>  <Name>
1tob

>  <RI>
0

>  <Rbt.Current_Directory>
/home/itssahil/PROJECTS/Mol_Feturizer/New_Systems/rnas/1tob

>  <Rbt.Executable>
rbdock ($Id: //depot/dev/client3/rdock/2013.1/src/exe/rbdock.cxx#4 $)

>  <Rbt.Library>
libRbt.so (2013.1, Build901 2013/11/27)

>  <Rbt.Parameter_File>
/export/apps/rDock/src/rDock_2013.1_src/data/scripts/dock_solv.prm

>  <Rbt.Receptor>
prm/blind_docking_100.prm

>  <SCORE>
9.88824

>  <SCORE.INTER>
-15.6412

>  <SCORE.INTER.CONST>
1

>  <SCORE.INTER.POLAR>
-5.92489

>  <SCORE.INTER.ROT>
6

>  <SCORE.INTER.SOLV>
34.2176

>  <SCORE.INTER.VDW>
-9.6837

>  <SCORE.INTER.norm>
-0.488788

>  <SCORE.INTRA>
17.3442

>  <SCORE.INTRA.DIHEDRAL>
-0.320991

>  <SCORE.INTRA.DIHEDRAL.0>
22.9177

>  <SCORE.INTRA.POLAR>
-0.61488

>  <SCORE.INTRA.POLAR.0>
-0.311208

>  <SCORE.INTRA.REPUL>
0

>  <SCORE.INTRA.REPUL.0>
0

>  <SCORE.INTRA.SOLV>
2.6675

>  <SCORE.INTRA.SOLV.lig_0>
-132.657

>  <SCORE.INTRA.VDW>
18.2615

>  <SCORE.INTRA.VDW.0>
-4.68867

>  <SCORE.INTRA.norm>
0.542006

>  <SCORE.RESTR>
8.18526

>  <SCORE.RESTR.CAVITY>
8.18526

>  <SCORE.RESTR.norm>
0.255789

>  <SCORE.SYSTEM>
0

>  <SCORE.SYSTEM.CONST>
0

>  <SCORE.SYSTEM.DIHEDRAL>
0

>  <SCORE.SYSTEM.SOLV>
0

>  <SCORE.SYSTEM.norm>
0

>  <SCORE.heavy>
32

>  <SCORE.norm>
0.309008

>  <RMSD>
3.882

$$$$
1tob
 OpenBabel11021811413D
libRbt.so/2013.1/901 2013/11/27
 32 34  0  0  0  0  0  0  0  0999 V2000
    0.1002    4.1759    3.7104 C   0  0  2  0  0  0  0  0  0  0  0  0
    1.2607    3.3507    3.1595 C   0  0  1  0  0  0  0  0  0  0  0  0
    1.5074    2.1478    4.0597 C   0  0  2  0  0  0  0  0  0  0  0  0
    1.7418    2.6245    5.4881 C   0  0  1  0  0  0  0  0  0  0  0  0
    0.5617    3.4743    5.9512 C   0  0  1  0  0  0  0  0  0  0  0  0
    0.7705    4.0435    7.3408 C   0  0  0  0  0  0  0  0  0  0  0  0
    0.9537    2.9099    1.8446 O   0  0  0  0  0  0  0  0  0  0  0  0
    2.6321    1.3282    3.5591 N   0  3  0  0  0  0  0  0  0  0  0  0
    1.9046    1.5047    6.3481 O   0  0  0  0  0  0  0  0  0  0  0  0
    0.3739    4.5906    5.0547 O   0  0  0  0  0  0  0  0  0  0  0  0
   -0.3727    4.7601    7.7853 O   0  0  0  0  0  0  0  0  0  0  0  0
   -2.9142    2.5455    2.4293 C   0  0  2  0  0  0  0  0  0  0  0  0
   -3.8944    2.8780    1.3126 C   0  0  0  0  0  0  0  0  0  0  0  0
   -4.7122    4.1190    1.6713 C   0  0  1  0  0  0  0  0  0  0  0  0
   -3.7768    5.3060    1.8901 C   0  0  2  0  0  0  0  0  0  0  0  0
   -2.7788    4.9867    3.0043 C   0  0  1  0  0  0  0  0  0  0  0  0
   -1.9851    3.7285    2.6539 C   0  0  1  0  0  0  0  0  0  0  0  0
   -2.0971    1.3648    2.0735 N   0  3  0  0  0  0  0  0  0  0  0  0
   -5.7216    4.3822    0.6131 N   0  3  0  0  0  0  0  0  0  0  0  0
   -1.8924    6.0827    3.1858 O   0  0  0  0  0  0  0  0  0  0  0  0
   -1.0598    3.4240    3.7132 O   0  0  0  0  0  0  0  0  0  0  0  0
   -3.8846    7.6975    2.0719 C   0  0  1  0  0  0  0  0  0  0  0  0
   -4.8025    8.8503    2.4823 C   0  0  1  0  0  0  0  0  0  0  0  0
   -6.0228    8.9013    1.5754 C   0  0  0  0  0  0  0  0  0  0  0  0
   -5.5678    8.9923    0.1280 C   0  0  1  0  0  0  0  0  0  0  0  0
   -4.6405    7.8215   -0.1960 C   0  0  1  0  0  0  0  0  0  0  0  0
   -4.0985    7.8793   -1.6127 C   0  0  0  0  0  0  0  0  0  0  0  0
   -5.1773    8.7509    3.9127 N   0  3  0  0  0  0  0  0  0  0  0  0
   -5.1795    7.7199   -2.6147 N   0  3  0  0  0  0  0  0  0  0  0  0
   -4.5371    6.4825    2.2337 O   0  0  0  0  0  0  0  0  0  0  0  0
   -6.6940    8.9721   -0.7369 O   0  0  0  0  0  0  0  0  0  0  0  0
   -3.5049    7.8248    0.6960 O   0  0  0  0  0  0  0  0  0  0  0  0
  1  2  1  0  0  0  0
  1 10  1  0  0  0  0
  1 21  1  1  0  0  0
  2  3  1  0  0  0  0
  2  7  1  6  0  0  0
  3  4  1  0  0  0  0
  3  8  1  6  0  0  0
  4  5  1  0  0  0  0
  4  9  1  1  0  0  0
  5  6  1  1  0  0  0
  5 10  1  0  0  0  0
  6 11  1  0  0  0  0
 12 13  1  0  0  0  0
 12 17  1  0  0  0  0
 12 18  1  6  0  0  0
 13 14  1  0  0  0  0
 14 15  1  0  0  0  0
 14 19  1  6  0  0  0
 15 16  1  0  0  0  0
 15 30  1  1  0  0  0
 16 17  1  0  0  0  0
 16 20  1  6  0  0  0
 17 21  1  1  0  0  0
 22 23  1  0  0  0  0
 22 30  1  6  0  0  0
 22 32  1  0  0  0  0
 23 24  1  0  0  0  0
 23 28  1  1  0  0  0
 24 25  1  0  0  0  0
 25 26  1  0  0  0  0
 25 31  1  6  0  0  0
 26 27  1  6  0  0  0
 26 32  1  0  0  0  0
 27 29  1  0  0  0  0
M  CHG  5   8   1  18   1  19   1  28   1  29   1
M  END
>  <CHROM.1>
-103.02014390,68.43487910,-47.84807311,-179.76791211,-176.31835597,76.76766131
-73.99424772,-67.78455327,-161.49663315,168.64149071,158.33484271,-179.56459060
87.83373038,-58.07629493,-65.36342677,71.26328884,-2.29389353,5.09911091
2.64920765,0.06829727,-0.83573348,0.91888992

>  <Name>
1tob

>  <RI>
0

>  <Rbt.Current_Directory>
/home/itssahil/PROJECTS/Mol_Feturizer/New_Systems/rnas/1tob

>  <Rbt.Executable>
rbdock ($Id: //depot/dev/client3/rdock/2013.1/src/exe/rbdock.cxx#4 $)

>  <Rbt.Library>
libRbt.so (2013.1, Build901 2013/11/27)

>  <Rbt.Parameter_File>
/export/apps/rDock/src/rDock_2013.1_src/data/scripts/dock_solv.prm

>  <Rbt.Receptor>
prm/pocket_docking_5.prm

>  <SCORE>
-54.6872

>  <SCORE.INTER>
-49.4212

>  <SCORE.INTER.CONST>
1

>  <SCORE.INTER.POLAR>
-7.60522

>  <SCORE.INTER.ROT>
6

>  <SCORE.INTER.SOLV>
23.1625

>  <SCORE.INTER.VDW>
-22.9176

>  <SCORE.INTER.norm>
-1.54441

>  <SCORE.INTRA>
-5.26599

>  <SCORE.INTRA.DIHEDRAL>
-8.24437

>  <SCORE.INTRA.DIHEDRAL.0>
22.9177

>  <SCORE.INTRA.POLAR>
-0.276616

>  <SCORE.INTRA.POLAR.0>
-0.311208

>  <SCORE.INTRA.REPUL>
0

>  <SCORE.INTRA.REPUL.0>
0

>  <SCORE.INTRA.SOLV>
-3.82265

>  <SCORE.INTRA.SOLV.lig_0>
-132.657

>  <SCORE.INTRA.VDW>
1.70801

>  <SCORE.INTRA.VDW.0>
-4.68867

>  <SCORE.INTRA.norm>
-0.164562

>  <SCORE.RESTR>
0

>  <SCORE.RESTR.CAVITY>
0

>  <SCORE.RESTR.norm>
0

>  <SCORE.SYSTEM>
0

>  <SCORE.SYSTEM.CONST>
0

>  <SCORE.SYSTEM.DIHEDRAL>
0

>  <SCORE.SYSTEM.SOLV>
0

>  <SCORE.SYSTEM.norm>
0

>  <SCORE.heavy>
32

>  <SCORE.norm>
-1.70898

>  <RMSD>
3.908

$$$$
1tob
 OpenBabel11021811413D
libRbt.so/2013.1/901 2013/11/27
 32 34  0  0  0  0  0  0  0  0999 V2000
   -1.9329    4.2301    2.7734 C   0  0  2  0  0  0  0  0  0  0  0  0
   -1.8839    2.7601    2.3638 C   0  0  1  0  0  0  0  0  0  0  0  0
   -1.8053    1.8838    3.6065 C   0  0  2  0  0  0  0  0  0  0  0  0
   -0.6079    2.3069    4.4489 C   0  0  1  0  0  0  0  0  0  0  0  0
   -0.7073    3.7931    4.7817 C   0  0  1  0  0  0  0  0  0  0  0  0
    0.4969    4.2931    5.5553 C   0  0  0  0  0  0  0  0  0  0  0  0
   -3.0475    2.4310    1.6187 O   0  0  0  0  0  0  0  0  0  0  0  0
   -1.7487    0.4505    3.2463 N   0  3  0  0  0  0  0  0  0  0  0  0
   -0.5665    1.5402    5.6449 O   0  0  0  0  0  0  0  0  0  0  0  0
   -0.7875    4.5680    3.5659 O   0  0  0  0  0  0  0  0  0  0  0  0
    1.7115    3.9527    4.9017 O   0  0  0  0  0  0  0  0  0  0  0  0
   -2.7639    6.7677    4.2461 C   0  0  2  0  0  0  0  0  0  0  0  0
   -3.3217    8.1780    4.1107 C   0  0  0  0  0  0  0  0  0  0  0  0
   -3.2984    8.6237    2.6484 C   0  0  1  0  0  0  0  0  0  0  0  0
   -4.1385    7.6669    1.8055 C   0  0  2  0  0  0  0  0  0  0  0  0
   -3.5971    6.2425    1.9357 C   0  0  1  0  0  0  0  0  0  0  0  0
   -3.5950    5.8133    3.4026 C   0  0  1  0  0  0  0  0  0  0  0  0
   -2.8144    6.3184    5.6547 N   0  3  0  0  0  0  0  0  0  0  0  0
   -3.7653   10.0304    2.5415 N   0  3  0  0  0  0  0  0  0  0  0  0
   -4.3983    5.3508    1.1722 O   0  0  0  0  0  0  0  0  0  0  0  0
   -3.0693    4.4789    3.5202 O   0  0  0  0  0  0  0  0  0  0  0  0
   -5.1584    7.5972   -0.3668 C   0  0  1  0  0  0  0  0  0  0  0  0
   -5.2958    8.4459   -1.6320 C   0  0  1  0  0  0  0  0  0  0  0  0
   -5.6640    9.8768   -1.2697 C   0  0  0  0  0  0  0  0  0  0  0  0
   -6.9246    9.8700   -0.4205 C   0  0  1  0  0  0  0  0  0  0  0  0
   -6.7145    8.9858    0.8081 C   0  0  1  0  0  0  0  0  0  0  0  0
   -7.9563    8.8845    1.6752 C   0  0  0  0  0  0  0  0  0  0  0  0
   -4.0650    8.3805   -2.4550 N   0  3  0  0  0  0  0  0  0  0  0  0
   -7.6750    8.1746    2.9459 N   0  3  0  0  0  0  0  0  0  0  0  0
   -4.1205    8.0750    0.4221 O   0  0  0  0  0  0  0  0  0  0  0  0
   -7.2444   11.1933   -0.0162 O   0  0  0  0  0  0  0  0  0  0  0  0
   -6.3668    7.6443    0.4019 O   0  0  0  0  0  0  0  0  0  0  0  0
  1  2  1  0  0  0  0
  1 10  1  0  0  0  0
  1 21  1  1  0  0  0
  2  3  1  0  0  0  0
  2  7  1  1  0  0  0
  3  4  1  0  0  0  0
  3  8  1  6  0  0  0
  4  5  1  0  0  0  0
  4  9  1  1  0  0  0
  5  6  1  6  0  0  0
  5 10  1  0  0  0  0
  6 11  1  0  0  0  0
 12 13  1  0  0  0  0
 12 17  1  0  0  0  0
 12 18  1  1  0  0  0
 13 14  1  0  0  0  0
 14 15  1  0  0  0  0
 14 19  1  1  0  0  0
 15 16  1  0  0  0  0
 15 30  1  6  0  0  0
 16 17  1  0  0  0  0
 16 20  1  6  0  0  0
 17 21  1  6  0  0  0
 22 23  1  0  0  0  0
 22 30  1  1  0  0  0
 22 32  1  0  0  0  0
 23 24  1  0  0  0  0
 23 28  1  1  0  0  0
 24 25  1  0  0  0  0
 25 26  1  0  0  0  0
 25 31  1  1  0  0  0
 26 27  1  6  0  0  0
 26 32  1  0  0  0  0
 27 29  1  0  0  0  0
M  CHG  5   8   1  18   1  19   1  28   1  29   1
M  END
>  <CHROM.1>
-150.02119083,-77.74266492,47.56847399,82.36406238,52.13490045,61.87727851
-69.21101332,154.57255198,-159.31544371,74.62512514,-77.87734759,161.00598014
-159.15169869,66.72250470,-172.40258573,59.68416480,-3.51783076,6.18773779
2.31078353,0.24876460,0.94400138,-2.45143326

>  <Name>
1tob

>  <RI>
0

>  <Rbt.Current_Directory>
/home/itssahil/PROJECTS/Mol_Feturizer/New_Systems/rnas/1tob

>  <Rbt.Executable>
rbdock ($Id: //depot/dev/client3/rdock/2013.1/src/exe/rbdock.cxx#4 $)

>  <Rbt.Library>
libRbt.so (2013.1, Build901 2013/11/27)

>  <Rbt.Parameter_File>
/export/apps/rDock/src/rDock_2013.1_src/data/scripts/dock_solv.prm

>  <Rbt.Receptor>
prm/pocket_docking_7.prm

>  <SCORE>
-42.0385

>  <SCORE.INTER>
-41.1453

>  <SCORE.INTER.CONST>
1

>  <SCORE.INTER.POLAR>
-6.84327

>  <SCORE.INTER.ROT>
6

>  <SCORE.INTER.SOLV>
26.1005

>  <SCORE.INTER.VDW>
-20.9194

>  <SCORE.INTER.norm>
-1.28579

>  <SCORE.INTRA>
-0.893221

>  <SCORE.INTRA.DIHEDRAL>
-6.09647

>  <SCORE.INTRA.DIHEDRAL.0>
22.9177

>  <SCORE.INTRA.POLAR>
0.267459

>  <SCORE.INTRA.POLAR.0>
-0.311208

>  <SCORE.INTRA.REPUL>
0

>  <SCORE.INTRA.REPUL.0>
0

>  <SCORE.INTRA.SOLV>
-1.88995

>  <SCORE.INTRA.SOLV.lig_0>
-132.657

>  <SCORE.INTRA.VDW>
2.19063

>  <SCORE.INTRA.VDW.0>
-4.68867

>  <SCORE.INTRA.norm>
-0.0279131

>  <SCORE.RESTR>
0

>  <SCORE.RESTR.CAVITY>
0

>  <SCORE.RESTR.norm>
0

>  <SCORE.SYSTEM>
0

>  <SCORE.SYSTEM.CONST>
0

>  <SCORE.SYSTEM.DIHEDRAL>
0

>  <SCORE.SYSTEM.SOLV>
0

>  <SCORE.SYSTEM.norm>
0

>  <SCORE.heavy>
32

>  <SCORE.norm>
-1.3137

>  <RMSD>
3.926

$$$$
1tob
 OpenBabel11021811413D
libRbt.so/2013.1/901 2013/11/27
 32 34  0  0  0  0  0  0  0  0999 V2000
   -0.0339    4.3586    4.9010 C   0  0  2  0  0  0  0  0  0  0  0  0
    1.2104    3.4911    4.7270 C   0  0  1  0  0  0  0  0  0  0  0  0
    1.2301    2.4034    5.7923 C   0  0  2  0  0  0  0  0  0  0  0  0
    1.1400    3.0446    7.1719 C   0  0  1  0  0  0  0  0  0  0  0  0
   -0.1031    3.9264    7.2535 C   0  0  1  0  0  0  0  0  0  0  0  0
   -0.2080    4.6546    8.5791 C   0  0  0  0  0  0  0  0  0  0  0  0
    1.2044    2.8975    3.4366 O   0  0  0  0  0  0  0  0  0  0  0  0
    2.4282    1.5467    5.6584 N   0  3  0  0  0  0  0  0  0  0  0  0
    1.0883    2.0337    8.1695 O   0  0  0  0  0  0  0  0  0  0  0  0
   -0.0674    4.9292    6.2152 O   0  0  0  0  0  0  0  0  0  0  0  0
    0.9579    5.4220    8.8433 O   0  0  0  0  0  0  0  0  0  0  0  0
   -2.5565    2.6113    3.0013 C   0  0  2  0  0  0  0  0  0  0  0  0
   -3.3544    2.9290    1.7441 C   0  0  0  0  0  0  0  0  0  0  0  0
   -4.4429    3.9588    2.0480 C   0  0  1  0  0  0  0  0  0  0  0  0
   -3.8046    5.2413    2.5767 C   0  0  2  0  0  0  0  0  0  0  0  0
   -2.9915    4.9397    3.8365 C   0  0  1  0  0  0  0  0  0  0  0  0
   -1.9246    3.8881    3.5339 C   0  0  1  0  0  0  0  0  0  0  0  0
   -1.4805    1.6399    2.7062 N   0  3  0  0  0  0  0  0  0  0  0  0
   -5.2671    4.1959    0.8345 N   0  3  0  0  0  0  0  0  0  0  0  0
   -2.3764    6.1304    4.3095 O   0  0  0  0  0  0  0  0  0  0  0  0
   -1.1740    3.5967    4.7267 O   0  0  0  0  0  0  0  0  0  0  0  0
   -4.4252    7.5485    2.8118 C   0  0  1  0  0  0  0  0  0  0  0  0
   -5.5130    8.4533    3.3932 C   0  0  1  0  0  0  0  0  0  0  0  0
   -6.7824    8.3537    2.5608 C   0  0  0  0  0  0  0  0  0  0  0  0
   -6.4571    8.6742    1.1110 C   0  0  1  0  0  0  0  0  0  0  0  0
   -5.3505    7.7452    0.6129 C   0  0  1  0  0  0  0  0  0  0  0  0
   -4.9316    8.0473   -0.8145 C   0  0  0  0  0  0  0  0  0  0  0  0
   -5.7594    8.1420    4.8211 N   0  3  0  0  0  0  0  0  0  0  0  0
   -5.7779    7.3240   -1.7935 N   0  3  0  0  0  0  0  0  0  0  0  0
   -4.8228    6.2195    2.8714 O   0  0  0  0  0  0  0  0  0  0  0  0
   -7.6179    8.5193    0.3076 O   0  0  0  0  0  0  0  0  0  0  0  0
   -4.1755    7.8827    1.4409 O   0  0  0  0  0  0  0  0  0  0  0  0
  1  2  1  0  0  0  0
  1 10  1  0  0  0  0
  1 21  1  1  0  0  0
  2  3  1  0  0  0  0
  2  7  1  6  0  0  0
  3  4  1  0  0  0  0
  3  8  1  1  0  0  0
  4  5  1  0  0  0  0
  4  9  1  1  0  0  0
  5  6  1  1  0  0  0
  5 10  1  0  0  0  0
  6 11  1  0  0  0  0
 12 13  1  0  0  0  0
 12 17  1  0  0  0  0
 12 18  1  6  0  0  0
 13 14  1  0  0  0  0
 14 15  1  0  0  0  0
 14 19  1  6  0  0  0
 15 16  1  0  0  0  0
 15 30  1  1  0  0  0
 16 17  1  0  0  0  0
 16 20  1  6  0  0  0
 17 21  1  1  0  0  0
 22 23  1  0  0  0  0
 22 30  1  6  0  0  0
 22 32  1  0  0  0  0
 23 24  1  0  0  0  0
 23 28  1  1  0  0  0
 24 25  1  0  0  0  0
 25 26  1  0  0  0  0
 25 31  1  6  0  0  0
 26 27  1  6  0  0  0
 26 32  1  0  0  0  0
 27 29  1  0  0  0  0
M  CHG  5   8   1  18   1  19   1  28   1  29   1
M  END
>  <CHROM.1>
-110.64566626,172.81603571,-179.17643670,68.85893022,55.66613047,-59.70539844
-98.74498965,65.14912516,-153.87703313,-179.13864942,145.97210232,-169.46588220
161.23192653,-53.03137411,-87.15194764,166.32543138,-2.54466150,5.12744286
3.67179726,0.20111104,-0.78956403,0.96063764

>  <Name>
1tob

>  <RI>
0

>  <Rbt.Current_Directory>
/home/itssahil/PROJECTS/Mol_Feturizer/New_Systems/rnas/1tob

>  <Rbt.Executable>
rbdock ($Id: //depot/dev/client3/rdock/2013.1/src/exe/rbdock.cxx#4 $)

>  <Rbt.Library>
libRbt.so (2013.1, Build901 2013/11/27)

>  <Rbt.Parameter_File>
/export/apps/rDock/src/rDock_2013.1_src/data/scripts/dock_solv.prm

>  <Rbt.Receptor>
prm/pocket_docking_4.prm

>  <SCORE>
-37.9969

>  <SCORE.INTER>
-32.321

>  <SCORE.INTER.CONST>
1

>  <SCORE.INTER.POLAR>
-3.96227

>  <SCORE.INTER.ROT>
6

>  <SCORE.INTER.SOLV>
19.4395

>  <SCORE.INTER.VDW>
-22.4196

>  <SCORE.INTER.norm>
-1.01003

>  <SCORE.INTRA>
-5.80944

>  <SCORE.INTRA.DIHEDRAL>
-1.32403

>  <SCORE.INTRA.DIHEDRAL.0>
22.9177

>  <SCORE.INTRA.POLAR>
-1.61709

>  <SCORE.INTRA.POLAR.0>
-0.311208

>  <SCORE.INTRA.REPUL>
0

>  <SCORE.INTRA.REPUL.0>
0

>  <SCORE.INTRA.SOLV>
-0.454977

>  <SCORE.INTRA.SOLV.lig_0>
-132.657

>  <SCORE.INTRA.VDW>
0.578185

>  <SCORE.INTRA.VDW.0>
-4.68867

>  <SCORE.INTRA.norm>
-0.181545

>  <SCORE.RESTR>
0.133497

>  <SCORE.RESTR.CAVITY>
0.133497

>  <SCORE.RESTR.norm>
0.00417177

>  <SCORE.SYSTEM>
0

>  <SCORE.SYSTEM.CONST>
0

>  <SCORE.SYSTEM.DIHEDRAL>
0

>  <SCORE.SYSTEM.SOLV>
0

>  <SCORE.SYSTEM.norm>
0

>  <SCORE.heavy>
32

>  <SCORE.norm>
-1.1874

>  <RMSD>
3.931

$$$$
1tob
 OpenBabel11021811413D
libRbt.so/2013.1/901 2013/11/27
 32 34  0  0  0  0  0  0  0  0999 V2000
    0.2724    3.7206    4.6205 C   0  0  2  0  0  0  0  0  0  0  0  0
    1.3776    2.6678    4.5842 C   0  0  1  0  0  0  0  0  0  0  0  0
    1.2451    1.7438    5.7871 C   0  0  2  0  0  0  0  0  0  0  0  0
    1.2553    2.5732    7.0656 C   0  0  1  0  0  0  0  0  0  0  0  0
    0.1530    3.6272    7.0086 C   0  0  1  0  0  0  0  0  0  0  0  0
    0.1607    4.5367    8.2216 C   0  0  0  0  0  0  0  0  0  0  0  0
    1.2797    1.9111    3.3861 O   0  0  0  0  0  0  0  0  0  0  0  0
    2.3064    0.7137    5.7884 N   0  3  0  0  0  0  0  0  0  0  0  0
    1.0631    1.7256    8.1902 O   0  0  0  0  0  0  0  0  0  0  0  0
    0.3280    4.4637    5.8447 O   0  0  0  0  0  0  0  0  0  0  0  0
   -1.0219    5.3207    8.2899 O   0  0  0  0  0  0  0  0  0  0  0  0
   -2.5154    2.2717    2.8753 C   0  0  2  0  0  0  0  0  0  0  0  0
   -3.3424    2.6708    1.6609 C   0  0  0  0  0  0  0  0  0  0  0  0
   -4.3176    3.7912    2.0232 C   0  0  1  0  0  0  0  0  0  0  0  0
   -3.5413    5.0066    2.5251 C   0  0  2  0  0  0  0  0  0  0  0  0
   -2.6976    4.6222    3.7415 C   0  0  1  0  0  0  0  0  0  0  0  0
   -1.7457    3.4819    3.3815 C   0  0  1  0  0  0  0  0  0  0  0  0
   -1.5469    1.2105    2.5226 N   0  3  0  0  0  0  0  0  0  0  0  0
   -5.1758    4.1121    0.8533 N   0  3  0  0  0  0  0  0  0  0  0  0
   -1.9553    5.7488    4.1886 O   0  0  0  0  0  0  0  0  0  0  0  0
   -0.9666    3.1138    4.5340 O   0  0  0  0  0  0  0  0  0  0  0  0
   -4.4887    7.1500    2.0032 C   0  0  1  0  0  0  0  0  0  0  0  0
   -4.4308    8.4632    2.7855 C   0  0  1  0  0  0  0  0  0  0  0  0
   -5.6540    8.5988    3.6798 C   0  0  0  0  0  0  0  0  0  0  0  0
   -6.9100    8.4674    2.8338 C   0  0  1  0  0  0  0  0  0  0  0  0
   -6.8815    7.1442    2.0697 C   0  0  1  0  0  0  0  0  0  0  0  0
   -8.0810    6.9706    1.1558 C   0  0  0  0  0  0  0  0  0  0  0  0
   -3.1674    8.5726    3.5523 N   0  3  0  0  0  0  0  0  0  0  0  0
   -9.3406    6.8548    1.9290 N   0  3  0  0  0  0  0  0  0  0  0  0
   -4.4516    6.0695    2.8746 O   0  0  0  0  0  0  0  0  0  0  0  0
   -8.0615    8.5233    3.6631 O   0  0  0  0  0  0  0  0  0  0  0  0
   -5.7003    7.0731    1.2420 O   0  0  0  0  0  0  0  0  0  0  0  0
  1  2  1  0  0  0  0
  1 10  1  0  0  0  0
  1 21  1  1  0  0  0
  2  3  1  0  0  0  0
  2  7  1  6  0  0  0
  3  4  1  0  0  0  0
  3  8  1  1  0  0  0
  4  5  1  0  0  0  0
  4  9  1  1  0  0  0
  5  6  1  1  0  0  0
  5 10  1  0  0  0  0
  6 11  1  0  0  0  0
 12 13  1  0  0  0  0
 12 17  1  0  0  0  0
 12 18  1  6  0  0  0
 13 14  1  0  0  0  0
 14 15  1  0  0  0  0
 14 19  1  6  0  0  0
 15 16  1  0  0  0  0
 15 30  1  1  0  0  0
 16 17  1  0  0  0  0
 16 20  1  6  0  0  0
 17 21  1  1  0  0  0
 22 23  1  0  0  0  0
 22 30  1  1  0  0  0
 22 32  1  0  0  0  0
 23 24  1  0  0  0  0
 23 28  1  1  0  0  0
 24 25  1  0  0  0  0
 25 26  1  0  0  0  0
 25 31  1  1  0  0  0
 26 27  1  6  0  0  0
 26 32  1  0  0  0  0
 27 29  1  0  0  0  0
M  CHG  5   8   1  18   1  19   1  28   1  29   1
M  END
>  <CHROM.1>
-118.31541556,67.67867502,-54.06201043,173.79590973,-167.87646198,65.82066206
29.28201534,66.48397344,-107.10946220,-179.17278869,142.97862185,-133.54209224
-162.39811834,-75.94604887,-65.93361197,-40.04584010,-2.70401458,4.76626148
3.92501147,0.07749118,0.67893918,-2.35211090

>  <Name>
1tob

>  <RI>
0

>  <Rbt.Current_Directory>
/home/itssahil/PROJECTS/Mol_Feturizer/New_Systems/rnas/1tob

>  <Rbt.Executable>
rbdock ($Id: //depot/dev/client3/rdock/2013.1/src/exe/rbdock.cxx#4 $)

>  <Rbt.Library>
libRbt.so (2013.1, Build901 2013/11/27)

>  <Rbt.Parameter_File>
/export/apps/rDock/src/rDock_2013.1_src/data/scripts/dock_solv.prm

>  <Rbt.Receptor>
prm/pocket_docking_6.prm

>  <SCORE>
-51.7332

>  <SCORE.INTER>
-44.4204

>  <SCORE.INTER.CONST>
1

>  <SCORE.INTER.POLAR>
-5.90442

>  <SCORE.INTER.ROT>
6

>  <SCORE.INTER.SOLV>
23.2438

>  <SCORE.INTER.VDW>
-25.2801

>  <SCORE.INTER.norm>
-1.38814

>  <SCORE.INTRA>
-7.31282

>  <SCORE.INTRA.DIHEDRAL>
7.84984

>  <SCORE.INTRA.DIHEDRAL.0>
22.9177

>  <SCORE.INTRA.POLAR>
-3.2131

>  <SCORE.INTRA.POLAR.0>
-0.311208

>  <SCORE.INTRA.REPUL>
0

>  <SCORE.INTRA.REPUL.0>
0

>  <SCORE.INTRA.SOLV>
0.0634174

>  <SCORE.INTRA.SOLV.lig_0>
-132.657

>  <SCORE.INTRA.VDW>
-0.3449

>  <SCORE.INTRA.VDW.0>
-4.68867

>  <SCORE.INTRA.norm>
-0.228526

>  <SCORE.RESTR>
0

>  <SCORE.RESTR.CAVITY>
0

>  <SCORE.RESTR.norm>
0

>  <SCORE.SYSTEM>
0

>  <SCORE.SYSTEM.CONST>
0

>  <SCORE.SYSTEM.DIHEDRAL>
0

>  <SCORE.SYSTEM.SOLV>
0

>  <SCORE.SYSTEM.norm>
0

>  <SCORE.heavy>
32

>  <SCORE.norm>
-1.61666

>  <RMSD>
3.938

$$$$
1tob
 OpenBabel11021811413D
libRbt.so/2013.1/901 2013/11/27
 32 34  0  0  0  0  0  0  0  0999 V2000
   -1.8957    4.0435    2.8593 C   0  0  2  0  0  0  0  0  0  0  0  0
   -2.1135    2.8423    1.9423 C   0  0  1  0  0  0  0  0  0  0  0  0
   -1.6992    1.5661    2.6619 C   0  0  2  0  0  0  0  0  0  0  0  0
   -0.2570    1.6983    3.1365 C   0  0  1  0  0  0  0  0  0  0  0  0
   -0.1108    2.9410    4.0104 C   0  0  1  0  0  0  0  0  0  0  0  0
    1.3212    3.1708    4.4520 C   0  0  0  0  0  0  0  0  0  0  0  0
   -3.4833    2.7618    1.5751 O   0  0  0  0  0  0  0  0  0  0  0  0
   -1.8902    0.3805    1.7986 N   0  3  0  0  0  0  0  0  0  0  0  0
    0.1163    0.5391    3.8693 O   0  0  0  0  0  0  0  0  0  0  0  0
   -0.5265    4.1134    3.2770 O   0  0  0  0  0  0  0  0  0  0  0  0
    2.1905    3.3179    3.3381 O   0  0  0  0  0  0  0  0  0  0  0  0
   -2.8010    6.2893    4.5311 C   0  0  2  0  0  0  0  0  0  0  0  0
   -3.7623    7.4491    4.7525 C   0  0  0  0  0  0  0  0  0  0  0  0
   -4.6128    7.6841    3.5039 C   0  0  1  0  0  0  0  0  0  0  0  0
   -5.4111    6.4233    3.1804 C   0  0  2  0  0  0  0  0  0  0  0  0
   -4.4612    5.2446    2.9625 C   0  0  1  0  0  0  0  0  0  0  0  0
   -3.5931    5.0332    4.2024 C   0  0  1  0  0  0  0  0  0  0  0  0
   -1.9983    6.0360    5.7476 N   0  3  0  0  0  0  0  0  0  0  0  0
   -5.4853    8.8704    3.7027 N   0  3  0  0  0  0  0  0  0  0  0  0
   -5.2089    4.0672    2.6892 O   0  0  0  0  0  0  0  0  0  0  0  0
   -2.6904    3.9338    3.9850 O   0  0  0  0  0  0  0  0  0  0  0  0
   -7.2311    5.7102    1.7864 C   0  0  1  0  0  0  0  0  0  0  0  0
   -7.1257    5.1234    0.3777 C   0  0  1  0  0  0  0  0  0  0  0  0
   -7.3177    6.2152   -0.6641 C   0  0  0  0  0  0  0  0  0  0  0  0
   -8.6408    6.9201   -0.4129 C   0  0  1  0  0  0  0  0  0  0  0  0
   -8.6762    7.4568    1.0175 C   0  0  1  0  0  0  0  0  0  0  0  0
   -9.9959    8.1244    1.3592 C   0  0  0  0  0  0  0  0  0  0  0  0
   -5.8448    4.4006    0.1950 N   0  3  0  0  0  0  0  0  0  0  0  0
  -10.2022    9.3584    0.5640 N   0  3  0  0  0  0  0  0  0  0  0  0
   -6.2146    6.6315    2.0007 O   0  0  0  0  0  0  0  0  0  0  0  0
   -8.8045    7.9876   -1.3352 O   0  0  0  0  0  0  0  0  0  0  0  0
   -8.4874    6.3777    1.9585 O   0  0  0  0  0  0  0  0  0  0  0  0
  1  2  1  0  0  0  0
  1 10  1  0  0  0  0
  1 21  1  1  0  0  0
  2  3  1  0  0  0  0
  2  7  1  1  0  0  0
  3  4  1  0  0  0  0
  3  8  1  6  0  0  0
  4  5  1  0  0  0  0
  4  9  1  1  0  0  0
  5  6  1  6  0  0  0
  5 10  1  0  0  0  0
  6 11  1  0  0  0  0
 12 13  1  0  0  0  0
 12 17  1  0  0  0  0
 12 18  1  1  0  0  0
 13 14  1  0  0  0  0
 14 15  1  0  0  0  0
 14 19  1  1  0  0  0
 15 16  1  0  0  0  0
 15 30  1  6  0  0  0
 16 17  1  0  0  0  0
 16 20  1  1  0  0  0
 17 21  1  6  0  0  0
 22 23  1  0  0  0  0
 22 30  1  6  0  0  0
 22 32  1  0  0  0  0
 23 24  1  0  0  0  0
 23 28  1  1  0  0  0
 24 25  1  0  0  0  0
 25 26  1  0  0  0  0
 25 31  1  6  0  0  0
 26 27  1  1  0  0  0
 26 32  1  0  0  0  0
 27 29  1  0  0  0  0
M  CHG  5   8   1  18   1  19   1  28   1  29   1
M  END
>  <CHROM.1>
-122.45788372,174.34081824,-109.76589369,176.95981265,58.86070279,-65.28623922
48.38855061,-66.92311177,-164.26749948,-167.91708133,-67.13031738,-127.01574203
-36.93493099,-54.55143862,-66.11417362,-65.51698731,-4.26463087,5.06924358
2.45401477,-0.24697311,-0.56065837,0.62230482

>  <Name>
1tob

>  <RI>
0

>  <Rbt.Current_Directory>
/home/itssahil/PROJECTS/Mol_Feturizer/New_Systems/rnas/1tob

>  <Rbt.Executable>
rbdock ($Id: //depot/dev/client3/rdock/2013.1/src/exe/rbdock.cxx#4 $)

>  <Rbt.Library>
libRbt.so (2013.1, Build901 2013/11/27)

>  <Rbt.Parameter_File>
/export/apps/rDock/src/rDock_2013.1_src/data/scripts/dock_solv.prm

>  <Rbt.Receptor>
prm/pocket_docking_7.prm

>  <SCORE>
-50.6114

>  <SCORE.INTER>
-52.3433

>  <SCORE.INTER.CONST>
1

>  <SCORE.INTER.POLAR>
-7.82419

>  <SCORE.INTER.ROT>
6

>  <SCORE.INTER.SOLV>
30.4743

>  <SCORE.INTER.VDW>
-26.573

>  <SCORE.INTER.norm>
-1.63573

>  <SCORE.INTRA>
1.73197

>  <SCORE.INTRA.DIHEDRAL>
-1.11451

>  <SCORE.INTRA.DIHEDRAL.0>
22.9177

>  <SCORE.INTRA.POLAR>
-0.677157

>  <SCORE.INTRA.POLAR.0>
-0.311208

>  <SCORE.INTRA.REPUL>
0

>  <SCORE.INTRA.REPUL.0>
0

>  <SCORE.INTRA.SOLV>
1.9913

>  <SCORE.INTRA.SOLV.lig_0>
-132.657

>  <SCORE.INTRA.VDW>
3.59591

>  <SCORE.INTRA.VDW.0>
-4.68867

>  <SCORE.INTRA.norm>
0.0541239

>  <SCORE.RESTR>
0

>  <SCORE.RESTR.CAVITY>
0

>  <SCORE.RESTR.norm>
0

>  <SCORE.SYSTEM>
0

>  <SCORE.SYSTEM.CONST>
0

>  <SCORE.SYSTEM.DIHEDRAL>
0

>  <SCORE.SYSTEM.SOLV>
0

>  <SCORE.SYSTEM.norm>
0

>  <SCORE.heavy>
32

>  <SCORE.norm>
-1.5816

>  <RMSD>
3.972

$$$$
1tob
 OpenBabel11021811413D
libRbt.so/2013.1/901 2013/11/27
 32 34  0  0  0  0  0  0  0  0999 V2000
   -2.2102    4.3272    2.7641 C   0  0  2  0  0  0  0  0  0  0  0  0
   -2.2110    2.8822    2.2710 C   0  0  1  0  0  0  0  0  0  0  0  0
   -2.0303    1.9375    3.4513 C   0  0  2  0  0  0  0  0  0  0  0  0
   -0.7590    2.3080    4.2057 C   0  0  1  0  0  0  0  0  0  0  0  0
   -0.8150    3.7736    4.6278 C   0  0  1  0  0  0  0  0  0  0  0  0
    0.4576    4.2246    5.3174 C   0  0  0  0  0  0  0  0  0  0  0  0
   -3.4391    2.6001    1.6156 O   0  0  0  0  0  0  0  0  0  0  0  0
   -2.0188    0.5264    3.0087 N   0  3  0  0  0  0  0  0  0  0  0  0
   -0.6184    1.4753    5.3490 O   0  0  0  0  0  0  0  0  0  0  0  0
   -0.9960    4.6156    3.4688 O   0  0  0  0  0  0  0  0  0  0  0  0
    1.5742    4.1574    4.4418 O   0  0  0  0  0  0  0  0  0  0  0  0
   -3.2135    6.9182    3.1831 C   0  0  2  0  0  0  0  0  0  0  0  0
   -4.0833    8.1213    2.8454 C   0  0  0  0  0  0  0  0  0  0  0  0
   -4.8381    7.8847    1.5371 C   0  0  1  0  0  0  0  0  0  0  0  0
   -5.7215    6.6461    1.6695 C   0  0  2  0  0  0  0  0  0  0  0  0
   -4.8647    5.4277    2.0168 C   0  0  1  0  0  0  0  0  0  0  0  0
   -4.0899    5.6815    3.3095 C   0  0  1  0  0  0  0  0  0  0  0  0
   -2.5059    7.1278    4.4652 N   0  3  0  0  0  0  0  0  0  0  0  0
   -5.6162    9.0981    1.1760 N   0  3  0  0  0  0  0  0  0  0  0  0
   -5.6934    4.2828    2.1666 O   0  0  0  0  0  0  0  0  0  0  0  0
   -3.2734    4.5384    3.6219 O   0  0  0  0  0  0  0  0  0  0  0  0
   -7.5208    5.5474    0.5209 C   0  0  1  0  0  0  0  0  0  0  0  0
   -7.9936    5.1565   -0.8804 C   0  0  1  0  0  0  0  0  0  0  0  0
   -8.4850    6.3840   -1.6327 C   0  0  0  0  0  0  0  0  0  0  0  0
   -9.5636    7.0746   -0.8142 C   0  0  1  0  0  0  0  0  0  0  0  0
   -9.0214    7.4116    0.5744 C   0  0  1  0  0  0  0  0  0  0  0  0
  -10.0655    8.0530    1.4702 C   0  0  0  0  0  0  0  0  0  0  0  0
   -6.9297    4.4394   -1.6222 N   0  3  0  0  0  0  0  0  0  0  0  0
  -10.4520    9.3968    0.9779 N   0  3  0  0  0  0  0  0  0  0  0  0
   -6.4357    6.4099    0.4388 O   0  0  0  0  0  0  0  0  0  0  0  0
   -9.9857    8.2612   -1.4706 O   0  0  0  0  0  0  0  0  0  0  0  0
   -8.5699    6.2105    1.2369 O   0  0  0  0  0  0  0  0  0  0  0  0
  1  2  1  0  0  0  0
  1 10  1  0  0  0  0
  1 21  1  1  0  0  0
  2  3  1  0  0  0  0
  2  7  1  1  0  0  0
  3  4  1  0  0  0  0
  3  8  1  6  0  0  0
  4  5  1  0  0  0  0
  4  9  1  1  0  0  0
  5  6  1  6  0  0  0
  5 10  1  0  0  0  0
  6 11  1  0  0  0  0
 12 13  1  0  0  0  0
 12 17  1  0  0  0  0
 12 18  1  1  0  0  0
 13 14  1  0  0  0  0
 14 15  1  0  0  0  0
 14 19  1  1  0  0  0
 15 16  1  0  0  0  0
 15 30  1  6  0  0  0
 16 17  1  0  0  0  0
 16 20  1  1  0  0  0
 17 21  1  6  0  0  0
 22 23  1  0  0  0  0
 22 30  1  6  0  0  0
 22 32  1  0  0  0  0
 23 24  1  0  0  0  0
 23 28  1  6  0  0  0
 24 25  1  0  0  0  0
 25 26  1  0  0  0  0
 25 31  1  6  0  0  0
 26 27  1  1  0  0  0
 26 32  1  0  0  0  0
 27 29  1  0  0  0  0
M  CHG  5   8   1  18   1  19   1  28   1  29   1
M  END
>  <CHROM.1>
-129.01977312,160.49419383,-68.34280166,177.60665010,63.51890646,178.75631606
-54.07245040,62.48936955,-163.70181365,168.23352134,-53.02918111,-167.98011922
-166.76787810,63.76901684,-66.99753480,48.58531025,-4.73763273,5.39052334
2.03949964,0.28455574,0.57867983,-2.84023366

>  <Name>
1tob

>  <RI>
0

>  <Rbt.Current_Directory>
/home/itssahil/PROJECTS/Mol_Feturizer/New_Systems/rnas/1tob

>  <Rbt.Executable>
rbdock ($Id: //depot/dev/client3/rdock/2013.1/src/exe/rbdock.cxx#4 $)

>  <Rbt.Library>
libRbt.so (2013.1, Build901 2013/11/27)

>  <Rbt.Parameter_File>
/export/apps/rDock/src/rDock_2013.1_src/data/scripts/dock_solv.prm

>  <Rbt.Receptor>
prm/pocket_docking_6.prm

>  <SCORE>
-48.7861

>  <SCORE.INTER>
-37.8451

>  <SCORE.INTER.CONST>
1

>  <SCORE.INTER.POLAR>
-5.01567

>  <SCORE.INTER.ROT>
6

>  <SCORE.INTER.SOLV>
27.1964

>  <SCORE.INTER.VDW>
-25.1766

>  <SCORE.INTER.norm>
-1.18266

>  <SCORE.INTRA>
-10.941

>  <SCORE.INTRA.DIHEDRAL>
-10.1358

>  <SCORE.INTRA.DIHEDRAL.0>
22.9177

>  <SCORE.INTRA.POLAR>
-1.69063

>  <SCORE.INTRA.POLAR.0>
-0.311208

>  <SCORE.INTRA.REPUL>
0

>  <SCORE.INTRA.REPUL.0>
0

>  <SCORE.INTRA.SOLV>
-2.19384

>  <SCORE.INTRA.SOLV.lig_0>
-132.657

>  <SCORE.INTRA.VDW>
0.971955

>  <SCORE.INTRA.VDW.0>
-4.68867

>  <SCORE.INTRA.norm>
-0.341907

>  <SCORE.RESTR>
0

>  <SCORE.RESTR.CAVITY>
0

>  <SCORE.RESTR.norm>
0

>  <SCORE.SYSTEM>
0

>  <SCORE.SYSTEM.CONST>
0

>  <SCORE.SYSTEM.DIHEDRAL>
0

>  <SCORE.SYSTEM.SOLV>
0

>  <SCORE.SYSTEM.norm>
0

>  <SCORE.heavy>
32

>  <SCORE.norm>
-1.52456

>  <RMSD>
3.985

$$$$
1tob
 OpenBabel11021811413D
libRbt.so/2013.1/901 2013/11/27
 32 34  0  0  0  0  0  0  0  0999 V2000
   -1.8720    4.0361    2.8341 C   0  0  2  0  0  0  0  0  0  0  0  0
   -2.1019    2.8345    1.9206 C   0  0  1  0  0  0  0  0  0  0  0  0
   -1.6807    1.5583    2.6363 C   0  0  2  0  0  0  0  0  0  0  0  0
   -0.2330    1.6893    3.0939 C   0  0  1  0  0  0  0  0  0  0  0  0
   -0.0751    2.9324    3.9651 C   0  0  1  0  0  0  0  0  0  0  0  0
    1.3622    3.1609    4.3898 C   0  0  0  0  0  0  0  0  0  0  0  0
   -3.4760    2.7553    1.5694 O   0  0  0  0  0  0  0  0  0  0  0  0
   -1.8831    0.3723    1.7761 N   0  3  0  0  0  0  0  0  0  0  0  0
    0.1475    0.5302    3.8231 O   0  0  0  0  0  0  0  0  0  0  0  0
   -0.4980    4.1047    3.2357 O   0  0  0  0  0  0  0  0  0  0  0  0
    2.2024    3.4008    3.2697 O   0  0  0  0  0  0  0  0  0  0  0  0
   -2.7635    6.2875    4.4988 C   0  0  2  0  0  0  0  0  0  0  0  0
   -3.7250    7.4457    4.7274 C   0  0  0  0  0  0  0  0  0  0  0  0
   -4.5971    7.6681    3.4915 C   0  0  1  0  0  0  0  0  0  0  0  0
   -5.3964    6.4021    3.1911 C   0  0  2  0  0  0  0  0  0  0  0  0
   -4.4460    5.2250    2.9664 C   0  0  1  0  0  0  0  0  0  0  0  0
   -3.5565    5.0262    4.1932 C   0  0  1  0  0  0  0  0  0  0  0  0
   -1.9395    6.0463    5.7035 N   0  3  0  0  0  0  0  0  0  0  0  0
   -5.4704    8.8529    3.6959 N   0  3  0  0  0  0  0  0  0  0  0  0
   -5.1941    4.0430    2.7148 O   0  0  0  0  0  0  0  0  0  0  0  0
   -2.6538    3.9281    3.9690 O   0  0  0  0  0  0  0  0  0  0  0  0
   -7.3156    5.7537    1.9027 C   0  0  1  0  0  0  0  0  0  0  0  0
   -7.4011    5.1979    0.4801 C   0  0  1  0  0  0  0  0  0  0  0  0
   -7.6258    6.3269   -0.5145 C   0  0  0  0  0  0  0  0  0  0  0  0
   -8.8623    7.1126   -0.1095 C   0  0  1  0  0  0  0  0  0  0  0  0
   -8.7085    7.6131    1.3262 C   0  0  1  0  0  0  0  0  0  0  0  0
   -9.9347    8.3591    1.8201 C   0  0  0  0  0  0  0  0  0  0  0  0
   -6.2005    4.3953    0.1474 N   0  3  0  0  0  0  0  0  0  0  0  0
  -10.9969    7.4248    2.2633 N   0  3  0  0  0  0  0  0  0  0  0  0
   -6.2202    6.5985    2.0236 O   0  0  0  0  0  0  0  0  0  0  0  0
   -9.0479    8.2122   -0.9888 O   0  0  0  0  0  0  0  0  0  0  0  0
   -8.4968    6.4997    2.2211 O   0  0  0  0  0  0  0  0  0  0  0  0
  1  2  1  0  0  0  0
  1 10  1  0  0  0  0
  1 21  1  1  0  0  0
  2  3  1  0  0  0  0
  2  7  1  1  0  0  0
  3  4  1  0  0  0  0
  3  8  1  6  0  0  0
  4  5  1  0  0  0  0
  4  9  1  1  0  0  0
  5  6  1  6  0  0  0
  5 10  1  0  0  0  0
  6 11  1  0  0  0  0
 12 13  1  0  0  0  0
 12 17  1  0  0  0  0
 12 18  1  1  0  0  0
 13 14  1  0  0  0  0
 14 15  1  0  0  0  0
 14 19  1  1  0  0  0
 15 16  1  0  0  0  0
 15 30  1  6  0  0  0
 16 17  1  0  0  0  0
 16 20  1  1  0  0  0
 17 21  1  6  0  0  0
 22 23  1  0  0  0  0
 22 30  1  6  0  0  0
 22 32  1  0  0  0  0
 23 24  1  0  0  0  0
 23 28  1  6  0  0  0
 24 25  1  0  0  0  0
 25 26  1  0  0  0  0
 25 31  1  6  0  0  0
 26 27  1  1  0  0  0
 26 32  1  0  0  0  0
 27 29  1  0  0  0  0
M  CHG  5   8   1  18   1  19   1  28   1  29   1
M  END
>  <CHROM.1>
-122.21225568,-176.88802700,-106.90920304,168.20271747,63.02541983,-63.12267961
-66.87983628,46.40303161,-158.17064715,-169.27366387,-66.71825137,-133.78875674
67.30857751,65.52088173,80.68941462,-156.10722281,-4.32715117,5.02477322
2.55945200,-0.25943884,-0.49682776,0.61381407

>  <Name>
1tob

>  <RI>
0

>  <Rbt.Current_Directory>
/home/itssahil/PROJECTS/Mol_Feturizer/New_Systems/rnas/1tob

>  <Rbt.Executable>
rbdock ($Id: //depot/dev/client3/rdock/2013.1/src/exe/rbdock.cxx#4 $)

>  <Rbt.Library>
libRbt.so (2013.1, Build901 2013/11/27)

>  <Rbt.Parameter_File>
/export/apps/rDock/src/rDock_2013.1_src/data/scripts/dock_solv.prm

>  <Rbt.Receptor>
prm/pocket_docking_6.prm

>  <SCORE>
-51.6219

>  <SCORE.INTER>
-53.2244

>  <SCORE.INTER.CONST>
1

>  <SCORE.INTER.POLAR>
-8.03916

>  <SCORE.INTER.ROT>
6

>  <SCORE.INTER.SOLV>
33.8025

>  <SCORE.INTER.VDW>
-27.5532

>  <SCORE.INTER.norm>
-1.66326

>  <SCORE.INTRA>
1.60254

>  <SCORE.INTRA.DIHEDRAL>
0.915523

>  <SCORE.INTRA.DIHEDRAL.0>
22.9177

>  <SCORE.INTRA.POLAR>
-0.285478

>  <SCORE.INTRA.POLAR.0>
-0.311208

>  <SCORE.INTRA.REPUL>
0

>  <SCORE.INTRA.REPUL.0>
0

>  <SCORE.INTRA.SOLV>
0.0677966

>  <SCORE.INTRA.SOLV.lig_0>
-132.657

>  <SCORE.INTRA.VDW>
2.08151

>  <SCORE.INTRA.VDW.0>
-4.68867

>  <SCORE.INTRA.norm>
0.0500794

>  <SCORE.RESTR>
0

>  <SCORE.RESTR.CAVITY>
0

>  <SCORE.RESTR.norm>
0

>  <SCORE.SYSTEM>
0

>  <SCORE.SYSTEM.CONST>
0

>  <SCORE.SYSTEM.DIHEDRAL>
0

>  <SCORE.SYSTEM.SOLV>
0

>  <SCORE.SYSTEM.norm>
0

>  <SCORE.heavy>
32

>  <SCORE.norm>
-1.61318

>  <RMSD>
3.990

$$$$
1tob
 OpenBabel11021811413D
libRbt.so/2013.1/901 2013/11/27
 32 34  0  0  0  0  0  0  0  0999 V2000
   -1.7730    3.6600    3.0350 C   0  0  2  0  0  0  0  0  0  0  0  0
   -1.8903    2.2997    2.3516 C   0  0  1  0  0  0  0  0  0  0  0  0
   -1.4477    1.2039    3.3116 C   0  0  2  0  0  0  0  0  0  0  0  0
   -0.0368    1.5024    3.8043 C   0  0  1  0  0  0  0  0  0  0  0  0
    0.0090    2.8915    4.4350 C   0  0  1  0  0  0  0  0  0  0  0  0
    1.4066    3.2790    4.8766 C   0  0  0  0  0  0  0  0  0  0  0  0
   -3.2364    2.0759    1.9573 O   0  0  0  0  0  0  0  0  0  0  0  0
   -1.5414   -0.1297    2.6790 N   0  3  0  0  0  0  0  0  0  0  0  0
    0.3585    0.5215    4.7537 O   0  0  0  0  0  0  0  0  0  0  0  0
   -0.4293    3.8828    3.4808 O   0  0  0  0  0  0  0  0  0  0  0  0
    1.8940    2.4037    5.8838 O   0  0  0  0  0  0  0  0  0  0  0  0
   -2.6019    6.1224    4.3924 C   0  0  2  0  0  0  0  0  0  0  0  0
   -3.5013    7.3496    4.4500 C   0  0  0  0  0  0  0  0  0  0  0  0
   -4.3130    7.4782    3.1608 C   0  0  1  0  0  0  0  0  0  0  0  0
   -5.1739    6.2317    2.9684 C   0  0  2  0  0  0  0  0  0  0  0  0
   -4.2869    4.9868    2.9162 C   0  0  1  0  0  0  0  0  0  0  0  0
   -3.4561    4.8797    4.1945 C   0  0  1  0  0  0  0  0  0  0  0  0
   -1.8382    5.9743    5.6507 N   0  3  0  0  0  0  0  0  0  0  0  0
   -5.1219    8.7242    3.1952 N   0  3  0  0  0  0  0  0  0  0  0  0
   -5.0936    3.8264    2.7651 O   0  0  0  0  0  0  0  0  0  0  0  0
   -2.6120    3.7159    4.1322 O   0  0  0  0  0  0  0  0  0  0  0  0
   -7.1054    5.5843    1.6981 C   0  0  1  0  0  0  0  0  0  0  0  0
   -7.3888    5.1503    0.2588 C   0  0  1  0  0  0  0  0  0  0  0  0
   -7.6332    6.3674   -0.6205 C   0  0  0  0  0  0  0  0  0  0  0  0
   -8.7537    7.2015   -0.0212 C   0  0  1  0  0  0  0  0  0  0  0  0
   -8.4054    7.5748    1.4193 C   0  0  1  0  0  0  0  0  0  0  0  0
   -9.5090    8.3617    2.1027 C   0  0  0  0  0  0  0  0  0  0  0  0
   -6.2974    4.2961   -0.2660 N   0  3  0  0  0  0  0  0  0  0  0  0
   -9.1644    8.6691    3.5114 N   0  3  0  0  0  0  0  0  0  0  0  0
   -5.9415    6.3395    1.7520 O   0  0  0  0  0  0  0  0  0  0  0  0
   -8.9489    8.3777   -0.7928 O   0  0  0  0  0  0  0  0  0  0  0  0
   -8.1836    6.3820    2.2024 O   0  0  0  0  0  0  0  0  0  0  0  0
  1  2  1  0  0  0  0
  1 10  1  0  0  0  0
  1 21  1  1  0  0  0
  2  3  1  0  0  0  0
  2  7  1  1  0  0  0
  3  4  1  0  0  0  0
  3  8  1  6  0  0  0
  4  5  1  0  0  0  0
  4  9  1  1  0  0  0
  5  6  1  6  0  0  0
  5 10  1  0  0  0  0
  6 11  1  0  0  0  0
 12 13  1  0  0  0  0
 12 17  1  0  0  0  0
 12 18  1  1  0  0  0
 13 14  1  0  0  0  0
 14 15  1  0  0  0  0
 14 19  1  1  0  0  0
 15 16  1  0  0  0  0
 15 30  1  6  0  0  0
 16 17  1  0  0  0  0
 16 20  1  1  0  0  0
 17 21  1  6  0  0  0
 22 23  1  0  0  0  0
 22 30  1  6  0  0  0
 22 32  1  0  0  0  0
 23 24  1  0  0  0  0
 23 28  1  6  0  0  0
 24 25  1  0  0  0  0
 25 26  1  0  0  0  0
 25 31  1  6  0  0  0
 26 27  1  1  0  0  0
 26 32  1  0  0  0  0
 27 29  1  0  0  0  0
M  CHG  5   8   1  18   1  19   1  28   1  29   1
M  END
>  <CHROM.1>
-130.20097018,-73.28204870,-51.46101194,-165.78318205,-62.56843721,-166.57069999
-179.11608407,33.39798885,-155.91479099,-174.80252814,-65.99187383,-148.51369327
53.88860297,-57.65635461,178.02081276,81.34220723,-4.10904211,4.89065764
2.82020348,0.28823502,0.58765868,-2.59076499

>  <Name>
1tob

>  <RI>
0

>  <Rbt.Current_Directory>
/home/itssahil/PROJECTS/Mol_Feturizer/New_Systems/rnas/1tob

>  <Rbt.Executable>
rbdock ($Id: //depot/dev/client3/rdock/2013.1/src/exe/rbdock.cxx#4 $)

>  <Rbt.Library>
libRbt.so (2013.1, Build901 2013/11/27)

>  <Rbt.Parameter_File>
/export/apps/rDock/src/rDock_2013.1_src/data/scripts/dock_solv.prm

>  <Rbt.Receptor>
prm/pocket_docking_4.prm

>  <SCORE>
-48.3426

>  <SCORE.INTER>
-51.0804

>  <SCORE.INTER.CONST>
1

>  <SCORE.INTER.POLAR>
-7.98724

>  <SCORE.INTER.ROT>
6

>  <SCORE.INTER.SOLV>
31.9364

>  <SCORE.INTER.VDW>
-25.6749

>  <SCORE.INTER.norm>
-1.59626

>  <SCORE.INTRA>
2.73057

>  <SCORE.INTRA.DIHEDRAL>
-3.96456

>  <SCORE.INTRA.DIHEDRAL.0>
22.9177

>  <SCORE.INTRA.POLAR>
-0.589799

>  <SCORE.INTRA.POLAR.0>
-0.311208

>  <SCORE.INTRA.REPUL>
0

>  <SCORE.INTRA.REPUL.0>
0

>  <SCORE.INTRA.SOLV>
-1.41023

>  <SCORE.INTRA.SOLV.lig_0>
-132.657

>  <SCORE.INTRA.VDW>
7.42328

>  <SCORE.INTRA.VDW.0>
-4.68867

>  <SCORE.INTRA.norm>
0.0853303

>  <SCORE.RESTR>
0.00725616

>  <SCORE.RESTR.CAVITY>
0.00725616

>  <SCORE.RESTR.norm>
0.000226755

>  <SCORE.SYSTEM>
0

>  <SCORE.SYSTEM.CONST>
0

>  <SCORE.SYSTEM.DIHEDRAL>
0

>  <SCORE.SYSTEM.SOLV>
0

>  <SCORE.SYSTEM.norm>
0

>  <SCORE.heavy>
32

>  <SCORE.norm>
-1.5107

>  <RMSD>
3.998

$$$$
1tob
 OpenBabel11021811413D
libRbt.so/2013.1/901 2013/11/27
 32 34  0  0  0  0  0  0  0  0999 V2000
    0.2035    3.9762    4.4947 C   0  0  2  0  0  0  0  0  0  0  0  0
    1.3480    3.3591    3.6944 C   0  0  1  0  0  0  0  0  0  0  0  0
    1.6672    1.9742    4.2407 C   0  0  2  0  0  0  0  0  0  0  0  0
    1.9702    2.0757    5.7308 C   0  0  1  0  0  0  0  0  0  0  0  0
    0.8009    2.7386    6.4537 C   0  0  1  0  0  0  0  0  0  0  0  0
    1.0745    2.9385    7.9314 C   0  0  0  0  0  0  0  0  0  0  0  0
    0.9779    3.2606    2.3266 O   0  0  0  0  0  0  0  0  0  0  0  0
    2.7787    1.3483    3.4922 N   0  3  0  0  0  0  0  0  0  0  0  0
    2.2020    0.7786    6.2638 O   0  0  0  0  0  0  0  0  0  0  0  0
    0.5423    4.0408    5.8858 O   0  0  0  0  0  0  0  0  0  0  0  0
    0.7817    1.7651    8.6767 O   0  0  0  0  0  0  0  0  0  0  0  0
   -2.6665    2.3352    2.9063 C   0  0  2  0  0  0  0  0  0  0  0  0
   -3.5044    2.6510    1.6748 C   0  0  0  0  0  0  0  0  0  0  0  0
   -4.3164    3.9278    1.8940 C   0  0  1  0  0  0  0  0  0  0  0  0
   -3.3733    5.0956    2.1743 C   0  0  2  0  0  0  0  0  0  0  0  0
   -2.5170    4.7923    3.4048 C   0  0  1  0  0  0  0  0  0  0  0  0
   -1.7303    3.4994    3.1917 C   0  0  1  0  0  0  0  0  0  0  0  0
   -1.8535    1.1188    2.6876 N   0  3  0  0  0  0  0  0  0  0  0  0
   -5.1922    4.1775    0.7198 N   0  3  0  0  0  0  0  0  0  0  0  0
   -1.6213    5.8692    3.6458 O   0  0  0  0  0  0  0  0  0  0  0  0
   -0.9396    3.2109    4.3589 O   0  0  0  0  0  0  0  0  0  0  0  0
   -3.4351    7.4954    2.2092 C   0  0  1  0  0  0  0  0  0  0  0  0
   -4.0660    8.6071    3.0495 C   0  0  1  0  0  0  0  0  0  0  0  0
   -5.4903    8.8744    2.5867 C   0  0  0  0  0  0  0  0  0  0  0  0
   -5.4832    9.1869    1.0992 C   0  0  1  0  0  0  0  0  0  0  0  0
   -4.8194    8.0423    0.3345 C   0  0  1  0  0  0  0  0  0  0  0  0
   -4.7241    8.3125   -1.1562 C   0  0  0  0  0  0  0  0  0  0  0  0
   -4.0028    8.2851    4.4948 N   0  3  0  0  0  0  0  0  0  0  0  0
   -5.4767    7.3042   -1.9401 N   0  3  0  0  0  0  0  0  0  0  0  0
   -4.1287    6.3057    2.3874 O   0  0  0  0  0  0  0  0  0  0  0  0
   -6.8129    9.3721    0.6360 O   0  0  0  0  0  0  0  0  0  0  0  0
   -3.4744    7.8354    0.8178 O   0  0  0  0  0  0  0  0  0  0  0  0
  1  2  1  0  0  0  0
  1 10  1  0  0  0  0
  1 21  1  1  0  0  0
  2  3  1  0  0  0  0
  2  7  1  6  0  0  0
  3  4  1  0  0  0  0
  3  8  1  6  0  0  0
  4  5  1  0  0  0  0
  4  9  1  1  0  0  0
  5  6  1  1  0  0  0
  5 10  1  0  0  0  0
  6 11  1  0  0  0  0
 12 13  1  0  0  0  0
 12 17  1  0  0  0  0
 12 18  1  6  0  0  0
 13 14  1  0  0  0  0
 14 15  1  0  0  0  0
 14 19  1  6  0  0  0
 15 16  1  0  0  0  0
 15 30  1  1  0  0  0
 16 17  1  0  0  0  0
 16 20  1  6  0  0  0
 17 21  1  1  0  0  0
 22 23  1  0  0  0  0
 22 30  1  6  0  0  0
 22 32  1  0  0  0  0
 23 24  1  0  0  0  0
 23 28  1  1  0  0  0
 24 25  1  0  0  0  0
 25 26  1  0  0  0  0
 25 31  1  6  0  0  0
 26 27  1  6  0  0  0
 26 32  1  0  0  0  0
 27 29  1  0  0  0  0
M  CHG  5   8   1  18   1  19   1  28   1  29   1
M  END
>  <CHROM.1>
-84.73735741,167.03661602,61.99973732,66.29980076,-83.89935710,-169.69631262
58.19104275,57.46236943,-159.24716341,159.54445790,161.42149083,-153.57374537
46.40949977,-57.33564357,-118.70081419,-173.54827144,-2.02630967,4.80063173
3.13607826,-0.01737793,-0.86819519,0.85625185

>  <Name>
1tob

>  <RI>
0

>  <Rbt.Current_Directory>
/home/itssahil/PROJECTS/Mol_Feturizer/New_Systems/rnas/1tob

>  <Rbt.Executable>
rbdock ($Id: //depot/dev/client3/rdock/2013.1/src/exe/rbdock.cxx#4 $)

>  <Rbt.Library>
libRbt.so (2013.1, Build901 2013/11/27)

>  <Rbt.Parameter_File>
/export/apps/rDock/src/rDock_2013.1_src/data/scripts/dock_solv.prm

>  <Rbt.Receptor>
prm/pocket_docking_5.prm

>  <SCORE>
-44.8691

>  <SCORE.INTER>
-44.1089

>  <SCORE.INTER.CONST>
1

>  <SCORE.INTER.POLAR>
-7.03281

>  <SCORE.INTER.ROT>
6

>  <SCORE.INTER.SOLV>
23.1285

>  <SCORE.INTER.VDW>
-21.2727

>  <SCORE.INTER.norm>
-1.3784

>  <SCORE.INTRA>
-0.760196

>  <SCORE.INTRA.DIHEDRAL>
-2.71093

>  <SCORE.INTRA.DIHEDRAL.0>
22.9177

>  <SCORE.INTRA.POLAR>
0.311208

>  <SCORE.INTRA.POLAR.0>
-0.311208

>  <SCORE.INTRA.REPUL>
0

>  <SCORE.INTRA.REPUL.0>
0

>  <SCORE.INTRA.SOLV>
-2.03781

>  <SCORE.INTRA.SOLV.lig_0>
-132.657

>  <SCORE.INTRA.VDW>
0.556066

>  <SCORE.INTRA.VDW.0>
-4.68867

>  <SCORE.INTRA.norm>
-0.0237561

>  <SCORE.RESTR>
0

>  <SCORE.RESTR.CAVITY>
0

>  <SCORE.RESTR.norm>
0

>  <SCORE.SYSTEM>
0

>  <SCORE.SYSTEM.CONST>
0

>  <SCORE.SYSTEM.DIHEDRAL>
0

>  <SCORE.SYSTEM.SOLV>
0

>  <SCORE.SYSTEM.norm>
0

>  <SCORE.heavy>
32

>  <SCORE.norm>
-1.40216

>  <RMSD>
4.056

$$$$
1tob
 OpenBabel11021811413D
libRbt.so/2013.1/901 2013/11/27
 32 34  0  0  0  0  0  0  0  0999 V2000
   -0.1884    2.9862    5.1286 C   0  0  2  0  0  0  0  0  0  0  0  0
    0.3091    1.6362    5.6395 C   0  0  1  0  0  0  0  0  0  0  0  0
   -0.2585    1.3723    7.0275 C   0  0  2  0  0  0  0  0  0  0  0  0
    0.1053    2.5287    7.9510 C   0  0  1  0  0  0  0  0  0  0  0  0
   -0.3872    3.8440    7.3537 C   0  0  1  0  0  0  0  0  0  0  0  0
    0.0127    5.0434    8.1904 C   0  0  0  0  0  0  0  0  0  0  0  0
   -0.1009    0.6067    4.7509 O   0  0  0  0  0  0  0  0  0  0  0  0
    0.2097    0.0735    7.5576 N   0  3  0  0  0  0  0  0  0  0  0  0
   -0.4787    2.3242    9.2306 O   0  0  0  0  0  0  0  0  0  0  0  0
    0.1773    4.0319    6.0380 O   0  0  0  0  0  0  0  0  0  0  0  0
    1.4083    5.0492    8.4554 O   0  0  0  0  0  0  0  0  0  0  0  0
   -2.9492    2.5384    3.0720 C   0  0  2  0  0  0  0  0  0  0  0  0
   -3.4931    3.1617    1.7938 C   0  0  0  0  0  0  0  0  0  0  0  0
   -4.3114    4.4125    2.1154 C   0  0  1  0  0  0  0  0  0  0  0  0
   -3.4322    5.4310    2.8375 C   0  0  2  0  0  0  0  0  0  0  0  0
   -2.8698    4.8188    4.1214 C   0  0  1  0  0  0  0  0  0  0  0  0
   -2.0779    3.5527    3.7968 C   0  0  1  0  0  0  0  0  0  0  0  0
   -2.1290    1.3463    2.7645 N   0  3  0  0  0  0  0  0  0  0  0  0
   -4.9059    4.9617    0.8691 N   0  3  0  0  0  0  0  0  0  0  0  0
   -2.0299    5.7600    4.7762 O   0  0  0  0  0  0  0  0  0  0  0  0
   -1.5656    2.9726    5.0100 O   0  0  0  0  0  0  0  0  0  0  0  0
   -4.3368    7.5365    2.1220 C   0  0  1  0  0  0  0  0  0  0  0  0
   -4.0961    8.9538    2.6446 C   0  0  1  0  0  0  0  0  0  0  0  0
   -5.1440    9.3170    3.6859 C   0  0  0  0  0  0  0  0  0  0  0  0
   -6.5292    9.1329    3.0879 C   0  0  1  0  0  0  0  0  0  0  0  0
   -6.6822    7.7030    2.5707 C   0  0  1  0  0  0  0  0  0  0  0  0
   -8.0250    7.4623    1.9049 C   0  0  0  0  0  0  0  0  0  0  0  0
   -2.7178    9.1028    3.1685 N   0  3  0  0  0  0  0  0  0  0  0  0
   -8.6901    6.2526    2.4453 N   0  3  0  0  0  0  0  0  0  0  0  0
   -4.1950    6.6144    3.1504 O   0  0  0  0  0  0  0  0  0  0  0  0
   -7.5207    9.4022    4.0683 O   0  0  0  0  0  0  0  0  0  0  0  0
   -5.6618    7.4170    1.5897 O   0  0  0  0  0  0  0  0  0  0  0  0
  1  2  1  0  0  0  0
  1 10  1  0  0  0  0
  1 21  1  1  0  0  0
  2  3  1  0  0  0  0
  2  7  1  6  0  0  0
  3  4  1  0  0  0  0
  3  8  1  1  0  0  0
  4  5  1  0  0  0  0
  4  9  1  1  0  0  0
  5  6  1  1  0  0  0
  5 10  1  0  0  0  0
  6 11  1  0  0  0  0
 12 13  1  0  0  0  0
 12 17  1  0  0  0  0
 12 18  1  6  0  0  0
 13 14  1  0  0  0  0
 14 15  1  0  0  0  0
 14 19  1  6  0  0  0
 15 16  1  0  0  0  0
 15 30  1  1  0  0  0
 16 17  1  0  0  0  0
 16 20  1  6  0  0  0
 17 21  1  1  0  0  0
 22 23  1  0  0  0  0
 22 30  1  1  0  0  0
 22 32  1  0  0  0  0
 23 24  1  0  0  0  0
 23 28  1  1  0  0  0
 24 25  1  0  0  0  0
 25 26  1  0  0  0  0
 25 31  1  1  0  0  0
 26 27  1  6  0  0  0
 26 32  1  0  0  0  0
 27 29  1  0  0  0  0
M  CHG  5   8   1  18   1  19   1  28   1  29   1
M  END
>  <CHROM.1>
-135.69525611,-97.50731488,147.02648364,164.83554101,52.36823979,-61.96789742
49.63862200,-174.97301299,-81.99213674,-165.05681319,123.88422292,-135.30245805
-29.68832307,-62.01123696,-129.30524442,56.46796296,-2.88149104,4.89190321
4.37364351,0.31551871,0.80443761,-2.67200447

>  <Name>
1tob

>  <RI>
0

>  <Rbt.Current_Directory>
/home/itssahil/PROJECTS/Mol_Feturizer/New_Systems/rnas/1tob

>  <Rbt.Executable>
rbdock ($Id: //depot/dev/client3/rdock/2013.1/src/exe/rbdock.cxx#4 $)

>  <Rbt.Library>
libRbt.so (2013.1, Build901 2013/11/27)

>  <Rbt.Parameter_File>
/export/apps/rDock/src/rDock_2013.1_src/data/scripts/dock_solv.prm

>  <Rbt.Receptor>
prm/pocket_docking_5.prm

>  <SCORE>
-32.8738

>  <SCORE.INTER>
-36.7893

>  <SCORE.INTER.CONST>
1

>  <SCORE.INTER.POLAR>
-5.8503

>  <SCORE.INTER.ROT>
6

>  <SCORE.INTER.SOLV>
29.3832

>  <SCORE.INTER.VDW>
-22.4196

>  <SCORE.INTER.norm>
-1.14967

>  <SCORE.INTRA>
3.78495

>  <SCORE.INTRA.DIHEDRAL>
14.9868

>  <SCORE.INTRA.DIHEDRAL.0>
22.9177

>  <SCORE.INTRA.POLAR>
-1.81044

>  <SCORE.INTRA.POLAR.0>
-0.311208

>  <SCORE.INTRA.REPUL>
0

>  <SCORE.INTRA.REPUL.0>
0

>  <SCORE.INTRA.SOLV>
0.0408496

>  <SCORE.INTRA.SOLV.lig_0>
-132.657

>  <SCORE.INTRA.VDW>
2.42665

>  <SCORE.INTRA.VDW.0>
-4.68867

>  <SCORE.INTRA.norm>
0.11828

>  <SCORE.RESTR>
0.130552

>  <SCORE.RESTR.CAVITY>
0.130552

>  <SCORE.RESTR.norm>
0.00407976

>  <SCORE.SYSTEM>
0

>  <SCORE.SYSTEM.CONST>
0

>  <SCORE.SYSTEM.DIHEDRAL>
0

>  <SCORE.SYSTEM.SOLV>
0

>  <SCORE.SYSTEM.norm>
0

>  <SCORE.heavy>
32

>  <SCORE.norm>
-1.02731

>  <RMSD>
4.061

$$$$
1tob
 OpenBabel11021811413D
libRbt.so/2013.1/901 2013/11/27
 32 34  0  0  0  0  0  0  0  0999 V2000
   -1.0142    3.4970    5.1449 C   0  0  2  0  0  0  0  0  0  0  0  0
   -0.1171    3.0908    6.3117 C   0  0  1  0  0  0  0  0  0  0  0  0
    1.0396    2.2441    5.7986 C   0  0  2  0  0  0  0  0  0  0  0  0
    0.4896    1.0502    5.0274 C   0  0  1  0  0  0  0  0  0  0  0  0
   -0.4277    1.5343    3.9078 C   0  0  1  0  0  0  0  0  0  0  0  0
   -1.0687    0.3879    3.1506 C   0  0  0  0  0  0  0  0  0  0  0  0
    0.3880    4.2521    6.9549 O   0  0  0  0  0  0  0  0  0  0  0  0
    1.9269    1.8257    6.9054 N   0  3  0  0  0  0  0  0  0  0  0  0
    1.5627    0.2916    4.4862 O   0  0  0  0  0  0  0  0  0  0  0  0
   -1.4962    2.3365    4.4556 O   0  0  0  0  0  0  0  0  0  0  0  0
   -2.3597    0.0864    3.6608 O   0  0  0  0  0  0  0  0  0  0  0  0
   -1.6090    3.9080    2.2411 C   0  0  2  0  0  0  0  0  0  0  0  0
   -2.4597    4.6089    1.1908 C   0  0  0  0  0  0  0  0  0  0  0  0
   -3.6451    5.3161    1.8482 C   0  0  1  0  0  0  0  0  0  0  0  0
   -3.1363    6.3467    2.8536 C   0  0  2  0  0  0  0  0  0  0  0  0
   -2.2721    5.6611    3.9130 C   0  0  1  0  0  0  0  0  0  0  0  0
   -1.1057    4.9312    3.2477 C   0  0  1  0  0  0  0  0  0  0  0  0
   -0.4419    3.2494    1.6144 N   0  3  0  0  0  0  0  0  0  0  0  0
   -4.5126    5.9235    0.8058 N   0  3  0  0  0  0  0  0  0  0  0  0
   -1.7776    6.6274    4.8305 O   0  0  0  0  0  0  0  0  0  0  0  0
   -0.3061    4.2748    4.2479 O   0  0  0  0  0  0  0  0  0  0  0  0
   -3.9345    8.1589    4.2111 C   0  0  1  0  0  0  0  0  0  0  0  0
   -5.2044    8.7743    4.8015 C   0  0  1  0  0  0  0  0  0  0  0  0
   -6.1390    9.2242    3.6886 C   0  0  0  0  0  0  0  0  0  0  0  0
   -5.3953   10.1731    2.7630 C   0  0  1  0  0  0  0  0  0  0  0  0
   -4.1323    9.4941    2.2343 C   0  0  1  0  0  0  0  0  0  0  0  0
   -3.3059   10.4065    1.3462 C   0  0  0  0  0  0  0  0  0  0  0  0
   -5.8670    7.8358    5.7378 N   0  3  0  0  0  0  0  0  0  0  0  0
   -4.0119   10.7174    0.0803 N   0  3  0  0  0  0  0  0  0  0  0  0
   -4.2466    7.0178    3.4840 O   0  0  0  0  0  0  0  0  0  0  0  0
   -6.2327   10.5496    1.6795 O   0  0  0  0  0  0  0  0  0  0  0  0
   -3.2880    9.0891    3.3336 O   0  0  0  0  0  0  0  0  0  0  0  0
  1  2  1  0  0  0  0
  1 10  1  0  0  0  0
  1 21  1  6  0  0  0
  2  3  1  0  0  0  0
  2  7  1  6  0  0  0
  3  4  1  0  0  0  0
  3  8  1  1  0  0  0
  4  5  1  0  0  0  0
  4  9  1  6  0  0  0
  5  6  1  1  0  0  0
  5 10  1  0  0  0  0
  6 11  1  0  0  0  0
 12 13  1  0  0  0  0
 12 17  1  0  0  0  0
 12 18  1  6  0  0  0
 13 14  1  0  0  0  0
 14 15  1  0  0  0  0
 14 19  1  6  0  0  0
 15 16  1  0  0  0  0
 15 30  1  1  0  0  0
 16 17  1  0  0  0  0
 16 20  1  1  0  0  0
 17 21  1  1  0  0  0
 22 23  1  0  0  0  0
 22 30  1  6  0  0  0
 22 32  1  0  0  0  0
 23 24  1  0  0  0  0
 23 28  1  1  0  0  0
 24 25  1  0  0  0  0
 25 26  1  0  0  0  0
 25 31  1  6  0  0  0
 26 27  1  6  0  0  0
 26 32  1  0  0  0  0
 27 29  1  0  0  0  0
M  CHG  5   8   1  18   1  19   1  28   1  29   1
M  END
>  <CHROM.1>
-168.40149756,-53.05634171,-170.71956997,-53.51977248,95.09253763,131.05139501
28.63738169,37.35563191,-167.29959470,-179.75230214,-72.17461755,179.10688617
167.49006611,70.38536618,-67.21458027,50.18906888,-2.30833339,5.39500324
3.61981858,-0.22249696,-0.99474395,1.01146429

>  <Name>
1tob

>  <RI>
0

>  <Rbt.Current_Directory>
/home/itssahil/PROJECTS/Mol_Feturizer/New_Systems/rnas/1tob

>  <Rbt.Executable>
rbdock ($Id: //depot/dev/client3/rdock/2013.1/src/exe/rbdock.cxx#4 $)

>  <Rbt.Library>
libRbt.so (2013.1, Build901 2013/11/27)

>  <Rbt.Parameter_File>
/export/apps/rDock/src/rDock_2013.1_src/data/scripts/dock_solv.prm

>  <Rbt.Receptor>
prm/pocket_docking_8.prm

>  <SCORE>
-45.4059

>  <SCORE.INTER>
-43.5038

>  <SCORE.INTER.CONST>
1

>  <SCORE.INTER.POLAR>
-6.74661

>  <SCORE.INTER.ROT>
6

>  <SCORE.INTER.SOLV>
26.6642

>  <SCORE.INTER.VDW>
-23.0019

>  <SCORE.INTER.norm>
-1.3595

>  <SCORE.INTRA>
-1.90201

>  <SCORE.INTRA.DIHEDRAL>
-5.86441

>  <SCORE.INTRA.DIHEDRAL.0>
22.9177

>  <SCORE.INTRA.POLAR>
-0.469328

>  <SCORE.INTRA.POLAR.0>
-0.311208

>  <SCORE.INTRA.REPUL>
0

>  <SCORE.INTRA.REPUL.0>
0

>  <SCORE.INTRA.SOLV>
-1.59912

>  <SCORE.INTRA.SOLV.lig_0>
-132.657

>  <SCORE.INTRA.VDW>
3.42547

>  <SCORE.INTRA.VDW.0>
-4.68867

>  <SCORE.INTRA.norm>
-0.0594379

>  <SCORE.RESTR>
0

>  <SCORE.RESTR.CAVITY>
0

>  <SCORE.RESTR.norm>
0

>  <SCORE.SYSTEM>
0

>  <SCORE.SYSTEM.CONST>
0

>  <SCORE.SYSTEM.DIHEDRAL>
0

>  <SCORE.SYSTEM.SOLV>
0

>  <SCORE.SYSTEM.norm>
0

>  <SCORE.heavy>
32

>  <SCORE.norm>
-1.41893

>  <RMSD>
4.070

$$$$
1tob
 OpenBabel11021811413D
libRbt.so/2013.1/901 2013/11/27
 32 34  0  0  0  0  0  0  0  0999 V2000
    0.1175    3.7601    4.6965 C   0  0  2  0  0  0  0  0  0  0  0  0
    1.3200    3.3985    3.8279 C   0  0  1  0  0  0  0  0  0  0  0  0
    1.7819    1.9849    4.1545 C   0  0  2  0  0  0  0  0  0  0  0  0
    2.0727    1.8798    5.6468 C   0  0  1  0  0  0  0  0  0  0  0  0
    0.8407    2.2961    6.4457 C   0  0  1  0  0  0  0  0  0  0  0  0
    1.0920    2.2866    7.9408 C   0  0  0  0  0  0  0  0  0  0  0  0
    0.9622    3.4804    2.4558 O   0  0  0  0  0  0  0  0  0  0  0  0
    2.9525    1.6031    3.3352 N   0  3  0  0  0  0  0  0  0  0  0  0
    2.4384    0.5456    5.9726 O   0  0  0  0  0  0  0  0  0  0  0  0
    0.4479    3.6382    6.0857 O   0  0  0  0  0  0  0  0  0  0  0  0
   -0.0894    2.5934    8.6675 O   0  0  0  0  0  0  0  0  0  0  0  0
   -2.7681    2.2717    2.9720 C   0  0  2  0  0  0  0  0  0  0  0  0
   -3.7710    2.8079    1.9597 C   0  0  0  0  0  0  0  0  0  0  0  0
   -4.6357    3.8995    2.5907 C   0  0  1  0  0  0  0  0  0  0  0  0
   -3.7477    5.0439    3.0743 C   0  0  2  0  0  0  0  0  0  0  0  0
   -2.7275    4.5218    4.0872 C   0  0  1  0  0  0  0  0  0  0  0  0
   -1.8861    3.4106    3.4603 C   0  0  1  0  0  0  0  0  0  0  0  0
   -1.9065    1.2381    2.3575 N   0  3  0  0  0  0  0  0  0  0  0  0
   -5.6645    4.3537    1.6195 N   0  3  0  0  0  0  0  0  0  0  0  0
   -1.8852    5.5841    4.5138 O   0  0  0  0  0  0  0  0  0  0  0  0
   -0.9397    2.9125    4.4231 O   0  0  0  0  0  0  0  0  0  0  0  0
   -3.8616    7.1779    4.1682 C   0  0  1  0  0  0  0  0  0  0  0  0
   -4.8429    8.2588    4.6253 C   0  0  1  0  0  0  0  0  0  0  0  0
   -5.6575    8.7650    3.4444 C   0  0  0  0  0  0  0  0  0  0  0  0
   -4.7137    9.2440    2.3534 C   0  0  1  0  0  0  0  0  0  0  0  0
   -3.7549    8.1176    1.9692 C   0  0  1  0  0  0  0  0  0  0  0  0
   -2.7416    8.5437    0.9224 C   0  0  0  0  0  0  0  0  0  0  0  0
   -5.7059    7.7660    5.7247 N   0  3  0  0  0  0  0  0  0  0  0  0
   -3.3970    8.8714   -0.3662 N   0  3  0  0  0  0  0  0  0  0  0  0
   -4.5525    6.0786    3.6761 O   0  0  0  0  0  0  0  0  0  0  0  0
   -5.4568    9.6569    1.2158 O   0  0  0  0  0  0  0  0  0  0  0  0
   -3.0131    7.6790    3.1280 O   0  0  0  0  0  0  0  0  0  0  0  0
  1  2  1  0  0  0  0
  1 10  1  0  0  0  0
  1 21  1  6  0  0  0
  2  3  1  0  0  0  0
  2  7  1  6  0  0  0
  3  4  1  0  0  0  0
  3  8  1  6  0  0  0
  4  5  1  0  0  0  0
  4  9  1  6  0  0  0
  5  6  1  1  0  0  0
  5 10  1  0  0  0  0
  6 11  1  0  0  0  0
 12 13  1  0  0  0  0
 12 17  1  0  0  0  0
 12 18  1  6  0  0  0
 13 14  1  0  0  0  0
 14 15  1  0  0  0  0
 14 19  1  6  0  0  0
 15 16  1  0  0  0  0
 15 30  1  1  0  0  0
 16 17  1  0  0  0  0
 16 20  1  6  0  0  0
 17 21  1  1  0  0  0
 22 23  1  0  0  0  0
 22 30  1  6  0  0  0
 22 32  1  0  0  0  0
 23 24  1  0  0  0  0
 23 28  1  1  0  0  0
 24 25  1  0  0  0  0
 25 26  1  0  0  0  0
 25 31  1  6  0  0  0
 26 27  1  6  0  0  0
 26 32  1  0  0  0  0
 27 29  1  0  0  0  0
M  CHG  5   8   1  18   1  19   1  28   1  29   1
M  END
>  <CHROM.1>
-94.96430442,177.86870215,167.12301759,-58.16871242,-176.24905381,-177.69131047
169.48469615,170.67151812,179.54966442,94.00545957,164.87447705,173.42452477
-68.97579022,-49.62494644,-64.99215511,54.69867696,-1.98181770,4.79189442
3.77518685,0.23956877,-0.82268824,1.42977649

>  <Name>
1tob

>  <RI>
0

>  <Rbt.Current_Directory>
/home/itssahil/PROJECTS/Mol_Feturizer/New_Systems/rnas/1tob

>  <Rbt.Executable>
rbdock ($Id: //depot/dev/client3/rdock/2013.1/src/exe/rbdock.cxx#4 $)

>  <Rbt.Library>
libRbt.so (2013.1, Build901 2013/11/27)

>  <Rbt.Parameter_File>
/export/apps/rDock/src/rDock_2013.1_src/data/scripts/dock_solv.prm

>  <Rbt.Receptor>
prm/pocket_docking_6.prm

>  <SCORE>
-48.5779

>  <SCORE.INTER>
-43.777

>  <SCORE.INTER.CONST>
1

>  <SCORE.INTER.POLAR>
-6.93904

>  <SCORE.INTER.ROT>
6

>  <SCORE.INTER.SOLV>
27.6374

>  <SCORE.INTER.VDW>
-22.867

>  <SCORE.INTER.norm>
-1.36803

>  <SCORE.INTRA>
-4.80095

>  <SCORE.INTRA.DIHEDRAL>
-10.8276

>  <SCORE.INTRA.DIHEDRAL.0>
22.9177

>  <SCORE.INTRA.POLAR>
-0.284731

>  <SCORE.INTRA.POLAR.0>
-0.311208

>  <SCORE.INTRA.REPUL>
0

>  <SCORE.INTRA.REPUL.0>
0

>  <SCORE.INTRA.SOLV>
-4.59886

>  <SCORE.INTRA.SOLV.lig_0>
-132.657

>  <SCORE.INTRA.VDW>
3.88036

>  <SCORE.INTRA.VDW.0>
-4.68867

>  <SCORE.INTRA.norm>
-0.15003

>  <SCORE.RESTR>
0

>  <SCORE.RESTR.CAVITY>
0

>  <SCORE.RESTR.norm>
0

>  <SCORE.SYSTEM>
0

>  <SCORE.SYSTEM.CONST>
0

>  <SCORE.SYSTEM.DIHEDRAL>
0

>  <SCORE.SYSTEM.SOLV>
0

>  <SCORE.SYSTEM.norm>
0

>  <SCORE.heavy>
32

>  <SCORE.norm>
-1.51806

>  <RMSD>
4.073

$$$$
1tob
 OpenBabel11021811413D
libRbt.so/2013.1/901 2013/11/27
 32 34  0  0  0  0  0  0  0  0999 V2000
   -2.1694    4.3503    2.5209 C   0  0  2  0  0  0  0  0  0  0  0  0
   -2.4626    3.0531    1.7710 C   0  0  1  0  0  0  0  0  0  0  0  0
   -1.6368    1.9199    2.3645 C   0  0  2  0  0  0  0  0  0  0  0  0
   -0.1616    2.3016    2.3384 C   0  0  1  0  0  0  0  0  0  0  0  0
    0.0443    3.6255    3.0693 C   0  0  1  0  0  0  0  0  0  0  0  0
    1.4834    4.0990    3.0116 C   0  0  0  0  0  0  0  0  0  0  0  0
   -3.8449    2.7424    1.8730 O   0  0  0  0  0  0  0  0  0  0  0  0
   -1.8906    0.6467    1.6561 N   0  3  0  0  0  0  0  0  0  0  0  0
    0.6106    1.2790    2.9532 O   0  0  0  0  0  0  0  0  0  0  0  0
   -0.7699    4.6549    2.4672 O   0  0  0  0  0  0  0  0  0  0  0  0
    2.3257    3.3003    3.8306 O   0  0  0  0  0  0  0  0  0  0  0  0
   -2.7366    6.3699    4.9571 C   0  0  2  0  0  0  0  0  0  0  0  0
   -3.7396    7.4099    5.4374 C   0  0  0  0  0  0  0  0  0  0  0  0
   -4.5796    7.9226    4.2674 C   0  0  1  0  0  0  0  0  0  0  0  0
   -5.3303    6.7587    3.6241 C   0  0  2  0  0  0  0  0  0  0  0  0
   -4.3381    5.6992    3.1422 C   0  0  1  0  0  0  0  0  0  0  0  0
   -3.4811    5.2121    4.3101 C   0  0  1  0  0  0  0  0  0  0  0  0
   -1.9432    5.8461    6.0904 N   0  3  0  0  0  0  0  0  0  0  0  0
   -5.4945    8.9964    4.7344 N   0  3  0  0  0  0  0  0  0  0  0  0
   -5.0417    4.6052    2.5694 O   0  0  0  0  0  0  0  0  0  0  0  0
   -2.5389    4.2279    3.8473 O   0  0  0  0  0  0  0  0  0  0  0  0
   -5.4538    7.3788    1.3080 C   0  0  1  0  0  0  0  0  0  0  0  0
   -5.7713    8.7421    0.6911 C   0  0  1  0  0  0  0  0  0  0  0  0
   -7.2544    8.8419    0.3673 C   0  0  0  0  0  0  0  0  0  0  0  0
   -7.6510    7.6792   -0.5278 C   0  0  1  0  0  0  0  0  0  0  0  0
   -7.2821    6.3588    0.1475 C   0  0  1  0  0  0  0  0  0  0  0  0
   -7.5969    5.1516   -0.7172 C   0  0  0  0  0  0  0  0  0  0  0  0
   -5.3198    9.8449    1.5722 N   0  3  0  0  0  0  0  0  0  0  0  0
   -6.7474    5.1171   -1.9317 N   0  3  0  0  0  0  0  0  0  0  0  0
   -6.1234    7.2297    2.5152 O   0  0  0  0  0  0  0  0  0  0  0  0
   -9.0472    7.7187   -0.7843 O   0  0  0  0  0  0  0  0  0  0  0  0
   -5.8665    6.3235    0.4309 O   0  0  0  0  0  0  0  0  0  0  0  0
  1  2  1  0  0  0  0
  1 10  1  0  0  0  0
  1 21  1  1  0  0  0
  2  3  1  0  0  0  0
  2  7  1  1  0  0  0
  3  4  1  0  0  0  0
  3  8  1  6  0  0  0
  4  5  1  0  0  0  0
  4  9  1  1  0  0  0
  5  6  1  6  0  0  0
  5 10  1  0  0  0  0
  6 11  1  0  0  0  0
 12 13  1  0  0  0  0
 12 17  1  0  0  0  0
 12 18  1  1  0  0  0
 13 14  1  0  0  0  0
 14 15  1  0  0  0  0
 14 19  1  1  0  0  0
 15 16  1  0  0  0  0
 15 30  1  6  0  0  0
 16 17  1  0  0  0  0
 16 20  1  1  0  0  0
 17 21  1  6  0  0  0
 22 23  1  0  0  0  0
 22 30  1  1  0  0  0
 22 32  1  0  0  0  0
 23 24  1  0  0  0  0
 23 28  1  1  0  0  0
 24 25  1  0  0  0  0
 25 26  1  0  0  0  0
 25 31  1  1  0  0  0
 26 27  1  6  0  0  0
 26 32  1  0  0  0  0
 27 29  1  0  0  0  0
M  CHG  5   8   1  18   1  19   1  28   1  29   1
M  END
>  <CHROM.1>
-123.34250442,-81.15630477,156.38846074,-175.79383793,-71.67039071,-165.69526143
-91.86277589,-37.78175603,82.92154986,-77.51065511,-94.52465830,-131.92999792
46.10275416,59.71999082,66.32605501,-44.99486935,-3.79297662,5.45430346,2.30658514
0.20758301,0.63809785,-2.41143441

>  <Name>
1tob

>  <RI>
0

>  <Rbt.Current_Directory>
/home/itssahil/PROJECTS/Mol_Feturizer/New_Systems/rnas/1tob

>  <Rbt.Executable>
rbdock ($Id: //depot/dev/client3/rdock/2013.1/src/exe/rbdock.cxx#4 $)

>  <Rbt.Library>
libRbt.so (2013.1, Build901 2013/11/27)

>  <Rbt.Parameter_File>
/export/apps/rDock/src/rDock_2013.1_src/data/scripts/dock_solv.prm

>  <Rbt.Receptor>
prm/pocket_docking_4.prm

>  <SCORE>
-43.1046

>  <SCORE.INTER>
-53.2256

>  <SCORE.INTER.CONST>
1

>  <SCORE.INTER.POLAR>
-7.95936

>  <SCORE.INTER.ROT>
6

>  <SCORE.INTER.SOLV>
36.7878

>  <SCORE.INTER.VDW>
-28.8151

>  <SCORE.INTER.norm>
-1.6633

>  <SCORE.INTRA>
10.1209

>  <SCORE.INTRA.DIHEDRAL>
7.76839

>  <SCORE.INTRA.DIHEDRAL.0>
22.9177

>  <SCORE.INTRA.POLAR>
-0.345349

>  <SCORE.INTRA.POLAR.0>
-0.311208

>  <SCORE.INTRA.REPUL>
0.0106828

>  <SCORE.INTRA.REPUL.0>
0

>  <SCORE.INTRA.SOLV>
0.493032

>  <SCORE.INTRA.SOLV.lig_0>
-132.657

>  <SCORE.INTRA.VDW>
7.11099

>  <SCORE.INTRA.VDW.0>
-4.68867

>  <SCORE.INTRA.norm>
0.316279

>  <SCORE.RESTR>
0

>  <SCORE.RESTR.CAVITY>
0

>  <SCORE.RESTR.norm>
0

>  <SCORE.SYSTEM>
0

>  <SCORE.SYSTEM.CONST>
0

>  <SCORE.SYSTEM.DIHEDRAL>
0

>  <SCORE.SYSTEM.SOLV>
0

>  <SCORE.SYSTEM.norm>
0

>  <SCORE.heavy>
32

>  <SCORE.norm>
-1.34702

>  <RMSD>
4.080

$$$$
1tob
 OpenBabel11021811413D
libRbt.so/2013.1/901 2013/11/27
 32 34  0  0  0  0  0  0  0  0999 V2000
    0.4648    3.2004    4.1486 C   0  0  2  0  0  0  0  0  0  0  0  0
    1.6529    2.2848    4.4340 C   0  0  1  0  0  0  0  0  0  0  0  0
    1.3599    1.4321    5.6609 C   0  0  2  0  0  0  0  0  0  0  0  0
    1.0117    2.3384    6.8355 C   0  0  1  0  0  0  0  0  0  0  0  0
   -0.1537    3.2494    6.4598 C   0  0  1  0  0  0  0  0  0  0  0  0
   -0.4984    4.2305    7.5630 C   0  0  0  0  0  0  0  0  0  0  0  0
    1.8913    1.4454    3.3132 O   0  0  0  0  0  0  0  0  0  0  0  0
    2.4950    0.5363    5.9717 N   0  3  0  0  0  0  0  0  0  0  0  0
    0.6697    1.5491    7.9670 O   0  0  0  0  0  0  0  0  0  0  0  0
    0.1811    4.0231    5.2874 O   0  0  0  0  0  0  0  0  0  0  0  0
    0.5878    4.4029    8.4621 O   0  0  0  0  0  0  0  0  0  0  0  0
   -2.5023    1.9592    2.3723 C   0  0  2  0  0  0  0  0  0  0  0  0
   -3.4414    2.5779    1.3459 C   0  0  0  0  0  0  0  0  0  0  0  0
   -4.2323    3.7279    1.9700 C   0  0  1  0  0  0  0  0  0  0  0  0
   -3.2692    4.7974    2.4802 C   0  0  2  0  0  0  0  0  0  0  0  0
   -2.3117    4.1915    3.5075 C   0  0  1  0  0  0  0  0  0  0  0  0
   -1.5456    3.0237    2.8870 C   0  0  1  0  0  0  0  0  0  0  0  0
   -1.7103    0.8671    1.7651 N   0  3  0  0  0  0  0  0  0  0  0  0
   -5.2044    4.2665    0.9836 N   0  3  0  0  0  0  0  0  0  0  0  0
   -1.3991    5.1831    3.9591 O   0  0  0  0  0  0  0  0  0  0  0  0
   -0.6589    2.4477    3.8631 O   0  0  0  0  0  0  0  0  0  0  0  0
   -3.3036    7.0733    3.2436 C   0  0  1  0  0  0  0  0  0  0  0  0
   -3.5389    7.6329    4.6477 C   0  0  1  0  0  0  0  0  0  0  0  0
   -5.0081    7.9782    4.8384 C   0  0  0  0  0  0  0  0  0  0  0  0
   -5.4452    8.9324    3.7389 C   0  0  1  0  0  0  0  0  0  0  0  0
   -5.1576    8.3116    2.3724 C   0  0  1  0  0  0  0  0  0  0  0  0
   -5.5159    9.2360    1.2230 C   0  0  0  0  0  0  0  0  0  0  0  0
   -3.0497    6.6945    5.6853 N   0  3  0  0  0  0  0  0  0  0  0  0
   -5.3298    8.5697   -0.0882 N   0  3  0  0  0  0  0  0  0  0  0  0
   -4.0041    5.8863    3.0756 O   0  0  0  0  0  0  0  0  0  0  0  0
   -6.8321    9.2117    3.8620 O   0  0  0  0  0  0  0  0  0  0  0  0
   -3.7517    8.0049    2.2514 O   0  0  0  0  0  0  0  0  0  0  0  0
  1  2  1  0  0  0  0
  1 10  1  0  0  0  0
  1 21  1  1  0  0  0
  2  3  1  0  0  0  0
  2  7  1  6  0  0  0
  3  4  1  0  0  0  0
  3  8  1  1  0  0  0
  4  5  1  0  0  0  0
  4  9  1  1  0  0  0
  5  6  1  1  0  0  0
  5 10  1  0  0  0  0
  6 11  1  0  0  0  0
 12 13  1  0  0  0  0
 12 17  1  0  0  0  0
 12 18  1  6  0  0  0
 13 14  1  0  0  0  0
 14 15  1  0  0  0  0
 14 19  1  6  0  0  0
 15 16  1  0  0  0  0
 15 30  1  1  0  0  0
 16 17  1  0  0  0  0
 16 20  1  6  0  0  0
 17 21  1  1  0  0  0
 22 23  1  0  0  0  0
 22 30  1  1  0  0  0
 22 32  1  0  0  0  0
 23 24  1  0  0  0  0
 23 28  1  1  0  0  0
 24 25  1  0  0  0  0
 25 26  1  0  0  0  0
 25 31  1  6  0  0  0
 26 27  1  6  0  0  0
 26 32  1  0  0  0  0
 27 29  1  0  0  0  0
M  CHG  5   8   1  18   1  19   1  28   1  29   1
M  END
>  <CHROM.1>
-145.44053002,173.99456158,-60.74905780,-53.00687391,20.48712450,-58.92677054
108.38399662,-175.41425670,-162.85299594,-56.15084303,163.93091025,-133.62351072
-117.50550596,-54.75195068,-175.42288293,-45.21506218,-2.09197482,4.64298197
3.94749326,0.13515278,0.82596232,-2.25981942

>  <Name>
1tob

>  <RI>
0

>  <Rbt.Current_Directory>
/home/itssahil/PROJECTS/Mol_Feturizer/New_Systems/rnas/1tob

>  <Rbt.Executable>
rbdock ($Id: //depot/dev/client3/rdock/2013.1/src/exe/rbdock.cxx#4 $)

>  <Rbt.Library>
libRbt.so (2013.1, Build901 2013/11/27)

>  <Rbt.Parameter_File>
/export/apps/rDock/src/rDock_2013.1_src/data/scripts/dock_solv.prm

>  <Rbt.Receptor>
prm/pocket_docking_6.prm

>  <SCORE>
-39.9108

>  <SCORE.INTER>
-41.1033

>  <SCORE.INTER.CONST>
1

>  <SCORE.INTER.POLAR>
-5.42952

>  <SCORE.INTER.ROT>
6

>  <SCORE.INTER.SOLV>
25.7244

>  <SCORE.INTER.VDW>
-25.4786

>  <SCORE.INTER.norm>
-1.28448

>  <SCORE.INTRA>
1.19251

>  <SCORE.INTRA.DIHEDRAL>
2.54132

>  <SCORE.INTRA.DIHEDRAL.0>
22.9177

>  <SCORE.INTRA.POLAR>
-1.28272

>  <SCORE.INTRA.POLAR.0>
-0.311208

>  <SCORE.INTRA.REPUL>
0

>  <SCORE.INTRA.REPUL.0>
0

>  <SCORE.INTRA.SOLV>
-2.50605

>  <SCORE.INTRA.SOLV.lig_0>
-132.657

>  <SCORE.INTRA.VDW>
5.53611

>  <SCORE.INTRA.VDW.0>
-4.68867

>  <SCORE.INTRA.norm>
0.0372659

>  <SCORE.RESTR>
0

>  <SCORE.RESTR.CAVITY>
0

>  <SCORE.RESTR.norm>
0

>  <SCORE.SYSTEM>
0

>  <SCORE.SYSTEM.CONST>
0

>  <SCORE.SYSTEM.DIHEDRAL>
0

>  <SCORE.SYSTEM.SOLV>
0

>  <SCORE.SYSTEM.norm>
0

>  <SCORE.heavy>
32

>  <SCORE.norm>
-1.24721

>  <RMSD>
4.089

$$$$
1tob
 OpenBabel11021811413D
libRbt.so/2013.1/901 2013/11/27
 32 34  0  0  0  0  0  0  0  0999 V2000
   -0.6614    3.3746    4.4753 C   0  0  2  0  0  0  0  0  0  0  0  0
   -1.0735    3.7567    5.8949 C   0  0  1  0  0  0  0  0  0  0  0  0
    0.0229    4.5940    6.5393 C   0  0  2  0  0  0  0  0  0  0  0  0
    1.3400    3.8290    6.4877 C   0  0  1  0  0  0  0  0  0  0  0  0
    1.6616    3.4472    5.0454 C   0  0  1  0  0  0  0  0  0  0  0  0
    2.9244    2.6154    4.9365 C   0  0  0  0  0  0  0  0  0  0  0  0
   -2.2842    4.4987    5.8593 O   0  0  0  0  0  0  0  0  0  0  0  0
   -0.3401    4.9766    7.9210 N   0  3  0  0  0  0  0  0  0  0  0  0
    2.3831    4.6310    7.0250 O   0  0  0  0  0  0  0  0  0  0  0  0
    0.5834    2.6644    4.4887 O   0  0  0  0  0  0  0  0  0  0  0  0
    4.0795    3.3830    5.2438 O   0  0  0  0  0  0  0  0  0  0  0  0
   -1.7686    3.2526    2.0623 C   0  0  2  0  0  0  0  0  0  0  0  0
   -2.7562    3.3899    0.9117 C   0  0  0  0  0  0  0  0  0  0  0  0
   -4.0346    4.0827    1.3843 C   0  0  1  0  0  0  0  0  0  0  0  0
   -3.6976    5.4698    1.9268 C   0  0  2  0  0  0  0  0  0  0  0  0
   -2.6994    5.3519    3.0796 C   0  0  1  0  0  0  0  0  0  0  0  0
   -1.4359    4.6324    2.6090 C   0  0  1  0  0  0  0  0  0  0  0  0
   -0.5164    2.6126    1.6032 N   0  3  0  0  0  0  0  0  0  0  0  0
   -5.0214    4.1339    0.2746 N   0  3  0  0  0  0  0  0  0  0  0  0
   -2.3670    6.6464    3.5633 O   0  0  0  0  0  0  0  0  0  0  0  0
   -0.5078    4.5101    3.7019 O   0  0  0  0  0  0  0  0  0  0  0  0
   -5.1867    7.3468    1.7741 C   0  0  1  0  0  0  0  0  0  0  0  0
   -5.7938    8.3144    2.7916 C   0  0  1  0  0  0  0  0  0  0  0  0
   -7.1177    7.7728    3.3096 C   0  0  0  0  0  0  0  0  0  0  0  0
   -8.0393    7.4939    2.1334 C   0  0  1  0  0  0  0  0  0  0  0  0
   -7.3539    6.5403    1.1555 C   0  0  1  0  0  0  0  0  0  0  0  0
   -8.1953    6.2619   -0.0768 C   0  0  0  0  0  0  0  0  0  0  0  0
   -4.8419    8.5993    3.8912 N   0  3  0  0  0  0  0  0  0  0  0  0
   -8.3587    7.4780   -0.9089 N   0  3  0  0  0  0  0  0  0  0  0  0
   -4.8962    6.1318    2.3803 O   0  0  0  0  0  0  0  0  0  0  0  0
   -9.2553    6.9234    2.5946 O   0  0  0  0  0  0  0  0  0  0  0  0
   -6.1055    7.1064    0.7012 O   0  0  0  0  0  0  0  0  0  0  0  0
  1  2  1  0  0  0  0
  1 10  1  0  0  0  0
  1 21  1  6  0  0  0
  2  3  1  0  0  0  0
  2  7  1  6  0  0  0
  3  4  1  0  0  0  0
  3  8  1  1  0  0  0
  4  5  1  0  0  0  0
  4  9  1  6  0  0  0
  5  6  1  1  0  0  0
  5 10  1  0  0  0  0
  6 11  1  0  0  0  0
 12 13  1  0  0  0  0
 12 17  1  0  0  0  0
 12 18  1  6  0  0  0
 13 14  1  0  0  0  0
 14 15  1  0  0  0  0
 14 19  1  6  0  0  0
 15 16  1  0  0  0  0
 15 30  1  1  0  0  0
 16 17  1  0  0  0  0
 16 20  1  6  0  0  0
 17 21  1  1  0  0  0
 22 23  1  0  0  0  0
 22 30  1  1  0  0  0
 22 32  1  0  0  0  0
 23 24  1  0  0  0  0
 23 28  1  1  0  0  0
 24 25  1  0  0  0  0
 25 26  1  0  0  0  0
 25 31  1  1  0  0  0
 26 27  1  6  0  0  0
 26 32  1  0  0  0  0
 27 29  1  0  0  0  0
M  CHG  5   8   1  18   1  19   1  28   1  29   1
M  END
>  <CHROM.1>
-115.41201257,-64.72595627,19.18578008,73.43870610,-69.08438666,49.75468260
59.77094015,-22.41759337,-121.62148061,-63.35210042,-33.55610555,-143.45934164
5.02325113,-168.38845430,66.43396537,-67.74492611,-2.84102636,5.20156862
3.29043774,-0.20362479,0.52708309,-2.09237992

>  <Name>
1tob

>  <RI>
0

>  <Rbt.Current_Directory>
/home/itssahil/PROJECTS/Mol_Feturizer/New_Systems/rnas/1tob

>  <Rbt.Executable>
rbdock ($Id: //depot/dev/client3/rdock/2013.1/src/exe/rbdock.cxx#4 $)

>  <Rbt.Library>
libRbt.so (2013.1, Build901 2013/11/27)

>  <Rbt.Parameter_File>
/export/apps/rDock/src/rDock_2013.1_src/data/scripts/dock_solv.prm

>  <Rbt.Receptor>
prm/pocket_docking_5.prm

>  <SCORE>
-45.7238

>  <SCORE.INTER>
-45.1022

>  <SCORE.INTER.CONST>
1

>  <SCORE.INTER.POLAR>
-7.26504

>  <SCORE.INTER.ROT>
6

>  <SCORE.INTER.SOLV>
27.041

>  <SCORE.INTER.VDW>
-22.465

>  <SCORE.INTER.norm>
-1.40944

>  <SCORE.INTRA>
-0.652853

>  <SCORE.INTRA.DIHEDRAL>
10.6916

>  <SCORE.INTRA.DIHEDRAL.0>
22.9177

>  <SCORE.INTRA.POLAR>
-3.46463

>  <SCORE.INTRA.POLAR.0>
-0.311208

>  <SCORE.INTRA.REPUL>
0

>  <SCORE.INTRA.REPUL.0>
0

>  <SCORE.INTRA.SOLV>
0.995834

>  <SCORE.INTRA.SOLV.lig_0>
-132.657

>  <SCORE.INTRA.VDW>
5.28319

>  <SCORE.INTRA.VDW.0>
-4.68867

>  <SCORE.INTRA.norm>
-0.0204017

>  <SCORE.RESTR>
0.0312618

>  <SCORE.RESTR.CAVITY>
0.0312618

>  <SCORE.RESTR.norm>
0.00097693

>  <SCORE.SYSTEM>
0

>  <SCORE.SYSTEM.CONST>
0

>  <SCORE.SYSTEM.DIHEDRAL>
0

>  <SCORE.SYSTEM.SOLV>
0

>  <SCORE.SYSTEM.norm>
0

>  <SCORE.heavy>
32

>  <SCORE.norm>
-1.42887

>  <RMSD>
4.096

$$$$
1tob
 OpenBabel11021811413D
libRbt.so/2013.1/901 2013/11/27
 32 34  0  0  0  0  0  0  0  0999 V2000
   -0.9798    3.1482    4.9379 C   0  0  2  0  0  0  0  0  0  0  0  0
   -0.7395    3.6437    6.3619 C   0  0  1  0  0  0  0  0  0  0  0  0
    0.7428    3.9283    6.5624 C   0  0  2  0  0  0  0  0  0  0  0  0
    1.5480    2.6797    6.2232 C   0  0  1  0  0  0  0  0  0  0  0  0
    1.2230    2.2230    4.8037 C   0  0  1  0  0  0  0  0  0  0  0  0
    1.9367    0.9377    4.4333 C   0  0  0  0  0  0  0  0  0  0  0  0
   -1.4897    4.8281    6.5903 O   0  0  0  0  0  0  0  0  0  0  0  0
    1.0138    4.4043    7.9362 N   0  3  0  0  0  0  0  0  0  0  0  0
    2.9371    2.9566    6.3413 O   0  0  0  0  0  0  0  0  0  0  0  0
   -0.1944    1.9786    4.6750 O   0  0  0  0  0  0  0  0  0  0  0  0
    3.0033    1.1792    3.5266 O   0  0  0  0  0  0  0  0  0  0  0  0
   -2.1585    3.0236    2.5124 C   0  0  2  0  0  0  0  0  0  0  0  0
   -3.1730    3.2721    1.4046 C   0  0  0  0  0  0  0  0  0  0  0  0
   -4.2967    4.1812    1.9030 C   0  0  1  0  0  0  0  0  0  0  0  0
   -3.7137    5.5163    2.3606 C   0  0  2  0  0  0  0  0  0  0  0  0
   -2.6855    5.2853    3.4691 C   0  0  1  0  0  0  0  0  0  0  0  0
   -1.5806    4.3523    2.9747 C   0  0  1  0  0  0  0  0  0  0  0  0
   -1.0515    2.1713    2.0262 N   0  3  0  0  0  0  0  0  0  0  0  0
   -5.3219    4.3464    0.8402 N   0  3  0  0  0  0  0  0  0  0  0  0
   -2.1250    6.5274    3.8728 O   0  0  0  0  0  0  0  0  0  0  0  0
   -0.6255    4.1258    4.0271 O   0  0  0  0  0  0  0  0  0  0  0  0
   -4.5290    7.7450    2.7238 C   0  0  1  0  0  0  0  0  0  0  0  0
   -5.5530    8.5297    3.5457 C   0  0  1  0  0  0  0  0  0  0  0  0
   -6.9551    8.2960    3.0035 C   0  0  0  0  0  0  0  0  0  0  0  0
   -6.9857    8.6485    1.5253 C   0  0  1  0  0  0  0  0  0  0  0  0
   -5.9230    7.8417    0.7802 C   0  0  1  0  0  0  0  0  0  0  0  0
   -5.8560    8.1859   -0.6967 C   0  0  0  0  0  0  0  0  0  0  0  0
   -5.4515    8.1947    4.9858 N   0  3  0  0  0  0  0  0  0  0  0  0
   -4.5986    7.6976   -1.3117 N   0  3  0  0  0  0  0  0  0  0  0  0
   -4.7647    6.3813    2.8376 O   0  0  0  0  0  0  0  0  0  0  0  0
   -8.2703    8.3714    0.9870 O   0  0  0  0  0  0  0  0  0  0  0  0
   -4.6174    8.1032    1.3392 O   0  0  0  0  0  0  0  0  0  0  0  0
  1  2  1  0  0  0  0
  1 10  1  0  0  0  0
  1 21  1  6  0  0  0
  2  3  1  0  0  0  0
  2  7  1  6  0  0  0
  3  4  1  0  0  0  0
  3  8  1  1  0  0  0
  4  5  1  0  0  0  0
  4  9  1  6  0  0  0
  5  6  1  1  0  0  0
  5 10  1  0  0  0  0
  6 11  1  0  0  0  0
 12 13  1  0  0  0  0
 12 17  1  0  0  0  0
 12 18  1  6  0  0  0
 13 14  1  0  0  0  0
 14 15  1  0  0  0  0
 14 19  1  6  0  0  0
 15 16  1  0  0  0  0
 15 30  1  1  0  0  0
 16 17  1  0  0  0  0
 16 20  1  6  0  0  0
 17 21  1  1  0  0  0
 22 23  1  0  0  0  0
 22 30  1  6  0  0  0
 22 32  1  0  0  0  0
 23 24  1  0  0  0  0
 23 28  1  1  0  0  0
 24 25  1  0  0  0  0
 25 26  1  0  0  0  0
 25 31  1  6  0  0  0
 26 27  1  6  0  0  0
 26 32  1  0  0  0  0
 27 29  1  0  0  0  0
M  CHG  5   8   1  18   1  19   1  28   1  29   1
M  END
>  <CHROM.1>
-133.88283055,-90.43979596,68.38137030,67.16180712,-106.45143947,-82.05882799
72.32409916,59.62737991,-152.39847407,69.21067345,-39.57924828,-166.93064296
-13.26624979,-67.19595906,163.86519611,-36.98952283,-2.51163364,5.08538262
3.36463360,0.11045051,-0.72767335,1.07636451

>  <Name>
1tob

>  <RI>
0

>  <Rbt.Current_Directory>
/home/itssahil/PROJECTS/Mol_Feturizer/New_Systems/rnas/1tob

>  <Rbt.Executable>
rbdock ($Id: //depot/dev/client3/rdock/2013.1/src/exe/rbdock.cxx#4 $)

>  <Rbt.Library>
libRbt.so (2013.1, Build901 2013/11/27)

>  <Rbt.Parameter_File>
/export/apps/rDock/src/rDock_2013.1_src/data/scripts/dock_solv.prm

>  <Rbt.Receptor>
prm/pocket_docking_5.prm

>  <SCORE>
-44.0021

>  <SCORE.INTER>
-48.262

>  <SCORE.INTER.CONST>
1

>  <SCORE.INTER.POLAR>
-7.34626

>  <SCORE.INTER.ROT>
6

>  <SCORE.INTER.SOLV>
22.9512

>  <SCORE.INTER.VDW>
-22.9375

>  <SCORE.INTER.norm>
-1.50819

>  <SCORE.INTRA>
4.25993

>  <SCORE.INTRA.DIHEDRAL>
6.38117

>  <SCORE.INTRA.DIHEDRAL.0>
22.9177

>  <SCORE.INTRA.POLAR>
-0.70041

>  <SCORE.INTRA.POLAR.0>
-0.311208

>  <SCORE.INTRA.REPUL>
0.197682

>  <SCORE.INTRA.REPUL.0>
0

>  <SCORE.INTRA.SOLV>
0.272448

>  <SCORE.INTRA.SOLV.lig_0>
-132.657

>  <SCORE.INTRA.VDW>
2.3261

>  <SCORE.INTRA.VDW.0>
-4.68867

>  <SCORE.INTRA.norm>
0.133123

>  <SCORE.RESTR>
0

>  <SCORE.RESTR.CAVITY>
0

>  <SCORE.RESTR.norm>
0

>  <SCORE.SYSTEM>
0

>  <SCORE.SYSTEM.CONST>
0

>  <SCORE.SYSTEM.DIHEDRAL>
0

>  <SCORE.SYSTEM.SOLV>
0

>  <SCORE.SYSTEM.norm>
0

>  <SCORE.heavy>
32

>  <SCORE.norm>
-1.37507

>  <RMSD>
4.111

$$$$
1tob
 OpenBabel11021811413D
libRbt.so/2013.1/901 2013/11/27
 32 34  0  0  0  0  0  0  0  0999 V2000
   -0.3803    4.7212    4.6542 C   0  0  2  0  0  0  0  0  0  0  0  0
    0.9052    4.2280    3.9943 C   0  0  1  0  0  0  0  0  0  0  0  0
    1.3378    2.9148    4.6320 C   0  0  2  0  0  0  0  0  0  0  0  0
    1.4773    3.1054    6.1376 C   0  0  1  0  0  0  0  0  0  0  0  0
    0.1693    3.6381    6.7161 C   0  0  1  0  0  0  0  0  0  0  0  0
    0.2687    3.9220    8.2020 C   0  0  0  0  0  0  0  0  0  0  0  0
    0.6871    4.0361    2.6039 O   0  0  0  0  0  0  0  0  0  0  0  0
    2.5867    2.4106    4.0209 N   0  3  0  0  0  0  0  0  0  0  0  0
    1.8140    1.8677    6.7497 O   0  0  0  0  0  0  0  0  0  0  0  0
   -0.1911    4.8763    6.0664 O   0  0  0  0  0  0  0  0  0  0  0  0
    1.4996    4.5511    8.5290 O   0  0  0  0  0  0  0  0  0  0  0  0
   -2.4006    2.4471    2.7166 C   0  0  2  0  0  0  0  0  0  0  0  0
   -3.0353    2.4981    1.3336 C   0  0  0  0  0  0  0  0  0  0  0  0
   -4.2616    3.4112    1.3417 C   0  0  1  0  0  0  0  0  0  0  0  0
   -3.8503    4.8213    1.7592 C   0  0  2  0  0  0  0  0  0  0  0  0
   -3.2028    4.7884    3.1444 C   0  0  1  0  0  0  0  0  0  0  0  0
   -1.9955    3.8513    3.1380 C   0  0  1  0  0  0  0  0  0  0  0  0
   -1.1942    1.5911    2.7071 N   0  3  0  0  0  0  0  0  0  0  0  0
   -4.9197    3.3852    0.0097 N   0  3  0  0  0  0  0  0  0  0  0  0
   -2.7963    6.0982    3.5175 O   0  0  0  0  0  0  0  0  0  0  0  0
   -1.4008    3.8120    4.4478 O   0  0  0  0  0  0  0  0  0  0  0  0
   -5.9748    5.3952    2.7188 C   0  0  1  0  0  0  0  0  0  0  0  0
   -7.2962    6.0695    2.3456 C   0  0  1  0  0  0  0  0  0  0  0  0
   -7.1388    7.5826    2.3607 C   0  0  0  0  0  0  0  0  0  0  0  0
   -6.6138    8.0180    3.7191 C   0  0  1  0  0  0  0  0  0  0  0  0
   -5.3081    7.2859    4.0266 C   0  0  1  0  0  0  0  0  0  0  0  0
   -4.7543    7.6286    5.3978 C   0  0  0  0  0  0  0  0  0  0  0  0
   -7.7974    5.5763    1.0410 N   0  3  0  0  0  0  0  0  0  0  0  0
   -5.3619    8.8700    5.9341 N   0  3  0  0  0  0  0  0  0  0  0  0
   -5.0005    5.6915    1.7749 O   0  0  0  0  0  0  0  0  0  0  0  0
   -6.3962    9.4213    3.7280 O   0  0  0  0  0  0  0  0  0  0  0  0
   -5.5195    5.8577    3.9963 O   0  0  0  0  0  0  0  0  0  0  0  0
  1  2  1  0  0  0  0
  1 10  1  0  0  0  0
  1 21  1  1  0  0  0
  2  3  1  0  0  0  0
  2  7  1  6  0  0  0
  3  4  1  0  0  0  0
  3  8  1  6  0  0  0
  4  5  1  0  0  0  0
  4  9  1  1  0  0  0
  5  6  1  1  0  0  0
  5 10  1  0  0  0  0
  6 11  1  0  0  0  0
 12 13  1  0  0  0  0
 12 17  1  0  0  0  0
 12 18  1  6  0  0  0
 13 14  1  0  0  0  0
 14 15  1  0  0  0  0
 14 19  1  6  0  0  0
 15 16  1  0  0  0  0
 15 30  1  1  0  0  0
 16 17  1  0  0  0  0
 16 20  1  6  0  0  0
 17 21  1  1  0  0  0
 22 23  1  0  0  0  0
 22 30  1  6  0  0  0
 22 32  1  0  0  0  0
 23 24  1  0  0  0  0
 23 28  1  6  0  0  0
 24 25  1  0  0  0  0
 25 26  1  0  0  0  0
 25 31  1  6  0  0  0
 26 27  1  1  0  0  0
 26 32  1  0  0  0  0
 27 29  1  0  0  0  0
M  CHG  5   8   1  18   1  19   1  28   1  29   1
M  END
>  <CHROM.1>
-77.61267719,159.00890527,-167.93796216,-171.84916002,41.98160579,40.02609556
-27.27991732,56.00891413,65.37679494,174.58083941,145.45289746,-161.65470104
157.05001502,64.94576185,-17.33625010,69.97983955,-2.66129236,4.83314912
3.86705269,0.00746683,-0.55522303,0.89090113

>  <Name>
1tob

>  <RI>
0

>  <Rbt.Current_Directory>
/home/itssahil/PROJECTS/Mol_Feturizer/New_Systems/rnas/1tob

>  <Rbt.Executable>
rbdock ($Id: //depot/dev/client3/rdock/2013.1/src/exe/rbdock.cxx#4 $)

>  <Rbt.Library>
libRbt.so (2013.1, Build901 2013/11/27)

>  <Rbt.Parameter_File>
/export/apps/rDock/src/rDock_2013.1_src/data/scripts/dock_solv.prm

>  <Rbt.Receptor>
prm/blind_docking_80.prm

>  <SCORE>
-26.3183

>  <SCORE.INTER>
-36.124

>  <SCORE.INTER.CONST>
1

>  <SCORE.INTER.POLAR>
-5.46994

>  <SCORE.INTER.ROT>
6

>  <SCORE.INTER.SOLV>
29.2969

>  <SCORE.INTER.VDW>
-23.2152

>  <SCORE.INTER.norm>
-1.12888

>  <SCORE.INTRA>
0.949852

>  <SCORE.INTRA.DIHEDRAL>
-1.60235

>  <SCORE.INTRA.DIHEDRAL.0>
22.9177

>  <SCORE.INTRA.POLAR>
-1.19096

>  <SCORE.INTRA.POLAR.0>
-0.311208

>  <SCORE.INTRA.REPUL>
0

>  <SCORE.INTRA.REPUL.0>
0

>  <SCORE.INTRA.SOLV>
3.23832

>  <SCORE.INTRA.SOLV.lig_0>
-132.657

>  <SCORE.INTRA.VDW>
4.18111

>  <SCORE.INTRA.VDW.0>
-4.68867

>  <SCORE.INTRA.norm>
0.0296829

>  <SCORE.RESTR>
8.85588

>  <SCORE.RESTR.CAVITY>
8.85588

>  <SCORE.RESTR.norm>
0.276746

>  <SCORE.SYSTEM>
0

>  <SCORE.SYSTEM.CONST>
0

>  <SCORE.SYSTEM.DIHEDRAL>
0

>  <SCORE.SYSTEM.SOLV>
0

>  <SCORE.SYSTEM.norm>
0

>  <SCORE.heavy>
32

>  <SCORE.norm>
-0.822446

>  <RMSD>
4.127

$$$$
1tob
 OpenBabel11021811413D
libRbt.so/2013.1/901 2013/11/27
 32 34  0  0  0  0  0  0  0  0999 V2000
   -1.7652    3.6369    2.8634 C   0  0  2  0  0  0  0  0  0  0  0  0
   -1.8489    2.2395    2.2538 C   0  0  1  0  0  0  0  0  0  0  0  0
   -1.4580    1.2010    3.2964 C   0  0  2  0  0  0  0  0  0  0  0  0
   -0.0741    1.5295    3.8436 C   0  0  1  0  0  0  0  0  0  0  0  0
   -0.0591    2.9524    4.3954 C   0  0  1  0  0  0  0  0  0  0  0  0
    1.3143    3.3668    4.8858 C   0  0  0  0  0  0  0  0  0  0  0  0
   -3.1730    1.9914    1.8038 O   0  0  0  0  0  0  0  0  0  0  0  0
   -1.5206   -0.1667    2.7371 N   0  3  0  0  0  0  0  0  0  0  0  0
    0.2703    0.6051    4.8667 O   0  0  0  0  0  0  0  0  0  0  0  0
   -0.4460    3.8869    3.3648 O   0  0  0  0  0  0  0  0  0  0  0  0
    1.7039    2.6202    6.0299 O   0  0  0  0  0  0  0  0  0  0  0  0
   -2.8553    6.1661    3.9614 C   0  0  2  0  0  0  0  0  0  0  0  0
   -3.8457    7.3153    3.8325 C   0  0  0  0  0  0  0  0  0  0  0  0
   -4.5383    7.2736    2.4701 C   0  0  1  0  0  0  0  0  0  0  0  0
   -5.2808    5.9488    2.3108 C   0  0  2  0  0  0  0  0  0  0  0  0
   -4.3019    4.7814    2.4456 C   0  0  1  0  0  0  0  0  0  0  0  0
   -3.5910    4.8451    3.7970 C   0  0  1  0  0  0  0  0  0  0  0  0
   -2.2059    6.1820    5.2905 N   0  3  0  0  0  0  0  0  0  0  0  0
   -5.4381    8.4471    2.3245 N   0  3  0  0  0  0  0  0  0  0  0  0
   -5.0011    3.5499    2.3246 O   0  0  0  0  0  0  0  0  0  0  0  0
   -2.6597    3.7540    3.9108 O   0  0  0  0  0  0  0  0  0  0  0  0
   -7.1046    5.1495    0.9696 C   0  0  1  0  0  0  0  0  0  0  0  0
   -7.6603    5.1438   -0.4556 C   0  0  1  0  0  0  0  0  0  0  0  0
   -8.0379    6.5550   -0.8801 C   0  0  0  0  0  0  0  0  0  0  0  0
   -9.0090    7.1398    0.1326 C   0  0  1  0  0  0  0  0  0  0  0  0
   -8.3906    7.0894    1.5293 C   0  0  1  0  0  0  0  0  0  0  0  0
   -9.3304    7.6050    2.6040 C   0  0  0  0  0  0  0  0  0  0  0  0
   -6.7043    4.5172   -1.3989 N   0  3  0  0  0  0  0  0  0  0  0  0
  -10.3637    6.5998    2.9498 N   0  3  0  0  0  0  0  0  0  0  0  0
   -5.9350    5.8958    1.0264 O   0  0  0  0  0  0  0  0  0  0  0  0
   -9.3192    8.4821   -0.2118 O   0  0  0  0  0  0  0  0  0  0  0  0
   -8.0526    5.7286    1.8747 O   0  0  0  0  0  0  0  0  0  0  0  0
  1  2  1  0  0  0  0
  1 10  1  0  0  0  0
  1 21  1  1  0  0  0
  2  3  1  0  0  0  0
  2  7  1  1  0  0  0
  3  4  1  0  0  0  0
  3  8  1  6  0  0  0
  4  5  1  0  0  0  0
  4  9  1  1  0  0  0
  5  6  1  6  0  0  0
  5 10  1  0  0  0  0
  6 11  1  0  0  0  0
 12 13  1  0  0  0  0
 12 17  1  0  0  0  0
 12 18  1  1  0  0  0
 13 14  1  0  0  0  0
 14 15  1  0  0  0  0
 14 19  1  1  0  0  0
 15 16  1  0  0  0  0
 15 30  1  6  0  0  0
 16 17  1  0  0  0  0
 16 20  1  1  0  0  0
 17 21  1  6  0  0  0
 22 23  1  0  0  0  0
 22 30  1  6  0  0  0
 22 32  1  0  0  0  0
 23 24  1  0  0  0  0
 23 28  1  6  0  0  0
 24 25  1  0  0  0  0
 25 26  1  0  0  0  0
 25 31  1  6  0  0  0
 26 27  1  1  0  0  0
 26 32  1  0  0  0  0
 27 29  1  0  0  0  0
M  CHG  5   8   1  18   1  19   1  28   1  29   1
M  END
>  <CHROM.1>
-124.44489981,-70.28496338,73.53244518,-53.09071391,-67.08205669,56.70113512
-67.54434309,64.47581767,-149.76383469,-82.62683174,-69.40776410,-178.11544038
-178.15056341,-61.67509743,77.37985180,-43.15741701,-4.27209653,4.72090695
2.55321318,0.24485860,0.56681259,-2.62900773

>  <Name>
1tob

>  <RI>
0

>  <Rbt.Current_Directory>
/home/itssahil/PROJECTS/Mol_Feturizer/New_Systems/rnas/1tob

>  <Rbt.Executable>
rbdock ($Id: //depot/dev/client3/rdock/2013.1/src/exe/rbdock.cxx#4 $)

>  <Rbt.Library>
libRbt.so (2013.1, Build901 2013/11/27)

>  <Rbt.Parameter_File>
/export/apps/rDock/src/rDock_2013.1_src/data/scripts/dock_solv.prm

>  <Rbt.Receptor>
prm/pocket_docking_5.prm

>  <SCORE>
-52.1518

>  <SCORE.INTER>
-48.882

>  <SCORE.INTER.CONST>
1

>  <SCORE.INTER.POLAR>
-6.46468

>  <SCORE.INTER.ROT>
6

>  <SCORE.INTER.SOLV>
35.7278

>  <SCORE.INTER.VDW>
-30.5483

>  <SCORE.INTER.norm>
-1.52756

>  <SCORE.INTRA>
-3.27683

>  <SCORE.INTRA.DIHEDRAL>
-6.20447

>  <SCORE.INTRA.DIHEDRAL.0>
22.9177

>  <SCORE.INTRA.POLAR>
-0.116075

>  <SCORE.INTRA.POLAR.0>
-0.311208

>  <SCORE.INTRA.REPUL>
0

>  <SCORE.INTRA.REPUL.0>
0

>  <SCORE.INTRA.SOLV>
-2.19109

>  <SCORE.INTRA.SOLV.lig_0>
-132.657

>  <SCORE.INTRA.VDW>
1.31561

>  <SCORE.INTRA.VDW.0>
-4.68867

>  <SCORE.INTRA.norm>
-0.102401

>  <SCORE.RESTR>
0.00707775

>  <SCORE.RESTR.CAVITY>
0.00707775

>  <SCORE.RESTR.norm>
0.00022118

>  <SCORE.SYSTEM>
0

>  <SCORE.SYSTEM.CONST>
0

>  <SCORE.SYSTEM.DIHEDRAL>
0

>  <SCORE.SYSTEM.SOLV>
0

>  <SCORE.SYSTEM.norm>
0

>  <SCORE.heavy>
32

>  <SCORE.norm>
-1.62974

>  <RMSD>
4.145

$$$$
1tob
 OpenBabel11021811413D
libRbt.so/2013.1/901 2013/11/27
 32 34  0  0  0  0  0  0  0  0999 V2000
   -2.0731    4.6910    3.7358 C   0  0  2  0  0  0  0  0  0  0  0  0
   -1.5931    3.5292    2.8691 C   0  0  1  0  0  0  0  0  0  0  0  0
   -1.4409    2.2795    3.7253 C   0  0  2  0  0  0  0  0  0  0  0  0
   -0.5069    2.5766    4.8924 C   0  0  1  0  0  0  0  0  0  0  0  0
   -1.0300    3.7722    5.6836 C   0  0  1  0  0  0  0  0  0  0  0  0
   -0.1013    4.1664    6.8153 C   0  0  0  0  0  0  0  0  0  0  0  0
   -2.5311    3.2866    1.8303 O   0  0  0  0  0  0  0  0  0  0  0  0
   -0.9691    1.1336    2.9181 N   0  3  0  0  0  0  0  0  0  0  0  0
   -0.4130    1.4362    5.7354 O   0  0  0  0  0  0  0  0  0  0  0  0
   -1.1608    4.9199    4.8171 O   0  0  0  0  0  0  0  0  0  0  0  0
   -0.7525    5.0162    7.7490 O   0  0  0  0  0  0  0  0  0  0  0  0
   -3.7493    6.7883    4.2779 C   0  0  2  0  0  0  0  0  0  0  0  0
   -4.8196    7.8379    4.0111 C   0  0  0  0  0  0  0  0  0  0  0  0
   -5.3161    7.7400    2.5684 C   0  0  1  0  0  0  0  0  0  0  0  0
   -5.8995    6.3512    2.3181 C   0  0  2  0  0  0  0  0  0  0  0  0
   -4.8396    5.2824    2.5893 C   0  0  1  0  0  0  0  0  0  0  0  0
   -4.3256    5.4040    4.0234 C   0  0  1  0  0  0  0  0  0  0  0  0
   -3.2885    6.8566    5.6820 N   0  3  0  0  0  0  0  0  0  0  0  0
   -6.2971    8.8227    2.2971 N   0  3  0  0  0  0  0  0  0  0  0  0
   -5.3943    3.9903    2.3823 O   0  0  0  0  0  0  0  0  0  0  0  0
   -3.3172    4.4067    4.2670 O   0  0  0  0  0  0  0  0  0  0  0  0
   -7.4312    5.3782    0.7462 C   0  0  1  0  0  0  0  0  0  0  0  0
   -7.2673    4.6561   -0.5924 C   0  0  1  0  0  0  0  0  0  0  0  0
   -7.3018    5.6558   -1.7386 C   0  0  0  0  0  0  0  0  0  0  0  0
   -8.5838    6.4682   -1.6562 C   0  0  1  0  0  0  0  0  0  0  0  0
   -8.6833    7.1379   -0.2861 C   0  0  1  0  0  0  0  0  0  0  0  0
   -9.9713    7.9217   -0.1104 C   0  0  0  0  0  0  0  0  0  0  0  0
   -6.0336    3.8351   -0.6085 N   0  3  0  0  0  0  0  0  0  0  0  0
   -9.8476    8.9360    0.9637 N   0  3  0  0  0  0  0  0  0  0  0  0
   -6.3675    6.2453    0.9579 O   0  0  0  0  0  0  0  0  0  0  0  0
   -8.6006    7.4531   -2.6793 O   0  0  0  0  0  0  0  0  0  0  0  0
   -8.6437    6.1417    0.7585 O   0  0  0  0  0  0  0  0  0  0  0  0
  1  2  1  0  0  0  0
  1 10  1  0  0  0  0
  1 21  1  1  0  0  0
  2  3  1  0  0  0  0
  2  7  1  6  0  0  0
  3  4  1  0  0  0  0
  3  8  1  6  0  0  0
  4  5  1  0  0  0  0
  4  9  1  1  0  0  0
  5  6  1  1  0  0  0
  5 10  1  0  0  0  0
  6 11  1  0  0  0  0
 12 13  1  0  0  0  0
 12 17  1  0  0  0  0
 12 18  1  1  0  0  0
 13 14  1  0  0  0  0
 14 15  1  0  0  0  0
 14 19  1  1  0  0  0
 15 16  1  0  0  0  0
 15 30  1  6  0  0  0
 16 17  1  0  0  0  0
 16 20  1  1  0  0  0
 17 21  1  6  0  0  0
 22 23  1  0  0  0  0
 22 30  1  6  0  0  0
 22 32  1  0  0  0  0
 23 24  1  0  0  0  0
 23 28  1  1  0  0  0
 24 25  1  0  0  0  0
 25 26  1  0  0  0  0
 25 31  1  6  0  0  0
 26 27  1  6  0  0  0
 26 32  1  0  0  0  0
 27 29  1  0  0  0  0
M  CHG  5   8   1  18   1  19   1  28   1  29   1
M  END
>  <CHROM.1>
-126.48159981,168.99705408,-177.25495423,170.01137355,-163.99837692,-71.85916886
60.28742422,56.97754752,-150.50718932,173.53321617,-44.69351917,-142.98877013
-82.51716175,-61.76179601,-159.21842405,-48.35657428,-4.62886778,5.30913853
2.54112615,0.13759245,-0.72246063,0.76985983

>  <Name>
1tob

>  <RI>
0

>  <Rbt.Current_Directory>
/home/itssahil/PROJECTS/Mol_Feturizer/New_Systems/rnas/1tob

>  <Rbt.Executable>
rbdock ($Id: //depot/dev/client3/rdock/2013.1/src/exe/rbdock.cxx#4 $)

>  <Rbt.Library>
libRbt.so (2013.1, Build901 2013/11/27)

>  <Rbt.Parameter_File>
/export/apps/rDock/src/rDock_2013.1_src/data/scripts/dock_solv.prm

>  <Rbt.Receptor>
prm/pocket_docking_4.prm

>  <SCORE>
-43.7169

>  <SCORE.INTER>
-38.4513

>  <SCORE.INTER.CONST>
1

>  <SCORE.INTER.POLAR>
-4.75643

>  <SCORE.INTER.ROT>
6

>  <SCORE.INTER.SOLV>
25.5262

>  <SCORE.INTER.VDW>
-25.8882

>  <SCORE.INTER.norm>
-1.2016

>  <SCORE.INTRA>
-5.34493

>  <SCORE.INTRA.DIHEDRAL>
-0.57929

>  <SCORE.INTRA.DIHEDRAL.0>
22.9177

>  <SCORE.INTRA.POLAR>
-1.68207

>  <SCORE.INTRA.POLAR.0>
-0.311208

>  <SCORE.INTRA.REPUL>
0

>  <SCORE.INTRA.REPUL.0>
0

>  <SCORE.INTRA.SOLV>
0.878009

>  <SCORE.INTRA.SOLV.lig_0>
-132.657

>  <SCORE.INTRA.VDW>
0.224734

>  <SCORE.INTRA.VDW.0>
-4.68867

>  <SCORE.INTRA.norm>
-0.167029

>  <SCORE.RESTR>
0.079306

>  <SCORE.RESTR.CAVITY>
0.079306

>  <SCORE.RESTR.norm>
0.00247831

>  <SCORE.SYSTEM>
0

>  <SCORE.SYSTEM.CONST>
0

>  <SCORE.SYSTEM.DIHEDRAL>
0

>  <SCORE.SYSTEM.SOLV>
0

>  <SCORE.SYSTEM.norm>
0

>  <SCORE.heavy>
32

>  <SCORE.norm>
-1.36615

>  <RMSD>
4.157

$$$$
1tob
 OpenBabel11021811413D
libRbt.so/2013.1/901 2013/11/27
 32 34  0  0  0  0  0  0  0  0999 V2000
   -1.4309    3.6939    4.8920 C   0  0  2  0  0  0  0  0  0  0  0  0
   -1.3655    3.5306    6.4087 C   0  0  1  0  0  0  0  0  0  0  0  0
    0.0334    3.0894    6.8170 C   0  0  2  0  0  0  0  0  0  0  0  0
    0.4018    1.8160    6.0652 C   0  0  1  0  0  0  0  0  0  0  0  0
    0.2722    2.0456    4.5619 C   0  0  1  0  0  0  0  0  0  0  0  0
    0.5518    0.7897    3.7601 C   0  0  0  0  0  0  0  0  0  0  0  0
   -1.6811    4.7645    7.0377 O   0  0  0  0  0  0  0  0  0  0  0  0
    0.1313    2.9139    8.2823 N   0  3  0  0  0  0  0  0  0  0  0  0
    1.7323    1.4348    6.3883 O   0  0  0  0  0  0  0  0  0  0  0  0
   -1.0702    2.4696    4.2401 O   0  0  0  0  0  0  0  0  0  0  0  0
    1.9472    0.5660    3.6157 O   0  0  0  0  0  0  0  0  0  0  0  0
   -1.2671    4.6605    2.1675 C   0  0  2  0  0  0  0  0  0  0  0  0
   -1.7802    5.5434    1.0381 C   0  0  0  0  0  0  0  0  0  0  0  0
   -3.0830    6.2311    1.4473 C   0  0  1  0  0  0  0  0  0  0  0  0
   -2.8444    7.0887    2.6880 C   0  0  2  0  0  0  0  0  0  0  0  0
   -2.3204    6.2189    3.8318 C   0  0  1  0  0  0  0  0  0  0  0  0
   -1.0344    5.5109    3.4068 C   0  0  1  0  0  0  0  0  0  0  0  0
    0.0108    4.0181    1.7896 N   0  3  0  0  0  0  0  0  0  0  0  0
   -3.6166    7.0215    0.3077 N   0  3  0  0  0  0  0  0  0  0  0  0
   -2.0732    7.0251    4.9759 O   0  0  0  0  0  0  0  0  0  0  0  0
   -0.5556    4.6817    4.4810 O   0  0  0  0  0  0  0  0  0  0  0  0
   -4.8256    7.0778    4.0440 C   0  0  1  0  0  0  0  0  0  0  0  0
   -6.0426    6.4179    3.3935 C   0  0  1  0  0  0  0  0  0  0  0  0
   -6.9550    7.4744    2.7886 C   0  0  0  0  0  0  0  0  0  0  0  0
   -7.3305    8.4848    3.8602 C   0  0  1  0  0  0  0  0  0  0  0  0
   -6.0641    9.0805    4.4743 C   0  0  1  0  0  0  0  0  0  0  0  0
   -6.3623   10.0583    5.5964 C   0  0  0  0  0  0  0  0  0  0  0  0
   -5.6299    5.4032    2.3953 N   0  3  0  0  0  0  0  0  0  0  0  0
   -5.6248   11.3318    5.4174 N   0  3  0  0  0  0  0  0  0  0  0  0
   -4.0684    7.7395    3.0865 O   0  0  0  0  0  0  0  0  0  0  0  0
   -8.1271    9.5165    3.2964 O   0  0  0  0  0  0  0  0  0  0  0  0
   -5.2399    8.0325    5.0290 O   0  0  0  0  0  0  0  0  0  0  0  0
  1  2  1  0  0  0  0
  1 10  1  0  0  0  0
  1 21  1  6  0  0  0
  2  3  1  0  0  0  0
  2  7  1  1  0  0  0
  3  4  1  0  0  0  0
  3  8  1  1  0  0  0
  4  5  1  0  0  0  0
  4  9  1  6  0  0  0
  5  6  1  6  0  0  0
  5 10  1  0  0  0  0
  6 11  1  0  0  0  0
 12 13  1  0  0  0  0
 12 17  1  0  0  0  0
 12 18  1  6  0  0  0
 13 14  1  0  0  0  0
 14 15  1  0  0  0  0
 14 19  1  6  0  0  0
 15 16  1  0  0  0  0
 15 30  1  1  0  0  0
 16 17  1  0  0  0  0
 16 20  1  1  0  0  0
 17 21  1  1  0  0  0
 22 23  1  0  0  0  0
 22 30  1  6  0  0  0
 22 32  1  0  0  0  0
 23 24  1  0  0  0  0
 23 28  1  6  0  0  0
 24 25  1  0  0  0  0
 25 26  1  0  0  0  0
 25 31  1  6  0  0  0
 26 27  1  1  0  0  0
 26 32  1  0  0  0  0
 27 29  1  0  0  0  0
M  CHG  5   8   1  18   1  19   1  28   1  29   1
M  END
>  <CHROM.1>
-142.14103665,-61.65704927,110.31273159,64.91455413,-80.22903363,-143.91814701
82.09268369,-57.76686203,93.82024198,-51.00317662,-62.29108939,-104.51383678
156.81139269,170.64841651,-130.48065026,-92.76526320,-2.63897355,5.49773727
4.12629624,0.07671722,-0.78879565,1.47020603

>  <Name>
1tob

>  <RI>
0

>  <Rbt.Current_Directory>
/home/itssahil/PROJECTS/Mol_Feturizer/New_Systems/rnas/1tob

>  <Rbt.Executable>
rbdock ($Id: //depot/dev/client3/rdock/2013.1/src/exe/rbdock.cxx#4 $)

>  <Rbt.Library>
libRbt.so (2013.1, Build901 2013/11/27)

>  <Rbt.Parameter_File>
/export/apps/rDock/src/rDock_2013.1_src/data/scripts/dock_solv.prm

>  <Rbt.Receptor>
prm/blind_docking_40.prm

>  <SCORE>
-2.5374

>  <SCORE.INTER>
-29.6967

>  <SCORE.INTER.CONST>
1

>  <SCORE.INTER.POLAR>
-6.17773

>  <SCORE.INTER.ROT>
6

>  <SCORE.INTER.SOLV>
22.5269

>  <SCORE.INTER.VDW>
-14.3143

>  <SCORE.INTER.norm>
-0.928022

>  <SCORE.INTRA>
12.4573

>  <SCORE.INTRA.DIHEDRAL>
12.3662

>  <SCORE.INTRA.DIHEDRAL.0>
22.9177

>  <SCORE.INTRA.POLAR>
0.262026

>  <SCORE.INTRA.POLAR.0>
-0.311208

>  <SCORE.INTRA.REPUL>
0.00966302

>  <SCORE.INTRA.REPUL.0>
0

>  <SCORE.INTRA.SOLV>
1.57341

>  <SCORE.INTRA.SOLV.lig_0>
-132.657

>  <SCORE.INTRA.VDW>
4.54835

>  <SCORE.INTRA.VDW.0>
-4.68867

>  <SCORE.INTRA.norm>
0.389292

>  <SCORE.RESTR>
14.702

>  <SCORE.RESTR.CAVITY>
14.702

>  <SCORE.RESTR.norm>
0.459437

>  <SCORE.SYSTEM>
0

>  <SCORE.SYSTEM.CONST>
0

>  <SCORE.SYSTEM.DIHEDRAL>
0

>  <SCORE.SYSTEM.SOLV>
0

>  <SCORE.SYSTEM.norm>
0

>  <SCORE.heavy>
32

>  <SCORE.norm>
-0.0792937

>  <RMSD>
4.178

$$$$
1tob
 OpenBabel11021811413D
libRbt.so/2013.1/901 2013/11/27
 32 34  0  0  0  0  0  0  0  0999 V2000
   -1.3848    2.8854    3.9529 C   0  0  2  0  0  0  0  0  0  0  0  0
   -1.5860    3.5784    5.2984 C   0  0  1  0  0  0  0  0  0  0  0  0
   -0.3002    4.2826    5.7097 C   0  0  2  0  0  0  0  0  0  0  0  0
    0.8449    3.2771    5.7238 C   0  0  1  0  0  0  0  0  0  0  0  0
    0.9555    2.5981    4.3615 C   0  0  1  0  0  0  0  0  0  0  0  0
    2.0300    1.5289    4.3349 C   0  0  0  0  0  0  0  0  0  0  0  0
   -2.6394    4.5259    5.1968 O   0  0  0  0  0  0  0  0  0  0  0  0
   -0.4568    4.9600    7.0151 N   0  3  0  0  0  0  0  0  0  0  0  0
    2.0622    3.9392    6.0399 O   0  0  0  0  0  0  0  0  0  0  0  0
   -0.2944    1.9581    4.0248 O   0  0  0  0  0  0  0  0  0  0  0  0
    2.9248    1.7193    3.2482 O   0  0  0  0  0  0  0  0  0  0  0  0
   -3.0374    2.7603    1.9813 C   0  0  2  0  0  0  0  0  0  0  0  0
   -4.1086    2.9277    0.9123 C   0  0  0  0  0  0  0  0  0  0  0  0
   -4.9141    4.2037    1.1582 C   0  0  1  0  0  0  0  0  0  0  0  0
   -3.9826    5.4134    1.1312 C   0  0  2  0  0  0  0  0  0  0  0  0
   -2.8941    5.2588    2.1944 C   0  0  1  0  0  0  0  0  0  0  0  0
   -2.1116    3.9669    1.9611 C   0  0  1  0  0  0  0  0  0  0  0  0
   -2.2331    1.5444    1.7299 N   0  3  0  0  0  0  0  0  0  0  0  0
   -6.0088    4.3105    0.1590 N   0  3  0  0  0  0  0  0  0  0  0  0
   -2.0130    6.3730    2.1475 O   0  0  0  0  0  0  0  0  0  0  0  0
   -1.1001    3.8189    2.9740 O   0  0  0  0  0  0  0  0  0  0  0  0
   -5.7044    6.5547    2.3546 C   0  0  1  0  0  0  0  0  0  0  0  0
   -6.8102    7.5755    2.0807 C   0  0  1  0  0  0  0  0  0  0  0  0
   -6.2495    8.9885    2.1371 C   0  0  0  0  0  0  0  0  0  0  0  0
   -5.5639    9.2022    3.4767 C   0  0  1  0  0  0  0  0  0  0  0  0
   -4.4916    8.1333    3.6841 C   0  0  1  0  0  0  0  0  0  0  0  0
   -3.8028    8.2494    5.0318 C   0  0  0  0  0  0  0  0  0  0  0  0
   -7.4861    7.2972    0.7914 N   0  3  0  0  0  0  0  0  0  0  0  0
   -4.7827    8.2501    6.1443 N   0  3  0  0  0  0  0  0  0  0  0  0
   -4.7312    6.6236    1.3666 O   0  0  0  0  0  0  0  0  0  0  0  0
   -4.9751   10.4939    3.5198 O   0  0  0  0  0  0  0  0  0  0  0  0
   -5.0822    6.8171    3.6185 O   0  0  0  0  0  0  0  0  0  0  0  0
  1  2  1  0  0  0  0
  1 10  1  0  0  0  0
  1 21  1  6  0  0  0
  2  3  1  0  0  0  0
  2  7  1  6  0  0  0
  3  4  1  0  0  0  0
  3  8  1  1  0  0  0
  4  5  1  0  0  0  0
  4  9  1  6  0  0  0
  5  6  1  1  0  0  0
  5 10  1  0  0  0  0
  6 11  1  0  0  0  0
 12 13  1  0  0  0  0
 12 17  1  0  0  0  0
 12 18  1  6  0  0  0
 13 14  1  0  0  0  0
 14 15  1  0  0  0  0
 14 19  1  6  0  0  0
 15 16  1  0  0  0  0
 15 30  1  1  0  0  0
 16 17  1  0  0  0  0
 16 20  1  6  0  0  0
 17 21  1  1  0  0  0
 22 23  1  0  0  0  0
 22 30  1  6  0  0  0
 22 32  1  0  0  0  0
 23 24  1  0  0  0  0
 23 28  1  6  0  0  0
 24 25  1  0  0  0  0
 25 26  1  0  0  0  0
 25 31  1  6  0  0  0
 26 27  1  1  0  0  0
 26 32  1  0  0  0  0
 27 29  1  0  0  0  0
M  CHG  5   8   1  18   1  19   1  28   1  29   1
M  END
>  <CHROM.1>
-113.20578116,40.55433764,-88.14473206,-64.16503759,-127.98727153,-70.99603998
34.18229360,-70.16852181,41.61225430,-50.28639354,-17.61981156,-153.41893924
-162.12055259,-52.17462665,54.10326168,-126.15933617,-2.79462317,5.13792683
3.30290459,0.29286580,0.64549199,-2.41854847

>  <Name>
1tob

>  <RI>
0

>  <Rbt.Current_Directory>
/home/itssahil/PROJECTS/Mol_Feturizer/New_Systems/rnas/1tob

>  <Rbt.Executable>
rbdock ($Id: //depot/dev/client3/rdock/2013.1/src/exe/rbdock.cxx#4 $)

>  <Rbt.Library>
libRbt.so (2013.1, Build901 2013/11/27)

>  <Rbt.Parameter_File>
/export/apps/rDock/src/rDock_2013.1_src/data/scripts/dock_solv.prm

>  <Rbt.Receptor>
prm/blind_docking_60.prm

>  <SCORE>
-26.0181

>  <SCORE.INTER>
-44.3456

>  <SCORE.INTER.CONST>
1

>  <SCORE.INTER.POLAR>
-8.39687

>  <SCORE.INTER.ROT>
6

>  <SCORE.INTER.SOLV>
33.2762

>  <SCORE.INTER.VDW>
-20.2662

>  <SCORE.INTER.norm>
-1.3858

>  <SCORE.INTRA>
12.2614

>  <SCORE.INTRA.DIHEDRAL>
10.0477

>  <SCORE.INTRA.DIHEDRAL.0>
22.9177

>  <SCORE.INTRA.POLAR>
-0.479504

>  <SCORE.INTRA.POLAR.0>
-0.311208

>  <SCORE.INTRA.REPUL>
0.0364267

>  <SCORE.INTRA.REPUL.0>
0

>  <SCORE.INTRA.SOLV>
1.48798

>  <SCORE.INTRA.SOLV.lig_0>
-132.657

>  <SCORE.INTRA.VDW>
7.9418

>  <SCORE.INTRA.VDW.0>
-4.68867

>  <SCORE.INTRA.norm>
0.38317

>  <SCORE.RESTR>
6.06608

>  <SCORE.RESTR.CAVITY>
6.06608

>  <SCORE.RESTR.norm>
0.189565

>  <SCORE.SYSTEM>
0

>  <SCORE.SYSTEM.CONST>
0

>  <SCORE.SYSTEM.DIHEDRAL>
0

>  <SCORE.SYSTEM.SOLV>
0

>  <SCORE.SYSTEM.norm>
0

>  <SCORE.heavy>
32

>  <SCORE.norm>
-0.813064

>  <RMSD>
4.179

$$$$
1tob
 OpenBabel11021811413D
libRbt.so/2013.1/901 2013/11/27
 32 34  0  0  0  0  0  0  0  0999 V2000
    0.0617    2.9336    5.3289 C   0  0  2  0  0  0  0  0  0  0  0  0
    1.2603    2.8205    4.3899 C   0  0  1  0  0  0  0  0  0  0  0  0
    1.7019    1.3664    4.2949 C   0  0  2  0  0  0  0  0  0  0  0  0
    1.9892    0.8327    5.6932 C   0  0  1  0  0  0  0  0  0  0  0  0
    0.7620    1.0185    6.5813 C   0  0  1  0  0  0  0  0  0  0  0  0
    1.0110    0.5760    8.0098 C   0  0  0  0  0  0  0  0  0  0  0  0
    0.9055    3.2984    3.1002 O   0  0  0  0  0  0  0  0  0  0  0  0
    2.8682    1.2203    3.3973 N   0  3  0  0  0  0  0  0  0  0  0  0
    2.3357   -0.5438    5.6206 O   0  0  0  0  0  0  0  0  0  0  0  0
    0.3884    2.4127    6.6235 O   0  0  0  0  0  0  0  0  0  0  0  0
   -0.2077    0.3272    8.6960 O   0  0  0  0  0  0  0  0  0  0  0  0
   -2.4869    1.7616    2.9652 C   0  0  2  0  0  0  0  0  0  0  0  0
   -3.1840    2.4030    1.7733 C   0  0  0  0  0  0  0  0  0  0  0  0
   -4.0910    3.5439    2.2350 C   0  0  1  0  0  0  0  0  0  0  0  0
   -3.2603    4.6001    2.9606 C   0  0  2  0  0  0  0  0  0  0  0  0
   -2.5456    3.9713    4.1577 C   0  0  1  0  0  0  0  0  0  0  0  0
   -1.6635    2.8126    3.6937 C   0  0  1  0  0  0  0  0  0  0  0  0
   -1.5825    0.6783    2.5213 N   0  3  0  0  0  0  0  0  0  0  0  0
   -4.8288    4.1047    1.0735 N   0  3  0  0  0  0  0  0  0  0  0  0
   -1.7517    4.9508    4.8137 O   0  0  0  0  0  0  0  0  0  0  0  0
   -1.0068    2.2150    4.8262 O   0  0  0  0  0  0  0  0  0  0  0  0
   -3.5489    6.9508    3.3537 C   0  0  1  0  0  0  0  0  0  0  0  0
   -3.8174    7.7002    4.6599 C   0  0  1  0  0  0  0  0  0  0  0  0
   -5.3126    7.9020    4.8544 C   0  0  0  0  0  0  0  0  0  0  0  0
   -5.8851    8.6090    3.6368 C   0  0  1  0  0  0  0  0  0  0  0  0
   -5.5567    7.8117    2.3751 C   0  0  1  0  0  0  0  0  0  0  0  0
   -6.0486    8.4904    1.1096 C   0  0  0  0  0  0  0  0  0  0  0  0
   -3.1964    7.0046    5.8119 N   0  3  0  0  0  0  0  0  0  0  0  0
   -7.5271    8.4474    1.0098 N   0  3  0  0  0  0  0  0  0  0  0  0
   -4.1065    5.6802    3.4052 O   0  0  0  0  0  0  0  0  0  0  0  0
   -7.2924    8.7446    3.7716 O   0  0  0  0  0  0  0  0  0  0  0  0
   -4.1273    7.6518    2.2459 O   0  0  0  0  0  0  0  0  0  0  0  0
  1  2  1  0  0  0  0
  1 10  1  0  0  0  0
  1 21  1  6  0  0  0
  2  3  1  0  0  0  0
  2  7  1  6  0  0  0
  3  4  1  0  0  0  0
  3  8  1  6  0  0  0
  4  5  1  0  0  0  0
  4  9  1  6  0  0  0
  5  6  1  1  0  0  0
  5 10  1  0  0  0  0
  6 11  1  0  0  0  0
 12 13  1  0  0  0  0
 12 17  1  0  0  0  0
 12 18  1  6  0  0  0
 13 14  1  0  0  0  0
 14 15  1  0  0  0  0
 14 19  1  6  0  0  0
 15 16  1  0  0  0  0
 15 30  1  1  0  0  0
 16 17  1  0  0  0  0
 16 20  1  6  0  0  0
 17 21  1  1  0  0  0
 22 23  1  0  0  0  0
 22 30  1  1  0  0  0
 22 32  1  0  0  0  0
 23 24  1  0  0  0  0
 23 28  1  1  0  0  0
 24 25  1  0  0  0  0
 25 26  1  0  0  0  0
 25 31  1  1  0  0  0
 26 27  1  6  0  0  0
 26 32  1  0  0  0  0
 27 29  1  0  0  0  0
M  CHG  5   8   1  18   1  19   1  28   1  29   1
M  END
>  <CHROM.1>
-73.55596407,-178.03674195,165.15087097,174.22076225,-160.32117922,67.11624799
49.86508187,-50.57806459,-143.99162032,161.59357421,161.56229154,-133.58636552
-98.79931182,63.88000150,-70.62410518,-72.28771746,-2.17581928,4.11855585
4.03316186,-0.03595458,-0.81701977,1.12129197

>  <Name>
1tob

>  <RI>
0

>  <Rbt.Current_Directory>
/home/itssahil/PROJECTS/Mol_Feturizer/New_Systems/rnas/1tob

>  <Rbt.Executable>
rbdock ($Id: //depot/dev/client3/rdock/2013.1/src/exe/rbdock.cxx#4 $)

>  <Rbt.Library>
libRbt.so (2013.1, Build901 2013/11/27)

>  <Rbt.Parameter_File>
/export/apps/rDock/src/rDock_2013.1_src/data/scripts/dock_solv.prm

>  <Rbt.Receptor>
prm/pocket_docking_7.prm

>  <SCORE>
-45.0385

>  <SCORE.INTER>
-40.3727

>  <SCORE.INTER.CONST>
1

>  <SCORE.INTER.POLAR>
-5.2336

>  <SCORE.INTER.ROT>
6

>  <SCORE.INTER.SOLV>
27.3014

>  <SCORE.INTER.VDW>
-26.1702

>  <SCORE.INTER.norm>
-1.26165

>  <SCORE.INTRA>
-4.66581

>  <SCORE.INTRA.DIHEDRAL>
-1.73361

>  <SCORE.INTRA.DIHEDRAL.0>
22.9177

>  <SCORE.INTRA.POLAR>
-1.6662

>  <SCORE.INTRA.POLAR.0>
-0.311208

>  <SCORE.INTRA.REPUL>
0

>  <SCORE.INTRA.REPUL.0>
0

>  <SCORE.INTRA.SOLV>
-0.128884

>  <SCORE.INTRA.SOLV.lig_0>
-132.657

>  <SCORE.INTRA.VDW>
1.93051

>  <SCORE.INTRA.VDW.0>
-4.68867

>  <SCORE.INTRA.norm>
-0.145807

>  <SCORE.RESTR>
0

>  <SCORE.RESTR.CAVITY>
0

>  <SCORE.RESTR.norm>
0

>  <SCORE.SYSTEM>
0

>  <SCORE.SYSTEM.CONST>
0

>  <SCORE.SYSTEM.DIHEDRAL>
0

>  <SCORE.SYSTEM.SOLV>
0

>  <SCORE.SYSTEM.norm>
0

>  <SCORE.heavy>
32

>  <SCORE.norm>
-1.40745

>  <RMSD>
4.205

$$$$
1tob
 OpenBabel11021811413D
libRbt.so/2013.1/901 2013/11/27
 32 34  0  0  0  0  0  0  0  0999 V2000
   -1.9551    4.7099    3.7353 C   0  0  2  0  0  0  0  0  0  0  0  0
   -1.2777    3.5880    2.9520 C   0  0  1  0  0  0  0  0  0  0  0  0
   -1.1682    2.3461    3.8260 C   0  0  2  0  0  0  0  0  0  0  0  0
   -0.4356    2.6979    5.1153 C   0  0  1  0  0  0  0  0  0  0  0  0
   -1.1468    3.8513    5.8175 C   0  0  1  0  0  0  0  0  0  0  0  0
   -0.4208    4.2997    7.0706 C   0  0  0  0  0  0  0  0  0  0  0  0
   -2.0365    3.2896    1.7889 O   0  0  0  0  0  0  0  0  0  0  0  0
   -0.5087    1.2391    3.1002 N   0  3  0  0  0  0  0  0  0  0  0  0
   -0.3891    1.5613    5.9673 O   0  0  0  0  0  0  0  0  0  0  0  0
   -1.2269    4.9928    4.9368 O   0  0  0  0  0  0  0  0  0  0  0  0
   -0.3957    3.2726    8.0516 O   0  0  0  0  0  0  0  0  0  0  0  0
   -3.7007    6.7151    4.1671 C   0  0  2  0  0  0  0  0  0  0  0  0
   -4.7699    7.7642    3.8941 C   0  0  0  0  0  0  0  0  0  0  0  0
   -5.2003    7.7195    2.4278 C   0  0  1  0  0  0  0  0  0  0  0  0
   -5.7561    6.3363    2.0966 C   0  0  2  0  0  0  0  0  0  0  0  0
   -4.6972    5.2677    2.3726 C   0  0  1  0  0  0  0  0  0  0  0  0
   -4.2492    5.3366    3.8322 C   0  0  1  0  0  0  0  0  0  0  0  0
   -3.3038    6.7314    5.5921 N   0  3  0  0  0  0  0  0  0  0  0  0
   -6.1806    8.8027    2.1557 N   0  3  0  0  0  0  0  0  0  0  0  0
   -5.2273    3.9797    2.0898 O   0  0  0  0  0  0  0  0  0  0  0  0
   -3.2414    4.3401    4.0812 O   0  0  0  0  0  0  0  0  0  0  0  0
   -7.3309    5.5795    0.4501 C   0  0  1  0  0  0  0  0  0  0  0  0
   -7.2060    4.8190   -0.8712 C   0  0  1  0  0  0  0  0  0  0  0  0
   -7.0277    5.7934   -2.0258 C   0  0  0  0  0  0  0  0  0  0  0  0
   -8.1752    6.7902   -2.0217 C   0  0  1  0  0  0  0  0  0  0  0  0
   -8.2461    7.4899   -0.6648 C   0  0  1  0  0  0  0  0  0  0  0  0
   -9.4089    8.4608   -0.5675 C   0  0  0  0  0  0  0  0  0  0  0  0
   -6.1111    3.8219   -0.8119 N   0  3  0  0  0  0  0  0  0  0  0  0
  -10.7046    7.7479   -0.4644 N   0  3  0  0  0  0  0  0  0  0  0  0
   -6.1617    6.2806    0.7135 O   0  0  0  0  0  0  0  0  0  0  0  0
   -7.9883    7.7494   -3.0522 O   0  0  0  0  0  0  0  0  0  0  0  0
   -8.4134    6.5164    0.3886 O   0  0  0  0  0  0  0  0  0  0  0  0
  1  2  1  0  0  0  0
  1 10  1  0  0  0  0
  1 21  1  1  0  0  0
  2  3  1  0  0  0  0
  2  7  1  6  0  0  0
  3  4  1  0  0  0  0
  3  8  1  6  0  0  0
  4  5  1  0  0  0  0
  4  9  1  1  0  0  0
  5  6  1  1  0  0  0
  5 10  1  0  0  0  0
  6 11  1  0  0  0  0
 12 13  1  0  0  0  0
 12 17  1  0  0  0  0
 12 18  1  1  0  0  0
 13 14  1  0  0  0  0
 14 15  1  0  0  0  0
 14 19  1  1  0  0  0
 15 16  1  0  0  0  0
 15 30  1  6  0  0  0
 16 17  1  0  0  0  0
 16 20  1  1  0  0  0
 17 21  1  6  0  0  0
 22 23  1  0  0  0  0
 22 30  1  6  0  0  0
 22 32  1  0  0  0  0
 23 24  1  0  0  0  0
 23 28  1  1  0  0  0
 24 25  1  0  0  0  0
 25 26  1  0  0  0  0
 25 31  1  6  0  0  0
 26 27  1  6  0  0  0
 26 32  1  0  0  0  0
 27 29  1  0  0  0  0
M  CHG  5   8   1  18   1  19   1  28   1  29   1
M  END
>  <CHROM.1>
-133.45057075,174.12004507,58.69169682,71.67808866,-64.10246188,-175.45594522
69.28320027,62.61267454,-140.78846579,-64.29243464,-38.73037019,-142.92415281
159.47395315,176.81230555,72.44262853,45.31244858,-4.49822863,5.28043520
2.38801494,0.21674438,-0.75782449,0.85199116

>  <Name>
1tob

>  <RI>
0

>  <Rbt.Current_Directory>
/home/itssahil/PROJECTS/Mol_Feturizer/New_Systems/rnas/1tob

>  <Rbt.Executable>
rbdock ($Id: //depot/dev/client3/rdock/2013.1/src/exe/rbdock.cxx#4 $)

>  <Rbt.Library>
libRbt.so (2013.1, Build901 2013/11/27)

>  <Rbt.Parameter_File>
/export/apps/rDock/src/rDock_2013.1_src/data/scripts/dock_solv.prm

>  <Rbt.Receptor>
prm/pocket_docking_7.prm

>  <SCORE>
-39.1029

>  <SCORE.INTER>
-36.9133

>  <SCORE.INTER.CONST>
1

>  <SCORE.INTER.POLAR>
-4.90971

>  <SCORE.INTER.ROT>
6

>  <SCORE.INTER.SOLV>
25.9635

>  <SCORE.INTER.VDW>
-24.4977

>  <SCORE.INTER.norm>
-1.15354

>  <SCORE.INTRA>
-2.18961

>  <SCORE.INTRA.DIHEDRAL>
-0.843066

>  <SCORE.INTRA.DIHEDRAL.0>
22.9177

>  <SCORE.INTRA.POLAR>
-1.17935

>  <SCORE.INTRA.POLAR.0>
-0.311208

>  <SCORE.INTRA.REPUL>
0

>  <SCORE.INTRA.REPUL.0>
0

>  <SCORE.INTRA.SOLV>
1.21684

>  <SCORE.INTRA.SOLV.lig_0>
-132.657

>  <SCORE.INTRA.VDW>
1.6333

>  <SCORE.INTRA.VDW.0>
-4.68867

>  <SCORE.INTRA.norm>
-0.0684253

>  <SCORE.RESTR>
0

>  <SCORE.RESTR.CAVITY>
0

>  <SCORE.RESTR.norm>
0

>  <SCORE.SYSTEM>
0

>  <SCORE.SYSTEM.CONST>
0

>  <SCORE.SYSTEM.DIHEDRAL>
0

>  <SCORE.SYSTEM.SOLV>
0

>  <SCORE.SYSTEM.norm>
0

>  <SCORE.heavy>
32

>  <SCORE.norm>
-1.22197

>  <RMSD>
4.256

$$$$
1tob
 OpenBabel11021811413D
libRbt.so/2013.1/901 2013/11/27
 32 34  0  0  0  0  0  0  0  0999 V2000
   -3.6582    5.1556    1.4529 C   0  0  2  0  0  0  0  0  0  0  0  0
   -3.1496    3.7521    1.1325 C   0  0  1  0  0  0  0  0  0  0  0  0
   -3.0925    2.9237    2.4087 C   0  0  2  0  0  0  0  0  0  0  0  0
   -2.2360    3.6453    3.4423 C   0  0  1  0  0  0  0  0  0  0  0  0
   -2.7812    5.0513    3.6769 C   0  0  1  0  0  0  0  0  0  0  0  0
   -1.9248    5.8491    4.6405 C   0  0  0  0  0  0  0  0  0  0  0  0
   -4.0177    3.1298    0.1961 O   0  0  0  0  0  0  0  0  0  0  0  0
   -2.5959    1.5574    2.1364 N   0  3  0  0  0  0  0  0  0  0  0  0
   -2.2332    2.9128    4.6603 O   0  0  0  0  0  0  0  0  0  0  0  0
   -2.8190    5.7815    2.4317 O   0  0  0  0  0  0  0  0  0  0  0  0
   -2.1801    5.4810    5.9886 O   0  0  0  0  0  0  0  0  0  0  0  0
   -5.1359    7.2767    2.9827 C   0  0  2  0  0  0  0  0  0  0  0  0
   -5.9077    8.5881    2.9314 C   0  0  0  0  0  0  0  0  0  0  0  0
   -5.7749    9.2328    1.5515 C   0  0  1  0  0  0  0  0  0  0  0  0
   -6.3213    8.2851    0.4861 C   0  0  2  0  0  0  0  0  0  0  0  0
   -5.5623    6.9579    0.5282 C   0  0  1  0  0  0  0  0  0  0  0  0
   -5.6738    6.3327    1.9183 C   0  0  1  0  0  0  0  0  0  0  0  0
   -5.2879    6.6318    4.3054 N   0  3  0  0  0  0  0  0  0  0  0  0
   -6.4610   10.5508    1.5413 N   0  3  0  0  0  0  0  0  0  0  0  0
   -6.0921    6.0687   -0.4458 O   0  0  0  0  0  0  0  0  0  0  0  0
   -4.9441    5.0930    1.9562 O   0  0  0  0  0  0  0  0  0  0  0  0
   -6.8063    8.1945   -1.8635 C   0  0  1  0  0  0  0  0  0  0  0  0
   -6.3895    8.7938   -3.2077 C   0  0  1  0  0  0  0  0  0  0  0  0
   -6.8671   10.2343   -3.3138 C   0  0  0  0  0  0  0  0  0  0  0  0
   -8.3687   10.2823   -3.0833 C   0  0  1  0  0  0  0  0  0  0  0  0
   -8.7044    9.6473   -1.7344 C   0  0  1  0  0  0  0  0  0  0  0  0
  -10.1972    9.6073   -1.4620 C   0  0  0  0  0  0  0  0  0  0  0  0
   -4.9265    8.6772   -3.4136 N   0  3  0  0  0  0  0  0  0  0  0  0
  -10.7537   10.9699   -1.2851 N   0  3  0  0  0  0  0  0  0  0  0  0
   -6.1971    8.8810   -0.8216 O   0  0  0  0  0  0  0  0  0  0  0  0
   -8.8210   11.6283   -3.1111 O   0  0  0  0  0  0  0  0  0  0  0  0
   -8.2262    8.2853   -1.6931 O   0  0  0  0  0  0  0  0  0  0  0  0
  1  2  1  0  0  0  0
  1 10  1  0  0  0  0
  1 21  1  1  0  0  0
  2  3  1  0  0  0  0
  2  7  1  6  0  0  0
  3  4  1  0  0  0  0
  3  8  1  6  0  0  0
  4  5  1  0  0  0  0
  4  9  1  1  0  0  0
  5  6  1  1  0  0  0
  5 10  1  0  0  0  0
  6 11  1  0  0  0  0
 12 13  1  0  0  0  0
 12 17  1  0  0  0  0
 12 18  1  1  0  0  0
 13 14  1  0  0  0  0
 14 15  1  0  0  0  0
 14 19  1  1  0  0  0
 15 16  1  0  0  0  0
 15 30  1  6  0  0  0
 16 17  1  0  0  0  0
 16 20  1  6  0  0  0
 17 21  1  6  0  0  0
 22 23  1  0  0  0  0
 22 30  1  1  0  0  0
 22 32  1  0  0  0  0
 23 24  1  0  0  0  0
 23 28  1  1  0  0  0
 24 25  1  0  0  0  0
 25 26  1  0  0  0  0
 25 31  1  1  0  0  0
 26 27  1  6  0  0  0
 26 32  1  0  0  0  0
 27 29  1  0  0  0  0
M  CHG  5   8   1  18   1  19   1  28   1  29   1
M  END
>  <CHROM.1>
-162.12161235,62.11072489,-14.49112586,-170.36153463,-78.76629568,-92.09705785
27.34008425,65.17419174,-172.33911924,153.16708889,-73.32061661,-169.93658400
-164.53306242,64.17606255,-67.01560245,167.00122920,-5.43937560,7.03789036
0.79336621,-0.30415370,0.95194656,-1.95405647

>  <Name>
1tob

>  <RI>
0

>  <Rbt.Current_Directory>
/home/itssahil/PROJECTS/Mol_Feturizer/New_Systems/rnas/1tob

>  <Rbt.Executable>
rbdock ($Id: //depot/dev/client3/rdock/2013.1/src/exe/rbdock.cxx#4 $)

>  <Rbt.Library>
libRbt.so (2013.1, Build901 2013/11/27)

>  <Rbt.Parameter_File>
/export/apps/rDock/src/rDock_2013.1_src/data/scripts/dock_solv.prm

>  <Rbt.Receptor>
prm/pocket_docking_7.prm

>  <SCORE>
-48.5198

>  <SCORE.INTER>
-44.9733

>  <SCORE.INTER.CONST>
1

>  <SCORE.INTER.POLAR>
-8.32735

>  <SCORE.INTER.ROT>
6

>  <SCORE.INTER.SOLV>
19.9784

>  <SCORE.INTER.VDW>
-16.4838

>  <SCORE.INTER.norm>
-1.40542

>  <SCORE.INTRA>
-3.54647

>  <SCORE.INTRA.DIHEDRAL>
-4.92704

>  <SCORE.INTRA.DIHEDRAL.0>
22.9177

>  <SCORE.INTRA.POLAR>
-1.08773

>  <SCORE.INTRA.POLAR.0>
-0.311208

>  <SCORE.INTRA.REPUL>
0

>  <SCORE.INTRA.REPUL.0>
0

>  <SCORE.INTRA.SOLV>
-1.56671

>  <SCORE.INTRA.SOLV.lig_0>
-132.657

>  <SCORE.INTRA.VDW>
3.39868

>  <SCORE.INTRA.VDW.0>
-4.68867

>  <SCORE.INTRA.norm>
-0.110827

>  <SCORE.RESTR>
0

>  <SCORE.RESTR.CAVITY>
0

>  <SCORE.RESTR.norm>
0

>  <SCORE.SYSTEM>
0

>  <SCORE.SYSTEM.CONST>
0

>  <SCORE.SYSTEM.DIHEDRAL>
0

>  <SCORE.SYSTEM.SOLV>
0

>  <SCORE.SYSTEM.norm>
0

>  <SCORE.heavy>
32

>  <SCORE.norm>
-1.51624

>  <RMSD>
4.282

$$$$
1tob
 OpenBabel11021811413D
libRbt.so/2013.1/901 2013/11/27
 32 34  0  0  0  0  0  0  0  0999 V2000
    0.1570    3.4544    4.7240 C   0  0  2  0  0  0  0  0  0  0  0  0
    1.3683    2.9993    3.9136 C   0  0  1  0  0  0  0  0  0  0  0  0
    1.6986    1.5524    4.2538 C   0  0  2  0  0  0  0  0  0  0  0  0
    1.9058    1.4210    5.7579 C   0  0  1  0  0  0  0  0  0  0  0  0
    0.6730    1.9332    6.4977 C   0  0  1  0  0  0  0  0  0  0  0  0
    0.8483    1.9002    8.0033 C   0  0  0  0  0  0  0  0  0  0  0  0
    1.0867    3.1126    2.5260 O   0  0  0  0  0  0  0  0  0  0  0  0
    2.8740    1.0796    3.4908 N   0  3  0  0  0  0  0  0  0  0  0  0
    2.1467    0.0610    6.0931 O   0  0  0  0  0  0  0  0  0  0  0  0
    0.4073    3.3033    6.1271 O   0  0  0  0  0  0  0  0  0  0  0  0
   -0.3616    2.2239    8.6738 O   0  0  0  0  0  0  0  0  0  0  0  0
   -2.5978    2.0877    2.7280 C   0  0  2  0  0  0  0  0  0  0  0  0
   -3.4234    2.6315    1.5701 C   0  0  0  0  0  0  0  0  0  0  0  0
   -4.3037    3.7901    2.0391 C   0  0  1  0  0  0  0  0  0  0  0  0
   -3.4274    4.9074    2.6009 C   0  0  2  0  0  0  0  0  0  0  0  0
   -2.5840    4.3769    3.7613 C   0  0  1  0  0  0  0  0  0  0  0  0
   -1.7283    3.2000    3.2938 C   0  0  1  0  0  0  0  0  0  0  0  0
   -1.7195    0.9878    2.2729 N   0  3  0  0  0  0  0  0  0  0  0  0
   -5.1651    4.2551    0.9211 N   0  3  0  0  0  0  0  0  0  0  0  0
   -1.7496    5.4122    4.2632 O   0  0  0  0  0  0  0  0  0  0  0  0
   -0.9498    2.6950    4.3937 O   0  0  0  0  0  0  0  0  0  0  0  0
   -3.5867    7.2044    3.2809 C   0  0  1  0  0  0  0  0  0  0  0  0
   -4.5751    8.2715    3.7545 C   0  0  1  0  0  0  0  0  0  0  0  0
   -5.6035    8.5562    2.6702 C   0  0  0  0  0  0  0  0  0  0  0  0
   -4.8850    8.9411    1.3872 C   0  0  1  0  0  0  0  0  0  0  0  0
   -3.9036    7.8376    0.9943 C   0  0  1  0  0  0  0  0  0  0  0  0
   -3.1053    8.1807   -0.2504 C   0  0  0  0  0  0  0  0  0  0  0  0
   -5.2114    7.8794    5.0343 N   0  3  0  0  0  0  0  0  0  0  0  0
   -3.8756    7.8972   -1.4849 N   0  3  0  0  0  0  0  0  0  0  0  0
   -4.2477    6.0051    3.0511 O   0  0  0  0  0  0  0  0  0  0  0  0
   -5.8284    9.1442    0.3452 O   0  0  0  0  0  0  0  0  0  0  0  0
   -2.9561    7.6119    2.0604 O   0  0  0  0  0  0  0  0  0  0  0  0
  1  2  1  0  0  0  0
  1 10  1  0  0  0  0
  1 21  1  6  0  0  0
  2  3  1  0  0  0  0
  2  7  1  6  0  0  0
  3  4  1  0  0  0  0
  3  8  1  6  0  0  0
  4  5  1  0  0  0  0
  4  9  1  6  0  0  0
  5  6  1  1  0  0  0
  5 10  1  0  0  0  0
  6 11  1  0  0  0  0
 12 13  1  0  0  0  0
 12 17  1  0  0  0  0
 12 18  1  6  0  0  0
 13 14  1  0  0  0  0
 14 15  1  0  0  0  0
 14 19  1  6  0  0  0
 15 16  1  0  0  0  0
 15 30  1  1  0  0  0
 16 17  1  0  0  0  0
 16 20  1  6  0  0  0
 17 21  1  1  0  0  0
 22 23  1  0  0  0  0
 22 30  1  6  0  0  0
 22 32  1  0  0  0  0
 23 24  1  0  0  0  0
 23 28  1  1  0  0  0
 24 25  1  0  0  0  0
 25 26  1  0  0  0  0
 25 31  1  6  0  0  0
 26 27  1  6  0  0  0
 26 32  1  0  0  0  0
 27 29  1  0  0  0  0
M  CHG  5   8   1  18   1  19   1  28   1  29   1
M  END
>  <CHROM.1>
-88.80728946,-68.08632928,-179.69056509,-176.69290929,-172.84223450,64.25206354
-70.36727035,-176.85072290,-164.96245694,-52.61157418,160.82992837,-179.85718639
-79.19625541,-54.74740908,-81.79070384,-54.85614094,-1.95237471,4.51013222
3.38777399,0.31097161,-0.87105176,1.37610698

>  <Name>
1tob

>  <RI>
0

>  <Rbt.Current_Directory>
/home/itssahil/PROJECTS/Mol_Feturizer/New_Systems/rnas/1tob

>  <Rbt.Executable>
rbdock ($Id: //depot/dev/client3/rdock/2013.1/src/exe/rbdock.cxx#4 $)

>  <Rbt.Library>
libRbt.so (2013.1, Build901 2013/11/27)

>  <Rbt.Parameter_File>
/export/apps/rDock/src/rDock_2013.1_src/data/scripts/dock_solv.prm

>  <Rbt.Receptor>
prm/pocket_docking_8.prm

>  <SCORE>
-46.8872

>  <SCORE.INTER>
-40.0848

>  <SCORE.INTER.CONST>
1

>  <SCORE.INTER.POLAR>
-5.52903

>  <SCORE.INTER.ROT>
6

>  <SCORE.INTER.SOLV>
26.0778

>  <SCORE.INTER.VDW>
-24.5857

>  <SCORE.INTER.norm>
-1.25265

>  <SCORE.INTRA>
-6.80239

>  <SCORE.INTRA.DIHEDRAL>
-13.002

>  <SCORE.INTRA.DIHEDRAL.0>
22.9177

>  <SCORE.INTRA.POLAR>
0.0856852

>  <SCORE.INTRA.POLAR.0>
-0.311208

>  <SCORE.INTRA.REPUL>
0

>  <SCORE.INTRA.REPUL.0>
0

>  <SCORE.INTRA.SOLV>
-3.80087

>  <SCORE.INTRA.SOLV.lig_0>
-132.657

>  <SCORE.INTRA.VDW>
1.3077

>  <SCORE.INTRA.VDW.0>
-4.68867

>  <SCORE.INTRA.norm>
-0.212575

>  <SCORE.RESTR>
0

>  <SCORE.RESTR.CAVITY>
0

>  <SCORE.RESTR.norm>
0

>  <SCORE.SYSTEM>
0

>  <SCORE.SYSTEM.CONST>
0

>  <SCORE.SYSTEM.DIHEDRAL>
0

>  <SCORE.SYSTEM.SOLV>
0

>  <SCORE.SYSTEM.norm>
0

>  <SCORE.heavy>
32

>  <SCORE.norm>
-1.46523

>  <RMSD>
4.283

$$$$
1tob
 OpenBabel11021811413D
libRbt.so/2013.1/901 2013/11/27
 32 34  0  0  0  0  0  0  0  0999 V2000
   -5.2236    5.5074    2.9969 C   0  0  2  0  0  0  0  0  0  0  0  0
   -5.2635    6.4038    4.2322 C   0  0  1  0  0  0  0  0  0  0  0  0
   -3.8627    6.9150    4.5402 C   0  0  2  0  0  0  0  0  0  0  0  0
   -2.9149    5.7316    4.6943 C   0  0  1  0  0  0  0  0  0  0  0  0
   -2.9622    4.8628    3.4404 C   0  0  1  0  0  0  0  0  0  0  0  0
   -2.0962    3.6245    3.5632 C   0  0  0  0  0  0  0  0  0  0  0  0
   -6.1336    7.5022    3.9996 O   0  0  0  0  0  0  0  0  0  0  0  0
   -3.8625    7.7826    5.7380 N   0  3  0  0  0  0  0  0  0  0  0  0
   -1.5915    6.2010    4.9139 O   0  0  0  0  0  0  0  0  0  0  0  0
   -4.3143    4.4180    3.1974 O   0  0  0  0  0  0  0  0  0  0  0  0
   -2.8371    2.5208    4.0644 O   0  0  0  0  0  0  0  0  0  0  0  0
   -6.2753    4.8407    0.5710 C   0  0  2  0  0  0  0  0  0  0  0  0
   -7.2486    4.8597   -0.5997 C   0  0  0  0  0  0  0  0  0  0  0  0
   -8.3925    5.8370   -0.3279 C   0  0  1  0  0  0  0  0  0  0  0  0
   -7.8305    7.2412   -0.1176 C   0  0  2  0  0  0  0  0  0  0  0  0
   -6.8435    7.2397    1.0508 C   0  0  1  0  0  0  0  0  0  0  0  0
   -5.7185    6.2395    0.7869 C   0  0  1  0  0  0  0  0  0  0  0  0
   -5.1486    3.9213    0.2995 N   0  3  0  0  0  0  0  0  0  0  0  0
   -9.3781    5.7829   -1.4386 N   0  3  0  0  0  0  0  0  0  0  0  0
   -6.3017    8.5420    1.2256 O   0  0  0  0  0  0  0  0  0  0  0  0
   -4.8025    6.2308    1.8968 O   0  0  0  0  0  0  0  0  0  0  0  0
   -9.5878    8.6382   -0.9686 C   0  0  1  0  0  0  0  0  0  0  0  0
   -9.5908   10.1677   -0.9865 C   0  0  1  0  0  0  0  0  0  0  0  0
  -10.3337   10.7079    0.2262 C   0  0  0  0  0  0  0  0  0  0  0  0
  -11.7318   10.1127    0.2631 C   0  0  1  0  0  0  0  0  0  0  0  0
  -11.6435    8.5870    0.2568 C   0  0  1  0  0  0  0  0  0  0  0  0
  -13.0079    7.9222    0.2336 C   0  0  0  0  0  0  0  0  0  0  0  0
   -8.2119   10.7033   -1.0770 N   0  3  0  0  0  0  0  0  0  0  0  0
  -13.7746    8.2125    1.4687 N   0  3  0  0  0  0  0  0  0  0  0  0
   -8.9008    8.1719    0.1444 O   0  0  0  0  0  0  0  0  0  0  0  0
  -12.4162   10.5535    1.4268 O   0  0  0  0  0  0  0  0  0  0  0  0
  -10.9284    8.1351   -0.9136 O   0  0  0  0  0  0  0  0  0  0  0  0
  1  2  1  0  0  0  0
  1 10  1  0  0  0  0
  1 21  1  6  0  0  0
  2  3  1  0  0  0  0
  2  7  1  6  0  0  0
  3  4  1  0  0  0  0
  3  8  1  1  0  0  0
  4  5  1  0  0  0  0
  4  9  1  6  0  0  0
  5  6  1  1  0  0  0
  5 10  1  0  0  0  0
  6 11  1  0  0  0  0
 12 13  1  0  0  0  0
 12 17  1  0  0  0  0
 12 18  1  6  0  0  0
 13 14  1  0  0  0  0
 14 15  1  0  0  0  0
 14 19  1  6  0  0  0
 15 16  1  0  0  0  0
 15 30  1  1  0  0  0
 16 17  1  0  0  0  0
 16 20  1  6  0  0  0
 17 21  1  1  0  0  0
 22 23  1  0  0  0  0
 22 30  1  1  0  0  0
 22 32  1  0  0  0  0
 23 24  1  0  0  0  0
 23 28  1  1  0  0  0
 24 25  1  0  0  0  0
 25 26  1  0  0  0  0
 25 31  1  1  0  0  0
 26 27  1  6  0  0  0
 26 32  1  0  0  0  0
 27 29  1  0  0  0  0
M  CHG  5   8   1  18   1  19   1  28   1  29   1
M  END
>  <CHROM.1>
-122.57882022,179.02795519,40.42894993,74.43068535,91.95757777,63.36781050
57.94040508,-61.90150555,-80.79170332,175.21005572,-43.15617297,-125.76415237
-48.26174712,-47.46669354,-64.47055182,-66.43733183,-7.15237215,7.01168625
1.56112864,0.04910535,0.60662739,-2.43709697

>  <Name>
1tob

>  <RI>
0

>  <Rbt.Current_Directory>
/home/itssahil/PROJECTS/Mol_Feturizer/New_Systems/rnas/1tob

>  <Rbt.Executable>
rbdock ($Id: //depot/dev/client3/rdock/2013.1/src/exe/rbdock.cxx#4 $)

>  <Rbt.Library>
libRbt.so (2013.1, Build901 2013/11/27)

>  <Rbt.Parameter_File>
/export/apps/rDock/src/rDock_2013.1_src/data/scripts/dock_solv.prm

>  <Rbt.Receptor>
prm/pocket_docking_8.prm

>  <SCORE>
-37.0065

>  <SCORE.INTER>
-32.7446

>  <SCORE.INTER.CONST>
1

>  <SCORE.INTER.POLAR>
-5.70802

>  <SCORE.INTER.ROT>
6

>  <SCORE.INTER.SOLV>
24.3273

>  <SCORE.INTER.VDW>
-18.5121

>  <SCORE.INTER.norm>
-1.02327

>  <SCORE.INTRA>
-4.26189

>  <SCORE.INTRA.DIHEDRAL>
0.790233

>  <SCORE.INTRA.DIHEDRAL.0>
22.9177

>  <SCORE.INTRA.POLAR>
-2.35951

>  <SCORE.INTRA.POLAR.0>
-0.311208

>  <SCORE.INTRA.REPUL>
0

>  <SCORE.INTRA.REPUL.0>
0

>  <SCORE.INTRA.SOLV>
1.38183

>  <SCORE.INTRA.SOLV.lig_0>
-132.657

>  <SCORE.INTRA.VDW>
2.67442

>  <SCORE.INTRA.VDW.0>
-4.68867

>  <SCORE.INTRA.norm>
-0.133184

>  <SCORE.RESTR>
0

>  <SCORE.RESTR.CAVITY>
0

>  <SCORE.RESTR.norm>
0

>  <SCORE.SYSTEM>
0

>  <SCORE.SYSTEM.CONST>
0

>  <SCORE.SYSTEM.DIHEDRAL>
0

>  <SCORE.SYSTEM.SOLV>
0

>  <SCORE.SYSTEM.norm>
0

>  <SCORE.heavy>
32

>  <SCORE.norm>
-1.15645

>  <RMSD>
4.300

$$$$
1tob
 OpenBabel11021811413D
libRbt.so/2013.1/901 2013/11/27
 32 34  0  0  0  0  0  0  0  0999 V2000
   -1.2062    3.1920    3.8800 C   0  0  2  0  0  0  0  0  0  0  0  0
   -0.7707    3.7042    5.2508 C   0  0  1  0  0  0  0  0  0  0  0  0
    0.7458    3.8344    5.2914 C   0  0  2  0  0  0  0  0  0  0  0  0
    1.3783    2.4963    4.9279 C   0  0  1  0  0  0  0  0  0  0  0  0
    0.8635    2.0319    3.5683 C   0  0  1  0  0  0  0  0  0  0  0  0
    1.3984    0.6663    3.1843 C   0  0  0  0  0  0  0  0  0  0  0  0
   -1.3667    4.9689    5.5014 O   0  0  0  0  0  0  0  0  0  0  0  0
    1.2045    4.3222    6.6101 N   0  3  0  0  0  0  0  0  0  0  0  0
    2.7933    2.6262    4.8961 O   0  0  0  0  0  0  0  0  0  0  0  0
   -0.5772    1.9370    3.5908 O   0  0  0  0  0  0  0  0  0  0  0  0
    0.4502   -0.3568    3.4533 O   0  0  0  0  0  0  0  0  0  0  0  0
   -2.4896    3.0352    1.4698 C   0  0  2  0  0  0  0  0  0  0  0  0
   -3.5625    3.3116    0.4255 C   0  0  0  0  0  0  0  0  0  0  0  0
   -4.6365    4.2387    0.9951 C   0  0  1  0  0  0  0  0  0  0  0  0
   -4.0011    5.5588    1.4256 C   0  0  2  0  0  0  0  0  0  0  0  0
   -2.9140    5.2997    2.4698 C   0  0  1  0  0  0  0  0  0  0  0  0
   -1.8590    4.3490    1.9052 C   0  0  1  0  0  0  0  0  0  0  0  0
   -1.4304    2.1651    0.9136 N   0  3  0  0  0  0  0  0  0  0  0  0
   -5.7193    4.4317   -0.0041 N   0  3  0  0  0  0  0  0  0  0  0  0
   -2.3060    6.5277    2.8472 O   0  0  0  0  0  0  0  0  0  0  0  0
   -0.8481    4.0963    2.8977 O   0  0  0  0  0  0  0  0  0  0  0  0
   -5.7214    5.9519    3.0533 C   0  0  1  0  0  0  0  0  0  0  0  0
   -7.1378    6.5297    3.0556 C   0  0  1  0  0  0  0  0  0  0  0  0
   -7.0907    8.0406    3.2263 C   0  0  0  0  0  0  0  0  0  0  0  0
   -6.3105    8.3783    4.4863 C   0  0  1  0  0  0  0  0  0  0  0  0
   -4.9197    7.7488    4.4165 C   0  0  1  0  0  0  0  0  0  0  0  0
   -4.1021    7.9961    5.6713 C   0  0  0  0  0  0  0  0  0  0  0  0
   -7.8788    6.1315    1.8354 N   0  3  0  0  0  0  0  0  0  0  0  0
   -3.1297    6.9029    5.9102 N   0  3  0  0  0  0  0  0  0  0  0  0
   -5.0046    6.4407    1.9693 O   0  0  0  0  0  0  0  0  0  0  0  0
   -6.1983    9.7872    4.6246 O   0  0  0  0  0  0  0  0  0  0  0  0
   -5.0289    6.3181    4.2531 O   0  0  0  0  0  0  0  0  0  0  0  0
  1  2  1  0  0  0  0
  1 10  1  0  0  0  0
  1 21  1  6  0  0  0
  2  3  1  0  0  0  0
  2  7  1  6  0  0  0
  3  4  1  0  0  0  0
  3  8  1  1  0  0  0
  4  5  1  0  0  0  0
  4  9  1  6  0  0  0
  5  6  1  1  0  0  0
  5 10  1  0  0  0  0
  6 11  1  0  0  0  0
 12 13  1  0  0  0  0
 12 17  1  0  0  0  0
 12 18  1  6  0  0  0
 13 14  1  0  0  0  0
 14 15  1  0  0  0  0
 14 19  1  6  0  0  0
 15 16  1  0  0  0  0
 15 30  1  1  0  0  0
 16 17  1  0  0  0  0
 16 20  1  6  0  0  0
 17 21  1  1  0  0  0
 22 23  1  0  0  0  0
 22 30  1  6  0  0  0
 22 32  1  0  0  0  0
 23 24  1  0  0  0  0
 23 28  1  6  0  0  0
 24 25  1  0  0  0  0
 25 26  1  0  0  0  0
 25 31  1  6  0  0  0
 26 27  1  1  0  0  0
 26 32  1  0  0  0  0
 27 29  1  0  0  0  0
M  CHG  5   8   1  18   1  19   1  28   1  29   1
M  END
>  <CHROM.1>
-136.29282500,-41.70343538,-45.38090444,72.92723699,99.12934851,72.02485799
-152.83349377,-156.20429838,57.72590722,-49.63451372,-44.19744193,-149.15702673
-68.48042059,55.64359629,151.16360813,-86.19945533,-2.70887796,4.77052423
3.38685513,-0.32755758,-0.56253361,0.82936841

>  <Name>
1tob

>  <RI>
0

>  <Rbt.Current_Directory>
/home/itssahil/PROJECTS/Mol_Feturizer/New_Systems/rnas/1tob

>  <Rbt.Executable>
rbdock ($Id: //depot/dev/client3/rdock/2013.1/src/exe/rbdock.cxx#4 $)

>  <Rbt.Library>
libRbt.so (2013.1, Build901 2013/11/27)

>  <Rbt.Parameter_File>
/export/apps/rDock/src/rDock_2013.1_src/data/scripts/dock_solv.prm

>  <Rbt.Receptor>
prm/blind_docking_80.prm

>  <SCORE>
-26.8123

>  <SCORE.INTER>
-35.1375

>  <SCORE.INTER.CONST>
1

>  <SCORE.INTER.POLAR>
-5.45143

>  <SCORE.INTER.ROT>
6

>  <SCORE.INTER.SOLV>
34.9745

>  <SCORE.INTER.VDW>
-24.5117

>  <SCORE.INTER.norm>
-1.09805

>  <SCORE.INTRA>
0.876575

>  <SCORE.INTRA.DIHEDRAL>
3.03401

>  <SCORE.INTRA.DIHEDRAL.0>
22.9177

>  <SCORE.INTRA.POLAR>
-2.36636

>  <SCORE.INTRA.POLAR.0>
-0.311208

>  <SCORE.INTRA.REPUL>
0.078364

>  <SCORE.INTRA.REPUL.0>
0

>  <SCORE.INTRA.SOLV>
7.96942

>  <SCORE.INTRA.SOLV.lig_0>
-132.657

>  <SCORE.INTRA.VDW>
3.02866

>  <SCORE.INTRA.VDW.0>
-4.68867

>  <SCORE.INTRA.norm>
0.027393

>  <SCORE.RESTR>
7.44865

>  <SCORE.RESTR.CAVITY>
7.44865

>  <SCORE.RESTR.norm>
0.23277

>  <SCORE.SYSTEM>
0

>  <SCORE.SYSTEM.CONST>
0

>  <SCORE.SYSTEM.DIHEDRAL>
0

>  <SCORE.SYSTEM.SOLV>
0

>  <SCORE.SYSTEM.norm>
0

>  <SCORE.heavy>
32

>  <SCORE.norm>
-0.837884

>  <RMSD>
4.336

$$$$
1tob
 OpenBabel11021811413D
libRbt.so/2013.1/901 2013/11/27
 32 34  0  0  0  0  0  0  0  0999 V2000
   -0.0783    4.3141    4.4722 C   0  0  2  0  0  0  0  0  0  0  0  0
    1.1136    3.4645    4.0380 C   0  0  1  0  0  0  0  0  0  0  0  0
    1.2577    2.2690    4.9699 C   0  0  2  0  0  0  0  0  0  0  0  0
    1.3693    2.7596    6.4085 C   0  0  1  0  0  0  0  0  0  0  0  0
    0.1663    3.6332    6.7532 C   0  0  1  0  0  0  0  0  0  0  0  0
    0.2575    4.2160    8.1497 C   0  0  0  0  0  0  0  0  0  0  0  0
    0.9199    3.0123    2.7055 O   0  0  0  0  0  0  0  0  0  0  0  0
    2.4095    1.4261    4.5826 N   0  3  0  0  0  0  0  0  0  0  0  0
    1.4350    1.6480    7.2917 O   0  0  0  0  0  0  0  0  0  0  0  0
    0.0791    4.7411    5.8312 O   0  0  0  0  0  0  0  0  0  0  0  0
   -0.7912    5.1424    8.3950 O   0  0  0  0  0  0  0  0  0  0  0  0
   -2.9535    2.6192    2.9564 C   0  0  2  0  0  0  0  0  0  0  0  0
   -3.7468    2.8427    1.6762 C   0  0  0  0  0  0  0  0  0  0  0  0
   -4.5300    4.1535    1.7547 C   0  0  1  0  0  0  0  0  0  0  0  0
   -3.5641    5.3186    1.9583 C   0  0  2  0  0  0  0  0  0  0  0  0
   -2.7520    5.1070    3.2370 C   0  0  1  0  0  0  0  0  0  0  0  0
   -1.9948    3.7814    3.1652 C   0  0  1  0  0  0  0  0  0  0  0  0
   -2.1677    1.3687    2.8730 N   0  3  0  0  0  0  0  0  0  0  0  0
   -5.3646    4.3172    0.5363 N   0  3  0  0  0  0  0  0  0  0  0  0
   -1.8349    6.1791    3.4083 O   0  0  0  0  0  0  0  0  0  0  0  0
   -1.2461    3.5804    4.3776 O   0  0  0  0  0  0  0  0  0  0  0  0
   -3.5288    7.7190    1.9752 C   0  0  1  0  0  0  0  0  0  0  0  0
   -4.4216    8.9512    2.1322 C   0  0  1  0  0  0  0  0  0  0  0  0
   -5.4127    9.0345    0.9811 C   0  0  0  0  0  0  0  0  0  0  0  0
   -4.6537    9.0161   -0.3357 C   0  0  1  0  0  0  0  0  0  0  0  0
   -3.7716    7.7701   -0.4056 C   0  0  1  0  0  0  0  0  0  0  0  0
   -2.9371    7.7146   -1.6724 C   0  0  0  0  0  0  0  0  0  0  0  0
   -5.0994    8.9549    3.4501 N   0  3  0  0  0  0  0  0  0  0  0  0
   -2.0001    8.8603   -1.7561 N   0  3  0  0  0  0  0  0  0  0  0  0
   -4.2923    6.5610    2.0386 O   0  0  0  0  0  0  0  0  0  0  0  0
   -5.5677    9.0244   -1.4226 O   0  0  0  0  0  0  0  0  0  0  0  0
   -2.8557    7.7458    0.7105 O   0  0  0  0  0  0  0  0  0  0  0  0
  1  2  1  0  0  0  0
  1 10  1  0  0  0  0
  1 21  1  1  0  0  0
  2  3  1  0  0  0  0
  2  7  1  6  0  0  0
  3  4  1  0  0  0  0
  3  8  1  6  0  0  0
  4  5  1  0  0  0  0
  4  9  1  1  0  0  0
  5  6  1  1  0  0  0
  5 10  1  0  0  0  0
  6 11  1  0  0  0  0
 12 13  1  0  0  0  0
 12 17  1  0  0  0  0
 12 18  1  6  0  0  0
 13 14  1  0  0  0  0
 14 15  1  0  0  0  0
 14 19  1  6  0  0  0
 15 16  1  0  0  0  0
 15 30  1  1  0  0  0
 16 17  1  0  0  0  0
 16 20  1  6  0  0  0
 17 21  1  1  0  0  0
 22 23  1  0  0  0  0
 22 30  1  6  0  0  0
 22 32  1  0  0  0  0
 23 24  1  0  0  0  0
 23 28  1  1  0  0  0
 24 25  1  0  0  0  0
 25 26  1  0  0  0  0
 25 31  1  6  0  0  0
 26 27  1  6  0  0  0
 26 32  1  0  0  0  0
 27 29  1  0  0  0  0
M  CHG  5   8   1  18   1  19   1  28   1  29   1
M  END
>  <CHROM.1>
-96.65208278,175.05014369,45.81952636,178.08122531,173.40136102,72.12114694
63.21832413,171.70194714,-168.52958746,86.25766749,160.64061027,-177.57038993
-35.38142355,62.61901549,61.93997369,-63.20552084,-2.06427113,5.22461068
2.98122192,0.13160508,-0.99356812,0.89378660

>  <Name>
1tob

>  <RI>
0

>  <Rbt.Current_Directory>
/home/itssahil/PROJECTS/Mol_Feturizer/New_Systems/rnas/1tob

>  <Rbt.Executable>
rbdock ($Id: //depot/dev/client3/rdock/2013.1/src/exe/rbdock.cxx#4 $)

>  <Rbt.Library>
libRbt.so (2013.1, Build901 2013/11/27)

>  <Rbt.Parameter_File>
/export/apps/rDock/src/rDock_2013.1_src/data/scripts/dock_solv.prm

>  <Rbt.Receptor>
prm/pocket_docking_8.prm

>  <SCORE>
-44.37

>  <SCORE.INTER>
-40.0407

>  <SCORE.INTER.CONST>
1

>  <SCORE.INTER.POLAR>
-5.58323

>  <SCORE.INTER.ROT>
6

>  <SCORE.INTER.SOLV>
18.4922

>  <SCORE.INTER.VDW>
-21.8471

>  <SCORE.INTER.norm>
-1.25127

>  <SCORE.INTRA>
-4.32933

>  <SCORE.INTRA.DIHEDRAL>
-9.73542

>  <SCORE.INTRA.DIHEDRAL.0>
22.9177

>  <SCORE.INTRA.POLAR>
0.27338

>  <SCORE.INTRA.POLAR.0>
-0.311208

>  <SCORE.INTRA.REPUL>
0

>  <SCORE.INTRA.REPUL.0>
0

>  <SCORE.INTRA.SOLV>
-4.50142

>  <SCORE.INTRA.SOLV.lig_0>
-132.657

>  <SCORE.INTRA.VDW>
1.8596

>  <SCORE.INTRA.VDW.0>
-4.68867

>  <SCORE.INTRA.norm>
-0.135291

>  <SCORE.RESTR>
0

>  <SCORE.RESTR.CAVITY>
0

>  <SCORE.RESTR.norm>
0

>  <SCORE.SYSTEM>
0

>  <SCORE.SYSTEM.CONST>
0

>  <SCORE.SYSTEM.DIHEDRAL>
0

>  <SCORE.SYSTEM.SOLV>
0

>  <SCORE.SYSTEM.norm>
0

>  <SCORE.heavy>
32

>  <SCORE.norm>
-1.38656

>  <RMSD>
4.341

$$$$
1tob
 OpenBabel11021811413D
libRbt.so/2013.1/901 2013/11/27
 32 34  0  0  0  0  0  0  0  0999 V2000
    0.7104    3.7795    2.8793 C   0  0  2  0  0  0  0  0  0  0  0  0
    2.2294    3.6748    2.7667 C   0  0  1  0  0  0  0  0  0  0  0  0
    2.6426    2.2094    2.7502 C   0  0  2  0  0  0  0  0  0  0  0  0
    2.0884    1.5136    3.9876 C   0  0  1  0  0  0  0  0  0  0  0  0
    0.5747    1.6978    4.0518 C   0  0  1  0  0  0  0  0  0  0  0  0
   -0.0278    1.0922    5.3042 C   0  0  0  0  0  0  0  0  0  0  0  0
    2.6665    4.3091    1.5733 O   0  0  0  0  0  0  0  0  0  0  0  0
    4.1115    2.0701    2.6493 N   0  3  0  0  0  0  0  0  0  0  0  0
    2.4108    0.1300    3.9461 O   0  0  0  0  0  0  0  0  0  0  0  0
    0.2472    3.1042    4.0556 O   0  0  0  0  0  0  0  0  0  0  0  0
    0.4034    1.7777    6.4714 O   0  0  0  0  0  0  0  0  0  0  0  0
   -2.1933    2.6219    2.2478 C   0  0  2  0  0  0  0  0  0  0  0  0
   -3.6345    3.0506    2.0078 C   0  0  0  0  0  0  0  0  0  0  0  0
   -3.8662    4.4661    2.5373 C   0  0  1  0  0  0  0  0  0  0  0  0
   -2.9268    5.4402    1.8299 C   0  0  2  0  0  0  0  0  0  0  0  0
   -1.4732    5.0202    2.0536 C   0  0  1  0  0  0  0  0  0  0  0  0
   -1.2549    3.5940    1.5496 C   0  0  1  0  0  0  0  0  0  0  0  0
   -1.9545    1.2655    1.7079 N   0  3  0  0  0  0  0  0  0  0  0  0
   -5.2952    4.8391    2.3737 N   0  3  0  0  0  0  0  0  0  0  0  0
   -0.6032    5.9129    1.3707 O   0  0  0  0  0  0  0  0  0  0  0  0
    0.1100    3.1990    1.7778 O   0  0  0  0  0  0  0  0  0  0  0  0
   -2.6582    7.8056    1.5191 C   0  0  1  0  0  0  0  0  0  0  0  0
   -2.9499    9.1622    2.1628 C   0  0  1  0  0  0  0  0  0  0  0  0
   -4.4512    9.3778    2.2815 C   0  0  0  0  0  0  0  0  0  0  0  0
   -5.0894    9.2224    0.9107 C   0  0  1  0  0  0  0  0  0  0  0  0
   -4.7339    7.8551    0.3279 C   0  0  1  0  0  0  0  0  0  0  0  0
   -5.2908    7.6523   -1.0695 C   0  0  0  0  0  0  0  0  0  0  0  0
   -2.2653    9.2907    3.4709 N   0  3  0  0  0  0  0  0  0  0  0  0
   -4.6755    8.5884   -2.0405 N   0  3  0  0  0  0  0  0  0  0  0  0
   -3.1331    6.7792    2.3247 O   0  0  0  0  0  0  0  0  0  0  0  0
   -6.4997    9.3531    1.0146 O   0  0  0  0  0  0  0  0  0  0  0  0
   -3.2999    7.7088    0.2415 O   0  0  0  0  0  0  0  0  0  0  0  0
  1  2  1  0  0  0  0
  1 10  1  0  0  0  0
  1 21  1  6  0  0  0
  2  3  1  0  0  0  0
  2  7  1  6  0  0  0
  3  4  1  0  0  0  0
  3  8  1  1  0  0  0
  4  5  1  0  0  0  0
  4  9  1  6  0  0  0
  5  6  1  1  0  0  0
  5 10  1  0  0  0  0
  6 11  1  0  0  0  0
 12 13  1  0  0  0  0
 12 17  1  0  0  0  0
 12 18  1  6  0  0  0
 13 14  1  0  0  0  0
 14 15  1  0  0  0  0
 14 19  1  6  0  0  0
 15 16  1  0  0  0  0
 15 30  1  1  0  0  0
 16 17  1  0  0  0  0
 16 20  1  6  0  0  0
 17 21  1  1  0  0  0
 22 23  1  0  0  0  0
 22 30  1  1  0  0  0
 22 32  1  0  0  0  0
 23 24  1  0  0  0  0
 23 28  1  1  0  0  0
 24 25  1  0  0  0  0
 25 26  1  0  0  0  0
 25 31  1  1  0  0  0
 26 27  1  6  0  0  0
 26 32  1  0  0  0  0
 27 29  1  0  0  0  0
M  CHG  5   8   1  18   1  19   1  28   1  29   1
M  END
>  <CHROM.1>
-161.13983749,-46.55391113,62.59530521,173.56421652,66.20567807,-179.44293545
-56.71170305,-15.47215080,-161.37684998,-172.99481087,-91.88153767,179.77033250
76.73130152,62.31135082,65.22314888,-64.07880385,-1.54460970,4.91814871,2.22123373
-0.85177100,-0.02075545,-0.39189145

>  <Name>
1tob

>  <RI>
0

>  <Rbt.Current_Directory>
/home/itssahil/PROJECTS/Mol_Feturizer/New_Systems/rnas/1tob

>  <Rbt.Executable>
rbdock ($Id: //depot/dev/client3/rdock/2013.1/src/exe/rbdock.cxx#4 $)

>  <Rbt.Library>
libRbt.so (2013.1, Build901 2013/11/27)

>  <Rbt.Parameter_File>
/export/apps/rDock/src/rDock_2013.1_src/data/scripts/dock_solv.prm

>  <Rbt.Receptor>
prm/pocket_docking_6.prm

>  <SCORE>
-40.323

>  <SCORE.INTER>
-38.2854

>  <SCORE.INTER.CONST>
1

>  <SCORE.INTER.POLAR>
-5.15188

>  <SCORE.INTER.ROT>
6

>  <SCORE.INTER.SOLV>
28.7875

>  <SCORE.INTER.VDW>
-25.5465

>  <SCORE.INTER.norm>
-1.19642

>  <SCORE.INTRA>
-2.03816

>  <SCORE.INTRA.DIHEDRAL>
-10.4116

>  <SCORE.INTRA.DIHEDRAL.0>
22.9177

>  <SCORE.INTRA.POLAR>
0.244851

>  <SCORE.INTRA.POLAR.0>
-0.311208

>  <SCORE.INTRA.REPUL>
0

>  <SCORE.INTRA.REPUL.0>
0

>  <SCORE.INTRA.SOLV>
-3.728

>  <SCORE.INTRA.SOLV.lig_0>
-132.657

>  <SCORE.INTRA.VDW>
4.19913

>  <SCORE.INTRA.VDW.0>
-4.68867

>  <SCORE.INTRA.norm>
-0.0636924

>  <SCORE.RESTR>
0.00055735

>  <SCORE.RESTR.CAVITY>
0.00055735

>  <SCORE.RESTR.norm>
1.74172e-05

>  <SCORE.SYSTEM>
0

>  <SCORE.SYSTEM.CONST>
0

>  <SCORE.SYSTEM.DIHEDRAL>
0

>  <SCORE.SYSTEM.SOLV>
0

>  <SCORE.SYSTEM.norm>
0

>  <SCORE.heavy>
32

>  <SCORE.norm>
-1.26009

>  <RMSD>
4.353

$$$$
1tob
 OpenBabel11021811413D
libRbt.so/2013.1/901 2013/11/27
 32 34  0  0  0  0  0  0  0  0999 V2000
    0.1533    4.1177    4.3239 C   0  0  2  0  0  0  0  0  0  0  0  0
    1.3242    3.5049    3.5594 C   0  0  1  0  0  0  0  0  0  0  0  0
    1.6811    2.1542    4.1648 C   0  0  2  0  0  0  0  0  0  0  0  0
    1.9663    2.3259    5.6520 C   0  0  1  0  0  0  0  0  0  0  0  0
    0.7699    2.9806    6.3371 C   0  0  1  0  0  0  0  0  0  0  0  0
    1.0226    3.2491    7.8076 C   0  0  0  0  0  0  0  0  0  0  0  0
    0.9708    3.3390    2.1937 O   0  0  0  0  0  0  0  0  0  0  0  0
    2.8188    1.5336    3.4521 N   0  3  0  0  0  0  0  0  0  0  0  0
    2.2331    1.0596    6.2398 O   0  0  0  0  0  0  0  0  0  0  0  0
    0.4764    4.2497    5.7139 O   0  0  0  0  0  0  0  0  0  0  0  0
    2.0656    4.1961    7.9905 O   0  0  0  0  0  0  0  0  0  0  0  0
   -2.8127    2.4401    2.9131 C   0  0  2  0  0  0  0  0  0  0  0  0
   -3.6376    2.6683    1.6539 C   0  0  0  0  0  0  0  0  0  0  0  0
   -4.2938    4.0488    1.6877 C   0  0  1  0  0  0  0  0  0  0  0  0
   -3.2177    5.1277    1.7869 C   0  0  2  0  0  0  0  0  0  0  0  0
   -2.3731    4.9096    3.0432 C   0  0  1  0  0  0  0  0  0  0  0  0
   -1.7438    3.5171    3.0180 C   0  0  1  0  0  0  0  0  0  0  0  0
   -2.1486    1.1189    2.8710 N   0  3  0  0  0  0  0  0  0  0  0  0
   -5.1625    4.2247    0.4950 N   0  3  0  0  0  0  0  0  0  0  0  0
   -1.3554    5.8989    3.1174 O   0  0  0  0  0  0  0  0  0  0  0  0
   -0.9641    3.3119    4.2100 O   0  0  0  0  0  0  0  0  0  0  0  0
   -2.9659    7.5110    1.6447 C   0  0  1  0  0  0  0  0  0  0  0  0
   -3.5703    8.7785    2.2513 C   0  0  1  0  0  0  0  0  0  0  0  0
   -4.8607    9.1435    1.5329 C   0  0  0  0  0  0  0  0  0  0  0  0
   -4.5856    9.2719    0.0435 C   0  0  1  0  0  0  0  0  0  0  0  0
   -3.9647    7.9774   -0.4801 C   0  0  1  0  0  0  0  0  0  0  0  0
   -3.6082    8.0539   -1.9536 C   0  0  0  0  0  0  0  0  0  0  0  0
   -3.7714    8.6279    3.7119 N   0  3  0  0  0  0  0  0  0  0  0  0
   -2.4622    8.9646   -2.1884 N   0  3  0  0  0  0  0  0  0  0  0  0
   -3.8254    6.4353    1.8242 O   0  0  0  0  0  0  0  0  0  0  0  0
   -5.7938    9.5455   -0.6511 O   0  0  0  0  0  0  0  0  0  0  0  0
   -2.7475    7.6832    0.2390 O   0  0  0  0  0  0  0  0  0  0  0  0
  1  2  1  0  0  0  0
  1 10  1  0  0  0  0
  1 21  1  1  0  0  0
  2  3  1  0  0  0  0
  2  7  1  6  0  0  0
  3  4  1  0  0  0  0
  3  8  1  6  0  0  0
  4  5  1  0  0  0  0
  4  9  1  1  0  0  0
  5  6  1  1  0  0  0
  5 10  1  0  0  0  0
  6 11  1  0  0  0  0
 12 13  1  0  0  0  0
 12 17  1  0  0  0  0
 12 18  1  6  0  0  0
 13 14  1  0  0  0  0
 14 15  1  0  0  0  0
 14 19  1  6  0  0  0
 15 16  1  0  0  0  0
 15 30  1  1  0  0  0
 16 17  1  0  0  0  0
 16 20  1  6  0  0  0
 17 21  1  1  0  0  0
 22 23  1  0  0  0  0
 22 30  1  6  0  0  0
 22 32  1  0  0  0  0
 23 24  1  0  0  0  0
 23 28  1  1  0  0  0
 24 25  1  0  0  0  0
 25 26  1  0  0  0  0
 25 31  1  6  0  0  0
 26 27  1  6  0  0  0
 26 32  1  0  0  0  0
 27 29  1  0  0  0  0
M  CHG  5   8   1  18   1  19   1  28   1  29   1
M  END
>  <CHROM.1>
-84.07425280,168.70320851,177.42341646,67.90320619,64.47426693,-60.90874421
177.92470158,173.70136323,-167.57470813,-58.45799954,171.60350187,-156.99052096
51.14938593,63.08878015,70.03714068,51.33358794,-1.66379704,5.05704129,2.74980612
-0.42134716,-0.88223970,0.28682369

>  <Name>
1tob

>  <RI>
0

>  <Rbt.Current_Directory>
/home/itssahil/PROJECTS/Mol_Feturizer/New_Systems/rnas/1tob

>  <Rbt.Executable>
rbdock ($Id: //depot/dev/client3/rdock/2013.1/src/exe/rbdock.cxx#4 $)

>  <Rbt.Library>
libRbt.so (2013.1, Build901 2013/11/27)

>  <Rbt.Parameter_File>
/export/apps/rDock/src/rDock_2013.1_src/data/scripts/dock_solv.prm

>  <Rbt.Receptor>
prm/pocket_docking_7.prm

>  <SCORE>
-44.0525

>  <SCORE.INTER>
-37.5204

>  <SCORE.INTER.CONST>
1

>  <SCORE.INTER.POLAR>
-5.63843

>  <SCORE.INTER.ROT>
6

>  <SCORE.INTER.SOLV>
20.7328

>  <SCORE.INTER.VDW>
-20.7298

>  <SCORE.INTER.norm>
-1.17251

>  <SCORE.INTRA>
-6.54746

>  <SCORE.INTRA.DIHEDRAL>
-14.994

>  <SCORE.INTRA.DIHEDRAL.0>
22.9177

>  <SCORE.INTRA.POLAR>
0.261642

>  <SCORE.INTRA.POLAR.0>
-0.311208

>  <SCORE.INTRA.REPUL>
0

>  <SCORE.INTRA.REPUL.0>
0

>  <SCORE.INTRA.SOLV>
-3.45793

>  <SCORE.INTRA.SOLV.lig_0>
-132.657

>  <SCORE.INTRA.VDW>
1.78891

>  <SCORE.INTRA.VDW.0>
-4.68867

>  <SCORE.INTRA.norm>
-0.204608

>  <SCORE.RESTR>
0.0154024

>  <SCORE.RESTR.CAVITY>
0.0154024

>  <SCORE.RESTR.norm>
0.000481325

>  <SCORE.SYSTEM>
0

>  <SCORE.SYSTEM.CONST>
0

>  <SCORE.SYSTEM.DIHEDRAL>
0

>  <SCORE.SYSTEM.SOLV>
0

>  <SCORE.SYSTEM.norm>
0

>  <SCORE.heavy>
32

>  <SCORE.norm>
-1.37664

>  <RMSD>
4.377

$$$$
1tob
 OpenBabel11021811413D
libRbt.so/2013.1/901 2013/11/27
 32 34  0  0  0  0  0  0  0  0999 V2000
   -1.2390    3.4583    5.8967 C   0  0  2  0  0  0  0  0  0  0  0  0
   -1.1643    4.1719    7.2445 C   0  0  1  0  0  0  0  0  0  0  0  0
    0.2926    4.3955    7.6262 C   0  0  2  0  0  0  0  0  0  0  0  0
    1.0282    3.0608    7.6181 C   0  0  1  0  0  0  0  0  0  0  0  0
    0.8726    2.3913    6.2554 C   0  0  1  0  0  0  0  0  0  0  0  0
    1.5193    1.0209    6.2085 C   0  0  0  0  0  0  0  0  0  0  0  0
   -1.8352    5.4213    7.1632 O   0  0  0  0  0  0  0  0  0  0  0  0
    0.4031    5.0794    8.9329 N   0  3  0  0  0  0  0  0  0  0  0  0
    2.4044    3.2686    7.9061 O   0  0  0  0  0  0  0  0  0  0  0  0
   -0.5272    2.2155    5.9475 O   0  0  0  0  0  0  0  0  0  0  0  0
    0.8797    0.1146    7.0959 O   0  0  0  0  0  0  0  0  0  0  0  0
   -1.8234    2.8831    3.2704 C   0  0  2  0  0  0  0  0  0  0  0  0
   -2.6068    2.9408    1.9661 C   0  0  0  0  0  0  0  0  0  0  0  0
   -3.8475    3.8197    2.1262 C   0  0  1  0  0  0  0  0  0  0  0  0
   -3.4288    5.2331    2.5249 C   0  0  2  0  0  0  0  0  0  0  0  0
   -2.6329    5.1938    3.8304 C   0  0  1  0  0  0  0  0  0  0  0  0
   -1.4103    4.2903    3.6734 C   0  0  1  0  0  0  0  0  0  0  0  0
   -0.6040    2.0607    3.1121 N   0  3  0  0  0  0  0  0  0  0  0  0
   -4.6466    3.7988    0.8737 N   0  3  0  0  0  0  0  0  0  0  0  0
   -2.2212    6.5076    4.1833 O   0  0  0  0  0  0  0  0  0  0  0  0
   -0.6749    4.2445    4.9095 O   0  0  0  0  0  0  0  0  0  0  0  0
   -4.3650    7.4404    2.6476 C   0  0  1  0  0  0  0  0  0  0  0  0
   -5.3171    8.1602    3.6043 C   0  0  1  0  0  0  0  0  0  0  0  0
   -6.7593    7.9588    3.1638 C   0  0  0  0  0  0  0  0  0  0  0  0
   -6.9109    8.4148    1.7218 C   0  0  1  0  0  0  0  0  0  0  0  0
   -5.9139    7.6677    0.8367 C   0  0  1  0  0  0  0  0  0  0  0  0
   -5.9682    8.1157   -0.6126 C   0  0  0  0  0  0  0  0  0  0  0  0
   -5.0979    7.7247    5.0038 N   0  3  0  0  0  0  0  0  0  0  0  0
   -5.4673    9.5019   -0.7716 N   0  3  0  0  0  0  0  0  0  0  0  0
   -4.5920    6.0710    2.6835 O   0  0  0  0  0  0  0  0  0  0  0  0
   -8.2357    8.1703    1.2724 O   0  0  0  0  0  0  0  0  0  0  0  0
   -4.5665    7.8951    1.3038 O   0  0  0  0  0  0  0  0  0  0  0  0
  1  2  1  0  0  0  0
  1 10  1  0  0  0  0
  1 21  1  6  0  0  0
  2  3  1  0  0  0  0
  2  7  1  6  0  0  0
  3  4  1  0  0  0  0
  3  8  1  1  0  0  0
  4  5  1  0  0  0  0
  4  9  1  6  0  0  0
  5  6  1  1  0  0  0
  5 10  1  0  0  0  0
  6 11  1  0  0  0  0
 12 13  1  0  0  0  0
 12 17  1  0  0  0  0
 12 18  1  6  0  0  0
 13 14  1  0  0  0  0
 14 15  1  0  0  0  0
 14 19  1  6  0  0  0
 15 16  1  0  0  0  0
 15 30  1  1  0  0  0
 16 17  1  0  0  0  0
 16 20  1  6  0  0  0
 17 21  1  1  0  0  0
 22 23  1  0  0  0  0
 22 30  1  6  0  0  0
 22 32  1  0  0  0  0
 23 24  1  0  0  0  0
 23 28  1  1  0  0  0
 24 25  1  0  0  0  0
 25 26  1  0  0  0  0
 25 31  1  6  0  0  0
 26 27  1  6  0  0  0
 26 32  1  0  0  0  0
 27 29  1  0  0  0  0
M  CHG  5   8   1  18   1  19   1  28   1  29   1
M  END
>  <CHROM.1>
-137.04820783,-81.54889986,-47.54614923,-175.15074790,64.46302859,58.32931339
-160.95039776,-56.24216838,-161.40892412,-55.47180515,-46.21228198,-145.19544174
-101.57407804,58.53926644,68.42230971,-54.81497056,-2.62642859,5.09375839
4.05487152,0.10542375,-0.85287616,0.88434030

>  <Name>
1tob

>  <RI>
0

>  <Rbt.Current_Directory>
/home/itssahil/PROJECTS/Mol_Feturizer/New_Systems/rnas/1tob

>  <Rbt.Executable>
rbdock ($Id: //depot/dev/client3/rdock/2013.1/src/exe/rbdock.cxx#4 $)

>  <Rbt.Library>
libRbt.so (2013.1, Build901 2013/11/27)

>  <Rbt.Parameter_File>
/export/apps/rDock/src/rDock_2013.1_src/data/scripts/dock_solv.prm

>  <Rbt.Receptor>
prm/pocket_docking_6.prm

>  <SCORE>
-44.3548

>  <SCORE.INTER>
-40.8777

>  <SCORE.INTER.CONST>
1

>  <SCORE.INTER.POLAR>
-6.10022

>  <SCORE.INTER.ROT>
6

>  <SCORE.INTER.SOLV>
23.6567

>  <SCORE.INTER.VDW>
-22.4033

>  <SCORE.INTER.norm>
-1.27743

>  <SCORE.INTRA>
-3.47708

>  <SCORE.INTRA.DIHEDRAL>
-3.15532

>  <SCORE.INTRA.DIHEDRAL.0>
22.9177

>  <SCORE.INTRA.POLAR>
-1.12274

>  <SCORE.INTRA.POLAR.0>
-0.311208

>  <SCORE.INTRA.REPUL>
0

>  <SCORE.INTRA.REPUL.0>
0

>  <SCORE.INTRA.SOLV>
-0.927729

>  <SCORE.INTRA.SOLV.lig_0>
-132.657

>  <SCORE.INTRA.VDW>
2.38177

>  <SCORE.INTRA.VDW.0>
-4.68867

>  <SCORE.INTRA.norm>
-0.108659

>  <SCORE.RESTR>
0

>  <SCORE.RESTR.CAVITY>
0

>  <SCORE.RESTR.norm>
0

>  <SCORE.SYSTEM>
0

>  <SCORE.SYSTEM.CONST>
0

>  <SCORE.SYSTEM.DIHEDRAL>
0

>  <SCORE.SYSTEM.SOLV>
0

>  <SCORE.SYSTEM.norm>
0

>  <SCORE.heavy>
32

>  <SCORE.norm>
-1.38609

>  <RMSD>
4.380

$$$$
1tob
 OpenBabel11021811413D
libRbt.so/2013.1/901 2013/11/27
 32 34  0  0  0  0  0  0  0  0999 V2000
   -0.8459    1.3617    3.8723 C   0  0  2  0  0  0  0  0  0  0  0  0
   -0.1189    1.0583    5.1802 C   0  0  1  0  0  0  0  0  0  0  0  0
    0.2523    2.3615    5.8746 C   0  0  2  0  0  0  0  0  0  0  0  0
    1.0730    3.2252    4.9244 C   0  0  1  0  0  0  0  0  0  0  0  0
    0.2994    3.4486    3.6278 C   0  0  1  0  0  0  0  0  0  0  0  0
    1.0967    4.2386    2.6088 C   0  0  0  0  0  0  0  0  0  0  0  0
   -0.9582    0.2866    6.0273 O   0  0  0  0  0  0  0  0  0  0  0  0
    0.9662    2.1052    7.1443 N   0  3  0  0  0  0  0  0  0  0  0  0
    1.3657    4.4725    5.5397 O   0  0  0  0  0  0  0  0  0  0  0  0
   -0.0303    2.1792    3.0235 O   0  0  0  0  0  0  0  0  0  0  0  0
    0.2595    4.7620    1.5874 O   0  0  0  0  0  0  0  0  0  0  0  0
   -3.1535    2.1884    1.9922 C   0  0  2  0  0  0  0  0  0  0  0  0
   -3.5943    3.1629    0.9085 C   0  0  0  0  0  0  0  0  0  0  0  0
   -4.5259    4.2255    1.4921 C   0  0  1  0  0  0  0  0  0  0  0  0
   -3.8025    4.9936    2.5960 C   0  0  2  0  0  0  0  0  0  0  0  0
   -3.3449    4.0286    3.6908 C   0  0  1  0  0  0  0  0  0  0  0  0
   -2.4381    2.9515    3.0963 C   0  0  1  0  0  0  0  0  0  0  0  0
   -2.2255    1.1772    1.4401 N   0  3  0  0  0  0  0  0  0  0  0  0
   -5.0153    5.1180    0.4096 N   0  3  0  0  0  0  0  0  0  0  0  0
   -2.6478    4.7432    4.7025 O   0  0  0  0  0  0  0  0  0  0  0  0
   -2.0243    2.0375    4.1279 O   0  0  0  0  0  0  0  0  0  0  0  0
   -4.3079    7.3167    2.9302 C   0  0  1  0  0  0  0  0  0  0  0  0
   -2.9883    7.6301    3.6377 C   0  0  1  0  0  0  0  0  0  0  0  0
   -3.1511    7.4898    5.1437 C   0  0  0  0  0  0  0  0  0  0  0  0
   -4.2972    8.3736    5.6081 C   0  0  1  0  0  0  0  0  0  0  0  0
   -5.5694    8.0143    4.8412 C   0  0  1  0  0  0  0  0  0  0  0  0
   -6.7457    8.8991    5.2124 C   0  0  0  0  0  0  0  0  0  0  0  0
   -1.8891    6.7836    3.1166 N   0  3  0  0  0  0  0  0  0  0  0  0
   -6.4959   10.3148    4.8504 N   0  3  0  0  0  0  0  0  0  0  0  0
   -4.6736    5.9967    3.1578 O   0  0  0  0  0  0  0  0  0  0  0  0
   -4.5074    8.2029    7.0022 O   0  0  0  0  0  0  0  0  0  0  0  0
   -5.3534    8.1647    3.4213 O   0  0  0  0  0  0  0  0  0  0  0  0
  1  2  1  0  0  0  0
  1 10  1  0  0  0  0
  1 21  1  1  0  0  0
  2  3  1  0  0  0  0
  2  7  1  1  0  0  0
  3  4  1  0  0  0  0
  3  8  1  1  0  0  0
  4  5  1  0  0  0  0
  4  9  1  1  0  0  0
  5  6  1  6  0  0  0
  5 10  1  0  0  0  0
  6 11  1  0  0  0  0
 12 13  1  0  0  0  0
 12 17  1  0  0  0  0
 12 18  1  6  0  0  0
 13 14  1  0  0  0  0
 14 15  1  0  0  0  0
 14 19  1  6  0  0  0
 15 16  1  0  0  0  0
 15 30  1  1  0  0  0
 16 17  1  0  0  0  0
 16 20  1  1  0  0  0
 17 21  1  1  0  0  0
 22 23  1  0  0  0  0
 22 30  1  1  0  0  0
 22 32  1  0  0  0  0
 23 24  1  0  0  0  0
 23 28  1  6  0  0  0
 24 25  1  0  0  0  0
 25 26  1  0  0  0  0
 25 31  1  1  0  0  0
 26 27  1  1  0  0  0
 26 32  1  0  0  0  0
 27 29  1  0  0  0  0
M  CHG  5   8   1  18   1  19   1  28   1  29   1
M  END
>  <CHROM.1>
149.30063351,40.19998529,-55.23738086,69.92934212,-163.26863557,-89.21407019
-28.30849655,14.55104037,-113.26472962,-162.97300139,81.84017790,-65.47283841
148.17231312,98.60958901,63.47918539,-168.09546950,-2.46292762,4.73833930
3.85234828,0.54294722,0.73330646,-2.29846343

>  <Name>
1tob

>  <RI>
0

>  <Rbt.Current_Directory>
/home/itssahil/PROJECTS/Mol_Feturizer/New_Systems/rnas/1tob

>  <Rbt.Executable>
rbdock ($Id: //depot/dev/client3/rdock/2013.1/src/exe/rbdock.cxx#4 $)

>  <Rbt.Library>
libRbt.so (2013.1, Build901 2013/11/27)

>  <Rbt.Parameter_File>
/export/apps/rDock/src/rDock_2013.1_src/data/scripts/dock_solv.prm

>  <Rbt.Receptor>
prm/blind_docking_40.prm

>  <SCORE>
-19.7687

>  <SCORE.INTER>
-33.3367

>  <SCORE.INTER.CONST>
1

>  <SCORE.INTER.POLAR>
-5.76797

>  <SCORE.INTER.ROT>
6

>  <SCORE.INTER.SOLV>
33.6837

>  <SCORE.INTER.VDW>
-21.8258

>  <SCORE.INTER.norm>
-1.04177

>  <SCORE.INTRA>
7.72722

>  <SCORE.INTRA.DIHEDRAL>
10.9027

>  <SCORE.INTRA.DIHEDRAL.0>
22.9177

>  <SCORE.INTRA.POLAR>
-1.70321

>  <SCORE.INTRA.POLAR.0>
-0.311208

>  <SCORE.INTRA.REPUL>
0

>  <SCORE.INTRA.REPUL.0>
0

>  <SCORE.INTRA.SOLV>
5.50814

>  <SCORE.INTRA.SOLV.lig_0>
-132.657

>  <SCORE.INTRA.VDW>
5.3127

>  <SCORE.INTRA.VDW.0>
-4.68867

>  <SCORE.INTRA.norm>
0.241476

>  <SCORE.RESTR>
5.84082

>  <SCORE.RESTR.CAVITY>
5.84082

>  <SCORE.RESTR.norm>
0.182526

>  <SCORE.SYSTEM>
0

>  <SCORE.SYSTEM.CONST>
0

>  <SCORE.SYSTEM.DIHEDRAL>
0

>  <SCORE.SYSTEM.SOLV>
0

>  <SCORE.SYSTEM.norm>
0

>  <SCORE.heavy>
32

>  <SCORE.norm>
-0.617771

>  <RMSD>
4.412

$$$$
1tob
 OpenBabel11021811413D
libRbt.so/2013.1/901 2013/11/27
 32 34  0  0  0  0  0  0  0  0999 V2000
    0.3806    2.6738    4.7738 C   0  0  2  0  0  0  0  0  0  0  0  0
    1.2860    1.6086    5.3876 C   0  0  1  0  0  0  0  0  0  0  0  0
    0.7338    1.1846    6.7417 C   0  0  2  0  0  0  0  0  0  0  0  0
    0.5735    2.4128    7.6297 C   0  0  1  0  0  0  0  0  0  0  0  0
   -0.3072    3.4456    6.9319 C   0  0  1  0  0  0  0  0  0  0  0  0
   -0.4421    4.7252    7.7338 C   0  0  0  0  0  0  0  0  0  0  0  0
    1.3546    0.4826    4.5246 O   0  0  0  0  0  0  0  0  0  0  0  0
    1.5918    0.1568    7.3700 N   0  3  0  0  0  0  0  0  0  0  0  0
   -0.0059    2.0359    8.8716 O   0  0  0  0  0  0  0  0  0  0  0  0
    0.2631    3.7993    5.6534 O   0  0  0  0  0  0  0  0  0  0  0  0
    0.7994    5.1130    8.3051 O   0  0  0  0  0  0  0  0  0  0  0  0
   -2.5611    1.7002    2.8720 C   0  0  2  0  0  0  0  0  0  0  0  0
   -3.3071    2.3091    1.6925 C   0  0  0  0  0  0  0  0  0  0  0  0
   -4.0661    3.5622    2.1297 C   0  0  1  0  0  0  0  0  0  0  0  0
   -3.0844    4.5894    2.6890 C   0  0  2  0  0  0  0  0  0  0  0  0
   -2.3194    3.9919    3.8709 C   0  0  1  0  0  0  0  0  0  0  0  0
   -1.5868    2.7233    3.4353 C   0  0  1  0  0  0  0  0  0  0  0  0
   -1.7981    0.5059    2.4478 N   0  3  0  0  0  0  0  0  0  0  0  0
   -4.8565    4.0972    0.9908 N   0  3  0  0  0  0  0  0  0  0  0  0
   -1.3872    4.9410    4.3709 O   0  0  0  0  0  0  0  0  0  0  0  0
   -0.8827    2.1569    4.5552 O   0  0  0  0  0  0  0  0  0  0  0  0
   -3.0152    6.9141    3.2848 C   0  0  1  0  0  0  0  0  0  0  0  0
   -3.3251    7.5622    4.6353 C   0  0  1  0  0  0  0  0  0  0  0  0
   -4.7736    8.0252    4.6780 C   0  0  0  0  0  0  0  0  0  0  0  0
   -5.0386    8.9504    3.5016 C   0  0  1  0  0  0  0  0  0  0  0  0
   -4.6848    8.2394    2.1959 C   0  0  1  0  0  0  0  0  0  0  0  0
   -4.8696    9.1265    0.9781 C   0  0  0  0  0  0  0  0  0  0  0  0
   -3.0018    6.6456    5.7541 N   0  3  0  0  0  0  0  0  0  0  0  0
   -6.3040    9.3051    0.6489 N   0  3  0  0  0  0  0  0  0  0  0  0
   -3.7899    5.7752    3.1092 O   0  0  0  0  0  0  0  0  0  0  0  0
   -6.4048    9.3381    3.4874 O   0  0  0  0  0  0  0  0  0  0  0  0
   -3.3021    7.8232    2.2151 O   0  0  0  0  0  0  0  0  0  0  0  0
  1  2  1  0  0  0  0
  1 10  1  0  0  0  0
  1 21  1  1  0  0  0
  2  3  1  0  0  0  0
  2  7  1  6  0  0  0
  3  4  1  0  0  0  0
  3  8  1  1  0  0  0
  4  5  1  0  0  0  0
  4  9  1  1  0  0  0
  5  6  1  1  0  0  0
  5 10  1  0  0  0  0
  6 11  1  0  0  0  0
 12 13  1  0  0  0  0
 12 17  1  0  0  0  0
 12 18  1  6  0  0  0
 13 14  1  0  0  0  0
 14 15  1  0  0  0  0
 14 19  1  6  0  0  0
 15 16  1  0  0  0  0
 15 30  1  1  0  0  0
 16 17  1  0  0  0  0
 16 20  1  6  0  0  0
 17 21  1  1  0  0  0
 22 23  1  0  0  0  0
 22 30  1  6  0  0  0
 22 32  1  0  0  0  0
 23 24  1  0  0  0  0
 23 28  1  1  0  0  0
 24 25  1  0  0  0  0
 25 26  1  0  0  0  0
 25 31  1  6  0  0  0
 26 27  1  6  0  0  0
 26 32  1  0  0  0  0
 27 29  1  0  0  0  0
M  CHG  5   8   1  18   1  19   1  28   1  29   1
M  END
>  <CHROM.1>
-149.35414928,67.48988368,-157.85747490,-100.02047599,41.72072276,-62.32663869
-73.62725742,63.14434492,-162.70780054,-55.08131336,151.95729729,-130.97327721
3.56271498,69.71396326,-74.36033057,168.43789745,-2.12361346,4.55361162,4.31249499
0.25541355,0.90373622,-2.46435456

>  <Name>
1tob

>  <RI>
0

>  <Rbt.Current_Directory>
/home/itssahil/PROJECTS/Mol_Feturizer/New_Systems/rnas/1tob

>  <Rbt.Executable>
rbdock ($Id: //depot/dev/client3/rdock/2013.1/src/exe/rbdock.cxx#4 $)

>  <Rbt.Library>
libRbt.so (2013.1, Build901 2013/11/27)

>  <Rbt.Parameter_File>
/export/apps/rDock/src/rDock_2013.1_src/data/scripts/dock_solv.prm

>  <Rbt.Receptor>
prm/pocket_docking_5.prm

>  <SCORE>
-45.9274

>  <SCORE.INTER>
-45.6894

>  <SCORE.INTER.CONST>
1

>  <SCORE.INTER.POLAR>
-6.16438

>  <SCORE.INTER.ROT>
6

>  <SCORE.INTER.SOLV>
27.1476

>  <SCORE.INTER.VDW>
-26.5608

>  <SCORE.INTER.norm>
-1.42779

>  <SCORE.INTRA>
-0.392005

>  <SCORE.INTRA.DIHEDRAL>
5.45416

>  <SCORE.INTRA.DIHEDRAL.0>
22.9177

>  <SCORE.INTRA.POLAR>
-1.6685

>  <SCORE.INTRA.POLAR.0>
-0.311208

>  <SCORE.INTRA.REPUL>
0

>  <SCORE.INTRA.REPUL.0>
0

>  <SCORE.INTRA.SOLV>
-0.953598

>  <SCORE.INTRA.SOLV.lig_0>
-132.657

>  <SCORE.INTRA.VDW>
3.0306

>  <SCORE.INTRA.VDW.0>
-4.68867

>  <SCORE.INTRA.norm>
-0.0122501

>  <SCORE.RESTR>
0.153925

>  <SCORE.RESTR.CAVITY>
0.153925

>  <SCORE.RESTR.norm>
0.00481015

>  <SCORE.SYSTEM>
0

>  <SCORE.SYSTEM.CONST>
0

>  <SCORE.SYSTEM.DIHEDRAL>
0

>  <SCORE.SYSTEM.SOLV>
0

>  <SCORE.SYSTEM.norm>
0

>  <SCORE.heavy>
32

>  <SCORE.norm>
-1.43523

>  <RMSD>
4.432

$$$$
1tob
 OpenBabel11021811413D
libRbt.so/2013.1/901 2013/11/27
 32 34  0  0  0  0  0  0  0  0999 V2000
   -5.1539    7.2449    2.0499 C   0  0  2  0  0  0  0  0  0  0  0  0
   -4.9785    6.0775    1.0816 C   0  0  1  0  0  0  0  0  0  0  0  0
   -4.5059    4.8465    1.8429 C   0  0  2  0  0  0  0  0  0  0  0  0
   -3.2307    5.1827    2.6067 C   0  0  1  0  0  0  0  0  0  0  0  0
   -3.4737    6.3819    3.5190 C   0  0  1  0  0  0  0  0  0  0  0  0
   -2.2181    6.8144    4.2504 C   0  0  0  0  0  0  0  0  0  0  0  0
   -6.2140    5.7980    0.4390 O   0  0  0  0  0  0  0  0  0  0  0  0
   -4.3178    3.6958    0.9331 N   0  3  0  0  0  0  0  0  0  0  0  0
   -2.8201    4.0597    3.3749 O   0  0  0  0  0  0  0  0  0  0  0  0
   -3.9273    7.5111    2.7416 O   0  0  0  0  0  0  0  0  0  0  0  0
   -1.9258    5.9474    5.3371 O   0  0  0  0  0  0  0  0  0  0  0  0
   -6.1147    8.9414    4.3553 C   0  0  2  0  0  0  0  0  0  0  0  0
   -6.9631   10.1260    4.7972 C   0  0  0  0  0  0  0  0  0  0  0  0
   -7.4122   10.9432    3.5855 C   0  0  1  0  0  0  0  0  0  0  0  0
   -8.2300   10.0614    2.6446 C   0  0  2  0  0  0  0  0  0  0  0  0
   -7.3955    8.8606    2.1963 C   0  0  1  0  0  0  0  0  0  0  0  0
   -6.9247    8.0644    3.4129 C   0  0  1  0  0  0  0  0  0  0  0  0
   -5.7047    8.1282    5.5210 N   0  3  0  0  0  0  0  0  0  0  0  0
   -8.1666   12.1416    4.0358 N   0  3  0  0  0  0  0  0  0  0  0  0
   -8.1692    8.0277    1.3432 O   0  0  0  0  0  0  0  0  0  0  0  0
   -6.1266    6.9458    2.9855 O   0  0  0  0  0  0  0  0  0  0  0  0
   -9.5303   10.1764    0.6297 C   0  0  1  0  0  0  0  0  0  0  0  0
   -9.9407   11.1161   -0.5054 C   0  0  1  0  0  0  0  0  0  0  0  0
  -10.6990   12.3129    0.0488 C   0  0  0  0  0  0  0  0  0  0  0  0
  -11.8810   11.8212    0.8682 C   0  0  1  0  0  0  0  0  0  0  0  0
  -11.3916   10.8742    1.9633 C   0  0  1  0  0  0  0  0  0  0  0  0
  -12.5278   10.2961    2.7874 C   0  0  0  0  0  0  0  0  0  0  0  0
   -8.7656   11.5271   -1.3095 N   0  3  0  0  0  0  0  0  0  0  0  0
  -12.0205    9.4455    3.8905 N   0  3  0  0  0  0  0  0  0  0  0  0
   -8.6558   10.8208    1.4947 O   0  0  0  0  0  0  0  0  0  0  0  0
  -12.5607   12.9243    1.4497 O   0  0  0  0  0  0  0  0  0  0  0  0
  -10.6800    9.7623    1.3778 O   0  0  0  0  0  0  0  0  0  0  0  0
  1  2  1  0  0  0  0
  1 10  1  0  0  0  0
  1 21  1  1  0  0  0
  2  3  1  0  0  0  0
  2  7  1  1  0  0  0
  3  4  1  0  0  0  0
  3  8  1  6  0  0  0
  4  5  1  0  0  0  0
  4  9  1  1  0  0  0
  5  6  1  6  0  0  0
  5 10  1  0  0  0  0
  6 11  1  0  0  0  0
 12 13  1  0  0  0  0
 12 17  1  0  0  0  0
 12 18  1  1  0  0  0
 13 14  1  0  0  0  0
 14 15  1  0  0  0  0
 14 19  1  1  0  0  0
 15 16  1  0  0  0  0
 15 30  1  6  0  0  0
 16 17  1  0  0  0  0
 16 20  1  6  0  0  0
 17 21  1  6  0  0  0
 22 23  1  0  0  0  0
 22 30  1  1  0  0  0
 22 32  1  0  0  0  0
 23 24  1  0  0  0  0
 23 28  1  1  0  0  0
 24 25  1  0  0  0  0
 25 26  1  0  0  0  0
 25 31  1  1  0  0  0
 26 27  1  6  0  0  0
 26 32  1  0  0  0  0
 27 29  1  0  0  0  0
M  CHG  5   8   1  18   1  19   1  28   1  29   1
M  END
>  <CHROM.1>
-145.45644584,31.92195834,155.84847823,73.49086961,-76.96348978,-66.82570090
78.23008123,164.38894779,-173.28294757,-58.63202783,-74.86925338,177.61599606
59.66149969,-60.80078298,-176.65099481,68.55320972,-7.26193519,8.62401020
2.38238789,0.14399418,0.67032407,-2.08208926

>  <Name>
1tob

>  <RI>
0

>  <Rbt.Current_Directory>
/home/itssahil/PROJECTS/Mol_Feturizer/New_Systems/rnas/1tob

>  <Rbt.Executable>
rbdock ($Id: //depot/dev/client3/rdock/2013.1/src/exe/rbdock.cxx#4 $)

>  <Rbt.Library>
libRbt.so (2013.1, Build901 2013/11/27)

>  <Rbt.Parameter_File>
/export/apps/rDock/src/rDock_2013.1_src/data/scripts/dock_solv.prm

>  <Rbt.Receptor>
prm/pocket_docking_4.prm

>  <SCORE>
-26.3619

>  <SCORE.INTER>
-20.8981

>  <SCORE.INTER.CONST>
1

>  <SCORE.INTER.POLAR>
-4.13303

>  <SCORE.INTER.ROT>
6

>  <SCORE.INTER.SOLV>
17.5222

>  <SCORE.INTER.VDW>
-13.5961

>  <SCORE.INTER.norm>
-0.653065

>  <SCORE.INTRA>
-5.46377

>  <SCORE.INTRA.DIHEDRAL>
-8.81812

>  <SCORE.INTRA.DIHEDRAL.0>
22.9177

>  <SCORE.INTRA.POLAR>
-0.540833

>  <SCORE.INTRA.POLAR.0>
-0.311208

>  <SCORE.INTRA.REPUL>
0

>  <SCORE.INTRA.REPUL.0>
0

>  <SCORE.INTRA.SOLV>
-4.50846

>  <SCORE.INTRA.SOLV.lig_0>
-132.657

>  <SCORE.INTRA.VDW>
3.03836

>  <SCORE.INTRA.VDW.0>
-4.68867

>  <SCORE.INTRA.norm>
-0.170743

>  <SCORE.RESTR>
0

>  <SCORE.RESTR.CAVITY>
0

>  <SCORE.RESTR.norm>
0

>  <SCORE.SYSTEM>
0

>  <SCORE.SYSTEM.CONST>
0

>  <SCORE.SYSTEM.DIHEDRAL>
0

>  <SCORE.SYSTEM.SOLV>
0

>  <SCORE.SYSTEM.norm>
0

>  <SCORE.heavy>
32

>  <SCORE.norm>
-0.823808

>  <RMSD>
4.438

$$$$
1tob
 OpenBabel11021811413D
libRbt.so/2013.1/901 2013/11/27
 32 34  0  0  0  0  0  0  0  0999 V2000
   -1.1438    2.8243    4.5397 C   0  0  2  0  0  0  0  0  0  0  0  0
   -1.0133    3.5969    5.8501 C   0  0  1  0  0  0  0  0  0  0  0  0
    0.4466    3.9564    6.0901 C   0  0  2  0  0  0  0  0  0  0  0  0
    1.2914    2.6883    6.0604 C   0  0  1  0  0  0  0  0  0  0  0  0
    1.0755    1.9523    4.7410 C   0  0  1  0  0  0  0  0  0  0  0  0
    1.8317    0.6396    4.6819 C   0  0  0  0  0  0  0  0  0  0  0  0
   -1.7942    4.7817    5.7879 O   0  0  0  0  0  0  0  0  0  0  0  0
    0.6117    4.7007    7.3575 N   0  3  0  0  0  0  0  0  0  0  0  0
    2.6644    3.0215    6.2151 O   0  0  0  0  0  0  0  0  0  0  0  0
   -0.3254    1.6481    4.5676 O   0  0  0  0  0  0  0  0  0  0  0  0
    1.5036   -0.0960    3.5117 O   0  0  0  0  0  0  0  0  0  0  0  0
   -2.7228    2.6612    2.4715 C   0  0  2  0  0  0  0  0  0  0  0  0
   -3.7722    2.8838    1.3910 C   0  0  0  0  0  0  0  0  0  0  0  0
   -4.5065    4.2046    1.6233 C   0  0  1  0  0  0  0  0  0  0  0  0
   -3.5077    5.3595    1.6006 C   0  0  2  0  0  0  0  0  0  0  0  0
   -2.4402    5.1485    2.6755 C   0  0  1  0  0  0  0  0  0  0  0  0
   -1.7299    3.8132    2.4556 C   0  0  1  0  0  0  0  0  0  0  0  0
   -1.9864    1.4005    2.2333 N   0  3  0  0  0  0  0  0  0  0  0  0
   -5.5834    4.3685    0.6126 N   0  3  0  0  0  0  0  0  0  0  0  0
   -1.4969    6.2108    2.6327 O   0  0  0  0  0  0  0  0  0  0  0  0
   -0.7385    3.6131    3.4793 O   0  0  0  0  0  0  0  0  0  0  0  0
   -3.3916    7.7482    1.8109 C   0  0  1  0  0  0  0  0  0  0  0  0
   -4.1410    8.9271    2.4342 C   0  0  1  0  0  0  0  0  0  0  0  0
   -5.3729    9.2651    1.6080 C   0  0  0  0  0  0  0  0  0  0  0  0
   -4.9560    9.5216    0.1690 C   0  0  1  0  0  0  0  0  0  0  0  0
   -4.1968    8.3106   -0.3720 C   0  0  1  0  0  0  0  0  0  0  0  0
   -3.6971    8.5192   -1.7901 C   0  0  0  0  0  0  0  0  0  0  0  0
   -4.4800    8.6553    3.8511 N   0  3  0  0  0  0  0  0  0  0  0  0
   -4.7849    8.3402   -2.7812 N   0  3  0  0  0  0  0  0  0  0  0  0
   -4.1887    6.6113    1.8233 O   0  0  0  0  0  0  0  0  0  0  0  0
   -6.1024    9.7718   -0.6310 O   0  0  0  0  0  0  0  0  0  0  0  0
   -3.0425    8.0385    0.4518 O   0  0  0  0  0  0  0  0  0  0  0  0
  1  2  1  0  0  0  0
  1 10  1  0  0  0  0
  1 21  1  6  0  0  0
  2  3  1  0  0  0  0
  2  7  1  6  0  0  0
  3  4  1  0  0  0  0
  3  8  1  1  0  0  0
  4  5  1  0  0  0  0
  4  9  1  6  0  0  0
  5  6  1  1  0  0  0
  5 10  1  0  0  0  0
  6 11  1  0  0  0  0
 12 13  1  0  0  0  0
 12 17  1  0  0  0  0
 12 18  1  6  0  0  0
 13 14  1  0  0  0  0
 14 15  1  0  0  0  0
 14 19  1  6  0  0  0
 15 16  1  0  0  0  0
 15 30  1  1  0  0  0
 16 17  1  0  0  0  0
 16 20  1  6  0  0  0
 17 21  1  1  0  0  0
 22 23  1  0  0  0  0
 22 30  1  6  0  0  0
 22 32  1  0  0  0  0
 23 24  1  0  0  0  0
 23 28  1  1  0  0  0
 24 25  1  0  0  0  0
 25 26  1  0  0  0  0
 25 31  1  6  0  0  0
 26 27  1  6  0  0  0
 26 32  1  0  0  0  0
 27 29  1  0  0  0  0
M  CHG  5   8   1  18   1  19   1  28   1  29   1
M  END
>  <CHROM.1>
-122.20046763,-58.65541816,64.35660079,70.58408282,173.62205788,73.74859403
62.81168441,171.13750785,-179.26548819,-54.49221558,-24.84266021,-164.19402157
40.10365782,160.78764356,-78.35654718,-98.72903532,-2.23129699,5.10023392
2.71723013,0.28948494,0.94088816,-2.61774209

>  <Name>
1tob

>  <RI>
0

>  <Rbt.Current_Directory>
/home/itssahil/PROJECTS/Mol_Feturizer/New_Systems/rnas/1tob

>  <Rbt.Executable>
rbdock ($Id: //depot/dev/client3/rdock/2013.1/src/exe/rbdock.cxx#4 $)

>  <Rbt.Library>
libRbt.so (2013.1, Build901 2013/11/27)

>  <Rbt.Parameter_File>
/export/apps/rDock/src/rDock_2013.1_src/data/scripts/dock_solv.prm

>  <Rbt.Receptor>
prm/pocket_docking_6.prm

>  <SCORE>
-48.1588

>  <SCORE.INTER>
-49.5174

>  <SCORE.INTER.CONST>
1

>  <SCORE.INTER.POLAR>
-8.49039

>  <SCORE.INTER.ROT>
6

>  <SCORE.INTER.SOLV>
24.836

>  <SCORE.INTER.VDW>
-20.589

>  <SCORE.INTER.norm>
-1.54742

>  <SCORE.INTRA>
1.35869

>  <SCORE.INTRA.DIHEDRAL>
-1.59605

>  <SCORE.INTRA.DIHEDRAL.0>
22.9177

>  <SCORE.INTRA.POLAR>
-0.997194

>  <SCORE.INTRA.POLAR.0>
-0.311208

>  <SCORE.INTRA.REPUL>
0

>  <SCORE.INTRA.REPUL.0>
0

>  <SCORE.INTRA.SOLV>
-2.54247

>  <SCORE.INTRA.SOLV.lig_0>
-132.657

>  <SCORE.INTRA.VDW>
6.81841

>  <SCORE.INTRA.VDW.0>
-4.68867

>  <SCORE.INTRA.norm>
0.0424589

>  <SCORE.RESTR>
0

>  <SCORE.RESTR.CAVITY>
0

>  <SCORE.RESTR.norm>
0

>  <SCORE.SYSTEM>
0

>  <SCORE.SYSTEM.CONST>
0

>  <SCORE.SYSTEM.DIHEDRAL>
0

>  <SCORE.SYSTEM.SOLV>
0

>  <SCORE.SYSTEM.norm>
0

>  <SCORE.heavy>
32

>  <SCORE.norm>
-1.50496

>  <RMSD>
4.460

$$$$
1tob
 OpenBabel11021811413D
libRbt.so/2013.1/901 2013/11/27
 32 34  0  0  0  0  0  0  0  0999 V2000
   -1.4239    3.4287    2.9745 C   0  0  2  0  0  0  0  0  0  0  0  0
   -1.2265    2.0504    2.3480 C   0  0  1  0  0  0  0  0  0  0  0  0
   -0.8806    1.0391    3.4323 C   0  0  2  0  0  0  0  0  0  0  0  0
    0.3417    1.5225    4.2037 C   0  0  1  0  0  0  0  0  0  0  0  0
    0.0832    2.9192    4.7620 C   0  0  1  0  0  0  0  0  0  0  0  0
    1.2934    3.4882    5.4765 C   0  0  0  0  0  0  0  0  0  0  0  0
   -2.4164    1.6513    1.6829 O   0  0  0  0  0  0  0  0  0  0  0  0
   -0.6746   -0.3087    2.8591 N   0  3  0  0  0  0  0  0  0  0  0  0
    0.6306    0.6190    5.2621 O   0  0  0  0  0  0  0  0  0  0  0  0
   -0.2474    3.8275    3.6893 O   0  0  0  0  0  0  0  0  0  0  0  0
    2.3778    3.6888    4.5810 O   0  0  0  0  0  0  0  0  0  0  0  0
   -2.8722    5.7903    3.7955 C   0  0  2  0  0  0  0  0  0  0  0  0
   -3.9383    6.8497    3.5524 C   0  0  0  0  0  0  0  0  0  0  0  0
   -4.5290    6.7015    2.1500 C   0  0  1  0  0  0  0  0  0  0  0  0
   -5.1523    5.3158    1.9981 C   0  0  2  0  0  0  0  0  0  0  0  0
   -4.0965    4.2376    2.2469 C   0  0  1  0  0  0  0  0  0  0  0  0
   -3.4886    4.4087    3.6387 C   0  0  1  0  0  0  0  0  0  0  0  0
   -2.3202    5.9080    5.1630 N   0  3  0  0  0  0  0  0  0  0  0  0
   -5.5058    7.7920    1.8953 N   0  3  0  0  0  0  0  0  0  0  0  0
   -4.6867    2.9497    2.1321 O   0  0  0  0  0  0  0  0  0  0  0  0
   -2.4848    3.4018    3.8603 O   0  0  0  0  0  0  0  0  0  0  0  0
   -6.8426    4.3657    0.5824 C   0  0  1  0  0  0  0  0  0  0  0  0
   -7.3043    4.2714   -0.8729 C   0  0  1  0  0  0  0  0  0  0  0  0
   -7.7088    5.6446   -1.3878 C   0  0  0  0  0  0  0  0  0  0  0  0
   -8.7654    6.2334   -0.4675 C   0  0  1  0  0  0  0  0  0  0  0  0
   -8.2372    6.2730    0.9660 C   0  0  1  0  0  0  0  0  0  0  0  0
   -9.2640    6.7971    1.9535 C   0  0  0  0  0  0  0  0  0  0  0  0
   -6.2655    3.6433   -1.7230 N   0  3  0  0  0  0  0  0  0  0  0  0
   -9.2174    8.2755    2.0522 N   0  3  0  0  0  0  0  0  0  0  0  0
   -5.7093    5.1625    0.6764 O   0  0  0  0  0  0  0  0  0  0  0  0
   -9.1052    7.5444   -0.8950 O   0  0  0  0  0  0  0  0  0  0  0  0
   -7.8691    4.9449    1.3973 O   0  0  0  0  0  0  0  0  0  0  0  0
  1  2  1  0  0  0  0
  1 10  1  0  0  0  0
  1 21  1  1  0  0  0
  2  3  1  0  0  0  0
  2  7  1  1  0  0  0
  3  4  1  0  0  0  0
  3  8  1  6  0  0  0
  4  5  1  0  0  0  0
  4  9  1  1  0  0  0
  5  6  1  6  0  0  0
  5 10  1  0  0  0  0
  6 11  1  0  0  0  0
 12 13  1  0  0  0  0
 12 17  1  0  0  0  0
 12 18  1  1  0  0  0
 13 14  1  0  0  0  0
 14 15  1  0  0  0  0
 14 19  1  1  0  0  0
 15 16  1  0  0  0  0
 15 30  1  6  0  0  0
 16 17  1  0  0  0  0
 16 20  1  1  0  0  0
 17 21  1  6  0  0  0
 22 23  1  0  0  0  0
 22 30  1  6  0  0  0
 22 32  1  0  0  0  0
 23 24  1  0  0  0  0
 23 28  1  6  0  0  0
 24 25  1  0  0  0  0
 25 26  1  0  0  0  0
 25 31  1  6  0  0  0
 26 27  1  1  0  0  0
 26 32  1  0  0  0  0
 27 29  1  0  0  0  0
M  CHG  5   8   1  18   1  19   1  28   1  29   1
M  END
>  <CHROM.1>
-127.08105402,156.76342810,-12.86905436,-61.18923587,64.56631990,-179.90588315
166.72912017,-50.01813569,-147.22948053,173.00137644,-61.64093228,-178.89888154
77.23610614,163.18467762,-87.19253822,-172.85329988,-3.97107828,4.37973408
2.31594800,0.14413333,0.58511852,-2.58440295

>  <Name>
1tob

>  <RI>
0

>  <Rbt.Current_Directory>
/home/itssahil/PROJECTS/Mol_Feturizer/New_Systems/rnas/1tob

>  <Rbt.Executable>
rbdock ($Id: //depot/dev/client3/rdock/2013.1/src/exe/rbdock.cxx#4 $)

>  <Rbt.Library>
libRbt.so (2013.1, Build901 2013/11/27)

>  <Rbt.Parameter_File>
/export/apps/rDock/src/rDock_2013.1_src/data/scripts/dock_solv.prm

>  <Rbt.Receptor>
prm/blind_docking_80.prm

>  <SCORE>
-25.2397

>  <SCORE.INTER>
-32.927

>  <SCORE.INTER.CONST>
1

>  <SCORE.INTER.POLAR>
-3.81539

>  <SCORE.INTER.ROT>
6

>  <SCORE.INTER.SOLV>
36.4481

>  <SCORE.INTER.VDW>
-28.9827

>  <SCORE.INTER.norm>
-1.02897

>  <SCORE.INTRA>
-1.42063

>  <SCORE.INTRA.DIHEDRAL>
-1.05945

>  <SCORE.INTRA.DIHEDRAL.0>
22.9177

>  <SCORE.INTRA.POLAR>
-0.655979

>  <SCORE.INTRA.POLAR.0>
-0.311208

>  <SCORE.INTRA.REPUL>
0

>  <SCORE.INTRA.REPUL.0>
0

>  <SCORE.INTRA.SOLV>
0.629221

>  <SCORE.INTRA.SOLV.lig_0>
-132.657

>  <SCORE.INTRA.VDW>
1.02481

>  <SCORE.INTRA.VDW.0>
-4.68867

>  <SCORE.INTRA.norm>
-0.0443947

>  <SCORE.RESTR>
9.10791

>  <SCORE.RESTR.CAVITY>
9.10791

>  <SCORE.RESTR.norm>
0.284622

>  <SCORE.SYSTEM>
0

>  <SCORE.SYSTEM.CONST>
0

>  <SCORE.SYSTEM.DIHEDRAL>
0

>  <SCORE.SYSTEM.SOLV>
0

>  <SCORE.SYSTEM.norm>
0

>  <SCORE.heavy>
32

>  <SCORE.norm>
-0.78874

>  <RMSD>
4.468

$$$$
1tob
 OpenBabel11021811413D
libRbt.so/2013.1/901 2013/11/27
 32 34  0  0  0  0  0  0  0  0999 V2000
   -0.3866    0.9437    3.9732 C   0  0  2  0  0  0  0  0  0  0  0  0
    0.4224    0.9773    5.2676 C   0  0  1  0  0  0  0  0  0  0  0  0
    0.6664    2.4219    5.6823 C   0  0  2  0  0  0  0  0  0  0  0  0
    1.3422    3.1692    4.5389 C   0  0  1  0  0  0  0  0  0  0  0  0
    0.4968    3.0547    3.2734 C   0  0  1  0  0  0  0  0  0  0  0  0
    1.1552    3.7144    2.0777 C   0  0  0  0  0  0  0  0  0  0  0  0
   -0.2867    0.2978    6.2938 O   0  0  0  0  0  0  0  0  0  0  0  0
    1.4554    2.4926    6.9313 N   0  3  0  0  0  0  0  0  0  0  0  0
    1.5117    4.5356    4.8913 O   0  0  0  0  0  0  0  0  0  0  0  0
    0.2936    1.6649    2.9382 O   0  0  0  0  0  0  0  0  0  0  0  0
    2.5412    3.4093    2.0147 O   0  0  0  0  0  0  0  0  0  0  0  0
   -2.7933    2.0131    2.1068 C   0  0  2  0  0  0  0  0  0  0  0  0
   -3.1466    3.1323    1.1368 C   0  0  0  0  0  0  0  0  0  0  0  0
   -3.9243    4.2358    1.8544 C   0  0  1  0  0  0  0  0  0  0  0  0
   -3.0794    4.8040    2.9925 C   0  0  2  0  0  0  0  0  0  0  0  0
   -2.7079    3.6911    3.9737 C   0  0  1  0  0  0  0  0  0  0  0  0
   -1.9568    2.5773    3.2450 C   0  0  1  0  0  0  0  0  0  0  0  0
   -2.0120    0.9578    1.4254 N   0  3  0  0  0  0  0  0  0  0  0  0
   -4.3358    5.2795    0.8801 N   0  3  0  0  0  0  0  0  0  0  0  0
   -1.8984    4.2184    5.0162 O   0  0  0  0  0  0  0  0  0  0  0  0
   -1.6247    1.5261    4.1699 O   0  0  0  0  0  0  0  0  0  0  0  0
   -3.1140    7.0290    3.8935 C   0  0  1  0  0  0  0  0  0  0  0  0
   -3.1437    7.3997    5.3773 C   0  0  1  0  0  0  0  0  0  0  0  0
   -4.5737    7.6566    5.8282 C   0  0  0  0  0  0  0  0  0  0  0  0
   -5.1958    8.7207    4.9387 C   0  0  1  0  0  0  0  0  0  0  0  0
   -5.1073    8.2869    3.4760 C   0  0  1  0  0  0  0  0  0  0  0  0
   -5.6586    9.3310    2.5220 C   0  0  0  0  0  0  0  0  0  0  0  0
   -2.4799    6.3612    6.2004 N   0  3  0  0  0  0  0  0  0  0  0  0
   -5.1444    9.1342    1.1455 N   0  3  0  0  0  0  0  0  0  0  0  0
   -3.8050    5.8437    3.6803 O   0  0  0  0  0  0  0  0  0  0  0  0
   -6.5534    8.9241    5.3026 O   0  0  0  0  0  0  0  0  0  0  0  0
   -3.7300    8.0569    3.1079 O   0  0  0  0  0  0  0  0  0  0  0  0
  1  2  1  0  0  0  0
  1 10  1  0  0  0  0
  1 21  1  1  0  0  0
  2  3  1  0  0  0  0
  2  7  1  1  0  0  0
  3  4  1  0  0  0  0
  3  8  1  1  0  0  0
  4  5  1  0  0  0  0
  4  9  1  1  0  0  0
  5  6  1  6  0  0  0
  5 10  1  0  0  0  0
  6 11  1  0  0  0  0
 12 13  1  0  0  0  0
 12 17  1  0  0  0  0
 12 18  1  6  0  0  0
 13 14  1  0  0  0  0
 14 15  1  0  0  0  0
 14 19  1  6  0  0  0
 15 16  1  0  0  0  0
 15 30  1  1  0  0  0
 16 17  1  0  0  0  0
 16 20  1  1  0  0  0
 17 21  1  1  0  0  0
 22 23  1  0  0  0  0
 22 30  1  1  0  0  0
 22 32  1  0  0  0  0
 23 24  1  0  0  0  0
 23 28  1  1  0  0  0
 24 25  1  0  0  0  0
 25 26  1  0  0  0  0
 25 31  1  1  0  0  0
 26 27  1  6  0  0  0
 26 32  1  0  0  0  0
 27 29  1  0  0  0  0
M  CHG  5   8   1  18   1  19   1  28   1  29   1
M  END
>  <CHROM.1>
126.44761598,-102.67729531,-174.53643779,-36.93645630,43.28336414,-178.24589881
-31.57185281,-93.43032098,-131.24308556,-63.35744188,95.86998076,-125.96707369
-144.68151063,-53.10235147,159.69166507,-165.83829076,-2.06501068,4.56353730
3.76042090,0.36767891,0.79300625,-2.16920530

>  <Name>
1tob

>  <RI>
0

>  <Rbt.Current_Directory>
/home/itssahil/PROJECTS/Mol_Feturizer/New_Systems/rnas/1tob

>  <Rbt.Executable>
rbdock ($Id: //depot/dev/client3/rdock/2013.1/src/exe/rbdock.cxx#4 $)

>  <Rbt.Library>
libRbt.so (2013.1, Build901 2013/11/27)

>  <Rbt.Parameter_File>
/export/apps/rDock/src/rDock_2013.1_src/data/scripts/dock_solv.prm

>  <Rbt.Receptor>
prm/blind_docking_20.prm

>  <SCORE>
-9.20121

>  <SCORE.INTER>
-36.4219

>  <SCORE.INTER.CONST>
1

>  <SCORE.INTER.POLAR>
-4.47224

>  <SCORE.INTER.ROT>
6

>  <SCORE.INTER.SOLV>
31.4454

>  <SCORE.INTER.VDW>
-27.4556

>  <SCORE.INTER.norm>
-1.13818

>  <SCORE.INTRA>
17.2817

>  <SCORE.INTRA.DIHEDRAL>
19.818

>  <SCORE.INTRA.DIHEDRAL.0>
22.9177

>  <SCORE.INTRA.POLAR>
-1.4701

>  <SCORE.INTRA.POLAR.0>
-0.311208

>  <SCORE.INTRA.REPUL>
0

>  <SCORE.INTRA.REPUL.0>
0

>  <SCORE.INTRA.SOLV>
3.4876

>  <SCORE.INTRA.SOLV.lig_0>
-132.657

>  <SCORE.INTRA.VDW>
10.6272

>  <SCORE.INTRA.VDW.0>
-4.68867

>  <SCORE.INTRA.norm>
0.540054

>  <SCORE.RESTR>
9.93894

>  <SCORE.RESTR.CAVITY>
9.93894

>  <SCORE.RESTR.norm>
0.310592

>  <SCORE.SYSTEM>
0

>  <SCORE.SYSTEM.CONST>
0

>  <SCORE.SYSTEM.DIHEDRAL>
0

>  <SCORE.SYSTEM.SOLV>
0

>  <SCORE.SYSTEM.norm>
0

>  <SCORE.heavy>
32

>  <SCORE.norm>
-0.287538

>  <RMSD>
4.472

$$$$
1tob
 OpenBabel11021811413D
libRbt.so/2013.1/901 2013/11/27
 32 34  0  0  0  0  0  0  0  0999 V2000
   -1.8429    3.6622    3.1952 C   0  0  2  0  0  0  0  0  0  0  0  0
   -1.8059    2.3097    2.4879 C   0  0  1  0  0  0  0  0  0  0  0  0
   -1.4802    1.2139    3.4936 C   0  0  2  0  0  0  0  0  0  0  0  0
   -0.1739    1.5502    4.2028 C   0  0  1  0  0  0  0  0  0  0  0  0
   -0.2743    2.9300    4.8473 C   0  0  1  0  0  0  0  0  0  0  0  0
    1.0237    3.3557    5.5050 C   0  0  0  0  0  0  0  0  0  0  0  0
   -3.0660    2.0485    1.8866 O   0  0  0  0  0  0  0  0  0  0  0  0
   -1.4287   -0.1120    2.8403 N   0  3  0  0  0  0  0  0  0  0  0  0
    0.1030    0.5679    5.1919 O   0  0  0  0  0  0  0  0  0  0  0  0
   -0.5931    3.9214    3.8470 O   0  0  0  0  0  0  0  0  0  0  0  0
    2.0679    3.4930    4.5516 O   0  0  0  0  0  0  0  0  0  0  0  0
   -3.1029    6.0769    4.2788 C   0  0  2  0  0  0  0  0  0  0  0  0
   -4.1131    7.2069    4.1348 C   0  0  0  0  0  0  0  0  0  0  0  0
   -4.7239    7.2023    2.7332 C   0  0  1  0  0  0  0  0  0  0  0  0
   -5.4219    5.8679    2.4805 C   0  0  2  0  0  0  0  0  0  0  0  0
   -4.4230    4.7192    2.6289 C   0  0  1  0  0  0  0  0  0  0  0  0
   -3.7939    4.7466    4.0215 C   0  0  1  0  0  0  0  0  0  0  0  0
   -2.5328    6.0560    5.6437 N   0  3  0  0  0  0  0  0  0  0  0  0
   -5.6433    8.3595    2.5789 N   0  3  0  0  0  0  0  0  0  0  0  0
   -5.0823    3.4774    2.4206 O   0  0  0  0  0  0  0  0  0  0  0  0
   -2.8433    3.6738    4.1492 O   0  0  0  0  0  0  0  0  0  0  0  0
   -7.0022    4.9144    0.9452 C   0  0  1  0  0  0  0  0  0  0  0  0
   -6.7955    4.2134   -0.3986 C   0  0  1  0  0  0  0  0  0  0  0  0
   -6.9021    5.2156   -1.5382 C   0  0  0  0  0  0  0  0  0  0  0  0
   -8.2356    5.9391   -1.4458 C   0  0  1  0  0  0  0  0  0  0  0  0
   -8.3744    6.5921   -0.0710 C   0  0  1  0  0  0  0  0  0  0  0  0
   -9.7116    7.2860    0.1146 C   0  0  0  0  0  0  0  0  0  0  0  0
   -5.5094    3.4775   -0.4246 N   0  3  0  0  0  0  0  0  0  0  0  0
  -10.0082    7.5189    1.5483 N   0  3  0  0  0  0  0  0  0  0  0  0
   -5.9986    5.8500    1.1586 O   0  0  0  0  0  0  0  0  0  0  0  0
   -8.3231    6.9269   -2.4624 O   0  0  0  0  0  0  0  0  0  0  0  0
   -8.2634    5.5942    0.9670 O   0  0  0  0  0  0  0  0  0  0  0  0
  1  2  1  0  0  0  0
  1 10  1  0  0  0  0
  1 21  1  1  0  0  0
  2  3  1  0  0  0  0
  2  7  1  1  0  0  0
  3  4  1  0  0  0  0
  3  8  1  6  0  0  0
  4  5  1  0  0  0  0
  4  9  1  1  0  0  0
  5  6  1  6  0  0  0
  5 10  1  0  0  0  0
  6 11  1  0  0  0  0
 12 13  1  0  0  0  0
 12 17  1  0  0  0  0
 12 18  1  1  0  0  0
 13 14  1  0  0  0  0
 14 15  1  0  0  0  0
 14 19  1  1  0  0  0
 15 16  1  0  0  0  0
 15 30  1  6  0  0  0
 16 17  1  0  0  0  0
 16 20  1  1  0  0  0
 17 21  1  6  0  0  0
 22 23  1  0  0  0  0
 22 30  1  6  0  0  0
 22 32  1  0  0  0  0
 23 24  1  0  0  0  0
 23 28  1  1  0  0  0
 24 25  1  0  0  0  0
 25 26  1  0  0  0  0
 25 31  1  6  0  0  0
 26 27  1  6  0  0  0
 26 32  1  0  0  0  0
 27 29  1  0  0  0  0
M  CHG  5   8   1  18   1  19   1  28   1  29   1
M  END
>  <CHROM.1>
-125.13694282,156.53891758,73.48618033,-57.32396827,63.54792006,65.64974535
45.09341019,-55.24713130,-160.11470831,-169.98132297,-65.97968149,-135.85330741
43.38442910,66.13892886,161.46735144,84.94149252,-4.18642782,4.53798061,2.36267763
0.08409192,0.64688144,-2.54251795

>  <Name>
1tob

>  <RI>
0

>  <Rbt.Current_Directory>
/home/itssahil/PROJECTS/Mol_Feturizer/New_Systems/rnas/1tob

>  <Rbt.Executable>
rbdock ($Id: //depot/dev/client3/rdock/2013.1/src/exe/rbdock.cxx#4 $)

>  <Rbt.Library>
libRbt.so (2013.1, Build901 2013/11/27)

>  <Rbt.Parameter_File>
/export/apps/rDock/src/rDock_2013.1_src/data/scripts/dock_solv.prm

>  <Rbt.Receptor>
prm/blind_docking_80.prm

>  <SCORE>
-38.3626

>  <SCORE.INTER>
-42.6205

>  <SCORE.INTER.CONST>
1

>  <SCORE.INTER.POLAR>
-5.56968

>  <SCORE.INTER.ROT>
6

>  <SCORE.INTER.SOLV>
34.8826

>  <SCORE.INTER.VDW>
-29.0756

>  <SCORE.INTER.norm>
-1.33189

>  <SCORE.INTRA>
-4.62433

>  <SCORE.INTRA.DIHEDRAL>
-0.471658

>  <SCORE.INTRA.DIHEDRAL.0>
22.9177

>  <SCORE.INTRA.POLAR>
-1.3535

>  <SCORE.INTRA.POLAR.0>
-0.311208

>  <SCORE.INTRA.REPUL>
0

>  <SCORE.INTRA.REPUL.0>
0

>  <SCORE.INTRA.SOLV>
-1.4441

>  <SCORE.INTRA.SOLV.lig_0>
-132.657

>  <SCORE.INTRA.VDW>
0.935464

>  <SCORE.INTRA.VDW.0>
-4.68867

>  <SCORE.INTRA.norm>
-0.14451

>  <SCORE.RESTR>
8.88223

>  <SCORE.RESTR.CAVITY>
8.88223

>  <SCORE.RESTR.norm>
0.27757

>  <SCORE.SYSTEM>
0

>  <SCORE.SYSTEM.CONST>
0

>  <SCORE.SYSTEM.DIHEDRAL>
0

>  <SCORE.SYSTEM.SOLV>
0

>  <SCORE.SYSTEM.norm>
0

>  <SCORE.heavy>
32

>  <SCORE.norm>
-1.19883

>  <RMSD>
4.478

$$$$
1tob
 OpenBabel11021811413D
libRbt.so/2013.1/901 2013/11/27
 32 34  0  0  0  0  0  0  0  0999 V2000
   -3.1955    4.2198    2.7860 C   0  0  2  0  0  0  0  0  0  0  0  0
   -2.3463    3.0556    2.2814 C   0  0  1  0  0  0  0  0  0  0  0  0
   -0.8737    3.4409    2.3192 C   0  0  2  0  0  0  0  0  0  0  0  0
   -0.6649    4.7205    1.5183 C   0  0  1  0  0  0  0  0  0  0  0  0
   -1.5756    5.8219    2.0540 C   0  0  1  0  0  0  0  0  0  0  0  0
   -1.4701    7.1013    1.2475 C   0  0  0  0  0  0  0  0  0  0  0  0
   -2.5637    1.9142    3.0984 O   0  0  0  0  0  0  0  0  0  0  0  0
   -0.0204    2.3368    1.8291 N   0  3  0  0  0  0  0  0  0  0  0  0
    0.6947    5.1256    1.6050 O   0  0  0  0  0  0  0  0  0  0  0  0
   -2.9537    5.3939    2.0005 O   0  0  0  0  0  0  0  0  0  0  0  0
   -2.3372    7.0785    0.1225 O   0  0  0  0  0  0  0  0  0  0  0  0
   -2.9196    6.5304    5.4239 C   0  0  2  0  0  0  0  0  0  0  0  0
   -3.8461    7.5355    6.0945 C   0  0  0  0  0  0  0  0  0  0  0  0
   -4.7786    8.1729    5.0642 C   0  0  1  0  0  0  0  0  0  0  0  0
   -5.6159    7.0894    4.3882 C   0  0  2  0  0  0  0  0  0  0  0  0
   -4.7007    6.0653    3.7153 C   0  0  1  0  0  0  0  0  0  0  0  0
   -3.7509    5.4532    4.7443 C   0  0  1  0  0  0  0  0  0  0  0  0
   -2.0372    5.8862    6.4213 N   0  3  0  0  0  0  0  0  0  0  0  0
   -5.6178    9.2114    5.7163 N   0  3  0  0  0  0  0  0  0  0  0  0
   -5.4828    5.0437    3.1113 O   0  0  0  0  0  0  0  0  0  0  0  0
   -2.8818    4.5029    4.1022 O   0  0  0  0  0  0  0  0  0  0  0  0
   -5.8806    8.3149    2.3408 C   0  0  1  0  0  0  0  0  0  0  0  0
   -6.9159    9.0710    1.5062 C   0  0  1  0  0  0  0  0  0  0  0  0
   -7.9167    8.0987    0.9001 C   0  0  0  0  0  0  0  0  0  0  0  0
   -7.1689    7.0426    0.1026 C   0  0  1  0  0  0  0  0  0  0  0  0
   -6.1421    6.3505    0.9982 C   0  0  1  0  0  0  0  0  0  0  0  0
   -5.3146    5.3202    0.2513 C   0  0  0  0  0  0  0  0  0  0  0  0
   -7.5813   10.1250    2.3080 N   0  3  0  0  0  0  0  0  0  0  0  0
   -6.1636    4.2360   -0.2976 N   0  3  0  0  0  0  0  0  0  0  0  0
   -6.4970    7.6787    3.4101 O   0  0  0  0  0  0  0  0  0  0  0  0
   -8.0836    6.0869   -0.4140 O   0  0  0  0  0  0  0  0  0  0  0  0
   -5.2233    7.3217    1.5441 O   0  0  0  0  0  0  0  0  0  0  0  0
  1  2  1  0  0  0  0
  1 10  1  0  0  0  0
  1 21  1  1  0  0  0
  2  3  1  0  0  0  0
  2  7  1  1  0  0  0
  3  4  1  0  0  0  0
  3  8  1  6  0  0  0
  4  5  1  0  0  0  0
  4  9  1  1  0  0  0
  5  6  1  6  0  0  0
  5 10  1  0  0  0  0
  6 11  1  0  0  0  0
 12 13  1  0  0  0  0
 12 17  1  0  0  0  0
 12 18  1  1  0  0  0
 13 14  1  0  0  0  0
 14 15  1  0  0  0  0
 14 19  1  1  0  0  0
 15 16  1  0  0  0  0
 15 30  1  6  0  0  0
 16 17  1  0  0  0  0
 16 20  1  1  0  0  0
 17 21  1  6  0  0  0
 22 23  1  0  0  0  0
 22 30  1  1  0  0  0
 22 32  1  0  0  0  0
 23 24  1  0  0  0  0
 23 28  1  1  0  0  0
 24 25  1  0  0  0  0
 25 26  1  0  0  0  0
 25 31  1  1  0  0  0
 26 27  1  6  0  0  0
 26 32  1  0  0  0  0
 27 29  1  0  0  0  0
M  CHG  5   8   1  18   1  19   1  28   1  29   1
M  END
>  <CHROM.1>
-171.45012993,61.88433837,174.99413474,85.55568489,85.71278975,-174.27290127
-84.02169919,157.75973575,63.30779188,-104.43446092,-130.31516384,-171.33679377
-45.17782947,-36.87608448,-61.34452511,-86.38575813,-4.11674843,6.07817424
2.55598889,0.21041343,0.58928361,-2.05836096

>  <Name>
1tob

>  <RI>
0

>  <Rbt.Current_Directory>
/home/itssahil/PROJECTS/Mol_Feturizer/New_Systems/rnas/1tob

>  <Rbt.Executable>
rbdock ($Id: //depot/dev/client3/rdock/2013.1/src/exe/rbdock.cxx#4 $)

>  <Rbt.Library>
libRbt.so (2013.1, Build901 2013/11/27)

>  <Rbt.Parameter_File>
/export/apps/rDock/src/rDock_2013.1_src/data/scripts/dock_solv.prm

>  <Rbt.Receptor>
prm/blind_docking_60.prm

>  <SCORE>
-10.1286

>  <SCORE.INTER>
-29.7295

>  <SCORE.INTER.CONST>
1

>  <SCORE.INTER.POLAR>
-7.28184

>  <SCORE.INTER.ROT>
6

>  <SCORE.INTER.SOLV>
40.1145

>  <SCORE.INTER.VDW>
-16.5184

>  <SCORE.INTER.norm>
-0.929045

>  <SCORE.INTRA>
13.9574

>  <SCORE.INTRA.DIHEDRAL>
2.2204

>  <SCORE.INTRA.DIHEDRAL.0>
22.9177

>  <SCORE.INTRA.POLAR>
-0.734223

>  <SCORE.INTRA.POLAR.0>
-0.311208

>  <SCORE.INTRA.REPUL>
0.559861

>  <SCORE.INTRA.REPUL.0>
0

>  <SCORE.INTRA.SOLV>
-1.06018

>  <SCORE.INTRA.SOLV.lig_0>
-132.657

>  <SCORE.INTRA.VDW>
13.0744

>  <SCORE.INTRA.VDW.0>
-4.68867

>  <SCORE.INTRA.norm>
0.436169

>  <SCORE.RESTR>
5.64338

>  <SCORE.RESTR.CAVITY>
5.64338

>  <SCORE.RESTR.norm>
0.176356

>  <SCORE.SYSTEM>
0

>  <SCORE.SYSTEM.CONST>
0

>  <SCORE.SYSTEM.DIHEDRAL>
0

>  <SCORE.SYSTEM.SOLV>
0

>  <SCORE.SYSTEM.norm>
0

>  <SCORE.heavy>
32

>  <SCORE.norm>
-0.31652

>  <RMSD>
4.487

$$$$
1tob
 OpenBabel11021811413D
libRbt.so/2013.1/901 2013/11/27
 32 34  0  0  0  0  0  0  0  0999 V2000
    0.6623    4.2116    4.7873 C   0  0  2  0  0  0  0  0  0  0  0  0
    2.0373    3.5670    4.9454 C   0  0  1  0  0  0  0  0  0  0  0  0
    2.0352    2.6455    6.1575 C   0  0  2  0  0  0  0  0  0  0  0  0
    1.6011    3.4308    7.3893 C   0  0  1  0  0  0  0  0  0  0  0  0
    0.2416    4.0777    7.1391 C   0  0  1  0  0  0  0  0  0  0  0  0
   -0.2109    4.9382    8.3024 C   0  0  0  0  0  0  0  0  0  0  0  0
    2.3548    2.8223    3.7783 O   0  0  0  0  0  0  0  0  0  0  0  0
    3.3566    2.0083    6.3458 N   0  3  0  0  0  0  0  0  0  0  0  0
    1.5298    2.5627    8.5124 O   0  0  0  0  0  0  0  0  0  0  0  0
    0.3058    4.9298    5.9752 O   0  0  0  0  0  0  0  0  0  0  0  0
   -0.2187    4.2043    9.5187 O   0  0  0  0  0  0  0  0  0  0  0  0
   -1.6756    2.0963    2.9340 C   0  0  2  0  0  0  0  0  0  0  0  0
   -2.5085    2.3020    1.6761 C   0  0  0  0  0  0  0  0  0  0  0  0
   -3.6265    3.3124    1.9347 C   0  0  1  0  0  0  0  0  0  0  0  0
   -3.0236    4.6483    2.3634 C   0  0  2  0  0  0  0  0  0  0  0  0
   -2.1760    4.4593    3.6225 C   0  0  1  0  0  0  0  0  0  0  0  0
   -1.0788    3.4265    3.3671 C   0  0  1  0  0  0  0  0  0  0  0  0
   -0.5720    1.1443    2.6805 N   0  3  0  0  0  0  0  0  0  0  0  0
   -4.4819    3.4398    0.7264 N   0  3  0  0  0  0  0  0  0  0  0  0
   -1.5941    5.6992    4.0022 O   0  0  0  0  0  0  0  0  0  0  0  0
   -0.2954    3.2411    4.5599 O   0  0  0  0  0  0  0  0  0  0  0  0
   -3.8219    6.9053    2.1831 C   0  0  1  0  0  0  0  0  0  0  0  0
   -4.4442    7.9136    3.1506 C   0  0  1  0  0  0  0  0  0  0  0  0
   -5.9573    7.7574    3.1740 C   0  0  0  0  0  0  0  0  0  0  0  0
   -6.4958    7.8839    1.7582 C   0  0  1  0  0  0  0  0  0  0  0  0
   -5.8111    6.8612    0.8523 C   0  0  1  0  0  0  0  0  0  0  0  0
   -6.2586    6.9689   -0.5942 C   0  0  0  0  0  0  0  0  0  0  0  0
   -3.8522    7.7906    4.5036 N   0  3  0  0  0  0  0  0  0  0  0  0
   -5.7952    8.2337   -1.2133 N   0  3  0  0  0  0  0  0  0  0  0  0
   -4.0697    5.6090    2.6148 O   0  0  0  0  0  0  0  0  0  0  0  0
   -7.9002    7.6726    1.7527 O   0  0  0  0  0  0  0  0  0  0  0  0
   -4.3806    7.0578    0.8724 O   0  0  0  0  0  0  0  0  0  0  0  0
  1  2  1  0  0  0  0
  1 10  1  0  0  0  0
  1 21  1  1  0  0  0
  2  3  1  0  0  0  0
  2  7  1  6  0  0  0
  3  4  1  0  0  0  0
  3  8  1  1  0  0  0
  4  5  1  0  0  0  0
  4  9  1  1  0  0  0
  5  6  1  1  0  0  0
  5 10  1  0  0  0  0
  6 11  1  0  0  0  0
 12 13  1  0  0  0  0
 12 17  1  0  0  0  0
 12 18  1  6  0  0  0
 13 14  1  0  0  0  0
 14 15  1  0  0  0  0
 14 19  1  6  0  0  0
 15 16  1  0  0  0  0
 15 30  1  1  0  0  0
 16 17  1  0  0  0  0
 16 20  1  6  0  0  0
 17 21  1  1  0  0  0
 22 23  1  0  0  0  0
 22 30  1  1  0  0  0
 22 32  1  0  0  0  0
 23 24  1  0  0  0  0
 23 28  1  1  0  0  0
 24 25  1  0  0  0  0
 25 26  1  0  0  0  0
 25 31  1  1  0  0  0
 26 27  1  6  0  0  0
 26 32  1  0  0  0  0
 27 29  1  0  0  0  0
M  CHG  5   8   1  18   1  19   1  28   1  29   1
M  END
>  <CHROM.1>
-124.73901816,65.78132859,-178.59217888,-60.34363044,-55.01721759,178.32375526
-173.39792967,44.13137608,-140.24628784,167.62459749,157.85795739,-145.21752636
23.52168807,178.20896819,67.79429786,-62.25538516,-2.05005813,4.80273983
3.75708341,-0.26688343,0.72305449,-2.12371530

>  <Name>
1tob

>  <RI>
0

>  <Rbt.Current_Directory>
/home/itssahil/PROJECTS/Mol_Feturizer/New_Systems/rnas/1tob

>  <Rbt.Executable>
rbdock ($Id: //depot/dev/client3/rdock/2013.1/src/exe/rbdock.cxx#4 $)

>  <Rbt.Library>
libRbt.so (2013.1, Build901 2013/11/27)

>  <Rbt.Parameter_File>
/export/apps/rDock/src/rDock_2013.1_src/data/scripts/dock_solv.prm

>  <Rbt.Receptor>
prm/pocket_docking_6.prm

>  <SCORE>
-36.1071

>  <SCORE.INTER>
-30.9804

>  <SCORE.INTER.CONST>
1

>  <SCORE.INTER.POLAR>
-3.35902

>  <SCORE.INTER.ROT>
6

>  <SCORE.INTER.SOLV>
20.2465

>  <SCORE.INTER.VDW>
-23.8057

>  <SCORE.INTER.norm>
-0.968136

>  <SCORE.INTRA>
-5.12672

>  <SCORE.INTRA.DIHEDRAL>
0.689488

>  <SCORE.INTRA.DIHEDRAL.0>
22.9177

>  <SCORE.INTRA.POLAR>
-1.66844

>  <SCORE.INTRA.POLAR.0>
-0.311208

>  <SCORE.INTRA.REPUL>
0

>  <SCORE.INTRA.REPUL.0>
0

>  <SCORE.INTRA.SOLV>
-1.22831

>  <SCORE.INTRA.SOLV.lig_0>
-132.657

>  <SCORE.INTRA.VDW>
0.815388

>  <SCORE.INTRA.VDW.0>
-4.68867

>  <SCORE.INTRA.norm>
-0.16021

>  <SCORE.RESTR>
0

>  <SCORE.RESTR.CAVITY>
0

>  <SCORE.RESTR.norm>
0

>  <SCORE.SYSTEM>
0

>  <SCORE.SYSTEM.CONST>
0

>  <SCORE.SYSTEM.DIHEDRAL>
0

>  <SCORE.SYSTEM.SOLV>
0

>  <SCORE.SYSTEM.norm>
0

>  <SCORE.heavy>
32

>  <SCORE.norm>
-1.12835

>  <RMSD>
4.490

$$$$
1tob
 OpenBabel11021811413D
libRbt.so/2013.1/901 2013/11/27
 32 34  0  0  0  0  0  0  0  0999 V2000
    0.2256    4.0467    5.3093 C   0  0  2  0  0  0  0  0  0  0  0  0
    1.3850    3.0567    5.2272 C   0  0  1  0  0  0  0  0  0  0  0  0
    1.2645    2.0321    6.3471 C   0  0  2  0  0  0  0  0  0  0  0  0
    1.1923    2.7538    7.6874 C   0  0  1  0  0  0  0  0  0  0  0  0
    0.0385    3.7527    7.6768 C   0  0  1  0  0  0  0  0  0  0  0  0
   -0.0385    4.5593    8.9582 C   0  0  0  0  0  0  0  0  0  0  0  0
    1.3634    2.3965    3.9698 O   0  0  0  0  0  0  0  0  0  0  0  0
    2.3778    1.0594    6.3026 N   0  3  0  0  0  0  0  0  0  0  0  0
    1.0105    1.8086    8.7332 O   0  0  0  0  0  0  0  0  0  0  0  0
    0.2048    4.6892    6.5903 O   0  0  0  0  0  0  0  0  0  0  0  0
    1.1847    5.2317    9.2224 O   0  0  0  0  0  0  0  0  0  0  0  0
   -2.2323    2.1949    3.4409 C   0  0  2  0  0  0  0  0  0  0  0  0
   -2.8340    2.3218    2.0481 C   0  0  0  0  0  0  0  0  0  0  0  0
   -3.8398    3.4724    2.0032 C   0  0  1  0  0  0  0  0  0  0  0  0
   -3.1424    4.7800    2.3714 C   0  0  2  0  0  0  0  0  0  0  0  0
   -2.5244    4.6682    3.7659 C   0  0  1  0  0  0  0  0  0  0  0  0
   -1.5422    3.4982    3.8131 C   0  0  1  0  0  0  0  0  0  0  0  0
   -1.2338    1.1041    3.4819 N   0  3  0  0  0  0  0  0  0  0  0  0
   -4.4810    3.5311    0.6640 N   0  3  0  0  0  0  0  0  0  0  0  0
   -1.8525    5.8771    4.0935 O   0  0  0  0  0  0  0  0  0  0  0  0
   -0.9767    3.3881    5.1318 O   0  0  0  0  0  0  0  0  0  0  0  0
   -3.5463    7.1302    2.0936 C   0  0  1  0  0  0  0  0  0  0  0  0
   -4.2887    8.1899    2.9096 C   0  0  1  0  0  0  0  0  0  0  0  0
   -5.7461    8.2615    2.4792 C   0  0  0  0  0  0  0  0  0  0  0  0
   -5.8143    8.5113    0.9815 C   0  0  1  0  0  0  0  0  0  0  0  0
   -5.0332    7.4262    0.2412 C   0  0  1  0  0  0  0  0  0  0  0  0
   -5.0088    7.6446   -1.2608 C   0  0  0  0  0  0  0  0  0  0  0  0
   -4.1507    7.9375    4.3635 N   0  3  0  0  0  0  0  0  0  0  0  0
   -4.1869    8.8235   -1.6248 N   0  3  0  0  0  0  0  0  0  0  0  0
   -4.0830    5.8729    2.3368 O   0  0  0  0  0  0  0  0  0  0  0  0
   -7.1677    8.5131    0.5511 O   0  0  0  0  0  0  0  0  0  0  0  0
   -3.6615    7.4055    0.6921 O   0  0  0  0  0  0  0  0  0  0  0  0
  1  2  1  0  0  0  0
  1 10  1  0  0  0  0
  1 21  1  1  0  0  0
  2  3  1  0  0  0  0
  2  7  1  6  0  0  0
  3  4  1  0  0  0  0
  3  8  1  1  0  0  0
  4  5  1  0  0  0  0
  4  9  1  1  0  0  0
  5  6  1  1  0  0  0
  5 10  1  0  0  0  0
  6 11  1  0  0  0  0
 12 13  1  0  0  0  0
 12 17  1  0  0  0  0
 12 18  1  6  0  0  0
 13 14  1  0  0  0  0
 14 15  1  0  0  0  0
 14 19  1  6  0  0  0
 15 16  1  0  0  0  0
 15 30  1  1  0  0  0
 16 17  1  0  0  0  0
 16 20  1  6  0  0  0
 17 21  1  1  0  0  0
 22 23  1  0  0  0  0
 22 30  1  6  0  0  0
 22 32  1  0  0  0  0
 23 24  1  0  0  0  0
 23 28  1  1  0  0  0
 24 25  1  0  0  0  0
 25 26  1  0  0  0  0
 25 31  1  6  0  0  0
 26 27  1  6  0  0  0
 26 32  1  0  0  0  0
 27 29  1  0  0  0  0
M  CHG  5   8   1  18   1  19   1  28   1  29   1
M  END
>  <CHROM.1>
-100.35785223,65.14499587,64.31107023,-176.29463281,55.98836714,-164.85338308
-28.69901685,36.95756646,-154.02488121,-54.09841666,144.18219506,-143.39098861
-88.77098186,178.21743471,69.29997266,55.82145244,-2.07233542,4.87376511
3.77616607,0.08578836,-0.92344725,0.75219524

>  <Name>
1tob

>  <RI>
0

>  <Rbt.Current_Directory>
/home/itssahil/PROJECTS/Mol_Feturizer/New_Systems/rnas/1tob

>  <Rbt.Executable>
rbdock ($Id: //depot/dev/client3/rdock/2013.1/src/exe/rbdock.cxx#4 $)

>  <Rbt.Library>
libRbt.so (2013.1, Build901 2013/11/27)

>  <Rbt.Parameter_File>
/export/apps/rDock/src/rDock_2013.1_src/data/scripts/dock_solv.prm

>  <Rbt.Receptor>
prm/pocket_docking_5.prm

>  <SCORE>
-40.002

>  <SCORE.INTER>
-34.1058

>  <SCORE.INTER.CONST>
1

>  <SCORE.INTER.POLAR>
-4.27506

>  <SCORE.INTER.ROT>
6

>  <SCORE.INTER.SOLV>
18.5419

>  <SCORE.INTER.VDW>
-22.2676

>  <SCORE.INTER.norm>
-1.0658

>  <SCORE.INTRA>
-5.89622

>  <SCORE.INTRA.DIHEDRAL>
1.82066

>  <SCORE.INTRA.DIHEDRAL.0>
22.9177

>  <SCORE.INTRA.POLAR>
-2.00164

>  <SCORE.INTRA.POLAR.0>
-0.311208

>  <SCORE.INTRA.REPUL>
0

>  <SCORE.INTRA.REPUL.0>
0

>  <SCORE.INTRA.SOLV>
-0.739769

>  <SCORE.INTRA.SOLV.lig_0>
-132.657

>  <SCORE.INTRA.VDW>
0.368919

>  <SCORE.INTRA.VDW.0>
-4.68867

>  <SCORE.INTRA.norm>
-0.184257

>  <SCORE.RESTR>
0

>  <SCORE.RESTR.CAVITY>
0

>  <SCORE.RESTR.norm>
0

>  <SCORE.SYSTEM>
0

>  <SCORE.SYSTEM.CONST>
0

>  <SCORE.SYSTEM.DIHEDRAL>
0

>  <SCORE.SYSTEM.SOLV>
0

>  <SCORE.SYSTEM.norm>
0

>  <SCORE.heavy>
32

>  <SCORE.norm>
-1.25006

>  <RMSD>
4.495

$$$$
1tob
 OpenBabel11021811413D
libRbt.so/2013.1/901 2013/11/27
 32 34  0  0  0  0  0  0  0  0999 V2000
    0.9185    3.4771    3.5418 C   0  0  2  0  0  0  0  0  0  0  0  0
    2.3629    2.9841    3.5822 C   0  0  1  0  0  0  0  0  0  0  0  0
    2.4471    1.7109    4.4131 C   0  0  2  0  0  0  0  0  0  0  0  0
    1.8686    1.9719    5.7987 C   0  0  1  0  0  0  0  0  0  0  0  0
    0.4423    2.5003    5.6738 C   0  0  1  0  0  0  0  0  0  0  0  0
   -0.1625    2.8527    7.0187 C   0  0  0  0  0  0  0  0  0  0  0  0
    2.8182    2.7252    2.2619 O   0  0  0  0  0  0  0  0  0  0  0  0
    3.8364    1.2082    4.4801 N   0  3  0  0  0  0  0  0  0  0  0  0
    1.8800    0.7708    6.5585 O   0  0  0  0  0  0  0  0  0  0  0  0
    0.4275    3.6996    4.8698 O   0  0  0  0  0  0  0  0  0  0  0  0
   -1.5402    3.1775    6.8990 O   0  0  0  0  0  0  0  0  0  0  0  0
   -2.1583    1.8945    2.3852 C   0  0  2  0  0  0  0  0  0  0  0  0
   -3.4959    2.4305    1.8935 C   0  0  0  0  0  0  0  0  0  0  0  0
   -4.0144    3.5182    2.8346 C   0  0  1  0  0  0  0  0  0  0  0  0
   -3.0069    4.6637    2.9015 C   0  0  2  0  0  0  0  0  0  0  0  0
   -1.6535    4.1419    3.3865 C   0  0  1  0  0  0  0  0  0  0  0  0
   -1.1543    3.0346    2.4589 C   0  0  1  0  0  0  0  0  0  0  0  0
   -1.6357    0.8648    1.4605 N   0  3  0  0  0  0  0  0  0  0  0  0
   -5.3580    3.9720    2.3908 N   0  3  0  0  0  0  0  0  0  0  0  0
   -0.7113    5.2054    3.4208 O   0  0  0  0  0  0  0  0  0  0  0  0
    0.1111    2.5367    2.9298 O   0  0  0  0  0  0  0  0  0  0  0  0
   -2.7377    6.8657    3.8196 C   0  0  1  0  0  0  0  0  0  0  0  0
   -3.3160    7.8363    4.8509 C   0  0  1  0  0  0  0  0  0  0  0  0
   -4.7281    8.2436    4.4580 C   0  0  0  0  0  0  0  0  0  0  0  0
   -4.7109    8.8156    3.0498 C   0  0  1  0  0  0  0  0  0  0  0  0
   -4.1010    7.7977    2.0867 C   0  0  1  0  0  0  0  0  0  0  0  0
   -3.9975    8.3248    0.6670 C   0  0  0  0  0  0  0  0  0  0  0  0
   -3.2637    7.2594    6.2150 N   0  3  0  0  0  0  0  0  0  0  0  0
   -3.2739    7.3763   -0.2131 N   0  3  0  0  0  0  0  0  0  0  0  0
   -3.4834    5.6947    3.7906 O   0  0  0  0  0  0  0  0  0  0  0  0
   -6.0321    9.1381    2.6410 O   0  0  0  0  0  0  0  0  0  0  0  0
   -2.7653    7.4495    2.5113 O   0  0  0  0  0  0  0  0  0  0  0  0
  1  2  1  0  0  0  0
  1 10  1  0  0  0  0
  1 21  1  1  0  0  0
  2  3  1  0  0  0  0
  2  7  1  6  0  0  0
  3  4  1  0  0  0  0
  3  8  1  1  0  0  0
  4  5  1  0  0  0  0
  4  9  1  1  0  0  0
  5  6  1  1  0  0  0
  5 10  1  0  0  0  0
  6 11  1  0  0  0  0
 12 13  1  0  0  0  0
 12 17  1  0  0  0  0
 12 18  1  6  0  0  0
 13 14  1  0  0  0  0
 14 15  1  0  0  0  0
 14 19  1  6  0  0  0
 15 16  1  0  0  0  0
 15 30  1  1  0  0  0
 16 17  1  0  0  0  0
 16 20  1  6  0  0  0
 17 21  1  1  0  0  0
 22 23  1  0  0  0  0
 22 30  1  6  0  0  0
 22 32  1  0  0  0  0
 23 24  1  0  0  0  0
 23 28  1  1  0  0  0
 24 25  1  0  0  0  0
 25 26  1  0  0  0  0
 25 31  1  6  0  0  0
 26 27  1  6  0  0  0
 26 32  1  0  0  0  0
 27 29  1  0  0  0  0
M  CHG  5   8   1  18   1  19   1  28   1  29   1
M  END
>  <CHROM.1>
-161.46808913,178.33669792,-171.73026480,-52.01932136,-172.48586223,-52.88422277
-90.55806365,43.74428893,-172.60118350,-178.30205258,-155.19687639,-177.19270386
-58.17949999,82.24296452,173.96313967,-151.11941549,-1.55293494,4.48942066
3.59127246,0.11907860,0.77756094,-2.05871838

>  <Name>
1tob

>  <RI>
0

>  <Rbt.Current_Directory>
/home/itssahil/PROJECTS/Mol_Feturizer/New_Systems/rnas/1tob

>  <Rbt.Executable>
rbdock ($Id: //depot/dev/client3/rdock/2013.1/src/exe/rbdock.cxx#4 $)

>  <Rbt.Library>
libRbt.so (2013.1, Build901 2013/11/27)

>  <Rbt.Parameter_File>
/export/apps/rDock/src/rDock_2013.1_src/data/scripts/dock_solv.prm

>  <Rbt.Receptor>
prm/blind_docking_40.prm

>  <SCORE>
-12.3002

>  <SCORE.INTER>
-34.5629

>  <SCORE.INTER.CONST>
1

>  <SCORE.INTER.POLAR>
-5.65143

>  <SCORE.INTER.ROT>
6

>  <SCORE.INTER.SOLV>
38.0958

>  <SCORE.INTER.VDW>
-24.5025

>  <SCORE.INTER.norm>
-1.08009

>  <SCORE.INTRA>
10.1827

>  <SCORE.INTRA.DIHEDRAL>
-11.0787

>  <SCORE.INTRA.DIHEDRAL.0>
22.9177

>  <SCORE.INTRA.POLAR>
-0.324285

>  <SCORE.INTRA.POLAR.0>
-0.311208

>  <SCORE.INTRA.REPUL>
0

>  <SCORE.INTRA.REPUL.0>
0

>  <SCORE.INTRA.SOLV>
-6.84111

>  <SCORE.INTRA.SOLV.lig_0>
-132.657

>  <SCORE.INTRA.VDW>
20.2452

>  <SCORE.INTRA.VDW.0>
-4.68867

>  <SCORE.INTRA.norm>
0.318209

>  <SCORE.RESTR>
12.08

>  <SCORE.RESTR.CAVITY>
12.08

>  <SCORE.RESTR.norm>
0.377501

>  <SCORE.SYSTEM>
0

>  <SCORE.SYSTEM.CONST>
0

>  <SCORE.SYSTEM.DIHEDRAL>
0

>  <SCORE.SYSTEM.SOLV>
0

>  <SCORE.SYSTEM.norm>
0

>  <SCORE.heavy>
32

>  <SCORE.norm>
-0.384381

>  <RMSD>
4.498

$$$$
1tob
 OpenBabel11021811413D
libRbt.so/2013.1/901 2013/11/27
 32 34  0  0  0  0  0  0  0  0999 V2000
    0.8854    3.5211    2.6831 C   0  0  2  0  0  0  0  0  0  0  0  0
    2.3999    3.4546    2.5017 C   0  0  1  0  0  0  0  0  0  0  0  0
    2.8711    2.0141    2.6482 C   0  0  2  0  0  0  0  0  0  0  0  0
    2.4082    1.4647    3.9922 C   0  0  1  0  0  0  0  0  0  0  0  0
    0.8934    1.6042    4.1154 C   0  0  1  0  0  0  0  0  0  0  0  0
    0.3794    1.1444    5.4656 C   0  0  0  0  0  0  0  0  0  0  0  0
    2.7506    3.9446    1.2154 O   0  0  0  0  0  0  0  0  0  0  0  0
    4.3376    1.9130    2.4854 N   0  3  0  0  0  0  0  0  0  0  0  0
    2.7842    0.0990    4.1086 O   0  0  0  0  0  0  0  0  0  0  0  0
    0.5095    2.9874    3.9590 O   0  0  0  0  0  0  0  0  0  0  0  0
   -0.7501    1.9019    5.8762 O   0  0  0  0  0  0  0  0  0  0  0  0
   -1.9933    2.0512    2.2166 C   0  0  2  0  0  0  0  0  0  0  0  0
   -3.4650    2.3858    2.0154 C   0  0  0  0  0  0  0  0  0  0  0  0
   -3.7766    3.7778    2.5655 C   0  0  1  0  0  0  0  0  0  0  0  0
   -2.9210    4.8185    1.8467 C   0  0  2  0  0  0  0  0  0  0  0  0
   -1.4379    4.4936    2.0314 C   0  0  1  0  0  0  0  0  0  0  0  0
   -1.1383    3.0897    1.5069 C   0  0  1  0  0  0  0  0  0  0  0  0
   -1.6787    0.7186    1.6566 N   0  3  0  0  0  0  0  0  0  0  0  0
   -5.2307    4.0570    2.4398 N   0  3  0  0  0  0  0  0  0  0  0  0
   -0.6455    5.4482    1.3378 O   0  0  0  0  0  0  0  0  0  0  0  0
    0.2548    2.7838    1.6985 O   0  0  0  0  0  0  0  0  0  0  0  0
   -3.1741    7.1700    1.4340 C   0  0  1  0  0  0  0  0  0  0  0  0
   -3.1586    8.5220    2.1492 C   0  0  1  0  0  0  0  0  0  0  0  0
   -4.4375    8.7090    2.9515 C   0  0  0  0  0  0  0  0  0  0  0  0
   -5.6354    8.5386    2.0315 C   0  0  1  0  0  0  0  0  0  0  0  0
   -5.5660    7.1772    1.3406 C   0  0  1  0  0  0  0  0  0  0  0  0
   -6.7033    6.9609    0.3588 C   0  0  0  0  0  0  0  0  0  0  0  0
   -1.9481    8.6663    2.9921 N   0  3  0  0  0  0  0  0  0  0  0  0
   -6.5582    5.6758   -0.3659 N   0  3  0  0  0  0  0  0  0  0  0  0
   -3.2031    6.1363    2.3607 O   0  0  0  0  0  0  0  0  0  0  0  0
   -6.8391    8.6424    2.7779 O   0  0  0  0  0  0  0  0  0  0  0  0
   -4.3329    7.0583    0.5985 O   0  0  0  0  0  0  0  0  0  0  0  0
  1  2  1  0  0  0  0
  1 10  1  0  0  0  0
  1 21  1  6  0  0  0
  2  3  1  0  0  0  0
  2  7  1  6  0  0  0
  3  4  1  0  0  0  0
  3  8  1  1  0  0  0
  4  5  1  0  0  0  0
  4  9  1  6  0  0  0
  5  6  1  1  0  0  0
  5 10  1  0  0  0  0
  6 11  1  0  0  0  0
 12 13  1  0  0  0  0
 12 17  1  0  0  0  0
 12 18  1  6  0  0  0
 13 14  1  0  0  0  0
 14 15  1  0  0  0  0
 14 19  1  6  0  0  0
 15 16  1  0  0  0  0
 15 30  1  1  0  0  0
 16 17  1  0  0  0  0
 16 20  1  6  0  0  0
 17 21  1  1  0  0  0
 22 23  1  0  0  0  0
 22 30  1  1  0  0  0
 22 32  1  0  0  0  0
 23 24  1  0  0  0  0
 23 28  1  1  0  0  0
 24 25  1  0  0  0  0
 25 26  1  0  0  0  0
 25 31  1  1  0  0  0
 26 27  1  6  0  0  0
 26 32  1  0  0  0  0
 27 29  1  0  0  0  0
M  CHG  5   8   1  18   1  19   1  28   1  29   1
M  END
>  <CHROM.1>
-161.76722993,170.50991981,-65.52903699,-57.63182420,147.02502924,-153.37964098
172.95127088,-114.74926387,-143.92994509,-138.98810883,-99.83829426,-166.65132578
176.64770725,-57.09702279,175.96187033,-46.80467235,-1.67514704,4.38364817
2.40585593,-0.67254666,-0.10367220,-0.16167745

>  <Name>
1tob

>  <RI>
0

>  <Rbt.Current_Directory>
/home/itssahil/PROJECTS/Mol_Feturizer/New_Systems/rnas/1tob

>  <Rbt.Executable>
rbdock ($Id: //depot/dev/client3/rdock/2013.1/src/exe/rbdock.cxx#4 $)

>  <Rbt.Library>
libRbt.so (2013.1, Build901 2013/11/27)

>  <Rbt.Parameter_File>
/export/apps/rDock/src/rDock_2013.1_src/data/scripts/dock_solv.prm

>  <Rbt.Receptor>
prm/blind_docking_60.prm

>  <SCORE>
-27.9933

>  <SCORE.INTER>
-40.6845

>  <SCORE.INTER.CONST>
1

>  <SCORE.INTER.POLAR>
-6.48761

>  <SCORE.INTER.ROT>
6

>  <SCORE.INTER.SOLV>
33.0811

>  <SCORE.INTER.VDW>
-24.1247

>  <SCORE.INTER.norm>
-1.27139

>  <SCORE.INTRA>
8.19148

>  <SCORE.INTRA.DIHEDRAL>
5.85556

>  <SCORE.INTRA.DIHEDRAL.0>
22.9177

>  <SCORE.INTRA.POLAR>
0.226025

>  <SCORE.INTRA.POLAR.0>
-0.311208

>  <SCORE.INTRA.REPUL>
0

>  <SCORE.INTRA.REPUL.0>
0

>  <SCORE.INTRA.SOLV>
-0.56201

>  <SCORE.INTRA.SOLV.lig_0>
-132.657

>  <SCORE.INTRA.VDW>
4.77622

>  <SCORE.INTRA.VDW.0>
-4.68867

>  <SCORE.INTRA.norm>
0.255984

>  <SCORE.RESTR>
4.4997

>  <SCORE.RESTR.CAVITY>
4.4997

>  <SCORE.RESTR.norm>
0.140616

>  <SCORE.SYSTEM>
0

>  <SCORE.SYSTEM.CONST>
0

>  <SCORE.SYSTEM.DIHEDRAL>
0

>  <SCORE.SYSTEM.SOLV>
0

>  <SCORE.SYSTEM.norm>
0

>  <SCORE.heavy>
32

>  <SCORE.norm>
-0.874791

>  <RMSD>
4.509

$$$$
1tob
 OpenBabel11021811413D
libRbt.so/2013.1/901 2013/11/27
 32 34  0  0  0  0  0  0  0  0999 V2000
    0.6061    2.8449    4.7013 C   0  0  2  0  0  0  0  0  0  0  0  0
    1.6889    1.7788    4.8499 C   0  0  1  0  0  0  0  0  0  0  0  0
    1.3897    0.9099    6.0639 C   0  0  2  0  0  0  0  0  0  0  0  0
    1.2522    1.7941    7.2974 C   0  0  1  0  0  0  0  0  0  0  0  0
    0.1840    2.8573    7.0567 C   0  0  1  0  0  0  0  0  0  0  0  0
    0.0537    3.8187    8.2217 C   0  0  0  0  0  0  0  0  0  0  0  0
    1.7305    0.9717    3.6818 O   0  0  0  0  0  0  0  0  0  0  0  0
    2.4246   -0.1314    6.2430 N   0  3  0  0  0  0  0  0  0  0  0  0
    0.9050    0.9987    8.4229 O   0  0  0  0  0  0  0  0  0  0  0  0
    0.5191    3.6401    5.8905 O   0  0  0  0  0  0  0  0  0  0  0  0
    1.2444    4.5704    8.4099 O   0  0  0  0  0  0  0  0  0  0  0  0
   -2.3445    1.7490    2.8580 C   0  0  2  0  0  0  0  0  0  0  0  0
   -3.1465    2.3386    1.7058 C   0  0  0  0  0  0  0  0  0  0  0  0
   -3.9233    3.5706    2.1708 C   0  0  1  0  0  0  0  0  0  0  0  0
   -2.9508    4.6234    2.6979 C   0  0  2  0  0  0  0  0  0  0  0  0
   -2.1300    4.0456    3.8519 C   0  0  1  0  0  0  0  0  0  0  0  0
   -1.3792    2.7974    3.3893 C   0  0  1  0  0  0  0  0  0  0  0  0
   -1.5648    0.5759    2.4060 N   0  3  0  0  0  0  0  0  0  0  0  0
   -4.7663    4.0851    1.0605 N   0  3  0  0  0  0  0  0  0  0  0  0
   -1.2069    5.0190    4.3213 O   0  0  0  0  0  0  0  0  0  0  0  0
   -0.6222    2.2493    4.4836 O   0  0  0  0  0  0  0  0  0  0  0  0
   -2.9145    6.9353    3.3441 C   0  0  1  0  0  0  0  0  0  0  0  0
   -3.2853    7.5898    4.6760 C   0  0  1  0  0  0  0  0  0  0  0  0
   -4.7376    8.0422    4.6550 C   0  0  0  0  0  0  0  0  0  0  0  0
   -4.9598    8.9578    3.4622 C   0  0  1  0  0  0  0  0  0  0  0  0
   -4.5466    8.2410    2.1773 C   0  0  1  0  0  0  0  0  0  0  0  0
   -4.6867    9.1187    0.9469 C   0  0  0  0  0  0  0  0  0  0  0  0
   -3.0025    6.6830    5.8135 N   0  3  0  0  0  0  0  0  0  0  0  0
   -4.4144    8.3586   -0.2964 N   0  3  0  0  0  0  0  0  0  0  0  0
   -3.6729    5.7895    3.1440 O   0  0  0  0  0  0  0  0  0  0  0  0
   -6.3269    9.3351    3.3883 O   0  0  0  0  0  0  0  0  0  0  0  0
   -3.1629    7.8353    2.2571 O   0  0  0  0  0  0  0  0  0  0  0  0
  1  2  1  0  0  0  0
  1 10  1  0  0  0  0
  1 21  1  1  0  0  0
  2  3  1  0  0  0  0
  2  7  1  6  0  0  0
  3  4  1  0  0  0  0
  3  8  1  1  0  0  0
  4  5  1  0  0  0  0
  4  9  1  1  0  0  0
  5  6  1  1  0  0  0
  5 10  1  0  0  0  0
  6 11  1  0  0  0  0
 12 13  1  0  0  0  0
 12 17  1  0  0  0  0
 12 18  1  6  0  0  0
 13 14  1  0  0  0  0
 14 15  1  0  0  0  0
 14 19  1  6  0  0  0
 15 16  1  0  0  0  0
 15 30  1  1  0  0  0
 16 17  1  0  0  0  0
 16 20  1  6  0  0  0
 17 21  1  1  0  0  0
 22 23  1  0  0  0  0
 22 30  1  6  0  0  0
 22 32  1  0  0  0  0
 23 24  1  0  0  0  0
 23 28  1  1  0  0  0
 24 25  1  0  0  0  0
 25 26  1  0  0  0  0
 25 31  1  6  0  0  0
 26 27  1  6  0  0  0
 26 32  1  0  0  0  0
 27 29  1  0  0  0  0
M  CHG  5   8   1  18   1  19   1  28   1  29   1
M  END
>  <CHROM.1>
-131.82542890,177.80576671,54.65993072,-58.75048868,63.95402206,46.52833130
58.69227299,63.55697976,-165.08412191,175.04976141,155.04105682,-133.91833549
-0.24133293,65.12981907,-174.12467727,-167.95521468,-1.78490756,4.42079261
4.17313210,0.19810106,0.89707663,-2.37404472

>  <Name>
1tob

>  <RI>
0

>  <Rbt.Current_Directory>
/home/itssahil/PROJECTS/Mol_Feturizer/New_Systems/rnas/1tob

>  <Rbt.Executable>
rbdock ($Id: //depot/dev/client3/rdock/2013.1/src/exe/rbdock.cxx#4 $)

>  <Rbt.Library>
libRbt.so (2013.1, Build901 2013/11/27)

>  <Rbt.Parameter_File>
/export/apps/rDock/src/rDock_2013.1_src/data/scripts/dock_solv.prm

>  <Rbt.Receptor>
prm/pocket_docking_8.prm

>  <SCORE>
-41.7267

>  <SCORE.INTER>
-38.8222

>  <SCORE.INTER.CONST>
1

>  <SCORE.INTER.POLAR>
-4.6757

>  <SCORE.INTER.ROT>
6

>  <SCORE.INTER.SOLV>
26.0546

>  <SCORE.INTER.VDW>
-26.5807

>  <SCORE.INTER.norm>
-1.21319

>  <SCORE.INTRA>
-2.9045

>  <SCORE.INTRA.DIHEDRAL>
-1.00062

>  <SCORE.INTRA.DIHEDRAL.0>
22.9177

>  <SCORE.INTRA.POLAR>
-0.961773

>  <SCORE.INTRA.POLAR.0>
-0.311208

>  <SCORE.INTRA.REPUL>
0

>  <SCORE.INTRA.REPUL.0>
0

>  <SCORE.INTRA.SOLV>
-3.24189

>  <SCORE.INTRA.SOLV.lig_0>
-132.657

>  <SCORE.INTRA.VDW>
2.48678

>  <SCORE.INTRA.VDW.0>
-4.68867

>  <SCORE.INTRA.norm>
-0.0907656

>  <SCORE.RESTR>
0

>  <SCORE.RESTR.CAVITY>
0

>  <SCORE.RESTR.norm>
0

>  <SCORE.SYSTEM>
0

>  <SCORE.SYSTEM.CONST>
0

>  <SCORE.SYSTEM.DIHEDRAL>
0

>  <SCORE.SYSTEM.SOLV>
0

>  <SCORE.SYSTEM.norm>
0

>  <SCORE.heavy>
32

>  <SCORE.norm>
-1.30396

>  <RMSD>
4.527

$$$$
1tob
 OpenBabel11021811413D
libRbt.so/2013.1/901 2013/11/27
 32 34  0  0  0  0  0  0  0  0999 V2000
   -0.6917    2.8639    5.1593 C   0  0  2  0  0  0  0  0  0  0  0  0
   -1.0642    3.5770    6.4570 C   0  0  1  0  0  0  0  0  0  0  0  0
    0.1696    4.2467    7.0464 C   0  0  2  0  0  0  0  0  0  0  0  0
    1.2688    3.2077    7.2329 C   0  0  1  0  0  0  0  0  0  0  0  0
    1.5545    2.5113    5.9052 C   0  0  1  0  0  0  0  0  0  0  0  0
    2.5877    1.4102    6.0417 C   0  0  0  0  0  0  0  0  0  0  0  0
   -2.0617    4.5543    6.1976 O   0  0  0  0  0  0  0  0  0  0  0  0
   -0.1534    4.9424    8.3109 N   0  3  0  0  0  0  0  0  0  0  0  0
    2.4474    3.8365    7.7183 O   0  0  0  0  0  0  0  0  0  0  0  0
    0.3474    1.9053    5.3946 O   0  0  0  0  0  0  0  0  0  0  0  0
    3.8392    1.9238    6.4753 O   0  0  0  0  0  0  0  0  0  0  0  0
   -1.7662    2.7309    2.6673 C   0  0  2  0  0  0  0  0  0  0  0  0
   -2.7283    3.0138    1.5216 C   0  0  0  0  0  0  0  0  0  0  0  0
   -3.8263    3.9779    1.9714 C   0  0  1  0  0  0  0  0  0  0  0  0
   -3.1995    5.2899    2.4380 C   0  0  2  0  0  0  0  0  0  0  0  0
   -2.2230    5.0240    3.5847 C   0  0  1  0  0  0  0  0  0  0  0  0
   -1.1449    4.0368    3.1385 C   0  0  1  0  0  0  0  0  0  0  0  0
   -0.6827    1.8244    2.2286 N   0  3  0  0  0  0  0  0  0  0  0  0
   -4.8046    4.1785    0.8710 N   0  3  0  0  0  0  0  0  0  0  0  0
   -1.6210    6.2435    3.9975 O   0  0  0  0  0  0  0  0  0  0  0  0
   -0.2392    3.7781    4.2264 O   0  0  0  0  0  0  0  0  0  0  0  0
   -3.9063    7.5559    2.7979 C   0  0  1  0  0  0  0  0  0  0  0  0
   -5.0595    8.4028    3.3389 C   0  0  1  0  0  0  0  0  0  0  0  0
   -6.3000    8.2160    2.4783 C   0  0  0  0  0  0  0  0  0  0  0  0
   -5.9586    8.5340    1.0317 C   0  0  1  0  0  0  0  0  0  0  0  0
   -4.7873    7.6652    0.5749 C   0  0  1  0  0  0  0  0  0  0  0  0
   -4.3519    7.9708   -0.8468 C   0  0  0  0  0  0  0  0  0  0  0  0
   -5.3222    8.0983    4.7653 N   0  3  0  0  0  0  0  0  0  0  0  0
   -5.3351    7.4679   -1.8358 N   0  3  0  0  0  0  0  0  0  0  0  0
   -4.2262    6.2066    2.8694 O   0  0  0  0  0  0  0  0  0  0  0  0
   -7.0881    8.2989    0.2037 O   0  0  0  0  0  0  0  0  0  0  0  0
   -3.6430    7.8843    1.4282 O   0  0  0  0  0  0  0  0  0  0  0  0
  1  2  1  0  0  0  0
  1 10  1  0  0  0  0
  1 21  1  6  0  0  0
  2  3  1  0  0  0  0
  2  7  1  6  0  0  0
  3  4  1  0  0  0  0
  3  8  1  1  0  0  0
  4  5  1  0  0  0  0
  4  9  1  6  0  0  0
  5  6  1  1  0  0  0
  5 10  1  0  0  0  0
  6 11  1  0  0  0  0
 12 13  1  0  0  0  0
 12 17  1  0  0  0  0
 12 18  1  6  0  0  0
 13 14  1  0  0  0  0
 14 15  1  0  0  0  0
 14 19  1  6  0  0  0
 15 16  1  0  0  0  0
 15 30  1  1  0  0  0
 16 17  1  0  0  0  0
 16 20  1  6  0  0  0
 17 21  1  1  0  0  0
 22 23  1  0  0  0  0
 22 30  1  6  0  0  0
 22 32  1  0  0  0  0
 23 24  1  0  0  0  0
 23 28  1  1  0  0  0
 24 25  1  0  0  0  0
 25 26  1  0  0  0  0
 25 31  1  6  0  0  0
 26 27  1  6  0  0  0
 26 32  1  0  0  0  0
 27 29  1  0  0  0  0
M  CHG  5   8   1  18   1  19   1  28   1  29   1
M  END
>  <CHROM.1>
-107.74459597,-80.39751652,-86.29362143,-54.46130871,-61.95806245,-56.68479866
70.13367246,-169.28513584,-154.65724660,73.20650947,-41.89666752,-177.63784567
-5.76125384,-43.07303811,-72.57138179,173.87002003,-2.17817878,5.05291493
3.61381387,-0.22691074,0.79864880,-2.11802059

>  <Name>
1tob

>  <RI>
0

>  <Rbt.Current_Directory>
/home/itssahil/PROJECTS/Mol_Feturizer/New_Systems/rnas/1tob

>  <Rbt.Executable>
rbdock ($Id: //depot/dev/client3/rdock/2013.1/src/exe/rbdock.cxx#4 $)

>  <Rbt.Library>
libRbt.so (2013.1, Build901 2013/11/27)

>  <Rbt.Parameter_File>
/export/apps/rDock/src/rDock_2013.1_src/data/scripts/dock_solv.prm

>  <Rbt.Receptor>
prm/pocket_docking_6.prm

>  <SCORE>
-44.6303

>  <SCORE.INTER>
-47.4275

>  <SCORE.INTER.CONST>
1

>  <SCORE.INTER.POLAR>
-7.54998

>  <SCORE.INTER.ROT>
6

>  <SCORE.INTER.SOLV>
26.8838

>  <SCORE.INTER.VDW>
-23.013

>  <SCORE.INTER.norm>
-1.48211

>  <SCORE.INTRA>
2.79729

>  <SCORE.INTRA.DIHEDRAL>
-1.69379

>  <SCORE.INTRA.DIHEDRAL.0>
22.9177

>  <SCORE.INTRA.POLAR>
-0.347111

>  <SCORE.INTRA.POLAR.0>
-0.311208

>  <SCORE.INTRA.REPUL>
0.0797669

>  <SCORE.INTRA.REPUL.0>
0

>  <SCORE.INTRA.SOLV>
-0.335197

>  <SCORE.INTRA.SOLV.lig_0>
-132.657

>  <SCORE.INTRA.VDW>
4.59313

>  <SCORE.INTRA.VDW.0>
-4.68867

>  <SCORE.INTRA.norm>
0.0874153

>  <SCORE.RESTR>
0

>  <SCORE.RESTR.CAVITY>
0

>  <SCORE.RESTR.norm>
0

>  <SCORE.SYSTEM>
0

>  <SCORE.SYSTEM.CONST>
0

>  <SCORE.SYSTEM.DIHEDRAL>
0

>  <SCORE.SYSTEM.SOLV>
0

>  <SCORE.SYSTEM.norm>
0

>  <SCORE.heavy>
32

>  <SCORE.norm>
-1.3947

>  <RMSD>
4.548

$$$$
1tob
 OpenBabel11021811413D
libRbt.so/2013.1/901 2013/11/27
 32 34  0  0  0  0  0  0  0  0999 V2000
   -1.2580    3.4678    5.7447 C   0  0  2  0  0  0  0  0  0  0  0  0
   -1.1994    4.2182    7.0731 C   0  0  1  0  0  0  0  0  0  0  0  0
    0.2529    4.4370    7.4748 C   0  0  2  0  0  0  0  0  0  0  0  0
    0.9737    3.0949    7.5174 C   0  0  1  0  0  0  0  0  0  0  0  0
    0.8350    2.3890    6.1713 C   0  0  1  0  0  0  0  0  0  0  0  0
    1.4672    1.0110    6.1744 C   0  0  0  0  0  0  0  0  0  0  0  0
   -1.8548    5.4718    6.9448 O   0  0  0  0  0  0  0  0  0  0  0  0
    0.3477    5.1562    8.7637 N   0  3  0  0  0  0  0  0  0  0  0  0
    2.3467    3.2961    7.8244 O   0  0  0  0  0  0  0  0  0  0  0  0
   -0.5609    2.2194    5.8431 O   0  0  0  0  0  0  0  0  0  0  0  0
    0.8091    0.1402    7.0835 O   0  0  0  0  0  0  0  0  0  0  0  0
   -1.6115    2.7860    3.0397 C   0  0  2  0  0  0  0  0  0  0  0  0
   -2.3582    2.7930    1.7128 C   0  0  0  0  0  0  0  0  0  0  0  0
   -3.6920    3.5268    1.8541 C   0  0  1  0  0  0  0  0  0  0  0  0
   -3.4428    4.9661    2.2991 C   0  0  2  0  0  0  0  0  0  0  0  0
   -2.6858    4.9788    3.6280 C   0  0  1  0  0  0  0  0  0  0  0  0
   -1.3673    4.2185    3.4888 C   0  0  1  0  0  0  0  0  0  0  0  0
   -0.3051    2.1060    2.9010 N   0  3  0  0  0  0  0  0  0  0  0  0
   -4.4473    3.4527    0.5765 N   0  3  0  0  0  0  0  0  0  0  0  0
   -2.4313    6.3196    4.0248 O   0  0  0  0  0  0  0  0  0  0  0  0
   -0.6677    4.2199    4.7463 O   0  0  0  0  0  0  0  0  0  0  0  0
   -4.6802    7.0139    2.1003 C   0  0  1  0  0  0  0  0  0  0  0  0
   -5.6506    7.7950    2.9880 C   0  0  1  0  0  0  0  0  0  0  0  0
   -7.0765    7.3167    2.7589 C   0  0  0  0  0  0  0  0  0  0  0  0
   -7.4091    7.4236    1.2796 C   0  0  1  0  0  0  0  0  0  0  0  0
   -6.3846    6.6375    0.4622 C   0  0  1  0  0  0  0  0  0  0  0  0
   -6.6207    6.7478   -1.0332 C   0  0  0  0  0  0  0  0  0  0  0  0
   -5.2579    7.7074    4.4144 N   0  3  0  0  0  0  0  0  0  0  0  0
   -6.3681    8.1240   -1.5229 N   0  3  0  0  0  0  0  0  0  0  0  0
   -4.6952    5.6677    2.4402 O   0  0  0  0  0  0  0  0  0  0  0  0
   -8.7135    6.9169    1.0378 O   0  0  0  0  0  0  0  0  0  0  0  0
   -5.0539    7.1345    0.7222 O   0  0  0  0  0  0  0  0  0  0  0  0
  1  2  1  0  0  0  0
  1 10  1  0  0  0  0
  1 21  1  6  0  0  0
  2  3  1  0  0  0  0
  2  7  1  6  0  0  0
  3  4  1  0  0  0  0
  3  8  1  1  0  0  0
  4  5  1  0  0  0  0
  4  9  1  6  0  0  0
  5  6  1  1  0  0  0
  5 10  1  0  0  0  0
  6 11  1  0  0  0  0
 12 13  1  0  0  0  0
 12 17  1  0  0  0  0
 12 18  1  6  0  0  0
 13 14  1  0  0  0  0
 14 15  1  0  0  0  0
 14 19  1  6  0  0  0
 15 16  1  0  0  0  0
 15 30  1  1  0  0  0
 16 17  1  0  0  0  0
 16 20  1  6  0  0  0
 17 21  1  1  0  0  0
 22 23  1  0  0  0  0
 22 30  1  1  0  0  0
 22 32  1  0  0  0  0
 23 24  1  0  0  0  0
 23 28  1  1  0  0  0
 24 25  1  0  0  0  0
 25 26  1  0  0  0  0
 25 31  1  1  0  0  0
 26 27  1  6  0  0  0
 26 32  1  0  0  0  0
 27 29  1  0  0  0  0
M  CHG  5   8   1  18   1  19   1  28   1  29   1
M  END
>  <CHROM.1>
-138.15152032,-85.59253888,-62.12651143,174.87799177,63.95913969,-61.04250923
78.28419299,54.99483328,-145.22623164,-61.87032745,-53.26361781,-146.63210550
12.17273257,-55.61562481,67.55596814,-144.36324680,-2.75893267,4.78138771
3.78551679,0.23566125,-0.77930125,0.93498352

>  <Name>
1tob

>  <RI>
0

>  <Rbt.Current_Directory>
/home/itssahil/PROJECTS/Mol_Feturizer/New_Systems/rnas/1tob

>  <Rbt.Executable>
rbdock ($Id: //depot/dev/client3/rdock/2013.1/src/exe/rbdock.cxx#4 $)

>  <Rbt.Library>
libRbt.so (2013.1, Build901 2013/11/27)

>  <Rbt.Parameter_File>
/export/apps/rDock/src/rDock_2013.1_src/data/scripts/dock_solv.prm

>  <Rbt.Receptor>
prm/pocket_docking_6.prm

>  <SCORE>
-46.635

>  <SCORE.INTER>
-45.1354

>  <SCORE.INTER.CONST>
1

>  <SCORE.INTER.POLAR>
-6.83948

>  <SCORE.INTER.ROT>
6

>  <SCORE.INTER.SOLV>
24.7166

>  <SCORE.INTER.VDW>
-23.1308

>  <SCORE.INTER.norm>
-1.41048

>  <SCORE.INTRA>
-1.49958

>  <SCORE.INTRA.DIHEDRAL>
1.60862

>  <SCORE.INTRA.DIHEDRAL.0>
22.9177

>  <SCORE.INTRA.POLAR>
-1.15036

>  <SCORE.INTRA.POLAR.0>
-0.311208

>  <SCORE.INTRA.REPUL>
0

>  <SCORE.INTRA.REPUL.0>
0

>  <SCORE.INTRA.SOLV>
-0.230227

>  <SCORE.INTRA.SOLV.lig_0>
-132.657

>  <SCORE.INTRA.VDW>
1.72244

>  <SCORE.INTRA.VDW.0>
-4.68867

>  <SCORE.INTRA.norm>
-0.0468619

>  <SCORE.RESTR>
0

>  <SCORE.RESTR.CAVITY>
0

>  <SCORE.RESTR.norm>
0

>  <SCORE.SYSTEM>
0

>  <SCORE.SYSTEM.CONST>
0

>  <SCORE.SYSTEM.DIHEDRAL>
0

>  <SCORE.SYSTEM.SOLV>
0

>  <SCORE.SYSTEM.norm>
0

>  <SCORE.heavy>
32

>  <SCORE.norm>
-1.45734

>  <RMSD>
4.573

$$$$
1tob
 OpenBabel11021811413D
libRbt.so/2013.1/901 2013/11/27
 32 34  0  0  0  0  0  0  0  0999 V2000
   -2.1508    3.6366    4.7158 C   0  0  2  0  0  0  0  0  0  0  0  0
   -0.8128    3.8899    5.4063 C   0  0  1  0  0  0  0  0  0  0  0  0
    0.3188    3.7571    4.3962 C   0  0  2  0  0  0  0  0  0  0  0  0
    0.2432    2.3891    3.7289 C   0  0  1  0  0  0  0  0  0  0  0  0
   -1.1336    2.1945    3.0997 C   0  0  1  0  0  0  0  0  0  0  0  0
   -1.2979    0.8184    2.4849 C   0  0  0  0  0  0  0  0  0  0  0  0
   -0.8026    5.1945    5.9680 O   0  0  0  0  0  0  0  0  0  0  0  0
    1.6331    3.9892    5.0334 N   0  3  0  0  0  0  0  0  0  0  0  0
    1.2539    2.2823    2.7354 O   0  0  0  0  0  0  0  0  0  0  0  0
   -2.1614    2.3410    4.1033 O   0  0  0  0  0  0  0  0  0  0  0  0
   -0.6296   -0.1748    3.2496 O   0  0  0  0  0  0  0  0  0  0  0  0
   -3.6574    6.5751    4.2195 C   0  0  2  0  0  0  0  0  0  0  0  0
   -5.0625    7.1603    4.1823 C   0  0  0  0  0  0  0  0  0  0  0  0
   -5.6156    7.1322    2.7572 C   0  0  1  0  0  0  0  0  0  0  0  0
   -5.6562    5.6927    2.2494 C   0  0  2  0  0  0  0  0  0  0  0  0
   -4.2530    5.0853    2.2872 C   0  0  1  0  0  0  0  0  0  0  0  0
   -3.6936    5.1431    3.7082 C   0  0  1  0  0  0  0  0  0  0  0  0
   -3.1297    6.5693    5.6015 N   0  3  0  0  0  0  0  0  0  0  0  0
   -6.9511    7.7826    2.7206 N   0  3  0  0  0  0  0  0  0  0  0  0
   -4.2995    3.7369    1.8403 O   0  0  0  0  0  0  0  0  0  0  0  0
   -2.3673    4.5854    3.7340 O   0  0  0  0  0  0  0  0  0  0  0  0
   -7.3067    4.8771    0.7085 C   0  0  1  0  0  0  0  0  0  0  0  0
   -7.5092    4.5998   -0.7821 C   0  0  1  0  0  0  0  0  0  0  0  0
   -7.7536    5.9006   -1.5321 C   0  0  0  0  0  0  0  0  0  0  0  0
   -8.9276    6.6303   -0.8999 C   0  0  1  0  0  0  0  0  0  0  0  0
   -8.6584    6.8490    0.5884 C   0  0  1  0  0  0  0  0  0  0  0  0
   -9.8177    7.5229    1.2997 C   0  0  0  0  0  0  0  0  0  0  0  0
   -6.3669    3.8409   -1.3440 N   0  3  0  0  0  0  0  0  0  0  0  0
  -10.0288    8.9046    0.8058 N   0  3  0  0  0  0  0  0  0  0  0  0
   -6.1724    5.6539    0.9031 O   0  0  0  0  0  0  0  0  0  0  0  0
   -9.1265    7.8797   -1.5451 O   0  0  0  0  0  0  0  0  0  0  0  0
   -8.4329    5.5825    1.2445 O   0  0  0  0  0  0  0  0  0  0  0  0
  1  2  1  0  0  0  0
  1 10  1  0  0  0  0
  1 21  1  6  0  0  0
  2  3  1  0  0  0  0
  2  7  1  6  0  0  0
  3  4  1  0  0  0  0
  3  8  1  1  0  0  0
  4  5  1  0  0  0  0
  4  9  1  6  0  0  0
  5  6  1  1  0  0  0
  5 10  1  0  0  0  0
  6 11  1  0  0  0  0
 12 13  1  0  0  0  0
 12 17  1  0  0  0  0
 12 18  1  1  0  0  0
 13 14  1  0  0  0  0
 14 15  1  0  0  0  0
 14 19  1  1  0  0  0
 15 16  1  0  0  0  0
 15 30  1  6  0  0  0
 16 17  1  0  0  0  0
 16 20  1  1  0  0  0
 17 21  1  6  0  0  0
 22 23  1  0  0  0  0
 22 30  1  6  0  0  0
 22 32  1  0  0  0  0
 23 24  1  0  0  0  0
 23 28  1  6  0  0  0
 24 25  1  0  0  0  0
 25 26  1  0  0  0  0
 25 31  1  6  0  0  0
 26 27  1  1  0  0  0
 26 32  1  0  0  0  0
 27 29  1  0  0  0  0
M  CHG  5   8   1  18   1  19   1  28   1  29   1
M  END
>  <CHROM.1>
-135.40446415,162.16129988,67.54583581,-58.58319907,36.01554954,164.37337178
-79.43643236,150.56768352,-121.79324439,-177.48981851,107.82577565,-163.87483331
-66.95176873,-52.10394538,-65.40983347,52.56546369,-4.35620595,4.93931302
2.42961652,-0.01268473,-0.60276292,0.75492168

>  <Name>
1tob

>  <RI>
0

>  <Rbt.Current_Directory>
/home/itssahil/PROJECTS/Mol_Feturizer/New_Systems/rnas/1tob

>  <Rbt.Executable>
rbdock ($Id: //depot/dev/client3/rdock/2013.1/src/exe/rbdock.cxx#4 $)

>  <Rbt.Library>
libRbt.so (2013.1, Build901 2013/11/27)

>  <Rbt.Parameter_File>
/export/apps/rDock/src/rDock_2013.1_src/data/scripts/dock_solv.prm

>  <Rbt.Receptor>
prm/pocket_docking_5.prm

>  <SCORE>
-39.4181

>  <SCORE.INTER>
-40.119

>  <SCORE.INTER.CONST>
1

>  <SCORE.INTER.POLAR>
-4.86693

>  <SCORE.INTER.ROT>
6

>  <SCORE.INTER.SOLV>
29.7305

>  <SCORE.INTER.VDW>
-28.0331

>  <SCORE.INTER.norm>
-1.25372

>  <SCORE.INTRA>
0.700891

>  <SCORE.INTRA.DIHEDRAL>
5.85523

>  <SCORE.INTRA.DIHEDRAL.0>
22.9177

>  <SCORE.INTRA.POLAR>
-1.48903

>  <SCORE.INTRA.POLAR.0>
-0.311208

>  <SCORE.INTRA.REPUL>
0

>  <SCORE.INTRA.REPUL.0>
0

>  <SCORE.INTRA.SOLV>
4.45203

>  <SCORE.INTRA.SOLV.lig_0>
-132.657

>  <SCORE.INTRA.VDW>
0.609953

>  <SCORE.INTRA.VDW.0>
-4.68867

>  <SCORE.INTRA.norm>
0.0219028

>  <SCORE.RESTR>
0

>  <SCORE.RESTR.CAVITY>
0

>  <SCORE.RESTR.norm>
0

>  <SCORE.SYSTEM>
0

>  <SCORE.SYSTEM.CONST>
0

>  <SCORE.SYSTEM.DIHEDRAL>
0

>  <SCORE.SYSTEM.SOLV>
0

>  <SCORE.SYSTEM.norm>
0

>  <SCORE.heavy>
32

>  <SCORE.norm>
-1.23182

>  <RMSD>
4.578

$$$$
1tob
 OpenBabel11021811413D
libRbt.so/2013.1/901 2013/11/27
 32 34  0  0  0  0  0  0  0  0999 V2000
   -0.2803    3.6256    5.7666 C   0  0  2  0  0  0  0  0  0  0  0  0
    1.0491    3.7914    5.0342 C   0  0  1  0  0  0  0  0  0  0  0  0
    1.8404    2.4927    5.1077 C   0  0  2  0  0  0  0  0  0  0  0  0
    2.0116    2.0865    6.5666 C   0  0  1  0  0  0  0  0  0  0  0  0
    0.6457    1.9826    7.2395 C   0  0  1  0  0  0  0  0  0  0  0  0
    0.7531    1.6559    8.7161 C   0  0  0  0  0  0  0  0  0  0  0  0
    0.8090    4.1295    3.6757 O   0  0  0  0  0  0  0  0  0  0  0  0
    3.1401    2.6195    4.4134 N   0  3  0  0  0  0  0  0  0  0  0  0
    2.6896    0.8397    6.6422 O   0  0  0  0  0  0  0  0  0  0  0  0
   -0.0574    3.2390    7.1286 O   0  0  0  0  0  0  0  0  0  0  0  0
   -0.5185    1.3593    9.2757 O   0  0  0  0  0  0  0  0  0  0  0  0
   -2.0947    1.7550    3.1660 C   0  0  2  0  0  0  0  0  0  0  0  0
   -2.6353    2.1335    1.7939 C   0  0  0  0  0  0  0  0  0  0  0  0
   -3.7413    3.1810    1.9256 C   0  0  1  0  0  0  0  0  0  0  0  0
   -3.1890    4.4289    2.6109 C   0  0  2  0  0  0  0  0  0  0  0  0
   -2.6336    4.0660    3.9890 C   0  0  1  0  0  0  0  0  0  0  0  0
   -1.5495    2.9973    3.8537 C   0  0  1  0  0  0  0  0  0  0  0  0
   -1.0015    0.7660    3.0427 N   0  3  0  0  0  0  0  0  0  0  0  0
   -4.3175    3.4783    0.5886 N   0  3  0  0  0  0  0  0  0  0  0  0
   -2.0955    5.2246    4.6119 O   0  0  0  0  0  0  0  0  0  0  0  0
   -1.0427    2.6484    5.1546 O   0  0  0  0  0  0  0  0  0  0  0  0
   -3.8191    6.6661    3.2122 C   0  0  1  0  0  0  0  0  0  0  0  0
   -4.9720    7.3613    3.9384 C   0  0  1  0  0  0  0  0  0  0  0  0
   -6.1192    7.6258    2.9749 C   0  0  0  0  0  0  0  0  0  0  0  0
   -5.6021    8.4201    1.7865 C   0  0  1  0  0  0  0  0  0  0  0  0
   -4.4418    7.6718    1.1312 C   0  0  1  0  0  0  0  0  0  0  0  0
   -3.8351    8.4363   -0.0314 C   0  0  0  0  0  0  0  0  0  0  0  0
   -5.4079    6.5794    5.1196 N   0  3  0  0  0  0  0  0  0  0  0  0
   -2.9632    7.5669   -0.8571 N   0  3  0  0  0  0  0  0  0  0  0  0
   -4.2253    5.4232    2.7449 O   0  0  0  0  0  0  0  0  0  0  0  0
   -6.6457    8.6172    0.8437 O   0  0  0  0  0  0  0  0  0  0  0  0
   -3.3875    7.4491    2.0925 O   0  0  0  0  0  0  0  0  0  0  0  0
  1  2  1  0  0  0  0
  1 10  1  0  0  0  0
  1 21  1  6  0  0  0
  2  3  1  0  0  0  0
  2  7  1  6  0  0  0
  3  4  1  0  0  0  0
  3  8  1  1  0  0  0
  4  5  1  0  0  0  0
  4  9  1  6  0  0  0
  5  6  1  1  0  0  0
  5 10  1  0  0  0  0
  6 11  1  0  0  0  0
 12 13  1  0  0  0  0
 12 17  1  0  0  0  0
 12 18  1  6  0  0  0
 13 14  1  0  0  0  0
 14 15  1  0  0  0  0
 14 19  1  6  0  0  0
 15 16  1  0  0  0  0
 15 30  1  1  0  0  0
 16 17  1  0  0  0  0
 16 20  1  6  0  0  0
 17 21  1  1  0  0  0
 22 23  1  0  0  0  0
 22 30  1  6  0  0  0
 22 32  1  0  0  0  0
 23 24  1  0  0  0  0
 23 28  1  1  0  0  0
 24 25  1  0  0  0  0
 25 26  1  0  0  0  0
 25 31  1  6  0  0  0
 26 27  1  6  0  0  0
 26 32  1  0  0  0  0
 27 29  1  0  0  0  0
M  CHG  5   8   1  18   1  19   1  28   1  29   1
M  END
>  <CHROM.1>
-69.40811544,173.28089183,-176.88717246,-55.26184267,-170.88852032,-162.08184651
-58.48819070,-62.59649879,-172.81927948,85.11814717,167.44845440,-152.38119371
74.11145916,65.19854750,-165.50689307,-62.81047858,-1.97050471,4.37313721
3.84778957,0.56694713,-0.72238620,1.59533487

>  <Name>
1tob

>  <RI>
0

>  <Rbt.Current_Directory>
/home/itssahil/PROJECTS/Mol_Feturizer/New_Systems/rnas/1tob

>  <Rbt.Executable>
rbdock ($Id: //depot/dev/client3/rdock/2013.1/src/exe/rbdock.cxx#4 $)

>  <Rbt.Library>
libRbt.so (2013.1, Build901 2013/11/27)

>  <Rbt.Parameter_File>
/export/apps/rDock/src/rDock_2013.1_src/data/scripts/dock_solv.prm

>  <Rbt.Receptor>
prm/pocket_docking_5.prm

>  <SCORE>
-44.6763

>  <SCORE.INTER>
-41.0456

>  <SCORE.INTER.CONST>
1

>  <SCORE.INTER.POLAR>
-5.64427

>  <SCORE.INTER.ROT>
6

>  <SCORE.INTER.SOLV>
32.7173

>  <SCORE.INTER.VDW>
-27.0553

>  <SCORE.INTER.norm>
-1.28268

>  <SCORE.INTRA>
-3.66274

>  <SCORE.INTRA.DIHEDRAL>
-12.0981

>  <SCORE.INTRA.DIHEDRAL.0>
22.9177

>  <SCORE.INTRA.POLAR>
0.306142

>  <SCORE.INTRA.POLAR.0>
-0.311208

>  <SCORE.INTRA.REPUL>
0.0656244

>  <SCORE.INTRA.REPUL.0>
0

>  <SCORE.INTRA.SOLV>
-4.74174

>  <SCORE.INTRA.SOLV.lig_0>
-132.657

>  <SCORE.INTRA.VDW>
3.38816

>  <SCORE.INTRA.VDW.0>
-4.68867

>  <SCORE.INTRA.norm>
-0.114461

>  <SCORE.RESTR>
0.0320373

>  <SCORE.RESTR.CAVITY>
0.0320373

>  <SCORE.RESTR.norm>
0.00100117

>  <SCORE.SYSTEM>
0

>  <SCORE.SYSTEM.CONST>
0

>  <SCORE.SYSTEM.DIHEDRAL>
0

>  <SCORE.SYSTEM.SOLV>
0

>  <SCORE.SYSTEM.norm>
0

>  <SCORE.heavy>
32

>  <SCORE.norm>
-1.39614

>  <RMSD>
4.587

$$$$
1tob
 OpenBabel11021811413D
libRbt.so/2013.1/901 2013/11/27
 32 34  0  0  0  0  0  0  0  0999 V2000
   -1.2918    3.5468    5.6376 C   0  0  2  0  0  0  0  0  0  0  0  0
   -1.2139    4.2515    6.9898 C   0  0  1  0  0  0  0  0  0  0  0  0
    0.2428    4.5080    7.3512 C   0  0  2  0  0  0  0  0  0  0  0  0
    1.0108    3.1920    7.3210 C   0  0  1  0  0  0  0  0  0  0  0  0
    0.8507    2.5295    5.9554 C   0  0  1  0  0  0  0  0  0  0  0  0
    1.5301    1.1759    5.8874 C   0  0  0  0  0  0  0  0  0  0  0  0
   -1.9164    5.4845    6.9290 O   0  0  0  0  0  0  0  0  0  0  0  0
    0.3566    5.1842    8.6616 N   0  3  0  0  0  0  0  0  0  0  0  0
    2.3857    3.4314    7.5898 O   0  0  0  0  0  0  0  0  0  0  0  0
   -0.5489    2.3216    5.6673 O   0  0  0  0  0  0  0  0  0  0  0  0
    1.3014    0.5427    4.6364 O   0  0  0  0  0  0  0  0  0  0  0  0
   -1.6823    2.9232    2.9266 C   0  0  2  0  0  0  0  0  0  0  0  0
   -2.4594    2.9302    1.6173 C   0  0  0  0  0  0  0  0  0  0  0  0
   -3.8205    3.6003    1.8073 C   0  0  1  0  0  0  0  0  0  0  0  0
   -3.6242    5.0377    2.2839 C   0  0  2  0  0  0  0  0  0  0  0  0
   -2.8375    5.0507    3.5955 C   0  0  1  0  0  0  0  0  0  0  0  0
   -1.4906    4.3534    3.4072 C   0  0  1  0  0  0  0  0  0  0  0  0
   -0.3510    2.3055    2.7411 N   0  3  0  0  0  0  0  0  0  0  0  0
   -4.6015    3.5247    0.5454 N   0  3  0  0  0  0  0  0  0  0  0  0
   -2.6327    6.3912    4.0212 O   0  0  0  0  0  0  0  0  0  0  0  0
   -0.7624    4.3544    4.6484 O   0  0  0  0  0  0  0  0  0  0  0  0
   -5.0104    6.9746    1.9829 C   0  0  1  0  0  0  0  0  0  0  0  0
   -5.9366    7.8017    2.8762 C   0  0  1  0  0  0  0  0  0  0  0  0
   -7.3435    7.2234    2.8562 C   0  0  0  0  0  0  0  0  0  0  0  0
   -7.8288    7.1363    1.4184 C   0  0  1  0  0  0  0  0  0  0  0  0
   -6.8417    6.3155    0.5893 C   0  0  1  0  0  0  0  0  0  0  0  0
   -7.2330    6.2351   -0.8752 C   0  0  0  0  0  0  0  0  0  0  0  0
   -5.3980    7.9049    4.2531 N   0  3  0  0  0  0  0  0  0  0  0  0
   -8.4054    5.3504   -1.0763 N   0  3  0  0  0  0  0  0  0  0  0  0
   -4.9024    5.6792    2.4712 O   0  0  0  0  0  0  0  0  0  0  0  0
   -9.1146    6.5349    1.3760 O   0  0  0  0  0  0  0  0  0  0  0  0
   -5.5273    6.9109    0.6479 O   0  0  0  0  0  0  0  0  0  0  0  0
  1  2  1  0  0  0  0
  1 10  1  0  0  0  0
  1 21  1  6  0  0  0
  2  3  1  0  0  0  0
  2  7  1  6  0  0  0
  3  4  1  0  0  0  0
  3  8  1  1  0  0  0
  4  5  1  0  0  0  0
  4  9  1  6  0  0  0
  5  6  1  1  0  0  0
  5 10  1  0  0  0  0
  6 11  1  0  0  0  0
 12 13  1  0  0  0  0
 12 17  1  0  0  0  0
 12 18  1  6  0  0  0
 13 14  1  0  0  0  0
 14 15  1  0  0  0  0
 14 19  1  6  0  0  0
 15 16  1  0  0  0  0
 15 30  1  1  0  0  0
 16 17  1  0  0  0  0
 16 20  1  6  0  0  0
 17 21  1  1  0  0  0
 22 23  1  0  0  0  0
 22 30  1  1  0  0  0
 22 32  1  0  0  0  0
 23 24  1  0  0  0  0
 23 28  1  1  0  0  0
 24 25  1  0  0  0  0
 25 26  1  0  0  0  0
 25 31  1  1  0  0  0
 26 27  1  6  0  0  0
 26 32  1  0  0  0  0
 27 29  1  0  0  0  0
M  CHG  5   8   1  18   1  19   1  28   1  29   1
M  END
>  <CHROM.1>
-139.23460337,-88.76907853,58.04535668,168.15584428,176.49987283,159.11787157
82.28541096,52.83969462,-136.02255015,-61.63764324,-52.94659268,-146.24747272
-4.40633979,66.73006931,-72.52610738,43.93522285,-2.96340422,4.70540969,3.65700469
0.21853393,-0.66275303,0.90128100

>  <Name>
1tob

>  <RI>
0

>  <Rbt.Current_Directory>
/home/itssahil/PROJECTS/Mol_Feturizer/New_Systems/rnas/1tob

>  <Rbt.Executable>
rbdock ($Id: //depot/dev/client3/rdock/2013.1/src/exe/rbdock.cxx#4 $)

>  <Rbt.Library>
libRbt.so (2013.1, Build901 2013/11/27)

>  <Rbt.Parameter_File>
/export/apps/rDock/src/rDock_2013.1_src/data/scripts/dock_solv.prm

>  <Rbt.Receptor>
prm/pocket_docking_4.prm

>  <SCORE>
-55.3486

>  <SCORE.INTER>
-49.5832

>  <SCORE.INTER.CONST>
1

>  <SCORE.INTER.POLAR>
-7.76512

>  <SCORE.INTER.ROT>
6

>  <SCORE.INTER.SOLV>
28.2944

>  <SCORE.INTER.VDW>
-24.2032

>  <SCORE.INTER.norm>
-1.54947

>  <SCORE.INTRA>
-5.78489

>  <SCORE.INTRA.DIHEDRAL>
5.50662

>  <SCORE.INTRA.DIHEDRAL.0>
22.9177

>  <SCORE.INTRA.POLAR>
-3.18892

>  <SCORE.INTRA.POLAR.0>
-0.311208

>  <SCORE.INTRA.REPUL>
0

>  <SCORE.INTRA.REPUL.0>
0

>  <SCORE.INTRA.SOLV>
2.26144

>  <SCORE.INTRA.SOLV.lig_0>
-132.657

>  <SCORE.INTRA.VDW>
1.1734

>  <SCORE.INTRA.VDW.0>
-4.68867

>  <SCORE.INTRA.norm>
-0.180778

>  <SCORE.RESTR>
0.0194488

>  <SCORE.RESTR.CAVITY>
0.0194488

>  <SCORE.RESTR.norm>
0.000607774

>  <SCORE.SYSTEM>
0

>  <SCORE.SYSTEM.CONST>
0

>  <SCORE.SYSTEM.DIHEDRAL>
0

>  <SCORE.SYSTEM.SOLV>
0

>  <SCORE.SYSTEM.norm>
0

>  <SCORE.heavy>
32

>  <SCORE.norm>
-1.72964

>  <RMSD>
4.588

$$$$
1tob
 OpenBabel11021811413D
libRbt.so/2013.1/901 2013/11/27
 32 34  0  0  0  0  0  0  0  0999 V2000
   -2.3518    3.8200    4.5943 C   0  0  2  0  0  0  0  0  0  0  0  0
   -1.0265    3.8954    5.3487 C   0  0  1  0  0  0  0  0  0  0  0  0
    0.1274    3.9267    4.3558 C   0  0  2  0  0  0  0  0  0  0  0  0
    0.0353    2.7162    3.4346 C   0  0  1  0  0  0  0  0  0  0  0  0
   -1.3290    2.6876    2.7510 C   0  0  1  0  0  0  0  0  0  0  0  0
   -1.5115    1.4617    1.8779 C   0  0  0  0  0  0  0  0  0  0  0  0
   -0.9984    5.0660    6.1526 O   0  0  0  0  0  0  0  0  0  0  0  0
    1.4300    3.9923    5.0533 N   0  3  0  0  0  0  0  0  0  0  0  0
    1.0687    2.7734    2.4606 O   0  0  0  0  0  0  0  0  0  0  0  0
   -2.3788    2.6679    3.7423 O   0  0  0  0  0  0  0  0  0  0  0  0
   -1.5320    0.2712    2.6526 O   0  0  0  0  0  0  0  0  0  0  0  0
   -3.8389    6.9050    4.3405 C   0  0  2  0  0  0  0  0  0  0  0  0
   -5.2523    7.4703    4.3141 C   0  0  0  0  0  0  0  0  0  0  0  0
   -5.8023    7.4680    2.8875 C   0  0  1  0  0  0  0  0  0  0  0  0
   -5.8208    6.0405    2.3455 C   0  0  2  0  0  0  0  0  0  0  0  0
   -4.4089    5.4530    2.3720 C   0  0  1  0  0  0  0  0  0  0  0  0
   -3.8530    5.4852    3.7953 C   0  0  1  0  0  0  0  0  0  0  0  0
   -3.3138    6.8740    5.7232 N   0  3  0  0  0  0  0  0  0  0  0  0
   -7.1472    8.0994    2.8634 N   0  3  0  0  0  0  0  0  0  0  0  0
   -4.4347    4.1151    1.8931 O   0  0  0  0  0  0  0  0  0  0  0  0
   -2.5187    4.9465    3.8107 O   0  0  0  0  0  0  0  0  0  0  0  0
   -7.4653    5.2498    0.7854 C   0  0  1  0  0  0  0  0  0  0  0  0
   -7.4976    4.7444   -0.6581 C   0  0  1  0  0  0  0  0  0  0  0  0
   -7.6003    5.9148   -1.6245 C   0  0  0  0  0  0  0  0  0  0  0  0
   -8.8131    6.7571   -1.2639 C   0  0  1  0  0  0  0  0  0  0  0  0
   -8.7166    7.2031    0.1946 C   0  0  1  0  0  0  0  0  0  0  0  0
   -9.9265    8.0025    0.6431 C   0  0  0  0  0  0  0  0  0  0  0  0
   -6.3258    3.8850   -0.9491 N   0  3  0  0  0  0  0  0  0  0  0  0
  -10.4958    7.4657    1.9023 N   0  3  0  0  0  0  0  0  0  0  0  0
   -6.3338    6.0262    0.9976 O   0  0  0  0  0  0  0  0  0  0  0  0
   -8.8853    7.8925   -2.1140 O   0  0  0  0  0  0  0  0  0  0  0  0
   -8.6201    6.0521    1.0613 O   0  0  0  0  0  0  0  0  0  0  0  0
  1  2  1  0  0  0  0
  1 10  1  0  0  0  0
  1 21  1  6  0  0  0
  2  3  1  0  0  0  0
  2  7  1  6  0  0  0
  3  4  1  0  0  0  0
  3  8  1  1  0  0  0
  4  5  1  0  0  0  0
  4  9  1  6  0  0  0
  5  6  1  1  0  0  0
  5 10  1  0  0  0  0
  6 11  1  0  0  0  0
 12 13  1  0  0  0  0
 12 17  1  0  0  0  0
 12 18  1  1  0  0  0
 13 14  1  0  0  0  0
 14 15  1  0  0  0  0
 14 19  1  1  0  0  0
 15 16  1  0  0  0  0
 15 30  1  6  0  0  0
 16 17  1  0  0  0  0
 16 20  1  1  0  0  0
 17 21  1  6  0  0  0
 22 23  1  0  0  0  0
 22 30  1  6  0  0  0
 22 32  1  0  0  0  0
 23 24  1  0  0  0  0
 23 28  1  6  0  0  0
 24 25  1  0  0  0  0
 25 26  1  0  0  0  0
 25 31  1  6  0  0  0
 26 27  1  1  0  0  0
 26 32  1  0  0  0  0
 27 29  1  0  0  0  0
M  CHG  5   8   1  18   1  19   1  28   1  29   1
M  END
>  <CHROM.1>
-139.40622640,86.88541325,-48.33252451,68.51792541,65.65781629,-177.20448691
-66.88909022,54.87101334,-121.08040986,-176.04133034,119.01770337,-151.47583972
-78.39732542,67.37758595,128.93043544,65.29343042,-4.52636505,5.14952214
2.37975676,0.07379087,-0.58103117,0.87157496

>  <Name>
1tob

>  <RI>
0

>  <Rbt.Current_Directory>
/home/itssahil/PROJECTS/Mol_Feturizer/New_Systems/rnas/1tob

>  <Rbt.Executable>
rbdock ($Id: //depot/dev/client3/rdock/2013.1/src/exe/rbdock.cxx#4 $)

>  <Rbt.Library>
libRbt.so (2013.1, Build901 2013/11/27)

>  <Rbt.Parameter_File>
/export/apps/rDock/src/rDock_2013.1_src/data/scripts/dock_solv.prm

>  <Rbt.Receptor>
prm/pocket_docking_4.prm

>  <SCORE>
-37.0169

>  <SCORE.INTER>
-40.8569

>  <SCORE.INTER.CONST>
1

>  <SCORE.INTER.POLAR>
-4.70395

>  <SCORE.INTER.ROT>
6

>  <SCORE.INTER.SOLV>
30.4025

>  <SCORE.INTER.VDW>
-29.2923

>  <SCORE.INTER.norm>
-1.27678

>  <SCORE.INTRA>
3.83999

>  <SCORE.INTRA.DIHEDRAL>
10.5054

>  <SCORE.INTRA.DIHEDRAL.0>
22.9177

>  <SCORE.INTRA.POLAR>
-0.78985

>  <SCORE.INTRA.POLAR.0>
-0.311208

>  <SCORE.INTRA.REPUL>
0

>  <SCORE.INTRA.REPUL.0>
0

>  <SCORE.INTRA.SOLV>
3.72965

>  <SCORE.INTRA.SOLV.lig_0>
-132.657

>  <SCORE.INTRA.VDW>
-0.592045

>  <SCORE.INTRA.VDW.0>
-4.68867

>  <SCORE.INTRA.norm>
0.12

>  <SCORE.RESTR>
0

>  <SCORE.RESTR.CAVITY>
0

>  <SCORE.RESTR.norm>
0

>  <SCORE.SYSTEM>
0

>  <SCORE.SYSTEM.CONST>
0

>  <SCORE.SYSTEM.DIHEDRAL>
0

>  <SCORE.SYSTEM.SOLV>
0

>  <SCORE.SYSTEM.norm>
0

>  <SCORE.heavy>
32

>  <SCORE.norm>
-1.15678

>  <RMSD>
4.592

$$$$
1tob
 OpenBabel11021811413D
libRbt.so/2013.1/901 2013/11/27
 32 34  0  0  0  0  0  0  0  0999 V2000
   -2.5699    4.1937    4.7161 C   0  0  2  0  0  0  0  0  0  0  0  0
   -1.2167    4.1572    5.4224 C   0  0  1  0  0  0  0  0  0  0  0  0
   -0.0987    4.2661    4.3945 C   0  0  2  0  0  0  0  0  0  0  0  0
   -0.2575    3.1624    3.3556 C   0  0  1  0  0  0  0  0  0  0  0  0
   -1.6457    3.2389    2.7260 C   0  0  1  0  0  0  0  0  0  0  0  0
   -1.8933    2.1170    1.7367 C   0  0  0  0  0  0  0  0  0  0  0  0
   -1.1273    5.2351    6.3431 O   0  0  0  0  0  0  0  0  0  0  0  0
    1.2293    4.2265    5.0441 N   0  3  0  0  0  0  0  0  0  0  0  0
    0.7415    3.2979    2.3537 O   0  0  0  0  0  0  0  0  0  0  0  0
   -2.6593    3.1392    3.7496 O   0  0  0  0  0  0  0  0  0  0  0  0
   -3.2809    1.9413    1.4881 O   0  0  0  0  0  0  0  0  0  0  0  0
   -4.0774    7.3187    4.6730 C   0  0  2  0  0  0  0  0  0  0  0  0
   -5.4983    7.8657    4.6736 C   0  0  0  0  0  0  0  0  0  0  0  0
   -6.0536    7.9123    3.2498 C   0  0  1  0  0  0  0  0  0  0  0  0
   -6.0552    6.5072    2.6520 C   0  0  2  0  0  0  0  0  0  0  0  0
   -4.6356    5.9380    2.6506 C   0  0  1  0  0  0  0  0  0  0  0  0
   -4.0749    5.9214    4.0723 C   0  0  1  0  0  0  0  0  0  0  0  0
   -3.5467    7.2403    6.0517 N   0  3  0  0  0  0  0  0  0  0  0  0
   -7.4068    8.5262    3.2550 N   0  3  0  0  0  0  0  0  0  0  0  0
   -4.6456    4.6197    2.1194 O   0  0  0  0  0  0  0  0  0  0  0  0
   -2.7335    5.4004    4.0621 O   0  0  0  0  0  0  0  0  0  0  0  0
   -7.5181    5.5707    0.9947 C   0  0  1  0  0  0  0  0  0  0  0  0
   -7.1488    4.8725   -0.3153 C   0  0  1  0  0  0  0  0  0  0  0  0
   -7.1671    5.8671   -1.4664 C   0  0  0  0  0  0  0  0  0  0  0  0
   -8.5256    6.5469   -1.5193 C   0  0  1  0  0  0  0  0  0  0  0  0
   -8.8291    7.1993   -0.1711 C   0  0  1  0  0  0  0  0  0  0  0  0
  -10.2001    7.8497   -0.1315 C   0  0  0  0  0  0  0  0  0  0  0  0
   -5.8440    4.1790   -0.2013 N   0  3  0  0  0  0  0  0  0  0  0  0
  -10.7841    7.8032    1.2303 N   0  3  0  0  0  0  0  0  0  0  0  0
   -6.5732    6.5392    1.3062 O   0  0  0  0  0  0  0  0  0  0  0  0
   -8.5373    7.5281   -2.5459 O   0  0  0  0  0  0  0  0  0  0  0  0
   -8.7959    6.2089    0.8794 O   0  0  0  0  0  0  0  0  0  0  0  0
  1  2  1  0  0  0  0
  1 10  1  0  0  0  0
  1 21  1  6  0  0  0
  2  3  1  0  0  0  0
  2  7  1  1  0  0  0
  3  4  1  0  0  0  0
  3  8  1  1  0  0  0
  4  5  1  0  0  0  0
  4  9  1  6  0  0  0
  5  6  1  6  0  0  0
  5 10  1  0  0  0  0
  6 11  1  0  0  0  0
 12 13  1  0  0  0  0
 12 17  1  0  0  0  0
 12 18  1  1  0  0  0
 13 14  1  0  0  0  0
 14 15  1  0  0  0  0
 14 19  1  1  0  0  0
 15 16  1  0  0  0  0
 15 30  1  6  0  0  0
 16 17  1  0  0  0  0
 16 20  1  1  0  0  0
 17 21  1  6  0  0  0
 22 23  1  0  0  0  0
 22 30  1  6  0  0  0
 22 32  1  0  0  0  0
 23 24  1  0  0  0  0
 23 28  1  1  0  0  0
 24 25  1  0  0  0  0
 25 26  1  0  0  0  0
 25 31  1  6  0  0  0
 26 27  1  6  0  0  0
 26 32  1  0  0  0  0
 27 29  1  0  0  0  0
M  CHG  5   8   1  18   1  19   1  28   1  29   1
M  END
>  <CHROM.1>
-143.71873442,88.02819381,-161.80093486,-174.08569378,161.30392789,-60.22307130
175.66531513,178.63710559,-133.35079987,-65.02282455,123.65270245,-130.75597578
99.03610392,70.59402117,148.75371331,59.77193387,-4.72314576,5.50096214,2.41037203
0.19103230,-0.55882139,0.96376357

>  <Name>
1tob

>  <RI>
0

>  <Rbt.Current_Directory>
/home/itssahil/PROJECTS/Mol_Feturizer/New_Systems/rnas/1tob

>  <Rbt.Executable>
rbdock ($Id: //depot/dev/client3/rdock/2013.1/src/exe/rbdock.cxx#4 $)

>  <Rbt.Library>
libRbt.so (2013.1, Build901 2013/11/27)

>  <Rbt.Parameter_File>
/export/apps/rDock/src/rDock_2013.1_src/data/scripts/dock_solv.prm

>  <Rbt.Receptor>
prm/pocket_docking_4.prm

>  <SCORE>
-42.922

>  <SCORE.INTER>
-43.8175

>  <SCORE.INTER.CONST>
1

>  <SCORE.INTER.POLAR>
-6.15933

>  <SCORE.INTER.ROT>
6

>  <SCORE.INTER.SOLV>
30.3257

>  <SCORE.INTER.VDW>
-26.3891

>  <SCORE.INTER.norm>
-1.3693

>  <SCORE.INTRA>
0.89549

>  <SCORE.INTRA.DIHEDRAL>
13.313

>  <SCORE.INTRA.DIHEDRAL.0>
22.9177

>  <SCORE.INTRA.POLAR>
-1.84691

>  <SCORE.INTRA.POLAR.0>
-0.311208

>  <SCORE.INTRA.REPUL>
0.00133391

>  <SCORE.INTRA.REPUL.0>
0

>  <SCORE.INTRA.SOLV>
2.01538

>  <SCORE.INTRA.SOLV.lig_0>
-132.657

>  <SCORE.INTRA.VDW>
-0.495877

>  <SCORE.INTRA.VDW.0>
-4.68867

>  <SCORE.INTRA.norm>
0.0279841

>  <SCORE.RESTR>
0

>  <SCORE.RESTR.CAVITY>
0

>  <SCORE.RESTR.norm>
0

>  <SCORE.SYSTEM>
0

>  <SCORE.SYSTEM.CONST>
0

>  <SCORE.SYSTEM.DIHEDRAL>
0

>  <SCORE.SYSTEM.SOLV>
0

>  <SCORE.SYSTEM.norm>
0

>  <SCORE.heavy>
32

>  <SCORE.norm>
-1.34131

>  <RMSD>
4.609

$$$$
1tob
 OpenBabel11021811413D
libRbt.so/2013.1/901 2013/11/27
 32 34  0  0  0  0  0  0  0  0999 V2000
   -0.8196    1.3354    3.9169 C   0  0  2  0  0  0  0  0  0  0  0  0
   -0.0938    1.0619    5.2321 C   0  0  1  0  0  0  0  0  0  0  0  0
    0.2605    2.3805    5.9060 C   0  0  2  0  0  0  0  0  0  0  0  0
    1.0748    3.2375    4.9441 C   0  0  1  0  0  0  0  0  0  0  0  0
    0.3032    3.4306    3.6416 C   0  0  1  0  0  0  0  0  0  0  0  0
    1.0952    4.2125    2.6121 C   0  0  0  0  0  0  0  0  0  0  0  0
   -0.9273    0.2950    6.0891 O   0  0  0  0  0  0  0  0  0  0  0  0
    0.9728    2.1533    7.1820 N   0  3  0  0  0  0  0  0  0  0  0  0
    1.3514    4.4980    5.5396 O   0  0  0  0  0  0  0  0  0  0  0  0
   -0.0102    2.1478    3.0573 O   0  0  0  0  0  0  0  0  0  0  0  0
    1.5420    3.3748    1.5554 O   0  0  0  0  0  0  0  0  0  0  0  0
   -3.1284    2.1364    2.0168 C   0  0  2  0  0  0  0  0  0  0  0  0
   -3.5661    3.1025    0.9245 C   0  0  0  0  0  0  0  0  0  0  0  0
   -4.5003    4.1688    1.4970 C   0  0  1  0  0  0  0  0  0  0  0  0
   -3.7812    4.9456    2.5976 C   0  0  2  0  0  0  0  0  0  0  0  0
   -3.3267    3.9890    3.7011 C   0  0  1  0  0  0  0  0  0  0  0  0
   -2.4172    2.9082    3.1177 C   0  0  1  0  0  0  0  0  0  0  0  0
   -2.1979    1.1217    1.4754 N   0  3  0  0  0  0  0  0  0  0  0  0
   -4.9867    5.0529    0.4062 N   0  3  0  0  0  0  0  0  0  0  0  0
   -2.6335    4.7116    4.7097 O   0  0  0  0  0  0  0  0  0  0  0  0
   -2.0064    2.0021    4.1574 O   0  0  0  0  0  0  0  0  0  0  0  0
   -4.3109    7.2702    2.8793 C   0  0  1  0  0  0  0  0  0  0  0  0
   -2.8546    7.5280    3.2699 C   0  0  1  0  0  0  0  0  0  0  0  0
   -2.6692    7.3404    4.7681 C   0  0  0  0  0  0  0  0  0  0  0  0
   -3.6492    8.2348    5.5099 C   0  0  1  0  0  0  0  0  0  0  0  0
   -5.0746    7.9321    5.0493 C   0  0  1  0  0  0  0  0  0  0  0  0
   -6.1053    8.8313    5.7074 C   0  0  0  0  0  0  0  0  0  0  0  0
   -1.9322    6.6739    2.4849 N   0  3  0  0  0  0  0  0  0  0  0  0
   -6.3291   10.0675    4.9205 N   0  3  0  0  0  0  0  0  0  0  0  0
   -4.6548    5.9522    3.1489 O   0  0  0  0  0  0  0  0  0  0  0  0
   -3.5367    8.0218    6.9094 O   0  0  0  0  0  0  0  0  0  0  0  0
   -5.1880    8.1255    3.6227 O   0  0  0  0  0  0  0  0  0  0  0  0
  1  2  1  0  0  0  0
  1 10  1  0  0  0  0
  1 21  1  1  0  0  0
  2  3  1  0  0  0  0
  2  7  1  1  0  0  0
  3  4  1  0  0  0  0
  3  8  1  1  0  0  0
  4  5  1  0  0  0  0
  4  9  1  1  0  0  0
  5  6  1  6  0  0  0
  5 10  1  0  0  0  0
  6 11  1  0  0  0  0
 12 13  1  0  0  0  0
 12 17  1  0  0  0  0
 12 18  1  6  0  0  0
 13 14  1  0  0  0  0
 14 15  1  0  0  0  0
 14 19  1  6  0  0  0
 15 16  1  0  0  0  0
 15 30  1  1  0  0  0
 16 17  1  0  0  0  0
 16 20  1  1  0  0  0
 17 21  1  1  0  0  0
 22 23  1  0  0  0  0
 22 30  1  1  0  0  0
 22 32  1  0  0  0  0
 23 24  1  0  0  0  0
 23 28  1  6  0  0  0
 24 25  1  0  0  0  0
 25 26  1  0  0  0  0
 25 31  1  1  0  0  0
 26 27  1  1  0  0  0
 26 32  1  0  0  0  0
 27 29  1  0  0  0  0
M  CHG  5   8   1  18   1  19   1  28   1  29   1
M  END
>  <CHROM.1>
148.47491937,38.54007107,-42.00079397,63.52425712,107.73376844,147.68004361
92.24630733,-106.78743610,-111.43221907,-164.09061540,82.47215132,-52.51886701
147.56685262,163.59380111,89.62967224,175.07431686,-2.29531227,4.63806506
3.84177775,0.56129992,0.73149895,-2.31190965

>  <Name>
1tob

>  <RI>
0

>  <Rbt.Current_Directory>
/home/itssahil/PROJECTS/Mol_Feturizer/New_Systems/rnas/1tob

>  <Rbt.Executable>
rbdock ($Id: //depot/dev/client3/rdock/2013.1/src/exe/rbdock.cxx#4 $)

>  <Rbt.Library>
libRbt.so (2013.1, Build901 2013/11/27)

>  <Rbt.Parameter_File>
/export/apps/rDock/src/rDock_2013.1_src/data/scripts/dock_solv.prm

>  <Rbt.Receptor>
prm/blind_docking_40.prm

>  <SCORE>
-16.1438

>  <SCORE.INTER>
-37.186

>  <SCORE.INTER.CONST>
1

>  <SCORE.INTER.POLAR>
-5.28298

>  <SCORE.INTER.ROT>
6

>  <SCORE.INTER.SOLV>
33.6804

>  <SCORE.INTER.VDW>
-26.0075

>  <SCORE.INTER.norm>
-1.16206

>  <SCORE.INTRA>
16.0836

>  <SCORE.INTRA.DIHEDRAL>
14.4501

>  <SCORE.INTRA.DIHEDRAL.0>
22.9177

>  <SCORE.INTRA.POLAR>
-1.22868

>  <SCORE.INTRA.POLAR.0>
-0.311208

>  <SCORE.INTRA.REPUL>
0.0505454

>  <SCORE.INTRA.REPUL.0>
0

>  <SCORE.INTRA.SOLV>
4.33697

>  <SCORE.INTRA.SOLV.lig_0>
-132.657

>  <SCORE.INTRA.VDW>
10.6148

>  <SCORE.INTRA.VDW.0>
-4.68867

>  <SCORE.INTRA.norm>
0.502612

>  <SCORE.RESTR>
4.9586

>  <SCORE.RESTR.CAVITY>
4.9586

>  <SCORE.RESTR.norm>
0.154956

>  <SCORE.SYSTEM>
0

>  <SCORE.SYSTEM.CONST>
0

>  <SCORE.SYSTEM.DIHEDRAL>
0

>  <SCORE.SYSTEM.SOLV>
0

>  <SCORE.SYSTEM.norm>
0

>  <SCORE.heavy>
32

>  <SCORE.norm>
-0.504494

>  <RMSD>
4.611

$$$$
1tob
 OpenBabel11021811413D
libRbt.so/2013.1/901 2013/11/27
 32 34  0  0  0  0  0  0  0  0999 V2000
   -0.6175    2.9244    5.3604 C   0  0  2  0  0  0  0  0  0  0  0  0
    0.8517    2.7821    5.7508 C   0  0  1  0  0  0  0  0  0  0  0  0
    1.7190    2.8018    4.4995 C   0  0  2  0  0  0  0  0  0  0  0  0
    1.2498    1.7132    3.5416 C   0  0  1  0  0  0  0  0  0  0  0  0
   -0.2334    1.8982    3.2331 C   0  0  1  0  0  0  0  0  0  0  0  0
   -0.7794    0.7985    2.3436 C   0  0  0  0  0  0  0  0  0  0  0  0
    1.2253    3.8504    6.6091 O   0  0  0  0  0  0  0  0  0  0  0  0
    3.1510    2.6583    4.8402 N   0  3  0  0  0  0  0  0  0  0  0  0
    2.0091    1.7688    2.3415 O   0  0  0  0  0  0  0  0  0  0  0  0
   -0.9995    1.8795    4.4570 O   0  0  0  0  0  0  0  0  0  0  0  0
   -2.0453    1.1491    1.8027 O   0  0  0  0  0  0  0  0  0  0  0  0
   -1.7657    5.8665    6.1512 C   0  0  2  0  0  0  0  0  0  0  0  0
   -3.0629    6.5709    6.5244 C   0  0  0  0  0  0  0  0  0  0  0  0
   -3.6928    7.2193    5.2915 C   0  0  1  0  0  0  0  0  0  0  0  0
   -3.9847    6.1506    4.2405 C   0  0  2  0  0  0  0  0  0  0  0  0
   -2.6928    5.4263    3.8588 C   0  0  1  0  0  0  0  0  0  0  0  0
   -2.0522    4.8055    5.0998 C   0  0  1  0  0  0  0  0  0  0  0  0
   -1.1686    5.2090    7.3342 N   0  3  0  0  0  0  0  0  0  0  0  0
   -4.9113    7.9738    5.6841 N   0  3  0  0  0  0  0  0  0  0  0  0
   -2.9729    4.4139    2.9013 O   0  0  0  0  0  0  0  0  0  0  0  0
   -0.8291    4.1398    4.7368 O   0  0  0  0  0  0  0  0  0  0  0  0
   -5.9622    6.7219    3.0047 C   0  0  1  0  0  0  0  0  0  0  0  0
   -6.4257    6.8010    1.5491 C   0  0  1  0  0  0  0  0  0  0  0  0
   -6.0014    8.1251    0.9318 C   0  0  0  0  0  0  0  0  0  0  0  0
   -6.5287    9.2672    1.7849 C   0  0  1  0  0  0  0  0  0  0  0  0
   -6.0412    9.1042    3.2240 C   0  0  1  0  0  0  0  0  0  0  0  0
   -6.5787   10.1809    4.1492 C   0  0  0  0  0  0  0  0  0  0  0  0
   -5.9338    5.6413    0.7684 N   0  3  0  0  0  0  0  0  0  0  0  0
   -8.0223    9.9881    4.4260 N   0  3  0  0  0  0  0  0  0  0  0  0
   -4.5755    6.7515    3.0699 O   0  0  0  0  0  0  0  0  0  0  0  0
   -6.0840   10.5099    1.2604 O   0  0  0  0  0  0  0  0  0  0  0  0
   -6.4719    7.8318    3.7540 O   0  0  0  0  0  0  0  0  0  0  0  0
  1  2  1  0  0  0  0
  1 10  1  0  0  0  0
  1 21  1  6  0  0  0
  2  3  1  0  0  0  0
  2  7  1  1  0  0  0
  3  4  1  0  0  0  0
  3  8  1  1  0  0  0
  4  5  1  0  0  0  0
  4  9  1  6  0  0  0
  5  6  1  6  0  0  0
  5 10  1  0  0  0  0
  6 11  1  0  0  0  0
 12 13  1  0  0  0  0
 12 17  1  0  0  0  0
 12 18  1  1  0  0  0
 13 14  1  0  0  0  0
 14 15  1  0  0  0  0
 14 19  1  1  0  0  0
 15 16  1  0  0  0  0
 15 30  1  6  0  0  0
 16 17  1  0  0  0  0
 16 20  1  6  0  0  0
 17 21  1  6  0  0  0
 22 23  1  0  0  0  0
 22 30  1  6  0  0  0
 22 32  1  0  0  0  0
 23 24  1  0  0  0  0
 23 28  1  6  0  0  0
 24 25  1  0  0  0  0
 25 26  1  0  0  0  0
 25 31  1  6  0  0  0
 26 27  1  1  0  0  0
 26 32  1  0  0  0  0
 27 29  1  0  0  0  0
M  CHG  5   8   1  18   1  19   1  28   1  29   1
M  END
>  <CHROM.1>
-139.90591639,172.06911562,59.63929501,68.41152298,-165.62421067,157.69883479
48.84943839,3.88941296,-95.90408984,-66.14255805,98.77032774,-155.31971468
60.56387664,178.45537643,72.22540179,54.46768222,-2.81012584,5.39473221,3.88668518
-0.27016408,-0.69511948,0.95267176

>  <Name>
1tob

>  <RI>
0

>  <Rbt.Current_Directory>
/home/itssahil/PROJECTS/Mol_Feturizer/New_Systems/rnas/1tob

>  <Rbt.Executable>
rbdock ($Id: //depot/dev/client3/rdock/2013.1/src/exe/rbdock.cxx#4 $)

>  <Rbt.Library>
libRbt.so (2013.1, Build901 2013/11/27)

>  <Rbt.Parameter_File>
/export/apps/rDock/src/rDock_2013.1_src/data/scripts/dock_solv.prm

>  <Rbt.Receptor>
prm/blind_docking_60.prm

>  <SCORE>
-7.5724

>  <SCORE.INTER>
-14.632

>  <SCORE.INTER.CONST>
1

>  <SCORE.INTER.POLAR>
-3.8593

>  <SCORE.INTER.ROT>
6

>  <SCORE.INTER.SOLV>
24.8392

>  <SCORE.INTER.VDW>
-12.7701

>  <SCORE.INTER.norm>
-0.457249

>  <SCORE.INTRA>
0.392238

>  <SCORE.INTRA.DIHEDRAL>
3.18366

>  <SCORE.INTRA.DIHEDRAL.0>
22.9177

>  <SCORE.INTRA.POLAR>
-1.59273

>  <SCORE.INTRA.POLAR.0>
-0.311208

>  <SCORE.INTRA.REPUL>
0

>  <SCORE.INTRA.REPUL.0>
0

>  <SCORE.INTRA.SOLV>
4.02239

>  <SCORE.INTRA.SOLV.lig_0>
-132.657

>  <SCORE.INTRA.VDW>
2.20451

>  <SCORE.INTRA.VDW.0>
-4.68867

>  <SCORE.INTRA.norm>
0.0122574

>  <SCORE.RESTR>
6.66733

>  <SCORE.RESTR.CAVITY>
6.66733

>  <SCORE.RESTR.norm>
0.208354

>  <SCORE.SYSTEM>
0

>  <SCORE.SYSTEM.CONST>
0

>  <SCORE.SYSTEM.DIHEDRAL>
0

>  <SCORE.SYSTEM.SOLV>
0

>  <SCORE.SYSTEM.norm>
0

>  <SCORE.heavy>
32

>  <SCORE.norm>
-0.236638

>  <RMSD>
4.613

$$$$
1tob
 OpenBabel11021811413D
libRbt.so/2013.1/901 2013/11/27
 32 34  0  0  0  0  0  0  0  0999 V2000
   -2.7799    4.0193    4.1171 C   0  0  2  0  0  0  0  0  0  0  0  0
   -1.6629    4.1886    5.1441 C   0  0  1  0  0  0  0  0  0  0  0  0
   -0.3362    3.7568    4.5345 C   0  0  2  0  0  0  0  0  0  0  0  0
   -0.4579    2.3281    4.0179 C   0  0  1  0  0  0  0  0  0  0  0  0
   -1.6185    2.2306    3.0317 C   0  0  1  0  0  0  0  0  0  0  0  0
   -1.8401    0.8139    2.5394 C   0  0  0  0  0  0  0  0  0  0  0  0
   -1.5846    5.5483    5.5474 O   0  0  0  0  0  0  0  0  0  0  0  0
    0.7696    3.9007    5.5060 N   0  3  0  0  0  0  0  0  0  0  0  0
    0.7545    1.9405    3.3856 O   0  0  0  0  0  0  0  0  0  0  0  0
   -2.8431    2.6609    3.6645 O   0  0  0  0  0  0  0  0  0  0  0  0
   -2.3460   -0.0209    3.5715 O   0  0  0  0  0  0  0  0  0  0  0  0
   -2.8923    7.2087    2.7092 C   0  0  2  0  0  0  0  0  0  0  0  0
   -3.9573    8.2673    2.4573 C   0  0  0  0  0  0  0  0  0  0  0  0
   -4.7071    7.9725    1.1580 C   0  0  1  0  0  0  0  0  0  0  0  0
   -5.3721    6.6008    1.2475 C   0  0  2  0  0  0  0  0  0  0  0  0
   -4.3173    5.5246    1.5086 C   0  0  1  0  0  0  0  0  0  0  0  0
   -3.5510    5.8403    2.7927 C   0  0  1  0  0  0  0  0  0  0  0  0
   -2.1856    7.4704    3.9821 N   0  3  0  0  0  0  0  0  0  0  0  0
   -5.6839    9.0575    0.8809 N   0  3  0  0  0  0  0  0  0  0  0  0
   -4.9431    4.2533    1.6191 O   0  0  0  0  0  0  0  0  0  0  0  0
   -2.5494    4.8333    3.0239 O   0  0  0  0  0  0  0  0  0  0  0  0
   -7.2423    5.5624    0.1576 C   0  0  1  0  0  0  0  0  0  0  0  0
   -7.6632    4.9924   -1.1980 C   0  0  1  0  0  0  0  0  0  0  0  0
   -7.9928    6.1197   -2.1649 C   0  0  0  0  0  0  0  0  0  0  0  0
   -9.0508    7.0179   -1.5450 C   0  0  1  0  0  0  0  0  0  0  0  0
   -8.5651    7.5272   -0.1884 C   0  0  1  0  0  0  0  0  0  0  0  0
   -9.5982    8.3865    0.5178 C   0  0  0  0  0  0  0  0  0  0  0  0
   -6.6268    4.0817   -1.7393 N   0  3  0  0  0  0  0  0  0  0  0  0
  -10.9117    7.7035    0.5948 N   0  3  0  0  0  0  0  0  0  0  0  0
   -6.0794    6.3095    0.0247 O   0  0  0  0  0  0  0  0  0  0  0  0
   -9.3211    8.1146   -2.4058 O   0  0  0  0  0  0  0  0  0  0  0  0
   -8.2674    6.4148    0.6829 O   0  0  0  0  0  0  0  0  0  0  0  0
  1  2  1  0  0  0  0
  1 10  1  0  0  0  0
  1 21  1  6  0  0  0
  2  3  1  0  0  0  0
  2  7  1  6  0  0  0
  3  4  1  0  0  0  0
  3  8  1  1  0  0  0
  4  5  1  0  0  0  0
  4  9  1  6  0  0  0
  5  6  1  1  0  0  0
  5 10  1  0  0  0  0
  6 11  1  0  0  0  0
 12 13  1  0  0  0  0
 12 17  1  0  0  0  0
 12 18  1  1  0  0  0
 13 14  1  0  0  0  0
 14 15  1  0  0  0  0
 14 19  1  1  0  0  0
 15 16  1  0  0  0  0
 15 30  1  6  0  0  0
 16 17  1  0  0  0  0
 16 20  1  1  0  0  0
 17 21  1  6  0  0  0
 22 23  1  0  0  0  0
 22 30  1  6  0  0  0
 22 32  1  0  0  0  0
 23 24  1  0  0  0  0
 23 28  1  6  0  0  0
 24 25  1  0  0  0  0
 25 26  1  0  0  0  0
 25 31  1  6  0  0  0
 26 27  1  1  0  0  0
 26 32  1  0  0  0  0
 27 29  1  0  0  0  0
M  CHG  5   8   1  18   1  19   1  28   1  29   1
M  END
>  <CHROM.1>
-117.58662005,177.39124755,176.43928016,177.15654261,69.58834272,-163.05493953
-79.89587178,-58.54695728,-146.35910207,68.71957803,126.12168210,-163.81116142
72.04818589,-58.20609016,51.86992367,49.71586352,-4.53308776,5.31549790,1.86135696
-0.26980659,-0.65117024,0.28042169

>  <Name>
1tob

>  <RI>
0

>  <Rbt.Current_Directory>
/home/itssahil/PROJECTS/Mol_Feturizer/New_Systems/rnas/1tob

>  <Rbt.Executable>
rbdock ($Id: //depot/dev/client3/rdock/2013.1/src/exe/rbdock.cxx#4 $)

>  <Rbt.Library>
libRbt.so (2013.1, Build901 2013/11/27)

>  <Rbt.Parameter_File>
/export/apps/rDock/src/rDock_2013.1_src/data/scripts/dock_solv.prm

>  <Rbt.Receptor>
prm/pocket_docking_5.prm

>  <SCORE>
-35.4505

>  <SCORE.INTER>
-33.6569

>  <SCORE.INTER.CONST>
1

>  <SCORE.INTER.POLAR>
-4.01614

>  <SCORE.INTER.ROT>
6

>  <SCORE.INTER.SOLV>
26.7437

>  <SCORE.INTER.VDW>
-25.5654

>  <SCORE.INTER.norm>
-1.05178

>  <SCORE.INTRA>
-1.79358

>  <SCORE.INTRA.DIHEDRAL>
0.541132

>  <SCORE.INTRA.DIHEDRAL.0>
22.9177

>  <SCORE.INTRA.POLAR>
-0.651867

>  <SCORE.INTRA.POLAR.0>
-0.311208

>  <SCORE.INTRA.REPUL>
0

>  <SCORE.INTRA.REPUL.0>
0

>  <SCORE.INTRA.SOLV>
0.992997

>  <SCORE.INTRA.SOLV.lig_0>
-132.657

>  <SCORE.INTRA.VDW>
-0.344298

>  <SCORE.INTRA.VDW.0>
-4.68867

>  <SCORE.INTRA.norm>
-0.0560494

>  <SCORE.RESTR>
0

>  <SCORE.RESTR.CAVITY>
0

>  <SCORE.RESTR.norm>
0

>  <SCORE.SYSTEM>
0

>  <SCORE.SYSTEM.CONST>
0

>  <SCORE.SYSTEM.DIHEDRAL>
0

>  <SCORE.SYSTEM.SOLV>
0

>  <SCORE.SYSTEM.norm>
0

>  <SCORE.heavy>
32

>  <SCORE.norm>
-1.10783

>  <RMSD>
4.614

$$$$
1tob
 OpenBabel11021811413D
libRbt.so/2013.1/901 2013/11/27
 32 34  0  0  0  0  0  0  0  0999 V2000
    0.4729    4.1681    5.3116 C   0  0  2  0  0  0  0  0  0  0  0  0
    1.7826    3.3935    5.4378 C   0  0  1  0  0  0  0  0  0  0  0  0
    1.7105    2.4561    6.6354 C   0  0  2  0  0  0  0  0  0  0  0  0
    1.3709    3.2582    7.8860 C   0  0  1  0  0  0  0  0  0  0  0  0
    0.0755    4.0351    7.6676 C   0  0  1  0  0  0  0  0  0  0  0  0
   -0.2762    4.9150    8.8510 C   0  0  0  0  0  0  0  0  0  0  0  0
    2.0109    2.6418    4.2544 O   0  0  0  0  0  0  0  0  0  0  0  0
    2.9679    1.6934    6.7927 N   0  3  0  0  0  0  0  0  0  0  0  0
    1.2338    2.3820    8.9966 O   0  0  0  0  0  0  0  0  0  0  0  0
    0.2036    4.8968    6.5160 O   0  0  0  0  0  0  0  0  0  0  0  0
    0.7807    5.8113    9.1636 O   0  0  0  0  0  0  0  0  0  0  0  0
   -1.6948    2.1167    3.2918 C   0  0  2  0  0  0  0  0  0  0  0  0
   -2.4127    2.3088    1.9629 C   0  0  0  0  0  0  0  0  0  0  0  0
   -3.6263    3.2221    2.1382 C   0  0  1  0  0  0  0  0  0  0  0  0
   -3.1750    4.5814    2.6678 C   0  0  2  0  0  0  0  0  0  0  0  0
   -2.4440    4.4070    3.9999 C   0  0  1  0  0  0  0  0  0  0  0  0
   -1.2495    3.4698    3.8249 C   0  0  1  0  0  0  0  0  0  0  0  0
   -0.5005    1.2604    3.1219 N   0  3  0  0  0  0  0  0  0  0  0  0
   -4.3653    3.3326    0.8538 N   0  3  0  0  0  0  0  0  0  0  0  0
   -2.0012    5.6710    4.4756 O   0  0  0  0  0  0  0  0  0  0  0  0
   -0.5759    3.2967    5.0848 O   0  0  0  0  0  0  0  0  0  0  0  0
   -4.2720    6.6525    2.1471 C   0  0  1  0  0  0  0  0  0  0  0  0
   -4.9335    7.7611    2.9676 C   0  0  1  0  0  0  0  0  0  0  0  0
   -6.4062    7.4484    3.1860 C   0  0  0  0  0  0  0  0  0  0  0  0
   -7.0762    7.2269    1.8398 C   0  0  1  0  0  0  0  0  0  0  0  0
   -6.3459    6.1235    1.0751 C   0  0  1  0  0  0  0  0  0  0  0  0
   -6.9262    5.8875   -0.3076 C   0  0  0  0  0  0  0  0  0  0  0  0
   -4.2165    7.9792    4.2462 N   0  3  0  0  0  0  0  0  0  0  0  0
   -8.1577    5.0645   -0.2465 N   0  3  0  0  0  0  0  0  0  0  0  0
   -4.3127    5.4509    2.8417 O   0  0  0  0  0  0  0  0  0  0  0  0
   -8.4369    6.8666    2.0285 O   0  0  0  0  0  0  0  0  0  0  0  0
   -4.9562    6.4754    0.9006 O   0  0  0  0  0  0  0  0  0  0  0  0
  1  2  1  0  0  0  0
  1 10  1  0  0  0  0
  1 21  1  1  0  0  0
  2  3  1  0  0  0  0
  2  7  1  6  0  0  0
  3  4  1  0  0  0  0
  3  8  1  1  0  0  0
  4  5  1  0  0  0  0
  4  9  1  1  0  0  0
  5  6  1  1  0  0  0
  5 10  1  0  0  0  0
  6 11  1  0  0  0  0
 12 13  1  0  0  0  0
 12 17  1  0  0  0  0
 12 18  1  6  0  0  0
 13 14  1  0  0  0  0
 14 15  1  0  0  0  0
 14 19  1  6  0  0  0
 15 16  1  0  0  0  0
 15 30  1  1  0  0  0
 16 17  1  0  0  0  0
 16 20  1  6  0  0  0
 17 21  1  1  0  0  0
 22 23  1  0  0  0  0
 22 30  1  1  0  0  0
 22 32  1  0  0  0  0
 23 24  1  0  0  0  0
 23 28  1  1  0  0  0
 24 25  1  0  0  0  0
 25 26  1  0  0  0  0
 25 31  1  1  0  0  0
 26 27  1  6  0  0  0
 26 32  1  0  0  0  0
 27 29  1  0  0  0  0
M  CHG  5   8   1  18   1  19   1  28   1  29   1
M  END
>  <CHROM.1>
-117.22009594,67.84150690,177.69701417,-60.79348495,56.04343573,141.00958722
-94.81452343,-121.79183816,-122.57744413,179.47162896,144.89035690,-145.01570366
133.23268996,62.32490166,-79.40013361,173.37983868,-2.35757483,4.56157973
4.06803150,-0.23570772,0.65763243,-2.28516687

>  <Name>
1tob

>  <RI>
0

>  <Rbt.Current_Directory>
/home/itssahil/PROJECTS/Mol_Feturizer/New_Systems/rnas/1tob

>  <Rbt.Executable>
rbdock ($Id: //depot/dev/client3/rdock/2013.1/src/exe/rbdock.cxx#4 $)

>  <Rbt.Library>
libRbt.so (2013.1, Build901 2013/11/27)

>  <Rbt.Parameter_File>
/export/apps/rDock/src/rDock_2013.1_src/data/scripts/dock_solv.prm

>  <Rbt.Receptor>
prm/pocket_docking_5.prm

>  <SCORE>
-43.229

>  <SCORE.INTER>
-40.3658

>  <SCORE.INTER.CONST>
1

>  <SCORE.INTER.POLAR>
-4.62026

>  <SCORE.INTER.ROT>
6

>  <SCORE.INTER.SOLV>
23.8787

>  <SCORE.INTER.VDW>
-27.0693

>  <SCORE.INTER.norm>
-1.26143

>  <SCORE.INTRA>
-2.93791

>  <SCORE.INTRA.DIHEDRAL>
16.3884

>  <SCORE.INTRA.DIHEDRAL.0>
22.9177

>  <SCORE.INTRA.POLAR>
-3.5738

>  <SCORE.INTRA.POLAR.0>
-0.311208

>  <SCORE.INTRA.REPUL>
0

>  <SCORE.INTRA.REPUL.0>
0

>  <SCORE.INTRA.SOLV>
0.294641

>  <SCORE.INTRA.SOLV.lig_0>
-132.657

>  <SCORE.INTRA.VDW>
0.871451

>  <SCORE.INTRA.VDW.0>
-4.68867

>  <SCORE.INTRA.norm>
-0.0918098

>  <SCORE.RESTR>
0.0747806

>  <SCORE.RESTR.CAVITY>
0.0747806

>  <SCORE.RESTR.norm>
0.00233689

>  <SCORE.SYSTEM>
0

>  <SCORE.SYSTEM.CONST>
0

>  <SCORE.SYSTEM.DIHEDRAL>
0

>  <SCORE.SYSTEM.SOLV>
0

>  <SCORE.SYSTEM.norm>
0

>  <SCORE.heavy>
32

>  <SCORE.norm>
-1.35091

>  <RMSD>
4.709

$$$$
1tob
 OpenBabel11021811413D
libRbt.so/2013.1/901 2013/11/27
 32 34  0  0  0  0  0  0  0  0999 V2000
    0.6117    3.8477    2.6499 C   0  0  2  0  0  0  0  0  0  0  0  0
    2.1367    3.8810    2.5835 C   0  0  1  0  0  0  0  0  0  0  0  0
    2.6816    2.4593    2.5953 C   0  0  2  0  0  0  0  0  0  0  0  0
    2.1555    1.7260    3.8233 C   0  0  1  0  0  0  0  0  0  0  0  0
    0.6300    1.7721    3.8406 C   0  0  1  0  0  0  0  0  0  0  0  0
    0.0471    1.1244    5.0812 C   0  0  0  0  0  0  0  0  0  0  0  0
    2.5505    4.5426    1.3967 O   0  0  0  0  0  0  0  0  0  0  0  0
    4.1595    2.4537    2.5395 N   0  3  0  0  0  0  0  0  0  0  0  0
    2.6034    0.3773    3.8065 O   0  0  0  0  0  0  0  0  0  0  0  0
    0.1762    3.1427    3.8192 O   0  0  0  0  0  0  0  0  0  0  0  0
   -1.2351    0.5698    4.8234 O   0  0  0  0  0  0  0  0  0  0  0  0
   -2.0235    2.1675    2.0574 C   0  0  2  0  0  0  0  0  0  0  0  0
   -3.5289    2.3066    1.8772 C   0  0  0  0  0  0  0  0  0  0  0  0
   -4.0171    3.6316    2.4633 C   0  0  1  0  0  0  0  0  0  0  0  0
   -3.3167    4.7934    1.7623 C   0  0  2  0  0  0  0  0  0  0  0  0
   -1.8014    4.6658    1.9262 C   0  0  1  0  0  0  0  0  0  0  0  0
   -1.3232    3.3269    1.3655 C   0  0  1  0  0  0  0  0  0  0  0  0
   -1.5403    0.9020    1.4627 N   0  3  0  0  0  0  0  0  0  0  0  0
   -5.4969    3.7164    2.3571 N   0  3  0  0  0  0  0  0  0  0  0  0
   -1.1520    5.7333    1.2489 O   0  0  0  0  0  0  0  0  0  0  0  0
    0.1004    3.2059    1.5375 O   0  0  0  0  0  0  0  0  0  0  0  0
   -3.0448    6.5340    3.3934 C   0  0  1  0  0  0  0  0  0  0  0  0
   -3.9760    7.2533    4.3708 C   0  0  1  0  0  0  0  0  0  0  0  0
   -4.6042    8.4678    3.7039 C   0  0  0  0  0  0  0  0  0  0  0  0
   -3.5046    9.3665    3.1621 C   0  0  1  0  0  0  0  0  0  0  0  0
   -2.6079    8.5708    2.2143 C   0  0  1  0  0  0  0  0  0  0  0  0
   -1.4490    9.3918    1.6784 C   0  0  0  0  0  0  0  0  0  0  0  0
   -4.9977    6.3276    4.9143 N   0  3  0  0  0  0  0  0  0  0  0  0
   -0.5414    9.8256    2.7673 N   0  3  0  0  0  0  0  0  0  0  0  0
   -3.7662    6.0496    2.3104 O   0  0  0  0  0  0  0  0  0  0  0  0
   -4.0750   10.4714    2.4761 O   0  0  0  0  0  0  0  0  0  0  0  0
   -2.0434    7.4331    2.9016 O   0  0  0  0  0  0  0  0  0  0  0  0
  1  2  1  0  0  0  0
  1 10  1  0  0  0  0
  1 21  1  6  0  0  0
  2  3  1  0  0  0  0
  2  7  1  6  0  0  0
  3  4  1  0  0  0  0
  3  8  1  1  0  0  0
  4  5  1  0  0  0  0
  4  9  1  6  0  0  0
  5  6  1  1  0  0  0
  5 10  1  0  0  0  0
  6 11  1  0  0  0  0
 12 13  1  0  0  0  0
 12 17  1  0  0  0  0
 12 18  1  6  0  0  0
 13 14  1  0  0  0  0
 14 15  1  0  0  0  0
 14 19  1  6  0  0  0
 15 16  1  0  0  0  0
 15 30  1  1  0  0  0
 16 17  1  0  0  0  0
 16 20  1  6  0  0  0
 17 21  1  1  0  0  0
 22 23  1  0  0  0  0
 22 30  1  6  0  0  0
 22 32  1  0  0  0  0
 23 24  1  0  0  0  0
 23 28  1  6  0  0  0
 24 25  1  0  0  0  0
 25 26  1  0  0  0  0
 25 31  1  6  0  0  0
 26 27  1  1  0  0  0
 26 32  1  0  0  0  0
 27 29  1  0  0  0  0
M  CHG  5   8   1  18   1  19   1  28   1  29   1
M  END
>  <CHROM.1>
-169.10568589,-47.51203801,-43.06862072,57.99540067,-150.50454852,56.66749552
174.75414060,71.74586580,89.61379038,176.60007032,-91.04598862,-144.95106970
110.49831871,-56.83082425,62.99418016,29.78135832,-1.29717525,4.67860743
2.77378409,-0.91652893,0.08015470,-0.08844835

>  <Name>
1tob

>  <RI>
0

>  <Rbt.Current_Directory>
/home/itssahil/PROJECTS/Mol_Feturizer/New_Systems/rnas/1tob

>  <Rbt.Executable>
rbdock ($Id: //depot/dev/client3/rdock/2013.1/src/exe/rbdock.cxx#4 $)

>  <Rbt.Library>
libRbt.so (2013.1, Build901 2013/11/27)

>  <Rbt.Parameter_File>
/export/apps/rDock/src/rDock_2013.1_src/data/scripts/dock_solv.prm

>  <Rbt.Receptor>
prm/blind_docking_40.prm

>  <SCORE>
-17.7495

>  <SCORE.INTER>
-31.4998

>  <SCORE.INTER.CONST>
1

>  <SCORE.INTER.POLAR>
-5.39919

>  <SCORE.INTER.ROT>
6

>  <SCORE.INTER.SOLV>
42.6529

>  <SCORE.INTER.VDW>
-24.8202

>  <SCORE.INTER.norm>
-0.984369

>  <SCORE.INTRA>
6.2103

>  <SCORE.INTRA.DIHEDRAL>
-0.771852

>  <SCORE.INTRA.DIHEDRAL.0>
22.9177

>  <SCORE.INTRA.POLAR>
0.152727

>  <SCORE.INTRA.POLAR.0>
-0.311208

>  <SCORE.INTRA.REPUL>
0

>  <SCORE.INTRA.REPUL.0>
0

>  <SCORE.INTRA.SOLV>
0.936338

>  <SCORE.INTRA.SOLV.lig_0>
-132.657

>  <SCORE.INTRA.VDW>
5.60878

>  <SCORE.INTRA.VDW.0>
-4.68867

>  <SCORE.INTRA.norm>
0.194072

>  <SCORE.RESTR>
7.53998

>  <SCORE.RESTR.CAVITY>
7.53998

>  <SCORE.RESTR.norm>
0.235624

>  <SCORE.SYSTEM>
0

>  <SCORE.SYSTEM.CONST>
0

>  <SCORE.SYSTEM.DIHEDRAL>
0

>  <SCORE.SYSTEM.SOLV>
0

>  <SCORE.SYSTEM.norm>
0

>  <SCORE.heavy>
32

>  <SCORE.norm>
-0.554672

>  <RMSD>
4.726

$$$$
1tob
 OpenBabel11021811413D
libRbt.so/2013.1/901 2013/11/27
 32 34  0  0  0  0  0  0  0  0999 V2000
   -0.0463    4.0491    2.4735 C   0  0  2  0  0  0  0  0  0  0  0  0
    1.4739    4.1688    2.5503 C   0  0  1  0  0  0  0  0  0  0  0  0
    2.1011    2.7828    2.4873 C   0  0  2  0  0  0  0  0  0  0  0  0
    1.5163    1.9122    3.5930 C   0  0  1  0  0  0  0  0  0  0  0  0
   -0.0048    1.8760    3.4745 C   0  0  1  0  0  0  0  0  0  0  0  0
   -0.6524    1.0863    4.5950 C   0  0  0  0  0  0  0  0  0  0  0  0
    1.9477    4.9584    1.4689 O   0  0  0  0  0  0  0  0  0  0  0  0
    3.5759    2.8603    2.5668 N   0  3  0  0  0  0  0  0  0  0  0  0
    2.0451    0.5963    3.4992 O   0  0  0  0  0  0  0  0  0  0  0  0
   -0.5376    3.2169    3.5318 O   0  0  0  0  0  0  0  0  0  0  0  0
   -0.9502   -0.2420    4.1889 O   0  0  0  0  0  0  0  0  0  0  0  0
   -2.5607    2.4491    1.7114 C   0  0  2  0  0  0  0  0  0  0  0  0
   -4.0487    2.5344    1.4003 C   0  0  0  0  0  0  0  0  0  0  0  0
   -4.6053    3.8951    1.8198 C   0  0  1  0  0  0  0  0  0  0  0  0
   -3.8701    5.0047    1.0714 C   0  0  2  0  0  0  0  0  0  0  0  0
   -2.3712    4.9296    1.3660 C   0  0  1  0  0  0  0  0  0  0  0  0
   -1.8264    3.5571    0.9722 C   0  0  1  0  0  0  0  0  0  0  0  0
   -2.0095    1.1467    1.2774 N   0  3  0  0  0  0  0  0  0  0  0  0
   -6.0728    3.9337    1.5892 N   0  3  0  0  0  0  0  0  0  0  0  0
   -1.6871    5.9462    0.6459 O   0  0  0  0  0  0  0  0  0  0  0  0
   -0.4196    3.4871    1.2670 O   0  0  0  0  0  0  0  0  0  0  0  0
   -5.3139    6.2917    2.4937 C   0  0  1  0  0  0  0  0  0  0  0  0
   -5.8323    7.7091    2.7429 C   0  0  1  0  0  0  0  0  0  0  0  0
   -4.6972    8.6132    3.1994 C   0  0  0  0  0  0  0  0  0  0  0  0
   -4.0307    8.0023    4.4212 C   0  0  1  0  0  0  0  0  0  0  0  0
   -3.5618    6.5840    4.0984 C   0  0  1  0  0  0  0  0  0  0  0  0
   -2.9366    5.8883    5.2939 C   0  0  0  0  0  0  0  0  0  0  0  0
   -6.5209    8.2441    1.5446 N   0  3  0  0  0  0  0  0  0  0  0  0
   -1.4975    5.6118    5.0699 N   0  3  0  0  0  0  0  0  0  0  0  0
   -4.3839    6.2944    1.4626 O   0  0  0  0  0  0  0  0  0  0  0  0
   -2.9248    8.7992    4.8199 O   0  0  0  0  0  0  0  0  0  0  0  0
   -4.6796    5.7760    3.6706 O   0  0  0  0  0  0  0  0  0  0  0  0
  1  2  1  0  0  0  0
  1 10  1  0  0  0  0
  1 21  1  6  0  0  0
  2  3  1  0  0  0  0
  2  7  1  6  0  0  0
  3  4  1  0  0  0  0
  3  8  1  1  0  0  0
  4  5  1  0  0  0  0
  4  9  1  6  0  0  0
  5  6  1  1  0  0  0
  5 10  1  0  0  0  0
  6 11  1  0  0  0  0
 12 13  1  0  0  0  0
 12 17  1  0  0  0  0
 12 18  1  6  0  0  0
 13 14  1  0  0  0  0
 14 15  1  0  0  0  0
 14 19  1  6  0  0  0
 15 16  1  0  0  0  0
 15 30  1  1  0  0  0
 16 17  1  0  0  0  0
 16 20  1  6  0  0  0
 17 21  1  1  0  0  0
 22 23  1  0  0  0  0
 22 30  1  6  0  0  0
 22 32  1  0  0  0  0
 23 24  1  0  0  0  0
 23 28  1  6  0  0  0
 24 25  1  0  0  0  0
 25 26  1  0  0  0  0
 25 31  1  6  0  0  0
 26 27  1  1  0  0  0
 26 32  1  0  0  0  0
 27 29  1  0  0  0  0
M  CHG  5   8   1  18   1  19   1  28   1  29   1
M  END
>  <CHROM.1>
-168.66963554,-63.62964738,78.26451712,-32.25935726,-97.62945439,-51.56374194
-63.38991972,18.60092055,5.87364305,153.99069643,-80.54109674,-176.54847125
-46.26318059,-51.79746658,-114.91015510,7.43883955,-2.00602469,4.42037378
2.68883810,-0.65742950,-0.24700700,0.27853406

>  <Name>
1tob

>  <RI>
0

>  <Rbt.Current_Directory>
/home/itssahil/PROJECTS/Mol_Feturizer/New_Systems/rnas/1tob

>  <Rbt.Executable>
rbdock ($Id: //depot/dev/client3/rdock/2013.1/src/exe/rbdock.cxx#4 $)

>  <Rbt.Library>
libRbt.so (2013.1, Build901 2013/11/27)

>  <Rbt.Parameter_File>
/export/apps/rDock/src/rDock_2013.1_src/data/scripts/dock_solv.prm

>  <Rbt.Receptor>
prm/blind_docking_100.prm

>  <SCORE>
-1.82663

>  <SCORE.INTER>
-22.1855

>  <SCORE.INTER.CONST>
1

>  <SCORE.INTER.POLAR>
-5.94775

>  <SCORE.INTER.ROT>
6

>  <SCORE.INTER.SOLV>
37.2876

>  <SCORE.INTER.VDW>
-14.9937

>  <SCORE.INTER.norm>
-0.693297

>  <SCORE.INTRA>
13.9633

>  <SCORE.INTRA.DIHEDRAL>
9.74907

>  <SCORE.INTRA.DIHEDRAL.0>
22.9177

>  <SCORE.INTRA.POLAR>
-0.505684

>  <SCORE.INTRA.POLAR.0>
-0.311208

>  <SCORE.INTRA.REPUL>
0

>  <SCORE.INTRA.REPUL.0>
0

>  <SCORE.INTRA.SOLV>
3.16978

>  <SCORE.INTRA.SOLV.lig_0>
-132.657

>  <SCORE.INTRA.VDW>
9.2232

>  <SCORE.INTRA.VDW.0>
-4.68867

>  <SCORE.INTRA.norm>
0.436353

>  <SCORE.RESTR>
6.39558

>  <SCORE.RESTR.CAVITY>
6.39558

>  <SCORE.RESTR.norm>
0.199862

>  <SCORE.SYSTEM>
0

>  <SCORE.SYSTEM.CONST>
0

>  <SCORE.SYSTEM.DIHEDRAL>
0

>  <SCORE.SYSTEM.SOLV>
0

>  <SCORE.SYSTEM.norm>
0

>  <SCORE.heavy>
32

>  <SCORE.norm>
-0.0570823

>  <RMSD>
4.759

$$$$
1tob
 OpenBabel11021811413D
libRbt.so/2013.1/901 2013/11/27
 32 34  0  0  0  0  0  0  0  0999 V2000
   -1.5719    4.0192    2.9417 C   0  0  2  0  0  0  0  0  0  0  0  0
   -2.0711    2.8465    2.1009 C   0  0  1  0  0  0  0  0  0  0  0  0
   -1.2984    1.5869    2.4680 C   0  0  2  0  0  0  0  0  0  0  0  0
    0.1948    1.8435    2.3040 C   0  0  1  0  0  0  0  0  0  0  0  0
    0.6080    3.0522    3.1393 C   0  0  1  0  0  0  0  0  0  0  0  0
    2.0709    3.4062    2.9580 C   0  0  0  0  0  0  0  0  0  0  0  0
   -3.4571    2.6437    2.3361 O   0  0  0  0  0  0  0  0  0  0  0  0
   -1.7516    0.4299    1.6659 N   0  3  0  0  0  0  0  0  0  0  0  0
    0.9275    0.6954    2.7102 O   0  0  0  0  0  0  0  0  0  0  0  0
   -0.1642    4.2090    2.7514 O   0  0  0  0  0  0  0  0  0  0  0  0
    2.4859    4.3922    3.8927 O   0  0  0  0  0  0  0  0  0  0  0  0
   -1.8289    5.7516    5.6810 C   0  0  2  0  0  0  0  0  0  0  0  0
   -2.7495    6.7558    6.3610 C   0  0  0  0  0  0  0  0  0  0  0  0
   -3.6307    7.4580    5.3276 C   0  0  1  0  0  0  0  0  0  0  0  0
   -4.4742    6.4250    4.5838 C   0  0  2  0  0  0  0  0  0  0  0  0
   -3.5653    5.4022    3.9003 C   0  0  1  0  0  0  0  0  0  0  0  0
   -2.6662    4.7249    4.9340 C   0  0  1  0  0  0  0  0  0  0  0  0
   -0.9969    5.0453    6.6797 N   0  3  0  0  0  0  0  0  0  0  0  0
   -4.4626    8.4939    5.9932 N   0  3  0  0  0  0  0  0  0  0  0  0
   -4.3544    4.4267    3.2326 O   0  0  0  0  0  0  0  0  0  0  0  0
   -1.8023    3.7759    4.2828 O   0  0  0  0  0  0  0  0  0  0  0  0
   -4.6431    7.6586    2.5311 C   0  0  1  0  0  0  0  0  0  0  0  0
   -5.6291    8.4336    1.6552 C   0  0  1  0  0  0  0  0  0  0  0  0
   -6.6556    7.4866    1.0519 C   0  0  0  0  0  0  0  0  0  0  0  0
   -5.9349    6.3811    0.2979 C   0  0  1  0  0  0  0  0  0  0  0  0
   -4.9560    5.6719    1.2329 C   0  0  1  0  0  0  0  0  0  0  0  0
   -4.1555    4.5902    0.5306 C   0  0  0  0  0  0  0  0  0  0  0  0
   -6.2678    9.5339    2.4153 N   0  3  0  0  0  0  0  0  0  0  0  0
   -5.0361    3.5260   -0.0078 N   0  3  0  0  0  0  0  0  0  0  0  0
   -5.3071    7.0757    3.6022 O   0  0  0  0  0  0  0  0  0  0  0  0
   -6.8766    5.4496   -0.2145 O   0  0  0  0  0  0  0  0  0  0  0  0
   -4.0101    6.6195    1.7742 O   0  0  0  0  0  0  0  0  0  0  0  0
  1  2  1  0  0  0  0
  1 10  1  0  0  0  0
  1 21  1  1  0  0  0
  2  3  1  0  0  0  0
  2  7  1  1  0  0  0
  3  4  1  0  0  0  0
  3  8  1  6  0  0  0
  4  5  1  0  0  0  0
  4  9  1  1  0  0  0
  5  6  1  6  0  0  0
  5 10  1  0  0  0  0
  6 11  1  0  0  0  0
 12 13  1  0  0  0  0
 12 17  1  0  0  0  0
 12 18  1  1  0  0  0
 13 14  1  0  0  0  0
 14 15  1  0  0  0  0
 14 19  1  1  0  0  0
 15 16  1  0  0  0  0
 15 30  1  6  0  0  0
 16 17  1  0  0  0  0
 16 20  1  1  0  0  0
 17 21  1  6  0  0  0
 22 23  1  0  0  0  0
 22 30  1  1  0  0  0
 22 32  1  0  0  0  0
 23 24  1  0  0  0  0
 23 28  1  1  0  0  0
 24 25  1  0  0  0  0
 25 26  1  0  0  0  0
 25 31  1  1  0  0  0
 26 27  1  6  0  0  0
 26 32  1  0  0  0  0
 27 29  1  0  0  0  0
M  CHG  5   8   1  18   1  19   1  28   1  29   1
M  END
>  <CHROM.1>
-119.09650294,-70.14768191,158.36856988,174.05132222,-170.83362591,66.41161573
-177.46565167,33.37180720,67.43586827,-42.06343304,-98.31941835,-174.00751309
-171.24627204,-50.38452681,-61.41901263,61.09571964,-2.94292719,4.96068995
2.97339758,0.37166148,0.60303686,-2.34465485

>  <Name>
1tob

>  <RI>
0

>  <Rbt.Current_Directory>
/home/itssahil/PROJECTS/Mol_Feturizer/New_Systems/rnas/1tob

>  <Rbt.Executable>
rbdock ($Id: //depot/dev/client3/rdock/2013.1/src/exe/rbdock.cxx#4 $)

>  <Rbt.Library>
libRbt.so (2013.1, Build901 2013/11/27)

>  <Rbt.Parameter_File>
/export/apps/rDock/src/rDock_2013.1_src/data/scripts/dock_solv.prm

>  <Rbt.Receptor>
prm/blind_docking_60.prm

>  <SCORE>
-15.4373

>  <SCORE.INTER>
-30.3219

>  <SCORE.INTER.CONST>
1

>  <SCORE.INTER.POLAR>
-6.95166

>  <SCORE.INTER.ROT>
6

>  <SCORE.INTER.SOLV>
44.8767

>  <SCORE.INTER.VDW>
-19.6013

>  <SCORE.INTER.norm>
-0.947561

>  <SCORE.INTRA>
13.4526

>  <SCORE.INTRA.DIHEDRAL>
-4.23033

>  <SCORE.INTRA.DIHEDRAL.0>
22.9177

>  <SCORE.INTRA.POLAR>
-0.147018

>  <SCORE.INTRA.POLAR.0>
-0.311208

>  <SCORE.INTRA.REPUL>
0

>  <SCORE.INTRA.REPUL.0>
0

>  <SCORE.INTRA.SOLV>
0.721073

>  <SCORE.INTRA.SOLV.lig_0>
-132.657

>  <SCORE.INTRA.VDW>
15.7071

>  <SCORE.INTRA.VDW.0>
-4.68867

>  <SCORE.INTRA.norm>
0.420393

>  <SCORE.RESTR>
1.43205

>  <SCORE.RESTR.CAVITY>
1.43205

>  <SCORE.RESTR.norm>
0.0447517

>  <SCORE.SYSTEM>
0

>  <SCORE.SYSTEM.CONST>
0

>  <SCORE.SYSTEM.DIHEDRAL>
0

>  <SCORE.SYSTEM.SOLV>
0

>  <SCORE.SYSTEM.norm>
0

>  <SCORE.heavy>
32

>  <SCORE.norm>
-0.482416

>  <RMSD>
4.760

$$$$
1tob
 OpenBabel11021811413D
libRbt.so/2013.1/901 2013/11/27
 32 34  0  0  0  0  0  0  0  0999 V2000
   -0.3026    3.6666    5.6733 C   0  0  2  0  0  0  0  0  0  0  0  0
    0.9754    3.8479    4.8577 C   0  0  1  0  0  0  0  0  0  0  0  0
    1.7877    2.5604    4.8844 C   0  0  2  0  0  0  0  0  0  0  0  0
    2.0565    2.1618    6.3306 C   0  0  1  0  0  0  0  0  0  0  0  0
    0.7375    2.0416    7.0890 C   0  0  1  0  0  0  0  0  0  0  0  0
    0.9426    1.7217    8.5566 C   0  0  0  0  0  0  0  0  0  0  0  0
    0.6451    4.1778    3.5162 O   0  0  0  0  0  0  0  0  0  0  0  0
    3.0389    2.7025    4.1088 N   0  3  0  0  0  0  0  0  0  0  0  0
    2.7551    0.9246    6.3665 O   0  0  0  0  0  0  0  0  0  0  0  0
    0.0115    3.2879    7.0194 O   0  0  0  0  0  0  0  0  0  0  0  0
   -0.2964    1.5251    9.2230 O   0  0  0  0  0  0  0  0  0  0  0  0
   -2.0357    1.6888    3.1170 C   0  0  2  0  0  0  0  0  0  0  0  0
   -2.5831    2.0134    1.7338 C   0  0  0  0  0  0  0  0  0  0  0  0
   -3.7701    2.9712    1.8400 C   0  0  1  0  0  0  0  0  0  0  0  0
   -3.3287    4.2637    2.5229 C   0  0  2  0  0  0  0  0  0  0  0  0
   -2.7680    3.9559    3.9122 C   0  0  1  0  0  0  0  0  0  0  0  0
   -1.6010    2.9752    3.8022 C   0  0  1  0  0  0  0  0  0  0  0  0
   -0.8661    0.7883    3.0184 N   0  3  0  0  0  0  0  0  0  0  0  0
   -4.3470    3.2123    0.4921 N   0  3  0  0  0  0  0  0  0  0  0  0
   -2.3326    5.1579    4.5332 O   0  0  0  0  0  0  0  0  0  0  0  0
   -1.0886    2.6768    5.1135 O   0  0  0  0  0  0  0  0  0  0  0  0
   -4.5554    6.1215    1.6242 C   0  0  1  0  0  0  0  0  0  0  0  0
   -5.2362    7.3835    2.1570 C   0  0  1  0  0  0  0  0  0  0  0  0
   -6.6562    7.0684    2.6029 C   0  0  0  0  0  0  0  0  0  0  0  0
   -7.4126    6.4281    1.4504 C   0  0  1  0  0  0  0  0  0  0  0  0
   -6.6593    5.1912    0.9624 C   0  0  1  0  0  0  0  0  0  0  0  0
   -7.3284    4.5314   -0.2297 C   0  0  0  0  0  0  0  0  0  0  0  0
   -4.4383    8.0033    3.2412 N   0  3  0  0  0  0  0  0  0  0  0  0
   -7.0368    5.2592   -1.4878 N   0  3  0  0  0  0  0  0  0  0  0  0
   -4.4420    5.1741    2.6329 O   0  0  0  0  0  0  0  0  0  0  0  0
   -8.7198    6.0650    1.8702 O   0  0  0  0  0  0  0  0  0  0  0  0
   -5.3215    5.5520    0.5556 O   0  0  0  0  0  0  0  0  0  0  0  0
  1  2  1  0  0  0  0
  1 10  1  0  0  0  0
  1 21  1  6  0  0  0
  2  3  1  0  0  0  0
  2  7  1  6  0  0  0
  3  4  1  0  0  0  0
  3  8  1  6  0  0  0
  4  5  1  0  0  0  0
  4  9  1  6  0  0  0
  5  6  1  1  0  0  0
  5 10  1  0  0  0  0
  6 11  1  0  0  0  0
 12 13  1  0  0  0  0
 12 17  1  0  0  0  0
 12 18  1  6  0  0  0
 13 14  1  0  0  0  0
 14 15  1  0  0  0  0
 14 19  1  6  0  0  0
 15 16  1  0  0  0  0
 15 30  1  1  0  0  0
 16 17  1  0  0  0  0
 16 20  1  6  0  0  0
 17 21  1  1  0  0  0
 22 23  1  0  0  0  0
 22 30  1  1  0  0  0
 22 32  1  0  0  0  0
 23 24  1  0  0  0  0
 23 28  1  1  0  0  0
 24 25  1  0  0  0  0
 25 26  1  0  0  0  0
 25 31  1  1  0  0  0
 26 27  1  6  0  0  0
 26 32  1  0  0  0  0
 27 29  1  0  0  0  0
M  CHG  5   8   1  18   1  19   1  28   1  29   1
M  END
>  <CHROM.1>
-65.02354442,173.69872439,-57.47817522,-57.81187369,-176.03208620,-49.74419557
61.74938684,5.70912971,-95.28989647,-57.24526563,161.28337343,-151.22197975
-175.94577730,179.48390258,78.53895125,48.96589390,-2.48942094,3.90651299
3.52448403,0.30071435,-0.63685155,1.07979568

>  <Name>
1tob

>  <RI>
0

>  <Rbt.Current_Directory>
/home/itssahil/PROJECTS/Mol_Feturizer/New_Systems/rnas/1tob

>  <Rbt.Executable>
rbdock ($Id: //depot/dev/client3/rdock/2013.1/src/exe/rbdock.cxx#4 $)

>  <Rbt.Library>
libRbt.so (2013.1, Build901 2013/11/27)

>  <Rbt.Parameter_File>
/export/apps/rDock/src/rDock_2013.1_src/data/scripts/dock_solv.prm

>  <Rbt.Receptor>
prm/pocket_docking_8.prm

>  <SCORE>
-48.0525

>  <SCORE.INTER>
-47.301

>  <SCORE.INTER.CONST>
1

>  <SCORE.INTER.POLAR>
-6.05374

>  <SCORE.INTER.ROT>
6

>  <SCORE.INTER.SOLV>
23.3107

>  <SCORE.INTER.VDW>
-26.7251

>  <SCORE.INTER.norm>
-1.47816

>  <SCORE.INTRA>
-0.777159

>  <SCORE.INTRA.DIHEDRAL>
-7.32138

>  <SCORE.INTRA.DIHEDRAL.0>
22.9177

>  <SCORE.INTRA.POLAR>
-0.420885

>  <SCORE.INTRA.POLAR.0>
-0.311208

>  <SCORE.INTRA.REPUL>
0

>  <SCORE.INTRA.REPUL.0>
0

>  <SCORE.INTRA.SOLV>
2.30647

>  <SCORE.INTRA.SOLV.lig_0>
-132.657

>  <SCORE.INTRA.VDW>
3.16131

>  <SCORE.INTRA.VDW.0>
-4.68867

>  <SCORE.INTRA.norm>
-0.0242862

>  <SCORE.RESTR>
0.0255994

>  <SCORE.RESTR.CAVITY>
0.0255994

>  <SCORE.RESTR.norm>
0.000799982

>  <SCORE.SYSTEM>
0

>  <SCORE.SYSTEM.CONST>
0

>  <SCORE.SYSTEM.DIHEDRAL>
0

>  <SCORE.SYSTEM.SOLV>
0

>  <SCORE.SYSTEM.norm>
0

>  <SCORE.heavy>
32

>  <SCORE.norm>
-1.50164

>  <RMSD>
4.760

$$$$
1tob
 OpenBabel11021811413D
libRbt.so/2013.1/901 2013/11/27
 32 34  0  0  0  0  0  0  0  0999 V2000
   -2.2718    4.1946    4.8021 C   0  0  2  0  0  0  0  0  0  0  0  0
   -0.8163    4.0850    5.2500 C   0  0  1  0  0  0  0  0  0  0  0  0
    0.0959    4.0750    4.0309 C   0  0  2  0  0  0  0  0  0  0  0  0
   -0.3245    2.9492    3.0937 C   0  0  1  0  0  0  0  0  0  0  0  0
   -1.7976    3.1040    2.7256 C   0  0  1  0  0  0  0  0  0  0  0  0
   -2.2972    1.9684    1.8542 C   0  0  0  0  0  0  0  0  0  0  0  0
   -0.4875    5.1860    6.0850 O   0  0  0  0  0  0  0  0  0  0  0  0
    1.5161    3.9620    4.4279 N   0  3  0  0  0  0  0  0  0  0  0  0
    0.4775    2.9753    1.9207 O   0  0  0  0  0  0  0  0  0  0  0  0
   -2.6077    3.1155    3.9208 O   0  0  0  0  0  0  0  0  0  0  0  0
   -1.6520    1.9628    0.5886 O   0  0  0  0  0  0  0  0  0  0  0  0
   -3.5779    7.3140    5.0930 C   0  0  2  0  0  0  0  0  0  0  0  0
   -4.9390    7.9586    5.3169 C   0  0  0  0  0  0  0  0  0  0  0  0
   -5.6388    8.2075    3.9805 C   0  0  1  0  0  0  0  0  0  0  0  0
   -5.8241    6.8836    3.2424 C   0  0  2  0  0  0  0  0  0  0  0  0
   -4.4663    6.2171    3.0155 C   0  0  1  0  0  0  0  0  0  0  0  0
   -3.7587    5.9979    4.3523 C   0  0  1  0  0  0  0  0  0  0  0  0
   -2.9100    7.0405    6.3843 N   0  3  0  0  0  0  0  0  0  0  0  0
   -6.9266    8.9130    4.2082 N   0  3  0  0  0  0  0  0  0  0  0  0
   -4.6453    4.9723    2.3532 O   0  0  0  0  0  0  0  0  0  0  0  0
   -2.4753    5.3858    4.1309 O   0  0  0  0  0  0  0  0  0  0  0  0
   -5.6815    6.9817    0.8478 C   0  0  1  0  0  0  0  0  0  0  0  0
   -5.9957    8.0989   -0.1487 C   0  0  1  0  0  0  0  0  0  0  0  0
   -7.4336    7.9851   -0.6324 C   0  0  0  0  0  0  0  0  0  0  0  0
   -7.6602    6.5965   -1.2075 C   0  0  1  0  0  0  0  0  0  0  0  0
   -7.3041    5.5404   -0.1619 C   0  0  1  0  0  0  0  0  0  0  0  0
   -7.4508    4.1240   -0.6877 C   0  0  0  0  0  0  0  0  0  0  0  0
   -5.7099    9.4309    0.4349 N   0  3  0  0  0  0  0  0  0  0  0  0
   -6.4959    3.8516   -1.7883 N   0  3  0  0  0  0  0  0  0  0  0  0
   -6.4798    7.1064    1.9771 O   0  0  0  0  0  0  0  0  0  0  0  0
   -9.0166    6.4501   -1.6017 O   0  0  0  0  0  0  0  0  0  0  0  0
   -5.9319    5.6997    0.2587 O   0  0  0  0  0  0  0  0  0  0  0  0
  1  2  1  0  0  0  0
  1 10  1  0  0  0  0
  1 21  1  6  0  0  0
  2  3  1  0  0  0  0
  2  7  1  1  0  0  0
  3  4  1  0  0  0  0
  3  8  1  1  0  0  0
  4  5  1  0  0  0  0
  4  9  1  6  0  0  0
  5  6  1  6  0  0  0
  5 10  1  0  0  0  0
  6 11  1  0  0  0  0
 12 13  1  0  0  0  0
 12 17  1  0  0  0  0
 12 18  1  1  0  0  0
 13 14  1  0  0  0  0
 14 15  1  0  0  0  0
 14 19  1  1  0  0  0
 15 16  1  0  0  0  0
 15 30  1  6  0  0  0
 16 17  1  0  0  0  0
 16 20  1  1  0  0  0
 17 21  1  6  0  0  0
 22 23  1  0  0  0  0
 22 30  1  1  0  0  0
 22 32  1  0  0  0  0
 23 24  1  0  0  0  0
 23 28  1  1  0  0  0
 24 25  1  0  0  0  0
 25 26  1  0  0  0  0
 25 31  1  1  0  0  0
 26 27  1  6  0  0  0
 26 32  1  0  0  0  0
 27 29  1  0  0  0  0
M  CHG  5   8   1  18   1  19   1  28   1  29   1
M  END
>  <CHROM.1>
-144.19270203,172.98171617,67.29727092,-68.18394981,-65.06316807,-172.47440947
-50.50956730,179.47319428,107.23073224,-61.05230133,114.15679719,-137.92720657
-47.92350212,60.08765773,64.31439683,-80.75242291,-4.05383906,5.56021010
2.42306793,0.17073039,-0.64696580,0.88501926

>  <Name>
1tob

>  <RI>
0

>  <Rbt.Current_Directory>
/home/itssahil/PROJECTS/Mol_Feturizer/New_Systems/rnas/1tob

>  <Rbt.Executable>
rbdock ($Id: //depot/dev/client3/rdock/2013.1/src/exe/rbdock.cxx#4 $)

>  <Rbt.Library>
libRbt.so (2013.1, Build901 2013/11/27)

>  <Rbt.Parameter_File>
/export/apps/rDock/src/rDock_2013.1_src/data/scripts/dock_solv.prm

>  <Rbt.Receptor>
prm/pocket_docking_5.prm

>  <SCORE>
-35.6307

>  <SCORE.INTER>
-38.0546

>  <SCORE.INTER.CONST>
1

>  <SCORE.INTER.POLAR>
-5.02548

>  <SCORE.INTER.ROT>
6

>  <SCORE.INTER.SOLV>
36.7936

>  <SCORE.INTER.VDW>
-28.4826

>  <SCORE.INTER.norm>
-1.18921

>  <SCORE.INTRA>
2.36958

>  <SCORE.INTRA.DIHEDRAL>
3.68374

>  <SCORE.INTRA.DIHEDRAL.0>
22.9177

>  <SCORE.INTRA.POLAR>
-0.801814

>  <SCORE.INTRA.POLAR.0>
-0.311208

>  <SCORE.INTRA.REPUL>
0

>  <SCORE.INTRA.REPUL.0>
0

>  <SCORE.INTRA.SOLV>
-0.61114

>  <SCORE.INTRA.SOLV.lig_0>
-132.657

>  <SCORE.INTRA.VDW>
3.55945

>  <SCORE.INTRA.VDW.0>
-4.68867

>  <SCORE.INTRA.norm>
0.0740494

>  <SCORE.RESTR>
0.0543252

>  <SCORE.RESTR.CAVITY>
0.0543252

>  <SCORE.RESTR.norm>
0.00169766

>  <SCORE.SYSTEM>
0

>  <SCORE.SYSTEM.CONST>
0

>  <SCORE.SYSTEM.DIHEDRAL>
0

>  <SCORE.SYSTEM.SOLV>
0

>  <SCORE.SYSTEM.norm>
0

>  <SCORE.heavy>
32

>  <SCORE.norm>
-1.11346

>  <RMSD>
4.766

$$$$
1tob
 OpenBabel11021811413D
libRbt.so/2013.1/901 2013/11/27
 32 34  0  0  0  0  0  0  0  0999 V2000
    0.5187    3.6165    5.2275 C   0  0  2  0  0  0  0  0  0  0  0  0
    1.4976    2.5000    5.5826 C   0  0  1  0  0  0  0  0  0  0  0  0
    1.1110    1.8854    6.9210 C   0  0  2  0  0  0  0  0  0  0  0  0
    1.0466    2.9793    7.9801 C   0  0  1  0  0  0  0  0  0  0  0  0
    0.0826    4.0757    7.5352 C   0  0  1  0  0  0  0  0  0  0  0  0
    0.0329    5.2326    8.5137 C   0  0  0  0  0  0  0  0  0  0  0  0
    1.4731    1.5017    4.5724 O   0  0  0  0  0  0  0  0  0  0  0  0
    2.0443    0.8029    7.3008 N   0  3  0  0  0  0  0  0  0  0  0  0
    0.6194    2.4258    9.2176 O   0  0  0  0  0  0  0  0  0  0  0  0
    0.4966    4.6108    6.2595 O   0  0  0  0  0  0  0  0  0  0  0  0
   -0.5810    4.8518    9.7369 O   0  0  0  0  0  0  0  0  0  0  0  0
   -2.1361    2.0179    3.4205 C   0  0  2  0  0  0  0  0  0  0  0  0
   -2.7508    2.1942    2.0388 C   0  0  0  0  0  0  0  0  0  0  0  0
   -3.6609    3.4224    2.0114 C   0  0  1  0  0  0  0  0  0  0  0  0
   -2.8534    4.6691    2.3659 C   0  0  2  0  0  0  0  0  0  0  0  0
   -2.2212    4.5065    3.7491 C   0  0  1  0  0  0  0  0  0  0  0  0
   -1.3362    3.2609    3.7792 C   0  0  1  0  0  0  0  0  0  0  0  0
   -1.2286    0.8499    3.4441 N   0  3  0  0  0  0  0  0  0  0  0  0
   -4.3194    3.5338    0.6840 N   0  3  0  0  0  0  0  0  0  0  0  0
   -1.4479    5.6568    4.0636 O   0  0  0  0  0  0  0  0  0  0  0  0
   -0.7576    3.1044    5.0875 O   0  0  0  0  0  0  0  0  0  0  0  0
   -3.0762    7.0401    2.0618 C   0  0  1  0  0  0  0  0  0  0  0  0
   -3.6861    8.1657    2.8990 C   0  0  1  0  0  0  0  0  0  0  0  0
   -5.1521    8.3554    2.5396 C   0  0  0  0  0  0  0  0  0  0  0  0
   -5.2739    8.5962    1.0437 C   0  0  1  0  0  0  0  0  0  0  0  0
   -4.6239    7.4426    0.2806 C   0  0  1  0  0  0  0  0  0  0  0  0
   -4.6563    7.6445   -1.2235 C   0  0  0  0  0  0  0  0  0  0  0  0
   -3.4972    7.9161    4.3476 N   0  3  0  0  0  0  0  0  0  0  0  0
   -3.8206    8.7978   -1.6348 N   0  3  0  0  0  0  0  0  0  0  0  0
   -3.7030    5.8345    2.3478 O   0  0  0  0  0  0  0  0  0  0  0  0
   -6.6422    8.7076    0.6801 O   0  0  0  0  0  0  0  0  0  0  0  0
   -3.2379    7.3111    0.6640 O   0  0  0  0  0  0  0  0  0  0  0  0
  1  2  1  0  0  0  0
  1 10  1  0  0  0  0
  1 21  1  1  0  0  0
  2  3  1  0  0  0  0
  2  7  1  6  0  0  0
  3  4  1  0  0  0  0
  3  8  1  1  0  0  0
  4  5  1  0  0  0  0
  4  9  1  1  0  0  0
  5  6  1  1  0  0  0
  5 10  1  0  0  0  0
  6 11  1  0  0  0  0
 12 13  1  0  0  0  0
 12 17  1  0  0  0  0
 12 18  1  6  0  0  0
 13 14  1  0  0  0  0
 14 15  1  0  0  0  0
 14 19  1  6  0  0  0
 15 16  1  0  0  0  0
 15 30  1  1  0  0  0
 16 17  1  0  0  0  0
 16 20  1  6  0  0  0
 17 21  1  1  0  0  0
 22 23  1  0  0  0  0
 22 30  1  1  0  0  0
 22 32  1  0  0  0  0
 23 24  1  0  0  0  0
 23 28  1  1  0  0  0
 24 25  1  0  0  0  0
 25 26  1  0  0  0  0
 25 31  1  6  0  0  0
 26 27  1  6  0  0  0
 26 32  1  0  0  0  0
 27 29  1  0  0  0  0
M  CHG  5   8   1  18   1  19   1  28   1  29   1
M  END
>  <CHROM.1>
-118.27709990,176.49471682,178.22821642,-52.83977893,-68.91508419,54.42979387
32.58631987,108.26351753,-152.51448838,-177.68986082,141.71892003,-142.70278353
32.39642118,-57.60348338,65.94086330,63.35040017,-1.91650329,4.78307074,3.88076642
-0.10552092,0.99229964,-2.36587276

>  <Name>
1tob

>  <RI>
0

>  <Rbt.Current_Directory>
/home/itssahil/PROJECTS/Mol_Feturizer/New_Systems/rnas/1tob

>  <Rbt.Executable>
rbdock ($Id: //depot/dev/client3/rdock/2013.1/src/exe/rbdock.cxx#4 $)

>  <Rbt.Library>
libRbt.so (2013.1, Build901 2013/11/27)

>  <Rbt.Parameter_File>
/export/apps/rDock/src/rDock_2013.1_src/data/scripts/dock_solv.prm

>  <Rbt.Receptor>
prm/pocket_docking_7.prm

>  <SCORE>
-38.8219

>  <SCORE.INTER>
-31.789

>  <SCORE.INTER.CONST>
1

>  <SCORE.INTER.POLAR>
-3.92527

>  <SCORE.INTER.ROT>
6

>  <SCORE.INTER.SOLV>
23.2605

>  <SCORE.INTER.VDW>
-23.4619

>  <SCORE.INTER.norm>
-0.993407

>  <SCORE.INTRA>
-7.0329

>  <SCORE.INTRA.DIHEDRAL>
4.74345

>  <SCORE.INTRA.DIHEDRAL.0>
22.9177

>  <SCORE.INTRA.POLAR>
-3.01295

>  <SCORE.INTRA.POLAR.0>
-0.311208

>  <SCORE.INTRA.REPUL>
0

>  <SCORE.INTRA.REPUL.0>
0

>  <SCORE.INTRA.SOLV>
-0.383815

>  <SCORE.INTRA.SOLV.lig_0>
-132.657

>  <SCORE.INTRA.VDW>
1.03131

>  <SCORE.INTRA.VDW.0>
-4.68867

>  <SCORE.INTRA.norm>
-0.219778

>  <SCORE.RESTR>
0

>  <SCORE.RESTR.CAVITY>
0

>  <SCORE.RESTR.norm>
0

>  <SCORE.SYSTEM>
0

>  <SCORE.SYSTEM.CONST>
0

>  <SCORE.SYSTEM.DIHEDRAL>
0

>  <SCORE.SYSTEM.SOLV>
0

>  <SCORE.SYSTEM.norm>
0

>  <SCORE.heavy>
32

>  <SCORE.norm>
-1.21319

>  <RMSD>
4.798

$$$$
1tob
 OpenBabel11021811413D
libRbt.so/2013.1/901 2013/11/27
 32 34  0  0  0  0  0  0  0  0999 V2000
    1.3205    4.1900    2.5146 C   0  0  2  0  0  0  0  0  0  0  0  0
    2.8384    4.0703    2.4017 C   0  0  1  0  0  0  0  0  0  0  0  0
    3.3416    3.0035    3.3645 C   0  0  2  0  0  0  0  0  0  0  0  0
    2.8744    3.3355    4.7766 C   0  0  1  0  0  0  0  0  0  0  0  0
    1.3552    3.4799    4.7995 C   0  0  1  0  0  0  0  0  0  0  0  0
    0.8346    3.8867    6.1640 C   0  0  0  0  0  0  0  0  0  0  0  0
    3.1942    3.7211    1.0717 O   0  0  0  0  0  0  0  0  0  0  0  0
    4.8121    2.8655    3.2872 N   0  3  0  0  0  0  0  0  0  0  0  0
    3.2811    2.3089    5.6715 O   0  0  0  0  0  0  0  0  0  0  0  0
    0.9407    4.4970    3.8620 O   0  0  0  0  0  0  0  0  0  0  0  0
   -0.4203    4.5453    6.0655 O   0  0  0  0  0  0  0  0  0  0  0  0
   -1.4556    2.0817    2.6851 C   0  0  2  0  0  0  0  0  0  0  0  0
   -2.9400    2.1909    2.3643 C   0  0  0  0  0  0  0  0  0  0  0  0
   -3.4475    3.6031    2.6570 C   0  0  1  0  0  0  0  0  0  0  0  0
   -2.6743    4.6131    1.8122 C   0  0  2  0  0  0  0  0  0  0  0  0
   -1.1786    4.5122    2.1156 C   0  0  1  0  0  0  0  0  0  0  0  0
   -0.6833    3.0910    1.8496 C   0  0  1  0  0  0  0  0  0  0  0  0
   -0.9514    0.7265    2.3727 N   0  3  0  0  0  0  0  0  0  0  0  0
   -4.9129    3.6725    2.4206 N   0  3  0  0  0  0  0  0  0  0  0  0
   -0.4597    5.4341    1.3074 O   0  0  0  0  0  0  0  0  0  0  0  0
    0.7204    2.9984    2.1526 O   0  0  0  0  0  0  0  0  0  0  0  0
   -2.3823    6.6903    2.9801 C   0  0  1  0  0  0  0  0  0  0  0  0
   -2.5961    6.1763    4.4049 C   0  0  1  0  0  0  0  0  0  0  0  0
   -4.0468    6.3657    4.8218 C   0  0  0  0  0  0  0  0  0  0  0  0
   -4.4290    7.8274    4.6552 C   0  0  1  0  0  0  0  0  0  0  0  0
   -4.1663    8.2688    3.2158 C   0  0  1  0  0  0  0  0  0  0  0  0
   -4.4711    9.7385    2.9899 C   0  0  0  0  0  0  0  0  0  0  0  0
   -2.1607    4.7656    4.5344 N   0  3  0  0  0  0  0  0  0  0  0  0
   -3.2296   10.5451    2.9134 N   0  3  0  0  0  0  0  0  0  0  0  0
   -3.1415    5.9505    2.0832 O   0  0  0  0  0  0  0  0  0  0  0  0
   -5.8005    8.0098    4.9753 O   0  0  0  0  0  0  0  0  0  0  0  0
   -2.7772    8.0640    2.8784 O   0  0  0  0  0  0  0  0  0  0  0  0
  1  2  1  0  0  0  0
  1 10  1  0  0  0  0
  1 21  1  1  0  0  0
  2  3  1  0  0  0  0
  2  7  1  6  0  0  0
  3  4  1  0  0  0  0
  3  8  1  1  0  0  0
  4  5  1  0  0  0  0
  4  9  1  1  0  0  0
  5  6  1  1  0  0  0
  5 10  1  0  0  0  0
  6 11  1  0  0  0  0
 12 13  1  0  0  0  0
 12 17  1  0  0  0  0
 12 18  1  6  0  0  0
 13 14  1  0  0  0  0
 14 15  1  0  0  0  0
 14 19  1  6  0  0  0
 15 16  1  0  0  0  0
 15 30  1  1  0  0  0
 16 17  1  0  0  0  0
 16 20  1  6  0  0  0
 17 21  1  1  0  0  0
 22 23  1  0  0  0  0
 22 30  1  6  0  0  0
 22 32  1  0  0  0  0
 23 24  1  0  0  0  0
 23 28  1  6  0  0  0
 24 25  1  0  0  0  0
 25 26  1  0  0  0  0
 25 31  1  6  0  0  0
 26 27  1  1  0  0  0
 26 32  1  0  0  0  0
 27 29  1  0  0  0  0
M  CHG  5   8   1  18   1  19   1  28   1  29   1
M  END
>  <CHROM.1>
-163.00874107,68.88309495,-45.68253350,-55.23233045,155.45994296,-95.36681435
-69.73651980,5.25331019,98.22336062,69.36657839,-126.38413898,-73.25528069
175.82738421,-178.26015166,104.05028228,42.96308834,-1.00838807,4.85742251
3.31934651,-0.60175944,-0.18473535,0.27415918

>  <Name>
1tob

>  <RI>
0

>  <Rbt.Current_Directory>
/home/itssahil/PROJECTS/Mol_Feturizer/New_Systems/rnas/1tob

>  <Rbt.Executable>
rbdock ($Id: //depot/dev/client3/rdock/2013.1/src/exe/rbdock.cxx#4 $)

>  <Rbt.Library>
libRbt.so (2013.1, Build901 2013/11/27)

>  <Rbt.Parameter_File>
/export/apps/rDock/src/rDock_2013.1_src/data/scripts/dock_solv.prm

>  <Rbt.Receptor>
prm/blind_docking_80.prm

>  <SCORE>
8.04703

>  <SCORE.INTER>
-36.986

>  <SCORE.INTER.CONST>
1

>  <SCORE.INTER.POLAR>
-4.62103

>  <SCORE.INTER.ROT>
6

>  <SCORE.INTER.SOLV>
31.2455

>  <SCORE.INTER.VDW>
-27.269

>  <SCORE.INTER.norm>
-1.15581

>  <SCORE.INTRA>
36.0234

>  <SCORE.INTRA.DIHEDRAL>
8.10207

>  <SCORE.INTRA.DIHEDRAL.0>
22.9177

>  <SCORE.INTRA.POLAR>
-0.9784

>  <SCORE.INTRA.POLAR.0>
-0.311208

>  <SCORE.INTRA.REPUL>
0

>  <SCORE.INTRA.REPUL.0>
0

>  <SCORE.INTRA.SOLV>
7.612

>  <SCORE.INTRA.SOLV.lig_0>
-132.657

>  <SCORE.INTRA.VDW>
31.493

>  <SCORE.INTRA.VDW.0>
-4.68867

>  <SCORE.INTRA.norm>
1.12573

>  <SCORE.RESTR>
9.00954

>  <SCORE.RESTR.CAVITY>
9.00954

>  <SCORE.RESTR.norm>
0.281548

>  <SCORE.SYSTEM>
0

>  <SCORE.SYSTEM.CONST>
0

>  <SCORE.SYSTEM.DIHEDRAL>
0

>  <SCORE.SYSTEM.SOLV>
0

>  <SCORE.SYSTEM.norm>
0

>  <SCORE.heavy>
32

>  <SCORE.norm>
0.25147

>  <RMSD>
4.815

$$$$
1tob
 OpenBabel11021811413D
libRbt.so/2013.1/901 2013/11/27
 32 34  0  0  0  0  0  0  0  0999 V2000
    0.9771    3.8602    4.4745 C   0  0  2  0  0  0  0  0  0  0  0  0
    2.3690    3.3405    4.8265 C   0  0  1  0  0  0  0  0  0  0  0  0
    2.3000    2.5141    6.1034 C   0  0  2  0  0  0  0  0  0  0  0  0
    1.6789    3.3515    7.2150 C   0  0  1  0  0  0  0  0  0  0  0  0
    0.3123    3.8678    6.7733 C   0  0  1  0  0  0  0  0  0  0  0  0
   -0.3248    4.7735    7.8088 C   0  0  0  0  0  0  0  0  0  0  0  0
    2.8644    2.5390    3.7636 O   0  0  0  0  0  0  0  0  0  0  0  0
    3.6347    1.9998    6.4792 N   0  3  0  0  0  0  0  0  0  0  0  0
    1.5472    2.5661    8.3923 O   0  0  0  0  0  0  0  0  0  0  0  0
    0.4426    4.6338    5.5561 O   0  0  0  0  0  0  0  0  0  0  0  0
   -1.6968    5.0047    7.5222 O   0  0  0  0  0  0  0  0  0  0  0  0
   -1.6025    1.7299    2.9120 C   0  0  2  0  0  0  0  0  0  0  0  0
   -2.5558    1.9390    1.7434 C   0  0  0  0  0  0  0  0  0  0  0  0
   -3.4812    3.1256    2.0143 C   0  0  1  0  0  0  0  0  0  0  0  0
   -2.6499    4.3902    2.2185 C   0  0  2  0  0  0  0  0  0  0  0  0
   -1.6798    4.1954    3.3848 C   0  0  1  0  0  0  0  0  0  0  0  0
   -0.7774    2.9902    3.1219 C   0  0  1  0  0  0  0  0  0  0  0  0
   -0.6825    0.6035    2.6413 N   0  3  0  0  0  0  0  0  0  0  0  0
   -4.4608    3.2657    0.9059 N   0  3  0  0  0  0  0  0  0  0  0  0
   -0.8888    5.3640    3.5539 O   0  0  0  0  0  0  0  0  0  0  0  0
    0.1215    2.8024    4.2298 O   0  0  0  0  0  0  0  0  0  0  0  0
   -3.8399    6.2996    1.3809 C   0  0  1  0  0  0  0  0  0  0  0  0
   -3.7234    7.7833    1.7347 C   0  0  1  0  0  0  0  0  0  0  0  0
   -4.7209    8.1454    2.8247 C   0  0  0  0  0  0  0  0  0  0  0  0
   -6.1185    7.7509    2.3758 C   0  0  1  0  0  0  0  0  0  0  0  0
   -6.1462    6.2647    2.0208 C   0  0  1  0  0  0  0  0  0  0  0  0
   -7.5006    5.8114    1.5066 C   0  0  0  0  0  0  0  0  0  0  0  0
   -2.3344    8.1341    2.1141 N   0  3  0  0  0  0  0  0  0  0  0  0
   -8.6041    6.3412    2.3428 N   0  3  0  0  0  0  0  0  0  0  0  0
   -3.5125    5.5163    2.4796 O   0  0  0  0  0  0  0  0  0  0  0  0
   -7.0541    8.0196    3.4098 O   0  0  0  0  0  0  0  0  0  0  0  0
   -5.1801    5.9826    0.9852 O   0  0  0  0  0  0  0  0  0  0  0  0
  1  2  1  0  0  0  0
  1 10  1  0  0  0  0
  1 21  1  1  0  0  0
  2  3  1  0  0  0  0
  2  7  1  6  0  0  0
  3  4  1  0  0  0  0
  3  8  1  1  0  0  0
  4  5  1  0  0  0  0
  4  9  1  1  0  0  0
  5  6  1  1  0  0  0
  5 10  1  0  0  0  0
  6 11  1  0  0  0  0
 12 13  1  0  0  0  0
 12 17  1  0  0  0  0
 12 18  1  6  0  0  0
 13 14  1  0  0  0  0
 14 15  1  0  0  0  0
 14 19  1  6  0  0  0
 15 16  1  0  0  0  0
 15 30  1  1  0  0  0
 16 17  1  0  0  0  0
 16 20  1  6  0  0  0
 17 21  1  1  0  0  0
 22 23  1  0  0  0  0
 22 30  1  1  0  0  0
 22 32  1  0  0  0  0
 23 24  1  0  0  0  0
 23 28  1  1  0  0  0
 24 25  1  0  0  0  0
 25 26  1  0  0  0  0
 25 31  1  1  0  0  0
 26 27  1  6  0  0  0
 26 32  1  0  0  0  0
 27 29  1  0  0  0  0
M  CHG  5   8   1  18   1  19   1  28   1  29   1
M  END
>  <CHROM.1>
-139.37448893,67.00277237,54.31480689,-56.99527160,-167.13823418,125.09705275
-34.59900765,-140.04154205,-95.55756214,75.52073798,176.75855171,-135.54131025
-166.84541764,69.45175539,-45.08395917,-43.48099271,-1.97813340,4.52839210
3.73568062,-0.03544191,0.62219804,-2.32113514

>  <Name>
1tob

>  <RI>
0

>  <Rbt.Current_Directory>
/home/itssahil/PROJECTS/Mol_Feturizer/New_Systems/rnas/1tob

>  <Rbt.Executable>
rbdock ($Id: //depot/dev/client3/rdock/2013.1/src/exe/rbdock.cxx#4 $)

>  <Rbt.Library>
libRbt.so (2013.1, Build901 2013/11/27)

>  <Rbt.Parameter_File>
/export/apps/rDock/src/rDock_2013.1_src/data/scripts/dock_solv.prm

>  <Rbt.Receptor>
prm/pocket_docking_6.prm

>  <SCORE>
-35.6093

>  <SCORE.INTER>
-41.8368

>  <SCORE.INTER.CONST>
1

>  <SCORE.INTER.POLAR>
-5.86379

>  <SCORE.INTER.ROT>
6

>  <SCORE.INTER.SOLV>
25.8893

>  <SCORE.INTER.VDW>
-24.575

>  <SCORE.INTER.norm>
-1.3074

>  <SCORE.INTRA>
6.22753

>  <SCORE.INTRA.DIHEDRAL>
8.94048

>  <SCORE.INTRA.DIHEDRAL.0>
22.9177

>  <SCORE.INTRA.POLAR>
-0.731713

>  <SCORE.INTRA.POLAR.0>
-0.311208

>  <SCORE.INTRA.REPUL>
0

>  <SCORE.INTRA.REPUL.0>
0

>  <SCORE.INTRA.SOLV>
-0.881525

>  <SCORE.INTRA.SOLV.lig_0>
-132.657

>  <SCORE.INTRA.VDW>
4.68588

>  <SCORE.INTRA.VDW.0>
-4.68867

>  <SCORE.INTRA.norm>
0.19461

>  <SCORE.RESTR>
0

>  <SCORE.RESTR.CAVITY>
0

>  <SCORE.RESTR.norm>
0

>  <SCORE.SYSTEM>
0

>  <SCORE.SYSTEM.CONST>
0

>  <SCORE.SYSTEM.DIHEDRAL>
0

>  <SCORE.SYSTEM.SOLV>
0

>  <SCORE.SYSTEM.norm>
0

>  <SCORE.heavy>
32

>  <SCORE.norm>
-1.11279

>  <RMSD>
4.823

$$$$
1tob
 OpenBabel11021811413D
libRbt.so/2013.1/901 2013/11/27
 32 34  0  0  0  0  0  0  0  0999 V2000
   -1.2257    3.5727    5.8643 C   0  0  2  0  0  0  0  0  0  0  0  0
   -1.1574    4.4210    7.1319 C   0  0  1  0  0  0  0  0  0  0  0  0
    0.2941    4.5853    7.5614 C   0  0  2  0  0  0  0  0  0  0  0  0
    0.9303    3.2108    7.7304 C   0  0  1  0  0  0  0  0  0  0  0  0
    0.7854    2.4101    6.4392 C   0  0  1  0  0  0  0  0  0  0  0  0
    1.3321    1.0020    6.5688 C   0  0  0  0  0  0  0  0  0  0  0  0
   -1.7315    5.6968    6.8864 O   0  0  0  0  0  0  0  0  0  0  0  0
    0.3976    5.3973    8.7932 N   0  3  0  0  0  0  0  0  0  0  0  0
    2.3043    3.3548    8.0643 O   0  0  0  0  0  0  0  0  0  0  0  0
   -0.6089    2.2972    6.0809 O   0  0  0  0  0  0  0  0  0  0  0  0
    0.7447    0.3162    7.6654 O   0  0  0  0  0  0  0  0  0  0  0  0
   -1.4728    2.7279    3.1437 C   0  0  2  0  0  0  0  0  0  0  0  0
   -2.1963    2.6988    1.8043 C   0  0  0  0  0  0  0  0  0  0  0  0
   -3.5350    3.4306    1.9041 C   0  0  1  0  0  0  0  0  0  0  0  0
   -3.2987    4.8816    2.3172 C   0  0  2  0  0  0  0  0  0  0  0  0
   -2.5649    4.9303    3.6583 C   0  0  1  0  0  0  0  0  0  0  0  0
   -1.2415    4.1721    3.5610 C   0  0  1  0  0  0  0  0  0  0  0  0
   -0.1618    2.0498    3.0447 N   0  3  0  0  0  0  0  0  0  0  0  0
   -4.2676    3.3216    0.6159 N   0  3  0  0  0  0  0  0  0  0  0  0
   -2.3221    6.2817    4.0258 O   0  0  0  0  0  0  0  0  0  0  0  0
   -0.5639    4.2076    4.8300 O   0  0  0  0  0  0  0  0  0  0  0  0
   -4.7236    6.6589    1.5595 C   0  0  1  0  0  0  0  0  0  0  0  0
   -5.4570    7.7961    2.2729 C   0  0  1  0  0  0  0  0  0  0  0  0
   -6.8559    7.3523    2.6732 C   0  0  0  0  0  0  0  0  0  0  0  0
   -7.5937    6.8511    1.4424 C   0  0  1  0  0  0  0  0  0  0  0  0
   -6.7887    5.7355    0.7768 C   0  0  1  0  0  0  0  0  0  0  0  0
   -7.4388    5.2249   -0.4964 C   0  0  0  0  0  0  0  0  0  0  0  0
   -4.6775    8.2891    3.4330 N   0  3  0  0  0  0  0  0  0  0  0  0
   -8.5716    6.0865   -0.9111 N   0  3  0  0  0  0  0  0  0  0  0  0
   -4.5557    5.5814    2.4191 O   0  0  0  0  0  0  0  0  0  0  0  0
   -8.8781    6.3689    1.8096 O   0  0  0  0  0  0  0  0  0  0  0  0
   -5.4735    6.2149    0.4221 O   0  0  0  0  0  0  0  0  0  0  0  0
  1  2  1  0  0  0  0
  1 10  1  0  0  0  0
  1 21  1  6  0  0  0
  2  3  1  0  0  0  0
  2  7  1  6  0  0  0
  3  4  1  0  0  0  0
  3  8  1  1  0  0  0
  4  5  1  0  0  0  0
  4  9  1  6  0  0  0
  5  6  1  1  0  0  0
  5 10  1  0  0  0  0
  6 11  1  0  0  0  0
 12 13  1  0  0  0  0
 12 17  1  0  0  0  0
 12 18  1  6  0  0  0
 13 14  1  0  0  0  0
 14 15  1  0  0  0  0
 14 19  1  6  0  0  0
 15 16  1  0  0  0  0
 15 30  1  1  0  0  0
 16 17  1  0  0  0  0
 16 20  1  6  0  0  0
 17 21  1  1  0  0  0
 22 23  1  0  0  0  0
 22 30  1  1  0  0  0
 22 32  1  0  0  0  0
 23 24  1  0  0  0  0
 23 28  1  1  0  0  0
 24 25  1  0  0  0  0
 25 26  1  0  0  0  0
 25 31  1  1  0  0  0
 26 27  1  6  0  0  0
 26 32  1  0  0  0  0
 27 29  1  0  0  0  0
M  CHG  5   8   1  18   1  19   1  28   1  29   1
M  END
>  <CHROM.1>
-136.90413696,19.04249800,-171.85965796,177.25392246,54.51896763,-172.08759030
-53.31316522,54.77191915,-118.29330574,-65.81635421,-58.46275290,-141.47904677
-147.07549940,-55.28415975,9.81547138,-65.21800856,-2.82541657,4.59989920
3.86769224,0.17883914,-0.73472127,0.76086716

>  <Name>
1tob

>  <RI>
0

>  <Rbt.Current_Directory>
/home/itssahil/PROJECTS/Mol_Feturizer/New_Systems/rnas/1tob

>  <Rbt.Executable>
rbdock ($Id: //depot/dev/client3/rdock/2013.1/src/exe/rbdock.cxx#4 $)

>  <Rbt.Library>
libRbt.so (2013.1, Build901 2013/11/27)

>  <Rbt.Parameter_File>
/export/apps/rDock/src/rDock_2013.1_src/data/scripts/dock_solv.prm

>  <Rbt.Receptor>
prm/pocket_docking_5.prm

>  <SCORE>
-35.378

>  <SCORE.INTER>
-35.999

>  <SCORE.INTER.CONST>
1

>  <SCORE.INTER.POLAR>
-4.46818

>  <SCORE.INTER.ROT>
6

>  <SCORE.INTER.SOLV>
25.6948

>  <SCORE.INTER.VDW>
-25.2703

>  <SCORE.INTER.norm>
-1.12497

>  <SCORE.INTRA>
0.621081

>  <SCORE.INTRA.DIHEDRAL>
9.01843

>  <SCORE.INTRA.DIHEDRAL.0>
22.9177

>  <SCORE.INTRA.POLAR>
-2.13765

>  <SCORE.INTRA.POLAR.0>
-0.311208

>  <SCORE.INTRA.REPUL>
0

>  <SCORE.INTRA.REPUL.0>
0

>  <SCORE.INTRA.SOLV>
1.92079

>  <SCORE.INTRA.SOLV.lig_0>
-132.657

>  <SCORE.INTRA.VDW>
2.41949

>  <SCORE.INTRA.VDW.0>
-4.68867

>  <SCORE.INTRA.norm>
0.0194088

>  <SCORE.RESTR>
0

>  <SCORE.RESTR.CAVITY>
0

>  <SCORE.RESTR.norm>
0

>  <SCORE.SYSTEM>
0

>  <SCORE.SYSTEM.CONST>
0

>  <SCORE.SYSTEM.DIHEDRAL>
0

>  <SCORE.SYSTEM.SOLV>
0

>  <SCORE.SYSTEM.norm>
0

>  <SCORE.heavy>
32

>  <SCORE.norm>
-1.10556

>  <RMSD>
4.830

$$$$
1tob
 OpenBabel11021811413D
libRbt.so/2013.1/901 2013/11/27
 32 34  0  0  0  0  0  0  0  0999 V2000
    0.4539    3.8134    4.2777 C   0  0  2  0  0  0  0  0  0  0  0  0
    1.6506    2.8711    4.1715 C   0  0  1  0  0  0  0  0  0  0  0  0
    1.6675    1.9272    5.3661 C   0  0  2  0  0  0  0  0  0  0  0  0
    1.6640    2.7414    6.6543 C   0  0  1  0  0  0  0  0  0  0  0  0
    0.4653    3.6860    6.6673 C   0  0  1  0  0  0  0  0  0  0  0  0
    0.4485    4.5803    7.8914 C   0  0  0  0  0  0  0  0  0  0  0  0
    1.5641    2.1201    2.9690 O   0  0  0  0  0  0  0  0  0  0  0  0
    2.8203    1.0030    5.2998 N   0  3  0  0  0  0  0  0  0  0  0  0
    1.6103    1.8685    7.7747 O   0  0  0  0  0  0  0  0  0  0  0  0
    0.5010    4.5466    5.5083 O   0  0  0  0  0  0  0  0  0  0  0  0
   -0.3140    4.0058    8.9433 O   0  0  0  0  0  0  0  0  0  0  0  0
   -2.5404    2.0929    2.9934 C   0  0  2  0  0  0  0  0  0  0  0  0
   -3.2782    2.1382    1.6623 C   0  0  0  0  0  0  0  0  0  0  0  0
   -3.8597    3.5314    1.4208 C   0  0  1  0  0  0  0  0  0  0  0  0
   -2.7344    4.5636    1.4080 C   0  0  2  0  0  0  0  0  0  0  0  0
   -1.9762    4.5268    2.7358 C   0  0  1  0  0  0  0  0  0  0  0  0
   -1.4226    3.1244    2.9860 C   0  0  1  0  0  0  0  0  0  0  0  0
   -1.9473    0.7563    3.2173 N   0  3  0  0  0  0  0  0  0  0  0  0
   -4.6478    3.5386    0.1611 N   0  3  0  0  0  0  0  0  0  0  0  0
   -0.9125    5.4690    2.7095 O   0  0  0  0  0  0  0  0  0  0  0  0
   -0.7248    3.0921    4.2442 O   0  0  0  0  0  0  0  0  0  0  0  0
   -4.5122    6.1394    1.7541 C   0  0  1  0  0  0  0  0  0  0  0  0
   -5.1674    7.3439    1.0759 C   0  0  1  0  0  0  0  0  0  0  0  0
   -4.3321    8.5951    1.3018 C   0  0  0  0  0  0  0  0  0  0  0  0
   -4.1238    8.7957    2.7940 C   0  0  1  0  0  0  0  0  0  0  0  0
   -3.4878    7.5447    3.3990 C   0  0  1  0  0  0  0  0  0  0  0  0
   -3.3033    7.6508    4.9020 C   0  0  0  0  0  0  0  0  0  0  0  0
   -5.4003    7.0842   -0.3645 N   0  3  0  0  0  0  0  0  0  0  0  0
   -4.5848    7.9437    5.5872 N   0  3  0  0  0  0  0  0  0  0  0  0
   -3.2717    5.8835    1.1852 O   0  0  0  0  0  0  0  0  0  0  0  0
   -3.2884    9.9217    3.0203 O   0  0  0  0  0  0  0  0  0  0  0  0
   -4.3230    6.3928    3.1517 O   0  0  0  0  0  0  0  0  0  0  0  0
  1  2  1  0  0  0  0
  1 10  1  0  0  0  0
  1 21  1  1  0  0  0
  2  3  1  0  0  0  0
  2  7  1  6  0  0  0
  3  4  1  0  0  0  0
  3  8  1  6  0  0  0
  4  5  1  0  0  0  0
  4  9  1  1  0  0  0
  5  6  1  1  0  0  0
  5 10  1  0  0  0  0
  6 11  1  0  0  0  0
 12 13  1  0  0  0  0
 12 17  1  0  0  0  0
 12 18  1  6  0  0  0
 13 14  1  0  0  0  0
 14 15  1  0  0  0  0
 14 19  1  6  0  0  0
 15 16  1  0  0  0  0
 15 30  1  1  0  0  0
 16 17  1  0  0  0  0
 16 20  1  6  0  0  0
 17 21  1  1  0  0  0
 22 23  1  0  0  0  0
 22 30  1  6  0  0  0
 22 32  1  0  0  0  0
 23 24  1  0  0  0  0
 23 28  1  6  0  0  0
 24 25  1  0  0  0  0
 25 26  1  0  0  0  0
 25 31  1  6  0  0  0
 26 27  1  1  0  0  0
 26 32  1  0  0  0  0
 27 29  1  0  0  0  0
M  CHG  5   8   1  18   1  19   1  28   1  29   1
M  END
>  <CHROM.1>
-102.71797660,-59.59550530,173.03712893,74.60863769,-92.56179555,92.34146652
-171.07917470,139.92737610,35.29253146,-59.84075331,169.14705660,-160.89747999
87.42128000,174.56457270,56.03585064,149.22323629,-1.77599135,4.65052885
3.67428626,0.08766336,0.84240830,-2.41842761

>  <Name>
1tob

>  <RI>
0

>  <Rbt.Current_Directory>
/home/itssahil/PROJECTS/Mol_Feturizer/New_Systems/rnas/1tob

>  <Rbt.Executable>
rbdock ($Id: //depot/dev/client3/rdock/2013.1/src/exe/rbdock.cxx#4 $)

>  <Rbt.Library>
libRbt.so (2013.1, Build901 2013/11/27)

>  <Rbt.Parameter_File>
/export/apps/rDock/src/rDock_2013.1_src/data/scripts/dock_solv.prm

>  <Rbt.Receptor>
prm/pocket_docking_5.prm

>  <SCORE>
-43.997

>  <SCORE.INTER>
-49.206

>  <SCORE.INTER.CONST>
1

>  <SCORE.INTER.POLAR>
-7.44433

>  <SCORE.INTER.ROT>
6

>  <SCORE.INTER.SOLV>
27.345

>  <SCORE.INTER.VDW>
-24.7046

>  <SCORE.INTER.norm>
-1.53769

>  <SCORE.INTRA>
5.20896

>  <SCORE.INTRA.DIHEDRAL>
2.51154

>  <SCORE.INTRA.DIHEDRAL.0>
22.9177

>  <SCORE.INTRA.POLAR>
0.270878

>  <SCORE.INTRA.POLAR.0>
-0.311208

>  <SCORE.INTRA.REPUL>
0.00129143

>  <SCORE.INTRA.REPUL.0>
0

>  <SCORE.INTRA.SOLV>
-0.0988989

>  <SCORE.INTRA.SOLV.lig_0>
-132.657

>  <SCORE.INTRA.VDW>
3.0752

>  <SCORE.INTRA.VDW.0>
-4.68867

>  <SCORE.INTRA.norm>
0.16278

>  <SCORE.RESTR>
0

>  <SCORE.RESTR.CAVITY>
0

>  <SCORE.RESTR.norm>
0

>  <SCORE.SYSTEM>
0

>  <SCORE.SYSTEM.CONST>
0

>  <SCORE.SYSTEM.DIHEDRAL>
0

>  <SCORE.SYSTEM.SOLV>
0

>  <SCORE.SYSTEM.norm>
0

>  <SCORE.heavy>
32

>  <SCORE.norm>
-1.37491

>  <RMSD>
4.866

$$$$
1tob
 OpenBabel11021811413D
libRbt.so/2013.1/901 2013/11/27
 32 34  0  0  0  0  0  0  0  0999 V2000
   -0.9631    3.4278    6.6529 C   0  0  2  0  0  0  0  0  0  0  0  0
   -0.5500    4.1700    7.9216 C   0  0  1  0  0  0  0  0  0  0  0  0
    0.9625    4.1049    8.0842 C   0  0  2  0  0  0  0  0  0  0  0  0
    1.4100    2.6481    8.0748 C   0  0  1  0  0  0  0  0  0  0  0  0
    0.9250    1.9650    6.7991 C   0  0  1  0  0  0  0  0  0  0  0  0
    1.2735    0.4899    6.7660 C   0  0  0  0  0  0  0  0  0  0  0  0
   -0.9649    5.5261    7.8402 O   0  0  0  0  0  0  0  0  0  0  0  0
    1.3984    4.8089    9.3097 N   0  3  0  0  0  0  0  0  0  0  0  0
    2.8273    2.5800    8.1570 O   0  0  0  0  0  0  0  0  0  0  0  0
   -0.5117    2.0683    6.6981 O   0  0  0  0  0  0  0  0  0  0  0  0
    0.4213   -0.2639    7.6166 O   0  0  0  0  0  0  0  0  0  0  0  0
   -1.8461    2.7875    4.0493 C   0  0  2  0  0  0  0  0  0  0  0  0
   -2.7804    2.9231    2.8548 C   0  0  0  0  0  0  0  0  0  0  0  0
   -3.9252    3.8835    3.1780 C   0  0  1  0  0  0  0  0  0  0  0  0
   -3.3599    5.2568    3.5335 C   0  0  2  0  0  0  0  0  0  0  0  0
   -2.4118    5.1387    4.7278 C   0  0  1  0  0  0  0  0  0  0  0  0
   -1.2862    4.1549    4.4098 C   0  0  1  0  0  0  0  0  0  0  0  0
   -0.7181    1.8849    3.7312 N   0  3  0  0  0  0  0  0  0  0  0  0
   -4.8742    3.9410    2.0361 N   0  3  0  0  0  0  0  0  0  0  0  0
   -1.8662    6.4139    5.0379 O   0  0  0  0  0  0  0  0  0  0  0  0
   -0.4072    4.0357    5.5429 O   0  0  0  0  0  0  0  0  0  0  0  0
   -4.0845    7.5138    3.9141 C   0  0  1  0  0  0  0  0  0  0  0  0
   -5.2592    8.3373    4.4450 C   0  0  1  0  0  0  0  0  0  0  0  0
   -6.4378    8.2534    3.4868 C   0  0  0  0  0  0  0  0  0  0  0  0
   -5.9884    8.6866    2.1009 C   0  0  1  0  0  0  0  0  0  0  0  0
   -4.8021    7.8337    1.6530 C   0  0  1  0  0  0  0  0  0  0  0  0
   -4.2610    8.2502    0.2973 C   0  0  0  0  0  0  0  0  0  0  0  0
   -5.6284    7.9174    5.8176 N   0  3  0  0  0  0  0  0  0  0  0  0
   -3.2517    7.2870   -0.2039 N   0  3  0  0  0  0  0  0  0  0  0  0
   -4.4312    6.1710    3.8450 O   0  0  0  0  0  0  0  0  0  0  0  0
   -7.0595    8.5493    1.1786 O   0  0  0  0  0  0  0  0  0  0  0  0
   -3.7184    7.9524    2.6000 O   0  0  0  0  0  0  0  0  0  0  0  0
  1  2  1  0  0  0  0
  1 10  1  0  0  0  0
  1 21  1  6  0  0  0
  2  3  1  0  0  0  0
  2  7  1  6  0  0  0
  3  4  1  0  0  0  0
  3  8  1  1  0  0  0
  4  5  1  0  0  0  0
  4  9  1  6  0  0  0
  5  6  1  1  0  0  0
  5 10  1  0  0  0  0
  6 11  1  0  0  0  0
 12 13  1  0  0  0  0
 12 17  1  0  0  0  0
 12 18  1  6  0  0  0
 13 14  1  0  0  0  0
 14 15  1  0  0  0  0
 14 19  1  6  0  0  0
 15 16  1  0  0  0  0
 15 30  1  1  0  0  0
 16 17  1  0  0  0  0
 16 20  1  6  0  0  0
 17 21  1  1  0  0  0
 22 23  1  0  0  0  0
 22 30  1  6  0  0  0
 22 32  1  0  0  0  0
 23 24  1  0  0  0  0
 23 28  1  1  0  0  0
 24 25  1  0  0  0  0
 25 26  1  0  0  0  0
 25 31  1  6  0  0  0
 26 27  1  6  0  0  0
 26 32  1  0  0  0  0
 27 29  1  0  0  0  0
M  CHG  5   8   1  18   1  19   1  28   1  29   1
M  END
>  <CHROM.1>
-138.13814994,-177.59276250,47.36405248,-60.62318601,75.78222660,45.64923844
79.54856263,-175.62474425,-167.12821811,172.22315210,-54.47265983,-171.88130217
-114.41859987,-57.65437142,-171.44426828,-46.14363185,-2.23659991,4.95218352
4.76828300,0.00735216,-0.88859581,0.79345598

>  <Name>
1tob

>  <RI>
0

>  <Rbt.Current_Directory>
/home/itssahil/PROJECTS/Mol_Feturizer/New_Systems/rnas/1tob

>  <Rbt.Executable>
rbdock ($Id: //depot/dev/client3/rdock/2013.1/src/exe/rbdock.cxx#4 $)

>  <Rbt.Library>
libRbt.so (2013.1, Build901 2013/11/27)

>  <Rbt.Parameter_File>
/export/apps/rDock/src/rDock_2013.1_src/data/scripts/dock_solv.prm

>  <Rbt.Receptor>
prm/pocket_docking_8.prm

>  <SCORE>
-46.3726

>  <SCORE.INTER>
-39.7074

>  <SCORE.INTER.CONST>
1

>  <SCORE.INTER.POLAR>
-5.34791

>  <SCORE.INTER.ROT>
6

>  <SCORE.INTER.SOLV>
31.2199

>  <SCORE.INTER.VDW>
-26.6519

>  <SCORE.INTER.norm>
-1.24086

>  <SCORE.INTRA>
-6.66512

>  <SCORE.INTRA.DIHEDRAL>
-8.05577

>  <SCORE.INTRA.DIHEDRAL.0>
22.9177

>  <SCORE.INTRA.POLAR>
-1.0853

>  <SCORE.INTRA.POLAR.0>
-0.311208

>  <SCORE.INTRA.REPUL>
0

>  <SCORE.INTRA.REPUL.0>
0

>  <SCORE.INTRA.SOLV>
-2.70835

>  <SCORE.INTRA.SOLV.lig_0>
-132.657

>  <SCORE.INTRA.VDW>
2.40696

>  <SCORE.INTRA.VDW.0>
-4.68867

>  <SCORE.INTRA.norm>
-0.208285

>  <SCORE.RESTR>
0

>  <SCORE.RESTR.CAVITY>
0

>  <SCORE.RESTR.norm>
0

>  <SCORE.SYSTEM>
0

>  <SCORE.SYSTEM.CONST>
0

>  <SCORE.SYSTEM.DIHEDRAL>
0

>  <SCORE.SYSTEM.SOLV>
0

>  <SCORE.SYSTEM.norm>
0

>  <SCORE.heavy>
32

>  <SCORE.norm>
-1.44914

>  <RMSD>
4.870

$$$$
1tob
 OpenBabel11021811413D
libRbt.so/2013.1/901 2013/11/27
 32 34  0  0  0  0  0  0  0  0999 V2000
    0.7120    2.3808    5.1410 C   0  0  2  0  0  0  0  0  0  0  0  0
    1.6687    1.2809    5.5948 C   0  0  1  0  0  0  0  0  0  0  0  0
    1.1818    0.6883    6.9101 C   0  0  2  0  0  0  0  0  0  0  0  0
    1.0243    1.8016    7.9389 C   0  0  1  0  0  0  0  0  0  0  0  0
    0.0898    2.8798    7.3971 C   0  0  1  0  0  0  0  0  0  0  0  0
   -0.0470    4.0547    8.3455 C   0  0  0  0  0  0  0  0  0  0  0  0
    1.7329    0.2633    4.6059 O   0  0  0  0  0  0  0  0  0  0  0  0
    2.0908   -0.3776    7.3843 N   0  3  0  0  0  0  0  0  0  0  0  0
    0.5046    1.2677    9.1493 O   0  0  0  0  0  0  0  0  0  0  0  0
    0.5997    3.3944    6.1480 O   0  0  0  0  0  0  0  0  0  0  0  0
    1.1834    4.7494    8.4919 O   0  0  0  0  0  0  0  0  0  0  0  0
   -2.2800    1.5132    3.2571 C   0  0  2  0  0  0  0  0  0  0  0  0
   -3.0721    2.2048    2.1560 C   0  0  0  0  0  0  0  0  0  0  0  0
   -3.8232    3.4129    2.7162 C   0  0  1  0  0  0  0  0  0  0  0  0
   -2.8288    4.4028    3.3187 C   0  0  2  0  0  0  0  0  0  0  0  0
   -2.0176    3.7225    4.4225 C   0  0  1  0  0  0  0  0  0  0  0  0
   -1.2928    2.4986    3.8635 C   0  0  1  0  0  0  0  0  0  0  0  0
   -1.5248    0.3627    2.7143 N   0  3  0  0  0  0  0  0  0  0  0  0
   -4.6578    4.0273    1.6513 N   0  3  0  0  0  0  0  0  0  0  0  0
   -1.0742    4.6387    4.9616 O   0  0  0  0  0  0  0  0  0  0  0  0
   -0.5449    1.8536    4.9102 O   0  0  0  0  0  0  0  0  0  0  0  0
   -2.8729    6.7656    3.7423 C   0  0  1  0  0  0  0  0  0  0  0  0
   -3.4469    7.7684    4.7447 C   0  0  1  0  0  0  0  0  0  0  0  0
   -4.9112    8.0429    4.4364 C   0  0  0  0  0  0  0  0  0  0  0  0
   -5.0412    8.5055    2.9944 C   0  0  1  0  0  0  0  0  0  0  0  0
   -4.4271    7.4631    2.0606 C   0  0  1  0  0  0  0  0  0  0  0  0
   -4.4688    7.8864    0.6035 C   0  0  0  0  0  0  0  0  0  0  0  0
   -3.2506    7.3025    6.1378 N   0  3  0  0  0  0  0  0  0  0  0  0
   -5.8567    7.9053    0.0829 N   0  3  0  0  0  0  0  0  0  0  0  0
   -3.5265    5.5457    3.8549 O   0  0  0  0  0  0  0  0  0  0  0  0
   -6.4097    8.7009    2.6691 O   0  0  0  0  0  0  0  0  0  0  0  0
   -3.0411    7.2444    2.4023 O   0  0  0  0  0  0  0  0  0  0  0  0
  1  2  1  0  0  0  0
  1 10  1  0  0  0  0
  1 21  1  1  0  0  0
  2  3  1  0  0  0  0
  2  7  1  6  0  0  0
  3  4  1  0  0  0  0
  3  8  1  1  0  0  0
  4  5  1  0  0  0  0
  4  9  1  1  0  0  0
  5  6  1  1  0  0  0
  5 10  1  0  0  0  0
  6 11  1  0  0  0  0
 12 13  1  0  0  0  0
 12 17  1  0  0  0  0
 12 18  1  6  0  0  0
 13 14  1  0  0  0  0
 14 15  1  0  0  0  0
 14 19  1  6  0  0  0
 15 16  1  0  0  0  0
 15 30  1  1  0  0  0
 16 17  1  0  0  0  0
 16 20  1  6  0  0  0
 17 21  1  1  0  0  0
 22 23  1  0  0  0  0
 22 30  1  6  0  0  0
 22 32  1  0  0  0  0
 23 24  1  0  0  0  0
 23 28  1  1  0  0  0
 24 25  1  0  0  0  0
 25 26  1  0  0  0  0
 25 31  1  6  0  0  0
 26 27  1  6  0  0  0
 26 32  1  0  0  0  0
 27 29  1  0  0  0  0
M  CHG  5   8   1  18   1  19   1  28   1  29   1
M  END
>  <CHROM.1>
-147.69486823,63.13155131,-159.13050792,177.24885028,65.24109965,-58.89467256
177.70553510,176.19185504,-145.20369438,69.39150279,153.16364781,-160.08490757
177.15218644,64.19724012,-68.72799365,50.26820619,-1.85679218,4.18704548
4.53904843,0.17458807,0.89839596,-2.43144701

>  <Name>
1tob

>  <RI>
0

>  <Rbt.Current_Directory>
/home/itssahil/PROJECTS/Mol_Feturizer/New_Systems/rnas/1tob

>  <Rbt.Executable>
rbdock ($Id: //depot/dev/client3/rdock/2013.1/src/exe/rbdock.cxx#4 $)

>  <Rbt.Library>
libRbt.so (2013.1, Build901 2013/11/27)

>  <Rbt.Parameter_File>
/export/apps/rDock/src/rDock_2013.1_src/data/scripts/dock_solv.prm

>  <Rbt.Receptor>
prm/pocket_docking_7.prm

>  <SCORE>
-42.9435

>  <SCORE.INTER>
-37.583

>  <SCORE.INTER.CONST>
1

>  <SCORE.INTER.POLAR>
-4.73307

>  <SCORE.INTER.ROT>
6

>  <SCORE.INTER.SOLV>
28.65

>  <SCORE.INTER.VDW>
-26.4285

>  <SCORE.INTER.norm>
-1.17447

>  <SCORE.INTRA>
-5.37102

>  <SCORE.INTRA.DIHEDRAL>
-7.32197

>  <SCORE.INTRA.DIHEDRAL.0>
22.9177

>  <SCORE.INTRA.POLAR>
-0.46326

>  <SCORE.INTRA.POLAR.0>
-0.311208

>  <SCORE.INTRA.REPUL>
0

>  <SCORE.INTRA.REPUL.0>
0

>  <SCORE.INTRA.SOLV>
-1.15553

>  <SCORE.INTRA.SOLV.lig_0>
-132.657

>  <SCORE.INTRA.VDW>
0.442819

>  <SCORE.INTRA.VDW.0>
-4.68867

>  <SCORE.INTRA.norm>
-0.167844

>  <SCORE.RESTR>
0.0105557

>  <SCORE.RESTR.CAVITY>
0.0105557

>  <SCORE.RESTR.norm>
0.000329867

>  <SCORE.SYSTEM>
0

>  <SCORE.SYSTEM.CONST>
0

>  <SCORE.SYSTEM.DIHEDRAL>
0

>  <SCORE.SYSTEM.SOLV>
0

>  <SCORE.SYSTEM.norm>
0

>  <SCORE.heavy>
32

>  <SCORE.norm>
-1.34198

>  <RMSD>
4.874

$$$$
1tob
 OpenBabel11021811413D
libRbt.so/2013.1/901 2013/11/27
 32 34  0  0  0  0  0  0  0  0999 V2000
   -2.5649    4.0854    4.5341 C   0  0  2  0  0  0  0  0  0  0  0  0
   -1.3375    3.9007    5.4232 C   0  0  1  0  0  0  0  0  0  0  0  0
   -0.0841    4.2998    4.6563 C   0  0  2  0  0  0  0  0  0  0  0  0
   -0.0068    3.4995    3.3617 C   0  0  1  0  0  0  0  0  0  0  0  0
   -1.2833    3.7020    2.5500 C   0  0  1  0  0  0  0  0  0  0  0  0
   -1.3001    2.8690    1.2834 C   0  0  0  0  0  0  0  0  0  0  0  0
   -1.4631    4.7052    6.5871 O   0  0  0  0  0  0  0  0  0  0  0  0
    1.1276    4.1262    5.4864 N   0  3  0  0  0  0  0  0  0  0  0  0
    1.1234    3.9146    2.6065 O   0  0  0  0  0  0  0  0  0  0  0  0
   -2.4338    3.3155    3.3324 O   0  0  0  0  0  0  0  0  0  0  0  0
   -2.5095    3.0487    0.5601 O   0  0  0  0  0  0  0  0  0  0  0  0
   -3.9088    7.3758    4.9427 C   0  0  2  0  0  0  0  0  0  0  0  0
   -5.3038    7.9496    5.1496 C   0  0  0  0  0  0  0  0  0  0  0  0
   -6.0755    7.9674    3.8298 C   0  0  1  0  0  0  0  0  0  0  0  0
   -6.1916    6.5466    3.2826 C   0  0  2  0  0  0  0  0  0  0  0  0
   -4.7984    5.9505    3.0758 C   0  0  1  0  0  0  0  0  0  0  0  0
   -4.0211    5.9626    4.3916 C   0  0  1  0  0  0  0  0  0  0  0  0
   -3.1689    7.3255    6.2227 N   0  3  0  0  0  0  0  0  0  0  0  0
   -7.4020    8.6069    4.0287 N   0  3  0  0  0  0  0  0  0  0  0  0
   -4.9109    4.6185    2.5929 O   0  0  0  0  0  0  0  0  0  0  0  0
   -2.7058    5.4160    4.1869 O   0  0  0  0  0  0  0  0  0  0  0  0
   -6.1461    6.6955    0.8868 C   0  0  1  0  0  0  0  0  0  0  0  0
   -6.7078    7.8167    0.0110 C   0  0  1  0  0  0  0  0  0  0  0  0
   -8.1107    7.4650   -0.4607 C   0  0  0  0  0  0  0  0  0  0  0  0
   -8.0788    6.1198   -1.1677 C   0  0  1  0  0  0  0  0  0  0  0  0
   -7.4865    5.0617   -0.2375 C   0  0  1  0  0  0  0  0  0  0  0  0
   -7.3692    3.7007   -0.8994 C   0  0  0  0  0  0  0  0  0  0  0  0
   -6.6701    9.1177    0.7199 N   0  3  0  0  0  0  0  0  0  0  0  0
   -6.3124    3.6916   -1.9390 N   0  3  0  0  0  0  0  0  0  0  0  0
   -6.9144    6.5512    2.0344 O   0  0  0  0  0  0  0  0  0  0  0  0
   -9.3925    5.7439   -1.5548 O   0  0  0  0  0  0  0  0  0  0  0  0
   -6.1590    5.4508    0.1769 O   0  0  0  0  0  0  0  0  0  0  0  0
  1  2  1  0  0  0  0
  1 10  1  0  0  0  0
  1 21  1  6  0  0  0
  2  3  1  0  0  0  0
  2  7  1  1  0  0  0
  3  4  1  0  0  0  0
  3  8  1  1  0  0  0
  4  5  1  0  0  0  0
  4  9  1  6  0  0  0
  5  6  1  6  0  0  0
  5 10  1  0  0  0  0
  6 11  1  0  0  0  0
 12 13  1  0  0  0  0
 12 17  1  0  0  0  0
 12 18  1  1  0  0  0
 13 14  1  0  0  0  0
 14 15  1  0  0  0  0
 14 19  1  1  0  0  0
 15 16  1  0  0  0  0
 15 30  1  6  0  0  0
 16 17  1  0  0  0  0
 16 20  1  1  0  0  0
 17 21  1  6  0  0  0
 22 23  1  0  0  0  0
 22 30  1  1  0  0  0
 22 32  1  0  0  0  0
 23 24  1  0  0  0  0
 23 28  1  1  0  0  0
 24 25  1  0  0  0  0
 25 26  1  0  0  0  0
 25 31  1  1  0  0  0
 26 27  1  6  0  0  0
 26 32  1  0  0  0  0
 27 29  1  0  0  0  0
M  CHG  5   8   1  18   1  19   1  28   1  29   1
M  END
>  <CHROM.1>
-130.47483372,-87.43378066,63.04094343,-172.60073749,178.61461098,50.67130471
-157.42675841,-83.94808886,90.41352140,69.68620373,139.97417311,-128.95235992
-95.14007450,-57.23586499,70.43587088,-81.55757855,-4.31357356,5.51365581
2.48088030,0.30274958,-0.56378612,0.96580587

>  <Name>
1tob

>  <RI>
0

>  <Rbt.Current_Directory>
/home/itssahil/PROJECTS/Mol_Feturizer/New_Systems/rnas/1tob

>  <Rbt.Executable>
rbdock ($Id: //depot/dev/client3/rdock/2013.1/src/exe/rbdock.cxx#4 $)

>  <Rbt.Library>
libRbt.so (2013.1, Build901 2013/11/27)

>  <Rbt.Parameter_File>
/export/apps/rDock/src/rDock_2013.1_src/data/scripts/dock_solv.prm

>  <Rbt.Receptor>
prm/blind_docking_80.prm

>  <SCORE>
-18.1764

>  <SCORE.INTER>
-35.7048

>  <SCORE.INTER.CONST>
1

>  <SCORE.INTER.POLAR>
-5.57905

>  <SCORE.INTER.ROT>
6

>  <SCORE.INTER.SOLV>
38.5014

>  <SCORE.INTER.VDW>
-25.6402

>  <SCORE.INTER.norm>
-1.11577

>  <SCORE.INTRA>
6.12917

>  <SCORE.INTRA.DIHEDRAL>
10.2653

>  <SCORE.INTRA.DIHEDRAL.0>
22.9177

>  <SCORE.INTRA.POLAR>
-0.823633

>  <SCORE.INTRA.POLAR.0>
-0.311208

>  <SCORE.INTRA.REPUL>
0.00732001

>  <SCORE.INTRA.REPUL.0>
0

>  <SCORE.INTRA.SOLV>
0.959688

>  <SCORE.INTRA.SOLV.lig_0>
-132.657

>  <SCORE.INTRA.VDW>
3.28043

>  <SCORE.INTRA.VDW.0>
-4.68867

>  <SCORE.INTRA.norm>
0.191537

>  <SCORE.RESTR>
11.3992

>  <SCORE.RESTR.CAVITY>
11.3992

>  <SCORE.RESTR.norm>
0.356225

>  <SCORE.SYSTEM>
0

>  <SCORE.SYSTEM.CONST>
0

>  <SCORE.SYSTEM.DIHEDRAL>
0

>  <SCORE.SYSTEM.SOLV>
0

>  <SCORE.SYSTEM.norm>
0

>  <SCORE.heavy>
32

>  <SCORE.norm>
-0.568013

>  <RMSD>
4.875

$$$$
1tob
 OpenBabel11021811413D
libRbt.so/2013.1/901 2013/11/27
 32 34  0  0  0  0  0  0  0  0999 V2000
   -1.6520    3.9088    2.9226 C   0  0  2  0  0  0  0  0  0  0  0  0
   -2.0394    2.5804    2.2773 C   0  0  1  0  0  0  0  0  0  0  0  0
   -1.0350    1.5063    2.6723 C   0  0  2  0  0  0  0  0  0  0  0  0
    0.3691    1.9637    2.2956 C   0  0  1  0  0  0  0  0  0  0  0  0
    0.6657    3.3137    2.9427 C   0  0  1  0  0  0  0  0  0  0  0  0
    2.0222    3.8599    2.5428 C   0  0  0  0  0  0  0  0  0  0  0  0
   -3.3395    2.2007    2.7051 O   0  0  0  0  0  0  0  0  0  0  0  0
   -1.3757    0.2050    2.0576 N   0  3  0  0  0  0  0  0  0  0  0  0
    1.3201    0.9977    2.7227 O   0  0  0  0  0  0  0  0  0  0  0  0
   -0.3236    4.2845    2.5377 O   0  0  0  0  0  0  0  0  0  0  0  0
    2.0749    4.1521    1.1536 O   0  0  0  0  0  0  0  0  0  0  0  0
   -1.8678    5.8530    5.5688 C   0  0  2  0  0  0  0  0  0  0  0  0
   -2.8568    6.7875    6.2521 C   0  0  0  0  0  0  0  0  0  0  0  0
   -3.8858    7.3045    5.2464 C   0  0  1  0  0  0  0  0  0  0  0  0
   -4.6441    6.1283    4.6354 C   0  0  2  0  0  0  0  0  0  0  0  0
   -3.6647    5.1738    3.9508 C   0  0  1  0  0  0  0  0  0  0  0  0
   -2.6209    4.6835    4.9538 C   0  0  1  0  0  0  0  0  0  0  0  0
   -0.8894    5.3236    6.5439 N   0  3  0  0  0  0  0  0  0  0  0  0
   -4.7918    8.2798    5.9066 N   0  3  0  0  0  0  0  0  0  0  0  0
   -4.3710    4.0664    3.4078 O   0  0  0  0  0  0  0  0  0  0  0  0
   -1.6929    3.7991    4.3000 O   0  0  0  0  0  0  0  0  0  0  0  0
   -5.1108    7.0249    2.4578 C   0  0  1  0  0  0  0  0  0  0  0  0
   -6.1941    7.7536    1.6607 C   0  0  1  0  0  0  0  0  0  0  0  0
   -7.3412    6.8066    1.3417 C   0  0  0  0  0  0  0  0  0  0  0  0
   -6.7960    5.5843    0.6212 C   0  0  1  0  0  0  0  0  0  0  0  0
   -5.7075    4.9278    1.4696 C   0  0  1  0  0  0  0  0  0  0  0  0
   -5.0744    3.7304    0.7845 C   0  0  0  0  0  0  0  0  0  0  0  0
   -6.6576    8.9665    2.3750 N   0  3  0  0  0  0  0  0  0  0  0  0
   -5.6558    3.5040   -0.5603 N   0  3  0  0  0  0  0  0  0  0  0  0
   -5.6154    6.6038    3.6810 O   0  0  0  0  0  0  0  0  0  0  0  0
   -7.8441    4.6578    0.3763 O   0  0  0  0  0  0  0  0  0  0  0  0
   -4.6500    5.8733    1.7403 O   0  0  0  0  0  0  0  0  0  0  0  0
  1  2  1  0  0  0  0
  1 10  1  0  0  0  0
  1 21  1  1  0  0  0
  2  3  1  0  0  0  0
  2  7  1  1  0  0  0
  3  4  1  0  0  0  0
  3  8  1  6  0  0  0
  4  5  1  0  0  0  0
  4  9  1  1  0  0  0
  5  6  1  6  0  0  0
  5 10  1  0  0  0  0
  6 11  1  0  0  0  0
 12 13  1  0  0  0  0
 12 17  1  0  0  0  0
 12 18  1  1  0  0  0
 13 14  1  0  0  0  0
 14 15  1  0  0  0  0
 14 19  1  1  0  0  0
 15 16  1  0  0  0  0
 15 30  1  6  0  0  0
 16 17  1  0  0  0  0
 16 20  1  1  0  0  0
 17 21  1  6  0  0  0
 22 23  1  0  0  0  0
 22 30  1  1  0  0  0
 22 32  1  0  0  0  0
 23 24  1  0  0  0  0
 23 28  1  1  0  0  0
 24 25  1  0  0  0  0
 25 26  1  0  0  0  0
 25 31  1  1  0  0  0
 26 27  1  6  0  0  0
 26 32  1  0  0  0  0
 27 29  1  0  0  0  0
M  CHG  5   8   1  18   1  19   1  28   1  29   1
M  END
>  <CHROM.1>
-119.38339411,-176.49851901,-67.17738731,-70.62920262,64.94390898,-172.60021186
-35.74363028,-60.09166271,75.38068130,-93.01300863,-102.50381660,-168.73051617
60.27686811,33.22371660,0.99620780,-48.97009963,-3.16408901,4.71386596,2.90618958
-0.33018073,-0.46324722,0.80376605

>  <Name>
1tob

>  <RI>
0

>  <Rbt.Current_Directory>
/home/itssahil/PROJECTS/Mol_Feturizer/New_Systems/rnas/1tob

>  <Rbt.Executable>
rbdock ($Id: //depot/dev/client3/rdock/2013.1/src/exe/rbdock.cxx#4 $)

>  <Rbt.Library>
libRbt.so (2013.1, Build901 2013/11/27)

>  <Rbt.Parameter_File>
/export/apps/rDock/src/rDock_2013.1_src/data/scripts/dock_solv.prm

>  <Rbt.Receptor>
prm/blind_docking_100.prm

>  <SCORE>
-0.196526

>  <SCORE.INTER>
-24.035

>  <SCORE.INTER.CONST>
1

>  <SCORE.INTER.POLAR>
-5.16355

>  <SCORE.INTER.ROT>
6

>  <SCORE.INTER.SOLV>
47.4498

>  <SCORE.INTER.VDW>
-22.2281

>  <SCORE.INTER.norm>
-0.751095

>  <SCORE.INTRA>
17.6351

>  <SCORE.INTRA.DIHEDRAL>
7.0678

>  <SCORE.INTRA.DIHEDRAL.0>
22.9177

>  <SCORE.INTRA.POLAR>
-0.420393

>  <SCORE.INTRA.POLAR.0>
-0.311208

>  <SCORE.INTRA.REPUL>
0

>  <SCORE.INTRA.REPUL.0>
0

>  <SCORE.INTRA.SOLV>
-0.205165

>  <SCORE.INTRA.SOLV.lig_0>
-132.657

>  <SCORE.INTRA.VDW>
15.6331

>  <SCORE.INTRA.VDW.0>
-4.68867

>  <SCORE.INTRA.norm>
0.551096

>  <SCORE.RESTR>
6.20344

>  <SCORE.RESTR.CAVITY>
6.20344

>  <SCORE.RESTR.norm>
0.193858

>  <SCORE.SYSTEM>
0

>  <SCORE.SYSTEM.CONST>
0

>  <SCORE.SYSTEM.DIHEDRAL>
0

>  <SCORE.SYSTEM.SOLV>
0

>  <SCORE.SYSTEM.norm>
0

>  <SCORE.heavy>
32

>  <SCORE.norm>
-0.00614145

>  <RMSD>
4.879

$$$$
1tob
 OpenBabel11021811413D
libRbt.so/2013.1/901 2013/11/27
 32 34  0  0  0  0  0  0  0  0999 V2000
    0.1015    2.8090    4.9593 C   0  0  2  0  0  0  0  0  0  0  0  0
    0.9740    1.6880    5.5190 C   0  0  1  0  0  0  0  0  0  0  0  0
    0.3880    1.1898    6.8331 C   0  0  2  0  0  0  0  0  0  0  0  0
    0.2351    2.3616    7.7954 C   0  0  1  0  0  0  0  0  0  0  0  0
   -0.6118    3.4552    7.1502 C   0  0  1  0  0  0  0  0  0  0  0  0
   -0.7366    4.6833    8.0304 C   0  0  0  0  0  0  0  0  0  0  0  0
    1.0368    0.6184    4.5866 O   0  0  0  0  0  0  0  0  0  0  0  0
    1.2136    0.1062    7.4088 N   0  3  0  0  0  0  0  0  0  0  0  0
   -0.3750    1.9180    9.0000 O   0  0  0  0  0  0  0  0  0  0  0  0
   -0.0104    3.8780    5.9073 O   0  0  0  0  0  0  0  0  0  0  0  0
    0.5349    5.1347    8.4747 O   0  0  0  0  0  0  0  0  0  0  0  0
   -2.3073    1.9056    2.5936 C   0  0  2  0  0  0  0  0  0  0  0  0
   -3.0105    2.5808    1.4241 C   0  0  0  0  0  0  0  0  0  0  0  0
   -4.1989    3.4056    1.9192 C   0  0  1  0  0  0  0  0  0  0  0  0
   -3.7128    4.4721    2.8981 C   0  0  2  0  0  0  0  0  0  0  0  0
   -2.9959    3.8119    4.0769 C   0  0  1  0  0  0  0  0  0  0  0  0
   -1.8274    2.9651    3.5736 C   0  0  1  0  0  0  0  0  0  0  0  0
   -1.1367    1.1325    2.1241 N   0  3  0  0  0  0  0  0  0  0  0  0
   -4.9259    3.9894    0.7622 N   0  3  0  0  0  0  0  0  0  0  0  0
   -2.5206    4.8088    4.9714 O   0  0  0  0  0  0  0  0  0  0  0  0
   -1.1674    2.3336    4.6856 O   0  0  0  0  0  0  0  0  0  0  0  0
   -4.8774    6.5711    2.9382 C   0  0  1  0  0  0  0  0  0  0  0  0
   -3.4627    7.1261    2.7636 C   0  0  1  0  0  0  0  0  0  0  0  0
   -2.7377    7.1524    4.1008 C   0  0  0  0  0  0  0  0  0  0  0  0
   -3.5644    7.9410    5.1033 C   0  0  1  0  0  0  0  0  0  0  0  0
   -4.9656    7.3393    5.2037 C   0  0  1  0  0  0  0  0  0  0  0  0
   -5.8686    8.1137    6.1465 C   0  0  0  0  0  0  0  0  0  0  0  0
   -2.7119    6.3616    1.7397 N   0  3  0  0  0  0  0  0  0  0  0  0
   -6.1443    9.4780    5.6361 N   0  3  0  0  0  0  0  0  0  0  0  0
   -4.8265    5.2543    3.3759 O   0  0  0  0  0  0  0  0  0  0  0  0
   -2.9348    7.9180    6.3761 O   0  0  0  0  0  0  0  0  0  0  0  0
   -5.6012    7.3398    3.9070 O   0  0  0  0  0  0  0  0  0  0  0  0
  1  2  1  0  0  0  0
  1 10  1  0  0  0  0
  1 21  1  1  0  0  0
  2  3  1  0  0  0  0
  2  7  1  6  0  0  0
  3  4  1  0  0  0  0
  3  8  1  1  0  0  0
  4  5  1  0  0  0  0
  4  9  1  1  0  0  0
  5  6  1  1  0  0  0
  5 10  1  0  0  0  0
  6 11  1  0  0  0  0
 12 13  1  0  0  0  0
 12 17  1  0  0  0  0
 12 18  1  6  0  0  0
 13 14  1  0  0  0  0
 14 15  1  0  0  0  0
 14 19  1  6  0  0  0
 15 16  1  0  0  0  0
 15 30  1  1  0  0  0
 16 17  1  0  0  0  0
 16 20  1  1  0  0  0
 17 21  1  1  0  0  0
 22 23  1  0  0  0  0
 22 30  1  1  0  0  0
 22 32  1  0  0  0  0
 23 24  1  0  0  0  0
 23 28  1  6  0  0  0
 24 25  1  0  0  0  0
 25 26  1  0  0  0  0
 25 31  1  1  0  0  0
 26 27  1  1  0  0  0
 26 32  1  0  0  0  0
 27 29  1  0  0  0  0
M  CHG  5   8   1  18   1  19   1  28   1  29   1
M  END
>  <CHROM.1>
-148.05165973,154.50101922,-22.64729766,160.86189419,51.12651218,-177.30354878
164.69022450,83.66626655,-110.63480189,-97.73079549,127.06661394,-33.05231277
-101.39567235,-57.53682199,65.53169862,-54.61368757,-2.24863867,4.36975757
4.77393805,0.15913762,0.84843943,-2.21804958

>  <Name>
1tob

>  <RI>
0

>  <Rbt.Current_Directory>
/home/itssahil/PROJECTS/Mol_Feturizer/New_Systems/rnas/1tob

>  <Rbt.Executable>
rbdock ($Id: //depot/dev/client3/rdock/2013.1/src/exe/rbdock.cxx#4 $)

>  <Rbt.Library>
libRbt.so (2013.1, Build901 2013/11/27)

>  <Rbt.Parameter_File>
/export/apps/rDock/src/rDock_2013.1_src/data/scripts/dock_solv.prm

>  <Rbt.Receptor>
prm/blind_docking_40.prm

>  <SCORE>
-18.8183

>  <SCORE.INTER>
-46.3581

>  <SCORE.INTER.CONST>
1

>  <SCORE.INTER.POLAR>
-6.14658

>  <SCORE.INTER.ROT>
6

>  <SCORE.INTER.SOLV>
34.6197

>  <SCORE.INTER.VDW>
-29.5567

>  <SCORE.INTER.norm>
-1.44869

>  <SCORE.INTRA>
20.3971

>  <SCORE.INTRA.DIHEDRAL>
14.6905

>  <SCORE.INTRA.DIHEDRAL.0>
22.9177

>  <SCORE.INTRA.POLAR>
-0.646834

>  <SCORE.INTRA.POLAR.0>
-0.311208

>  <SCORE.INTRA.REPUL>
0

>  <SCORE.INTRA.REPUL.0>
0

>  <SCORE.INTRA.SOLV>
5.43727

>  <SCORE.INTRA.SOLV.lig_0>
-132.657

>  <SCORE.INTRA.VDW>
12.5325

>  <SCORE.INTRA.VDW.0>
-4.68867

>  <SCORE.INTRA.norm>
0.63741

>  <SCORE.RESTR>
7.14269

>  <SCORE.RESTR.CAVITY>
7.14269

>  <SCORE.RESTR.norm>
0.223209

>  <SCORE.SYSTEM>
0

>  <SCORE.SYSTEM.CONST>
0

>  <SCORE.SYSTEM.DIHEDRAL>
0

>  <SCORE.SYSTEM.SOLV>
0

>  <SCORE.SYSTEM.norm>
0

>  <SCORE.heavy>
32

>  <SCORE.norm>
-0.588071

>  <RMSD>
4.894

$$$$
1tob
 OpenBabel11021811413D
libRbt.so/2013.1/901 2013/11/27
 32 34  0  0  0  0  0  0  0  0999 V2000
   -2.1515    3.7766    4.7862 C   0  0  2  0  0  0  0  0  0  0  0  0
   -1.0676    3.7692    5.8615 C   0  0  1  0  0  0  0  0  0  0  0  0
    0.2534    4.2306    5.2611 C   0  0  2  0  0  0  0  0  0  0  0  0
    0.5981    3.3542    4.0630 C   0  0  1  0  0  0  0  0  0  0  0  0
   -0.5477    3.3800    3.0551 C   0  0  1  0  0  0  0  0  0  0  0  0
   -0.2973    2.4642    1.8731 C   0  0  0  0  0  0  0  0  0  0  0  0
   -1.4397    4.6362    6.9233 O   0  0  0  0  0  0  0  0  0  0  0  0
    1.3301    4.2287    6.2751 N   0  3  0  0  0  0  0  0  0  0  0  0
    1.7947    3.8207    3.4544 O   0  0  0  0  0  0  0  0  0  0  0  0
   -1.7708    2.9418    3.6852 O   0  0  0  0  0  0  0  0  0  0  0  0
   -0.3544    1.0970    2.2546 O   0  0  0  0  0  0  0  0  0  0  0  0
   -3.9158    6.8814    4.5939 C   0  0  2  0  0  0  0  0  0  0  0  0
   -5.3717    7.2810    4.3968 C   0  0  0  0  0  0  0  0  0  0  0  0
   -5.7687    7.1460    2.9266 C   0  0  1  0  0  0  0  0  0  0  0  0
   -5.5776    5.7005    2.4727 C   0  0  2  0  0  0  0  0  0  0  0  0
   -4.1209    5.2786    2.6710 C   0  0  1  0  0  0  0  0  0  0  0  0
   -3.7209    5.4439    4.1368 C   0  0  1  0  0  0  0  0  0  0  0  0
   -3.5353    6.9785    6.0201 N   0  3  0  0  0  0  0  0  0  0  0  0
   -7.1641    7.6191    2.7344 N   0  3  0  0  0  0  0  0  0  0  0  0
   -3.9532    3.9243    2.2738 O   0  0  0  0  0  0  0  0  0  0  0  0
   -2.3450    5.0611    4.3137 O   0  0  0  0  0  0  0  0  0  0  0  0
   -6.9772    4.6731    0.8147 C   0  0  1  0  0  0  0  0  0  0  0  0
   -6.7823    4.0382   -0.5633 C   0  0  1  0  0  0  0  0  0  0  0  0
   -6.8455    5.1027   -1.6482 C   0  0  0  0  0  0  0  0  0  0  0  0
   -8.1550    5.8649   -1.5264 C   0  0  1  0  0  0  0  0  0  0  0  0
   -8.2839    6.4479   -0.1196 C   0  0  1  0  0  0  0  0  0  0  0  0
   -9.5988    7.1757    0.0937 C   0  0  0  0  0  0  0  0  0  0  0  0
   -5.5212    3.2618   -0.6198 N   0  3  0  0  0  0  0  0  0  0  0  0
   -9.7619    8.2946   -0.8650 N   0  3  0  0  0  0  0  0  0  0  0  0
   -5.9449    5.5616    1.0849 O   0  0  0  0  0  0  0  0  0  0  0  0
   -8.2006    6.9079   -2.4892 O   0  0  0  0  0  0  0  0  0  0  0  0
   -8.2152    5.3930    0.8641 O   0  0  0  0  0  0  0  0  0  0  0  0
  1  2  1  0  0  0  0
  1 10  1  0  0  0  0
  1 21  1  6  0  0  0
  2  3  1  0  0  0  0
  2  7  1  1  0  0  0
  3  4  1  0  0  0  0
  3  8  1  1  0  0  0
  4  5  1  0  0  0  0
  4  9  1  6  0  0  0
  5  6  1  6  0  0  0
  5 10  1  0  0  0  0
  6 11  1  0  0  0  0
 12 13  1  0  0  0  0
 12 17  1  0  0  0  0
 12 18  1  1  0  0  0
 13 14  1  0  0  0  0
 14 15  1  0  0  0  0
 14 19  1  1  0  0  0
 15 16  1  0  0  0  0
 15 30  1  6  0  0  0
 16 17  1  0  0  0  0
 16 20  1  1  0  0  0
 17 21  1  6  0  0  0
 22 23  1  0  0  0  0
 22 30  1  6  0  0  0
 22 32  1  0  0  0  0
 23 24  1  0  0  0  0
 23 28  1  1  0  0  0
 24 25  1  0  0  0  0
 25 26  1  0  0  0  0
 25 31  1  6  0  0  0
 26 27  1  6  0  0  0
 26 32  1  0  0  0  0
 27 29  1  0  0  0  0
M  CHG  5   8   1  18   1  19   1  28   1  29   1
M  END
>  <CHROM.1>
-136.87392753,-89.59714318,-166.11168817,74.83645331,69.42352551,70.71838485
-64.85821227,71.10978580,-119.79110133,-58.95060124,139.73150380,-148.97169401
163.12923921,-44.65973223,-59.23468024,52.96052360,-4.14672181,5.05447187
2.47498896,0.29644223,-0.56105804,1.00066040

>  <Name>
1tob

>  <RI>
0

>  <Rbt.Current_Directory>
/home/itssahil/PROJECTS/Mol_Feturizer/New_Systems/rnas/1tob

>  <Rbt.Executable>
rbdock ($Id: //depot/dev/client3/rdock/2013.1/src/exe/rbdock.cxx#4 $)

>  <Rbt.Library>
libRbt.so (2013.1, Build901 2013/11/27)

>  <Rbt.Parameter_File>
/export/apps/rDock/src/rDock_2013.1_src/data/scripts/dock_solv.prm

>  <Rbt.Receptor>
prm/blind_docking_80.prm

>  <SCORE>
-27.9159

>  <SCORE.INTER>
-41.1278

>  <SCORE.INTER.CONST>
1

>  <SCORE.INTER.POLAR>
-5.70092

>  <SCORE.INTER.ROT>
6

>  <SCORE.INTER.SOLV>
32.1251

>  <SCORE.INTER.VDW>
-26.7238

>  <SCORE.INTER.norm>
-1.28524

>  <SCORE.INTRA>
4.37301

>  <SCORE.INTRA.DIHEDRAL>
7.5503

>  <SCORE.INTRA.DIHEDRAL.0>
22.9177

>  <SCORE.INTRA.POLAR>
-0.344779

>  <SCORE.INTRA.POLAR.0>
-0.311208

>  <SCORE.INTRA.REPUL>
0

>  <SCORE.INTRA.REPUL.0>
0

>  <SCORE.INTRA.SOLV>
2.08491

>  <SCORE.INTRA.SOLV.lig_0>
-132.657

>  <SCORE.INTRA.VDW>
0.727657

>  <SCORE.INTRA.VDW.0>
-4.68867

>  <SCORE.INTRA.norm>
0.136657

>  <SCORE.RESTR>
8.83887

>  <SCORE.RESTR.CAVITY>
8.83887

>  <SCORE.RESTR.norm>
0.276215

>  <SCORE.SYSTEM>
0

>  <SCORE.SYSTEM.CONST>
0

>  <SCORE.SYSTEM.DIHEDRAL>
0

>  <SCORE.SYSTEM.SOLV>
0

>  <SCORE.SYSTEM.norm>
0

>  <SCORE.heavy>
32

>  <SCORE.norm>
-0.872372

>  <RMSD>
4.904

$$$$
1tob
 OpenBabel11021811413D
libRbt.so/2013.1/901 2013/11/27
 32 34  0  0  0  0  0  0  0  0999 V2000
    0.6393    2.9841    4.8428 C   0  0  2  0  0  0  0  0  0  0  0  0
    1.0243    1.6541    5.4864 C   0  0  1  0  0  0  0  0  0  0  0  0
    0.1449    1.3997    6.7030 C   0  0  2  0  0  0  0  0  0  0  0  0
    0.2549    2.5787    7.6623 C   0  0  1  0  0  0  0  0  0  0  0  0
   -0.1038    3.8726    6.9367 C   0  0  1  0  0  0  0  0  0  0  0  0
    0.0613    5.0942    7.8194 C   0  0  0  0  0  0  0  0  0  0  0  0
    0.8588    0.6014    4.5473 O   0  0  0  0  0  0  0  0  0  0  0  0
    0.4958    0.1205    7.3572 N   0  3  0  0  0  0  0  0  0  0  0  0
   -0.6155    2.3815    8.7685 O   0  0  0  0  0  0  0  0  0  0  0  0
    0.7566    4.0523    5.7911 O   0  0  0  0  0  0  0  0  0  0  0  0
   -0.5246    4.8936    9.0979 O   0  0  0  0  0  0  0  0  0  0  0  0
   -0.5958    3.6001    2.0709 C   0  0  2  0  0  0  0  0  0  0  0  0
   -0.9944    4.7043    1.1014 C   0  0  0  0  0  0  0  0  0  0  0  0
   -2.5077    4.9202    1.1303 C   0  0  1  0  0  0  0  0  0  0  0  0
   -2.9454    5.3069    2.5412 C   0  0  2  0  0  0  0  0  0  0  0  0
   -2.5456    4.2117    3.5312 C   0  0  1  0  0  0  0  0  0  0  0  0
   -1.0360    3.9796    3.4765 C   0  0  1  0  0  0  0  0  0  0  0  0
    0.8712    3.4092    2.0715 N   0  3  0  0  0  0  0  0  0  0  0  0
   -2.8921    5.9396    0.1198 N   0  3  0  0  0  0  0  0  0  0  0  0
   -2.9296    4.5879    4.8469 O   0  0  0  0  0  0  0  0  0  0  0  0
   -0.6685    2.9370    4.3978 O   0  0  0  0  0  0  0  0  0  0  0  0
   -4.8241    6.7510    2.1554 C   0  0  1  0  0  0  0  0  0  0  0  0
   -6.0278    7.1924    2.9898 C   0  0  1  0  0  0  0  0  0  0  0  0
   -7.1887    6.2295    2.7912 C   0  0  0  0  0  0  0  0  0  0  0  0
   -7.5027    6.1226    1.3078 C   0  0  1  0  0  0  0  0  0  0  0  0
   -6.2483    5.6999    0.5439 C   0  0  1  0  0  0  0  0  0  0  0  0
   -6.4727    5.6292   -0.9557 C   0  0  0  0  0  0  0  0  0  0  0  0
   -5.6631    7.3352    4.4191 N   0  3  0  0  0  0  0  0  0  0  0  0
   -7.3752    4.5102   -1.3176 N   0  3  0  0  0  0  0  0  0  0  0  0
   -4.3729    5.5090    2.5820 O   0  0  0  0  0  0  0  0  0  0  0  0
   -8.5397    5.1752    1.0984 O   0  0  0  0  0  0  0  0  0  0  0  0
   -5.1837    6.6486    0.7721 O   0  0  0  0  0  0  0  0  0  0  0  0
  1  2  1  0  0  0  0
  1 10  1  0  0  0  0
  1 21  1  1  0  0  0
  2  3  1  0  0  0  0
  2  7  1  6  0  0  0
  3  4  1  0  0  0  0
  3  8  1  1  0  0  0
  4  5  1  0  0  0  0
  4  9  1  1  0  0  0
  5  6  1  1  0  0  0
  5 10  1  0  0  0  0
  6 11  1  0  0  0  0
 12 13  1  0  0  0  0
 12 17  1  0  0  0  0
 12 18  1  1  0  0  0
 13 14  1  0  0  0  0
 14 15  1  0  0  0  0
 14 19  1  6  0  0  0
 15 16  1  0  0  0  0
 15 30  1  6  0  0  0
 16 17  1  0  0  0  0
 16 20  1  1  0  0  0
 17 21  1  1  0  0  0
 22 23  1  0  0  0  0
 22 30  1  1  0  0  0
 22 32  1  0  0  0  0
 23 24  1  0  0  0  0
 23 28  1  1  0  0  0
 24 25  1  0  0  0  0
 25 26  1  0  0  0  0
 25 31  1  1  0  0  0
 26 27  1  6  0  0  0
 26 32  1  0  0  0  0
 27 29  1  0  0  0  0
M  CHG  5   8   1  18   1  19   1  28   1  29   1
M  END
>  <CHROM.1>
-164.47229225,63.93322737,6.41397643,-63.13605595,-46.75992881,-53.99209102
77.69113030,-36.54706341,-82.12574829,-54.60931113,82.56580675,-144.08660600
81.91043886,-70.62306082,-68.83585619,-58.75848423,-2.59058462,4.35201939
3.66895647,-0.61220458,0.53352563,-1.67160419

>  <Name>
1tob

>  <RI>
0

>  <Rbt.Current_Directory>
/home/itssahil/PROJECTS/Mol_Feturizer/New_Systems/rnas/1tob

>  <Rbt.Executable>
rbdock ($Id: //depot/dev/client3/rdock/2013.1/src/exe/rbdock.cxx#4 $)

>  <Rbt.Library>
libRbt.so (2013.1, Build901 2013/11/27)

>  <Rbt.Parameter_File>
/export/apps/rDock/src/rDock_2013.1_src/data/scripts/dock_solv.prm

>  <Rbt.Receptor>
prm/blind_docking_80.prm

>  <SCORE>
-12.5378

>  <SCORE.INTER>
-27.1044

>  <SCORE.INTER.CONST>
1

>  <SCORE.INTER.POLAR>
-5.81208

>  <SCORE.INTER.ROT>
6

>  <SCORE.INTER.SOLV>
35.1764

>  <SCORE.INTER.VDW>
-18.0214

>  <SCORE.INTER.norm>
-0.847011

>  <SCORE.INTRA>
3.73266

>  <SCORE.INTRA.DIHEDRAL>
-4.26224

>  <SCORE.INTRA.DIHEDRAL.0>
22.9177

>  <SCORE.INTRA.POLAR>
-0.487956

>  <SCORE.INTRA.POLAR.0>
-0.311208

>  <SCORE.INTRA.REPUL>
0

>  <SCORE.INTRA.REPUL.0>
0

>  <SCORE.INTRA.SOLV>
1.80358

>  <SCORE.INTRA.SOLV.lig_0>
-132.657

>  <SCORE.INTRA.VDW>
6.62104

>  <SCORE.INTRA.VDW.0>
-4.68867

>  <SCORE.INTRA.norm>
0.116646

>  <SCORE.RESTR>
10.8339

>  <SCORE.RESTR.CAVITY>
10.8339

>  <SCORE.RESTR.norm>
0.338561

>  <SCORE.SYSTEM>
0

>  <SCORE.SYSTEM.CONST>
0

>  <SCORE.SYSTEM.DIHEDRAL>
0

>  <SCORE.SYSTEM.SOLV>
0

>  <SCORE.SYSTEM.norm>
0

>  <SCORE.heavy>
32

>  <SCORE.norm>
-0.391805

>  <RMSD>
4.906

$$$$
1tob
 OpenBabel11021811413D
libRbt.so/2013.1/901 2013/11/27
 32 34  0  0  0  0  0  0  0  0999 V2000
   -1.7570    3.9587    5.0174 C   0  0  2  0  0  0  0  0  0  0  0  0
   -0.3380    3.8719    5.5742 C   0  0  1  0  0  0  0  0  0  0  0  0
    0.6676    4.0231    4.4410 C   0  0  2  0  0  0  0  0  0  0  0  0
    0.3838    2.9769    3.3698 C   0  0  1  0  0  0  0  0  0  0  0  0
   -1.0614    3.1000    2.8949 C   0  0  1  0  0  0  0  0  0  0  0  0
   -1.4287    2.0339    1.8815 C   0  0  0  0  0  0  0  0  0  0  0  0
   -0.1360    4.8993    6.5340 O   0  0  0  0  0  0  0  0  0  0  0  0
    2.0557    3.9364    4.9440 N   0  3  0  0  0  0  0  0  0  0  0  0
    1.2742    3.1546    2.2763 O   0  0  0  0  0  0  0  0  0  0  0  0
   -1.9636    2.9571    4.0133 O   0  0  0  0  0  0  0  0  0  0  0  0
   -2.8253    2.0241    1.6216 O   0  0  0  0  0  0  0  0  0  0  0  0
   -3.4513    7.0573    4.9080 C   0  0  2  0  0  0  0  0  0  0  0  0
   -4.9066    7.5020    4.8579 C   0  0  0  0  0  0  0  0  0  0  0  0
   -5.4449    7.4090    3.4299 C   0  0  1  0  0  0  0  0  0  0  0  0
   -5.3413    5.9685    2.9338 C   0  0  2  0  0  0  0  0  0  0  0  0
   -3.8857    5.5015    2.9848 C   0  0  1  0  0  0  0  0  0  0  0  0
   -3.3440    5.6247    4.4085 C   0  0  1  0  0  0  0  0  0  0  0  0
   -2.9347    7.1138    6.2931 N   0  3  0  0  0  0  0  0  0  0  0  0
   -6.8373    7.9254    3.3801 N   0  3  0  0  0  0  0  0  0  0  0  0
   -3.7973    4.1516    2.5488 O   0  0  0  0  0  0  0  0  0  0  0  0
   -1.9697    5.1995    4.4466 O   0  0  0  0  0  0  0  0  0  0  0  0
   -6.7437    4.8404    1.3449 C   0  0  1  0  0  0  0  0  0  0  0  0
   -6.3173    4.0393    0.1136 C   0  0  1  0  0  0  0  0  0  0  0  0
   -6.3434    4.9222   -1.1250 C   0  0  0  0  0  0  0  0  0  0  0  0
   -7.7239    5.5417   -1.2695 C   0  0  1  0  0  0  0  0  0  0  0  0
   -8.0838    6.3033    0.0055 C   0  0  1  0  0  0  0  0  0  0  0  0
   -9.4780    6.9016   -0.0444 C   0  0  0  0  0  0  0  0  0  0  0  0
   -4.9914    3.4098    0.3190 N   0  3  0  0  0  0  0  0  0  0  0  0
   -9.5777    7.9612   -1.0763 N   0  3  0  0  0  0  0  0  0  0  0  0
   -5.8424    5.8690    1.5849 O   0  0  0  0  0  0  0  0  0  0  0  0
   -7.7460    6.4230   -2.3829 O   0  0  0  0  0  0  0  0  0  0  0  0
   -8.0405    5.4159    1.1440 O   0  0  0  0  0  0  0  0  0  0  0  0
  1  2  1  0  0  0  0
  1 10  1  0  0  0  0
  1 21  1  6  0  0  0
  2  3  1  0  0  0  0
  2  7  1  1  0  0  0
  3  4  1  0  0  0  0
  3  8  1  1  0  0  0
  4  5  1  0  0  0  0
  4  9  1  6  0  0  0
  5  6  1  6  0  0  0
  5 10  1  0  0  0  0
  6 11  1  0  0  0  0
 12 13  1  0  0  0  0
 12 17  1  0  0  0  0
 12 18  1  1  0  0  0
 13 14  1  0  0  0  0
 14 15  1  0  0  0  0
 14 19  1  1  0  0  0
 15 16  1  0  0  0  0
 15 30  1  6  0  0  0
 16 17  1  0  0  0  0
 16 20  1  1  0  0  0
 17 21  1  6  0  0  0
 22 23  1  0  0  0  0
 22 30  1  6  0  0  0
 22 32  1  0  0  0  0
 23 24  1  0  0  0  0
 23 28  1  1  0  0  0
 24 25  1  0  0  0  0
 25 26  1  0  0  0  0
 25 31  1  6  0  0  0
 26 27  1  6  0  0  0
 26 32  1  0  0  0  0
 27 29  1  0  0  0  0
M  CHG  5   8   1  18   1  19   1  28   1  29   1
M  END
>  <CHROM.1>
-154.57534655,59.63987982,-175.65814793,-55.55980808,170.19596067,-68.14877475
-164.45125289,-59.43554013,-131.55593993,-62.07866556,132.66655760,-129.85168449
11.44871153,66.72113299,-65.95083455,-74.94161705,-3.98595484,5.06347687
2.53515599,0.25316264,-0.54492995,0.93448876

>  <Name>
1tob

>  <RI>
0

>  <Rbt.Current_Directory>
/home/itssahil/PROJECTS/Mol_Feturizer/New_Systems/rnas/1tob

>  <Rbt.Executable>
rbdock ($Id: //depot/dev/client3/rdock/2013.1/src/exe/rbdock.cxx#4 $)

>  <Rbt.Library>
libRbt.so (2013.1, Build901 2013/11/27)

>  <Rbt.Parameter_File>
/export/apps/rDock/src/rDock_2013.1_src/data/scripts/dock_solv.prm

>  <Rbt.Receptor>
prm/blind_docking_80.prm

>  <SCORE>
-30.1188

>  <SCORE.INTER>
-34.9435

>  <SCORE.INTER.CONST>
1

>  <SCORE.INTER.POLAR>
-5.31489

>  <SCORE.INTER.ROT>
6

>  <SCORE.INTER.SOLV>
30.8717

>  <SCORE.INTER.VDW>
-23.4699

>  <SCORE.INTER.norm>
-1.09199

>  <SCORE.INTRA>
-1.5036

>  <SCORE.INTRA.DIHEDRAL>
5.25264

>  <SCORE.INTRA.DIHEDRAL.0>
22.9177

>  <SCORE.INTRA.POLAR>
-1.71147

>  <SCORE.INTRA.POLAR.0>
-0.311208

>  <SCORE.INTRA.REPUL>
0

>  <SCORE.INTRA.REPUL.0>
0

>  <SCORE.INTRA.SOLV>
3.60974

>  <SCORE.INTRA.SOLV.lig_0>
-132.657

>  <SCORE.INTRA.VDW>
-0.115797

>  <SCORE.INTRA.VDW.0>
-4.68867

>  <SCORE.INTRA.norm>
-0.0469874

>  <SCORE.RESTR>
6.32831

>  <SCORE.RESTR.CAVITY>
6.32831

>  <SCORE.RESTR.norm>
0.19776

>  <SCORE.SYSTEM>
0

>  <SCORE.SYSTEM.CONST>
0

>  <SCORE.SYSTEM.DIHEDRAL>
0

>  <SCORE.SYSTEM.SOLV>
0

>  <SCORE.SYSTEM.norm>
0

>  <SCORE.heavy>
32

>  <SCORE.norm>
-0.941213

>  <RMSD>
4.912

$$$$
1tob
 OpenBabel11021811413D
libRbt.so/2013.1/901 2013/11/27
 32 34  0  0  0  0  0  0  0  0999 V2000
   -1.2818    3.6139    5.2648 C   0  0  2  0  0  0  0  0  0  0  0  0
    0.2108    3.5605    5.5820 C   0  0  1  0  0  0  0  0  0  0  0  0
    0.9899    3.2039    4.3233 C   0  0  2  0  0  0  0  0  0  0  0  0
    0.4561    1.8962    3.7513 C   0  0  1  0  0  0  0  0  0  0  0  0
   -1.0448    2.0142    3.5010 C   0  0  1  0  0  0  0  0  0  0  0  0
   -1.6506    0.7169    3.0025 C   0  0  0  0  0  0  0  0  0  0  0  0
    0.6424    4.8222    6.0710 O   0  0  0  0  0  0  0  0  0  0  0  0
    2.4420    3.1358    4.5959 N   0  3  0  0  0  0  0  0  0  0  0  0
    1.1312    1.5908    2.5384 O   0  0  0  0  0  0  0  0  0  0  0  0
   -1.7250    2.3618    4.7264 O   0  0  0  0  0  0  0  0  0  0  0  0
   -1.8219   -0.2159    4.0601 O   0  0  0  0  0  0  0  0  0  0  0  0
   -2.9402    6.5231    4.7845 C   0  0  2  0  0  0  0  0  0  0  0  0
   -4.3783    7.0217    4.7459 C   0  0  0  0  0  0  0  0  0  0  0  0
   -4.9388    6.9270    3.3267 C   0  0  1  0  0  0  0  0  0  0  0  0
   -4.8961    5.4761    2.8524 C   0  0  2  0  0  0  0  0  0  0  0  0
   -3.4586    4.9552    2.8922 C   0  0  1  0  0  0  0  0  0  0  0  0
   -2.8935    5.0800    4.3067 C   0  0  1  0  0  0  0  0  0  0  0  0
   -2.4032    6.5816    6.1617 N   0  3  0  0  0  0  0  0  0  0  0  0
   -6.3114    7.4948    3.2865 N   0  3  0  0  0  0  0  0  0  0  0  0
   -3.4269    3.5963    2.4768 O   0  0  0  0  0  0  0  0  0  0  0  0
   -1.5358    4.6038    4.3339 O   0  0  0  0  0  0  0  0  0  0  0  0
   -6.4729    4.4885    1.3351 C   0  0  1  0  0  0  0  0  0  0  0  0
   -6.5487    4.0403   -0.1254 C   0  0  1  0  0  0  0  0  0  0  0  0
   -6.8403    5.2299   -1.0277 C   0  0  0  0  0  0  0  0  0  0  0  0
   -8.1087    5.9198   -0.5526 C   0  0  1  0  0  0  0  0  0  0  0  0
   -7.9618    6.3154    0.9162 C   0  0  1  0  0  0  0  0  0  0  0  0
   -9.2169    6.9594    1.4768 C   0  0  0  0  0  0  0  0  0  0  0  0
   -5.3145    3.3262   -0.5295 N   0  3  0  0  0  0  0  0  0  0  0  0
   -9.5784    6.3870    2.7956 N   0  3  0  0  0  0  0  0  0  0  0  0
   -5.4187    5.3747    1.5119 O   0  0  0  0  0  0  0  0  0  0  0  0
   -8.3585    7.0733   -1.3425 O   0  0  0  0  0  0  0  0  0  0  0  0
   -7.6852    5.1482    1.7204 O   0  0  0  0  0  0  0  0  0  0  0  0
  1  2  1  0  0  0  0
  1 10  1  0  0  0  0
  1 21  1  6  0  0  0
  2  3  1  0  0  0  0
  2  7  1  6  0  0  0
  3  4  1  0  0  0  0
  3  8  1  1  0  0  0
  4  5  1  0  0  0  0
  4  9  1  6  0  0  0
  5  6  1  1  0  0  0
  5 10  1  0  0  0  0
  6 11  1  0  0  0  0
 12 13  1  0  0  0  0
 12 17  1  0  0  0  0
 12 18  1  1  0  0  0
 13 14  1  0  0  0  0
 14 15  1  0  0  0  0
 14 19  1  1  0  0  0
 15 16  1  0  0  0  0
 15 30  1  6  0  0  0
 16 17  1  0  0  0  0
 16 20  1  1  0  0  0
 17 21  1  6  0  0  0
 22 23  1  0  0  0  0
 22 30  1  6  0  0  0
 22 32  1  0  0  0  0
 23 24  1  0  0  0  0
 23 28  1  6  0  0  0
 24 25  1  0  0  0  0
 25 26  1  0  0  0  0
 25 31  1  6  0  0  0
 26 27  1  1  0  0  0
 26 32  1  0  0  0  0
 27 29  1  0  0  0  0
M  CHG  5   8   1  18   1  19   1  28   1  29   1
M  END
>  <CHROM.1>
-158.61427388,170.83694132,-179.35712814,-56.36994411,77.01425095,-158.99426142
-27.65353623,-59.41757808,-124.13909948,-59.87661875,112.82822587,-156.65736888
175.19670890,-61.11603212,133.44914128,175.29338545,-3.74046121,4.52331931
2.90927084,0.00614577,-0.55776898,0.73705835

>  <Name>
1tob

>  <RI>
0

>  <Rbt.Current_Directory>
/home/itssahil/PROJECTS/Mol_Feturizer/New_Systems/rnas/1tob

>  <Rbt.Executable>
rbdock ($Id: //depot/dev/client3/rdock/2013.1/src/exe/rbdock.cxx#4 $)

>  <Rbt.Library>
libRbt.so (2013.1, Build901 2013/11/27)

>  <Rbt.Parameter_File>
/export/apps/rDock/src/rDock_2013.1_src/data/scripts/dock_solv.prm

>  <Rbt.Receptor>
prm/blind_docking_80.prm

>  <SCORE>
-24.2659

>  <SCORE.INTER>
-36.8775

>  <SCORE.INTER.CONST>
1

>  <SCORE.INTER.POLAR>
-5.47337

>  <SCORE.INTER.ROT>
6

>  <SCORE.INTER.SOLV>
37.4704

>  <SCORE.INTER.VDW>
-26.4305

>  <SCORE.INTER.norm>
-1.15242

>  <SCORE.INTRA>
6.87448

>  <SCORE.INTRA.DIHEDRAL>
5.96351

>  <SCORE.INTRA.DIHEDRAL.0>
22.9177

>  <SCORE.INTRA.POLAR>
0.311208

>  <SCORE.INTRA.POLAR.0>
-0.311208

>  <SCORE.INTRA.REPUL>
0.0920673

>  <SCORE.INTRA.REPUL.0>
0

>  <SCORE.INTRA.SOLV>
2.6258

>  <SCORE.INTRA.SOLV.lig_0>
-132.657

>  <SCORE.INTRA.VDW>
1.06138

>  <SCORE.INTRA.VDW.0>
-4.68867

>  <SCORE.INTRA.norm>
0.214827

>  <SCORE.RESTR>
5.73713

>  <SCORE.RESTR.CAVITY>
5.73713

>  <SCORE.RESTR.norm>
0.179285

>  <SCORE.SYSTEM>
0

>  <SCORE.SYSTEM.CONST>
0

>  <SCORE.SYSTEM.DIHEDRAL>
0

>  <SCORE.SYSTEM.SOLV>
0

>  <SCORE.SYSTEM.norm>
0

>  <SCORE.heavy>
32

>  <SCORE.norm>
-0.758308

>  <RMSD>
4.918

$$$$
1tob
 OpenBabel11021811413D
libRbt.so/2013.1/901 2013/11/27
 32 34  0  0  0  0  0  0  0  0999 V2000
   -1.7406    3.2021    2.9947 C   0  0  2  0  0  0  0  0  0  0  0  0
   -1.6929    1.7845    2.4295 C   0  0  1  0  0  0  0  0  0  0  0  0
   -0.7028    0.9473    3.2278 C   0  0  2  0  0  0  0  0  0  0  0  0
    0.6575    1.6345    3.2262 C   0  0  1  0  0  0  0  0  0  0  0  0
    0.5206    3.0563    3.7639 C   0  0  1  0  0  0  0  0  0  0  0  0
    1.8294    3.8201    3.7156 C   0  0  0  0  0  0  0  0  0  0  0  0
   -2.9839    1.1964    2.5007 O   0  0  0  0  0  0  0  0  0  0  0  0
   -0.6252   -0.4329    2.7021 N   0  3  0  0  0  0  0  0  0  0  0  0
    1.5705    0.8954    4.0262 O   0  0  0  0  0  0  0  0  0  0  0  0
   -0.4358    3.7945    2.9731 O   0  0  0  0  0  0  0  0  0  0  0  0
    2.3163    3.9317    2.3858 O   0  0  0  0  0  0  0  0  0  0  0  0
   -1.7362    5.5069    4.7868 C   0  0  2  0  0  0  0  0  0  0  0  0
   -2.3759    6.8016    5.2692 C   0  0  0  0  0  0  0  0  0  0  0  0
   -3.5303    7.2020    4.3502 C   0  0  1  0  0  0  0  0  0  0  0  0
   -4.5829    6.0958    4.3346 C   0  0  2  0  0  0  0  0  0  0  0  0
   -3.9557    4.7842    3.8597 C   0  0  1  0  0  0  0  0  0  0  0  0
   -2.7838    4.4045    4.7642 C   0  0  1  0  0  0  0  0  0  0  0  0
   -0.6395    5.0969    5.6911 N   0  3  0  0  0  0  0  0  0  0  0  0
   -4.0900    8.5090    4.7822 N   0  3  0  0  0  0  0  0  0  0  0  0
   -4.9315    3.7509    3.8732 O   0  0  0  0  0  0  0  0  0  0  0  0
   -2.1878    3.1787    4.3025 O   0  0  0  0  0  0  0  0  0  0  0  0
   -5.3238    7.0497    2.2597 C   0  0  1  0  0  0  0  0  0  0  0  0
   -6.5770    7.4784    1.4944 C   0  0  1  0  0  0  0  0  0  0  0  0
   -7.4210    6.2630    1.1416 C   0  0  0  0  0  0  0  0  0  0  0  0
   -6.5683    5.2672    0.3725 C   0  0  1  0  0  0  0  0  0  0  0  0
   -5.3295    4.9074    1.1919 C   0  0  1  0  0  0  0  0  0  0  0  0
   -4.3987    3.9584    0.4589 C   0  0  0  0  0  0  0  0  0  0  0  0
   -7.3487    8.4882    2.2568 N   0  3  0  0  0  0  0  0  0  0  0  0
   -5.1363    3.1181   -0.5145 N   0  3  0  0  0  0  0  0  0  0  0  0
   -5.6758    6.4605    3.4668 O   0  0  0  0  0  0  0  0  0  0  0  0
   -7.3220    4.0961    0.0942 O   0  0  0  0  0  0  0  0  0  0  0  0
   -4.5716    6.0983    1.4967 O   0  0  0  0  0  0  0  0  0  0  0  0
  1  2  1  0  0  0  0
  1 10  1  0  0  0  0
  1 21  1  1  0  0  0
  2  3  1  0  0  0  0
  2  7  1  1  0  0  0
  3  4  1  0  0  0  0
  3  8  1  6  0  0  0
  4  5  1  0  0  0  0
  4  9  1  1  0  0  0
  5  6  1  6  0  0  0
  5 10  1  0  0  0  0
  6 11  1  0  0  0  0
 12 13  1  0  0  0  0
 12 17  1  0  0  0  0
 12 18  1  1  0  0  0
 13 14  1  0  0  0  0
 14 15  1  0  0  0  0
 14 19  1  1  0  0  0
 15 16  1  0  0  0  0
 15 30  1  6  0  0  0
 16 17  1  0  0  0  0
 16 20  1  1  0  0  0
 17 21  1  6  0  0  0
 22 23  1  0  0  0  0
 22 30  1  1  0  0  0
 22 32  1  0  0  0  0
 23 24  1  0  0  0  0
 23 28  1  1  0  0  0
 24 25  1  0  0  0  0
 25 26  1  0  0  0  0
 25 31  1  1  0  0  0
 26 27  1  6  0  0  0
 26 32  1  0  0  0  0
 27 29  1  0  0  0  0
M  CHG  5   8   1  18   1  19   1  28   1  29   1
M  END
>  <CHROM.1>
-155.94947082,112.61476743,-95.96230718,76.48443081,60.30552471,-63.39578167
-3.44144326,-49.65142094,42.24029693,67.84163138,-64.77812596,-175.68029410
65.10201007,-49.90520282,-27.28369425,-123.26944640,-3.05191790,4.41144640
2.91285410,0.36011266,0.49872436,-2.57920828

>  <Name>
1tob

>  <RI>
0

>  <Rbt.Current_Directory>
/home/itssahil/PROJECTS/Mol_Feturizer/New_Systems/rnas/1tob

>  <Rbt.Executable>
rbdock ($Id: //depot/dev/client3/rdock/2013.1/src/exe/rbdock.cxx#4 $)

>  <Rbt.Library>
libRbt.so (2013.1, Build901 2013/11/27)

>  <Rbt.Parameter_File>
/export/apps/rDock/src/rDock_2013.1_src/data/scripts/dock_solv.prm

>  <Rbt.Receptor>
prm/blind_docking_20.prm

>  <SCORE>
13.7548

>  <SCORE.INTER>
-5.15912

>  <SCORE.INTER.CONST>
1

>  <SCORE.INTER.POLAR>
-6.03948

>  <SCORE.INTER.ROT>
6

>  <SCORE.INTER.SOLV>
43.8464

>  <SCORE.INTER.VDW>
-5.52328

>  <SCORE.INTER.norm>
-0.161222

>  <SCORE.INTRA>
12.4074

>  <SCORE.INTRA.DIHEDRAL>
3.20884

>  <SCORE.INTRA.DIHEDRAL.0>
22.9177

>  <SCORE.INTRA.POLAR>
-0.278708

>  <SCORE.INTRA.POLAR.0>
-0.311208

>  <SCORE.INTRA.REPUL>
0.0251543

>  <SCORE.INTRA.REPUL.0>
0

>  <SCORE.INTRA.SOLV>
2.66136

>  <SCORE.INTRA.SOLV.lig_0>
-132.657

>  <SCORE.INTRA.VDW>
10.2941

>  <SCORE.INTRA.VDW.0>
-4.68867

>  <SCORE.INTRA.norm>
0.38773

>  <SCORE.RESTR>
6.50652

>  <SCORE.RESTR.CAVITY>
6.50652

>  <SCORE.RESTR.norm>
0.203329

>  <SCORE.SYSTEM>
0

>  <SCORE.SYSTEM.CONST>
0

>  <SCORE.SYSTEM.DIHEDRAL>
0

>  <SCORE.SYSTEM.SOLV>
0

>  <SCORE.SYSTEM.norm>
0

>  <SCORE.heavy>
32

>  <SCORE.norm>
0.429836

>  <RMSD>
4.925

$$$$
1tob
 OpenBabel11021811413D
libRbt.so/2013.1/901 2013/11/27
 32 34  0  0  0  0  0  0  0  0999 V2000
    0.4449    3.9639    4.8415 C   0  0  2  0  0  0  0  0  0  0  0  0
    1.5682    3.4245    5.7239 C   0  0  1  0  0  0  0  0  0  0  0  0
    0.9866    2.8941    7.0273 C   0  0  2  0  0  0  0  0  0  0  0  0
    0.1746    3.9926    7.7029 C   0  0  1  0  0  0  0  0  0  0  0  0
   -0.8974    4.5078    6.7465 C   0  0  1  0  0  0  0  0  0  0  0  0
   -1.6910    5.6580    7.3345 C   0  0  0  0  0  0  0  0  0  0  0  0
    2.2520    2.3810    5.0450 O   0  0  0  0  0  0  0  0  0  0  0  0
    2.0496    2.3694    7.9116 N   0  3  0  0  0  0  0  0  0  0  0  0
   -0.4289    3.4860    8.8858 O   0  0  0  0  0  0  0  0  0  0  0  0
   -0.2855    4.9872    5.5295 O   0  0  0  0  0  0  0  0  0  0  0  0
   -2.4373    6.3380    6.3351 O   0  0  0  0  0  0  0  0  0  0  0  0
   -1.5922    1.7994    2.7249 C   0  0  2  0  0  0  0  0  0  0  0  0
   -2.3691    2.0174    1.4338 C   0  0  0  0  0  0  0  0  0  0  0  0
   -3.5984    2.8894    1.6905 C   0  0  1  0  0  0  0  0  0  0  0  0
   -3.1622    4.2417    2.2499 C   0  0  2  0  0  0  0  0  0  0  0  0
   -2.3725    4.0417    3.5444 C   0  0  1  0  0  0  0  0  0  0  0  0
   -1.1616    3.1451    3.2880 C   0  0  1  0  0  0  0  0  0  0  0  0
   -0.3834    0.9835    2.4765 N   0  3  0  0  0  0  0  0  0  0  0  0
   -4.3924    3.0237    0.4416 N   0  3  0  0  0  0  0  0  0  0  0  0
   -1.9445    5.3004    4.0470 O   0  0  0  0  0  0  0  0  0  0  0  0
   -0.4323    2.9474    4.5127 O   0  0  0  0  0  0  0  0  0  0  0  0
   -4.5312    6.1018    1.5945 C   0  0  1  0  0  0  0  0  0  0  0  0
   -5.1482    7.3092    2.3027 C   0  0  1  0  0  0  0  0  0  0  0  0
   -6.5139    6.9483    2.8674 C   0  0  0  0  0  0  0  0  0  0  0  0
   -7.3899    6.4045    1.7505 C   0  0  1  0  0  0  0  0  0  0  0  0
   -6.6961    5.2187    1.0813 C   0  0  1  0  0  0  0  0  0  0  0  0
   -7.4894    4.6593   -0.0857 C   0  0  0  0  0  0  0  0  0  0  0  0
   -4.2382    7.8388    3.3457 N   0  3  0  0  0  0  0  0  0  0  0  0
   -6.8892    5.0452   -1.3852 N   0  3  0  0  0  0  0  0  0  0  0  0
   -4.3146    5.0721    2.5005 O   0  0  0  0  0  0  0  0  0  0  0  0
   -8.6464    5.9987    2.2734 O   0  0  0  0  0  0  0  0  0  0  0  0
   -5.4077    5.6212    0.5679 O   0  0  0  0  0  0  0  0  0  0  0  0
  1  2  1  0  0  0  0
  1 10  1  0  0  0  0
  1 21  1  1  0  0  0
  2  3  1  0  0  0  0
  2  7  1  6  0  0  0
  3  4  1  0  0  0  0
  3  8  1  1  0  0  0
  4  5  1  0  0  0  0
  4  9  1  1  0  0  0
  5  6  1  1  0  0  0
  5 10  1  0  0  0  0
  6 11  1  0  0  0  0
 12 13  1  0  0  0  0
 12 17  1  0  0  0  0
 12 18  1  6  0  0  0
 13 14  1  0  0  0  0
 14 15  1  0  0  0  0
 14 19  1  6  0  0  0
 15 16  1  0  0  0  0
 15 30  1  1  0  0  0
 16 17  1  0  0  0  0
 16 20  1  6  0  0  0
 17 21  1  1  0  0  0
 22 23  1  0  0  0  0
 22 30  1  1  0  0  0
 22 32  1  0  0  0  0
 23 24  1  0  0  0  0
 23 28  1  1  0  0  0
 24 25  1  0  0  0  0
 25 26  1  0  0  0  0
 25 31  1  1  0  0  0
 26 27  1  6  0  0  0
 26 32  1  0  0  0  0
 27 29  1  0  0  0  0
M  CHG  5   8   1  18   1  19   1  28   1  29   1
M  END
>  <CHROM.1>
-154.45031284,173.78114152,-178.54320156,71.11499897,165.23565496,107.08187354
63.88447391,177.75678946,-105.24056160,-56.02818100,155.40812555,-146.77334042
-173.00050975,-0.25722391,105.15917146,-70.33352246,-2.70474144,4.39363585
3.64701702,-0.34467837,0.62163371,-2.19594628

>  <Name>
1tob

>  <RI>
0

>  <Rbt.Current_Directory>
/home/itssahil/PROJECTS/Mol_Feturizer/New_Systems/rnas/1tob

>  <Rbt.Executable>
rbdock ($Id: //depot/dev/client3/rdock/2013.1/src/exe/rbdock.cxx#4 $)

>  <Rbt.Library>
libRbt.so (2013.1, Build901 2013/11/27)

>  <Rbt.Parameter_File>
/export/apps/rDock/src/rDock_2013.1_src/data/scripts/dock_solv.prm

>  <Rbt.Receptor>
prm/blind_docking_100.prm

>  <SCORE>
-1.33549

>  <SCORE.INTER>
-30.3727

>  <SCORE.INTER.CONST>
1

>  <SCORE.INTER.POLAR>
-4.86669

>  <SCORE.INTER.ROT>
6

>  <SCORE.INTER.SOLV>
27.7075

>  <SCORE.INTER.VDW>
-20.862

>  <SCORE.INTER.norm>
-0.949146

>  <SCORE.INTRA>
13.575

>  <SCORE.INTRA.DIHEDRAL>
13.0719

>  <SCORE.INTRA.DIHEDRAL.0>
22.9177

>  <SCORE.INTRA.POLAR>
0.113819

>  <SCORE.INTRA.POLAR.0>
-0.311208

>  <SCORE.INTRA.REPUL>
0

>  <SCORE.INTRA.REPUL.0>
0

>  <SCORE.INTRA.SOLV>
3.01054

>  <SCORE.INTRA.SOLV.lig_0>
-132.657

>  <SCORE.INTRA.VDW>
5.14679

>  <SCORE.INTRA.VDW.0>
-4.68867

>  <SCORE.INTRA.norm>
0.424219

>  <SCORE.RESTR>
15.4622

>  <SCORE.RESTR.CAVITY>
15.4622

>  <SCORE.RESTR.norm>
0.483193

>  <SCORE.SYSTEM>
0

>  <SCORE.SYSTEM.CONST>
0

>  <SCORE.SYSTEM.DIHEDRAL>
0

>  <SCORE.SYSTEM.SOLV>
0

>  <SCORE.SYSTEM.norm>
0

>  <SCORE.heavy>
32

>  <SCORE.norm>
-0.0417342

>  <RMSD>
4.934

$$$$
1tob
 OpenBabel11021811413D
libRbt.so/2013.1/901 2013/11/27
 32 34  0  0  0  0  0  0  0  0999 V2000
   -1.1661    3.2632    5.0774 C   0  0  2  0  0  0  0  0  0  0  0  0
    0.3123    3.3926    5.4363 C   0  0  1  0  0  0  0  0  0  0  0  0
    1.1661    3.0637    4.2193 C   0  0  2  0  0  0  0  0  0  0  0  0
    0.7984    1.6777    3.7030 C   0  0  1  0  0  0  0  0  0  0  0  0
   -0.6975    1.6148    3.4072 C   0  0  1  0  0  0  0  0  0  0  0  0
   -1.1402    0.2349    2.9619 C   0  0  0  0  0  0  0  0  0  0  0  0
    0.5862    4.7173    5.8695 O   0  0  0  0  0  0  0  0  0  0  0  0
    2.6073    3.1718    4.5334 N   0  3  0  0  0  0  0  0  0  0  0  0
    1.5417    1.3902    2.5262 O   0  0  0  0  0  0  0  0  0  0  0  0
   -1.4509    1.9443    4.5941 O   0  0  0  0  0  0  0  0  0  0  0  0
   -2.4357   -0.0783    3.4536 O   0  0  0  0  0  0  0  0  0  0  0  0
   -2.6608    6.1556    4.8432 C   0  0  2  0  0  0  0  0  0  0  0  0
   -4.0394    6.7875    4.9780 C   0  0  0  0  0  0  0  0  0  0  0  0
   -4.7145    6.8942    3.6103 C   0  0  1  0  0  0  0  0  0  0  0  0
   -4.8561    5.5032    2.9966 C   0  0  2  0  0  0  0  0  0  0  0  0
   -3.4802    4.8492    2.8608 C   0  0  1  0  0  0  0  0  0  0  0  0
   -2.7980    4.7722    4.2262 C   0  0  1  0  0  0  0  0  0  0  0  0
   -2.0161    6.0196    6.1677 N   0  3  0  0  0  0  0  0  0  0  0  0
   -6.0213    7.5887    3.7446 N   0  3  0  0  0  0  0  0  0  0  0  0
   -3.6188    3.5441    2.3152 O   0  0  0  0  0  0  0  0  0  0  0  0
   -1.4976    4.1712    4.0893 O   0  0  0  0  0  0  0  0  0  0  0  0
   -6.4524    4.6306    1.4300 C   0  0  1  0  0  0  0  0  0  0  0  0
   -6.2260    4.0332    0.0401 C   0  0  1  0  0  0  0  0  0  0  0  0
   -6.3836    5.1058   -1.0271 C   0  0  0  0  0  0  0  0  0  0  0  0
   -7.7461    5.7632   -0.8791 C   0  0  1  0  0  0  0  0  0  0  0  0
   -7.9024    6.3135    0.5381 C   0  0  1  0  0  0  0  0  0  0  0  0
   -9.2666    6.9348    0.7771 C   0  0  0  0  0  0  0  0  0  0  0  0
   -4.9099    3.3569   -0.0423 N   0  3  0  0  0  0  0  0  0  0  0  0
   -9.2732    8.3778    0.4371 N   0  3  0  0  0  0  0  0  0  0  0  0
   -5.4881    5.5916    1.7030 O   0  0  0  0  0  0  0  0  0  0  0  0
   -7.8831    6.8139   -1.8247 O   0  0  0  0  0  0  0  0  0  0  0  0
   -7.7413    5.2524    1.5042 O   0  0  0  0  0  0  0  0  0  0  0  0
  1  2  1  0  0  0  0
  1 10  1  0  0  0  0
  1 21  1  6  0  0  0
  2  3  1  0  0  0  0
  2  7  1  6  0  0  0
  3  4  1  0  0  0  0
  3  8  1  1  0  0  0
  4  5  1  0  0  0  0
  4  9  1  6  0  0  0
  5  6  1  1  0  0  0
  5 10  1  0  0  0  0
  6 11  1  0  0  0  0
 12 13  1  0  0  0  0
 12 17  1  0  0  0  0
 12 18  1  1  0  0  0
 13 14  1  0  0  0  0
 14 15  1  0  0  0  0
 14 19  1  1  0  0  0
 15 16  1  0  0  0  0
 15 30  1  6  0  0  0
 16 17  1  0  0  0  0
 16 20  1  1  0  0  0
 17 21  1  6  0  0  0
 22 23  1  0  0  0  0
 22 30  1  6  0  0  0
 22 32  1  0  0  0  0
 23 24  1  0  0  0  0
 23 28  1  1  0  0  0
 24 25  1  0  0  0  0
 25 26  1  0  0  0  0
 25 31  1  6  0  0  0
 26 27  1  6  0  0  0
 26 32  1  0  0  0  0
 27 29  1  0  0  0  0
M  CHG  5   8   1  18   1  19   1  28   1  29   1
M  END
>  <CHROM.1>
-142.11869663,173.81118307,-175.53400466,75.77703062,144.04029169,-141.82783227
-85.26280164,-162.12508975,-137.56402244,-58.36007639,99.67305267,-132.92954814
108.57644353,168.35612430,-89.80791244,50.78032242,-3.57276144,4.46237431
2.75853828,-0.02995233,-0.60345064,0.70681727

>  <Name>
1tob

>  <RI>
0

>  <Rbt.Current_Directory>
/home/itssahil/PROJECTS/Mol_Feturizer/New_Systems/rnas/1tob

>  <Rbt.Executable>
rbdock ($Id: //depot/dev/client3/rdock/2013.1/src/exe/rbdock.cxx#4 $)

>  <Rbt.Library>
libRbt.so (2013.1, Build901 2013/11/27)

>  <Rbt.Parameter_File>
/export/apps/rDock/src/rDock_2013.1_src/data/scripts/dock_solv.prm

>  <Rbt.Receptor>
prm/blind_docking_100.prm

>  <SCORE>
-16.6045

>  <SCORE.INTER>
-34.4403

>  <SCORE.INTER.CONST>
1

>  <SCORE.INTER.POLAR>
-6.33709

>  <SCORE.INTER.ROT>
6

>  <SCORE.INTER.SOLV>
30.8666

>  <SCORE.INTER.VDW>
-19.7254

>  <SCORE.INTER.norm>
-1.07626

>  <SCORE.INTRA>
5.03494

>  <SCORE.INTRA.DIHEDRAL>
18.2402

>  <SCORE.INTRA.DIHEDRAL.0>
22.9177

>  <SCORE.INTRA.POLAR>
-2.02719

>  <SCORE.INTRA.POLAR.0>
-0.311208

>  <SCORE.INTRA.REPUL>
0

>  <SCORE.INTRA.REPUL.0>
0

>  <SCORE.INTRA.SOLV>
1.42857

>  <SCORE.INTRA.SOLV.lig_0>
-132.657

>  <SCORE.INTRA.VDW>
2.093

>  <SCORE.INTRA.VDW.0>
-4.68867

>  <SCORE.INTRA.norm>
0.157342

>  <SCORE.RESTR>
12.8008

>  <SCORE.RESTR.CAVITY>
12.8008

>  <SCORE.RESTR.norm>
0.400026

>  <SCORE.SYSTEM>
0

>  <SCORE.SYSTEM.CONST>
0

>  <SCORE.SYSTEM.DIHEDRAL>
0

>  <SCORE.SYSTEM.SOLV>
0

>  <SCORE.SYSTEM.norm>
0

>  <SCORE.heavy>
32

>  <SCORE.norm>
-0.51889

>  <RMSD>
4.949

$$$$
1tob
 OpenBabel11021811413D
libRbt.so/2013.1/901 2013/11/27
 32 34  0  0  0  0  0  0  0  0999 V2000
   -0.3517    3.5851    4.1661 C   0  0  2  0  0  0  0  0  0  0  0  0
   -1.0117    4.0372    2.8657 C   0  0  1  0  0  0  0  0  0  0  0  0
   -1.7134    2.8562    2.2092 C   0  0  2  0  0  0  0  0  0  0  0  0
   -0.7146    1.7231    2.0067 C   0  0  1  0  0  0  0  0  0  0  0  0
   -0.0685    1.3571    3.3401 C   0  0  1  0  0  0  0  0  0  0  0  0
    0.9936    0.2854    3.1920 C   0  0  0  0  0  0  0  0  0  0  0  0
   -1.9552    5.0634    3.1385 O   0  0  0  0  0  0  0  0  0  0  0  0
   -2.3590    3.2569    0.9404 N   0  3  0  0  0  0  0  0  0  0  0  0
   -1.3761    0.5914    1.4575 O   0  0  0  0  0  0  0  0  0  0  0  0
    0.5707    2.5173    3.9151 O   0  0  0  0  0  0  0  0  0  0  0  0
    2.2875    0.8535    3.0469 O   0  0  0  0  0  0  0  0  0  0  0  0
   -1.6013    5.3368    6.0165 C   0  0  2  0  0  0  0  0  0  0  0  0
   -2.6481    6.3695    6.4114 C   0  0  0  0  0  0  0  0  0  0  0  0
   -3.4851    6.7731    5.1973 C   0  0  1  0  0  0  0  0  0  0  0  0
   -4.1835    5.5431    4.6219 C   0  0  2  0  0  0  0  0  0  0  0  0
   -3.1467    4.4904    4.2266 C   0  0  1  0  0  0  0  0  0  0  0  0
   -2.2936    4.1127    5.4371 C   0  0  1  0  0  0  0  0  0  0  0  0
   -0.8097    4.9179    7.1939 N   0  3  0  0  0  0  0  0  0  0  0  0
   -4.4448    7.8419    5.5780 N   0  3  0  0  0  0  0  0  0  0  0  0
   -3.8017    3.3364    3.7176 O   0  0  0  0  0  0  0  0  0  0  0  0
   -1.3097    3.1346    5.0550 O   0  0  0  0  0  0  0  0  0  0  0  0
   -4.3238    5.8594    2.2462 C   0  0  1  0  0  0  0  0  0  0  0  0
   -4.2809    7.2503    1.6109 C   0  0  1  0  0  0  0  0  0  0  0  0
   -5.6913    7.7420    1.3223 C   0  0  0  0  0  0  0  0  0  0  0  0
   -6.4120    6.7184    0.4602 C   0  0  1  0  0  0  0  0  0  0  0  0
   -6.3923    5.3557    1.1518 C   0  0  1  0  0  0  0  0  0  0  0  0
   -7.0453    4.2676    0.3189 C   0  0  0  0  0  0  0  0  0  0  0  0
   -3.5238    8.2013    2.4587 N   0  3  0  0  0  0  0  0  0  0  0  0
   -6.1063    3.7165   -0.6872 N   0  3  0  0  0  0  0  0  0  0  0  0
   -4.9733    5.9109    3.4724 O   0  0  0  0  0  0  0  0  0  0  0  0
   -7.7531    7.1295    0.2378 O   0  0  0  0  0  0  0  0  0  0  0  0
   -5.0307    4.9439    1.4004 O   0  0  0  0  0  0  0  0  0  0  0  0
  1  2  1  0  0  0  0
  1 10  1  0  0  0  0
  1 21  1  1  0  0  0
  2  3  1  0  0  0  0
  2  7  1  1  0  0  0
  3  4  1  0  0  0  0
  3  8  1  6  0  0  0
  4  5  1  0  0  0  0
  4  9  1  1  0  0  0
  5  6  1  6  0  0  0
  5 10  1  0  0  0  0
  6 11  1  0  0  0  0
 12 13  1  0  0  0  0
 12 17  1  0  0  0  0
 12 18  1  1  0  0  0
 13 14  1  0  0  0  0
 14 15  1  0  0  0  0
 14 19  1  1  0  0  0
 15 16  1  0  0  0  0
 15 30  1  6  0  0  0
 16 17  1  0  0  0  0
 16 20  1  1  0  0  0
 17 21  1  6  0  0  0
 22 23  1  0  0  0  0
 22 30  1  1  0  0  0
 22 32  1  0  0  0  0
 23 24  1  0  0  0  0
 23 28  1  1  0  0  0
 24 25  1  0  0  0  0
 25 26  1  0  0  0  0
 25 31  1  1  0  0  0
 26 27  1  6  0  0  0
 26 32  1  0  0  0  0
 27 29  1  0  0  0  0
M  CHG  5   8   1  18   1  19   1  28   1  29   1
M  END
>  <CHROM.1>
-60.68081410,74.27772369,-74.31272370,-53.31001404,94.09046223,56.82296888
-173.85403195,-38.93234976,89.82536598,65.04154713,-56.13869622,-117.99182759
52.26112550,177.90625871,82.73516989,90.45034811,-2.96838236,4.52504671,3.03321728
-0.13379529,-0.67242337,0.86869169

>  <Name>
1tob

>  <RI>
0

>  <Rbt.Current_Directory>
/home/itssahil/PROJECTS/Mol_Feturizer/New_Systems/rnas/1tob

>  <Rbt.Executable>
rbdock ($Id: //depot/dev/client3/rdock/2013.1/src/exe/rbdock.cxx#4 $)

>  <Rbt.Library>
libRbt.so (2013.1, Build901 2013/11/27)

>  <Rbt.Parameter_File>
/export/apps/rDock/src/rDock_2013.1_src/data/scripts/dock_solv.prm

>  <Rbt.Receptor>
prm/blind_docking_100.prm

>  <SCORE>
17.4091

>  <SCORE.INTER>
-16.0355

>  <SCORE.INTER.CONST>
1

>  <SCORE.INTER.POLAR>
-6.55278

>  <SCORE.INTER.ROT>
6

>  <SCORE.INTER.SOLV>
34.7451

>  <SCORE.INTER.VDW>
-8.02945

>  <SCORE.INTER.norm>
-0.50111

>  <SCORE.INTRA>
25.4822

>  <SCORE.INTRA.DIHEDRAL>
-2.14102

>  <SCORE.INTRA.DIHEDRAL.0>
22.9177

>  <SCORE.INTRA.POLAR>
-1.75798

>  <SCORE.INTRA.POLAR.0>
-0.311208

>  <SCORE.INTRA.REPUL>
0

>  <SCORE.INTRA.REPUL.0>
0

>  <SCORE.INTRA.SOLV>
8.55492

>  <SCORE.INTRA.SOLV.lig_0>
-132.657

>  <SCORE.INTRA.VDW>
28.2524

>  <SCORE.INTRA.VDW.0>
-4.68867

>  <SCORE.INTRA.norm>
0.796318

>  <SCORE.RESTR>
7.96246

>  <SCORE.RESTR.CAVITY>
7.96246

>  <SCORE.RESTR.norm>
0.248827

>  <SCORE.SYSTEM>
0

>  <SCORE.SYSTEM.CONST>
0

>  <SCORE.SYSTEM.DIHEDRAL>
0

>  <SCORE.SYSTEM.SOLV>
0

>  <SCORE.SYSTEM.norm>
0

>  <SCORE.heavy>
32

>  <SCORE.norm>
0.544035

>  <RMSD>
4.950

$$$$
1tob
 OpenBabel11021811413D
libRbt.so/2013.1/901 2013/11/27
 32 34  0  0  0  0  0  0  0  0999 V2000
    0.5571    4.3927    4.7365 C   0  0  2  0  0  0  0  0  0  0  0  0
    1.8926    3.9926    5.3589 C   0  0  1  0  0  0  0  0  0  0  0  0
    1.6464    3.1934    6.6312 C   0  0  2  0  0  0  0  0  0  0  0  0
    0.7688    4.0049    7.5766 C   0  0  1  0  0  0  0  0  0  0  0  0
   -0.5250    4.4016    6.8708 C   0  0  1  0  0  0  0  0  0  0  0  0
   -1.4091    5.2782    7.7359 C   0  0  0  0  0  0  0  0  0  0  0  0
    2.6354    3.2081    4.4368 O   0  0  0  0  0  0  0  0  0  0  0  0
    2.9212    2.7947    7.2663 N   0  3  0  0  0  0  0  0  0  0  0  0
    0.4768    3.2393    8.7379 O   0  0  0  0  0  0  0  0  0  0  0  0
   -0.2255    5.1468    5.6708 O   0  0  0  0  0  0  0  0  0  0  0  0
   -2.3750    5.9700    6.9572 O   0  0  0  0  0  0  0  0  0  0  0  0
   -1.3623    2.0341    2.6769 C   0  0  2  0  0  0  0  0  0  0  0  0
   -2.2235    2.1935    1.4315 C   0  0  0  0  0  0  0  0  0  0  0  0
   -3.4775    3.0083    1.7496 C   0  0  1  0  0  0  0  0  0  0  0  0
   -3.0770    4.3889    2.2648 C   0  0  2  0  0  0  0  0  0  0  0  0
   -2.2037    4.2481    3.5126 C   0  0  1  0  0  0  0  0  0  0  0  0
   -0.9669    3.4079    3.1962 C   0  0  1  0  0  0  0  0  0  0  0  0
   -0.1311    1.2745    2.3676 N   0  3  0  0  0  0  0  0  0  0  0  0
   -4.3491    3.0840    0.5485 N   0  3  0  0  0  0  0  0  0  0  0  0
   -1.8101    5.5339    3.9727 O   0  0  0  0  0  0  0  0  0  0  0  0
   -0.1580    3.2654    4.3778 O   0  0  0  0  0  0  0  0  0  0  0  0
   -4.5664    6.1768    1.6743 C   0  0  1  0  0  0  0  0  0  0  0  0
   -5.4342    7.2380    2.3531 C   0  0  1  0  0  0  0  0  0  0  0  0
   -6.7602    6.6341    2.7905 C   0  0  0  0  0  0  0  0  0  0  0  0
   -7.4382    5.9923    1.5910 C   0  0  1  0  0  0  0  0  0  0  0  0
   -6.5018    4.9637    0.9580 C   0  0  1  0  0  0  0  0  0  0  0  0
   -7.0919    4.3221   -0.2846 C   0  0  0  0  0  0  0  0  0  0  0  0
   -4.7145    7.8741    3.4817 N   0  3  0  0  0  0  0  0  0  0  0  0
   -6.9254    5.1898   -1.4751 N   0  3  0  0  0  0  0  0  0  0  0  0
   -4.2526    5.1658    2.5729 O   0  0  0  0  0  0  0  0  0  0  0  0
   -8.6460    5.3639    1.9952 O   0  0  0  0  0  0  0  0  0  0  0  0
   -5.2630    5.5939    0.5660 O   0  0  0  0  0  0  0  0  0  0  0  0
  1  2  1  0  0  0  0
  1 10  1  0  0  0  0
  1 21  1  1  0  0  0
  2  3  1  0  0  0  0
  2  7  1  6  0  0  0
  3  4  1  0  0  0  0
  3  8  1  1  0  0  0
  4  5  1  0  0  0  0
  4  9  1  1  0  0  0
  5  6  1  1  0  0  0
  5 10  1  0  0  0  0
  6 11  1  0  0  0  0
 12 13  1  0  0  0  0
 12 17  1  0  0  0  0
 12 18  1  6  0  0  0
 13 14  1  0  0  0  0
 14 15  1  0  0  0  0
 14 19  1  6  0  0  0
 15 16  1  0  0  0  0
 15 30  1  1  0  0  0
 16 17  1  0  0  0  0
 16 20  1  6  0  0  0
 17 21  1  1  0  0  0
 22 23  1  0  0  0  0
 22 30  1  1  0  0  0
 22 32  1  0  0  0  0
 23 24  1  0  0  0  0
 23 28  1  1  0  0  0
 24 25  1  0  0  0  0
 25 26  1  0  0  0  0
 25 31  1  1  0  0  0
 26 27  1  6  0  0  0
 26 32  1  0  0  0  0
 27 29  1  0  0  0  0
M  CHG  5   8   1  18   1  19   1  28   1  29   1
M  END
>  <CHROM.1>
-146.17168099,175.47222716,63.06650458,70.38249498,161.73056737,-66.39047263
172.37690185,10.19363981,-105.77554818,54.27438196,163.29826866,-157.49743512
-65.49600093,169.95091608,81.04369708,174.88180039,-2.51910550,4.45881669
3.57872197,-0.39004113,0.53533607,-2.13857215

>  <Name>
1tob

>  <RI>
0

>  <Rbt.Current_Directory>
/home/itssahil/PROJECTS/Mol_Feturizer/New_Systems/rnas/1tob

>  <Rbt.Executable>
rbdock ($Id: //depot/dev/client3/rdock/2013.1/src/exe/rbdock.cxx#4 $)

>  <Rbt.Library>
libRbt.so (2013.1, Build901 2013/11/27)

>  <Rbt.Parameter_File>
/export/apps/rDock/src/rDock_2013.1_src/data/scripts/dock_solv.prm

>  <Rbt.Receptor>
prm/blind_docking_80.prm

>  <SCORE>
-28.6426

>  <SCORE.INTER>
-40.2097

>  <SCORE.INTER.CONST>
1

>  <SCORE.INTER.POLAR>
-6.41444

>  <SCORE.INTER.ROT>
6

>  <SCORE.INTER.SOLV>
28.077

>  <SCORE.INTER.VDW>
-22.384

>  <SCORE.INTER.norm>
-1.25655

>  <SCORE.INTRA>
2.17289

>  <SCORE.INTRA.DIHEDRAL>
-1.12928

>  <SCORE.INTRA.DIHEDRAL.0>
22.9177

>  <SCORE.INTRA.POLAR>
-0.361745

>  <SCORE.INTRA.POLAR.0>
-0.311208

>  <SCORE.INTRA.REPUL>
0

>  <SCORE.INTRA.REPUL.0>
0

>  <SCORE.INTRA.SOLV>
2.35665

>  <SCORE.INTRA.SOLV.lig_0>
-132.657

>  <SCORE.INTRA.VDW>
2.78915

>  <SCORE.INTRA.VDW.0>
-4.68867

>  <SCORE.INTRA.norm>
0.0679029

>  <SCORE.RESTR>
9.39424

>  <SCORE.RESTR.CAVITY>
9.39424

>  <SCORE.RESTR.norm>
0.29357

>  <SCORE.SYSTEM>
0

>  <SCORE.SYSTEM.CONST>
0

>  <SCORE.SYSTEM.DIHEDRAL>
0

>  <SCORE.SYSTEM.SOLV>
0

>  <SCORE.SYSTEM.norm>
0

>  <SCORE.heavy>
32

>  <SCORE.norm>
-0.895081

>  <RMSD>
4.968

$$$$
1tob
 OpenBabel11021811413D
libRbt.so/2013.1/901 2013/11/27
 32 34  0  0  0  0  0  0  0  0999 V2000
    0.8050    3.6254    5.4615 C   0  0  2  0  0  0  0  0  0  0  0  0
    1.9985    2.6785    5.5623 C   0  0  1  0  0  0  0  0  0  0  0  0
    1.8357    1.7758    6.7776 C   0  0  2  0  0  0  0  0  0  0  0  0
    1.6498    2.6335    8.0235 C   0  0  1  0  0  0  0  0  0  0  0  0
    0.4679    3.5795    7.8302 C   0  0  1  0  0  0  0  0  0  0  0  0
    0.2788    4.5151    9.0081 C   0  0  0  0  0  0  0  0  0  0  0  0
    2.0832    1.8871    4.3858 O   0  0  0  0  0  0  0  0  0  0  0  0
    2.9800    0.8484    6.9108 N   0  3  0  0  0  0  0  0  0  0  0  0
    1.4283    1.7994    9.1528 O   0  0  0  0  0  0  0  0  0  0  0  0
    0.6772    4.4001    6.6605 O   0  0  0  0  0  0  0  0  0  0  0  0
   -0.8114    5.4011    8.7973 O   0  0  0  0  0  0  0  0  0  0  0  0
   -1.6708    1.8430    3.5444 C   0  0  2  0  0  0  0  0  0  0  0  0
   -2.3835    2.0963    2.2230 C   0  0  0  0  0  0  0  0  0  0  0  0
   -3.4546    3.1741    2.3917 C   0  0  1  0  0  0  0  0  0  0  0  0
   -2.8079    4.4715    2.8716 C   0  0  2  0  0  0  0  0  0  0  0  0
   -2.0797    4.2340    4.1955 C   0  0  1  0  0  0  0  0  0  0  0  0
   -1.0308    3.1351    4.0283 C   0  0  1  0  0  0  0  0  0  0  0  0
   -0.6107    0.8243    3.3799 N   0  3  0  0  0  0  0  0  0  0  0  0
   -4.1986    3.3509    1.1176 N   0  3  0  0  0  0  0  0  0  0  0  0
   -1.4558    5.4368    4.6247 O   0  0  0  0  0  0  0  0  0  0  0  0
   -0.3608    2.9049    5.2809 O   0  0  0  0  0  0  0  0  0  0  0  0
   -3.8265    6.4940    2.0741 C   0  0  1  0  0  0  0  0  0  0  0  0
   -4.3342    7.8048    2.6775 C   0  0  1  0  0  0  0  0  0  0  0  0
   -5.7724    7.6468    3.1475 C   0  0  0  0  0  0  0  0  0  0  0  0
   -6.6268    7.1569    1.9897 C   0  0  1  0  0  0  0  0  0  0  0  0
   -6.0431    5.8600    1.4302 C   0  0  1  0  0  0  0  0  0  0  0  0
   -6.8141    5.3418    0.2297 C   0  0  0  0  0  0  0  0  0  0  0  0
   -3.4427    8.2724    3.7651 N   0  3  0  0  0  0  0  0  0  0  0  0
   -6.5847    6.1845   -0.9681 N   0  3  0  0  0  0  0  0  0  0  0  0
   -3.8100    5.4954    3.0388 O   0  0  0  0  0  0  0  0  0  0  0  0
   -7.9597    6.9387    2.4286 O   0  0  0  0  0  0  0  0  0  0  0  0
   -4.6799    6.0716    1.0034 O   0  0  0  0  0  0  0  0  0  0  0  0
  1  2  1  0  0  0  0
  1 10  1  0  0  0  0
  1 21  1  1  0  0  0
  2  3  1  0  0  0  0
  2  7  1  6  0  0  0
  3  4  1  0  0  0  0
  3  8  1  1  0  0  0
  4  5  1  0  0  0  0
  4  9  1  1  0  0  0
  5  6  1  1  0  0  0
  5 10  1  0  0  0  0
  6 11  1  0  0  0  0
 12 13  1  0  0  0  0
 12 17  1  0  0  0  0
 12 18  1  6  0  0  0
 13 14  1  0  0  0  0
 14 15  1  0  0  0  0
 14 19  1  6  0  0  0
 15 16  1  0  0  0  0
 15 30  1  1  0  0  0
 16 17  1  0  0  0  0
 16 20  1  6  0  0  0
 17 21  1  1  0  0  0
 22 23  1  0  0  0  0
 22 30  1  1  0  0  0
 22 32  1  0  0  0  0
 23 24  1  0  0  0  0
 23 28  1  1  0  0  0
 24 25  1  0  0  0  0
 25 26  1  0  0  0  0
 25 31  1  1  0  0  0
 26 27  1  6  0  0  0
 26 32  1  0  0  0  0
 27 29  1  0  0  0  0
M  CHG  5   8   1  18   1  19   1  28   1  29   1
M  END
>  <CHROM.1>
-116.14387060,68.97459538,-178.50240854,-171.00784242,179.00228881,67.47371475
-94.08909780,-124.47735922,-106.26799474,178.17677182,144.74972285,-150.34799522
66.73809478,-42.57766470,71.76311038,-171.52979868,-2.07076850,4.30514510
4.16818844,-0.18024710,0.74010563,-2.28380671

>  <Name>
1tob

>  <RI>
0

>  <Rbt.Current_Directory>
/home/itssahil/PROJECTS/Mol_Feturizer/New_Systems/rnas/1tob

>  <Rbt.Executable>
rbdock ($Id: //depot/dev/client3/rdock/2013.1/src/exe/rbdock.cxx#4 $)

>  <Rbt.Library>
libRbt.so (2013.1, Build901 2013/11/27)

>  <Rbt.Parameter_File>
/export/apps/rDock/src/rDock_2013.1_src/data/scripts/dock_solv.prm

>  <Rbt.Receptor>
prm/pocket_docking_8.prm

>  <SCORE>
-53.6036

>  <SCORE.INTER>
-50.5631

>  <SCORE.INTER.CONST>
1

>  <SCORE.INTER.POLAR>
-6.79506

>  <SCORE.INTER.ROT>
6

>  <SCORE.INTER.SOLV>
21.1849

>  <SCORE.INTER.VDW>
-25.7201

>  <SCORE.INTER.norm>
-1.5801

>  <SCORE.INTRA>
-3.04057

>  <SCORE.INTRA.DIHEDRAL>
7.46483

>  <SCORE.INTRA.DIHEDRAL.0>
22.9177

>  <SCORE.INTRA.POLAR>
-2.44094

>  <SCORE.INTRA.POLAR.0>
-0.311208

>  <SCORE.INTRA.REPUL>
0

>  <SCORE.INTRA.REPUL.0>
0

>  <SCORE.INTRA.SOLV>
0.409906

>  <SCORE.INTRA.SOLV.lig_0>
-132.657

>  <SCORE.INTRA.VDW>
1.32125

>  <SCORE.INTRA.VDW.0>
-4.68867

>  <SCORE.INTRA.norm>
-0.0950179

>  <SCORE.RESTR>
0

>  <SCORE.RESTR.CAVITY>
0

>  <SCORE.RESTR.norm>
0

>  <SCORE.SYSTEM>
0

>  <SCORE.SYSTEM.CONST>
0

>  <SCORE.SYSTEM.DIHEDRAL>
0

>  <SCORE.SYSTEM.SOLV>
0

>  <SCORE.SYSTEM.norm>
0

>  <SCORE.heavy>
32

>  <SCORE.norm>
-1.67511

>  <RMSD>
4.968

$$$$
1tob
 OpenBabel11021811413D
libRbt.so/2013.1/901 2013/11/27
 32 34  0  0  0  0  0  0  0  0999 V2000
   -0.9126    3.1979    5.1259 C   0  0  2  0  0  0  0  0  0  0  0  0
    0.5450    3.4699    5.4901 C   0  0  1  0  0  0  0  0  0  0  0  0
    1.4322    3.2140    4.2795 C   0  0  2  0  0  0  0  0  0  0  0  0
    1.2003    1.7955    3.7731 C   0  0  1  0  0  0  0  0  0  0  0  0
   -0.2814    1.5885    3.4714 C   0  0  1  0  0  0  0  0  0  0  0  0
   -0.5889    0.1693    3.0357 C   0  0  0  0  0  0  0  0  0  0  0  0
    0.6898    4.8180    5.9135 O   0  0  0  0  0  0  0  0  0  0  0  0
    2.8551    3.4610    4.5988 N   0  3  0  0  0  0  0  0  0  0  0  0
    1.9734    1.5706    2.6019 O   0  0  0  0  0  0  0  0  0  0  0  0
   -1.0686    1.8542    4.6524 O   0  0  0  0  0  0  0  0  0  0  0  0
   -1.9876   -0.0789    3.0254 O   0  0  0  0  0  0  0  0  0  0  0  0
   -2.4598    6.0098    5.0107 C   0  0  2  0  0  0  0  0  0  0  0  0
   -3.8326    6.6349    5.2177 C   0  0  0  0  0  0  0  0  0  0  0  0
   -4.5495    6.8057    3.8781 C   0  0  1  0  0  0  0  0  0  0  0  0
   -4.7124    5.4450    3.2046 C   0  0  2  0  0  0  0  0  0  0  0  0
   -3.3425    4.7978    2.9957 C   0  0  1  0  0  0  0  0  0  0  0  0
   -2.6184    4.6568    4.3342 C   0  0  1  0  0  0  0  0  0  0  0  0
   -1.7747    5.8116    6.3068 N   0  3  0  0  0  0  0  0  0  0  0  0
   -5.8504    7.4934    4.0853 N   0  3  0  0  0  0  0  0  0  0  0  0
   -3.5000    3.5198    2.3941 O   0  0  0  0  0  0  0  0  0  0  0  0
   -1.3239    4.0626    4.1289 O   0  0  0  0  0  0  0  0  0  0  0  0
   -6.3463    4.6374    1.6418 C   0  0  1  0  0  0  0  0  0  0  0  0
   -6.1321    4.0888    0.2300 C   0  0  1  0  0  0  0  0  0  0  0  0
   -6.3072    5.1961   -0.7983 C   0  0  0  0  0  0  0  0  0  0  0  0
   -7.6714    5.8404   -0.6132 C   0  0  1  0  0  0  0  0  0  0  0  0
   -7.8149    6.3414    0.8235 C   0  0  1  0  0  0  0  0  0  0  0  0
   -9.1796    6.9465    1.0984 C   0  0  0  0  0  0  0  0  0  0  0  0
   -4.8134    3.4231    0.1103 N   0  3  0  0  0  0  0  0  0  0  0  0
   -9.2126    8.3890    0.7579 N   0  3  0  0  0  0  0  0  0  0  0  0
   -5.3840    5.5940    1.9368 O   0  0  0  0  0  0  0  0  0  0  0  0
   -7.8244    6.9218   -1.5210 O   0  0  0  0  0  0  0  0  0  0  0  0
   -7.6375    5.2490    1.7512 O   0  0  0  0  0  0  0  0  0  0  0  0
  1  2  1  0  0  0  0
  1 10  1  0  0  0  0
  1 21  1  6  0  0  0
  2  3  1  0  0  0  0
  2  7  1  6  0  0  0
  3  4  1  0  0  0  0
  3  8  1  1  0  0  0
  4  5  1  0  0  0  0
  4  9  1  6  0  0  0
  5  6  1  1  0  0  0
  5 10  1  0  0  0  0
  6 11  1  0  0  0  0
 12 13  1  0  0  0  0
 12 17  1  0  0  0  0
 12 18  1  1  0  0  0
 13 14  1  0  0  0  0
 14 15  1  0  0  0  0
 14 19  1  1  0  0  0
 15 16  1  0  0  0  0
 15 30  1  6  0  0  0
 16 17  1  0  0  0  0
 16 20  1  1  0  0  0
 17 21  1  6  0  0  0
 22 23  1  0  0  0  0
 22 30  1  6  0  0  0
 22 32  1  0  0  0  0
 23 24  1  0  0  0  0
 23 28  1  1  0  0  0
 24 25  1  0  0  0  0
 25 26  1  0  0  0  0
 25 31  1  6  0  0  0
 26 27  1  6  0  0  0
 26 32  1  0  0  0  0
 27 29  1  0  0  0  0
M  CHG  5   8   1  18   1  19   1  28   1  29   1
M  END
>  <CHROM.1>
-135.37542203,175.69246088,-54.27266031,68.75725269,167.98627546,-150.12390780
-132.75203401,178.08202860,-138.33726956,-172.36702794,94.17325198,-131.36013309
102.10407863,163.32883690,-87.59850886,-162.19227653,-3.36921168,4.46728125
2.90034216,-0.02664959,-0.57335982,0.74266982

>  <Name>
1tob

>  <RI>
0

>  <Rbt.Current_Directory>
/home/itssahil/PROJECTS/Mol_Feturizer/New_Systems/rnas/1tob

>  <Rbt.Executable>
rbdock ($Id: //depot/dev/client3/rdock/2013.1/src/exe/rbdock.cxx#4 $)

>  <Rbt.Library>
libRbt.so (2013.1, Build901 2013/11/27)

>  <Rbt.Parameter_File>
/export/apps/rDock/src/rDock_2013.1_src/data/scripts/dock_solv.prm

>  <Rbt.Receptor>
prm/blind_docking_20.prm

>  <SCORE>
-14.886

>  <SCORE.INTER>
-32.4601

>  <SCORE.INTER.CONST>
1

>  <SCORE.INTER.POLAR>
-5.62601

>  <SCORE.INTER.ROT>
6

>  <SCORE.INTER.SOLV>
31.1221

>  <SCORE.INTER.VDW>
-20.8607

>  <SCORE.INTER.norm>
-1.01438

>  <SCORE.INTRA>
6.92947

>  <SCORE.INTRA.DIHEDRAL>
15.1317

>  <SCORE.INTRA.DIHEDRAL.0>
22.9177

>  <SCORE.INTRA.POLAR>
-1.28511

>  <SCORE.INTRA.POLAR.0>
-0.311208

>  <SCORE.INTRA.REPUL>
0

>  <SCORE.INTRA.REPUL.0>
0

>  <SCORE.INTRA.SOLV>
2.38804

>  <SCORE.INTRA.SOLV.lig_0>
-132.657

>  <SCORE.INTRA.VDW>
2.53899

>  <SCORE.INTRA.VDW.0>
-4.68867

>  <SCORE.INTRA.norm>
0.216546

>  <SCORE.RESTR>
10.6446

>  <SCORE.RESTR.CAVITY>
10.6446

>  <SCORE.RESTR.norm>
0.332645

>  <SCORE.SYSTEM>
0

>  <SCORE.SYSTEM.CONST>
0

>  <SCORE.SYSTEM.DIHEDRAL>
0

>  <SCORE.SYSTEM.SOLV>
0

>  <SCORE.SYSTEM.norm>
0

>  <SCORE.heavy>
32

>  <SCORE.norm>
-0.465188

>  <RMSD>
4.981

$$$$
1tob
 OpenBabel11021811413D
libRbt.so/2013.1/901 2013/11/27
 32 34  0  0  0  0  0  0  0  0999 V2000
   -0.9802    3.2017    5.2389 C   0  0  2  0  0  0  0  0  0  0  0  0
    0.4639    3.3404    5.7149 C   0  0  1  0  0  0  0  0  0  0  0  0
    1.4100    3.1987    4.5303 C   0  0  2  0  0  0  0  0  0  0  0  0
    1.1410    1.8757    3.8234 C   0  0  1  0  0  0  0  0  0  0  0  0
   -0.3278    1.7943    3.4168 C   0  0  1  0  0  0  0  0  0  0  0  0
   -0.6764    0.4655    2.7757 C   0  0  0  0  0  0  0  0  0  0  0  0
    0.6476    4.6097    6.3253 O   0  0  0  0  0  0  0  0  0  0  0  0
    2.8209    3.3206    4.9566 N   0  3  0  0  0  0  0  0  0  0  0  0
    1.9724    1.7659    2.6759 O   0  0  0  0  0  0  0  0  0  0  0  0
   -1.1719    1.9441    4.5789 O   0  0  0  0  0  0  0  0  0  0  0  0
   -1.9964    0.0592    3.1084 O   0  0  0  0  0  0  0  0  0  0  0  0
   -2.5240    6.1413    5.1318 C   0  0  2  0  0  0  0  0  0  0  0  0
   -3.9247    6.7223    5.2687 C   0  0  0  0  0  0  0  0  0  0  0  0
   -4.5939    6.8320    3.8984 C   0  0  1  0  0  0  0  0  0  0  0  0
   -4.6830    5.4491    3.2571 C   0  0  2  0  0  0  0  0  0  0  0  0
   -3.2844    4.8459    3.1188 C   0  0  1  0  0  0  0  0  0  0  0  0
   -2.6089    4.7662    4.4874 C   0  0  1  0  0  0  0  0  0  0  0  0
   -1.8837    6.0019    6.4581 N   0  3  0  0  0  0  0  0  0  0  0  0
   -5.9250    7.4781    4.0365 N   0  3  0  0  0  0  0  0  0  0  0  0
   -3.3738    3.5477    2.5473 O   0  0  0  0  0  0  0  0  0  0  0  0
   -1.2876    4.2134    4.3484 O   0  0  0  0  0  0  0  0  0  0  0  0
   -6.2815    4.5882    1.6862 C   0  0  1  0  0  0  0  0  0  0  0  0
   -6.1056    4.0459    0.2668 C   0  0  1  0  0  0  0  0  0  0  0  0
   -6.3039    5.1588   -0.7513 C   0  0  0  0  0  0  0  0  0  0  0  0
   -7.6609    5.8061   -0.5279 C   0  0  1  0  0  0  0  0  0  0  0  0
   -7.7657    6.3004    0.9144 C   0  0  1  0  0  0  0  0  0  0  0  0
   -9.1211    6.9080    1.2274 C   0  0  0  0  0  0  0  0  0  0  0  0
   -4.7924    3.3771    0.1098 N   0  3  0  0  0  0  0  0  0  0  0  0
   -9.4994    7.9356    0.2280 N   0  3  0  0  0  0  0  0  0  0  0  0
   -5.3091    5.5406    1.9609 O   0  0  0  0  0  0  0  0  0  0  0  0
   -7.8341    6.8923   -1.4261 O   0  0  0  0  0  0  0  0  0  0  0  0
   -7.5677    5.2029    1.8319 O   0  0  0  0  0  0  0  0  0  0  0  0
  1  2  1  0  0  0  0
  1 10  1  0  0  0  0
  1 21  1  6  0  0  0
  2  3  1  0  0  0  0
  2  7  1  6  0  0  0
  3  4  1  0  0  0  0
  3  8  1  1  0  0  0
  4  5  1  0  0  0  0
  4  9  1  6  0  0  0
  5  6  1  1  0  0  0
  5 10  1  0  0  0  0
  6 11  1  0  0  0  0
 12 13  1  0  0  0  0
 12 17  1  0  0  0  0
 12 18  1  1  0  0  0
 13 14  1  0  0  0  0
 14 15  1  0  0  0  0
 14 19  1  1  0  0  0
 15 16  1  0  0  0  0
 15 30  1  6  0  0  0
 16 17  1  0  0  0  0
 16 20  1  1  0  0  0
 17 21  1  6  0  0  0
 22 23  1  0  0  0  0
 22 30  1  6  0  0  0
 22 32  1  0  0  0  0
 23 24  1  0  0  0  0
 23 28  1  1  0  0  0
 24 25  1  0  0  0  0
 25 26  1  0  0  0  0
 25 31  1  6  0  0  0
 26 27  1  6  0  0  0
 26 32  1  0  0  0  0
 27 29  1  0  0  0  0
M  CHG  5   8   1  18   1  19   1  28   1  29   1
M  END
>  <CHROM.1>
-140.64012037,175.39034611,-55.53577512,-45.36333205,145.33361710,-110.54079272
-79.23017072,-48.89621969,-134.74109972,-60.87535223,105.90555434,-136.30904969
-11.49367805,-48.51924257,-51.39875279,-77.13021439,-3.39052187,4.47920267
2.97096419,0.02864319,-0.57621240,0.78704315

>  <Name>
1tob

>  <RI>
0

>  <Rbt.Current_Directory>
/home/itssahil/PROJECTS/Mol_Feturizer/New_Systems/rnas/1tob

>  <Rbt.Executable>
rbdock ($Id: //depot/dev/client3/rdock/2013.1/src/exe/rbdock.cxx#4 $)

>  <Rbt.Library>
libRbt.so (2013.1, Build901 2013/11/27)

>  <Rbt.Parameter_File>
/export/apps/rDock/src/rDock_2013.1_src/data/scripts/dock_solv.prm

>  <Rbt.Receptor>
prm/blind_docking_80.prm

>  <SCORE>
-26.8151

>  <SCORE.INTER>
-34.2803

>  <SCORE.INTER.CONST>
1

>  <SCORE.INTER.POLAR>
-6.43788

>  <SCORE.INTER.ROT>
6

>  <SCORE.INTER.SOLV>
31.5384

>  <SCORE.INTER.VDW>
-19.5067

>  <SCORE.INTER.norm>
-1.07126

>  <SCORE.INTRA>
2.33889

>  <SCORE.INTRA.DIHEDRAL>
17.8064

>  <SCORE.INTRA.DIHEDRAL.0>
22.9177

>  <SCORE.INTRA.POLAR>
-2.76194

>  <SCORE.INTRA.POLAR.0>
-0.311208

>  <SCORE.INTRA.REPUL>
0

>  <SCORE.INTRA.REPUL.0>
0

>  <SCORE.INTRA.SOLV>
2.34353

>  <SCORE.INTRA.SOLV.lig_0>
-132.657

>  <SCORE.INTRA.VDW>
1.65453

>  <SCORE.INTRA.VDW.0>
-4.68867

>  <SCORE.INTRA.norm>
0.0730904

>  <SCORE.RESTR>
5.12633

>  <SCORE.RESTR.CAVITY>
5.12633

>  <SCORE.RESTR.norm>
0.160198

>  <SCORE.SYSTEM>
0

>  <SCORE.SYSTEM.CONST>
0

>  <SCORE.SYSTEM.DIHEDRAL>
0

>  <SCORE.SYSTEM.SOLV>
0

>  <SCORE.SYSTEM.norm>
0

>  <SCORE.heavy>
32

>  <SCORE.norm>
-0.837971

>  <RMSD>
5.024

$$$$
1tob
 OpenBabel11021811413D
libRbt.so/2013.1/901 2013/11/27
 32 34  0  0  0  0  0  0  0  0999 V2000
   -1.4192    2.0629    2.7699 C   0  0  2  0  0  0  0  0  0  0  0  0
   -0.3215    1.0070    2.8757 C   0  0  1  0  0  0  0  0  0  0  0  0
    0.9482    1.6408    3.4276 C   0  0  2  0  0  0  0  0  0  0  0  0
    1.3438    2.8247    2.5533 C   0  0  1  0  0  0  0  0  0  0  0  0
    0.1841    3.8126    2.4625 C   0  0  1  0  0  0  0  0  0  0  0  0
    0.4892    4.9778    1.5417 C   0  0  0  0  0  0  0  0  0  0  0  0
   -0.7460   -0.0413    3.7352 O   0  0  0  0  0  0  0  0  0  0  0  0
    2.0373    0.6462    3.5368 N   0  3  0  0  0  0  0  0  0  0  0  0
    2.4891    3.4646    3.1000 O   0  0  0  0  0  0  0  0  0  0  0  0
   -0.9896    3.1513    1.9424 O   0  0  0  0  0  0  0  0  0  0  0  0
   -0.6006    5.8867    1.4763 O   0  0  0  0  0  0  0  0  0  0  0  0
   -1.6679    4.9722    4.2281 C   0  0  2  0  0  0  0  0  0  0  0  0
   -2.5402    6.2201    4.2221 C   0  0  0  0  0  0  0  0  0  0  0  0
   -3.2983    6.3359    2.8995 C   0  0  1  0  0  0  0  0  0  0  0  0
   -4.1796    5.1046    2.7021 C   0  0  2  0  0  0  0  0  0  0  0  0
   -3.3203    3.8394    2.7134 C   0  0  1  0  0  0  0  0  0  0  0  0
   -2.5423    3.7443    4.0254 C   0  0  1  0  0  0  0  0  0  0  0  0
   -0.9570    4.8372    5.5184 N   0  3  0  0  0  0  0  0  0  0  0  0
   -4.0789    7.6000    2.8734 N   0  3  0  0  0  0  0  0  0  0  0  0
   -4.1472    2.6939    2.5574 O   0  0  0  0  0  0  0  0  0  0  0  0
   -1.7235    2.5609    4.0230 O   0  0  0  0  0  0  0  0  0  0  0  0
   -6.0404    4.4198    1.3484 C   0  0  1  0  0  0  0  0  0  0  0  0
   -6.2877    4.0385   -0.1122 C   0  0  1  0  0  0  0  0  0  0  0  0
   -6.5472    5.2843   -0.9458 C   0  0  0  0  0  0  0  0  0  0  0  0
   -7.6986    6.0655   -0.3339 C   0  0  1  0  0  0  0  0  0  0  0  0
   -7.3849    6.3878    1.1267 C   0  0  1  0  0  0  0  0  0  0  0  0
   -8.5197    7.1188    1.8211 C   0  0  0  0  0  0  0  0  0  0  0  0
   -5.1661    3.2334   -0.6511 N   0  3  0  0  0  0  0  0  0  0  0  0
   -8.0728    7.7290    3.0962 N   0  3  0  0  0  0  0  0  0  0  0  0
   -4.8970    5.2004    1.4544 O   0  0  0  0  0  0  0  0  0  0  0  0
   -7.9099    7.2672   -1.0606 O   0  0  0  0  0  0  0  0  0  0  0  0
   -7.1469    5.1695    1.8648 O   0  0  0  0  0  0  0  0  0  0  0  0
  1  2  1  0  0  0  0
  1 10  1  0  0  0  0
  1 21  1  1  0  0  0
  2  3  1  0  0  0  0
  2  7  1  1  0  0  0
  3  4  1  0  0  0  0
  3  8  1  6  0  0  0
  4  5  1  0  0  0  0
  4  9  1  1  0  0  0
  5  6  1  6  0  0  0
  5 10  1  0  0  0  0
  6 11  1  0  0  0  0
 12 13  1  0  0  0  0
 12 17  1  0  0  0  0
 12 18  1  1  0  0  0
 13 14  1  0  0  0  0
 14 15  1  0  0  0  0
 14 19  1  1  0  0  0
 15 16  1  0  0  0  0
 15 30  1  6  0  0  0
 16 17  1  0  0  0  0
 16 20  1  1  0  0  0
 17 21  1  6  0  0  0
 22 23  1  0  0  0  0
 22 30  1  6  0  0  0
 22 32  1  0  0  0  0
 23 24  1  0  0  0  0
 23 28  1  6  0  0  0
 24 25  1  0  0  0  0
 25 26  1  0  0  0  0
 25 31  1  6  0  0  0
 26 27  1  1  0  0  0
 26 32  1  0  0  0  0
 27 29  1  0  0  0  0
M  CHG  5   8   1  18   1  19   1  28   1  29   1
M  END
>  <CHROM.1>
167.96289800,83.28342227,-174.65676271,176.11288552,-179.76410179,-59.77706602
-155.74603113,68.24390839,-158.92492674,-148.10442009,-99.61675791,-151.07808015
177.72515822,-58.33694274,-165.03058471,163.43529730,-3.12988640,4.35329378
2.28389948,0.25819445,0.47038428,-2.65660932

>  <Name>
1tob

>  <RI>
0

>  <Rbt.Current_Directory>
/home/itssahil/PROJECTS/Mol_Feturizer/New_Systems/rnas/1tob

>  <Rbt.Executable>
rbdock ($Id: //depot/dev/client3/rdock/2013.1/src/exe/rbdock.cxx#4 $)

>  <Rbt.Library>
libRbt.so (2013.1, Build901 2013/11/27)

>  <Rbt.Parameter_File>
/export/apps/rDock/src/rDock_2013.1_src/data/scripts/dock_solv.prm

>  <Rbt.Receptor>
prm/blind_docking_20.prm

>  <SCORE>
-15.0192

>  <SCORE.INTER>
-28.9467

>  <SCORE.INTER.CONST>
1

>  <SCORE.INTER.POLAR>
-5.50868

>  <SCORE.INTER.ROT>
6

>  <SCORE.INTER.SOLV>
33.1252

>  <SCORE.INTER.VDW>
-19.5773

>  <SCORE.INTER.norm>
-0.904586

>  <SCORE.INTRA>
5.4639

>  <SCORE.INTRA.DIHEDRAL>
-1.98274

>  <SCORE.INTRA.DIHEDRAL.0>
22.9177

>  <SCORE.INTRA.POLAR>
0.298119

>  <SCORE.INTRA.POLAR.0>
-0.311208

>  <SCORE.INTRA.REPUL>
0

>  <SCORE.INTRA.REPUL.0>
0

>  <SCORE.INTRA.SOLV>
-2.2336

>  <SCORE.INTRA.SOLV.lig_0>
-132.657

>  <SCORE.INTRA.VDW>
6.55847

>  <SCORE.INTRA.VDW.0>
-4.68867

>  <SCORE.INTRA.norm>
0.170747

>  <SCORE.RESTR>
8.46363

>  <SCORE.RESTR.CAVITY>
8.46363

>  <SCORE.RESTR.norm>
0.264488

>  <SCORE.SYSTEM>
0

>  <SCORE.SYSTEM.CONST>
0

>  <SCORE.SYSTEM.DIHEDRAL>
0

>  <SCORE.SYSTEM.SOLV>
0

>  <SCORE.SYSTEM.norm>
0

>  <SCORE.heavy>
32

>  <SCORE.norm>
-0.46935

>  <RMSD>
5.030

$$$$
1tob
 OpenBabel11021811413D
libRbt.so/2013.1/901 2013/11/27
 32 34  0  0  0  0  0  0  0  0999 V2000
   -1.0647    3.0268    5.2105 C   0  0  2  0  0  0  0  0  0  0  0  0
    0.3833    3.0288    5.6946 C   0  0  1  0  0  0  0  0  0  0  0  0
    1.3234    2.9399    4.5002 C   0  0  2  0  0  0  0  0  0  0  0  0
    0.9746    1.7088    3.6724 C   0  0  1  0  0  0  0  0  0  0  0  0
   -0.4948    1.7588    3.2628 C   0  0  1  0  0  0  0  0  0  0  0  0
   -0.9238    0.5208    2.5000 C   0  0  0  0  0  0  0  0  0  0  0  0
    0.6441    4.2209    6.4215 O   0  0  0  0  0  0  0  0  0  0  0  0
    2.7375    2.9319    4.9334 N   0  3  0  0  0  0  0  0  0  0  0  0
    1.8020    1.6553    2.5181 O   0  0  0  0  0  0  0  0  0  0  0  0
   -1.3324    1.8514    4.4353 O   0  0  0  0  0  0  0  0  0  0  0  0
   -2.0933   -0.0564    3.0631 O   0  0  0  0  0  0  0  0  0  0  0  0
   -2.4798    6.0935    5.2208 C   0  0  2  0  0  0  0  0  0  0  0  0
   -3.8628    6.7116    5.3741 C   0  0  0  0  0  0  0  0  0  0  0  0
   -4.5436    6.8428    4.0114 C   0  0  1  0  0  0  0  0  0  0  0  0
   -4.6768    5.4643    3.3680 C   0  0  2  0  0  0  0  0  0  0  0  0
   -3.2963    4.8242    3.2132 C   0  0  1  0  0  0  0  0  0  0  0  0
   -2.6086    4.7228    4.5743 C   0  0  1  0  0  0  0  0  0  0  0  0
   -1.8293    5.9337    6.5398 N   0  3  0  0  0  0  0  0  0  0  0  0
   -5.8552    7.5240    4.1653 N   0  3  0  0  0  0  0  0  0  0  0  0
   -3.4268    3.5302    2.6399 O   0  0  0  0  0  0  0  0  0  0  0  0
   -1.3042    4.1351    4.4198 O   0  0  0  0  0  0  0  0  0  0  0  0
   -6.2732    4.6146    1.7890 C   0  0  1  0  0  0  0  0  0  0  0  0
   -6.1001    4.1092    0.3557 C   0  0  1  0  0  0  0  0  0  0  0  0
   -6.3245    5.2426   -0.6339 C   0  0  0  0  0  0  0  0  0  0  0  0
   -7.6899    5.8622   -0.3846 C   0  0  1  0  0  0  0  0  0  0  0  0
   -7.7910    6.3203    1.0699 C   0  0  1  0  0  0  0  0  0  0  0  0
   -9.1533    6.8982    1.4078 C   0  0  0  0  0  0  0  0  0  0  0  0
   -4.7776    3.4658    0.1726 N   0  3  0  0  0  0  0  0  0  0  0  0
   -9.1659    7.5040    2.7608 N   0  3  0  0  0  0  0  0  0  0  0  0
   -5.3141    5.5759    2.0789 O   0  0  0  0  0  0  0  0  0  0  0  0
   -7.8879    6.9666   -1.2552 O   0  0  0  0  0  0  0  0  0  0  0  0
   -7.5679    5.2047    1.9594 O   0  0  0  0  0  0  0  0  0  0  0  0
  1  2  1  0  0  0  0
  1 10  1  0  0  0  0
  1 21  1  6  0  0  0
  2  3  1  0  0  0  0
  2  7  1  6  0  0  0
  3  4  1  0  0  0  0
  3  8  1  1  0  0  0
  4  5  1  0  0  0  0
  4  9  1  6  0  0  0
  5  6  1  1  0  0  0
  5 10  1  0  0  0  0
  6 11  1  0  0  0  0
 12 13  1  0  0  0  0
 12 17  1  0  0  0  0
 12 18  1  1  0  0  0
 13 14  1  0  0  0  0
 14 15  1  0  0  0  0
 14 19  1  1  0  0  0
 15 16  1  0  0  0  0
 15 30  1  6  0  0  0
 16 17  1  0  0  0  0
 16 20  1  1  0  0  0
 17 21  1  6  0  0  0
 22 23  1  0  0  0  0
 22 30  1  6  0  0  0
 22 32  1  0  0  0  0
 23 24  1  0  0  0  0
 23 28  1  1  0  0  0
 24 25  1  0  0  0  0
 25 26  1  0  0  0  0
 25 31  1  6  0  0  0
 26 27  1  6  0  0  0
 26 32  1  0  0  0  0
 27 29  1  0  0  0  0
M  CHG  5   8   1  18   1  19   1  28   1  29   1
M  END
>  <CHROM.1>
-142.99854872,-170.47289016,-72.55300952,-44.46273220,128.32861913,-88.44111239
38.46826199,165.01450727,-137.48284540,-65.80127868,112.19121328,-136.35237780
104.63926729,68.38797892,-172.10393407,-162.27411883,-3.41887860,4.40460461
3.10456409,0.00467571,-0.55895062,0.84134245

>  <Name>
1tob

>  <RI>
0

>  <Rbt.Current_Directory>
/home/itssahil/PROJECTS/Mol_Feturizer/New_Systems/rnas/1tob

>  <Rbt.Executable>
rbdock ($Id: //depot/dev/client3/rdock/2013.1/src/exe/rbdock.cxx#4 $)

>  <Rbt.Library>
libRbt.so (2013.1, Build901 2013/11/27)

>  <Rbt.Parameter_File>
/export/apps/rDock/src/rDock_2013.1_src/data/scripts/dock_solv.prm

>  <Rbt.Receptor>
prm/blind_docking_100.prm

>  <SCORE>
-19.0215

>  <SCORE.INTER>
-35.6087

>  <SCORE.INTER.CONST>
1

>  <SCORE.INTER.POLAR>
-7.0653

>  <SCORE.INTER.ROT>
6

>  <SCORE.INTER.SOLV>
32.0418

>  <SCORE.INTER.VDW>
-18.4687

>  <SCORE.INTER.norm>
-1.11277

>  <SCORE.INTRA>
3.08453

>  <SCORE.INTRA.DIHEDRAL>
16.8061

>  <SCORE.INTRA.DIHEDRAL.0>
22.9177

>  <SCORE.INTRA.POLAR>
-2.03053

>  <SCORE.INTRA.POLAR.0>
-0.311208

>  <SCORE.INTRA.REPUL>
0

>  <SCORE.INTRA.REPUL.0>
0

>  <SCORE.INTRA.SOLV>
2.40616

>  <SCORE.INTRA.SOLV.lig_0>
-132.657

>  <SCORE.INTRA.VDW>
0.382197

>  <SCORE.INTRA.VDW.0>
-4.68867

>  <SCORE.INTRA.norm>
0.0963917

>  <SCORE.RESTR>
13.5027

>  <SCORE.RESTR.CAVITY>
13.5027

>  <SCORE.RESTR.norm>
0.421959

>  <SCORE.SYSTEM>
0

>  <SCORE.SYSTEM.CONST>
0

>  <SCORE.SYSTEM.DIHEDRAL>
0

>  <SCORE.SYSTEM.SOLV>
0

>  <SCORE.SYSTEM.norm>
0

>  <SCORE.heavy>
32

>  <SCORE.norm>
-0.59442

>  <RMSD>
5.033

$$$$
1tob
 OpenBabel11021811413D
libRbt.so/2013.1/901 2013/11/27
 32 34  0  0  0  0  0  0  0  0999 V2000
   -0.5265    3.0721    5.6798 C   0  0  2  0  0  0  0  0  0  0  0  0
   -0.9878    3.8212    6.9276 C   0  0  1  0  0  0  0  0  0  0  0  0
    0.2035    4.5047    7.5850 C   0  0  2  0  0  0  0  0  0  0  0  0
    1.2827    3.4692    7.8777 C   0  0  1  0  0  0  0  0  0  0  0  0
    1.6595    2.7360    6.5933 C   0  0  1  0  0  0  0  0  0  0  0  0
    2.6763    1.6372    6.8331 C   0  0  0  0  0  0  0  0  0  0  0  0
   -1.9606    4.7929    6.5712 O   0  0  0  0  0  0  0  0  0  0  0  0
   -0.2062    5.2355    8.8038 N   0  3  0  0  0  0  0  0  0  0  0  0
    2.4261    4.1090    8.4285 O   0  0  0  0  0  0  0  0  0  0  0  0
    0.4895    2.1184    6.0146 O   0  0  0  0  0  0  0  0  0  0  0  0
    3.9019    2.1623    7.3232 O   0  0  0  0  0  0  0  0  0  0  0  0
   -0.9284    2.5634    3.0081 C   0  0  2  0  0  0  0  0  0  0  0  0
   -1.6518    2.5997    1.6688 C   0  0  0  0  0  0  0  0  0  0  0  0
   -2.9832    3.3397    1.8006 C   0  0  1  0  0  0  0  0  0  0  0  0
   -2.7327    4.7689    2.2763 C   0  0  2  0  0  0  0  0  0  0  0  0
   -1.9988    4.7521    3.6181 C   0  0  1  0  0  0  0  0  0  0  0  0
   -0.6829    3.9858    3.4876 C   0  0  1  0  0  0  0  0  0  0  0  0
    0.3759    1.8774    2.8794 N   0  3  0  0  0  0  0  0  0  0  0  0
   -3.7166    3.2941    0.5090 N   0  3  0  0  0  0  0  0  0  0  0  0
   -1.7427    6.0837    4.0439 O   0  0  0  0  0  0  0  0  0  0  0  0
   -0.0053    3.9594    4.7569 O   0  0  0  0  0  0  0  0  0  0  0  0
   -3.8878    6.8427    2.6353 C   0  0  1  0  0  0  0  0  0  0  0  0
   -5.1813    7.3669    3.2614 C   0  0  1  0  0  0  0  0  0  0  0  0
   -6.3464    7.1771    2.3017 C   0  0  0  0  0  0  0  0  0  0  0  0
   -6.0169    7.8436    0.9759 C   0  0  1  0  0  0  0  0  0  0  0  0
   -4.7045    7.2833    0.4287 C   0  0  1  0  0  0  0  0  0  0  0  0
   -4.2812    7.9470   -0.8691 C   0  0  0  0  0  0  0  0  0  0  0  0
   -5.4348    6.7299    4.5753 N   0  3  0  0  0  0  0  0  0  0  0  0
   -5.1931    7.5927   -1.9829 N   0  3  0  0  0  0  0  0  0  0  0  0
   -3.9828    5.4761    2.4087 O   0  0  0  0  0  0  0  0  0  0  0  0
   -7.0656    7.6175    0.0454 O   0  0  0  0  0  0  0  0  0  0  0  0
   -3.6395    7.4907    1.3816 O   0  0  0  0  0  0  0  0  0  0  0  0
  1  2  1  0  0  0  0
  1 10  1  0  0  0  0
  1 21  1  6  0  0  0
  2  3  1  0  0  0  0
  2  7  1  6  0  0  0
  3  4  1  0  0  0  0
  3  8  1  1  0  0  0
  4  5  1  0  0  0  0
  4  9  1  6  0  0  0
  5  6  1  1  0  0  0
  5 10  1  0  0  0  0
  6 11  1  0  0  0  0
 12 13  1  0  0  0  0
 12 17  1  0  0  0  0
 12 18  1  6  0  0  0
 13 14  1  0  0  0  0
 14 15  1  0  0  0  0
 14 19  1  6  0  0  0
 15 16  1  0  0  0  0
 15 30  1  1  0  0  0
 16 17  1  0  0  0  0
 16 20  1  6  0  0  0
 17 21  1  1  0  0  0
 22 23  1  0  0  0  0
 22 30  1  6  0  0  0
 22 32  1  0  0  0  0
 23 24  1  0  0  0  0
 23 28  1  1  0  0  0
 24 25  1  0  0  0  0
 25 26  1  0  0  0  0
 25 31  1  6  0  0  0
 26 27  1  6  0  0  0
 26 32  1  0  0  0  0
 27 29  1  0  0  0  0
M  CHG  5   8   1  18   1  19   1  28   1  29   1
M  END
>  <CHROM.1>
-119.88324311,-155.37131187,32.34049822,-173.91443938,-62.76542594,-179.70253177
62.45319655,-69.36129057,-170.46808045,165.11428578,-45.94713884,-158.90739016
-53.52961645,-56.49607408,-68.63510422,-59.93928869,-1.95258889,4.82450523
3.82255404,-0.44674212,0.74222089,-1.97076888

>  <Name>
1tob

>  <RI>
0

>  <Rbt.Current_Directory>
/home/itssahil/PROJECTS/Mol_Feturizer/New_Systems/rnas/1tob

>  <Rbt.Executable>
rbdock ($Id: //depot/dev/client3/rdock/2013.1/src/exe/rbdock.cxx#4 $)

>  <Rbt.Library>
libRbt.so (2013.1, Build901 2013/11/27)

>  <Rbt.Parameter_File>
/export/apps/rDock/src/rDock_2013.1_src/data/scripts/dock_solv.prm

>  <Rbt.Receptor>
prm/pocket_docking_6.prm

>  <SCORE>
-51.8899

>  <SCORE.INTER>
-45.472

>  <SCORE.INTER.CONST>
1

>  <SCORE.INTER.POLAR>
-6.8477

>  <SCORE.INTER.ROT>
6

>  <SCORE.INTER.SOLV>
33.1077

>  <SCORE.INTER.VDW>
-26.1249

>  <SCORE.INTER.norm>
-1.421

>  <SCORE.INTRA>
-6.41797

>  <SCORE.INTRA.DIHEDRAL>
-6.16057

>  <SCORE.INTRA.DIHEDRAL.0>
22.9177

>  <SCORE.INTRA.POLAR>
-1.5933

>  <SCORE.INTRA.POLAR.0>
-0.311208

>  <SCORE.INTRA.REPUL>
0

>  <SCORE.INTRA.REPUL.0>
0

>  <SCORE.INTRA.SOLV>
-2.00347

>  <SCORE.INTRA.SOLV.lig_0>
-132.657

>  <SCORE.INTRA.VDW>
3.08126

>  <SCORE.INTRA.VDW.0>
-4.68867

>  <SCORE.INTRA.norm>
-0.200561

>  <SCORE.RESTR>
0

>  <SCORE.RESTR.CAVITY>
0

>  <SCORE.RESTR.norm>
0

>  <SCORE.SYSTEM>
0

>  <SCORE.SYSTEM.CONST>
0

>  <SCORE.SYSTEM.DIHEDRAL>
0

>  <SCORE.SYSTEM.SOLV>
0

>  <SCORE.SYSTEM.norm>
0

>  <SCORE.heavy>
32

>  <SCORE.norm>
-1.62156

>  <RMSD>
5.054

$$$$
1tob
 OpenBabel11021811413D
libRbt.so/2013.1/901 2013/11/27
 32 34  0  0  0  0  0  0  0  0999 V2000
   -0.7575    3.1411    5.1701 C   0  0  2  0  0  0  0  0  0  0  0  0
    0.7018    3.3811    5.5495 C   0  0  1  0  0  0  0  0  0  0  0  0
    1.5939    3.1274    4.3420 C   0  0  2  0  0  0  0  0  0  0  0  0
    1.3405    1.7210    3.8125 C   0  0  1  0  0  0  0  0  0  0  0  0
   -0.1422    1.5454    3.4964 C   0  0  1  0  0  0  0  0  0  0  0  0
   -0.4717    0.1387    3.0369 C   0  0  0  0  0  0  0  0  0  0  0  0
    0.8674    4.7199    5.9944 O   0  0  0  0  0  0  0  0  0  0  0  0
    3.0184    3.3437    4.6759 N   0  3  0  0  0  0  0  0  0  0  0  0
    2.1188    1.4997    2.6440 O   0  0  0  0  0  0  0  0  0  0  0  0
   -0.9339    1.8077    4.6752 O   0  0  0  0  0  0  0  0  0  0  0  0
   -1.8362    0.0225    2.6590 O   0  0  0  0  0  0  0  0  0  0  0  0
   -2.2396    6.0082    5.0434 C   0  0  2  0  0  0  0  0  0  0  0  0
   -3.5996    6.6599    5.2529 C   0  0  0  0  0  0  0  0  0  0  0  0
   -4.3265    6.8210    3.9176 C   0  0  1  0  0  0  0  0  0  0  0  0
   -4.5188    5.4524    3.2682 C   0  0  2  0  0  0  0  0  0  0  0  0
   -3.1620    4.7786    3.0571 C   0  0  1  0  0  0  0  0  0  0  0  0
   -2.4275    4.6473    4.3908 C   0  0  1  0  0  0  0  0  0  0  0  0
   -1.5453    5.8197    6.3360 N   0  3  0  0  0  0  0  0  0  0  0  0
   -5.6135    7.5340    4.1256 N   0  3  0  0  0  0  0  0  0  0  0  0
   -3.3470    3.4938    2.4783 O   0  0  0  0  0  0  0  0  0  0  0  0
   -1.1452    4.0279    4.1832 O   0  0  0  0  0  0  0  0  0  0  0  0
   -6.1949    4.6592    1.7432 C   0  0  1  0  0  0  0  0  0  0  0  0
   -6.0621    4.1296    0.3143 C   0  0  1  0  0  0  0  0  0  0  0  0
   -6.2655    5.2568   -0.6869 C   0  0  0  0  0  0  0  0  0  0  0  0
   -7.6055    5.9243   -0.4242 C   0  0  1  0  0  0  0  0  0  0  0  0
   -7.6675    6.4045    1.0253 C   0  0  1  0  0  0  0  0  0  0  0  0
   -9.0044    7.0314    1.3771 C   0  0  0  0  0  0  0  0  0  0  0  0
   -4.7646    3.4406    0.1188 N   0  3  0  0  0  0  0  0  0  0  0  0
   -9.8289    7.2668    0.1678 N   0  3  0  0  0  0  0  0  0  0  0  0
   -5.2001    5.5920    2.0045 O   0  0  0  0  0  0  0  0  0  0  0  0
   -7.7815    7.0231   -1.3065 O   0  0  0  0  0  0  0  0  0  0  0  0
   -7.4665    5.2939    1.9262 O   0  0  0  0  0  0  0  0  0  0  0  0
  1  2  1  0  0  0  0
  1 10  1  0  0  0  0
  1 21  1  6  0  0  0
  2  3  1  0  0  0  0
  2  7  1  6  0  0  0
  3  4  1  0  0  0  0
  3  8  1  1  0  0  0
  4  5  1  0  0  0  0
  4  9  1  6  0  0  0
  5  6  1  1  0  0  0
  5 10  1  0  0  0  0
  6 11  1  0  0  0  0
 12 13  1  0  0  0  0
 12 17  1  0  0  0  0
 12 18  1  1  0  0  0
 13 14  1  0  0  0  0
 14 15  1  0  0  0  0
 14 19  1  1  0  0  0
 15 16  1  0  0  0  0
 15 30  1  6  0  0  0
 16 17  1  0  0  0  0
 16 20  1  1  0  0  0
 17 21  1  6  0  0  0
 22 23  1  0  0  0  0
 22 30  1  6  0  0  0
 22 32  1  0  0  0  0
 23 24  1  0  0  0  0
 23 28  1  1  0  0  0
 24 25  1  0  0  0  0
 25 26  1  0  0  0  0
 25 31  1  6  0  0  0
 26 27  1  1  0  0  0
 26 32  1  0  0  0  0
 27 29  1  0  0  0  0
M  CHG  5   8   1  18   1  19   1  28   1  29   1
M  END
>  <CHROM.1>
-135.08101976,169.27901812,-169.46533732,69.37077576,-175.89499370,-54.24767719
-45.27003915,173.99589110,-137.40816158,-173.54793600,96.09375258,-134.60252403
103.84483253,-50.77118512,-11.13710381,-35.41990454,-3.24093568,4.42600834
2.93968411,-0.01145973,-0.55925421,0.74793892

>  <Name>
1tob

>  <RI>
0

>  <Rbt.Current_Directory>
/home/itssahil/PROJECTS/Mol_Feturizer/New_Systems/rnas/1tob

>  <Rbt.Executable>
rbdock ($Id: //depot/dev/client3/rdock/2013.1/src/exe/rbdock.cxx#4 $)

>  <Rbt.Library>
libRbt.so (2013.1, Build901 2013/11/27)

>  <Rbt.Parameter_File>
/export/apps/rDock/src/rDock_2013.1_src/data/scripts/dock_solv.prm

>  <Rbt.Receptor>
prm/blind_docking_80.prm

>  <SCORE>
-22.0001

>  <SCORE.INTER>
-26.7731

>  <SCORE.INTER.CONST>
1

>  <SCORE.INTER.POLAR>
-4.95818

>  <SCORE.INTER.ROT>
6

>  <SCORE.INTER.SOLV>
32.7856

>  <SCORE.INTER.VDW>
-19.85

>  <SCORE.INTER.norm>
-0.836658

>  <SCORE.INTRA>
0.398992

>  <SCORE.INTRA.DIHEDRAL>
11.8014

>  <SCORE.INTRA.DIHEDRAL.0>
22.9177

>  <SCORE.INTRA.POLAR>
-2.85301

>  <SCORE.INTRA.POLAR.0>
-0.311208

>  <SCORE.INTRA.REPUL>
0

>  <SCORE.INTRA.REPUL.0>
0

>  <SCORE.INTRA.SOLV>
3.81679

>  <SCORE.INTRA.SOLV.lig_0>
-132.657

>  <SCORE.INTRA.VDW>
2.29014

>  <SCORE.INTRA.VDW.0>
-4.68867

>  <SCORE.INTRA.norm>
0.0124685

>  <SCORE.RESTR>
4.374

>  <SCORE.RESTR.CAVITY>
4.374

>  <SCORE.RESTR.norm>
0.136687

>  <SCORE.SYSTEM>
0

>  <SCORE.SYSTEM.CONST>
0

>  <SCORE.SYSTEM.DIHEDRAL>
0

>  <SCORE.SYSTEM.SOLV>
0

>  <SCORE.SYSTEM.norm>
0

>  <SCORE.heavy>
32

>  <SCORE.norm>
-0.687502

>  <RMSD>
5.059

$$$$
1tob
 OpenBabel11021811413D
libRbt.so/2013.1/901 2013/11/27
 32 34  0  0  0  0  0  0  0  0999 V2000
   -0.3369    3.8181    4.9891 C   0  0  2  0  0  0  0  0  0  0  0  0
    1.0428    3.3324    4.5513 C   0  0  1  0  0  0  0  0  0  0  0  0
    1.0771    3.1835    3.0363 C   0  0  2  0  0  0  0  0  0  0  0  0
   -0.0483    2.2560    2.5936 C   0  0  1  0  0  0  0  0  0  0  0  0
   -1.3863    2.7845    3.1032 C   0  0  1  0  0  0  0  0  0  0  0  0
   -2.5396    1.8622    2.7600 C   0  0  0  0  0  0  0  0  0  0  0  0
    2.0322    4.2646    4.9632 O   0  0  0  0  0  0  0  0  0  0  0  0
    2.3994    2.7063    2.5767 N   0  3  0  0  0  0  0  0  0  0  0  0
   -0.0669    2.1655    1.1754 O   0  0  0  0  0  0  0  0  0  0  0  0
   -1.3527    2.9118    4.5412 O   0  0  0  0  0  0  0  0  0  0  0  0
   -2.2757    0.5273    3.1679 O   0  0  0  0  0  0  0  0  0  0  0  0
   -2.2322    6.4206    5.6100 C   0  0  2  0  0  0  0  0  0  0  0  0
   -3.6970    6.8358    5.6095 C   0  0  0  0  0  0  0  0  0  0  0  0
   -4.0630    7.5027    4.2832 C   0  0  1  0  0  0  0  0  0  0  0  0
   -3.8150    6.5300    3.1325 C   0  0  2  0  0  0  0  0  0  0  0  0
   -2.3486    6.0954    3.1223 C   0  0  1  0  0  0  0  0  0  0  0  0
   -1.9806    5.4564    4.4609 C   0  0  1  0  0  0  0  0  0  0  0  0
   -1.8806    5.7450    6.8782 N   0  3  0  0  0  0  0  0  0  0  0  0
   -5.4700    7.9785    4.3282 N   0  3  0  0  0  0  0  0  0  0  0  0
   -2.1281    5.1688    2.0673 O   0  0  0  0  0  0  0  0  0  0  0  0
   -0.5959    5.0648    4.4509 O   0  0  0  0  0  0  0  0  0  0  0  0
   -3.8948    6.3974    0.7367 C   0  0  1  0  0  0  0  0  0  0  0  0
   -4.2007    7.2150   -0.5194 C   0  0  1  0  0  0  0  0  0  0  0  0
   -5.6795    7.5680   -0.5717 C   0  0  0  0  0  0  0  0  0  0  0  0
   -6.5023    6.2933   -0.4790 C   0  0  1  0  0  0  0  0  0  0  0  0
   -6.1235    5.5254    0.7868 C   0  0  1  0  0  0  0  0  0  0  0  0
   -6.8662    4.2079    0.9160 C   0  0  0  0  0  0  0  0  0  0  0  0
   -3.3394    8.4186   -0.5958 N   0  3  0  0  0  0  0  0  0  0  0  0
   -8.1856    4.2598    0.2421 N   0  3  0  0  0  0  0  0  0  0  0  0
   -4.1526    7.1500    1.8748 O   0  0  0  0  0  0  0  0  0  0  0  0
   -7.8866    6.6098   -0.4577 O   0  0  0  0  0  0  0  0  0  0  0  0
   -4.7119    5.2210    0.7802 O   0  0  0  0  0  0  0  0  0  0  0  0
  1  2  1  0  0  0  0
  1 10  1  0  0  0  0
  1 21  1  6  0  0  0
  2  3  1  0  0  0  0
  2  7  1  6  0  0  0
  3  4  1  0  0  0  0
  3  8  1  1  0  0  0
  4  5  1  0  0  0  0
  4  9  1  6  0  0  0
  5  6  1  1  0  0  0
  5 10  1  0  0  0  0
  6 11  1  0  0  0  0
 12 13  1  0  0  0  0
 12 17  1  0  0  0  0
 12 18  1  1  0  0  0
 13 14  1  0  0  0  0
 14 15  1  0  0  0  0
 14 19  1  1  0  0  0
 15 16  1  0  0  0  0
 15 30  1  6  0  0  0
 16 17  1  0  0  0  0
 16 20  1  6  0  0  0
 17 21  1  6  0  0  0
 22 23  1  0  0  0  0
 22 30  1  1  0  0  0
 22 32  1  0  0  0  0
 23 24  1  0  0  0  0
 23 28  1  1  0  0  0
 24 25  1  0  0  0  0
 25 26  1  0  0  0  0
 25 31  1  1  0  0  0
 26 27  1  6  0  0  0
 26 32  1  0  0  0  0
 27 29  1  0  0  0  0
M  CHG  5   8   1  18   1  19   1  28   1  29   1
M  END
>  <CHROM.1>
162.74193842,63.17082156,-8.63520476,-161.58673037,51.87219561,-168.69509897
-0.20628948,71.76108591,176.19924697,-41.02481720,101.22262810,-175.73148024
65.62831571,-51.31906274,-28.31433276,-39.03565768,-2.85407333,5.02468958
2.61778892,0.03068468,-0.63896201,0.78315208

>  <Name>
1tob

>  <RI>
0

>  <Rbt.Current_Directory>
/home/itssahil/PROJECTS/Mol_Feturizer/New_Systems/rnas/1tob

>  <Rbt.Executable>
rbdock ($Id: //depot/dev/client3/rdock/2013.1/src/exe/rbdock.cxx#4 $)

>  <Rbt.Library>
libRbt.so (2013.1, Build901 2013/11/27)

>  <Rbt.Parameter_File>
/export/apps/rDock/src/rDock_2013.1_src/data/scripts/dock_solv.prm

>  <Rbt.Receptor>
prm/blind_docking_20.prm

>  <SCORE>
-7.06031

>  <SCORE.INTER>
-20.2645

>  <SCORE.INTER.CONST>
1

>  <SCORE.INTER.POLAR>
-3.60668

>  <SCORE.INTER.ROT>
6

>  <SCORE.INTER.SOLV>
34.316

>  <SCORE.INTER.VDW>
-20.5261

>  <SCORE.INTER.norm>
-0.633265

>  <SCORE.INTRA>
6.1971

>  <SCORE.INTRA.DIHEDRAL>
-0.088496

>  <SCORE.INTRA.DIHEDRAL.0>
22.9177

>  <SCORE.INTRA.POLAR>
-0.198771

>  <SCORE.INTRA.POLAR.0>
-0.311208

>  <SCORE.INTRA.REPUL>
0

>  <SCORE.INTRA.REPUL.0>
0

>  <SCORE.INTRA.SOLV>
-3.09466

>  <SCORE.INTRA.SOLV.lig_0>
-132.657

>  <SCORE.INTRA.VDW>
8.4645

>  <SCORE.INTRA.VDW.0>
-4.68867

>  <SCORE.INTRA.norm>
0.193659

>  <SCORE.RESTR>
7.00707

>  <SCORE.RESTR.CAVITY>
7.00707

>  <SCORE.RESTR.norm>
0.218971

>  <SCORE.SYSTEM>
0

>  <SCORE.SYSTEM.CONST>
0

>  <SCORE.SYSTEM.DIHEDRAL>
0

>  <SCORE.SYSTEM.SOLV>
0

>  <SCORE.SYSTEM.norm>
0

>  <SCORE.heavy>
32

>  <SCORE.norm>
-0.220635

>  <RMSD>
5.065

$$$$
1tob
 OpenBabel11021811413D
libRbt.so/2013.1/901 2013/11/27
 32 34  0  0  0  0  0  0  0  0999 V2000
   -1.8540    3.5309    2.9612 C   0  0  2  0  0  0  0  0  0  0  0  0
   -2.0508    2.1607    2.3169 C   0  0  1  0  0  0  0  0  0  0  0  0
   -1.2605    1.1129    3.0888 C   0  0  2  0  0  0  0  0  0  0  0  0
    0.2029    1.5329    3.1585 C   0  0  1  0  0  0  0  0  0  0  0  0
    0.3139    2.9252    3.7736 C   0  0  1  0  0  0  0  0  0  0  0  0
    1.7424    3.4324    3.7998 C   0  0  0  0  0  0  0  0  0  0  0  0
   -3.4300    1.8214    2.3239 O   0  0  0  0  0  0  0  0  0  0  0  0
   -1.4223   -0.2283    2.4868 N   0  3  0  0  0  0  0  0  0  0  0  0
    0.9356    0.5955    3.9360 O   0  0  0  0  0  0  0  0  0  0  0  0
   -0.4620    3.8693    3.0042 O   0  0  0  0  0  0  0  0  0  0  0  0
    2.5696    2.6115    4.6121 O   0  0  0  0  0  0  0  0  0  0  0  0
   -2.5059    5.8586    4.8709 C   0  0  2  0  0  0  0  0  0  0  0  0
   -3.4941    6.9728    5.1874 C   0  0  0  0  0  0  0  0  0  0  0  0
   -4.4354    7.2039    4.0050 C   0  0  1  0  0  0  0  0  0  0  0  0
   -5.2045    5.9202    3.7011 C   0  0  2  0  0  0  0  0  0  0  0  0
   -4.2266    4.7866    3.3884 C   0  0  1  0  0  0  0  0  0  0  0  0
   -3.2693    4.5799    4.5616 C   0  0  1  0  0  0  0  0  0  0  0  0
   -1.6136    5.6080    6.0240 N   0  3  0  0  0  0  0  0  0  0  0  0
   -5.3377    8.3488    4.2937 N   0  3  0  0  0  0  0  0  0  0  0  0
   -4.9451    3.5871    3.1335 O   0  0  0  0  0  0  0  0  0  0  0  0
   -2.3416    3.5235    4.2547 O   0  0  0  0  0  0  0  0  0  0  0  0
   -5.5233    6.6828    1.4470 C   0  0  1  0  0  0  0  0  0  0  0  0
   -6.5727    6.8234    0.3429 C   0  0  1  0  0  0  0  0  0  0  0  0
   -7.0890    5.4538   -0.0715 C   0  0  0  0  0  0  0  0  0  0  0  0
   -5.9150    4.5777   -0.4774 C   0  0  1  0  0  0  0  0  0  0  0  0
   -4.9048    4.5058    0.6670 C   0  0  1  0  0  0  0  0  0  0  0  0
   -3.6738    3.6924    0.3103 C   0  0  0  0  0  0  0  0  0  0  0  0
   -7.6701    7.7273    0.7614 N   0  3  0  0  0  0  0  0  0  0  0  0
   -2.4376    4.5040    0.4145 N   0  3  0  0  0  0  0  0  0  0  0  0
   -6.0933    6.1248    2.5836 O   0  0  0  0  0  0  0  0  0  0  0  0
   -6.3727    3.2732   -0.8023 O   0  0  0  0  0  0  0  0  0  0  0  0
   -4.4535    5.8325    1.0161 O   0  0  0  0  0  0  0  0  0  0  0  0
  1  2  1  0  0  0  0
  1 10  1  0  0  0  0
  1 21  1  1  0  0  0
  2  3  1  0  0  0  0
  2  7  1  1  0  0  0
  3  4  1  0  0  0  0
  3  8  1  6  0  0  0
  4  5  1  0  0  0  0
  4  9  1  1  0  0  0
  5  6  1  6  0  0  0
  5 10  1  0  0  0  0
  6 11  1  0  0  0  0
 12 13  1  0  0  0  0
 12 17  1  0  0  0  0
 12 18  1  1  0  0  0
 13 14  1  0  0  0  0
 14 15  1  0  0  0  0
 14 19  1  1  0  0  0
 15 16  1  0  0  0  0
 15 30  1  6  0  0  0
 16 17  1  0  0  0  0
 16 20  1  1  0  0  0
 17 21  1  6  0  0  0
 22 23  1  0  0  0  0
 22 30  1  1  0  0  0
 22 32  1  0  0  0  0
 23 24  1  0  0  0  0
 23 28  1  1  0  0  0
 24 25  1  0  0  0  0
 25 26  1  0  0  0  0
 25 31  1  1  0  0  0
 26 27  1  6  0  0  0
 26 32  1  0  0  0  0
 27 29  1  0  0  0  0
M  CHG  5   8   1  18   1  19   1  28   1  29   1
M  END
>  <CHROM.1>
-127.67724330,146.30455324,-157.83122975,-68.47077056,-62.79931160,-57.15705521
42.23178702,38.05774105,50.82200176,-159.95902205,-80.98031915,179.23734739
55.85380203,76.67267091,120.59191520,50.61271189,-3.19630510,4.31131694,2.66467976
0.18717659,0.61820058,-2.42280353

>  <Name>
1tob

>  <RI>
0

>  <Rbt.Current_Directory>
/home/itssahil/PROJECTS/Mol_Feturizer/New_Systems/rnas/1tob

>  <Rbt.Executable>
rbdock ($Id: //depot/dev/client3/rdock/2013.1/src/exe/rbdock.cxx#4 $)

>  <Rbt.Library>
libRbt.so (2013.1, Build901 2013/11/27)

>  <Rbt.Parameter_File>
/export/apps/rDock/src/rDock_2013.1_src/data/scripts/dock_solv.prm

>  <Rbt.Receptor>
prm/blind_docking_20.prm

>  <SCORE>
2.84478

>  <SCORE.INTER>
-12.9884

>  <SCORE.INTER.CONST>
1

>  <SCORE.INTER.POLAR>
-5.94669

>  <SCORE.INTER.ROT>
6

>  <SCORE.INTER.SOLV>
38.2925

>  <SCORE.INTER.VDW>
-9.20079

>  <SCORE.INTER.norm>
-0.405886

>  <SCORE.INTRA>
10.5901

>  <SCORE.INTRA.DIHEDRAL>
2.50757

>  <SCORE.INTRA.DIHEDRAL.0>
22.9177

>  <SCORE.INTRA.POLAR>
-0.218899

>  <SCORE.INTRA.POLAR.0>
-0.311208

>  <SCORE.INTRA.REPUL>
0

>  <SCORE.INTRA.REPUL.0>
0

>  <SCORE.INTRA.SOLV>
3.40698

>  <SCORE.INTRA.SOLV.lig_0>
-132.657

>  <SCORE.INTRA.VDW>
8.37705

>  <SCORE.INTRA.VDW.0>
-4.68867

>  <SCORE.INTRA.norm>
0.33094

>  <SCORE.RESTR>
5.24307

>  <SCORE.RESTR.CAVITY>
5.24307

>  <SCORE.RESTR.norm>
0.163846

>  <SCORE.SYSTEM>
0

>  <SCORE.SYSTEM.CONST>
0

>  <SCORE.SYSTEM.DIHEDRAL>
0

>  <SCORE.SYSTEM.SOLV>
0

>  <SCORE.SYSTEM.norm>
0

>  <SCORE.heavy>
32

>  <SCORE.norm>
0.0888995

>  <RMSD>
5.094

$$$$
1tob
 OpenBabel11021811413D
libRbt.so/2013.1/901 2013/11/27
 32 34  0  0  0  0  0  0  0  0999 V2000
   -0.1476    1.6147    5.1282 C   0  0  2  0  0  0  0  0  0  0  0  0
    0.4837    1.6942    6.5162 C   0  0  1  0  0  0  0  0  0  0  0  0
    1.0223    3.0982    6.7548 C   0  0  2  0  0  0  0  0  0  0  0  0
    1.9926    3.4644    5.6381 C   0  0  1  0  0  0  0  0  0  0  0  0
    1.3029    3.3205    4.2842 C   0  0  1  0  0  0  0  0  0  0  0  0
    2.2414    3.5974    3.1261 C   0  0  0  0  0  0  0  0  0  0  0  0
   -0.4880    1.3799    7.5034 O   0  0  0  0  0  0  0  0  0  0  0  0
    1.6489    3.2098    8.0898 N   0  3  0  0  0  0  0  0  0  0  0  0
    2.4478    4.7991    5.8151 O   0  0  0  0  0  0  0  0  0  0  0  0
    0.8075    1.9739    4.1219 O   0  0  0  0  0  0  0  0  0  0  0  0
    1.5275    3.7754    1.9109 O   0  0  0  0  0  0  0  0  0  0  0  0
   -2.3316    1.5913    3.0855 C   0  0  2  0  0  0  0  0  0  0  0  0
   -2.7814    1.9351    1.6721 C   0  0  0  0  0  0  0  0  0  0  0  0
   -3.7394    3.1264    1.6911 C   0  0  1  0  0  0  0  0  0  0  0  0
   -3.0420    4.3378    2.3060 C   0  0  2  0  0  0  0  0  0  0  0  0
   -2.5756    4.0079    3.7248 C   0  0  1  0  0  0  0  0  0  0  0  0
   -1.6419    2.7982    3.7030 C   0  0  1  0  0  0  0  0  0  0  0  0
   -1.3785    0.4600    3.0703 N   0  3  0  0  0  0  0  0  0  0  0  0
   -4.2363    3.3973    0.3171 N   0  3  0  0  0  0  0  0  0  0  0  0
   -1.9025    5.1282    4.2834 O   0  0  0  0  0  0  0  0  0  0  0  0
   -1.2199    2.4829    5.0422 O   0  0  0  0  0  0  0  0  0  0  0  0
   -5.1413    5.2739    2.9989 C   0  0  1  0  0  0  0  0  0  0  0  0
   -6.2796    5.9664    2.2474 C   0  0  1  0  0  0  0  0  0  0  0  0
   -6.0517    7.4701    2.2143 C   0  0  0  0  0  0  0  0  0  0  0  0
   -5.8816    7.9823    3.6353 C   0  0  1  0  0  0  0  0  0  0  0  0
   -4.7441    7.2282    4.3230 C   0  0  1  0  0  0  0  0  0  0  0  0
   -4.5545    7.6478    5.7694 C   0  0  0  0  0  0  0  0  0  0  0  0
   -6.4442    5.3996    0.8879 N   0  3  0  0  0  0  0  0  0  0  0  0
   -5.3074    8.8869    6.0785 N   0  3  0  0  0  0  0  0  0  0  0  0
   -3.9382    5.4676    2.3335 O   0  0  0  0  0  0  0  0  0  0  0  0
   -5.6000    9.3741    3.6189 O   0  0  0  0  0  0  0  0  0  0  0  0
   -5.0155    5.8098    4.3219 O   0  0  0  0  0  0  0  0  0  0  0  0
  1  2  1  0  0  0  0
  1 10  1  0  0  0  0
  1 21  1  1  0  0  0
  2  3  1  0  0  0  0
  2  7  1  1  0  0  0
  3  4  1  0  0  0  0
  3  8  1  1  0  0  0
  4  5  1  0  0  0  0
  4  9  1  1  0  0  0
  5  6  1  6  0  0  0
  5 10  1  0  0  0  0
  6 11  1  0  0  0  0
 12 13  1  0  0  0  0
 12 17  1  0  0  0  0
 12 18  1  6  0  0  0
 13 14  1  0  0  0  0
 14 15  1  0  0  0  0
 14 19  1  6  0  0  0
 15 16  1  0  0  0  0
 15 30  1  1  0  0  0
 16 17  1  0  0  0  0
 16 20  1  6  0  0  0
 17 21  1  1  0  0  0
 22 23  1  0  0  0  0
 22 30  1  6  0  0  0
 22 32  1  0  0  0  0
 23 24  1  0  0  0  0
 23 28  1  6  0  0  0
 24 25  1  0  0  0  0
 25 26  1  0  0  0  0
 25 31  1  6  0  0  0
 26 27  1  1  0  0  0
 26 32  1  0  0  0  0
 27 29  1  0  0  0  0
M  CHG  5   8   1  18   1  19   1  28   1  29   1
M  END
>  <CHROM.1>
162.22441252,-66.37560555,63.91280242,61.68877613,-165.95204362,57.85659409
-154.67785329,-135.82807106,56.57275604,61.68459547,71.98238310,-141.05342184
-68.77584443,58.65519613,-12.65896435,-43.69280534,-2.21002978,4.33103821
3.95592466,0.18072008,0.62432260,-2.35387619

>  <Name>
1tob

>  <RI>
0

>  <Rbt.Current_Directory>
/home/itssahil/PROJECTS/Mol_Feturizer/New_Systems/rnas/1tob

>  <Rbt.Executable>
rbdock ($Id: //depot/dev/client3/rdock/2013.1/src/exe/rbdock.cxx#4 $)

>  <Rbt.Library>
libRbt.so (2013.1, Build901 2013/11/27)

>  <Rbt.Parameter_File>
/export/apps/rDock/src/rDock_2013.1_src/data/scripts/dock_solv.prm

>  <Rbt.Receptor>
prm/blind_docking_20.prm

>  <SCORE>
-23.8905

>  <SCORE.INTER>
-39.4492

>  <SCORE.INTER.CONST>
1

>  <SCORE.INTER.POLAR>
-5.23455

>  <SCORE.INTER.ROT>
6

>  <SCORE.INTER.SOLV>
35.2553

>  <SCORE.INTER.VDW>
-28.2028

>  <SCORE.INTER.norm>
-1.23279

>  <SCORE.INTRA>
3.37928

>  <SCORE.INTRA.DIHEDRAL>
-4.40086

>  <SCORE.INTRA.DIHEDRAL.0>
22.9177

>  <SCORE.INTRA.POLAR>
-1.12891

>  <SCORE.INTRA.POLAR.0>
-0.311208

>  <SCORE.INTRA.REPUL>
0

>  <SCORE.INTRA.REPUL.0>
0

>  <SCORE.INTRA.SOLV>
5.88374

>  <SCORE.INTRA.SOLV.lig_0>
-132.657

>  <SCORE.INTRA.VDW>
6.47613

>  <SCORE.INTRA.VDW.0>
-4.68867

>  <SCORE.INTRA.norm>
0.105603

>  <SCORE.RESTR>
12.1794

>  <SCORE.RESTR.CAVITY>
12.1794

>  <SCORE.RESTR.norm>
0.380608

>  <SCORE.SYSTEM>
0

>  <SCORE.SYSTEM.CONST>
0

>  <SCORE.SYSTEM.DIHEDRAL>
0

>  <SCORE.SYSTEM.SOLV>
0

>  <SCORE.SYSTEM.norm>
0

>  <SCORE.heavy>
32

>  <SCORE.norm>
-0.746577

>  <RMSD>
5.113

$$$$
1tob
 OpenBabel11021811413D
libRbt.so/2013.1/901 2013/11/27
 32 34  0  0  0  0  0  0  0  0999 V2000
   -0.7489    3.6462    4.6451 C   0  0  2  0  0  0  0  0  0  0  0  0
    0.7123    3.2865    4.9034 C   0  0  1  0  0  0  0  0  0  0  0  0
    1.5663    3.7335    3.7248 C   0  0  2  0  0  0  0  0  0  0  0  0
    1.0200    3.1182    2.4420 C   0  0  1  0  0  0  0  0  0  0  0  0
   -0.4517    3.4870    2.2760 C   0  0  1  0  0  0  0  0  0  0  0  0
   -1.0747    2.8396    1.0549 C   0  0  0  0  0  0  0  0  0  0  0  0
    1.1609    3.9261    6.0896 O   0  0  0  0  0  0  0  0  0  0  0  0
    2.9899    3.3936    3.9379 N   0  3  0  0  0  0  0  0  0  0  0  0
    1.7692    3.5847    1.3279 O   0  0  0  0  0  0  0  0  0  0  0  0
   -1.2050    3.0459    3.4263 O   0  0  0  0  0  0  0  0  0  0  0  0
   -1.5333    1.5259    1.3410 O   0  0  0  0  0  0  0  0  0  0  0  0
   -2.2803    6.5184    5.8291 C   0  0  2  0  0  0  0  0  0  0  0  0
   -3.7037    7.0355    5.9868 C   0  0  0  0  0  0  0  0  0  0  0  0
   -4.1824    7.6870    4.6892 C   0  0  1  0  0  0  0  0  0  0  0  0
   -4.1406    6.6657    3.5548 C   0  0  2  0  0  0  0  0  0  0  0  0
   -2.7183    6.1288    3.3869 C   0  0  1  0  0  0  0  0  0  0  0  0
   -2.2342    5.5053    4.6956 C   0  0  1  0  0  0  0  0  0  0  0  0
   -1.8235    5.8574    7.0713 N   0  3  0  0  0  0  0  0  0  0  0  0
   -5.5389    8.2618    4.8829 N   0  3  0  0  0  0  0  0  0  0  0  0
   -2.6890    5.1583    2.3490 O   0  0  0  0  0  0  0  0  0  0  0  0
   -0.8900    5.0170    4.5360 O   0  0  0  0  0  0  0  0  0  0  0  0
   -4.1432    6.6670    1.1540 C   0  0  1  0  0  0  0  0  0  0  0  0
   -4.4571    7.5547   -0.0517 C   0  0  1  0  0  0  0  0  0  0  0  0
   -5.9613    7.7225   -0.2056 C   0  0  0  0  0  0  0  0  0  0  0  0
   -6.6118    6.3516   -0.2932 C   0  0  1  0  0  0  0  0  0  0  0  0
   -6.2332    5.5213    0.9327 C   0  0  1  0  0  0  0  0  0  0  0  0
   -6.8017    4.1147    0.8848 C   0  0  0  0  0  0  0  0  0  0  0  0
   -3.7603    8.8587    0.0496 N   0  3  0  0  0  0  0  0  0  0  0  0
   -8.2553    4.1260    0.5938 N   0  3  0  0  0  0  0  0  0  0  0  0
   -4.5861    7.2706    2.3234 O   0  0  0  0  0  0  0  0  0  0  0  0
   -8.0234    6.4883   -0.3687 O   0  0  0  0  0  0  0  0  0  0  0  0
   -4.7974    5.3986    1.0262 O   0  0  0  0  0  0  0  0  0  0  0  0
  1  2  1  0  0  0  0
  1 10  1  0  0  0  0
  1 21  1  6  0  0  0
  2  3  1  0  0  0  0
  2  7  1  1  0  0  0
  3  4  1  0  0  0  0
  3  8  1  1  0  0  0
  4  5  1  0  0  0  0
  4  9  1  6  0  0  0
  5  6  1  6  0  0  0
  5 10  1  0  0  0  0
  6 11  1  0  0  0  0
 12 13  1  0  0  0  0
 12 17  1  0  0  0  0
 12 18  1  1  0  0  0
 13 14  1  0  0  0  0
 14 15  1  0  0  0  0
 14 19  1  1  0  0  0
 15 16  1  0  0  0  0
 15 30  1  6  0  0  0
 16 17  1  0  0  0  0
 16 20  1  6  0  0  0
 17 21  1  6  0  0  0
 22 23  1  0  0  0  0
 22 30  1  1  0  0  0
 22 32  1  0  0  0  0
 23 24  1  0  0  0  0
 23 28  1  1  0  0  0
 24 25  1  0  0  0  0
 25 26  1  0  0  0  0
 25 31  1  1  0  0  0
 26 27  1  6  0  0  0
 26 32  1  0  0  0  0
 27 29  1  0  0  0  0
M  CHG  5   8   1  18   1  19   1  28   1  29   1
M  END
>  <CHROM.1>
-162.08412520,-53.52107936,-53.33443318,54.09841820,85.12840994,178.03807378
-97.18378998,-46.31681512,156.53595244,-53.96825049,122.80562676,-169.01513715
69.28141057,-59.67097200,-50.54183246,-42.13079013,-2.79835698,5.28187970
2.75129296,0.15940158,-0.52803548,1.03619816

>  <Name>
1tob

>  <RI>
0

>  <Rbt.Current_Directory>
/home/itssahil/PROJECTS/Mol_Feturizer/New_Systems/rnas/1tob

>  <Rbt.Executable>
rbdock ($Id: //depot/dev/client3/rdock/2013.1/src/exe/rbdock.cxx#4 $)

>  <Rbt.Library>
libRbt.so (2013.1, Build901 2013/11/27)

>  <Rbt.Parameter_File>
/export/apps/rDock/src/rDock_2013.1_src/data/scripts/dock_solv.prm

>  <Rbt.Receptor>
prm/blind_docking_60.prm

>  <SCORE>
-7.99775

>  <SCORE.INTER>
-16.7894

>  <SCORE.INTER.CONST>
1

>  <SCORE.INTER.POLAR>
-3.29405

>  <SCORE.INTER.ROT>
6

>  <SCORE.INTER.SOLV>
34.1094

>  <SCORE.INTER.VDW>
-19.1826

>  <SCORE.INTER.norm>
-0.524668

>  <SCORE.INTRA>
4.29188

>  <SCORE.INTRA.DIHEDRAL>
-4.64275

>  <SCORE.INTRA.DIHEDRAL.0>
22.9177

>  <SCORE.INTRA.POLAR>
0.292103

>  <SCORE.INTRA.POLAR.0>
-0.311208

>  <SCORE.INTRA.REPUL>
0

>  <SCORE.INTRA.REPUL.0>
0

>  <SCORE.INTRA.SOLV>
-3.01138

>  <SCORE.INTRA.SOLV.lig_0>
-132.657

>  <SCORE.INTRA.VDW>
7.12579

>  <SCORE.INTRA.VDW.0>
-4.68867

>  <SCORE.INTRA.norm>
0.134121

>  <SCORE.RESTR>
4.49974

>  <SCORE.RESTR.CAVITY>
4.49974

>  <SCORE.RESTR.norm>
0.140617

>  <SCORE.SYSTEM>
0

>  <SCORE.SYSTEM.CONST>
0

>  <SCORE.SYSTEM.DIHEDRAL>
0

>  <SCORE.SYSTEM.SOLV>
0

>  <SCORE.SYSTEM.norm>
0

>  <SCORE.heavy>
32

>  <SCORE.norm>
-0.24993

>  <RMSD>
5.117

$$$$
1tob
 OpenBabel11021811413D
libRbt.so/2013.1/901 2013/11/27
 32 34  0  0  0  0  0  0  0  0999 V2000
   -1.2411    3.2858    3.2083 C   0  0  2  0  0  0  0  0  0  0  0  0
   -1.6332    1.9711    2.5383 C   0  0  1  0  0  0  0  0  0  0  0  0
   -0.8580    0.8227    3.1697 C   0  0  2  0  0  0  0  0  0  0  0  0
    0.6357    1.1124    3.0829 C   0  0  1  0  0  0  0  0  0  0  0  0
    0.9415    2.4580    3.7349 C   0  0  1  0  0  0  0  0  0  0  0  0
    2.4036    2.8397    3.6125 C   0  0  0  0  0  0  0  0  0  0  0  0
   -3.0276    1.7506    2.6945 O   0  0  0  0  0  0  0  0  0  0  0  0
   -1.2080   -0.4682    2.5386 N   0  3  0  0  0  0  0  0  0  0  0  0
    1.3645    0.0786    3.7310 O   0  0  0  0  0  0  0  0  0  0  0  0
    0.1715    3.5018    3.1001 O   0  0  0  0  0  0  0  0  0  0  0  0
    2.7439    3.1676    2.2728 O   0  0  0  0  0  0  0  0  0  0  0  0
   -1.5900    5.5629    5.2815 C   0  0  2  0  0  0  0  0  0  0  0  0
   -2.4995    6.6956    5.7374 C   0  0  0  0  0  0  0  0  0  0  0  0
   -3.5341    7.0173    4.6587 C   0  0  1  0  0  0  0  0  0  0  0  0
   -4.3789    5.7784    4.3701 C   0  0  2  0  0  0  0  0  0  0  0  0
   -3.4800    4.6265    3.9180 C   0  0  1  0  0  0  0  0  0  0  0  0
   -2.4293    4.3291    4.9873 C   0  0  1  0  0  0  0  0  0  0  0  0
   -0.6077    5.2248    6.3348 N   0  3  0  0  0  0  0  0  0  0  0  0
   -4.3594    8.1788    5.0805 N   0  3  0  0  0  0  0  0  0  0  0  0
   -4.2666    3.4675    3.6772 O   0  0  0  0  0  0  0  0  0  0  0  0
   -1.5768    3.2558    4.5490 O   0  0  0  0  0  0  0  0  0  0  0  0
   -4.8630    6.6148    2.1724 C   0  0  1  0  0  0  0  0  0  0  0  0
   -5.9472    7.4391    1.4760 C   0  0  1  0  0  0  0  0  0  0  0  0
   -7.1112    6.5463    1.0732 C   0  0  0  0  0  0  0  0  0  0  0  0
   -6.5926    5.4036    0.2155 C   0  0  1  0  0  0  0  0  0  0  0  0
   -5.5015    4.6455    0.9707 C   0  0  1  0  0  0  0  0  0  0  0  0
   -4.8942    3.5225    0.1496 C   0  0  0  0  0  0  0  0  0  0  0  0
   -6.3844    8.5722    2.3252 N   0  3  0  0  0  0  0  0  0  0  0  0
   -3.5633    3.1278    0.6697 N   0  3  0  0  0  0  0  0  0  0  0  0
   -5.3563    6.0687    3.3499 O   0  0  0  0  0  0  0  0  0  0  0  0
   -7.6565    4.5220   -0.1130 O   0  0  0  0  0  0  0  0  0  0  0  0
   -4.4277    5.5430    1.3267 O   0  0  0  0  0  0  0  0  0  0  0  0
  1  2  1  0  0  0  0
  1 10  1  0  0  0  0
  1 21  1  1  0  0  0
  2  3  1  0  0  0  0
  2  7  1  1  0  0  0
  3  4  1  0  0  0  0
  3  8  1  6  0  0  0
  4  5  1  0  0  0  0
  4  9  1  1  0  0  0
  5  6  1  6  0  0  0
  5 10  1  0  0  0  0
  6 11  1  0  0  0  0
 12 13  1  0  0  0  0
 12 17  1  0  0  0  0
 12 18  1  1  0  0  0
 13 14  1  0  0  0  0
 14 15  1  0  0  0  0
 14 19  1  1  0  0  0
 15 16  1  0  0  0  0
 15 30  1  6  0  0  0
 16 17  1  0  0  0  0
 16 20  1  1  0  0  0
 17 21  1  6  0  0  0
 22 23  1  0  0  0  0
 22 30  1  1  0  0  0
 22 32  1  0  0  0  0
 23 24  1  0  0  0  0
 23 28  1  1  0  0  0
 24 25  1  0  0  0  0
 25 26  1  0  0  0  0
 25 31  1  1  0  0  0
 26 27  1  6  0  0  0
 26 32  1  0  0  0  0
 27 29  1  0  0  0  0
M  CHG  5   8   1  18   1  19   1  28   1  29   1
M  END
>  <CHROM.1>
-124.18789425,-178.92070312,62.70759713,174.33836302,70.28293523,67.78107143
104.00041791,-43.14750990,53.08863463,45.28541561,-82.83050786,-154.17292331
48.51275962,61.75110664,159.69058531,-70.37066619,-2.82611474,4.24373667
2.98838354,0.34017411,0.54415459,-2.49060269

>  <Name>
1tob

>  <RI>
0

>  <Rbt.Current_Directory>
/home/itssahil/PROJECTS/Mol_Feturizer/New_Systems/rnas/1tob

>  <Rbt.Executable>
rbdock ($Id: //depot/dev/client3/rdock/2013.1/src/exe/rbdock.cxx#4 $)

>  <Rbt.Library>
libRbt.so (2013.1, Build901 2013/11/27)

>  <Rbt.Parameter_File>
/export/apps/rDock/src/rDock_2013.1_src/data/scripts/dock_solv.prm

>  <Rbt.Receptor>
prm/blind_docking_20.prm

>  <SCORE>
-11.2091

>  <SCORE.INTER>
-24.8093

>  <SCORE.INTER.CONST>
1

>  <SCORE.INTER.POLAR>
-5.58143

>  <SCORE.INTER.ROT>
6

>  <SCORE.INTER.SOLV>
39.0485

>  <SCORE.INTER.VDW>
-18.5509

>  <SCORE.INTER.norm>
-0.77529

>  <SCORE.INTRA>
7.99178

>  <SCORE.INTRA.DIHEDRAL>
-2.80724

>  <SCORE.INTRA.DIHEDRAL.0>
22.9177

>  <SCORE.INTRA.POLAR>
-0.645963

>  <SCORE.INTRA.POLAR.0>
-0.311208

>  <SCORE.INTRA.REPUL>
0.3683

>  <SCORE.INTRA.REPUL.0>
0

>  <SCORE.INTRA.SOLV>
7.46799

>  <SCORE.INTRA.SOLV.lig_0>
-132.657

>  <SCORE.INTRA.VDW>
6.01618

>  <SCORE.INTRA.VDW.0>
-4.68867

>  <SCORE.INTRA.norm>
0.249743

>  <SCORE.RESTR>
5.60836

>  <SCORE.RESTR.CAVITY>
5.60836

>  <SCORE.RESTR.norm>
0.175261

>  <SCORE.SYSTEM>
0

>  <SCORE.SYSTEM.CONST>
0

>  <SCORE.SYSTEM.DIHEDRAL>
0

>  <SCORE.SYSTEM.SOLV>
0

>  <SCORE.SYSTEM.norm>
0

>  <SCORE.heavy>
32

>  <SCORE.norm>
-0.350285

>  <RMSD>
5.120

$$$$
1tob
 OpenBabel11021811413D
libRbt.so/2013.1/901 2013/11/27
 32 34  0  0  0  0  0  0  0  0999 V2000
    0.4845    2.6704    5.1751 C   0  0  2  0  0  0  0  0  0  0  0  0
    1.3585    1.6620    5.9170 C   0  0  1  0  0  0  0  0  0  0  0  0
    0.6871    1.2660    7.2249 C   0  0  2  0  0  0  0  0  0  0  0  0
    0.3972    2.5180    8.0440 C   0  0  1  0  0  0  0  0  0  0  0  0
   -0.4427    3.4921    7.2224 C   0  0  1  0  0  0  0  0  0  0  0  0
   -0.7004    4.7933    7.9564 C   0  0  0  0  0  0  0  0  0  0  0  0
    1.5513    0.5093    5.1096 O   0  0  0  0  0  0  0  0  0  0  0  0
    1.5114    0.2937    7.9750 N   0  3  0  0  0  0  0  0  0  0  0  0
   -0.2914    2.1641    9.2359 O   0  0  0  0  0  0  0  0  0  0  0  0
    0.2415    3.8211    5.9941 O   0  0  0  0  0  0  0  0  0  0  0  0
    0.4897    5.3045    8.5399 O   0  0  0  0  0  0  0  0  0  0  0  0
   -2.0050    1.4018    2.9151 C   0  0  2  0  0  0  0  0  0  0  0  0
   -2.6217    1.8973    1.6142 C   0  0  0  0  0  0  0  0  0  0  0  0
   -3.6290    3.0136    1.8915 C   0  0  1  0  0  0  0  0  0  0  0  0
   -2.9289    4.1761    2.5917 C   0  0  2  0  0  0  0  0  0  0  0  0
   -2.2958    3.6946    3.8981 C   0  0  1  0  0  0  0  0  0  0  0  0
   -1.3121    2.5590    3.6180 C   0  0  1  0  0  0  0  0  0  0  0  0
   -1.0052    0.3441    2.6501 N   0  3  0  0  0  0  0  0  0  0  0  0
   -4.2846    3.4289    0.6244 N   0  3  0  0  0  0  0  0  0  0  0  0
   -1.6215    4.7729    4.5328 O   0  0  0  0  0  0  0  0  0  0  0  0
   -0.7324    2.0994    4.8523 O   0  0  0  0  0  0  0  0  0  0  0  0
   -3.3770    6.3216    3.5713 C   0  0  1  0  0  0  0  0  0  0  0  0
   -4.5295    7.1880    4.0824 C   0  0  1  0  0  0  0  0  0  0  0  0
   -5.3137    7.7655    2.9137 C   0  0  0  0  0  0  0  0  0  0  0  0
   -4.3645    8.5213    1.9982 C   0  0  1  0  0  0  0  0  0  0  0  0
   -3.2336    7.5961    1.5502 C   0  0  1  0  0  0  0  0  0  0  0  0
   -2.2118    8.3018    0.6772 C   0  0  0  0  0  0  0  0  0  0  0  0
   -5.3976    6.4275    5.0121 N   0  3  0  0  0  0  0  0  0  0  0  0
   -1.4292    9.2948    1.4514 N   0  3  0  0  0  0  0  0  0  0  0  0
   -3.8708    5.2343    2.8628 O   0  0  0  0  0  0  0  0  0  0  0  0
   -5.0687    9.0093    0.8656 O   0  0  0  0  0  0  0  0  0  0  0  0
   -2.5288    7.0794    2.6998 O   0  0  0  0  0  0  0  0  0  0  0  0
  1  2  1  0  0  0  0
  1 10  1  0  0  0  0
  1 21  1  1  0  0  0
  2  3  1  0  0  0  0
  2  7  1  6  0  0  0
  3  4  1  0  0  0  0
  3  8  1  1  0  0  0
  4  5  1  0  0  0  0
  4  9  1  1  0  0  0
  5  6  1  1  0  0  0
  5 10  1  0  0  0  0
  6 11  1  0  0  0  0
 12 13  1  0  0  0  0
 12 17  1  0  0  0  0
 12 18  1  6  0  0  0
 13 14  1  0  0  0  0
 14 15  1  0  0  0  0
 14 19  1  6  0  0  0
 15 16  1  0  0  0  0
 15 30  1  1  0  0  0
 16 17  1  0  0  0  0
 16 20  1  6  0  0  0
 17 21  1  1  0  0  0
 22 23  1  0  0  0  0
 22 30  1  6  0  0  0
 22 32  1  0  0  0  0
 23 24  1  0  0  0  0
 23 28  1  1  0  0  0
 24 25  1  0  0  0  0
 25 26  1  0  0  0  0
 25 31  1  6  0  0  0
 26 27  1  6  0  0  0
 26 32  1  0  0  0  0
 27 29  1  0  0  0  0
M  CHG  5   8   1  18   1  19   1  28   1  29   1
M  END
>  <CHROM.1>
-146.89210417,175.73682726,-176.60801317,-53.88229358,46.58839880,-63.90649808
172.89563375,52.81965082,176.28631282,-56.26029308,142.92140375,-166.09966095
-162.51799651,-177.86212845,68.90151634,-177.03373930,-1.80412271,4.32999345
4.24801551,0.19716224,1.02562957,-2.52423356

>  <Name>
1tob

>  <RI>
0

>  <Rbt.Current_Directory>
/home/itssahil/PROJECTS/Mol_Feturizer/New_Systems/rnas/1tob

>  <Rbt.Executable>
rbdock ($Id: //depot/dev/client3/rdock/2013.1/src/exe/rbdock.cxx#4 $)

>  <Rbt.Library>
libRbt.so (2013.1, Build901 2013/11/27)

>  <Rbt.Parameter_File>
/export/apps/rDock/src/rDock_2013.1_src/data/scripts/dock_solv.prm

>  <Rbt.Receptor>
prm/pocket_docking_5.prm

>  <SCORE>
-42.1574

>  <SCORE.INTER>
-39.1475

>  <SCORE.INTER.CONST>
1

>  <SCORE.INTER.POLAR>
-5.18379

>  <SCORE.INTER.ROT>
6

>  <SCORE.INTER.SOLV>
33.8423

>  <SCORE.INTER.VDW>
-27.6998

>  <SCORE.INTER.norm>
-1.22336

>  <SCORE.INTRA>
-3.25208

>  <SCORE.INTRA.DIHEDRAL>
-10.5464

>  <SCORE.INTRA.DIHEDRAL.0>
22.9177

>  <SCORE.INTRA.POLAR>
0.276007

>  <SCORE.INTRA.POLAR.0>
-0.311208

>  <SCORE.INTRA.REPUL>
0

>  <SCORE.INTRA.REPUL.0>
0

>  <SCORE.INTRA.SOLV>
-4.20562

>  <SCORE.INTRA.SOLV.lig_0>
-132.657

>  <SCORE.INTRA.VDW>
3.1855

>  <SCORE.INTRA.VDW.0>
-4.68867

>  <SCORE.INTRA.norm>
-0.101627

>  <SCORE.RESTR>
0.242224

>  <SCORE.RESTR.CAVITY>
0.242224

>  <SCORE.RESTR.norm>
0.00756951

>  <SCORE.SYSTEM>
0

>  <SCORE.SYSTEM.CONST>
0

>  <SCORE.SYSTEM.DIHEDRAL>
0

>  <SCORE.SYSTEM.SOLV>
0

>  <SCORE.SYSTEM.norm>
0

>  <SCORE.heavy>
32

>  <SCORE.norm>
-1.31742

>  <RMSD>
5.122

$$$$
1tob
 OpenBabel11021811413D
libRbt.so/2013.1/901 2013/11/27
 32 34  0  0  0  0  0  0  0  0999 V2000
   -0.9266    3.1374    5.4113 C   0  0  2  0  0  0  0  0  0  0  0  0
    0.5229    3.1980    5.8872 C   0  0  1  0  0  0  0  0  0  0  0  0
    1.4602    3.0509    4.6962 C   0  0  2  0  0  0  0  0  0  0  0  0
    1.1322    1.7629    3.9505 C   0  0  1  0  0  0  0  0  0  0  0  0
   -0.3394    1.7586    3.5457 C   0  0  1  0  0  0  0  0  0  0  0  0
   -0.7471    0.4664    2.8657 C   0  0  0  0  0  0  0  0  0  0  0  0
    0.7633    4.4389    6.5352 O   0  0  0  0  0  0  0  0  0  0  0  0
    2.8757    3.0976    5.1220 N   0  3  0  0  0  0  0  0  0  0  0  0
    1.9562    1.6516    2.7978 O   0  0  0  0  0  0  0  0  0  0  0  0
   -1.1743    1.9100    4.7141 O   0  0  0  0  0  0  0  0  0  0  0  0
   -2.1477    0.4225    2.6320 O   0  0  0  0  0  0  0  0  0  0  0  0
   -2.5047    6.0897    5.2709 C   0  0  2  0  0  0  0  0  0  0  0  0
   -3.9225    6.6407    5.3377 C   0  0  0  0  0  0  0  0  0  0  0  0
   -4.5257    6.7352    3.9360 C   0  0  1  0  0  0  0  0  0  0  0  0
   -4.5535    5.3502    3.2934 C   0  0  2  0  0  0  0  0  0  0  0  0
   -3.1372    4.7770    3.2251 C   0  0  1  0  0  0  0  0  0  0  0  0
   -2.5284    4.7126    4.6255 C   0  0  1  0  0  0  0  0  0  0  0  0
   -1.9277    5.9649    6.6274 N   0  3  0  0  0  0  0  0  0  0  0  0
   -5.8754    7.3527    4.0072 N   0  3  0  0  0  0  0  0  0  0  0  0
   -3.1707    3.4768    2.6522 O   0  0  0  0  0  0  0  0  0  0  0  0
   -1.1904    4.1881    4.5527 O   0  0  0  0  0  0  0  0  0  0  0  0
   -6.1305    4.5221    1.6836 C   0  0  1  0  0  0  0  0  0  0  0  0
   -6.0216    4.0428    0.2351 C   0  0  1  0  0  0  0  0  0  0  0  0
   -6.2155    5.2091   -0.7223 C   0  0  0  0  0  0  0  0  0  0  0  0
   -7.5409    5.8894   -0.4209 C   0  0  1  0  0  0  0  0  0  0  0  0
   -7.5796    6.3174    1.0457 C   0  0  1  0  0  0  0  0  0  0  0  0
   -8.9016    6.9539    1.4346 C   0  0  0  0  0  0  0  0  0  0  0  0
   -4.7385    3.3392    0.0005 N   0  3  0  0  0  0  0  0  0  0  0  0
   -9.4472    6.3569    2.6771 N   0  3  0  0  0  0  0  0  0  0  0  0
   -5.1168    5.4275    1.9678 O   0  0  0  0  0  0  0  0  0  0  0  0
   -7.7066    7.0226   -1.2608 O   0  0  0  0  0  0  0  0  0  0  0  0
   -7.3888    5.1713    1.9034 O   0  0  0  0  0  0  0  0  0  0  0  0
  1  2  1  0  0  0  0
  1 10  1  0  0  0  0
  1 21  1  6  0  0  0
  2  3  1  0  0  0  0
  2  7  1  6  0  0  0
  3  4  1  0  0  0  0
  3  8  1  1  0  0  0
  4  5  1  0  0  0  0
  4  9  1  6  0  0  0
  5  6  1  1  0  0  0
  5 10  1  0  0  0  0
  6 11  1  0  0  0  0
 12 13  1  0  0  0  0
 12 17  1  0  0  0  0
 12 18  1  1  0  0  0
 13 14  1  0  0  0  0
 14 15  1  0  0  0  0
 14 19  1  1  0  0  0
 15 16  1  0  0  0  0
 15 30  1  6  0  0  0
 16 17  1  0  0  0  0
 16 20  1  1  0  0  0
 17 21  1  6  0  0  0
 22 23  1  0  0  0  0
 22 30  1  6  0  0  0
 22 32  1  0  0  0  0
 23 24  1  0  0  0  0
 23 28  1  1  0  0  0
 24 25  1  0  0  0  0
 25 26  1  0  0  0  0
 25 31  1  6  0  0  0
 26 27  1  1  0  0  0
 26 32  1  0  0  0  0
 27 29  1  0  0  0  0
M  CHG  5   8   1  18   1  19   1  28   1  29   1
M  END
>  <CHROM.1>
-146.18619293,-179.29729763,168.87579281,-51.75358751,173.48117221,43.30183479
152.05043467,-176.21530797,-129.76145809,-59.64649700,109.09404791,-143.06177677
-21.69122718,62.15784469,130.67972309,172.51194128,-3.32402998,4.38132714
3.13445700,0.07465065,-0.54754774,0.87721563

>  <Name>
1tob

>  <RI>
0

>  <Rbt.Current_Directory>
/home/itssahil/PROJECTS/Mol_Feturizer/New_Systems/rnas/1tob

>  <Rbt.Executable>
rbdock ($Id: //depot/dev/client3/rdock/2013.1/src/exe/rbdock.cxx#4 $)

>  <Rbt.Library>
libRbt.so (2013.1, Build901 2013/11/27)

>  <Rbt.Parameter_File>
/export/apps/rDock/src/rDock_2013.1_src/data/scripts/dock_solv.prm

>  <Rbt.Receptor>
prm/blind_docking_20.prm

>  <SCORE>
-26.6468

>  <SCORE.INTER>
-34.5345

>  <SCORE.INTER.CONST>
1

>  <SCORE.INTER.POLAR>
-6.69351

>  <SCORE.INTER.ROT>
6

>  <SCORE.INTER.SOLV>
36.5161

>  <SCORE.INTER.VDW>
-20.4833

>  <SCORE.INTER.norm>
-1.0792

>  <SCORE.INTRA>
-2.84826

>  <SCORE.INTRA.DIHEDRAL>
10.7694

>  <SCORE.INTRA.DIHEDRAL.0>
22.9177

>  <SCORE.INTRA.POLAR>
-2.80391

>  <SCORE.INTRA.POLAR.0>
-0.311208

>  <SCORE.INTRA.REPUL>
0

>  <SCORE.INTRA.REPUL.0>
0

>  <SCORE.INTRA.SOLV>
1.98338

>  <SCORE.INTRA.SOLV.lig_0>
-132.657

>  <SCORE.INTRA.VDW>
0.308637

>  <SCORE.INTRA.VDW.0>
-4.68867

>  <SCORE.INTRA.norm>
-0.0890082

>  <SCORE.RESTR>
10.736

>  <SCORE.RESTR.CAVITY>
10.736

>  <SCORE.RESTR.norm>
0.335499

>  <SCORE.SYSTEM>
0

>  <SCORE.SYSTEM.CONST>
0

>  <SCORE.SYSTEM.DIHEDRAL>
0

>  <SCORE.SYSTEM.SOLV>
0

>  <SCORE.SYSTEM.norm>
0

>  <SCORE.heavy>
32

>  <SCORE.norm>
-0.832713

>  <RMSD>
5.133

$$$$
1tob
 OpenBabel11021811413D
libRbt.so/2013.1/901 2013/11/27
 32 34  0  0  0  0  0  0  0  0999 V2000
   -0.1449    1.8331    5.3577 C   0  0  2  0  0  0  0  0  0  0  0  0
   -0.2221    2.6114    6.6690 C   0  0  1  0  0  0  0  0  0  0  0  0
   -0.9281    3.9401    6.4358 C   0  0  2  0  0  0  0  0  0  0  0  0
   -0.2117    4.7065    5.3303 C   0  0  1  0  0  0  0  0  0  0  0  0
   -0.1378    3.8497    4.0695 C   0  0  1  0  0  0  0  0  0  0  0  0
    0.6332    4.5287    2.9546 C   0  0  0  0  0  0  0  0  0  0  0  0
   -0.9356    1.8532    7.6352 O   0  0  0  0  0  0  0  0  0  0  0  0
   -1.0143    4.7254    7.6860 N   0  3  0  0  0  0  0  0  0  0  0  0
   -0.9041    5.9175    5.0583 O   0  0  0  0  0  0  0  0  0  0  0  0
    0.5324    2.6034    4.3568 O   0  0  0  0  0  0  0  0  0  0  0  0
    0.3795    3.9143    1.6992 O   0  0  0  0  0  0  0  0  0  0  0  0
   -1.9764    1.0477    2.5976 C   0  0  2  0  0  0  0  0  0  0  0  0
   -2.3440    1.6843    1.2643 C   0  0  0  0  0  0  0  0  0  0  0  0
   -3.6120    2.5267    1.4058 C   0  0  1  0  0  0  0  0  0  0  0  0
   -3.3872    3.6247    2.4429 C   0  0  2  0  0  0  0  0  0  0  0  0
   -3.0088    3.0034    3.7883 C   0  0  1  0  0  0  0  0  0  0  0  0
   -1.7579    2.1388    3.6345 C   0  0  1  0  0  0  0  0  0  0  0  0
   -0.7317    0.2579    2.4745 N   0  3  0  0  0  0  0  0  0  0  0  0
   -4.0066    3.0724    0.0812 N   0  3  0  0  0  0  0  0  0  0  0  0
   -2.7731    4.0292    4.7435 O   0  0  0  0  0  0  0  0  0  0  0  0
   -1.4168    1.5441    4.8997 O   0  0  0  0  0  0  0  0  0  0  0  0
   -4.5569    5.6676    1.9714 C   0  0  1  0  0  0  0  0  0  0  0  0
   -5.1694    6.7258    2.8907 C   0  0  1  0  0  0  0  0  0  0  0  0
   -6.6340    6.4108    3.1551 C   0  0  0  0  0  0  0  0  0  0  0  0
   -7.3659    6.2820    1.8291 C   0  0  1  0  0  0  0  0  0  0  0  0
   -6.6821    5.2249    0.9628 C   0  0  1  0  0  0  0  0  0  0  0  0
   -7.3261    5.0832   -0.4045 C   0  0  0  0  0  0  0  0  0  0  0  0
   -4.3936    6.8553    4.1469 N   0  3  0  0  0  0  0  0  0  0  0  0
   -6.4946    4.2588   -1.3137 N   0  3  0  0  0  0  0  0  0  0  0  0
   -4.5791    4.4239    2.5885 O   0  0  0  0  0  0  0  0  0  0  0  0
   -8.7204    5.9205    2.0557 O   0  0  0  0  0  0  0  0  0  0  0  0
   -5.2980    5.5767    0.7485 O   0  0  0  0  0  0  0  0  0  0  0  0
  1  2  1  0  0  0  0
  1 10  1  0  0  0  0
  1 21  1  6  0  0  0
  2  3  1  0  0  0  0
  2  7  1  1  0  0  0
  3  4  1  0  0  0  0
  3  8  1  1  0  0  0
  4  5  1  0  0  0  0
  4  9  1  6  0  0  0
  5  6  1  6  0  0  0
  5 10  1  0  0  0  0
  6 11  1  0  0  0  0
 12 13  1  0  0  0  0
 12 17  1  0  0  0  0
 12 18  1  6  0  0  0
 13 14  1  0  0  0  0
 14 15  1  0  0  0  0
 14 19  1  6  0  0  0
 15 16  1  0  0  0  0
 15 30  1  1  0  0  0
 16 17  1  0  0  0  0
 16 20  1  1  0  0  0
 17 21  1  1  0  0  0
 22 23  1  0  0  0  0
 22 30  1  1  0  0  0
 22 32  1  0  0  0  0
 23 24  1  0  0  0  0
 23 28  1  1  0  0  0
 24 25  1  0  0  0  0
 25 26  1  0  0  0  0
 25 31  1  1  0  0  0
 26 27  1  6  0  0  0
 26 32  1  0  0  0  0
 27 29  1  0  0  0  0
M  CHG  5   8   1  18   1  19   1  28   1  29   1
M  END
>  <CHROM.1>
117.03611790,83.34354698,34.64714532,-59.48394506,-163.46548037,74.78172783
48.21641435,-13.11303519,-103.24472171,-162.57754855,115.36592437,-137.63728115
-162.38232792,70.94781003,168.75181225,-46.85612994,-2.97367867,3.93860510
3.23027118,-0.27921858,0.62616376,-2.15559603

>  <Name>
1tob

>  <RI>
0

>  <Rbt.Current_Directory>
/home/itssahil/PROJECTS/Mol_Feturizer/New_Systems/rnas/1tob

>  <Rbt.Executable>
rbdock ($Id: //depot/dev/client3/rdock/2013.1/src/exe/rbdock.cxx#4 $)

>  <Rbt.Library>
libRbt.so (2013.1, Build901 2013/11/27)

>  <Rbt.Parameter_File>
/export/apps/rDock/src/rDock_2013.1_src/data/scripts/dock_solv.prm

>  <Rbt.Receptor>
prm/blind_docking_100.prm

>  <SCORE>
25.089

>  <SCORE.INTER>
-15.6243

>  <SCORE.INTER.CONST>
1

>  <SCORE.INTER.POLAR>
-5.904

>  <SCORE.INTER.ROT>
6

>  <SCORE.INTER.SOLV>
43.541

>  <SCORE.INTER.VDW>
-12.8499

>  <SCORE.INTER.norm>
-0.488259

>  <SCORE.INTRA>
32.3778

>  <SCORE.INTRA.DIHEDRAL>
15.6592

>  <SCORE.INTRA.DIHEDRAL.0>
22.9177

>  <SCORE.INTRA.POLAR>
-1.72437

>  <SCORE.INTRA.POLAR.0>
-0.311208

>  <SCORE.INTRA.REPUL>
0

>  <SCORE.INTRA.REPUL.0>
0

>  <SCORE.INTRA.SOLV>
8.85498

>  <SCORE.INTRA.SOLV.lig_0>
-132.657

>  <SCORE.INTRA.VDW>
25.9835

>  <SCORE.INTRA.VDW.0>
-4.68867

>  <SCORE.INTRA.norm>
1.01181

>  <SCORE.RESTR>
8.33551

>  <SCORE.RESTR.CAVITY>
8.33551

>  <SCORE.RESTR.norm>
0.260485

>  <SCORE.SYSTEM>
0

>  <SCORE.SYSTEM.CONST>
0

>  <SCORE.SYSTEM.DIHEDRAL>
0

>  <SCORE.SYSTEM.SOLV>
0

>  <SCORE.SYSTEM.norm>
0

>  <SCORE.heavy>
32

>  <SCORE.norm>
0.784031

>  <RMSD>
5.154

$$$$
1tob
 OpenBabel11021811413D
libRbt.so/2013.1/901 2013/11/27
 32 34  0  0  0  0  0  0  0  0999 V2000
   -0.2759    3.6761    3.8418 C   0  0  2  0  0  0  0  0  0  0  0  0
    1.0815    3.5264    4.5246 C   0  0  1  0  0  0  0  0  0  0  0  0
    1.7984    2.2999    3.9770 C   0  0  2  0  0  0  0  0  0  0  0  0
    0.9080    1.0749    4.1483 C   0  0  1  0  0  0  0  0  0  0  0  0
   -0.4412    1.3168    3.4771 C   0  0  1  0  0  0  0  0  0  0  0  0
   -1.4017    0.1614    3.6792 C   0  0  0  0  0  0  0  0  0  0  0  0
    1.8674    4.6857    4.2883 O   0  0  0  0  0  0  0  0  0  0  0  0
    3.1166    2.1194    4.6229 N   0  3  0  0  0  0  0  0  0  0  0  0
    1.5405   -0.0628    3.5777 O   0  0  0  0  0  0  0  0  0  0  0  0
   -1.0654    2.4950    4.0315 O   0  0  0  0  0  0  0  0  0  0  0  0
   -2.7444    0.5532    3.4308 O   0  0  0  0  0  0  0  0  0  0  0  0
   -2.1055    2.8741    1.5550 C   0  0  2  0  0  0  0  0  0  0  0  0
   -3.3851    3.1830    0.7899 C   0  0  0  0  0  0  0  0  0  0  0  0
   -4.2328    4.1998    1.5547 C   0  0  1  0  0  0  0  0  0  0  0  0
   -3.4386    5.4895    1.7490 C   0  0  2  0  0  0  0  0  0  0  0  0
   -2.1444    5.1968    2.5097 C   0  0  1  0  0  0  0  0  0  0  0  0
   -1.3151    4.1580    1.7555 C   0  0  1  0  0  0  0  0  0  0  0  0
   -1.2655    1.9156    0.8038 N   0  3  0  0  0  0  0  0  0  0  0  0
   -5.5155    4.4278    0.8400 N   0  3  0  0  0  0  0  0  0  0  0  0
   -1.3949    6.3945    2.6640 O   0  0  0  0  0  0  0  0  0  0  0  0
   -0.1070    3.8748    2.4843 O   0  0  0  0  0  0  0  0  0  0  0  0
   -5.0386    5.9471    3.4794 C   0  0  1  0  0  0  0  0  0  0  0  0
   -5.6396    7.0880    4.3024 C   0  0  1  0  0  0  0  0  0  0  0  0
   -4.5385    7.8702    5.0024 C   0  0  0  0  0  0  0  0  0  0  0  0
   -3.6987    6.9162    5.8361 C   0  0  1  0  0  0  0  0  0  0  0  0
   -3.1547    5.7973    4.9486 C   0  0  1  0  0  0  0  0  0  0  0  0
   -2.3519    4.7711    5.7274 C   0  0  0  0  0  0  0  0  0  0  0  0
   -6.4926    7.9609    3.4616 N   0  3  0  0  0  0  0  0  0  0  0  0
   -1.1130    5.3620    6.2875 N   0  3  0  0  0  0  0  0  0  0  0  0
   -4.2270    6.4555    2.4739 O   0  0  0  0  0  0  0  0  0  0  0  0
   -2.6242    7.6192    6.4427 O   0  0  0  0  0  0  0  0  0  0  0  0
   -4.2433    5.0939    4.3117 O   0  0  0  0  0  0  0  0  0  0  0  0
  1  2  1  0  0  0  0
  1 10  1  0  0  0  0
  1 21  1  6  0  0  0
  2  3  1  0  0  0  0
  2  7  1  6  0  0  0
  3  4  1  0  0  0  0
  3  8  1  1  0  0  0
  4  5  1  0  0  0  0
  4  9  1  6  0  0  0
  5  6  1  1  0  0  0
  5 10  1  0  0  0  0
  6 11  1  0  0  0  0
 12 13  1  0  0  0  0
 12 17  1  0  0  0  0
 12 18  1  6  0  0  0
 13 14  1  0  0  0  0
 14 15  1  0  0  0  0
 14 19  1  6  0  0  0
 15 16  1  0  0  0  0
 15 30  1  1  0  0  0
 16 17  1  0  0  0  0
 16 20  1  6  0  0  0
 17 21  1  1  0  0  0
 22 23  1  0  0  0  0
 22 30  1  6  0  0  0
 22 32  1  0  0  0  0
 23 24  1  0  0  0  0
 23 28  1  6  0  0  0
 24 25  1  0  0  0  0
 25 26  1  0  0  0  0
 25 31  1  6  0  0  0
 26 27  1  1  0  0  0
 26 32  1  0  0  0  0
 27 29  1  0  0  0  0
M  CHG  5   8   1  18   1  19   1  28   1  29   1
M  END
>  <CHROM.1>
-174.27256373,177.64484216,-62.84778493,-45.43775415,161.66737706,100.76052247
111.64770271,-56.08827047,37.14893368,64.47059096,-76.58306538,171.02504617
-48.66928046,70.06367471,-65.58204898,31.95961583,-1.96077430,4.20114474
3.52421844,-0.54652314,-0.51356722,0.70256095

>  <Name>
1tob

>  <RI>
0

>  <Rbt.Current_Directory>
/home/itssahil/PROJECTS/Mol_Feturizer/New_Systems/rnas/1tob

>  <Rbt.Executable>
rbdock ($Id: //depot/dev/client3/rdock/2013.1/src/exe/rbdock.cxx#4 $)

>  <Rbt.Library>
libRbt.so (2013.1, Build901 2013/11/27)

>  <Rbt.Parameter_File>
/export/apps/rDock/src/rDock_2013.1_src/data/scripts/dock_solv.prm

>  <Rbt.Receptor>
prm/blind_docking_40.prm

>  <SCORE>
-0.136171

>  <SCORE.INTER>
-12.3719

>  <SCORE.INTER.CONST>
1

>  <SCORE.INTER.POLAR>
-7.15997

>  <SCORE.INTER.ROT>
6

>  <SCORE.INTER.SOLV>
35.7991

>  <SCORE.INTER.VDW>
-3.91444

>  <SCORE.INTER.norm>
-0.386623

>  <SCORE.INTRA>
8.2884

>  <SCORE.INTRA.DIHEDRAL>
-4.92357

>  <SCORE.INTRA.DIHEDRAL.0>
22.9177

>  <SCORE.INTRA.POLAR>
-0.619673

>  <SCORE.INTRA.POLAR.0>
-0.311208

>  <SCORE.INTRA.REPUL>
0

>  <SCORE.INTRA.REPUL.0>
0

>  <SCORE.INTRA.SOLV>
5.82669

>  <SCORE.INTRA.SOLV.lig_0>
-132.657

>  <SCORE.INTRA.VDW>
9.94373

>  <SCORE.INTRA.VDW.0>
-4.68867

>  <SCORE.INTRA.norm>
0.259012

>  <SCORE.RESTR>
3.94737

>  <SCORE.RESTR.CAVITY>
3.94737

>  <SCORE.RESTR.norm>
0.123355

>  <SCORE.SYSTEM>
0

>  <SCORE.SYSTEM.CONST>
0

>  <SCORE.SYSTEM.DIHEDRAL>
0

>  <SCORE.SYSTEM.SOLV>
0

>  <SCORE.SYSTEM.norm>
0

>  <SCORE.heavy>
32

>  <SCORE.norm>
-0.00425534

>  <RMSD>
5.155

$$$$
1tob
 OpenBabel11021811413D
libRbt.so/2013.1/901 2013/11/27
 32 34  0  0  0  0  0  0  0  0999 V2000
    0.6591    2.4054    5.5044 C   0  0  2  0  0  0  0  0  0  0  0  0
    1.5547    1.2502    5.9455 C   0  0  1  0  0  0  0  0  0  0  0  0
    1.0155    0.6471    7.2354 C   0  0  2  0  0  0  0  0  0  0  0  0
    0.8902    1.7392    8.2908 C   0  0  1  0  0  0  0  0  0  0  0  0
    0.0175    2.8740    7.7616 C   0  0  1  0  0  0  0  0  0  0  0  0
   -0.0827    4.0289    8.7387 C   0  0  0  0  0  0  0  0  0  0  0  0
    1.5905    0.2569    4.9308 O   0  0  0  0  0  0  0  0  0  0  0  0
    1.8646   -0.4725    7.6969 N   0  3  0  0  0  0  0  0  0  0  0  0
    0.3230    1.1990    9.4768 O   0  0  0  0  0  0  0  0  0  0  0  0
    0.5748    3.3965    6.5362 O   0  0  0  0  0  0  0  0  0  0  0  0
    1.1727    4.6698    8.9151 O   0  0  0  0  0  0  0  0  0  0  0  0
   -1.9715    1.2271    3.3638 C   0  0  2  0  0  0  0  0  0  0  0  0
   -2.5513    1.6790    2.0304 C   0  0  0  0  0  0  0  0  0  0  0  0
   -3.4422    2.9063    2.2235 C   0  0  1  0  0  0  0  0  0  0  0  0
   -2.6249    4.0453    2.8290 C   0  0  2  0  0  0  0  0  0  0  0  0
   -2.0275    3.6062    4.1667 C   0  0  1  0  0  0  0  0  0  0  0  0
   -1.1619    2.3617    3.9724 C   0  0  1  0  0  0  0  0  0  0  0  0
   -1.0822    0.0596    3.1786 N   0  3  0  0  0  0  0  0  0  0  0  0
   -4.0681    3.2850    0.9301 N   0  3  0  0  0  0  0  0  0  0  0  0
   -1.2448    4.6591    4.7136 O   0  0  0  0  0  0  0  0  0  0  0  0
   -0.6162    1.9441    5.2368 O   0  0  0  0  0  0  0  0  0  0  0  0
   -3.6938    5.9790    1.8899 C   0  0  1  0  0  0  0  0  0  0  0  0
   -3.0515    7.3586    2.0455 C   0  0  1  0  0  0  0  0  0  0  0  0
   -3.6850    8.1071    3.2086 C   0  0  0  0  0  0  0  0  0  0  0  0
   -5.1894    8.1733    3.0018 C   0  0  1  0  0  0  0  0  0  0  0  0
   -5.7498    6.7616    2.8334 C   0  0  1  0  0  0  0  0  0  0  0  0
   -7.2436    6.7536    2.5636 C   0  0  0  0  0  0  0  0  0  0  0  0
   -1.5806    7.2495    2.1903 N   0  3  0  0  0  0  0  0  0  0  0  0
   -7.5591    7.3364    1.2375 N   0  3  0  0  0  0  0  0  0  0  0  0
   -3.4565    5.2082    3.0202 O   0  0  0  0  0  0  0  0  0  0  0  0
   -5.8042    8.8095    4.1127 O   0  0  0  0  0  0  0  0  0  0  0  0
   -5.1110    6.1025    1.7185 O   0  0  0  0  0  0  0  0  0  0  0  0
  1  2  1  0  0  0  0
  1 10  1  0  0  0  0
  1 21  1  1  0  0  0
  2  3  1  0  0  0  0
  2  7  1  6  0  0  0
  3  4  1  0  0  0  0
  3  8  1  1  0  0  0
  4  5  1  0  0  0  0
  4  9  1  1  0  0  0
  5  6  1  1  0  0  0
  5 10  1  0  0  0  0
  6 11  1  0  0  0  0
 12 13  1  0  0  0  0
 12 17  1  0  0  0  0
 12 18  1  6  0  0  0
 13 14  1  0  0  0  0
 14 15  1  0  0  0  0
 14 19  1  6  0  0  0
 15 16  1  0  0  0  0
 15 30  1  1  0  0  0
 16 17  1  0  0  0  0
 16 20  1  6  0  0  0
 17 21  1  1  0  0  0
 22 23  1  0  0  0  0
 22 30  1  1  0  0  0
 22 32  1  0  0  0  0
 23 24  1  0  0  0  0
 23 28  1  1  0  0  0
 24 25  1  0  0  0  0
 25 26  1  0  0  0  0
 25 31  1  1  0  0  0
 26 27  1  6  0  0  0
 26 32  1  0  0  0  0
 27 29  1  0  0  0  0
M  CHG  5   8   1  18   1  19   1  28   1  29   1
M  END
>  <CHROM.1>
-130.28979464,72.24902520,-151.80691000,-59.23058304,65.86113352,-172.61280902
-106.11967810,53.41241419,-79.65747448,63.08533779,142.29341579,-114.28586702
-178.27141490,48.43787203,67.56261813,175.36824738,-1.96483049,3.92604425
4.43578175,0.11440492,0.87258718,-2.45067490

>  <Name>
1tob

>  <RI>
0

>  <Rbt.Current_Directory>
/home/itssahil/PROJECTS/Mol_Feturizer/New_Systems/rnas/1tob

>  <Rbt.Executable>
rbdock ($Id: //depot/dev/client3/rdock/2013.1/src/exe/rbdock.cxx#4 $)

>  <Rbt.Library>
libRbt.so (2013.1, Build901 2013/11/27)

>  <Rbt.Parameter_File>
/export/apps/rDock/src/rDock_2013.1_src/data/scripts/dock_solv.prm

>  <Rbt.Receptor>
prm/pocket_docking_6.prm

>  <SCORE>
-40.7908

>  <SCORE.INTER>
-37.7022

>  <SCORE.INTER.CONST>
1

>  <SCORE.INTER.POLAR>
-4.75393

>  <SCORE.INTER.ROT>
6

>  <SCORE.INTER.SOLV>
26.0323

>  <SCORE.INTER.VDW>
-25.5658

>  <SCORE.INTER.norm>
-1.17819

>  <SCORE.INTRA>
-3.08867

>  <SCORE.INTRA.DIHEDRAL>
4.41521

>  <SCORE.INTRA.DIHEDRAL.0>
22.9177

>  <SCORE.INTRA.POLAR>
-1.67961

>  <SCORE.INTRA.POLAR.0>
-0.311208

>  <SCORE.INTRA.REPUL>
0

>  <SCORE.INTRA.REPUL.0>
0

>  <SCORE.INTRA.SOLV>
-0.664057

>  <SCORE.INTRA.SOLV.lig_0>
-132.657

>  <SCORE.INTRA.VDW>
0.746416

>  <SCORE.INTRA.VDW.0>
-4.68867

>  <SCORE.INTRA.norm>
-0.0965209

>  <SCORE.RESTR>
0

>  <SCORE.RESTR.CAVITY>
0

>  <SCORE.RESTR.norm>
0

>  <SCORE.SYSTEM>
0

>  <SCORE.SYSTEM.CONST>
0

>  <SCORE.SYSTEM.DIHEDRAL>
0

>  <SCORE.SYSTEM.SOLV>
0

>  <SCORE.SYSTEM.norm>
0

>  <SCORE.heavy>
32

>  <SCORE.norm>
-1.27471

>  <RMSD>
5.186

$$$$
1tob
 OpenBabel11021811413D
libRbt.so/2013.1/901 2013/11/27
 32 34  0  0  0  0  0  0  0  0999 V2000
   -1.3140    3.3719    3.1053 C   0  0  2  0  0  0  0  0  0  0  0  0
   -1.4156    1.9445    2.5729 C   0  0  1  0  0  0  0  0  0  0  0  0
   -0.4186    1.0535    3.3012 C   0  0  2  0  0  0  0  0  0  0  0  0
    0.9805    1.6418    3.1631 C   0  0  1  0  0  0  0  0  0  0  0  0
    0.9914    3.0792    3.6759 C   0  0  1  0  0  0  0  0  0  0  0  0
    2.3404    3.7467    3.4939 C   0  0  0  0  0  0  0  0  0  0  0  0
   -2.7327    1.4513    2.7717 O   0  0  0  0  0  0  0  0  0  0  0  0
   -0.4843   -0.3381    2.8046 N   0  3  0  0  0  0  0  0  0  0  0  0
    1.9080    0.8541    3.8975 O   0  0  0  0  0  0  0  0  0  0  0  0
    0.0216    3.8692    2.9544 O   0  0  0  0  0  0  0  0  0  0  0  0
    3.3713    3.0202    4.1477 O   0  0  0  0  0  0  0  0  0  0  0  0
   -1.7578    5.6357    5.3785 C   0  0  2  0  0  0  0  0  0  0  0  0
   -2.7200    6.7483    5.7715 C   0  0  0  0  0  0  0  0  0  0  0  0
   -3.5430    7.1948    4.5628 C   0  0  1  0  0  0  0  0  0  0  0  0
   -4.3382    6.0113    4.0162 C   0  0  2  0  0  0  0  0  0  0  0  0
   -3.3874    4.8795    3.6232 C   0  0  1  0  0  0  0  0  0  0  0  0
   -2.5466    4.4576    4.8277 C   0  0  1  0  0  0  0  0  0  0  0  0
   -0.9820    5.1767    6.5515 N   0  3  0  0  0  0  0  0  0  0  0  0
   -4.4159    8.3367    4.9398 N   0  3  0  0  0  0  0  0  0  0  0  0
   -4.1328    3.7696    3.1411 O   0  0  0  0  0  0  0  0  0  0  0  0
   -1.6429    3.4042    4.4475 O   0  0  0  0  0  0  0  0  0  0  0  0
   -4.3976    6.7001    1.7171 C   0  0  1  0  0  0  0  0  0  0  0  0
   -5.2346    7.5606    0.7690 C   0  0  1  0  0  0  0  0  0  0  0  0
   -6.4741    6.8001    0.3222 C   0  0  0  0  0  0  0  0  0  0  0  0
   -6.0541    5.4756   -0.2941 C   0  0  1  0  0  0  0  0  0  0  0  0
   -5.2064    4.6878    0.7041 C   0  0  1  0  0  0  0  0  0  0  0  0
   -4.7009    3.3749    0.1339 C   0  0  0  0  0  0  0  0  0  0  0  0
   -5.5754    8.8623    1.3900 N   0  3  0  0  0  0  0  0  0  0  0  0
   -3.3799    3.0102    0.6993 N   0  3  0  0  0  0  0  0  0  0  0  0
   -5.1156    6.4196    2.8719 O   0  0  0  0  0  0  0  0  0  0  0  0
   -7.2028    4.7225   -0.6549 O   0  0  0  0  0  0  0  0  0  0  0  0
   -4.0487    5.4592    1.0913 O   0  0  0  0  0  0  0  0  0  0  0  0
  1  2  1  0  0  0  0
  1 10  1  0  0  0  0
  1 21  1  1  0  0  0
  2  3  1  0  0  0  0
  2  7  1  1  0  0  0
  3  4  1  0  0  0  0
  3  8  1  6  0  0  0
  4  5  1  0  0  0  0
  4  9  1  1  0  0  0
  5  6  1  6  0  0  0
  5 10  1  0  0  0  0
  6 11  1  0  0  0  0
 12 13  1  0  0  0  0
 12 17  1  0  0  0  0
 12 18  1  1  0  0  0
 13 14  1  0  0  0  0
 14 15  1  0  0  0  0
 14 19  1  1  0  0  0
 15 16  1  0  0  0  0
 15 30  1  6  0  0  0
 16 17  1  0  0  0  0
 16 20  1  1  0  0  0
 17 21  1  6  0  0  0
 22 23  1  0  0  0  0
 22 30  1  1  0  0  0
 22 32  1  0  0  0  0
 23 24  1  0  0  0  0
 23 28  1  1  0  0  0
 24 25  1  0  0  0  0
 25 26  1  0  0  0  0
 25 31  1  1  0  0  0
 26 27  1  6  0  0  0
 26 32  1  0  0  0  0
 27 29  1  0  0  0  0
M  CHG  5   8   1  18   1  19   1  28   1  29   1
M  END
>  <CHROM.1>
-133.81363453,-11.32210207,25.35753316,176.18538882,-57.62288206,-64.61412581
-41.86639740,-168.03602404,70.65635888,-40.90050883,-96.99066505,-160.34802595
-61.37795588,67.05461587,148.10739514,171.43524569,-2.59718870,4.41996448
2.88185177,0.24097785,0.61927312,-2.47550048

>  <Name>
1tob

>  <RI>
0

>  <Rbt.Current_Directory>
/home/itssahil/PROJECTS/Mol_Feturizer/New_Systems/rnas/1tob

>  <Rbt.Executable>
rbdock ($Id: //depot/dev/client3/rdock/2013.1/src/exe/rbdock.cxx#4 $)

>  <Rbt.Library>
libRbt.so (2013.1, Build901 2013/11/27)

>  <Rbt.Parameter_File>
/export/apps/rDock/src/rDock_2013.1_src/data/scripts/dock_solv.prm

>  <Rbt.Receptor>
prm/blind_docking_40.prm

>  <SCORE>
-9.12527

>  <SCORE.INTER>
-23.7035

>  <SCORE.INTER.CONST>
1

>  <SCORE.INTER.POLAR>
-4.34184

>  <SCORE.INTER.ROT>
6

>  <SCORE.INTER.SOLV>
36.2439

>  <SCORE.INTER.VDW>
-21.0109

>  <SCORE.INTER.norm>
-0.740736

>  <SCORE.INTRA>
6.24634

>  <SCORE.INTRA.DIHEDRAL>
5.85313

>  <SCORE.INTRA.DIHEDRAL.0>
22.9177

>  <SCORE.INTRA.POLAR>
-1.78218

>  <SCORE.INTRA.POLAR.0>
-0.311208

>  <SCORE.INTRA.REPUL>
0

>  <SCORE.INTRA.REPUL.0>
0

>  <SCORE.INTRA.SOLV>
6.04456

>  <SCORE.INTRA.SOLV.lig_0>
-132.657

>  <SCORE.INTRA.VDW>
6.35692

>  <SCORE.INTRA.VDW.0>
-4.68867

>  <SCORE.INTRA.norm>
0.195198

>  <SCORE.RESTR>
8.33192

>  <SCORE.RESTR.CAVITY>
8.33192

>  <SCORE.RESTR.norm>
0.260373

>  <SCORE.SYSTEM>
0

>  <SCORE.SYSTEM.CONST>
0

>  <SCORE.SYSTEM.DIHEDRAL>
0

>  <SCORE.SYSTEM.SOLV>
0

>  <SCORE.SYSTEM.norm>
0

>  <SCORE.heavy>
32

>  <SCORE.norm>
-0.285165

>  <RMSD>
5.190

$$$$
1tob
 OpenBabel11021811413D
libRbt.so/2013.1/901 2013/11/27
 32 34  0  0  0  0  0  0  0  0999 V2000
    0.6359    2.8021    5.2587 C   0  0  2  0  0  0  0  0  0  0  0  0
    1.6499    1.6905    5.5178 C   0  0  1  0  0  0  0  0  0  0  0  0
    1.2502    0.9122    6.7640 C   0  0  2  0  0  0  0  0  0  0  0  0
    1.1091    1.8741    7.9376 C   0  0  1  0  0  0  0  0  0  0  0  0
    0.1135    2.9766    7.5874 C   0  0  1  0  0  0  0  0  0  0  0  0
   -0.0131    4.0110    8.6886 C   0  0  0  0  0  0  0  0  0  0  0  0
    1.6968    0.8144    4.4007 O   0  0  0  0  0  0  0  0  0  0  0  0
    2.2165   -0.1703    7.0500 N   0  3  0  0  0  0  0  0  0  0  0  0
    0.6694    1.1665    9.0891 O   0  0  0  0  0  0  0  0  0  0  0  0
    0.5421    3.6699    6.3954 O   0  0  0  0  0  0  0  0  0  0  0  0
    1.2350    4.6308    8.9643 O   0  0  0  0  0  0  0  0  0  0  0  0
   -1.9652    1.4837    3.1670 C   0  0  2  0  0  0  0  0  0  0  0  0
   -2.6120    1.9175    1.8588 C   0  0  0  0  0  0  0  0  0  0  0  0
   -3.5822    3.0743    2.1000 C   0  0  1  0  0  0  0  0  0  0  0  0
   -2.8314    4.2574    2.7071 C   0  0  2  0  0  0  0  0  0  0  0  0
   -2.1677    3.8375    4.0195 C   0  0  1  0  0  0  0  0  0  0  0  0
   -1.2217    2.6619    3.7773 C   0  0  1  0  0  0  0  0  0  0  0  0
   -1.0006    0.3864    2.9349 N   0  3  0  0  0  0  0  0  0  0  0  0
   -4.2686    3.4310    0.8314 N   0  3  0  0  0  0  0  0  0  0  0  0
   -1.4470    4.9333    4.5671 O   0  0  0  0  0  0  0  0  0  0  0  0
   -0.6132    2.2610    5.0183 O   0  0  0  0  0  0  0  0  0  0  0  0
   -3.2299    6.4152    3.6811 C   0  0  1  0  0  0  0  0  0  0  0  0
   -4.3630    7.3420    4.1249 C   0  0  1  0  0  0  0  0  0  0  0  0
   -5.0459    7.9578    2.9130 C   0  0  0  0  0  0  0  0  0  0  0  0
   -4.0062    8.6609    2.0556 C   0  0  1  0  0  0  0  0  0  0  0  0
   -2.9013    7.6766    1.6735 C   0  0  1  0  0  0  0  0  0  0  0  0
   -1.7944    8.3258    0.8627 C   0  0  0  0  0  0  0  0  0  0  0  0
   -5.3229    6.6300    5.0012 N   0  3  0  0  0  0  0  0  0  0  0  0
   -1.1283    9.4100    1.6234 N   0  3  0  0  0  0  0  0  0  0  0  0
   -3.7379    5.3541    2.9436 O   0  0  0  0  0  0  0  0  0  0  0  0
   -4.6161    9.1833    0.8843 O   0  0  0  0  0  0  0  0  0  0  0  0
   -2.2933    7.1255    2.8617 O   0  0  0  0  0  0  0  0  0  0  0  0
  1  2  1  0  0  0  0
  1 10  1  0  0  0  0
  1 21  1  1  0  0  0
  2  3  1  0  0  0  0
  2  7  1  6  0  0  0
  3  4  1  0  0  0  0
  3  8  1  1  0  0  0
  4  5  1  0  0  0  0
  4  9  1  1  0  0  0
  5  6  1  1  0  0  0
  5 10  1  0  0  0  0
  6 11  1  0  0  0  0
 12 13  1  0  0  0  0
 12 17  1  0  0  0  0
 12 18  1  6  0  0  0
 13 14  1  0  0  0  0
 14 15  1  0  0  0  0
 14 19  1  6  0  0  0
 15 16  1  0  0  0  0
 15 30  1  1  0  0  0
 16 17  1  0  0  0  0
 16 20  1  6  0  0  0
 17 21  1  1  0  0  0
 22 23  1  0  0  0  0
 22 30  1  6  0  0  0
 22 32  1  0  0  0  0
 23 24  1  0  0  0  0
 23 28  1  6  0  0  0
 24 25  1  0  0  0  0
 25 26  1  0  0  0  0
 25 31  1  6  0  0  0
 26 27  1  1  0  0  0
 26 32  1  0  0  0  0
 27 29  1  0  0  0  0
M  CHG  5   8   1  18   1  19   1  28   1  29   1
M  END
>  <CHROM.1>
-124.69723500,172.09015989,-55.52311351,-62.55438031,59.13989719,58.51569778
24.53019693,-74.14098812,170.40601331,-178.05622710,141.98941121,-167.13388803
-165.34955412,178.13613727,61.04752624,-179.06420068,-1.50674961,4.26838763
4.30338640,-0.34639826,-0.98289369,0.48304844

>  <Name>
1tob

>  <RI>
0

>  <Rbt.Current_Directory>
/home/itssahil/PROJECTS/Mol_Feturizer/New_Systems/rnas/1tob

>  <Rbt.Executable>
rbdock ($Id: //depot/dev/client3/rdock/2013.1/src/exe/rbdock.cxx#4 $)

>  <Rbt.Library>
libRbt.so (2013.1, Build901 2013/11/27)

>  <Rbt.Parameter_File>
/export/apps/rDock/src/rDock_2013.1_src/data/scripts/dock_solv.prm

>  <Rbt.Receptor>
prm/pocket_docking_6.prm

>  <SCORE>
-44.2207

>  <SCORE.INTER>
-38.0211

>  <SCORE.INTER.CONST>
1

>  <SCORE.INTER.POLAR>
-4.78886

>  <SCORE.INTER.ROT>
6

>  <SCORE.INTER.SOLV>
30.5118

>  <SCORE.INTER.VDW>
-27.1551

>  <SCORE.INTER.norm>
-1.18816

>  <SCORE.INTRA>
-6.19965

>  <SCORE.INTRA.DIHEDRAL>
-5.93634

>  <SCORE.INTRA.DIHEDRAL.0>
22.9177

>  <SCORE.INTRA.POLAR>
-1.61257

>  <SCORE.INTRA.POLAR.0>
-0.311208

>  <SCORE.INTRA.REPUL>
0

>  <SCORE.INTRA.REPUL.0>
0

>  <SCORE.INTRA.SOLV>
-3.8655

>  <SCORE.INTRA.SOLV.lig_0>
-132.657

>  <SCORE.INTRA.VDW>
4.184

>  <SCORE.INTRA.VDW.0>
-4.68867

>  <SCORE.INTRA.norm>
-0.193739

>  <SCORE.RESTR>
0

>  <SCORE.RESTR.CAVITY>
0

>  <SCORE.RESTR.norm>
0

>  <SCORE.SYSTEM>
0

>  <SCORE.SYSTEM.CONST>
0

>  <SCORE.SYSTEM.DIHEDRAL>
0

>  <SCORE.SYSTEM.SOLV>
0

>  <SCORE.SYSTEM.norm>
0

>  <SCORE.heavy>
32

>  <SCORE.norm>
-1.3819

>  <RMSD>
5.203

$$$$
1tob
 OpenBabel11021811413D
libRbt.so/2013.1/901 2013/11/27
 32 34  0  0  0  0  0  0  0  0999 V2000
   -1.1940    3.3879    5.9303 C   0  0  2  0  0  0  0  0  0  0  0  0
   -1.1964    3.9913    7.3329 C   0  0  1  0  0  0  0  0  0  0  0  0
    0.2264    4.0387    7.8731 C   0  0  2  0  0  0  0  0  0  0  0  0
    0.8315    2.6407    7.8279 C   0  0  1  0  0  0  0  0  0  0  0  0
    0.7595    2.0903    6.4062 C   0  0  1  0  0  0  0  0  0  0  0  0
    1.2773    0.6686    6.3107 C   0  0  0  0  0  0  0  0  0  0  0  0
   -1.7358    5.3045    7.2888 O   0  0  0  0  0  0  0  0  0  0  0  0
    0.2610    4.6119    9.2360 N   0  3  0  0  0  0  0  0  0  0  0  0
    2.1827    2.6873    8.2659 O   0  0  0  0  0  0  0  0  0  0  0  0
   -0.6101    2.0792    5.9487 O   0  0  0  0  0  0  0  0  0  0  0  0
    2.6945    0.6377    6.2176 O   0  0  0  0  0  0  0  0  0  0  0  0
   -1.0662    2.7614    3.2084 C   0  0  2  0  0  0  0  0  0  0  0  0
   -1.5576    2.7783    1.7674 C   0  0  0  0  0  0  0  0  0  0  0  0
   -2.8985    3.5061    1.6685 C   0  0  1  0  0  0  0  0  0  0  0  0
   -2.7424    4.9420    2.1640 C   0  0  2  0  0  0  0  0  0  0  0  0
   -2.2413    4.9447    3.6091 C   0  0  1  0  0  0  0  0  0  0  0  0
   -0.9157    4.1904    3.7070 C   0  0  1  0  0  0  0  0  0  0  0  0
    0.2470    2.0873    3.3053 N   0  3  0  0  0  0  0  0  0  0  0  0
   -3.4069    3.4414    0.2737 N   0  3  0  0  0  0  0  0  0  0  0  0
   -2.0706    6.2826    4.0573 O   0  0  0  0  0  0  0  0  0  0  0  0
   -0.4580    4.1823    5.0712 O   0  0  0  0  0  0  0  0  0  0  0  0
   -5.0191    5.1570    2.8948 C   0  0  1  0  0  0  0  0  0  0  0  0
   -6.3713    5.2958    2.1930 C   0  0  1  0  0  0  0  0  0  0  0  0
   -6.6876    6.7627    1.9433 C   0  0  0  0  0  0  0  0  0  0  0  0
   -6.6221    7.5204    3.2593 C   0  0  1  0  0  0  0  0  0  0  0  0
   -5.2529    7.3140    3.9060 C   0  0  1  0  0  0  0  0  0  0  0  0
   -5.1351    7.9964    5.2568 C   0  0  0  0  0  0  0  0  0  0  0  0
   -6.4088    4.4991    0.9439 N   0  3  0  0  0  0  0  0  0  0  0  0
   -3.9713    7.4889    6.0221 N   0  3  0  0  0  0  0  0  0  0  0  0
   -4.0030    5.6378    2.0797 O   0  0  0  0  0  0  0  0  0  0  0  0
   -6.8479    8.9043    3.0342 O   0  0  0  0  0  0  0  0  0  0  0  0
   -5.0092    5.9062    4.1162 O   0  0  0  0  0  0  0  0  0  0  0  0
  1  2  1  0  0  0  0
  1 10  1  0  0  0  0
  1 21  1  6  0  0  0
  2  3  1  0  0  0  0
  2  7  1  6  0  0  0
  3  4  1  0  0  0  0
  3  8  1  1  0  0  0
  4  5  1  0  0  0  0
  4  9  1  6  0  0  0
  5  6  1  1  0  0  0
  5 10  1  0  0  0  0
  6 11  1  0  0  0  0
 12 13  1  0  0  0  0
 12 17  1  0  0  0  0
 12 18  1  6  0  0  0
 13 14  1  0  0  0  0
 14 15  1  0  0  0  0
 14 19  1  6  0  0  0
 15 16  1  0  0  0  0
 15 30  1  1  0  0  0
 16 17  1  0  0  0  0
 16 20  1  6  0  0  0
 17 21  1  1  0  0  0
 22 23  1  0  0  0  0
 22 30  1  6  0  0  0
 22 32  1  0  0  0  0
 23 24  1  0  0  0  0
 23 28  1  6  0  0  0
 24 25  1  0  0  0  0
 25 26  1  0  0  0  0
 25 31  1  6  0  0  0
 26 27  1  1  0  0  0
 26 32  1  0  0  0  0
 27 29  1  0  0  0  0
M  CHG  5   8   1  18   1  19   1  28   1  29   1
M  END
>  <CHROM.1>
-148.13006699,-77.50670935,-155.04204488,-54.65112853,-82.17749134,-176.15927212
-142.04226187,-84.10332430,64.64293585,-53.34783960,-51.46370529,-145.08069692
-63.50550474,-61.02221130,164.37195000,149.60333406,-2.30583618,4.50067755
4.48998194,0.18554055,-0.70570206,1.03489372

>  <Name>
1tob

>  <RI>
0

>  <Rbt.Current_Directory>
/home/itssahil/PROJECTS/Mol_Feturizer/New_Systems/rnas/1tob

>  <Rbt.Executable>
rbdock ($Id: //depot/dev/client3/rdock/2013.1/src/exe/rbdock.cxx#4 $)

>  <Rbt.Library>
libRbt.so (2013.1, Build901 2013/11/27)

>  <Rbt.Parameter_File>
/export/apps/rDock/src/rDock_2013.1_src/data/scripts/dock_solv.prm

>  <Rbt.Receptor>
prm/blind_docking_80.prm

>  <SCORE>
-37.926

>  <SCORE.INTER>
-52.5831

>  <SCORE.INTER.CONST>
1

>  <SCORE.INTER.POLAR>
-8.1079

>  <SCORE.INTER.ROT>
6

>  <SCORE.INTER.SOLV>
34.1165

>  <SCORE.INTER.VDW>
-27.0012

>  <SCORE.INTER.norm>
-1.64322

>  <SCORE.INTRA>
1.70583

>  <SCORE.INTRA.DIHEDRAL>
-2.55899

>  <SCORE.INTRA.DIHEDRAL.0>
22.9177

>  <SCORE.INTRA.POLAR>
-1.21336

>  <SCORE.INTRA.POLAR.0>
-0.311208

>  <SCORE.INTRA.REPUL>
0

>  <SCORE.INTRA.REPUL.0>
0

>  <SCORE.INTRA.SOLV>
6.43293

>  <SCORE.INTRA.SOLV.lig_0>
-132.657

>  <SCORE.INTRA.VDW>
3.89427

>  <SCORE.INTRA.VDW.0>
-4.68867

>  <SCORE.INTRA.norm>
0.0533071

>  <SCORE.RESTR>
12.9512

>  <SCORE.RESTR.CAVITY>
12.9512

>  <SCORE.RESTR.norm>
0.404726

>  <SCORE.SYSTEM>
0

>  <SCORE.SYSTEM.CONST>
0

>  <SCORE.SYSTEM.DIHEDRAL>
0

>  <SCORE.SYSTEM.SOLV>
0

>  <SCORE.SYSTEM.norm>
0

>  <SCORE.heavy>
32

>  <SCORE.norm>
-1.18519

>  <RMSD>
5.220

$$$$
1tob
 OpenBabel11021811413D
libRbt.so/2013.1/901 2013/11/27
 32 34  0  0  0  0  0  0  0  0999 V2000
   -6.0463    6.7074    1.2247 C   0  0  2  0  0  0  0  0  0  0  0  0
   -5.8842    5.3412    0.5625 C   0  0  1  0  0  0  0  0  0  0  0  0
   -4.5692    4.7115    1.0014 C   0  0  2  0  0  0  0  0  0  0  0  0
   -3.4222    5.6647    0.6876 C   0  0  1  0  0  0  0  0  0  0  0  0
   -3.6767    7.0171    1.3475 C   0  0  1  0  0  0  0  0  0  0  0  0
   -2.6060    8.0354    1.0083 C   0  0  0  0  0  0  0  0  0  0  0  0
   -6.9658    4.4980    0.9321 O   0  0  0  0  0  0  0  0  0  0  0  0
   -4.3752    3.3873    0.3720 N   0  3  0  0  0  0  0  0  0  0  0  0
   -2.1983    5.1149    1.1562 O   0  0  0  0  0  0  0  0  0  0  0  0
   -4.9388    7.5567    0.8993 O   0  0  0  0  0  0  0  0  0  0  0  0
   -1.3592    7.6933    1.5971 O   0  0  0  0  0  0  0  0  0  0  0  0
   -6.3058    8.9220    3.1207 C   0  0  2  0  0  0  0  0  0  0  0  0
   -7.1791    9.9439    3.8358 C   0  0  0  0  0  0  0  0  0  0  0  0
   -8.5952    9.9333    3.2595 C   0  0  1  0  0  0  0  0  0  0  0  0
   -9.2076    8.5443    3.4248 C   0  0  2  0  0  0  0  0  0  0  0  0
   -8.3384    7.5024    2.7188 C   0  0  1  0  0  0  0  0  0  0  0  0
   -6.9167    7.5380    3.2783 C   0  0  1  0  0  0  0  0  0  0  0  0
   -4.9432    8.9045    3.6964 N   0  3  0  0  0  0  0  0  0  0  0  0
   -9.4122   10.9922    3.9070 N   0  3  0  0  0  0  0  0  0  0  0  0
   -8.8965    6.2077    2.8986 O   0  0  0  0  0  0  0  0  0  0  0  0
   -6.1000    6.5673    2.5989 O   0  0  0  0  0  0  0  0  0  0  0  0
  -11.3545    7.4766    3.3038 C   0  0  1  0  0  0  0  0  0  0  0  0
  -12.7944    7.7034    2.8398 C   0  0  1  0  0  0  0  0  0  0  0  0
  -13.3609    8.9641    3.4752 C   0  0  0  0  0  0  0  0  0  0  0  0
  -13.2339    8.8638    4.9866 C   0  0  1  0  0  0  0  0  0  0  0  0
  -11.7744    8.6163    5.3665 C   0  0  1  0  0  0  0  0  0  0  0  0
  -11.5802    8.4465    6.8623 C   0  0  0  0  0  0  0  0  0  0  0  0
  -12.8790    7.7407    1.3606 N   0  3  0  0  0  0  0  0  0  0  0  0
  -12.6602    7.6259    7.4606 N   0  3  0  0  0  0  0  0  0  0  0  0
  -10.5430    8.5207    2.8802 O   0  0  0  0  0  0  0  0  0  0  0  0
  -13.6958   10.0621    5.5928 O   0  0  0  0  0  0  0  0  0  0  0  0
  -11.2934    7.4105    4.7339 O   0  0  0  0  0  0  0  0  0  0  0  0
  1  2  1  0  0  0  0
  1 10  1  0  0  0  0
  1 21  1  1  0  0  0
  2  3  1  0  0  0  0
  2  7  1  1  0  0  0
  3  4  1  0  0  0  0
  3  8  1  6  0  0  0
  4  5  1  0  0  0  0
  4  9  1  1  0  0  0
  5  6  1  6  0  0  0
  5 10  1  0  0  0  0
  6 11  1  0  0  0  0
 12 13  1  0  0  0  0
 12 17  1  0  0  0  0
 12 18  1  1  0  0  0
 13 14  1  0  0  0  0
 14 15  1  0  0  0  0
 14 19  1  1  0  0  0
 15 16  1  0  0  0  0
 15 30  1  6  0  0  0
 16 17  1  0  0  0  0
 16 20  1  1  0  0  0
 17 21  1  6  0  0  0
 22 23  1  0  0  0  0
 22 30  1  1  0  0  0
 22 32  1  0  0  0  0
 23 24  1  0  0  0  0
 23 28  1  6  0  0  0
 24 25  1  0  0  0  0
 25 26  1  0  0  0  0
 25 31  1  1  0  0  0
 26 27  1  1  0  0  0
 26 32  1  0  0  0  0
 27 29  1  0  0  0  0
M  CHG  5   8   1  18   1  19   1  28   1  29   1
M  END
>  <CHROM.1>
-148.18769614,65.96626240,-169.14526824,-59.51942770,-68.20859306,177.86655718
-23.37741316,-179.22369018,-161.51706402,77.36946198,-65.53182966,170.56841685
81.86002574,-64.08461176,41.10966592,69.27931324,-8.02135357,7.55137814,2.89145935
0.42772641,-0.18524481,-2.57127719

>  <Name>
1tob

>  <RI>
0

>  <Rbt.Current_Directory>
/home/itssahil/PROJECTS/Mol_Feturizer/New_Systems/rnas/1tob

>  <Rbt.Executable>
rbdock ($Id: //depot/dev/client3/rdock/2013.1/src/exe/rbdock.cxx#4 $)

>  <Rbt.Library>
libRbt.so (2013.1, Build901 2013/11/27)

>  <Rbt.Parameter_File>
/export/apps/rDock/src/rDock_2013.1_src/data/scripts/dock_solv.prm

>  <Rbt.Receptor>
prm/pocket_docking_7.prm

>  <SCORE>
-35.3393

>  <SCORE.INTER>
-33.8294

>  <SCORE.INTER.CONST>
1

>  <SCORE.INTER.POLAR>
-5.76457

>  <SCORE.INTER.ROT>
6

>  <SCORE.INTER.SOLV>
22.3688

>  <SCORE.INTER.VDW>
-18.394

>  <SCORE.INTER.norm>
-1.05717

>  <SCORE.INTRA>
-1.50988

>  <SCORE.INTRA.DIHEDRAL>
-9.67529

>  <SCORE.INTRA.DIHEDRAL.0>
22.9177

>  <SCORE.INTRA.POLAR>
0.273714

>  <SCORE.INTRA.POLAR.0>
-0.311208

>  <SCORE.INTRA.REPUL>
0

>  <SCORE.INTRA.REPUL.0>
0

>  <SCORE.INTRA.SOLV>
-1.82493

>  <SCORE.INTRA.SOLV.lig_0>
-132.657

>  <SCORE.INTRA.VDW>
3.30961

>  <SCORE.INTRA.VDW.0>
-4.68867

>  <SCORE.INTRA.norm>
-0.0471836

>  <SCORE.RESTR>
0

>  <SCORE.RESTR.CAVITY>
0

>  <SCORE.RESTR.norm>
0

>  <SCORE.SYSTEM>
0

>  <SCORE.SYSTEM.CONST>
0

>  <SCORE.SYSTEM.DIHEDRAL>
0

>  <SCORE.SYSTEM.SOLV>
0

>  <SCORE.SYSTEM.norm>
0

>  <SCORE.heavy>
32

>  <SCORE.norm>
-1.10435

>  <RMSD>
5.231

$$$$
1tob
 OpenBabel11021811413D
libRbt.so/2013.1/901 2013/11/27
 32 34  0  0  0  0  0  0  0  0999 V2000
    0.4005    2.3556    5.7702 C   0  0  2  0  0  0  0  0  0  0  0  0
    1.7396    2.0174    5.1193 C   0  0  1  0  0  0  0  0  0  0  0  0
    2.0640    0.5474    5.3479 C   0  0  2  0  0  0  0  0  0  0  0  0
    2.0371    0.2500    6.8424 C   0  0  1  0  0  0  0  0  0  0  0  0
    0.6859    0.6525    7.4268 C   0  0  1  0  0  0  0  0  0  0  0  0
    0.6236    0.4520    8.9283 C   0  0  0  0  0  0  0  0  0  0  0  0
    1.6754    2.2823    3.7252 O   0  0  0  0  0  0  0  0  0  0  0  0
    3.3609    0.1856    4.7359 N   0  3  0  0  0  0  0  0  0  0  0  0
    2.2711   -1.1347    7.0613 O   0  0  0  0  0  0  0  0  0  0  0  0
    0.4326    2.0508    7.1702 O   0  0  0  0  0  0  0  0  0  0  0  0
    1.4855    1.3535    9.6083 O   0  0  0  0  0  0  0  0  0  0  0  0
   -1.9744    1.1138    3.2496 C   0  0  2  0  0  0  0  0  0  0  0  0
   -2.5245    1.6985    1.9558 C   0  0  0  0  0  0  0  0  0  0  0  0
   -3.3728    2.9367    2.2471 C   0  0  1  0  0  0  0  0  0  0  0  0
   -2.5211    3.9893    2.9531 C   0  0  2  0  0  0  0  0  0  0  0  0
   -1.9529    3.4164    4.2525 C   0  0  1  0  0  0  0  0  0  0  0  0
   -1.1307    2.1622    3.9584 C   0  0  1  0  0  0  0  0  0  0  0  0
   -1.1257   -0.0654    2.9713 N   0  3  0  0  0  0  0  0  0  0  0  0
   -3.9719    3.4467    0.9866 N   0  3  0  0  0  0  0  0  0  0  0  0
   -1.1384    4.3896    4.8925 O   0  0  0  0  0  0  0  0  0  0  0  0
   -0.6127    1.6188    5.1861 O   0  0  0  0  0  0  0  0  0  0  0  0
   -2.6137    6.3568    3.3405 C   0  0  1  0  0  0  0  0  0  0  0  0
   -3.1412    7.1784    4.5181 C   0  0  1  0  0  0  0  0  0  0  0  0
   -4.5963    7.5574    4.2870 C   0  0  0  0  0  0  0  0  0  0  0  0
   -4.7200    8.2814    2.9563 C   0  0  1  0  0  0  0  0  0  0  0  0
   -4.1534    7.4069    1.8383 C   0  0  1  0  0  0  0  0  0  0  0  0
   -4.1905    8.0918    0.4842 C   0  0  0  0  0  0  0  0  0  0  0  0
   -2.9517    6.4579    5.7993 N   0  3  0  0  0  0  0  0  0  0  0  0
   -3.3790    7.3594   -0.5172 N   0  3  0  0  0  0  0  0  0  0  0  0
   -3.3124    5.1613    3.2374 O   0  0  0  0  0  0  0  0  0  0  0  0
   -6.0827    8.5823    2.6926 O   0  0  0  0  0  0  0  0  0  0  0  0
   -2.7742    7.0794    2.1136 O   0  0  0  0  0  0  0  0  0  0  0  0
  1  2  1  0  0  0  0
  1 10  1  0  0  0  0
  1 21  1  6  0  0  0
  2  3  1  0  0  0  0
  2  7  1  6  0  0  0
  3  4  1  0  0  0  0
  3  8  1  1  0  0  0
  4  5  1  0  0  0  0
  4  9  1  6  0  0  0
  5  6  1  1  0  0  0
  5 10  1  0  0  0  0
  6 11  1  0  0  0  0
 12 13  1  0  0  0  0
 12 17  1  0  0  0  0
 12 18  1  6  0  0  0
 13 14  1  0  0  0  0
 14 15  1  0  0  0  0
 14 19  1  6  0  0  0
 15 16  1  0  0  0  0
 15 30  1  1  0  0  0
 16 17  1  0  0  0  0
 16 20  1  6  0  0  0
 17 21  1  1  0  0  0
 22 23  1  0  0  0  0
 22 30  1  6  0  0  0
 22 32  1  0  0  0  0
 23 24  1  0  0  0  0
 23 28  1  1  0  0  0
 24 25  1  0  0  0  0
 25 26  1  0  0  0  0
 25 31  1  6  0  0  0
 26 27  1  6  0  0  0
 26 32  1  0  0  0  0
 27 29  1  0  0  0  0
M  CHG  5   8   1  18   1  19   1  28   1  29   1
M  END
>  <CHROM.1>
-82.55383189,65.48443389,-45.44361414,66.61645817,67.77799731,160.97925405
-10.62599360,-171.36311093,-153.84015367,-56.97362797,166.17771617,-137.88902177
-123.81137682,67.96489504,167.60251410,-163.88971087,-1.39238423,3.59141786
4.22136191,0.08414085,-0.94996708,1.08347136

>  <Name>
1tob

>  <RI>
0

>  <Rbt.Current_Directory>
/home/itssahil/PROJECTS/Mol_Feturizer/New_Systems/rnas/1tob

>  <Rbt.Executable>
rbdock ($Id: //depot/dev/client3/rdock/2013.1/src/exe/rbdock.cxx#4 $)

>  <Rbt.Library>
libRbt.so (2013.1, Build901 2013/11/27)

>  <Rbt.Parameter_File>
/export/apps/rDock/src/rDock_2013.1_src/data/scripts/dock_solv.prm

>  <Rbt.Receptor>
prm/pocket_docking_7.prm

>  <SCORE>
-54.2837

>  <SCORE.INTER>
-52.1439

>  <SCORE.INTER.CONST>
1

>  <SCORE.INTER.POLAR>
-7.52655

>  <SCORE.INTER.ROT>
6

>  <SCORE.INTER.SOLV>
31.655

>  <SCORE.INTER.VDW>
-27.8257

>  <SCORE.INTER.norm>
-1.6295

>  <SCORE.INTRA>
-2.13982

>  <SCORE.INTRA.DIHEDRAL>
0.147307

>  <SCORE.INTRA.DIHEDRAL.0>
22.9177

>  <SCORE.INTRA.POLAR>
-0.985236

>  <SCORE.INTRA.POLAR.0>
-0.311208

>  <SCORE.INTRA.REPUL>
0.0118569

>  <SCORE.INTRA.REPUL.0>
0

>  <SCORE.INTRA.SOLV>
-1.87651

>  <SCORE.INTRA.SOLV.lig_0>
-132.657

>  <SCORE.INTRA.VDW>
2.0153

>  <SCORE.INTRA.VDW.0>
-4.68867

>  <SCORE.INTRA.norm>
-0.0668695

>  <SCORE.RESTR>
0

>  <SCORE.RESTR.CAVITY>
0

>  <SCORE.RESTR.norm>
0

>  <SCORE.SYSTEM>
0

>  <SCORE.SYSTEM.CONST>
0

>  <SCORE.SYSTEM.DIHEDRAL>
0

>  <SCORE.SYSTEM.SOLV>
0

>  <SCORE.SYSTEM.norm>
0

>  <SCORE.heavy>
32

>  <SCORE.norm>
-1.69637

>  <RMSD>
5.246

$$$$
1tob
 OpenBabel11021811413D
libRbt.so/2013.1/901 2013/11/27
 32 34  0  0  0  0  0  0  0  0999 V2000
   -1.1458    3.2452    6.0257 C   0  0  2  0  0  0  0  0  0  0  0  0
   -1.1455    3.9063    7.4020 C   0  0  1  0  0  0  0  0  0  0  0  0
    0.2882    4.1101    7.8725 C   0  0  2  0  0  0  0  0  0  0  0  0
    1.0214    2.7742    7.8540 C   0  0  1  0  0  0  0  0  0  0  0  0
    0.9412    2.1580    6.4600 C   0  0  1  0  0  0  0  0  0  0  0  0
    1.5877    0.7882    6.3964 C   0  0  0  0  0  0  0  0  0  0  0  0
   -1.8091    5.1602    7.3317 O   0  0  0  0  0  0  0  0  0  0  0  0
    0.3266    4.7430    9.2087 N   0  3  0  0  0  0  0  0  0  0  0  0
    2.3797    2.9660    8.2260 O   0  0  0  0  0  0  0  0  0  0  0  0
   -0.4395    1.9989    6.0681 O   0  0  0  0  0  0  0  0  0  0  0  0
    2.9753    0.8549    6.6936 O   0  0  0  0  0  0  0  0  0  0  0  0
   -1.3433    2.5101    3.4383 C   0  0  2  0  0  0  0  0  0  0  0  0
   -1.8859    2.4109    2.0192 C   0  0  0  0  0  0  0  0  0  0  0  0
   -3.1515    3.2557    1.8707 C   0  0  1  0  0  0  0  0  0  0  0  0
   -2.8358    4.7156    2.1880 C   0  0  2  0  0  0  0  0  0  0  0  0
   -2.2814    4.8337    3.6086 C   0  0  1  0  0  0  0  0  0  0  0  0
   -1.0337    3.9642    3.7596 C   0  0  1  0  0  0  0  0  0  0  0  0
   -0.1000    1.7209    3.5792 N   0  3  0  0  0  0  0  0  0  0  0  0
   -3.7174    3.0829    0.5076 N   0  3  0  0  0  0  0  0  0  0  0  0
   -1.9627    6.1899    3.8902 O   0  0  0  0  0  0  0  0  0  0  0  0
   -0.5266    4.0667    5.1024 O   0  0  0  0  0  0  0  0  0  0  0  0
   -5.1273    5.1056    2.7886 C   0  0  1  0  0  0  0  0  0  0  0  0
   -6.4125    5.3470    1.9949 C   0  0  1  0  0  0  0  0  0  0  0  0
   -6.6072    6.8352    1.7465 C   0  0  0  0  0  0  0  0  0  0  0  0
   -6.5841    7.5720    3.0757 C   0  0  1  0  0  0  0  0  0  0  0  0
   -5.2827    7.2627    3.8147 C   0  0  1  0  0  0  0  0  0  0  0  0
   -5.2153    7.9204    5.1811 C   0  0  0  0  0  0  0  0  0  0  0  0
   -6.4153    4.5684    0.7338 N   0  3  0  0  0  0  0  0  0  0  0  0
   -4.0004    7.5074    5.9234 N   0  3  0  0  0  0  0  0  0  0  0  0
   -4.0242    5.5223    2.0556 O   0  0  0  0  0  0  0  0  0  0  0  0
   -6.6963    8.9708    2.8570 O   0  0  0  0  0  0  0  0  0  0  0  0
   -5.1533    5.8390    4.0194 O   0  0  0  0  0  0  0  0  0  0  0  0
  1  2  1  0  0  0  0
  1 10  1  0  0  0  0
  1 21  1  6  0  0  0
  2  3  1  0  0  0  0
  2  7  1  6  0  0  0
  3  4  1  0  0  0  0
  3  8  1  1  0  0  0
  4  5  1  0  0  0  0
  4  9  1  6  0  0  0
  5  6  1  1  0  0  0
  5 10  1  0  0  0  0
  6 11  1  0  0  0  0
 12 13  1  0  0  0  0
 12 17  1  0  0  0  0
 12 18  1  6  0  0  0
 13 14  1  0  0  0  0
 14 15  1  0  0  0  0
 14 19  1  6  0  0  0
 15 16  1  0  0  0  0
 15 30  1  1  0  0  0
 16 17  1  0  0  0  0
 16 20  1  6  0  0  0
 17 21  1  1  0  0  0
 22 23  1  0  0  0  0
 22 30  1  6  0  0  0
 22 32  1  0  0  0  0
 23 24  1  0  0  0  0
 23 28  1  6  0  0  0
 24 25  1  0  0  0  0
 25 26  1  0  0  0  0
 25 31  1  6  0  0  0
 26 27  1  1  0  0  0
 26 32  1  0  0  0  0
 27 29  1  0  0  0  0
M  CHG  5   8   1  18   1  19   1  28   1  29   1
M  END
>  <CHROM.1>
-148.63206552,-75.46091820,79.74274032,-54.62072358,-62.27652625,-54.52077271
-23.15477960,-112.34464766,54.25297977,-47.72390070,-39.23048531,-143.32827281
179.76680451,-56.16566832,174.93760137,144.97442062,-2.31836189,4.44900702
4.50694120,0.15272051,-0.70997301,0.93724027

>  <Name>
1tob

>  <RI>
0

>  <Rbt.Current_Directory>
/home/itssahil/PROJECTS/Mol_Feturizer/New_Systems/rnas/1tob

>  <Rbt.Executable>
rbdock ($Id: //depot/dev/client3/rdock/2013.1/src/exe/rbdock.cxx#4 $)

>  <Rbt.Library>
libRbt.so (2013.1, Build901 2013/11/27)

>  <Rbt.Parameter_File>
/export/apps/rDock/src/rDock_2013.1_src/data/scripts/dock_solv.prm

>  <Rbt.Receptor>
prm/pocket_docking_8.prm

>  <SCORE>
-53.4993

>  <SCORE.INTER>
-57.2293

>  <SCORE.INTER.CONST>
1

>  <SCORE.INTER.POLAR>
-9.11937

>  <SCORE.INTER.ROT>
6

>  <SCORE.INTER.SOLV>
32.0876

>  <SCORE.INTER.VDW>
-26.0508

>  <SCORE.INTER.norm>
-1.78841

>  <SCORE.INTRA>
3.72994

>  <SCORE.INTRA.DIHEDRAL>
-0.630275

>  <SCORE.INTRA.DIHEDRAL.0>
22.9177

>  <SCORE.INTRA.POLAR>
-1.47498

>  <SCORE.INTRA.POLAR.0>
-0.311208

>  <SCORE.INTRA.REPUL>
0

>  <SCORE.INTRA.REPUL.0>
0

>  <SCORE.INTRA.SOLV>
7.20752

>  <SCORE.INTRA.SOLV.lig_0>
-132.657

>  <SCORE.INTRA.VDW>
5.45626

>  <SCORE.INTRA.VDW.0>
-4.68867

>  <SCORE.INTRA.norm>
0.116561

>  <SCORE.RESTR>
0

>  <SCORE.RESTR.CAVITY>
0

>  <SCORE.RESTR.norm>
0

>  <SCORE.SYSTEM>
0

>  <SCORE.SYSTEM.CONST>
0

>  <SCORE.SYSTEM.DIHEDRAL>
0

>  <SCORE.SYSTEM.SOLV>
0

>  <SCORE.SYSTEM.norm>
0

>  <SCORE.heavy>
32

>  <SCORE.norm>
-1.67185

>  <RMSD>
5.247

$$$$
1tob
 OpenBabel11021811413D
libRbt.so/2013.1/901 2013/11/27
 32 34  0  0  0  0  0  0  0  0999 V2000
    0.1198    1.6342    5.2555 C   0  0  2  0  0  0  0  0  0  0  0  0
    0.2979    0.9753    6.6212 C   0  0  1  0  0  0  0  0  0  0  0  0
    0.6297    2.0353    7.6626 C   0  0  2  0  0  0  0  0  0  0  0  0
    1.8586    2.8174    7.2145 C   0  0  1  0  0  0  0  0  0  0  0  0
    1.6197    3.4087    5.8279 C   0  0  1  0  0  0  0  0  0  0  0  0
    2.8377    4.1359    5.2929 C   0  0  0  0  0  0  0  0  0  0  0  0
   -0.8975    0.3014    6.9879 O   0  0  0  0  0  0  0  0  0  0  0  0
    0.8168    1.4304    8.9991 N   0  3  0  0  0  0  0  0  0  0  0  0
    2.1350    3.8541    8.1467 O   0  0  0  0  0  0  0  0  0  0  0  0
    1.3017    2.3578    4.8901 O   0  0  0  0  0  0  0  0  0  0  0  0
    3.9242    3.2448    5.0847 O   0  0  0  0  0  0  0  0  0  0  0  0
   -1.4925    2.4561    2.9323 C   0  0  2  0  0  0  0  0  0  0  0  0
   -1.6585    3.3232    1.6919 C   0  0  0  0  0  0  0  0  0  0  0  0
   -2.7246    4.3936    1.9269 C   0  0  1  0  0  0  0  0  0  0  0  0
   -2.3180    5.2745    3.1061 C   0  0  2  0  0  0  0  0  0  0  0  0
   -2.1386    4.4183    4.3607 C   0  0  1  0  0  0  0  0  0  0  0  0
   -1.0935    3.3316    4.1102 C   0  0  1  0  0  0  0  0  0  0  0  0
   -0.4388    1.4392    2.7223 N   0  3  0  0  0  0  0  0  0  0  0  0
   -2.9367    5.1774    0.6824 N   0  3  0  0  0  0  0  0  0  0  0  0
   -1.7332    5.2374    5.4492 O   0  0  0  0  0  0  0  0  0  0  0  0
   -0.9413    2.5195    5.2885 O   0  0  0  0  0  0  0  0  0  0  0  0
   -2.9792    7.2794    4.2493 C   0  0  1  0  0  0  0  0  0  0  0  0
   -4.2355    8.0028    4.7375 C   0  0  1  0  0  0  0  0  0  0  0  0
   -4.9225    8.7077    3.5775 C   0  0  0  0  0  0  0  0  0  0  0  0
   -3.9300    9.6366    2.8974 C   0  0  1  0  0  0  0  0  0  0  0  0
   -2.6981    8.8448    2.4603 C   0  0  1  0  0  0  0  0  0  0  0  0
   -1.6350    9.7214    1.8235 C   0  0  0  0  0  0  0  0  0  0  0  0
   -5.1488    7.0711    5.4406 N   0  3  0  0  0  0  0  0  0  0  0  0
   -1.0741   10.6888    2.7968 N   0  3  0  0  0  0  0  0  0  0  0  0
   -3.3191    6.2861    3.3405 O   0  0  0  0  0  0  0  0  0  0  0  0
   -4.5356   10.2519    1.7698 O   0  0  0  0  0  0  0  0  0  0  0  0
   -2.0918    8.1987    3.6007 O   0  0  0  0  0  0  0  0  0  0  0  0
  1  2  1  0  0  0  0
  1 10  1  0  0  0  0
  1 21  1  1  0  0  0
  2  3  1  0  0  0  0
  2  7  1  1  0  0  0
  3  4  1  0  0  0  0
  3  8  1  1  0  0  0
  4  5  1  0  0  0  0
  4  9  1  1  0  0  0
  5  6  1  6  0  0  0
  5 10  1  0  0  0  0
  6 11  1  0  0  0  0
 12 13  1  0  0  0  0
 12 17  1  0  0  0  0
 12 18  1  6  0  0  0
 13 14  1  0  0  0  0
 14 15  1  0  0  0  0
 14 19  1  6  0  0  0
 15 16  1  0  0  0  0
 15 30  1  1  0  0  0
 16 17  1  0  0  0  0
 16 20  1  1  0  0  0
 17 21  1  1  0  0  0
 22 23  1  0  0  0  0
 22 30  1  6  0  0  0
 22 32  1  0  0  0  0
 23 24  1  0  0  0  0
 23 28  1  6  0  0  0
 24 25  1  0  0  0  0
 25 26  1  0  0  0  0
 25 31  1  6  0  0  0
 26 27  1  1  0  0  0
 26 32  1  0  0  0  0
 27 29  1  0  0  0  0
M  CHG  5   8   1  18   1  19   1  28   1  29   1
M  END
>  <CHROM.1>
172.07118780,51.53595737,-34.40523789,68.21940421,64.64269569,-68.23631535
87.59587159,58.46157414,-170.46591601,78.93797338,67.36157868,-161.96226059
79.46892287,61.54541251,65.06167583,-53.41492858,-1.21449734,4.95324722,4.43059578
0.76940180,0.77918218,-3.01091257

>  <Name>
1tob

>  <RI>
0

>  <Rbt.Current_Directory>
/home/itssahil/PROJECTS/Mol_Feturizer/New_Systems/rnas/1tob

>  <Rbt.Executable>
rbdock ($Id: //depot/dev/client3/rdock/2013.1/src/exe/rbdock.cxx#4 $)

>  <Rbt.Library>
libRbt.so (2013.1, Build901 2013/11/27)

>  <Rbt.Parameter_File>
/export/apps/rDock/src/rDock_2013.1_src/data/scripts/dock_solv.prm

>  <Rbt.Receptor>
prm/pocket_docking_6.prm

>  <SCORE>
-37.9783

>  <SCORE.INTER>
-34.5482

>  <SCORE.INTER.CONST>
1

>  <SCORE.INTER.POLAR>
-4.64798

>  <SCORE.INTER.ROT>
6

>  <SCORE.INTER.SOLV>
28.7328

>  <SCORE.INTER.VDW>
-24.7164

>  <SCORE.INTER.norm>
-1.07963

>  <SCORE.INTRA>
-3.43018

>  <SCORE.INTRA.DIHEDRAL>
-13.5531

>  <SCORE.INTRA.DIHEDRAL.0>
22.9177

>  <SCORE.INTRA.POLAR>
-0.476151

>  <SCORE.INTRA.POLAR.0>
-0.311208

>  <SCORE.INTRA.REPUL>
0

>  <SCORE.INTRA.REPUL.0>
0

>  <SCORE.INTRA.SOLV>
-2.26287

>  <SCORE.INTRA.SOLV.lig_0>
-132.657

>  <SCORE.INTRA.VDW>
6.09674

>  <SCORE.INTRA.VDW.0>
-4.68867

>  <SCORE.INTRA.norm>
-0.107193

>  <SCORE.RESTR>
0

>  <SCORE.RESTR.CAVITY>
0

>  <SCORE.RESTR.norm>
0

>  <SCORE.SYSTEM>
0

>  <SCORE.SYSTEM.CONST>
0

>  <SCORE.SYSTEM.DIHEDRAL>
0

>  <SCORE.SYSTEM.SOLV>
0

>  <SCORE.SYSTEM.norm>
0

>  <SCORE.heavy>
32

>  <SCORE.norm>
-1.18682

>  <RMSD>
5.250

$$$$
1tob
 OpenBabel11021811413D
libRbt.so/2013.1/901 2013/11/27
 32 34  0  0  0  0  0  0  0  0999 V2000
   -2.2300    3.4047    4.7662 C   0  0  2  0  0  0  0  0  0  0  0  0
   -0.8661    3.2535    5.4355 C   0  0  1  0  0  0  0  0  0  0  0  0
    0.2342    3.3727    4.3898 C   0  0  2  0  0  0  0  0  0  0  0  0
   -0.0037    2.3490    3.2862 C   0  0  1  0  0  0  0  0  0  0  0  0
   -1.3989    2.5368    2.6968 C   0  0  1  0  0  0  0  0  0  0  0  0
   -1.7255    1.4962    1.6437 C   0  0  0  0  0  0  0  0  0  0  0  0
   -0.7013    4.2628    6.4212 O   0  0  0  0  0  0  0  0  0  0  0  0
    1.5718    3.2234    5.0030 N   0  3  0  0  0  0  0  0  0  0  0  0
    0.9797    2.4991    2.2711 O   0  0  0  0  0  0  0  0  0  0  0  0
   -2.3946    2.4218    3.7362 O   0  0  0  0  0  0  0  0  0  0  0  0
   -1.7742    0.1908    2.2017 O   0  0  0  0  0  0  0  0  0  0  0  0
   -3.2270    6.8086    4.8713 C   0  0  2  0  0  0  0  0  0  0  0  0
   -4.5134    7.5522    5.2038 C   0  0  0  0  0  0  0  0  0  0  0  0
   -5.4745    7.5152    4.0154 C   0  0  1  0  0  0  0  0  0  0  0  0
   -5.8064    6.0660    3.6670 C   0  0  2  0  0  0  0  0  0  0  0  0
   -4.5239    5.3006    3.3375 C   0  0  1  0  0  0  0  0  0  0  0  0
   -3.5551    5.3661    4.5177 C   0  0  1  0  0  0  0  0  0  0  0  0
   -2.3064    6.8127    6.0292 N   0  3  0  0  0  0  0  0  0  0  0  0
   -6.6885    8.3153    4.3222 N   0  3  0  0  0  0  0  0  0  0  0  0
   -4.8340    3.9456    3.0411 O   0  0  0  0  0  0  0  0  0  0  0  0
   -2.3442    4.6585    4.1954 O   0  0  0  0  0  0  0  0  0  0  0  0
   -6.2930    6.6851    1.3990 C   0  0  1  0  0  0  0  0  0  0  0  0
   -7.2765    6.4369    0.2539 C   0  0  1  0  0  0  0  0  0  0  0  0
   -7.3060    4.9588   -0.1049 C   0  0  0  0  0  0  0  0  0  0  0  0
   -5.8948    4.4926   -0.4237 C   0  0  1  0  0  0  0  0  0  0  0  0
   -4.9724    4.7948    0.7567 C   0  0  1  0  0  0  0  0  0  0  0  0
   -3.5298    4.4080    0.4857 C   0  0  0  0  0  0  0  0  0  0  0  0
   -8.6247    6.9547    0.5864 N   0  3  0  0  0  0  0  0  0  0  0  0
   -2.5845    5.3268    1.1639 N   0  3  0  0  0  0  0  0  0  0  0  0
   -6.7096    6.0182    2.5434 O   0  0  0  0  0  0  0  0  0  0  0  0
   -5.8941    3.0985   -0.6946 O   0  0  0  0  0  0  0  0  0  0  0  0
   -4.9874    6.2087    1.0504 O   0  0  0  0  0  0  0  0  0  0  0  0
  1  2  1  0  0  0  0
  1 10  1  0  0  0  0
  1 21  1  6  0  0  0
  2  3  1  0  0  0  0
  2  7  1  1  0  0  0
  3  4  1  0  0  0  0
  3  8  1  1  0  0  0
  4  5  1  0  0  0  0
  4  9  1  6  0  0  0
  5  6  1  6  0  0  0
  5 10  1  0  0  0  0
  6 11  1  0  0  0  0
 12 13  1  0  0  0  0
 12 17  1  0  0  0  0
 12 18  1  1  0  0  0
 13 14  1  0  0  0  0
 14 15  1  0  0  0  0
 14 19  1  1  0  0  0
 15 16  1  0  0  0  0
 15 30  1  6  0  0  0
 16 17  1  0  0  0  0
 16 20  1  1  0  0  0
 17 21  1  6  0  0  0
 22 23  1  0  0  0  0
 22 30  1  1  0  0  0
 22 32  1  0  0  0  0
 23 24  1  0  0  0  0
 23 28  1  1  0  0  0
 24 25  1  0  0  0  0
 25 26  1  0  0  0  0
 25 31  1  1  0  0  0
 26 27  1  6  0  0  0
 26 32  1  0  0  0  0
 27 29  1  0  0  0  0
M  CHG  5   8   1  18   1  19   1  28   1  29   1
M  END
>  <CHROM.1>
-130.85311992,-77.02674924,-173.73115838,65.71753038,64.36327039,98.07194255
110.00839988,-177.21055016,54.96137097,-173.29638787,135.05701588,174.46867435
-144.56952209,-163.69637293,146.94391088,86.79801475,-3.58205668,4.69385147
2.88641469,-0.01059232,-0.59088180,0.87752638

>  <Name>
1tob

>  <RI>
0

>  <Rbt.Current_Directory>
/home/itssahil/PROJECTS/Mol_Feturizer/New_Systems/rnas/1tob

>  <Rbt.Executable>
rbdock ($Id: //depot/dev/client3/rdock/2013.1/src/exe/rbdock.cxx#4 $)

>  <Rbt.Library>
libRbt.so (2013.1, Build901 2013/11/27)

>  <Rbt.Parameter_File>
/export/apps/rDock/src/rDock_2013.1_src/data/scripts/dock_solv.prm

>  <Rbt.Receptor>
prm/blind_docking_20.prm

>  <SCORE>
3.14534

>  <SCORE.INTER>
-12.1511

>  <SCORE.INTER.CONST>
1

>  <SCORE.INTER.POLAR>
-3.16489

>  <SCORE.INTER.ROT>
6

>  <SCORE.INTER.SOLV>
29.5662

>  <SCORE.INTER.VDW>
-15.0065

>  <SCORE.INTER.norm>
-0.379721

>  <SCORE.INTRA>
10.1403

>  <SCORE.INTRA.DIHEDRAL>
8.55728

>  <SCORE.INTRA.DIHEDRAL.0>
22.9177

>  <SCORE.INTRA.POLAR>
-1.93219

>  <SCORE.INTRA.POLAR.0>
-0.311208

>  <SCORE.INTRA.REPUL>
0.00949854

>  <SCORE.INTRA.REPUL.0>
0

>  <SCORE.INTRA.SOLV>
5.30578

>  <SCORE.INTRA.SOLV.lig_0>
-132.657

>  <SCORE.INTRA.VDW>
9.73068

>  <SCORE.INTRA.VDW.0>
-4.68867

>  <SCORE.INTRA.norm>
0.316883

>  <SCORE.RESTR>
5.15618

>  <SCORE.RESTR.CAVITY>
5.15618

>  <SCORE.RESTR.norm>
0.161131

>  <SCORE.SYSTEM>
0

>  <SCORE.SYSTEM.CONST>
0

>  <SCORE.SYSTEM.DIHEDRAL>
0

>  <SCORE.SYSTEM.SOLV>
0

>  <SCORE.SYSTEM.norm>
0

>  <SCORE.heavy>
32

>  <SCORE.norm>
0.098292

>  <RMSD>
5.263

$$$$
1tob
 OpenBabel11021811413D
libRbt.so/2013.1/901 2013/11/27
 32 34  0  0  0  0  0  0  0  0999 V2000
   -1.7953    3.1329    2.9207 C   0  0  2  0  0  0  0  0  0  0  0  0
   -2.2184    1.7298    2.4923 C   0  0  1  0  0  0  0  0  0  0  0  0
   -1.2747    0.7015    3.1009 C   0  0  2  0  0  0  0  0  0  0  0  0
    0.1594    1.0362    2.7086 C   0  0  1  0  0  0  0  0  0  0  0  0
    0.4927    2.4642    3.1315 C   0  0  1  0  0  0  0  0  0  0  0  0
    1.8839    2.8843    2.6995 C   0  0  0  0  0  0  0  0  0  0  0  0
   -3.5469    1.4763    2.9261 O   0  0  0  0  0  0  0  0  0  0  0  0
   -1.6511   -0.6715    2.7000 N   0  3  0  0  0  0  0  0  0  0  0  0
    1.0534    0.1217    3.3286 O   0  0  0  0  0  0  0  0  0  0  0  0
   -0.4400    3.3886    2.5309 O   0  0  0  0  0  0  0  0  0  0  0  0
    1.8407    3.7177    1.5499 O   0  0  0  0  0  0  0  0  0  0  0  0
   -1.8612    5.5492    5.0780 C   0  0  2  0  0  0  0  0  0  0  0  0
   -2.7526    6.6876    5.5552 C   0  0  0  0  0  0  0  0  0  0  0  0
   -3.7762    7.0517    4.4796 C   0  0  1  0  0  0  0  0  0  0  0  0
   -4.6416    5.8349    4.1599 C   0  0  2  0  0  0  0  0  0  0  0  0
   -3.7613    4.6774    3.6860 C   0  0  1  0  0  0  0  0  0  0  0  0
   -2.7211    4.3375    4.7528 C   0  0  1  0  0  0  0  0  0  0  0  0
   -0.8900    5.1703    6.1276 N   0  3  0  0  0  0  0  0  0  0  0  0
   -4.5827    8.2181    4.9237 N   0  3  0  0  0  0  0  0  0  0  0  0
   -4.5673    3.5383    3.4161 O   0  0  0  0  0  0  0  0  0  0  0  0
   -1.8858    3.2591    4.2943 O   0  0  0  0  0  0  0  0  0  0  0  0
   -5.1128    6.8115    2.0179 C   0  0  1  0  0  0  0  0  0  0  0  0
   -6.2312    7.0340    0.9983 C   0  0  1  0  0  0  0  0  0  0  0  0
   -6.7757    5.6989    0.5131 C   0  0  0  0  0  0  0  0  0  0  0  0
   -5.6321    4.8609   -0.0347 C   0  0  1  0  0  0  0  0  0  0  0  0
   -4.5499    4.7037    1.0329 C   0  0  1  0  0  0  0  0  0  0  0  0
   -3.3461    3.9245    0.5352 C   0  0  0  0  0  0  0  0  0  0  0  0
   -7.2976    7.8991    1.5559 N   0  3  0  0  0  0  0  0  0  0  0  0
   -2.0897    4.6894    0.7200 N   0  3  0  0  0  0  0  0  0  0  0  0
   -5.6090    6.1652    3.1423 O   0  0  0  0  0  0  0  0  0  0  0  0
   -6.1121    3.5840   -0.4297 O   0  0  0  0  0  0  0  0  0  0  0  0
   -4.0746    6.0007    1.4540 O   0  0  0  0  0  0  0  0  0  0  0  0
  1  2  1  0  0  0  0
  1 10  1  0  0  0  0
  1 21  1  1  0  0  0
  2  3  1  0  0  0  0
  2  7  1  1  0  0  0
  3  4  1  0  0  0  0
  3  8  1  6  0  0  0
  4  5  1  0  0  0  0
  4  9  1  1  0  0  0
  5  6  1  6  0  0  0
  5 10  1  0  0  0  0
  6 11  1  0  0  0  0
 12 13  1  0  0  0  0
 12 17  1  0  0  0  0
 12 18  1  1  0  0  0
 13 14  1  0  0  0  0
 14 15  1  0  0  0  0
 14 19  1  1  0  0  0
 15 16  1  0  0  0  0
 15 30  1  6  0  0  0
 16 17  1  0  0  0  0
 16 20  1  1  0  0  0
 17 21  1  6  0  0  0
 22 23  1  0  0  0  0
 22 30  1  1  0  0  0
 22 32  1  0  0  0  0
 23 24  1  0  0  0  0
 23 28  1  1  0  0  0
 24 25  1  0  0  0  0
 25 26  1  0  0  0  0
 25 31  1  1  0  0  0
 26 27  1  6  0  0  0
 26 32  1  0  0  0  0
 27 29  1  0  0  0  0
M  CHG  5   8   1  18   1  19   1  28   1  29   1
M  END
>  <CHROM.1>
-123.65421849,102.38841201,-23.84865384,156.28573890,101.99597043,177.55223398
-31.85181014,62.51719047,48.84311560,-140.33757229,-97.11770214,177.11242305
60.65249165,170.95995422,125.04163924,162.12381596,-2.91275799,4.21642970
2.74379670,0.41203174,0.59059036,-2.42232111

>  <Name>
1tob

>  <RI>
0

>  <Rbt.Current_Directory>
/home/itssahil/PROJECTS/Mol_Feturizer/New_Systems/rnas/1tob

>  <Rbt.Executable>
rbdock ($Id: //depot/dev/client3/rdock/2013.1/src/exe/rbdock.cxx#4 $)

>  <Rbt.Library>
libRbt.so (2013.1, Build901 2013/11/27)

>  <Rbt.Parameter_File>
/export/apps/rDock/src/rDock_2013.1_src/data/scripts/dock_solv.prm

>  <Rbt.Receptor>
prm/blind_docking_100.prm

>  <SCORE>
9.70343

>  <SCORE.INTER>
-16.2375

>  <SCORE.INTER.CONST>
1

>  <SCORE.INTER.POLAR>
-5.87102

>  <SCORE.INTER.ROT>
6

>  <SCORE.INTER.SOLV>
42.951

>  <SCORE.INTER.VDW>
-13.1719

>  <SCORE.INTER.norm>
-0.507422

>  <SCORE.INTRA>
20.9438

>  <SCORE.INTRA.DIHEDRAL>
18.0118

>  <SCORE.INTRA.DIHEDRAL.0>
22.9177

>  <SCORE.INTRA.POLAR>
-0.380007

>  <SCORE.INTRA.POLAR.0>
-0.311208

>  <SCORE.INTRA.REPUL>
0

>  <SCORE.INTRA.REPUL.0>
0

>  <SCORE.INTRA.SOLV>
3.11559

>  <SCORE.INTRA.SOLV.lig_0>
-132.657

>  <SCORE.INTRA.VDW>
11.6721

>  <SCORE.INTRA.VDW.0>
-4.68867

>  <SCORE.INTRA.norm>
0.654493

>  <SCORE.RESTR>
4.99716

>  <SCORE.RESTR.CAVITY>
4.99716

>  <SCORE.RESTR.norm>
0.156161

>  <SCORE.SYSTEM>
0

>  <SCORE.SYSTEM.CONST>
0

>  <SCORE.SYSTEM.DIHEDRAL>
0

>  <SCORE.SYSTEM.SOLV>
0

>  <SCORE.SYSTEM.norm>
0

>  <SCORE.heavy>
32

>  <SCORE.norm>
0.303232

>  <RMSD>
5.264

$$$$
1tob
 OpenBabel11021811413D
libRbt.so/2013.1/901 2013/11/27
 32 34  0  0  0  0  0  0  0  0999 V2000
   -1.2204    3.3018    3.1699 C   0  0  2  0  0  0  0  0  0  0  0  0
   -1.4626    1.8674    2.7063 C   0  0  1  0  0  0  0  0  0  0  0  0
   -0.3679    0.9605    3.2519 C   0  0  2  0  0  0  0  0  0  0  0  0
    0.9933    1.5003    2.8297 C   0  0  1  0  0  0  0  0  0  0  0  0
    1.1431    2.9473    3.2914 C   0  0  1  0  0  0  0  0  0  0  0  0
    2.4489    3.5669    2.8337 C   0  0  0  0  0  0  0  0  0  0  0  0
   -2.7290    1.4212    3.1696 O   0  0  0  0  0  0  0  0  0  0  0  0
   -0.5670   -0.4385    2.8155 N   0  3  0  0  0  0  0  0  0  0  0  0
    2.0238    0.6990    3.3920 O   0  0  0  0  0  0  0  0  0  0  0  0
    0.0737    3.7525    2.7500 O   0  0  0  0  0  0  0  0  0  0  0  0
    2.5727    3.5309    1.4190 O   0  0  0  0  0  0  0  0  0  0  0  0
   -1.5863    5.5234    5.6186 C   0  0  2  0  0  0  0  0  0  0  0  0
   -2.6389    6.4814    6.1593 C   0  0  0  0  0  0  0  0  0  0  0  0
   -3.6205    6.8754    5.0554 C   0  0  1  0  0  0  0  0  0  0  0  0
   -4.3093    5.6266    4.5096 C   0  0  2  0  0  0  0  0  0  0  0  0
   -3.2656    4.6481    3.9687 C   0  0  1  0  0  0  0  0  0  0  0  0
   -2.2699    4.2810    5.0685 C   0  0  1  0  0  0  0  0  0  0  0  0
   -0.6530    5.1127    6.6904 N   0  3  0  0  0  0  0  0  0  0  0  0
   -4.5901    7.8747    5.5743 N   0  3  0  0  0  0  0  0  0  0  0  0
   -3.9084    3.4755    3.4872 O   0  0  0  0  0  0  0  0  0  0  0  0
   -1.2812    3.3734    4.5490 O   0  0  0  0  0  0  0  0  0  0  0  0
   -4.6763    6.5422    2.3208 C   0  0  1  0  0  0  0  0  0  0  0  0
   -5.7117    7.3963    1.5871 C   0  0  1  0  0  0  0  0  0  0  0  0
   -6.8692    6.5304    1.1130 C   0  0  0  0  0  0  0  0  0  0  0  0
   -6.3281    5.3932    0.2619 C   0  0  1  0  0  0  0  0  0  0  0  0
   -5.2876    4.6042    1.0559 C   0  0  1  0  0  0  0  0  0  0  0  0
   -4.6594    3.4846    0.2459 C   0  0  0  0  0  0  0  0  0  0  0  0
   -6.1712    8.5227    2.4336 N   0  3  0  0  0  0  0  0  0  0  0  0
   -3.4840    2.9059    0.9396 N   0  3  0  0  0  0  0  0  0  0  0  0
   -5.2352    5.9855    3.4635 O   0  0  0  0  0  0  0  0  0  0  0  0
   -7.3889    4.5355   -0.1329 O   0  0  0  0  0  0  0  0  0  0  0  0
   -4.2179    5.4772    1.4789 O   0  0  0  0  0  0  0  0  0  0  0  0
  1  2  1  0  0  0  0
  1 10  1  0  0  0  0
  1 21  1  1  0  0  0
  2  3  1  0  0  0  0
  2  7  1  1  0  0  0
  3  4  1  0  0  0  0
  3  8  1  6  0  0  0
  4  5  1  0  0  0  0
  4  9  1  1  0  0  0
  5  6  1  6  0  0  0
  5 10  1  0  0  0  0
  6 11  1  0  0  0  0
 12 13  1  0  0  0  0
 12 17  1  0  0  0  0
 12 18  1  1  0  0  0
 13 14  1  0  0  0  0
 14 15  1  0  0  0  0
 14 19  1  1  0  0  0
 15 16  1  0  0  0  0
 15 30  1  6  0  0  0
 16 17  1  0  0  0  0
 16 20  1  1  0  0  0
 17 21  1  6  0  0  0
 22 23  1  0  0  0  0
 22 30  1  1  0  0  0
 22 32  1  0  0  0  0
 23 24  1  0  0  0  0
 23 28  1  1  0  0  0
 24 25  1  0  0  0  0
 25 26  1  0  0  0  0
 25 31  1  1  0  0  0
 26 27  1  6  0  0  0
 26 32  1  0  0  0  0
 27 29  1  0  0  0  0
M  CHG  5   8   1  18   1  19   1  28   1  29   1
M  END
>  <CHROM.1>
-121.72979752,149.16419311,158.24922213,96.71580609,58.02686988,51.29417483
-35.53298677,-162.55037110,64.23483342,17.31667598,-106.39783028,-155.87506664
-178.60951531,172.92222777,169.15851665,42.08372560,-2.65424797,4.27013933
3.02418871,0.29541068,0.53132805,-2.33694793

>  <Name>
1tob

>  <RI>
0

>  <Rbt.Current_Directory>
/home/itssahil/PROJECTS/Mol_Feturizer/New_Systems/rnas/1tob

>  <Rbt.Executable>
rbdock ($Id: //depot/dev/client3/rdock/2013.1/src/exe/rbdock.cxx#4 $)

>  <Rbt.Library>
libRbt.so (2013.1, Build901 2013/11/27)

>  <Rbt.Parameter_File>
/export/apps/rDock/src/rDock_2013.1_src/data/scripts/dock_solv.prm

>  <Rbt.Receptor>
prm/blind_docking_20.prm

>  <SCORE>
-22.315

>  <SCORE.INTER>
-40.793

>  <SCORE.INTER.CONST>
1

>  <SCORE.INTER.POLAR>
-7.49956

>  <SCORE.INTER.ROT>
6

>  <SCORE.INTER.SOLV>
40.2496

>  <SCORE.INTER.VDW>
-23.2133

>  <SCORE.INTER.norm>
-1.27478

>  <SCORE.INTRA>
13.3968

>  <SCORE.INTRA.DIHEDRAL>
12.626

>  <SCORE.INTRA.DIHEDRAL.0>
22.9177

>  <SCORE.INTRA.POLAR>
-0.957437

>  <SCORE.INTRA.POLAR.0>
-0.311208

>  <SCORE.INTRA.REPUL>
0.110295

>  <SCORE.INTRA.REPUL.0>
0

>  <SCORE.INTRA.SOLV>
6.80584

>  <SCORE.INTRA.SOLV.lig_0>
-132.657

>  <SCORE.INTRA.VDW>
6.38471

>  <SCORE.INTRA.VDW.0>
-4.68867

>  <SCORE.INTRA.norm>
0.41865

>  <SCORE.RESTR>
5.08121

>  <SCORE.RESTR.CAVITY>
5.08121

>  <SCORE.RESTR.norm>
0.158788

>  <SCORE.SYSTEM>
0

>  <SCORE.SYSTEM.CONST>
0

>  <SCORE.SYSTEM.DIHEDRAL>
0

>  <SCORE.SYSTEM.SOLV>
0

>  <SCORE.SYSTEM.norm>
0

>  <SCORE.heavy>
32

>  <SCORE.norm>
-0.697344

>  <RMSD>
5.266

$$$$
1tob
 OpenBabel11021811413D
libRbt.so/2013.1/901 2013/11/27
 32 34  0  0  0  0  0  0  0  0999 V2000
   -1.9204    3.8508    5.1615 C   0  0  2  0  0  0  0  0  0  0  0  0
   -0.4125    3.9493    5.3799 C   0  0  1  0  0  0  0  0  0  0  0  0
    0.3140    3.6795    4.0693 C   0  0  2  0  0  0  0  0  0  0  0  0
   -0.1203    2.3262    3.5193 C   0  0  1  0  0  0  0  0  0  0  0  0
   -1.6387    2.2909    3.3688 C   0  0  1  0  0  0  0  0  0  0  0  0
   -2.1406    0.9403    2.8971 C   0  0  0  0  0  0  0  0  0  0  0  0
   -0.0804    5.2466    5.8532 O   0  0  0  0  0  0  0  0  0  0  0  0
    1.7803    3.7595    4.2456 N   0  3  0  0  0  0  0  0  0  0  0  0
    0.5007    2.0965    2.2617 O   0  0  0  0  0  0  0  0  0  0  0  0
   -2.2682    2.5620    4.6398 O   0  0  0  0  0  0  0  0  0  0  0  0
   -1.6007    0.6004    1.6279 O   0  0  0  0  0  0  0  0  0  0  0  0
   -3.3118    6.8997    5.0025 C   0  0  2  0  0  0  0  0  0  0  0  0
   -4.6313    7.5795    5.3416 C   0  0  0  0  0  0  0  0  0  0  0  0
   -5.5721    7.5515    4.1368 C   0  0  1  0  0  0  0  0  0  0  0  0
   -5.8415    6.1051    3.7279 C   0  0  2  0  0  0  0  0  0  0  0  0
   -4.5250    5.4033    3.3909 C   0  0  1  0  0  0  0  0  0  0  0  0
   -3.5775    5.4604    4.5887 C   0  0  1  0  0  0  0  0  0  0  0  0
   -2.4097    6.8946    6.1749 N   0  3  0  0  0  0  0  0  0  0  0  0
   -6.8211    8.2915    4.4537 N   0  3  0  0  0  0  0  0  0  0  0  0
   -4.7772    4.0498    3.0379 O   0  0  0  0  0  0  0  0  0  0  0  0
   -2.3350    4.8131    4.2599 O   0  0  0  0  0  0  0  0  0  0  0  0
   -6.3093    6.7782    1.4714 C   0  0  1  0  0  0  0  0  0  0  0  0
   -7.2794    6.5551    0.3100 C   0  0  1  0  0  0  0  0  0  0  0  0
   -7.2835    5.0900   -0.0998 C   0  0  0  0  0  0  0  0  0  0  0  0
   -5.8629    4.6561   -0.4222 C   0  0  1  0  0  0  0  0  0  0  0  0
   -4.9548    4.9311    0.7759 C   0  0  1  0  0  0  0  0  0  0  0  0
   -3.5044    4.5755    0.5042 C   0  0  0  0  0  0  0  0  0  0  0  0
   -8.6380    7.0410    0.6484 N   0  3  0  0  0  0  0  0  0  0  0  0
   -3.2142    3.1666    0.8630 N   0  3  0  0  0  0  0  0  0  0  0  0
   -6.7250    6.0660    2.5885 O   0  0  0  0  0  0  0  0  0  0  0  0
   -5.8388    3.2724   -0.7410 O   0  0  0  0  0  0  0  0  0  0  0  0
   -4.9937    6.3336    1.1179 O   0  0  0  0  0  0  0  0  0  0  0  0
  1  2  1  0  0  0  0
  1 10  1  0  0  0  0
  1 21  1  6  0  0  0
  2  3  1  0  0  0  0
  2  7  1  6  0  0  0
  3  4  1  0  0  0  0
  3  8  1  1  0  0  0
  4  5  1  0  0  0  0
  4  9  1  6  0  0  0
  5  6  1  1  0  0  0
  5 10  1  0  0  0  0
  6 11  1  0  0  0  0
 12 13  1  0  0  0  0
 12 17  1  0  0  0  0
 12 18  1  1  0  0  0
 13 14  1  0  0  0  0
 14 15  1  0  0  0  0
 14 19  1  1  0  0  0
 15 16  1  0  0  0  0
 15 30  1  6  0  0  0
 16 17  1  0  0  0  0
 16 20  1  1  0  0  0
 17 21  1  6  0  0  0
 22 23  1  0  0  0  0
 22 30  1  1  0  0  0
 22 32  1  0  0  0  0
 23 24  1  0  0  0  0
 23 28  1  1  0  0  0
 24 25  1  0  0  0  0
 25 26  1  0  0  0  0
 25 31  1  1  0  0  0
 26 27  1  6  0  0  0
 26 32  1  0  0  0  0
 27 29  1  0  0  0  0
M  CHG  5   8   1  18   1  19   1  28   1  29   1
M  END
>  <CHROM.1>
-139.33669131,159.92367436,-52.26930320,-165.53464462,-60.52375485,-86.26904814
88.13409427,-23.81113368,55.76653384,-71.27924401,109.61735514,175.37984429
28.10164520,69.12341573,-89.59297680,-166.54972295,-3.60122737,4.74733904
2.93425960,-0.02423229,-0.56879908,0.84878331

>  <Name>
1tob

>  <RI>
0

>  <Rbt.Current_Directory>
/home/itssahil/PROJECTS/Mol_Feturizer/New_Systems/rnas/1tob

>  <Rbt.Executable>
rbdock ($Id: //depot/dev/client3/rdock/2013.1/src/exe/rbdock.cxx#4 $)

>  <Rbt.Library>
libRbt.so (2013.1, Build901 2013/11/27)

>  <Rbt.Parameter_File>
/export/apps/rDock/src/rDock_2013.1_src/data/scripts/dock_solv.prm

>  <Rbt.Receptor>
prm/blind_docking_20.prm

>  <SCORE>
0.581589

>  <SCORE.INTER>
-13.9158

>  <SCORE.INTER.CONST>
1

>  <SCORE.INTER.POLAR>
-4.57637

>  <SCORE.INTER.ROT>
6

>  <SCORE.INTER.SOLV>
35.3898

>  <SCORE.INTER.VDW>
-13.4192

>  <SCORE.INTER.norm>
-0.434869

>  <SCORE.INTRA>
9.12986

>  <SCORE.INTRA.DIHEDRAL>
5.48758

>  <SCORE.INTRA.DIHEDRAL.0>
22.9177

>  <SCORE.INTRA.POLAR>
-1.77683

>  <SCORE.INTRA.POLAR.0>
-0.311208

>  <SCORE.INTRA.REPUL>
0

>  <SCORE.INTRA.REPUL.0>
0

>  <SCORE.INTRA.SOLV>
7.60818

>  <SCORE.INTRA.SOLV.lig_0>
-132.657

>  <SCORE.INTRA.VDW>
8.6232

>  <SCORE.INTRA.VDW.0>
-4.68867

>  <SCORE.INTRA.norm>
0.285308

>  <SCORE.RESTR>
5.36755

>  <SCORE.RESTR.CAVITY>
5.36755

>  <SCORE.RESTR.norm>
0.167736

>  <SCORE.SYSTEM>
0

>  <SCORE.SYSTEM.CONST>
0

>  <SCORE.SYSTEM.DIHEDRAL>
0

>  <SCORE.SYSTEM.SOLV>
0

>  <SCORE.SYSTEM.norm>
0

>  <SCORE.heavy>
32

>  <SCORE.norm>
0.0181747

>  <RMSD>
5.269

$$$$
1tob
 OpenBabel11021811413D
libRbt.so/2013.1/901 2013/11/27
 32 34  0  0  0  0  0  0  0  0999 V2000
    0.3487    2.2626    2.5705 C   0  0  2  0  0  0  0  0  0  0  0  0
    0.9333    1.4887    3.7497 C   0  0  1  0  0  0  0  0  0  0  0  0
    1.8542    2.3969    4.5531 C   0  0  2  0  0  0  0  0  0  0  0  0
    2.9225    2.9756    3.6330 C   0  0  1  0  0  0  0  0  0  0  0  0
    2.2622    3.6954    2.4604 C   0  0  1  0  0  0  0  0  0  0  0  0
    3.2749    4.2283    1.4660 C   0  0  0  0  0  0  0  0  0  0  0  0
   -0.1171    1.0159    4.5808 O   0  0  0  0  0  0  0  0  0  0  0  0
    2.4454    1.6764    5.7015 N   0  3  0  0  0  0  0  0  0  0  0  0
    3.7452    3.8783    4.3598 O   0  0  0  0  0  0  0  0  0  0  0  0
    1.3971    2.7866    1.7457 O   0  0  0  0  0  0  0  0  0  0  0  0
    4.4857    3.4865    1.5104 O   0  0  0  0  0  0  0  0  0  0  0  0
   -2.4014    2.5093    1.9016 C   0  0  2  0  0  0  0  0  0  0  0  0
   -3.5469    2.9281    0.9903 C   0  0  0  0  0  0  0  0  0  0  0  0
   -4.3539    4.0576    1.6309 C   0  0  1  0  0  0  0  0  0  0  0  0
   -3.4462    5.2594    1.8834 C   0  0  2  0  0  0  0  0  0  0  0  0
   -2.2840    4.8550    2.7917 C   0  0  1  0  0  0  0  0  0  0  0  0
   -1.4988    3.7059    2.1601 C   0  0  1  0  0  0  0  0  0  0  0  0
   -1.5970    1.4390    1.2724 N   0  3  0  0  0  0  0  0  0  0  0  0
   -5.5170    4.3982    0.7711 N   0  3  0  0  0  0  0  0  0  0  0  0
   -1.4265    5.9688    3.0016 O   0  0  0  0  0  0  0  0  0  0  0  0
   -0.4171    3.3192    3.0268 O   0  0  0  0  0  0  0  0  0  0  0  0
   -5.1131    5.9552    3.4649 C   0  0  1  0  0  0  0  0  0  0  0  0
   -5.9227    7.1685    3.9258 C   0  0  1  0  0  0  0  0  0  0  0  0
   -5.0093    8.1947    4.5791 C   0  0  0  0  0  0  0  0  0  0  0  0
   -4.2389    7.5319    5.7094 C   0  0  1  0  0  0  0  0  0  0  0  0
   -3.4770    6.3203    5.1736 C   0  0  1  0  0  0  0  0  0  0  0  0
   -2.7287    5.5718    6.2618 C   0  0  0  0  0  0  0  0  0  0  0  0
   -6.6987    7.7496    2.8048 N   0  3  0  0  0  0  0  0  0  0  0  0
   -1.3024    5.3793    5.9062 N   0  3  0  0  0  0  0  0  0  0  0  0
   -4.1961    6.3306    2.4922 O   0  0  0  0  0  0  0  0  0  0  0  0
   -3.3308    8.4588    6.2865 O   0  0  0  0  0  0  0  0  0  0  0  0
   -4.3941    5.3851    4.5655 O   0  0  0  0  0  0  0  0  0  0  0  0
  1  2  1  0  0  0  0
  1 10  1  0  0  0  0
  1 21  1  1  0  0  0
  2  3  1  0  0  0  0
  2  7  1  1  0  0  0
  3  4  1  0  0  0  0
  3  8  1  1  0  0  0
  4  5  1  0  0  0  0
  4  9  1  1  0  0  0
  5  6  1  6  0  0  0
  5 10  1  0  0  0  0
  6 11  1  0  0  0  0
 12 13  1  0  0  0  0
 12 17  1  0  0  0  0
 12 18  1  6  0  0  0
 13 14  1  0  0  0  0
 14 15  1  0  0  0  0
 14 19  1  6  0  0  0
 15 16  1  0  0  0  0
 15 30  1  1  0  0  0
 16 17  1  0  0  0  0
 16 20  1  6  0  0  0
 17 21  1  1  0  0  0
 22 23  1  0  0  0  0
 22 30  1  6  0  0  0
 22 32  1  0  0  0  0
 23 24  1  0  0  0  0
 23 28  1  6  0  0  0
 24 25  1  0  0  0  0
 25 26  1  0  0  0  0
 25 31  1  6  0  0  0
 26 27  1  1  0  0  0
 26 32  1  0  0  0  0
 27 29  1  0  0  0  0
M  CHG  5   8   1  18   1  19   1  28   1  29   1
M  END
>  <CHROM.1>
-150.91927806,65.52399787,-165.37853401,-175.70343045,25.31622329,71.57825477
-27.62690901,-61.09290392,40.56739165,53.97306896,56.47068074,-174.70076672
-168.97086599,86.55299000,-127.73919968,-36.07293248,-1.50487489,4.44590967
3.35167576,0.36911213,0.35638995,-2.26335783

>  <Name>
1tob

>  <RI>
0

>  <Rbt.Current_Directory>
/home/itssahil/PROJECTS/Mol_Feturizer/New_Systems/rnas/1tob

>  <Rbt.Executable>
rbdock ($Id: //depot/dev/client3/rdock/2013.1/src/exe/rbdock.cxx#4 $)

>  <Rbt.Library>
libRbt.so (2013.1, Build901 2013/11/27)

>  <Rbt.Parameter_File>
/export/apps/rDock/src/rDock_2013.1_src/data/scripts/dock_solv.prm

>  <Rbt.Receptor>
prm/blind_docking_100.prm

>  <SCORE>
8.22047

>  <SCORE.INTER>
-10.2153

>  <SCORE.INTER.CONST>
1

>  <SCORE.INTER.POLAR>
-5.83264

>  <SCORE.INTER.ROT>
6

>  <SCORE.INTER.SOLV>
32.6826

>  <SCORE.INTER.VDW>
-5.86226

>  <SCORE.INTER.norm>
-0.319228

>  <SCORE.INTRA>
10.4566

>  <SCORE.INTRA.DIHEDRAL>
-1.03159

>  <SCORE.INTRA.DIHEDRAL.0>
22.9177

>  <SCORE.INTRA.POLAR>
0.0492202

>  <SCORE.INTRA.POLAR.0>
-0.311208

>  <SCORE.INTRA.REPUL>
0

>  <SCORE.INTRA.REPUL.0>
0

>  <SCORE.INTRA.SOLV>
1.92849

>  <SCORE.INTRA.SOLV.lig_0>
-132.657

>  <SCORE.INTRA.VDW>
9.84083

>  <SCORE.INTRA.VDW.0>
-4.68867

>  <SCORE.INTRA.norm>
0.326769

>  <SCORE.RESTR>
7.97914

>  <SCORE.RESTR.CAVITY>
7.97914

>  <SCORE.RESTR.norm>
0.249348

>  <SCORE.SYSTEM>
0

>  <SCORE.SYSTEM.CONST>
0

>  <SCORE.SYSTEM.DIHEDRAL>
0

>  <SCORE.SYSTEM.SOLV>
0

>  <SCORE.SYSTEM.norm>
0

>  <SCORE.heavy>
32

>  <SCORE.norm>
0.25689

>  <RMSD>
5.289

$$$$
1tob
 OpenBabel11021811413D
libRbt.so/2013.1/901 2013/11/27
 32 34  0  0  0  0  0  0  0  0999 V2000
   -0.1430    3.2444    5.4575 C   0  0  2  0  0  0  0  0  0  0  0  0
    1.2676    2.7778    5.1058 C   0  0  1  0  0  0  0  0  0  0  0  0
    1.3778    2.5666    3.6020 C   0  0  2  0  0  0  0  0  0  0  0  0
    0.2981    1.5917    3.1476 C   0  0  1  0  0  0  0  0  0  0  0  0
   -1.0754    2.1051    3.5710 C   0  0  1  0  0  0  0  0  0  0  0  0
   -2.1879    1.1388    3.2144 C   0  0  0  0  0  0  0  0  0  0  0  0
    2.2129    3.7524    5.5230 O   0  0  0  0  0  0  0  0  0  0  0  0
    2.7318    2.1061    3.2255 N   0  3  0  0  0  0  0  0  0  0  0  0
    0.3494    1.4415    1.7352 O   0  0  0  0  0  0  0  0  0  0  0  0
   -1.1137    2.2933    5.0022 O   0  0  0  0  0  0  0  0  0  0  0  0
   -3.1179    1.7269    2.3159 O   0  0  0  0  0  0  0  0  0  0  0  0
   -1.8777    5.9890    6.0200 C   0  0  2  0  0  0  0  0  0  0  0  0
   -3.3218    6.4615    6.1167 C   0  0  0  0  0  0  0  0  0  0  0  0
   -3.7963    7.0088    4.7703 C   0  0  1  0  0  0  0  0  0  0  0  0
   -3.6935    5.9182    3.7064 C   0  0  2  0  0  0  0  0  0  0  0  0
   -2.2495    5.4253    3.6009 C   0  0  1  0  0  0  0  0  0  0  0  0
   -1.7709    4.9069    4.9566 C   0  0  1  0  0  0  0  0  0  0  0  0
   -1.4235    5.4279    7.3112 N   0  3  0  0  0  0  0  0  0  0  0  0
   -5.1766    7.5436    4.9003 N   0  3  0  0  0  0  0  0  0  0  0  0
   -2.1632    4.3911    2.6298 O   0  0  0  0  0  0  0  0  0  0  0  0
   -0.4068    4.4601    4.8547 O   0  0  0  0  0  0  0  0  0  0  0  0
   -3.7491    5.6886    1.3173 C   0  0  1  0  0  0  0  0  0  0  0  0
   -3.4623    6.6211    0.1390 C   0  0  1  0  0  0  0  0  0  0  0  0
   -4.7261    7.3661   -0.2637 C   0  0  0  0  0  0  0  0  0  0  0  0
   -5.8279    6.3611   -0.5574 C   0  0  1  0  0  0  0  0  0  0  0  0
   -6.0379    5.4560    0.6560 C   0  0  1  0  0  0  0  0  0  0  0  0
   -7.0869    4.3861    0.4131 C   0  0  0  0  0  0  0  0  0  0  0  0
   -2.3472    7.5465    0.4497 N   0  3  0  0  0  0  0  0  0  0  0  0
   -8.3424    4.9674   -0.1194 N   0  3  0  0  0  0  0  0  0  0  0  0
   -4.1345    6.4246    2.4299 O   0  0  0  0  0  0  0  0  0  0  0  0
   -7.0348    7.0416   -0.8690 O   0  0  0  0  0  0  0  0  0  0  0  0
   -4.8069    4.7790    0.9905 O   0  0  0  0  0  0  0  0  0  0  0  0
  1  2  1  0  0  0  0
  1 10  1  0  0  0  0
  1 21  1  6  0  0  0
  2  3  1  0  0  0  0
  2  7  1  6  0  0  0
  3  4  1  0  0  0  0
  3  8  1  1  0  0  0
  4  5  1  0  0  0  0
  4  9  1  6  0  0  0
  5  6  1  1  0  0  0
  5 10  1  0  0  0  0
  6 11  1  0  0  0  0
 12 13  1  0  0  0  0
 12 17  1  0  0  0  0
 12 18  1  1  0  0  0
 13 14  1  0  0  0  0
 14 15  1  0  0  0  0
 14 19  1  1  0  0  0
 15 16  1  0  0  0  0
 15 30  1  6  0  0  0
 16 17  1  0  0  0  0
 16 20  1  6  0  0  0
 17 21  1  6  0  0  0
 22 23  1  0  0  0  0
 22 30  1  1  0  0  0
 22 32  1  0  0  0  0
 23 24  1  0  0  0  0
 23 28  1  1  0  0  0
 24 25  1  0  0  0  0
 25 26  1  0  0  0  0
 25 31  1  1  0  0  0
 26 27  1  6  0  0  0
 26 32  1  0  0  0  0
 27 29  1  0  0  0  0
M  CHG  5   8   1  18   1  19   1  28   1  29   1
M  END
>  <CHROM.1>
171.46864043,54.06555467,155.41105331,-68.80527891,-118.73795016,100.14807052
27.51293377,175.58422334,162.40804381,-51.58474343,102.98103861,-144.51596996
48.37055013,63.09776997,-50.84067011,-108.41211212,-2.59232518,4.64904632
2.95917016,0.16468246,-0.66088458,0.94087778

>  <Name>
1tob

>  <RI>
0

>  <Rbt.Current_Directory>
/home/itssahil/PROJECTS/Mol_Feturizer/New_Systems/rnas/1tob

>  <Rbt.Executable>
rbdock ($Id: //depot/dev/client3/rdock/2013.1/src/exe/rbdock.cxx#4 $)

>  <Rbt.Library>
libRbt.so (2013.1, Build901 2013/11/27)

>  <Rbt.Parameter_File>
/export/apps/rDock/src/rDock_2013.1_src/data/scripts/dock_solv.prm

>  <Rbt.Receptor>
prm/blind_docking_20.prm

>  <SCORE>
-10.1731

>  <SCORE.INTER>
-25.4053

>  <SCORE.INTER.CONST>
1

>  <SCORE.INTER.POLAR>
-5.30419

>  <SCORE.INTER.ROT>
6

>  <SCORE.INTER.SOLV>
31.6095

>  <SCORE.INTER.VDW>
-17.3927

>  <SCORE.INTER.norm>
-0.793915

>  <SCORE.INTRA>
9.49749

>  <SCORE.INTRA.DIHEDRAL>
8.24764

>  <SCORE.INTRA.DIHEDRAL.0>
22.9177

>  <SCORE.INTRA.POLAR>
-1.42356

>  <SCORE.INTRA.POLAR.0>
-0.311208

>  <SCORE.INTRA.REPUL>
0.691784

>  <SCORE.INTRA.REPUL.0>
0

>  <SCORE.INTRA.SOLV>
-2.1187

>  <SCORE.INTRA.SOLV.lig_0>
-132.657

>  <SCORE.INTRA.VDW>
7.8142

>  <SCORE.INTRA.VDW.0>
-4.68867

>  <SCORE.INTRA.norm>
0.296797

>  <SCORE.RESTR>
5.73467

>  <SCORE.RESTR.CAVITY>
5.73467

>  <SCORE.RESTR.norm>
0.179208

>  <SCORE.SYSTEM>
0

>  <SCORE.SYSTEM.CONST>
0

>  <SCORE.SYSTEM.DIHEDRAL>
0

>  <SCORE.SYSTEM.SOLV>
0

>  <SCORE.SYSTEM.norm>
0

>  <SCORE.heavy>
32

>  <SCORE.norm>
-0.31791

>  <RMSD>
5.311

$$$$
1tob
 OpenBabel11021811413D
libRbt.so/2013.1/901 2013/11/27
 32 34  0  0  0  0  0  0  0  0999 V2000
   -1.1685    3.3567    6.0411 C   0  0  2  0  0  0  0  0  0  0  0  0
   -1.1115    3.9551    7.4447 C   0  0  1  0  0  0  0  0  0  0  0  0
    0.3380    4.0601    7.8988 C   0  0  2  0  0  0  0  0  0  0  0  0
    0.9966    2.6887    7.8096 C   0  0  1  0  0  0  0  0  0  0  0  0
    0.8622    2.1402    6.3918 C   0  0  1  0  0  0  0  0  0  0  0  0
    1.4318    0.7417    6.2575 C   0  0  0  0  0  0  0  0  0  0  0  0
   -1.7066    5.2448    7.4404 O   0  0  0  0  0  0  0  0  0  0  0  0
    0.4307    4.6301    9.2604 N   0  3  0  0  0  0  0  0  0  0  0  0
    2.3687    2.7902    8.1661 O   0  0  0  0  0  0  0  0  0  0  0  0
   -0.5308    2.0734    6.0171 O   0  0  0  0  0  0  0  0  0  0  0  0
    1.4629    0.3221    4.9007 O   0  0  0  0  0  0  0  0  0  0  0  0
   -0.9170    2.8077    3.1928 C   0  0  2  0  0  0  0  0  0  0  0  0
   -1.5054    2.8185    1.7885 C   0  0  0  0  0  0  0  0  0  0  0  0
   -2.9826    3.2103    1.8311 C   0  0  1  0  0  0  0  0  0  0  0  0
   -3.1290    4.5991    2.4490 C   0  0  2  0  0  0  0  0  0  0  0  0
   -2.5354    4.6092    3.8585 C   0  0  1  0  0  0  0  0  0  0  0  0
   -1.0670    4.1882    3.8133 C   0  0  1  0  0  0  0  0  0  0  0  0
    0.5207    2.4613    3.1546 N   0  3  0  0  0  0  0  0  0  0  0  0
   -3.5650    3.1345    0.4661 N   0  3  0  0  0  0  0  0  0  0  0  0
   -2.6484    5.9102    4.4195 O   0  0  0  0  0  0  0  0  0  0  0  0
   -0.5190    4.1838    5.1439 O   0  0  0  0  0  0  0  0  0  0  0  0
   -4.8400    6.1958    1.9134 C   0  0  1  0  0  0  0  0  0  0  0  0
   -5.8320    6.9607    2.7914 C   0  0  1  0  0  0  0  0  0  0  0  0
   -7.1385    6.1898    2.9057 C   0  0  0  0  0  0  0  0  0  0  0  0
   -7.6760    5.9059    1.5125 C   0  0  1  0  0  0  0  0  0  0  0  0
   -6.6215    5.1617    0.6941 C   0  0  1  0  0  0  0  0  0  0  0  0
   -7.0685    4.8954   -0.7318 C   0  0  0  0  0  0  0  0  0  0  0  0
   -5.2472    7.2624    4.1194 N   0  3  0  0  0  0  0  0  0  0  0  0
   -6.2929    3.7918   -1.3469 N   0  3  0  0  0  0  0  0  0  0  0  0
   -4.5198    4.9780    2.4987 O   0  0  0  0  0  0  0  0  0  0  0  0
   -8.8606    5.1274    1.5989 O   0  0  0  0  0  0  0  0  0  0  0  0
   -5.4071    5.9398    0.6227 O   0  0  0  0  0  0  0  0  0  0  0  0
  1  2  1  0  0  0  0
  1 10  1  0  0  0  0
  1 21  1  6  0  0  0
  2  3  1  0  0  0  0
  2  7  1  6  0  0  0
  3  4  1  0  0  0  0
  3  8  1  1  0  0  0
  4  5  1  0  0  0  0
  4  9  1  6  0  0  0
  5  6  1  1  0  0  0
  5 10  1  0  0  0  0
  6 11  1  0  0  0  0
 12 13  1  0  0  0  0
 12 17  1  0  0  0  0
 12 18  1  6  0  0  0
 13 14  1  0  0  0  0
 14 15  1  0  0  0  0
 14 19  1  6  0  0  0
 15 16  1  0  0  0  0
 15 30  1  1  0  0  0
 16 17  1  0  0  0  0
 16 20  1  6  0  0  0
 17 21  1  1  0  0  0
 22 23  1  0  0  0  0
 22 30  1  1  0  0  0
 22 32  1  0  0  0  0
 23 24  1  0  0  0  0
 23 28  1  1  0  0  0
 24 25  1  0  0  0  0
 25 26  1  0  0  0  0
 25 31  1  1  0  0  0
 26 27  1  6  0  0  0
 26 32  1  0  0  0  0
 27 29  1  0  0  0  0
M  CHG  5   8   1  18   1  19   1  28   1  29   1
M  END
>  <CHROM.1>
-147.47609423,-80.97762401,78.60097334,-57.35344709,-172.03703897,78.64703104
-89.70239231,-83.32827785,-126.16926041,174.55949972,-63.96431625,-137.80426954
-146.15350451,176.89765361,-159.54959519,171.28789756,-2.61856970,4.13233149
3.89181385,0.41575556,-0.61661477,1.05760610

>  <Name>
1tob

>  <RI>
0

>  <Rbt.Current_Directory>
/home/itssahil/PROJECTS/Mol_Feturizer/New_Systems/rnas/1tob

>  <Rbt.Executable>
rbdock ($Id: //depot/dev/client3/rdock/2013.1/src/exe/rbdock.cxx#4 $)

>  <Rbt.Library>
libRbt.so (2013.1, Build901 2013/11/27)

>  <Rbt.Parameter_File>
/export/apps/rDock/src/rDock_2013.1_src/data/scripts/dock_solv.prm

>  <Rbt.Receptor>
prm/blind_docking_80.prm

>  <SCORE>
-38.801

>  <SCORE.INTER>
-49.1911

>  <SCORE.INTER.CONST>
1

>  <SCORE.INTER.POLAR>
-9.63562

>  <SCORE.INTER.ROT>
6

>  <SCORE.INTER.SOLV>
34.6868

>  <SCORE.INTER.VDW>
-19.8376

>  <SCORE.INTER.norm>
-1.53722

>  <SCORE.INTRA>
-0.162299

>  <SCORE.INTRA.DIHEDRAL>
5.26419

>  <SCORE.INTRA.DIHEDRAL.0>
22.9177

>  <SCORE.INTRA.POLAR>
-1.77163

>  <SCORE.INTRA.POLAR.0>
-0.311208

>  <SCORE.INTRA.REPUL>
0

>  <SCORE.INTRA.REPUL.0>
0

>  <SCORE.INTRA.SOLV>
5.95825

>  <SCORE.INTRA.SOLV.lig_0>
-132.657

>  <SCORE.INTRA.VDW>
0.250031

>  <SCORE.INTRA.VDW.0>
-4.68867

>  <SCORE.INTRA.norm>
-0.00507183

>  <SCORE.RESTR>
10.5524

>  <SCORE.RESTR.CAVITY>
10.5524

>  <SCORE.RESTR.norm>
0.329763

>  <SCORE.SYSTEM>
0

>  <SCORE.SYSTEM.CONST>
0

>  <SCORE.SYSTEM.DIHEDRAL>
0

>  <SCORE.SYSTEM.SOLV>
0

>  <SCORE.SYSTEM.norm>
0

>  <SCORE.heavy>
32

>  <SCORE.norm>
-1.21253

>  <RMSD>
5.311

$$$$
1tob
 OpenBabel11021811413D
libRbt.so/2013.1/901 2013/11/27
 32 34  0  0  0  0  0  0  0  0999 V2000
   -0.8020    3.2541    5.4188 C   0  0  2  0  0  0  0  0  0  0  0  0
    0.7090    3.4532    5.5109 C   0  0  1  0  0  0  0  0  0  0  0  0
    1.3397    3.2314    4.1429 C   0  0  2  0  0  0  0  0  0  0  0  0
    0.9520    1.8515    3.6249 C   0  0  1  0  0  0  0  0  0  0  0  0
   -0.5679    1.7147    3.6016 C   0  0  1  0  0  0  0  0  0  0  0  0
   -1.0165    0.3332    3.1673 C   0  0  0  0  0  0  0  0  0  0  0  0
    0.9923    4.7703    5.9608 O   0  0  0  0  0  0  0  0  0  0  0  0
    2.8069    3.4092    4.1965 N   0  3  0  0  0  0  0  0  0  0  0  0
    1.4795    1.6626    2.3187 O   0  0  0  0  0  0  0  0  0  0  0  0
   -1.1056    1.9445    4.9220 O   0  0  0  0  0  0  0  0  0  0  0  0
   -2.3660    0.0860    3.5358 O   0  0  0  0  0  0  0  0  0  0  0  0
   -1.9799    6.0655    5.9500 C   0  0  2  0  0  0  0  0  0  0  0  0
   -3.1727    6.8346    6.5013 C   0  0  0  0  0  0  0  0  0  0  0  0
   -4.0350    7.3737    5.3596 C   0  0  1  0  0  0  0  0  0  0  0  0
   -4.5365    6.2141    4.5018 C   0  0  2  0  0  0  0  0  0  0  0  0
   -3.3507    5.4245    3.9454 C   0  0  1  0  0  0  0  0  0  0  0  0
   -2.4762    4.9134    5.0899 C   0  0  1  0  0  0  0  0  0  0  0  0
   -1.1598    5.5134    7.0504 N   0  3  0  0  0  0  0  0  0  0  0  0
   -5.1466    8.1925    5.9091 N   0  3  0  0  0  0  0  0  0  0  0  0
   -3.8216    4.3299    3.1707 O   0  0  0  0  0  0  0  0  0  0  0  0
   -1.3538    4.1857    4.5595 O   0  0  0  0  0  0  0  0  0  0  0  0
   -4.6739    7.4028    2.4205 C   0  0  1  0  0  0  0  0  0  0  0  0
   -5.6700    8.0092    1.4306 C   0  0  1  0  0  0  0  0  0  0  0  0
   -6.4516    6.9091    0.7282 C   0  0  0  0  0  0  0  0  0  0  0  0
   -5.4780    5.9431    0.0730 C   0  0  1  0  0  0  0  0  0  0  0  0
   -4.5063    5.4001    1.1201 C   0  0  1  0  0  0  0  0  0  0  0  0
   -3.4644    4.4705    0.5248 C   0  0  0  0  0  0  0  0  0  0  0  0
   -6.5630    8.9836    2.1011 N   0  3  0  0  0  0  0  0  0  0  0  0
   -4.0829    3.2364   -0.0156 N   0  3  0  0  0  0  0  0  0  0  0  0
   -5.3481    6.7111    3.4179 O   0  0  0  0  0  0  0  0  0  0  0  0
   -6.1892    4.8718   -0.5298 O   0  0  0  0  0  0  0  0  0  0  0  0
   -3.7970    6.4878    1.7519 O   0  0  0  0  0  0  0  0  0  0  0  0
  1  2  1  0  0  0  0
  1 10  1  0  0  0  0
  1 21  1  6  0  0  0
  2  3  1  0  0  0  0
  2  7  1  6  0  0  0
  3  4  1  0  0  0  0
  3  8  1  1  0  0  0
  4  5  1  0  0  0  0
  4  9  1  6  0  0  0
  5  6  1  1  0  0  0
  5 10  1  0  0  0  0
  6 11  1  0  0  0  0
 12 13  1  0  0  0  0
 12 17  1  0  0  0  0
 12 18  1  1  0  0  0
 13 14  1  0  0  0  0
 14 15  1  0  0  0  0
 14 19  1  1  0  0  0
 15 16  1  0  0  0  0
 15 30  1  6  0  0  0
 16 17  1  0  0  0  0
 16 20  1  1  0  0  0
 17 21  1  6  0  0  0
 22 23  1  0  0  0  0
 22 30  1  1  0  0  0
 22 32  1  0  0  0  0
 23 24  1  0  0  0  0
 23 28  1  1  0  0  0
 24 25  1  0  0  0  0
 25 26  1  0  0  0  0
 25 31  1  1  0  0  0
 26 27  1  6  0  0  0
 26 32  1  0  0  0  0
 27 29  1  0  0  0  0
M  CHG  5   8   1  18   1  19   1  28   1  29   1
M  END
>  <CHROM.1>
-129.22764891,176.00718306,-179.21701541,-50.87477980,161.98559849,-148.50728998
-159.54236551,115.08739972,70.21358214,-39.86399453,82.33272196,-173.33843153
-46.99264379,70.21820917,-65.17776122,80.79194625,-2.64603564,4.76296027
3.47290512,-0.12194304,-0.68676852,0.86856612

>  <Name>
1tob

>  <RI>
0

>  <Rbt.Current_Directory>
/home/itssahil/PROJECTS/Mol_Feturizer/New_Systems/rnas/1tob

>  <Rbt.Executable>
rbdock ($Id: //depot/dev/client3/rdock/2013.1/src/exe/rbdock.cxx#4 $)

>  <Rbt.Library>
libRbt.so (2013.1, Build901 2013/11/27)

>  <Rbt.Parameter_File>
/export/apps/rDock/src/rDock_2013.1_src/data/scripts/dock_solv.prm

>  <Rbt.Receptor>
prm/blind_docking_60.prm

>  <SCORE>
-3.74674

>  <SCORE.INTER>
-16.8935

>  <SCORE.INTER.CONST>
1

>  <SCORE.INTER.POLAR>
-6.15397

>  <SCORE.INTER.ROT>
6

>  <SCORE.INTER.SOLV>
39.8501

>  <SCORE.INTER.VDW>
-11.6325

>  <SCORE.INTER.norm>
-0.527923

>  <SCORE.INTRA>
11.0116

>  <SCORE.INTRA.DIHEDRAL>
0.622688

>  <SCORE.INTRA.DIHEDRAL.0>
22.9177

>  <SCORE.INTRA.POLAR>
-0.428315

>  <SCORE.INTRA.POLAR.0>
-0.311208

>  <SCORE.INTRA.REPUL>
0

>  <SCORE.INTRA.REPUL.0>
0

>  <SCORE.INTRA.SOLV>
1.52978

>  <SCORE.INTRA.SOLV.lig_0>
-132.657

>  <SCORE.INTRA.VDW>
11.3916

>  <SCORE.INTRA.VDW.0>
-4.68867

>  <SCORE.INTRA.norm>
0.344111

>  <SCORE.RESTR>
2.13525

>  <SCORE.RESTR.CAVITY>
2.13525

>  <SCORE.RESTR.norm>
0.0667264

>  <SCORE.SYSTEM>
0

>  <SCORE.SYSTEM.CONST>
0

>  <SCORE.SYSTEM.DIHEDRAL>
0

>  <SCORE.SYSTEM.SOLV>
0

>  <SCORE.SYSTEM.norm>
0

>  <SCORE.heavy>
32

>  <SCORE.norm>
-0.117086

>  <RMSD>
5.320

$$$$
1tob
 OpenBabel11021811413D
libRbt.so/2013.1/901 2013/11/27
 32 34  0  0  0  0  0  0  0  0999 V2000
   -2.1261    2.5191    3.1170 C   0  0  2  0  0  0  0  0  0  0  0  0
   -1.2320    1.3015    2.8952 C   0  0  1  0  0  0  0  0  0  0  0  0
    0.2154    1.6667    3.1954 C   0  0  2  0  0  0  0  0  0  0  0  0
    0.6212    2.8654    2.3462 C   0  0  1  0  0  0  0  0  0  0  0  0
   -0.3414    4.0241    2.5913 C   0  0  1  0  0  0  0  0  0  0  0  0
   -0.0356    5.2236    1.7159 C   0  0  0  0  0  0  0  0  0  0  0  0
   -1.6449    0.2421    3.7465 O   0  0  0  0  0  0  0  0  0  0  0  0
    1.1127    0.5103    2.9834 N   0  3  0  0  0  0  0  0  0  0  0  0
    1.9488    3.2564    2.6697 O   0  0  0  0  0  0  0  0  0  0  0  0
   -1.6945    3.6136    2.2985 O   0  0  0  0  0  0  0  0  0  0  0  0
   -0.9651    6.2755    1.9339 O   0  0  0  0  0  0  0  0  0  0  0  0
   -1.6887    5.2439    4.9798 C   0  0  2  0  0  0  0  0  0  0  0  0
   -2.3914    6.5612    5.2780 C   0  0  0  0  0  0  0  0  0  0  0  0
   -3.2885    6.9653    4.1078 C   0  0  1  0  0  0  0  0  0  0  0  0
   -4.3351    5.8805    3.8633 C   0  0  2  0  0  0  0  0  0  0  0  0
   -3.6467    4.5467    3.5697 C   0  0  1  0  0  0  0  0  0  0  0  0
   -2.7287    4.1626    4.7296 C   0  0  1  0  0  0  0  0  0  0  0  0
   -0.8445    4.8311    6.1223 N   0  3  0  0  0  0  0  0  0  0  0  0
   -3.9014    8.2922    4.3756 N   0  3  0  0  0  0  0  0  0  0  0  0
   -4.6237    3.5338    3.3704 O   0  0  0  0  0  0  0  0  0  0  0  0
   -2.0716    2.9155    4.4401 O   0  0  0  0  0  0  0  0  0  0  0  0
   -4.5380    6.5527    1.5675 C   0  0  1  0  0  0  0  0  0  0  0  0
   -5.4780    7.3176    0.6341 C   0  0  1  0  0  0  0  0  0  0  0  0
   -6.6693    6.4494    0.2581 C   0  0  0  0  0  0  0  0  0  0  0  0
   -6.1692    5.1456   -0.3422 C   0  0  1  0  0  0  0  0  0  0  0  0
   -5.2224    4.4553    0.6389 C   0  0  1  0  0  0  0  0  0  0  0  0
   -4.6362    3.1711    0.0809 C   0  0  0  0  0  0  0  0  0  0  0  0
   -5.8973    8.6051    1.2365 N   0  3  0  0  0  0  0  0  0  0  0  0
   -3.1555    3.1734    0.1538 N   0  3  0  0  0  0  0  0  0  0  0  0
   -5.1852    6.2487    2.7578 O   0  0  0  0  0  0  0  0  0  0  0  0
   -7.2672    4.2942   -0.6363 O   0  0  0  0  0  0  0  0  0  0  0  0
   -4.1158    5.3263    0.9586 O   0  0  0  0  0  0  0  0  0  0  0  0
  1  2  1  0  0  0  0
  1 10  1  0  0  0  0
  1 21  1  1  0  0  0
  2  3  1  0  0  0  0
  2  7  1  1  0  0  0
  3  4  1  0  0  0  0
  3  8  1  6  0  0  0
  4  5  1  0  0  0  0
  4  9  1  1  0  0  0
  5  6  1  6  0  0  0
  5 10  1  0  0  0  0
  6 11  1  0  0  0  0
 12 13  1  0  0  0  0
 12 17  1  0  0  0  0
 12 18  1  1  0  0  0
 13 14  1  0  0  0  0
 14 15  1  0  0  0  0
 14 19  1  1  0  0  0
 15 16  1  0  0  0  0
 15 30  1  6  0  0  0
 16 17  1  0  0  0  0
 16 20  1  1  0  0  0
 17 21  1  6  0  0  0
 22 23  1  0  0  0  0
 22 30  1  1  0  0  0
 22 32  1  0  0  0  0
 23 24  1  0  0  0  0
 23 28  1  1  0  0  0
 24 25  1  0  0  0  0
 25 26  1  0  0  0  0
 25 31  1  1  0  0  0
 26 27  1  6  0  0  0
 26 32  1  0  0  0  0
 27 29  1  0  0  0  0
M  CHG  5   8   1  18   1  19   1  28   1  29   1
M  END
>  <CHROM.1>
171.81556209,-76.71423714,-119.47470978,-60.78193476,178.38810406,-172.89780696
81.72214142,54.97234564,54.56419492,-154.36333279,-106.73382896,-162.85833163
176.94498329,-56.04208941,126.31600741,-66.98015728,-2.85569385,4.52531146
2.55868339,0.27463053,0.63598315,-2.53368161

>  <Name>
1tob

>  <RI>
0

>  <Rbt.Current_Directory>
/home/itssahil/PROJECTS/Mol_Feturizer/New_Systems/rnas/1tob

>  <Rbt.Executable>
rbdock ($Id: //depot/dev/client3/rdock/2013.1/src/exe/rbdock.cxx#4 $)

>  <Rbt.Library>
libRbt.so (2013.1, Build901 2013/11/27)

>  <Rbt.Parameter_File>
/export/apps/rDock/src/rDock_2013.1_src/data/scripts/dock_solv.prm

>  <Rbt.Receptor>
prm/blind_docking_20.prm

>  <SCORE>
9.89629

>  <SCORE.INTER>
-7.74557

>  <SCORE.INTER.CONST>
1

>  <SCORE.INTER.POLAR>
-3.73833

>  <SCORE.INTER.ROT>
6

>  <SCORE.INTER.SOLV>
36.0862

>  <SCORE.INTER.VDW>
-12.3314

>  <SCORE.INTER.norm>
-0.242049

>  <SCORE.INTRA>
12.7717

>  <SCORE.INTRA.DIHEDRAL>
-0.144221

>  <SCORE.INTRA.DIHEDRAL.0>
22.9177

>  <SCORE.INTRA.POLAR>
-0.855459

>  <SCORE.INTRA.POLAR.0>
-0.311208

>  <SCORE.INTRA.REPUL>
0.634815

>  <SCORE.INTRA.REPUL.0>
0

>  <SCORE.INTRA.SOLV>
4.93726

>  <SCORE.INTRA.SOLV.lig_0>
-132.657

>  <SCORE.INTRA.VDW>
10.1097

>  <SCORE.INTRA.VDW.0>
-4.68867

>  <SCORE.INTRA.norm>
0.399117

>  <SCORE.RESTR>
4.87013

>  <SCORE.RESTR.CAVITY>
4.87013

>  <SCORE.RESTR.norm>
0.152192

>  <SCORE.SYSTEM>
0

>  <SCORE.SYSTEM.CONST>
0

>  <SCORE.SYSTEM.DIHEDRAL>
0

>  <SCORE.SYSTEM.SOLV>
0

>  <SCORE.SYSTEM.norm>
0

>  <SCORE.heavy>
32

>  <SCORE.norm>
0.309259

>  <RMSD>
5.323

$$$$
1tob
 OpenBabel11021811413D
libRbt.so/2013.1/901 2013/11/27
 32 34  0  0  0  0  0  0  0  0999 V2000
    0.3256    0.9656    5.4769 C   0  0  2  0  0  0  0  0  0  0  0  0
    0.9316    0.9889    6.8781 C   0  0  1  0  0  0  0  0  0  0  0  0
    1.2888    2.4193    7.2585 C   0  0  2  0  0  0  0  0  0  0  0  0
    2.2140    3.0082    6.2003 C   0  0  1  0  0  0  0  0  0  0  0  0
    1.5578    2.9108    4.8258 C   0  0  1  0  0  0  0  0  0  0  0  0
    2.4629    3.4115    3.7173 C   0  0  0  0  0  0  0  0  0  0  0  0
   -0.0004    0.4636    7.8124 O   0  0  0  0  0  0  0  0  0  0  0  0
    1.8867    2.4788    8.6099 N   0  3  0  0  0  0  0  0  0  0  0  0
    2.4977    4.3657    6.5112 O   0  0  0  0  0  0  0  0  0  0  0  0
    1.2357    1.5351    4.5276 O   0  0  0  0  0  0  0  0  0  0  0  0
    1.7713    3.4916    2.4791 O   0  0  0  0  0  0  0  0  0  0  0  0
   -1.9247    1.2207    3.3389 C   0  0  2  0  0  0  0  0  0  0  0  0
   -2.2887    1.8224    1.9884 C   0  0  0  0  0  0  0  0  0  0  0  0
   -3.1685    3.0590    2.1739 C   0  0  1  0  0  0  0  0  0  0  0  0
   -2.4230    4.1009    3.0049 C   0  0  2  0  0  0  0  0  0  0  0  0
   -2.0419    3.5108    4.3635 C   0  0  1  0  0  0  0  0  0  0  0  0
   -1.1874    2.2583    4.1713 C   0  0  1  0  0  0  0  0  0  0  0  0
   -1.0462    0.0430    3.1669 N   0  3  0  0  0  0  0  0  0  0  0  0
   -3.5857    3.5858    0.8486 N   0  3  0  0  0  0  0  0  0  0  0  0
   -1.3240    4.4741    5.1229 O   0  0  0  0  0  0  0  0  0  0  0  0
   -0.8461    1.6987    5.4524 O   0  0  0  0  0  0  0  0  0  0  0  0
   -2.5678    6.4749    3.3321 C   0  0  1  0  0  0  0  0  0  0  0  0
   -3.1352    7.2663    4.5118 C   0  0  1  0  0  0  0  0  0  0  0  0
   -4.5901    7.6277    4.2535 C   0  0  0  0  0  0  0  0  0  0  0  0
   -4.6940    8.3745    2.9336 C   0  0  1  0  0  0  0  0  0  0  0  0
   -4.0882    7.5296    1.8135 C   0  0  1  0  0  0  0  0  0  0  0  0
   -4.1042    8.2391    0.4717 C   0  0  0  0  0  0  0  0  0  0  0  0
   -2.9645    6.5249    5.7836 N   0  3  0  0  0  0  0  0  0  0  0  0
   -3.2815    9.4720    0.4993 N   0  3  0  0  0  0  0  0  0  0  0  0
   -3.2454    5.2712    3.1906 O   0  0  0  0  0  0  0  0  0  0  0  0
   -6.0546    8.6600    2.6435 O   0  0  0  0  0  0  0  0  0  0  0  0
   -2.7108    7.2178    2.1152 O   0  0  0  0  0  0  0  0  0  0  0  0
  1  2  1  0  0  0  0
  1 10  1  0  0  0  0
  1 21  1  1  0  0  0
  2  3  1  0  0  0  0
  2  7  1  1  0  0  0
  3  4  1  0  0  0  0
  3  8  1  1  0  0  0
  4  5  1  0  0  0  0
  4  9  1  1  0  0  0
  5  6  1  6  0  0  0
  5 10  1  0  0  0  0
  6 11  1  0  0  0  0
 12 13  1  0  0  0  0
 12 17  1  0  0  0  0
 12 18  1  6  0  0  0
 13 14  1  0  0  0  0
 14 15  1  0  0  0  0
 14 19  1  6  0  0  0
 15 16  1  0  0  0  0
 15 30  1  1  0  0  0
 16 17  1  0  0  0  0
 16 20  1  1  0  0  0
 17 21  1  1  0  0  0
 22 23  1  0  0  0  0
 22 30  1  6  0  0  0
 22 32  1  0  0  0  0
 23 24  1  0  0  0  0
 23 28  1  1  0  0  0
 24 25  1  0  0  0  0
 25 26  1  0  0  0  0
 25 31  1  6  0  0  0
 26 27  1  6  0  0  0
 26 32  1  0  0  0  0
 27 29  1  0  0  0  0
M  CHG  5   8   1  18   1  19   1  28   1  29   1
M  END
>  <CHROM.1>
153.22598102,62.55877070,-49.25125305,-56.85244501,-171.65079983,-179.41425055
102.46032312,170.60988856,-150.45114157,-56.06594937,84.36470233,-133.34886757
-8.33306904,-59.35048135,62.64010827,-174.34477266,-1.39540060,4.21589879
4.05195152,0.40786420,0.86775855,-2.66576951

>  <Name>
1tob

>  <RI>
0

>  <Rbt.Current_Directory>
/home/itssahil/PROJECTS/Mol_Feturizer/New_Systems/rnas/1tob

>  <Rbt.Executable>
rbdock ($Id: //depot/dev/client3/rdock/2013.1/src/exe/rbdock.cxx#4 $)

>  <Rbt.Library>
libRbt.so (2013.1, Build901 2013/11/27)

>  <Rbt.Parameter_File>
/export/apps/rDock/src/rDock_2013.1_src/data/scripts/dock_solv.prm

>  <Rbt.Receptor>
prm/pocket_docking_8.prm

>  <SCORE>
-45.9911

>  <SCORE.INTER>
-43.6362

>  <SCORE.INTER.CONST>
1

>  <SCORE.INTER.POLAR>
-5.6746

>  <SCORE.INTER.ROT>
6

>  <SCORE.INTER.SOLV>
27.4107

>  <SCORE.INTER.VDW>
-26.9124

>  <SCORE.INTER.norm>
-1.36363

>  <SCORE.INTRA>
-2.35483

>  <SCORE.INTRA.DIHEDRAL>
-0.0836642

>  <SCORE.INTRA.DIHEDRAL.0>
22.9177

>  <SCORE.INTRA.POLAR>
-1.95333

>  <SCORE.INTRA.POLAR.0>
-0.311208

>  <SCORE.INTRA.REPUL>
0

>  <SCORE.INTRA.REPUL.0>
0

>  <SCORE.INTRA.SOLV>
-0.241109

>  <SCORE.INTRA.SOLV.lig_0>
-132.657

>  <SCORE.INTRA.VDW>
4.44886

>  <SCORE.INTRA.VDW.0>
-4.68867

>  <SCORE.INTRA.norm>
-0.0735885

>  <SCORE.RESTR>
0

>  <SCORE.RESTR.CAVITY>
0

>  <SCORE.RESTR.norm>
0

>  <SCORE.SYSTEM>
0

>  <SCORE.SYSTEM.CONST>
0

>  <SCORE.SYSTEM.DIHEDRAL>
0

>  <SCORE.SYSTEM.SOLV>
0

>  <SCORE.SYSTEM.norm>
0

>  <SCORE.heavy>
32

>  <SCORE.norm>
-1.43722

>  <RMSD>
5.362

$$$$
1tob
 OpenBabel11021811413D
libRbt.so/2013.1/901 2013/11/27
 32 34  0  0  0  0  0  0  0  0999 V2000
    1.3752    2.2294    4.1827 C   0  0  2  0  0  0  0  0  0  0  0  0
    2.1705    0.9654    4.5005 C   0  0  1  0  0  0  0  0  0  0  0  0
    1.9594    0.5798    5.9583 C   0  0  2  0  0  0  0  0  0  0  0  0
    2.3313    1.7571    6.8519 C   0  0  1  0  0  0  0  0  0  0  0  0
    1.5277    2.9896    6.4466 C   0  0  1  0  0  0  0  0  0  0  0  0
    1.9091    4.2172    7.2503 C   0  0  0  0  0  0  0  0  0  0  0  0
    1.7423   -0.0949    3.6580 O   0  0  0  0  0  0  0  0  0  0  0  0
    2.7227   -0.6389    6.3039 N   0  3  0  0  0  0  0  0  0  0  0  0
    2.0722    1.4300    8.2106 O   0  0  0  0  0  0  0  0  0  0  0  0
    1.7626    3.2981    5.0556 O   0  0  0  0  0  0  0  0  0  0  0  0
    1.5556    4.0722    8.6186 O   0  0  0  0  0  0  0  0  0  0  0  0
   -1.8355    1.1883    3.0278 C   0  0  2  0  0  0  0  0  0  0  0  0
   -2.6979    1.5003    1.8124 C   0  0  0  0  0  0  0  0  0  0  0  0
   -3.3877    2.8544    1.9800 C   0  0  1  0  0  0  0  0  0  0  0  0
   -2.3370    3.9499    2.1463 C   0  0  2  0  0  0  0  0  0  0  0  0
   -1.4552    3.6487    3.3592 C   0  0  1  0  0  0  0  0  0  0  0  0
   -0.7918    2.2812    3.1998 C   0  0  1  0  0  0  0  0  0  0  0  0
   -1.1396   -0.1059    2.8568 N   0  3  0  0  0  0  0  0  0  0  0  0
   -4.2909    3.1075    0.8275 N   0  3  0  0  0  0  0  0  0  0  0  0
   -0.4612    4.6556    3.4942 O   0  0  0  0  0  0  0  0  0  0  0  0
    0.0231    1.9965    4.3512 O   0  0  0  0  0  0  0  0  0  0  0  0
   -2.9828    6.0561    1.1920 C   0  0  1  0  0  0  0  0  0  0  0  0
   -2.9174    7.5245    1.6159 C   0  0  1  0  0  0  0  0  0  0  0  0
   -4.1527    7.8961    2.4223 C   0  0  0  0  0  0  0  0  0  0  0  0
   -5.3967    7.5673    1.6132 C   0  0  1  0  0  0  0  0  0  0  0  0
   -5.3762    6.0931    1.2111 C   0  0  1  0  0  0  0  0  0  0  0  0
   -6.5633    5.7056    0.3481 C   0  0  0  0  0  0  0  0  0  0  0  0
   -1.6650    7.8118    2.3543 N   0  3  0  0  0  0  0  0  0  0  0  0
   -7.6542    5.1141    1.1590 N   0  3  0  0  0  0  0  0  0  0  0  0
   -2.9763    5.2325    2.3099 O   0  0  0  0  0  0  0  0  0  0  0  0
   -6.5605    7.8447    2.3784 O   0  0  0  0  0  0  0  0  0  0  0  0
   -4.1830    5.8012    0.4519 O   0  0  0  0  0  0  0  0  0  0  0  0
  1  2  1  0  0  0  0
  1 10  1  0  0  0  0
  1 21  1  1  0  0  0
  2  3  1  0  0  0  0
  2  7  1  6  0  0  0
  3  4  1  0  0  0  0
  3  8  1  1  0  0  0
  4  5  1  0  0  0  0
  4  9  1  1  0  0  0
  5  6  1  1  0  0  0
  5 10  1  0  0  0  0
  6 11  1  0  0  0  0
 12 13  1  0  0  0  0
 12 17  1  0  0  0  0
 12 18  1  6  0  0  0
 13 14  1  0  0  0  0
 14 15  1  0  0  0  0
 14 19  1  6  0  0  0
 15 16  1  0  0  0  0
 15 30  1  1  0  0  0
 16 17  1  0  0  0  0
 16 20  1  6  0  0  0
 17 21  1  1  0  0  0
 22 23  1  0  0  0  0
 22 30  1  1  0  0  0
 22 32  1  0  0  0  0
 23 24  1  0  0  0  0
 23 28  1  1  0  0  0
 24 25  1  0  0  0  0
 25 26  1  0  0  0  0
 25 31  1  1  0  0  0
 26 27  1  6  0  0  0
 26 32  1  0  0  0  0
 27 29  1  0  0  0  0
M  CHG  5   8   1  18   1  19   1  28   1  29   1
M  END
>  <CHROM.1>
-124.30969227,75.25139729,-49.99149204,63.83537865,-66.28122362,-178.58180939
14.68545340,-106.61158609,-102.55414654,-177.44322153,138.19821981,-147.89320751
-58.46015277,170.01862959,-96.01385783,157.69948053,-1.48454159,3.68627615
3.50213002,0.30759459,0.71153560,-2.80618387

>  <Name>
1tob

>  <RI>
0

>  <Rbt.Current_Directory>
/home/itssahil/PROJECTS/Mol_Feturizer/New_Systems/rnas/1tob

>  <Rbt.Executable>
rbdock ($Id: //depot/dev/client3/rdock/2013.1/src/exe/rbdock.cxx#4 $)

>  <Rbt.Library>
libRbt.so (2013.1, Build901 2013/11/27)

>  <Rbt.Parameter_File>
/export/apps/rDock/src/rDock_2013.1_src/data/scripts/dock_solv.prm

>  <Rbt.Receptor>
prm/pocket_docking_7.prm

>  <SCORE>
-34.5876

>  <SCORE.INTER>
-35.2072

>  <SCORE.INTER.CONST>
1

>  <SCORE.INTER.POLAR>
-4.96584

>  <SCORE.INTER.ROT>
6

>  <SCORE.INTER.SOLV>
30.8067

>  <SCORE.INTER.VDW>
-24.7876

>  <SCORE.INTER.norm>
-1.10023

>  <SCORE.INTRA>
0.619592

>  <SCORE.INTRA.DIHEDRAL>
12.4656

>  <SCORE.INTRA.DIHEDRAL.0>
22.9177

>  <SCORE.INTRA.POLAR>
-2.00515

>  <SCORE.INTRA.POLAR.0>
-0.311208

>  <SCORE.INTRA.REPUL>
0.0100556

>  <SCORE.INTRA.REPUL.0>
0

>  <SCORE.INTRA.SOLV>
1.93811

>  <SCORE.INTRA.SOLV.lig_0>
-132.657

>  <SCORE.INTRA.VDW>
0.184964

>  <SCORE.INTRA.VDW.0>
-4.68867

>  <SCORE.INTRA.norm>
0.0193622

>  <SCORE.RESTR>
0

>  <SCORE.RESTR.CAVITY>
0

>  <SCORE.RESTR.norm>
0

>  <SCORE.SYSTEM>
0

>  <SCORE.SYSTEM.CONST>
0

>  <SCORE.SYSTEM.DIHEDRAL>
0

>  <SCORE.SYSTEM.SOLV>
0

>  <SCORE.SYSTEM.norm>
0

>  <SCORE.heavy>
32

>  <SCORE.norm>
-1.08086

>  <RMSD>
5.375

$$$$
1tob
 OpenBabel11021811413D
libRbt.so/2013.1/901 2013/11/27
 32 34  0  0  0  0  0  0  0  0999 V2000
   -0.9832    3.1141    5.2963 C   0  0  2  0  0  0  0  0  0  0  0  0
    0.5217    3.3714    5.3087 C   0  0  1  0  0  0  0  0  0  0  0  0
    1.1097    3.0402    3.9438 C   0  0  2  0  0  0  0  0  0  0  0  0
    0.7545    1.6048    3.5748 C   0  0  1  0  0  0  0  0  0  0  0  0
   -0.7591    1.4159    3.6254 C   0  0  1  0  0  0  0  0  0  0  0  0
   -1.1719   -0.0151    3.3422 C   0  0  0  0  0  0  0  0  0  0  0  0
    0.7725    4.7344    5.6201 O   0  0  0  0  0  0  0  0  0  0  0  0
    2.5704    3.2711    3.9216 N   0  3  0  0  0  0  0  0  0  0  0  0
    1.2405    1.3089    2.2724 O   0  0  0  0  0  0  0  0  0  0  0  0
   -1.2562    1.7535    4.9384 O   0  0  0  0  0  0  0  0  0  0  0  0
   -2.5272   -0.2449    3.7005 O   0  0  0  0  0  0  0  0  0  0  0  0
   -2.2080    5.9965    5.4981 C   0  0  2  0  0  0  0  0  0  0  0  0
   -3.3898    6.7961    6.0293 C   0  0  0  0  0  0  0  0  0  0  0  0
   -4.3773    7.1025    4.9030 C   0  0  1  0  0  0  0  0  0  0  0  0
   -4.8853    5.7971    4.2949 C   0  0  2  0  0  0  0  0  0  0  0  0
   -3.7097    4.9761    3.7626 C   0  0  1  0  0  0  0  0  0  0  0  0
   -2.7115    4.6983    4.8860 C   0  0  1  0  0  0  0  0  0  0  0  0
   -1.2653    5.6687    6.5900 N   0  3  0  0  0  0  0  0  0  0  0  0
   -5.4812    7.9542    5.4166 N   0  3  0  0  0  0  0  0  0  0  0  0
   -4.1838    3.7498    3.2227 O   0  0  0  0  0  0  0  0  0  0  0  0
   -1.6002    3.9400    4.3753 O   0  0  0  0  0  0  0  0  0  0  0  0
   -5.3428    6.8851    2.2042 C   0  0  1  0  0  0  0  0  0  0  0  0
   -6.4174    7.0620    1.1300 C   0  0  1  0  0  0  0  0  0  0  0  0
   -6.7481    5.7225    0.4892 C   0  0  0  0  0  0  0  0  0  0  0  0
   -5.4717    5.0950   -0.0468 C   0  0  1  0  0  0  0  0  0  0  0  0
   -4.4446    4.9732    1.0783 C   0  0  1  0  0  0  0  0  0  0  0  0
   -3.1195    4.4064    0.6017 C   0  0  0  0  0  0  0  0  0  0  0  0
   -7.6216    7.7252    1.6837 N   0  3  0  0  0  0  0  0  0  0  0  0
   -2.9676    2.9830    0.9871 N   0  3  0  0  0  0  0  0  0  0  0  0
   -5.8149    6.0736    3.2273 O   0  0  0  0  0  0  0  0  0  0  0  0
   -5.7519    3.8123   -0.5880 O   0  0  0  0  0  0  0  0  0  0  0  0
   -4.1734    6.2726    1.6470 O   0  0  0  0  0  0  0  0  0  0  0  0
  1  2  1  0  0  0  0
  1 10  1  0  0  0  0
  1 21  1  6  0  0  0
  2  3  1  0  0  0  0
  2  7  1  6  0  0  0
  3  4  1  0  0  0  0
  3  8  1  1  0  0  0
  4  5  1  0  0  0  0
  4  9  1  6  0  0  0
  5  6  1  1  0  0  0
  5 10  1  0  0  0  0
  6 11  1  0  0  0  0
 12 13  1  0  0  0  0
 12 17  1  0  0  0  0
 12 18  1  1  0  0  0
 13 14  1  0  0  0  0
 14 15  1  0  0  0  0
 14 19  1  1  0  0  0
 15 16  1  0  0  0  0
 15 30  1  6  0  0  0
 16 17  1  0  0  0  0
 16 20  1  1  0  0  0
 17 21  1  6  0  0  0
 22 23  1  0  0  0  0
 22 30  1  1  0  0  0
 22 32  1  0  0  0  0
 23 24  1  0  0  0  0
 23 28  1  1  0  0  0
 24 25  1  0  0  0  0
 25 26  1  0  0  0  0
 25 31  1  1  0  0  0
 26 27  1  6  0  0  0
 26 32  1  0  0  0  0
 27 29  1  0  0  0  0
M  CHG  5   8   1  18   1  19   1  28   1  29   1
M  END
>  <CHROM.1>
-128.00399974,168.71454242,66.76289867,66.98756647,166.07458973,-151.41067450
82.68934128,-94.82587751,56.09612948,-50.18021233,86.74170343,178.53078639
-176.77632398,-71.70307359,-103.16666987,-160.11336225,-2.84079474,4.37807005
3.34400611,-0.15387564,-0.62576006,0.81508533

>  <Name>
1tob

>  <RI>
0

>  <Rbt.Current_Directory>
/home/itssahil/PROJECTS/Mol_Feturizer/New_Systems/rnas/1tob

>  <Rbt.Executable>
rbdock ($Id: //depot/dev/client3/rdock/2013.1/src/exe/rbdock.cxx#4 $)

>  <Rbt.Library>
libRbt.so (2013.1, Build901 2013/11/27)

>  <Rbt.Parameter_File>
/export/apps/rDock/src/rDock_2013.1_src/data/scripts/dock_solv.prm

>  <Rbt.Receptor>
prm/blind_docking_100.prm

>  <SCORE>
3.58463

>  <SCORE.INTER>
-11.4793

>  <SCORE.INTER.CONST>
1

>  <SCORE.INTER.POLAR>
-5.18364

>  <SCORE.INTER.ROT>
6

>  <SCORE.INTER.SOLV>
36.5464

>  <SCORE.INTER.VDW>
-10.1562

>  <SCORE.INTER.norm>
-0.358729

>  <SCORE.INTRA>
6.87863

>  <SCORE.INTRA.DIHEDRAL>
1.90999

>  <SCORE.INTRA.DIHEDRAL.0>
22.9177

>  <SCORE.INTRA.POLAR>
-1.16847

>  <SCORE.INTRA.POLAR.0>
-0.311208

>  <SCORE.INTRA.REPUL>
0

>  <SCORE.INTRA.REPUL.0>
0

>  <SCORE.INTRA.SOLV>
4.34706

>  <SCORE.INTRA.SOLV.lig_0>
-132.657

>  <SCORE.INTRA.VDW>
7.72291

>  <SCORE.INTRA.VDW.0>
-4.68867

>  <SCORE.INTRA.norm>
0.214957

>  <SCORE.RESTR>
8.18532

>  <SCORE.RESTR.CAVITY>
8.18532

>  <SCORE.RESTR.norm>
0.255791

>  <SCORE.SYSTEM>
0

>  <SCORE.SYSTEM.CONST>
0

>  <SCORE.SYSTEM.DIHEDRAL>
0

>  <SCORE.SYSTEM.SOLV>
0

>  <SCORE.SYSTEM.norm>
0

>  <SCORE.heavy>
32

>  <SCORE.norm>
0.11202

>  <RMSD>
5.444

$$$$
1tob
 OpenBabel11021811413D
libRbt.so/2013.1/901 2013/11/27
 32 34  0  0  0  0  0  0  0  0999 V2000
   -1.3238    3.5907    5.9501 C   0  0  2  0  0  0  0  0  0  0  0  0
   -1.1574    3.9489    7.4250 C   0  0  1  0  0  0  0  0  0  0  0  0
    0.3235    4.0470    7.7649 C   0  0  2  0  0  0  0  0  0  0  0  0
    1.0166    2.7432    7.3875 C   0  0  1  0  0  0  0  0  0  0  0  0
    0.7700    2.4328    5.9137 C   0  0  1  0  0  0  0  0  0  0  0  0
    1.3712    1.1054    5.4950 C   0  0  0  0  0  0  0  0  0  0  0  0
   -1.7930    5.1910    7.6913 O   0  0  0  0  0  0  0  0  0  0  0  0
    0.5227    4.3859    9.1906 N   0  3  0  0  0  0  0  0  0  0  0  0
    2.4116    2.8503    7.6375 O   0  0  0  0  0  0  0  0  0  0  0  0
   -0.6486    2.3618    5.6536 O   0  0  0  0  0  0  0  0  0  0  0  0
    1.3565    0.9515    4.0829 O   0  0  0  0  0  0  0  0  0  0  0  0
   -0.7369    3.4436    3.0214 C   0  0  2  0  0  0  0  0  0  0  0  0
   -1.2770    3.4863    1.5985 C   0  0  0  0  0  0  0  0  0  0  0  0
   -2.8051    3.4355    1.6052 C   0  0  1  0  0  0  0  0  0  0  0  0
   -3.3560    4.6248    2.3886 C   0  0  2  0  0  0  0  0  0  0  0  0
   -2.8171    4.6028    3.8198 C   0  0  1  0  0  0  0  0  0  0  0  0
   -1.2889    4.6237    3.8062 C   0  0  1  0  0  0  0  0  0  0  0  0
    0.7401    3.5258    3.0227 N   0  3  0  0  0  0  0  0  0  0  0  0
   -3.3153    3.3920    0.2102 N   0  3  0  0  0  0  0  0  0  0  0  0
   -3.3097    5.7263    4.5375 O   0  0  0  0  0  0  0  0  0  0  0  0
   -0.7880    4.5862    5.1547 O   0  0  0  0  0  0  0  0  0  0  0  0
   -5.4383    5.8076    2.5579 C   0  0  1  0  0  0  0  0  0  0  0  0
   -6.3726    6.0668    1.3748 C   0  0  1  0  0  0  0  0  0  0  0  0
   -5.5738    6.1656    0.0838 C   0  0  0  0  0  0  0  0  0  0  0  0
   -4.5024    7.2327    0.2382 C   0  0  1  0  0  0  0  0  0  0  0  0
   -3.6277    6.9144    1.4503 C   0  0  1  0  0  0  0  0  0  0  0  0
   -2.5687    7.9724    1.7014 C   0  0  0  0  0  0  0  0  0  0  0  0
   -7.4319    5.0335    1.2946 N   0  3  0  0  0  0  0  0  0  0  0  0
   -1.7616    7.6582    2.9045 N   0  3  0  0  0  0  0  0  0  0  0  0
   -4.7977    4.5851    2.4057 O   0  0  0  0  0  0  0  0  0  0  0  0
   -3.7031    7.2909   -0.9342 O   0  0  0  0  0  0  0  0  0  0  0  0
   -4.4397    6.8318    2.6416 O   0  0  0  0  0  0  0  0  0  0  0  0
  1  2  1  0  0  0  0
  1 10  1  0  0  0  0
  1 21  1  6  0  0  0
  2  3  1  0  0  0  0
  2  7  1  6  0  0  0
  3  4  1  0  0  0  0
  3  8  1  1  0  0  0
  4  5  1  0  0  0  0
  4  9  1  6  0  0  0
  5  6  1  1  0  0  0
  5 10  1  0  0  0  0
  6 11  1  0  0  0  0
 12 13  1  0  0  0  0
 12 17  1  0  0  0  0
 12 18  1  6  0  0  0
 13 14  1  0  0  0  0
 14 15  1  0  0  0  0
 14 19  1  6  0  0  0
 15 16  1  0  0  0  0
 15 30  1  1  0  0  0
 16 17  1  0  0  0  0
 16 20  1  1  0  0  0
 17 21  1  1  0  0  0
 22 23  1  0  0  0  0
 22 30  1  6  0  0  0
 22 32  1  0  0  0  0
 23 24  1  0  0  0  0
 23 28  1  6  0  0  0
 24 25  1  0  0  0  0
 25 26  1  0  0  0  0
 25 31  1  6  0  0  0
 26 27  1  1  0  0  0
 26 32  1  0  0  0  0
 27 29  1  0  0  0  0
M  CHG  5   8   1  18   1  19   1  28   1  29   1
M  END
>  <CHROM.1>
-158.46492485,-72.99207998,-57.06299262,70.12367102,-168.86320912,-71.28406466
33.04373553,71.11473066,-153.82701987,179.40067534,-71.99320082,121.84575281
79.50487485,-52.58757001,178.34811395,-42.44781030,-2.04718650,4.58236519
3.73888985,0.52898716,-0.73662844,1.20431227

>  <Name>
1tob

>  <RI>
0

>  <Rbt.Current_Directory>
/home/itssahil/PROJECTS/Mol_Feturizer/New_Systems/rnas/1tob

>  <Rbt.Executable>
rbdock ($Id: //depot/dev/client3/rdock/2013.1/src/exe/rbdock.cxx#4 $)

>  <Rbt.Library>
libRbt.so (2013.1, Build901 2013/11/27)

>  <Rbt.Parameter_File>
/export/apps/rDock/src/rDock_2013.1_src/data/scripts/dock_solv.prm

>  <Rbt.Receptor>
prm/blind_docking_40.prm

>  <SCORE>
-18.153

>  <SCORE.INTER>
-36.0511

>  <SCORE.INTER.CONST>
1

>  <SCORE.INTER.POLAR>
-5.66502

>  <SCORE.INTER.ROT>
6

>  <SCORE.INTER.SOLV>
31.0953

>  <SCORE.INTER.VDW>
-23.1158

>  <SCORE.INTER.norm>
-1.1266

>  <SCORE.INTRA>
6.48918

>  <SCORE.INTRA.DIHEDRAL>
-4.24526

>  <SCORE.INTRA.DIHEDRAL.0>
22.9177

>  <SCORE.INTRA.POLAR>
-1.42174

>  <SCORE.INTRA.POLAR.0>
-0.311208

>  <SCORE.INTRA.REPUL>
0.281488

>  <SCORE.INTRA.REPUL.0>
0

>  <SCORE.INTRA.SOLV>
6.81443

>  <SCORE.INTRA.SOLV.lig_0>
-132.657

>  <SCORE.INTRA.VDW>
8.63108

>  <SCORE.INTRA.VDW.0>
-4.68867

>  <SCORE.INTRA.norm>
0.202787

>  <SCORE.RESTR>
11.4089

>  <SCORE.RESTR.CAVITY>
11.4089

>  <SCORE.RESTR.norm>
0.356528

>  <SCORE.SYSTEM>
0

>  <SCORE.SYSTEM.CONST>
0

>  <SCORE.SYSTEM.DIHEDRAL>
0

>  <SCORE.SYSTEM.SOLV>
0

>  <SCORE.SYSTEM.norm>
0

>  <SCORE.heavy>
32

>  <SCORE.norm>
-0.567282

>  <RMSD>
5.518

$$$$
1tob
 OpenBabel11021811413D
libRbt.so/2013.1/901 2013/11/27
 32 34  0  0  0  0  0  0  0  0999 V2000
   -0.4130    2.7347    6.4670 C   0  0  2  0  0  0  0  0  0  0  0  0
   -0.3086    3.4989    7.7847 C   0  0  1  0  0  0  0  0  0  0  0  0
    1.1562    3.6698    8.1636 C   0  0  2  0  0  0  0  0  0  0  0  0
    1.8286    2.3031    8.2136 C   0  0  1  0  0  0  0  0  0  0  0  0
    1.6455    1.5861    6.8788 C   0  0  1  0  0  0  0  0  0  0  0  0
    2.2275    0.1862    6.8910 C   0  0  0  0  0  0  0  0  0  0  0  0
   -0.9200    4.7738    7.6492 O   0  0  0  0  0  0  0  0  0  0  0  0
    1.2951    4.4010    9.4417 N   0  3  0  0  0  0  0  0  0  0  0  0
    3.2122    2.4581    8.4992 O   0  0  0  0  0  0  0  0  0  0  0  0
    0.2398    1.4632    6.5719 O   0  0  0  0  0  0  0  0  0  0  0  0
    3.6445    0.2141    6.9877 O   0  0  0  0  0  0  0  0  0  0  0  0
   -0.9488    2.1056    3.7931 C   0  0  2  0  0  0  0  0  0  0  0  0
   -1.7433    2.1766    2.4962 C   0  0  0  0  0  0  0  0  0  0  0  0
   -2.9970    3.0313    2.6836 C   0  0  1  0  0  0  0  0  0  0  0  0
   -2.5986    4.4431    3.1079 C   0  0  2  0  0  0  0  0  0  0  0  0
   -1.7919    4.3907    4.4062 C   0  0  1  0  0  0  0  0  0  0  0  0
   -0.5558    3.5111    4.2216 C   0  0  1  0  0  0  0  0  0  0  0  0
    0.2827    1.3070    3.6089 N   0  3  0  0  0  0  0  0  0  0  0  0
   -3.8055    3.0226    1.4369 N   0  3  0  0  0  0  0  0  0  0  0  0
   -1.3992    5.7037    4.7828 O   0  0  0  0  0  0  0  0  0  0  0  0
    0.1899    3.4524    5.4510 O   0  0  0  0  0  0  0  0  0  0  0  0
   -3.9329    6.3084    2.3978 C   0  0  1  0  0  0  0  0  0  0  0  0
   -4.6277    7.4866    3.0826 C   0  0  1  0  0  0  0  0  0  0  0  0
   -6.0290    7.0897    3.5220 C   0  0  0  0  0  0  0  0  0  0  0  0
   -6.7996    6.5627    2.3225 C   0  0  1  0  0  0  0  0  0  0  0  0
   -6.0319    5.4061    1.6835 C   0  0  1  0  0  0  0  0  0  0  0  0
   -6.7157    4.8661    0.4405 C   0  0  0  0  0  0  0  0  0  0  0  0
   -3.8169    8.0020    4.2111 N   0  3  0  0  0  0  0  0  0  0  0  0
   -6.6190    5.8199   -0.6903 N   0  3  0  0  0  0  0  0  0  0  0  0
   -3.7742    5.2582    3.2923 O   0  0  0  0  0  0  0  0  0  0  0  0
   -8.0878    6.1237    2.7282 O   0  0  0  0  0  0  0  0  0  0  0  0
   -4.7127    5.8421    1.2898 O   0  0  0  0  0  0  0  0  0  0  0  0
  1  2  1  0  0  0  0
  1 10  1  0  0  0  0
  1 21  1  6  0  0  0
  2  3  1  0  0  0  0
  2  7  1  6  0  0  0
  3  4  1  0  0  0  0
  3  8  1  1  0  0  0
  4  5  1  0  0  0  0
  4  9  1  6  0  0  0
  5  6  1  1  0  0  0
  5 10  1  0  0  0  0
  6 11  1  0  0  0  0
 12 13  1  0  0  0  0
 12 17  1  0  0  0  0
 12 18  1  6  0  0  0
 13 14  1  0  0  0  0
 14 15  1  0  0  0  0
 14 19  1  6  0  0  0
 15 16  1  0  0  0  0
 15 30  1  1  0  0  0
 16 17  1  0  0  0  0
 16 20  1  6  0  0  0
 17 21  1  1  0  0  0
 22 23  1  0  0  0  0
 22 30  1  1  0  0  0
 22 32  1  0  0  0  0
 23 24  1  0  0  0  0
 23 28  1  1  0  0  0
 24 25  1  0  0  0  0
 25 26  1  0  0  0  0
 25 31  1  1  0  0  0
 26 27  1  6  0  0  0
 26 32  1  0  0  0  0
 27 29  1  0  0  0  0
M  CHG  5   8   1  18   1  19   1  28   1  29   1
M  END
>  <CHROM.1>
-135.48608268,105.08668268,59.51853743,-53.01973294,-67.64145736,57.72130049
-47.58900886,123.65462180,-113.70416464,173.84478821,-51.76758918,-147.47072303
161.31404873,41.58118036,71.22406891,73.06253964,-1.94564300,4.05122958,4.51202050
0.15811834,-0.71827486,0.83146151

>  <Name>
1tob

>  <RI>
0

>  <Rbt.Current_Directory>
/home/itssahil/PROJECTS/Mol_Feturizer/New_Systems/rnas/1tob

>  <Rbt.Executable>
rbdock ($Id: //depot/dev/client3/rdock/2013.1/src/exe/rbdock.cxx#4 $)

>  <Rbt.Library>
libRbt.so (2013.1, Build901 2013/11/27)

>  <Rbt.Parameter_File>
/export/apps/rDock/src/rDock_2013.1_src/data/scripts/dock_solv.prm

>  <Rbt.Receptor>
prm/pocket_docking_6.prm

>  <SCORE>
-46.2651

>  <SCORE.INTER>
-45.3112

>  <SCORE.INTER.CONST>
1

>  <SCORE.INTER.POLAR>
-6.18187

>  <SCORE.INTER.ROT>
6

>  <SCORE.INTER.SOLV>
23.3411

>  <SCORE.INTER.VDW>
-24.9816

>  <SCORE.INTER.norm>
-1.41597

>  <SCORE.INTRA>
-0.953944

>  <SCORE.INTRA.DIHEDRAL>
8.70315

>  <SCORE.INTRA.DIHEDRAL.0>
22.9177

>  <SCORE.INTRA.POLAR>
-2.09376

>  <SCORE.INTRA.POLAR.0>
-0.311208

>  <SCORE.INTRA.REPUL>
0

>  <SCORE.INTRA.REPUL.0>
0

>  <SCORE.INTRA.SOLV>
1.40984

>  <SCORE.INTRA.SOLV.lig_0>
-132.657

>  <SCORE.INTRA.VDW>
1.10834

>  <SCORE.INTRA.VDW.0>
-4.68867

>  <SCORE.INTRA.norm>
-0.0298107

>  <SCORE.RESTR>
0

>  <SCORE.RESTR.CAVITY>
0

>  <SCORE.RESTR.norm>
0

>  <SCORE.SYSTEM>
0

>  <SCORE.SYSTEM.CONST>
0

>  <SCORE.SYSTEM.DIHEDRAL>
0

>  <SCORE.SYSTEM.SOLV>
0

>  <SCORE.SYSTEM.norm>
0

>  <SCORE.heavy>
32

>  <SCORE.norm>
-1.44579

>  <RMSD>
5.520

$$$$
1tob
 OpenBabel11021811413D
libRbt.so/2013.1/901 2013/11/27
 32 34  0  0  0  0  0  0  0  0999 V2000
   -1.2871    2.5020    3.6880 C   0  0  2  0  0  0  0  0  0  0  0  0
   -0.3581    1.3070    3.4881 C   0  0  1  0  0  0  0  0  0  0  0  0
    1.0867    1.7843    3.4330 C   0  0  2  0  0  0  0  0  0  0  0  0
    1.2300    2.8383    2.3415 C   0  0  1  0  0  0  0  0  0  0  0  0
    0.2429    3.9762    2.5869 C   0  0  1  0  0  0  0  0  0  0  0  0
    0.2832    5.0218    1.4899 C   0  0  0  0  0  0  0  0  0  0  0  0
   -0.5188    0.3901    4.5610 O   0  0  0  0  0  0  0  0  0  0  0  0
    2.0159    0.6513    3.2323 N   0  3  0  0  0  0  0  0  0  0  0  0
    2.5599    3.3394    2.3287 O   0  0  0  0  0  0  0  0  0  0  0  0
   -1.1047    3.4599    2.6376 O   0  0  0  0  0  0  0  0  0  0  0  0
   -0.9977    5.5968    1.2737 O   0  0  0  0  0  0  0  0  0  0  0  0
   -1.3328    5.2902    5.9183 C   0  0  2  0  0  0  0  0  0  0  0  0
   -2.3927    6.2835    6.3745 C   0  0  0  0  0  0  0  0  0  0  0  0
   -3.2833    6.6915    5.2006 C   0  0  1  0  0  0  0  0  0  0  0  0
   -3.9678    5.4559    4.6204 C   0  0  2  0  0  0  0  0  0  0  0  0
   -2.9173    4.4424    4.1637 C   0  0  1  0  0  0  0  0  0  0  0  0
   -2.0116    4.0609    5.3341 C   0  0  1  0  0  0  0  0  0  0  0  0
   -0.4887    4.8666    7.0569 N   0  3  0  0  0  0  0  0  0  0  0  0
   -4.2577    7.7236    5.6404 N   0  3  0  0  0  0  0  0  0  0  0  0
   -3.5583    3.2824    3.6502 O   0  0  0  0  0  0  0  0  0  0  0  0
   -1.0156    3.1200    4.8943 O   0  0  0  0  0  0  0  0  0  0  0  0
   -4.1518    6.3211    2.3885 C   0  0  1  0  0  0  0  0  0  0  0  0
   -5.0940    7.2049    1.5693 C   0  0  1  0  0  0  0  0  0  0  0  0
   -6.2647    6.3856    1.0472 C   0  0  0  0  0  0  0  0  0  0  0  0
   -5.7338    5.1974    0.2619 C   0  0  1  0  0  0  0  0  0  0  0  0
   -4.7867    4.3801    1.1398 C   0  0  1  0  0  0  0  0  0  0  0  0
   -4.1706    3.2062    0.4006 C   0  0  0  0  0  0  0  0  0  0  0  0
   -5.5438    8.3780    2.3553 N   0  3  0  0  0  0  0  0  0  0  0  0
   -3.3033    2.3984    1.2910 N   0  3  0  0  0  0  0  0  0  0  0  0
   -4.8079    5.8279    3.5085 O   0  0  0  0  0  0  0  0  0  0  0  0
   -6.8126    4.3837   -0.1753 O   0  0  0  0  0  0  0  0  0  0  0  0
   -3.7001    5.2094    1.6054 O   0  0  0  0  0  0  0  0  0  0  0  0
  1  2  1  0  0  0  0
  1 10  1  0  0  0  0
  1 21  1  1  0  0  0
  2  3  1  0  0  0  0
  2  7  1  1  0  0  0
  3  4  1  0  0  0  0
  3  8  1  6  0  0  0
  4  5  1  0  0  0  0
  4  9  1  1  0  0  0
  5  6  1  6  0  0  0
  5 10  1  0  0  0  0
  6 11  1  0  0  0  0
 12 13  1  0  0  0  0
 12 17  1  0  0  0  0
 12 18  1  1  0  0  0
 13 14  1  0  0  0  0
 14 15  1  0  0  0  0
 14 19  1  1  0  0  0
 15 16  1  0  0  0  0
 15 30  1  6  0  0  0
 16 17  1  0  0  0  0
 16 20  1  1  0  0  0
 17 21  1  6  0  0  0
 22 23  1  0  0  0  0
 22 30  1  1  0  0  0
 22 32  1  0  0  0  0
 23 24  1  0  0  0  0
 23 28  1  1  0  0  0
 24 25  1  0  0  0  0
 25 26  1  0  0  0  0
 25 31  1  1  0  0  0
 26 27  1  6  0  0  0
 26 32  1  0  0  0  0
 27 29  1  0  0  0  0
M  CHG  5   8   1  18   1  19   1  28   1  29   1
M  END
>  <CHROM.1>
-166.51115773,-58.59596736,-131.75316966,-179.42403398,146.93429146,55.23496081
-42.95926838,-42.55434996,65.93015399,10.79072543,-138.77402862,-155.75440654
176.28771563,176.72984001,-177.54817181,173.19641286,-2.37626826,4.38878579
3.10520787,0.09184033,0.60676536,-2.12676965

>  <Name>
1tob

>  <RI>
0

>  <Rbt.Current_Directory>
/home/itssahil/PROJECTS/Mol_Feturizer/New_Systems/rnas/1tob

>  <Rbt.Executable>
rbdock ($Id: //depot/dev/client3/rdock/2013.1/src/exe/rbdock.cxx#4 $)

>  <Rbt.Library>
libRbt.so (2013.1, Build901 2013/11/27)

>  <Rbt.Parameter_File>
/export/apps/rDock/src/rDock_2013.1_src/data/scripts/dock_solv.prm

>  <Rbt.Receptor>
prm/blind_docking_100.prm

>  <SCORE>
-9.32184

>  <SCORE.INTER>
-25.7698

>  <SCORE.INTER.CONST>
1

>  <SCORE.INTER.POLAR>
-5.70749

>  <SCORE.INTER.ROT>
6

>  <SCORE.INTER.SOLV>
34.389

>  <SCORE.INTER.VDW>
-17.2179

>  <SCORE.INTER.norm>
-0.805306

>  <SCORE.INTRA>
12.0543

>  <SCORE.INTRA.DIHEDRAL>
1.0529

>  <SCORE.INTRA.DIHEDRAL.0>
22.9177

>  <SCORE.INTRA.POLAR>
-1.20748

>  <SCORE.INTRA.POLAR.0>
-0.311208

>  <SCORE.INTRA.REPUL>
0.741519

>  <SCORE.INTRA.REPUL.0>
0

>  <SCORE.INTRA.SOLV>
4.58776

>  <SCORE.INTRA.SOLV.lig_0>
-132.657

>  <SCORE.INTRA.VDW>
9.63183

>  <SCORE.INTRA.VDW.0>
-4.68867

>  <SCORE.INTRA.norm>
0.376697

>  <SCORE.RESTR>
4.39365

>  <SCORE.RESTR.CAVITY>
4.39365

>  <SCORE.RESTR.norm>
0.137302

>  <SCORE.SYSTEM>
0

>  <SCORE.SYSTEM.CONST>
0

>  <SCORE.SYSTEM.DIHEDRAL>
0

>  <SCORE.SYSTEM.SOLV>
0

>  <SCORE.SYSTEM.norm>
0

>  <SCORE.heavy>
32

>  <SCORE.norm>
-0.291307

>  <RMSD>
5.635

$$$$
1tob
 OpenBabel11021811413D
libRbt.so/2013.1/901 2013/11/27
 32 34  0  0  0  0  0  0  0  0999 V2000
   -1.2673    2.4248    3.6935 C   0  0  2  0  0  0  0  0  0  0  0  0
   -0.3331    1.2349    3.4866 C   0  0  1  0  0  0  0  0  0  0  0  0
    1.1101    1.7179    3.4418 C   0  0  2  0  0  0  0  0  0  0  0  0
    1.2540    2.7824    2.3606 C   0  0  1  0  0  0  0  0  0  0  0  0
    0.2619    3.9144    2.6123 C   0  0  1  0  0  0  0  0  0  0  0  0
    0.3029    4.9702    1.5251 C   0  0  0  0  0  0  0  0  0  0  0  0
   -0.4950    0.3077    4.5503 O   0  0  0  0  0  0  0  0  0  0  0  0
    2.0442    0.5901    3.2346 N   0  3  0  0  0  0  0  0  0  0  0  0
    2.5822    3.2884    2.3579 O   0  0  0  0  0  0  0  0  0  0  0  0
   -1.0840    3.3928    2.6527 O   0  0  0  0  0  0  0  0  0  0  0  0
   -1.0040    5.3928    1.1626 O   0  0  0  0  0  0  0  0  0  0  0  0
   -1.2904    5.2510    5.8314 C   0  0  2  0  0  0  0  0  0  0  0  0
   -2.3365    6.2650    6.2737 C   0  0  0  0  0  0  0  0  0  0  0  0
   -3.2680    6.6131    5.1123 C   0  0  1  0  0  0  0  0  0  0  0  0
   -3.9689    5.3495    4.6184 C   0  0  2  0  0  0  0  0  0  0  0  0
   -2.9321    4.3153    4.1769 C   0  0  1  0  0  0  0  0  0  0  0  0
   -1.9857    3.9934    5.3330 C   0  0  1  0  0  0  0  0  0  0  0  0
   -0.4065    4.8855    6.9599 N   0  3  0  0  0  0  0  0  0  0  0  0
   -4.2293    7.6650    5.5334 N   0  3  0  0  0  0  0  0  0  0  0  0
   -3.5874    3.1306    3.7443 O   0  0  0  0  0  0  0  0  0  0  0  0
   -1.0030    3.0326    4.9066 O   0  0  0  0  0  0  0  0  0  0  0  0
   -4.2555    6.2795    2.4237 C   0  0  1  0  0  0  0  0  0  0  0  0
   -5.2829    7.1293    1.6739 C   0  0  1  0  0  0  0  0  0  0  0  0
   -6.3905    6.2478    1.1167 C   0  0  0  0  0  0  0  0  0  0  0  0
   -5.7768    5.1592    0.2515 C   0  0  1  0  0  0  0  0  0  0  0  0
   -4.7490    4.3723    1.0640 C   0  0  1  0  0  0  0  0  0  0  0  0
   -4.0507    3.3022    0.2445 C   0  0  0  0  0  0  0  0  0  0  0  0
   -5.8146    8.2097    2.5379 N   0  3  0  0  0  0  0  0  0  0  0  0
   -2.8368    2.7988    0.9304 N   0  3  0  0  0  0  0  0  0  0  0  0
   -4.8476    5.6648    3.5190 O   0  0  0  0  0  0  0  0  0  0  0  0
   -6.7917    4.2858   -0.2218 O   0  0  0  0  0  0  0  0  0  0  0  0
   -3.7270    5.2601    1.5665 O   0  0  0  0  0  0  0  0  0  0  0  0
  1  2  1  0  0  0  0
  1 10  1  0  0  0  0
  1 21  1  1  0  0  0
  2  3  1  0  0  0  0
  2  7  1  1  0  0  0
  3  4  1  0  0  0  0
  3  8  1  6  0  0  0
  4  5  1  0  0  0  0
  4  9  1  1  0  0  0
  5  6  1  6  0  0  0
  5 10  1  0  0  0  0
  6 11  1  0  0  0  0
 12 13  1  0  0  0  0
 12 17  1  0  0  0  0
 12 18  1  1  0  0  0
 13 14  1  0  0  0  0
 14 15  1  0  0  0  0
 14 19  1  1  0  0  0
 15 16  1  0  0  0  0
 15 30  1  6  0  0  0
 16 17  1  0  0  0  0
 16 20  1  1  0  0  0
 17 21  1  6  0  0  0
 22 23  1  0  0  0  0
 22 30  1  1  0  0  0
 22 32  1  0  0  0  0
 23 24  1  0  0  0  0
 23 28  1  1  0  0  0
 24 25  1  0  0  0  0
 25 26  1  0  0  0  0
 25 31  1  1  0  0  0
 26 27  1  6  0  0  0
 26 32  1  0  0  0  0
 27 29  1  0  0  0  0
M  CHG  5   8   1  18   1  19   1  28   1  29   1
M  END
>  <CHROM.1>
-168.16865175,-53.11181112,-11.57986256,-176.92847083,137.78996838,68.99986080
-155.58498627,-44.94736820,57.09618594,14.78639185,-134.31668430,-153.18009193
56.79596066,-179.99001294,165.26347143,53.06383657,-2.36528376,4.33564172
3.08329373,0.07344344,0.59775265,-2.09394666

>  <Name>
1tob

>  <RI>
0

>  <Rbt.Current_Directory>
/home/itssahil/PROJECTS/Mol_Feturizer/New_Systems/rnas/1tob

>  <Rbt.Executable>
rbdock ($Id: //depot/dev/client3/rdock/2013.1/src/exe/rbdock.cxx#4 $)

>  <Rbt.Library>
libRbt.so (2013.1, Build901 2013/11/27)

>  <Rbt.Parameter_File>
/export/apps/rDock/src/rDock_2013.1_src/data/scripts/dock_solv.prm

>  <Rbt.Receptor>
prm/blind_docking_100.prm

>  <SCORE>
-6.37332

>  <SCORE.INTER>
-20.7442

>  <SCORE.INTER.CONST>
1

>  <SCORE.INTER.POLAR>
-4.3776

>  <SCORE.INTER.ROT>
6

>  <SCORE.INTER.SOLV>
33.5535

>  <SCORE.INTER.VDW>
-18.022

>  <SCORE.INTER.norm>
-0.648256

>  <SCORE.INTRA>
10.2244

>  <SCORE.INTRA.DIHEDRAL>
4.20891

>  <SCORE.INTRA.DIHEDRAL.0>
22.9177

>  <SCORE.INTRA.POLAR>
-2.03798

>  <SCORE.INTRA.POLAR.0>
-0.311208

>  <SCORE.INTRA.REPUL>
0.55333

>  <SCORE.INTRA.REPUL.0>
0

>  <SCORE.INTRA.SOLV>
6.60186

>  <SCORE.INTRA.SOLV.lig_0>
-132.657

>  <SCORE.INTRA.VDW>
8.98145

>  <SCORE.INTRA.VDW.0>
-4.68867

>  <SCORE.INTRA.norm>
0.319511

>  <SCORE.RESTR>
4.14651

>  <SCORE.RESTR.CAVITY>
4.14651

>  <SCORE.RESTR.norm>
0.129578

>  <SCORE.SYSTEM>
0

>  <SCORE.SYSTEM.CONST>
0

>  <SCORE.SYSTEM.DIHEDRAL>
0

>  <SCORE.SYSTEM.SOLV>
0

>  <SCORE.SYSTEM.norm>
0

>  <SCORE.heavy>
32

>  <SCORE.norm>
-0.199166

>  <RMSD>
5.637

$$$$
1tob
 OpenBabel11021811413D
libRbt.so/2013.1/901 2013/11/27
 32 34  0  0  0  0  0  0  0  0999 V2000
    1.7115    3.9026    5.6708 C   0  0  2  0  0  0  0  0  0  0  0  0
    3.0264    3.3024    6.1627 C   0  0  1  0  0  0  0  0  0  0  0  0
    2.7716    2.4558    7.4023 C   0  0  2  0  0  0  0  0  0  0  0  0
    2.0724    3.3031    8.4586 C   0  0  1  0  0  0  0  0  0  0  0  0
    0.7925    3.9003    7.8803 C   0  0  1  0  0  0  0  0  0  0  0  0
    0.0895    4.8181    8.8610 C   0  0  0  0  0  0  0  0  0  0  0  0
    3.5972    2.4968    5.1416 O   0  0  0  0  0  0  0  0  0  0  0  0
    4.0275    1.8635    7.9115 N   0  3  0  0  0  0  0  0  0  0  0  0
    1.7688    2.5028    9.5932 O   0  0  0  0  0  0  0  0  0  0  0  0
    1.0983    4.6822    6.7054 O   0  0  0  0  0  0  0  0  0  0  0  0
    0.9418    5.8709    9.2891 O   0  0  0  0  0  0  0  0  0  0  0  0
   -0.1397    1.7820    3.3910 C   0  0  2  0  0  0  0  0  0  0  0  0
   -0.8814    2.0221    2.0832 C   0  0  0  0  0  0  0  0  0  0  0  0
   -2.1956    2.7593    2.3417 C   0  0  1  0  0  0  0  0  0  0  0  0
   -1.9096    4.1012    3.0120 C   0  0  2  0  0  0  0  0  0  0  0  0
   -1.1570    3.8799    4.3249 C   0  0  1  0  0  0  0  0  0  0  0  0
    0.1412    3.1166    4.0642 C   0  0  1  0  0  0  0  0  0  0  0  0
    1.1485    1.0981    3.1437 N   0  3  0  0  0  0  0  0  0  0  0  0
   -2.9482    2.9118    1.0695 N   0  3  0  0  0  0  0  0  0  0  0  0
   -0.8681    5.1322    4.9318 O   0  0  0  0  0  0  0  0  0  0  0  0
    0.8362    2.8971    5.3050 O   0  0  0  0  0  0  0  0  0  0  0  0
   -3.1116    6.1787    3.0685 C   0  0  1  0  0  0  0  0  0  0  0  0
   -3.9091    6.8887    4.1639 C   0  0  1  0  0  0  0  0  0  0  0  0
   -5.3743    6.4851    4.0953 C   0  0  0  0  0  0  0  0  0  0  0  0
   -5.9060    6.7646    2.6991 C   0  0  1  0  0  0  0  0  0  0  0  0
   -5.0455    6.0401    1.6646 C   0  0  1  0  0  0  0  0  0  0  0  0
   -5.4838    6.3215    0.2388 C   0  0  0  0  0  0  0  0  0  0  0  0
   -3.3244    6.6323    5.5013 N   0  3  0  0  0  0  0  0  0  0  0  0
   -5.2523    7.7384   -0.1309 N   0  3  0  0  0  0  0  0  0  0  0  0
   -3.1432    4.8045    3.2651 O   0  0  0  0  0  0  0  0  0  0  0  0
   -7.2543    6.3302    2.5975 O   0  0  0  0  0  0  0  0  0  0  0  0
   -3.6691    6.4619    1.7793 O   0  0  0  0  0  0  0  0  0  0  0  0
  1  2  1  0  0  0  0
  1 10  1  0  0  0  0
  1 21  1  1  0  0  0
  2  3  1  0  0  0  0
  2  7  1  6  0  0  0
  3  4  1  0  0  0  0
  3  8  1  1  0  0  0
  4  5  1  0  0  0  0
  4  9  1  1  0  0  0
  5  6  1  1  0  0  0
  5 10  1  0  0  0  0
  6 11  1  0  0  0  0
 12 13  1  0  0  0  0
 12 17  1  0  0  0  0
 12 18  1  6  0  0  0
 13 14  1  0  0  0  0
 14 15  1  0  0  0  0
 14 19  1  6  0  0  0
 15 16  1  0  0  0  0
 15 30  1  1  0  0  0
 16 17  1  0  0  0  0
 16 20  1  6  0  0  0
 17 21  1  1  0  0  0
 22 23  1  0  0  0  0
 22 30  1  1  0  0  0
 22 32  1  0  0  0  0
 23 24  1  0  0  0  0
 23 28  1  1  0  0  0
 24 25  1  0  0  0  0
 25 26  1  0  0  0  0
 25 31  1  1  0  0  0
 26 27  1  6  0  0  0
 26 32  1  0  0  0  0
 27 29  1  0  0  0  0
M  CHG  5   8   1  18   1  19   1  28   1  29   1
M  END
>  <CHROM.1>
-135.61792340,62.06705869,-176.88414002,-167.21871969,57.19461977,141.97797957
42.87790396,177.20738951,-141.53185600,-179.80863576,148.80719854,-140.01792965
113.88717011,49.28674372,66.85709962,-176.65361249,-1.15770033,4.36764305
4.57204654,-0.35763501,0.63469652,-2.05216433

>  <Name>
1tob

>  <RI>
0

>  <Rbt.Current_Directory>
/home/itssahil/PROJECTS/Mol_Feturizer/New_Systems/rnas/1tob

>  <Rbt.Executable>
rbdock ($Id: //depot/dev/client3/rdock/2013.1/src/exe/rbdock.cxx#4 $)

>  <Rbt.Library>
libRbt.so (2013.1, Build901 2013/11/27)

>  <Rbt.Parameter_File>
/export/apps/rDock/src/rDock_2013.1_src/data/scripts/dock_solv.prm

>  <Rbt.Receptor>
prm/pocket_docking_8.prm

>  <SCORE>
-41.3471

>  <SCORE.INTER>
-40.7391

>  <SCORE.INTER.CONST>
1

>  <SCORE.INTER.POLAR>
-4.88622

>  <SCORE.INTER.ROT>
6

>  <SCORE.INTER.SOLV>
25.9574

>  <SCORE.INTER.VDW>
-27.1245

>  <SCORE.INTER.norm>
-1.2731

>  <SCORE.INTRA>
-0.607912

>  <SCORE.INTRA.DIHEDRAL>
8.25366

>  <SCORE.INTRA.DIHEDRAL.0>
22.9177

>  <SCORE.INTRA.POLAR>
-1.66494

>  <SCORE.INTRA.POLAR.0>
-0.311208

>  <SCORE.INTRA.REPUL>
0

>  <SCORE.INTRA.REPUL.0>
0

>  <SCORE.INTRA.SOLV>
-1.40639

>  <SCORE.INTRA.SOLV.lig_0>
-132.657

>  <SCORE.INTRA.VDW>
1.62924

>  <SCORE.INTRA.VDW.0>
-4.68867

>  <SCORE.INTRA.norm>
-0.0189973

>  <SCORE.RESTR>
0

>  <SCORE.RESTR.CAVITY>
0

>  <SCORE.RESTR.norm>
0

>  <SCORE.SYSTEM>
0

>  <SCORE.SYSTEM.CONST>
0

>  <SCORE.SYSTEM.DIHEDRAL>
0

>  <SCORE.SYSTEM.SOLV>
0

>  <SCORE.SYSTEM.norm>
0

>  <SCORE.heavy>
32

>  <SCORE.norm>
-1.2921

>  <RMSD>
5.647

$$$$
1tob
 OpenBabel11021811413D
libRbt.so/2013.1/901 2013/11/27
 32 34  0  0  0  0  0  0  0  0999 V2000
    1.4220    4.1354    3.3675 C   0  0  2  0  0  0  0  0  0  0  0  0
    2.5116    4.0124    2.3051 C   0  0  1  0  0  0  0  0  0  0  0  0
    3.4184    2.8345    2.6346 C   0  0  2  0  0  0  0  0  0  0  0  0
    3.9768    3.0042    4.0424 C   0  0  1  0  0  0  0  0  0  0  0  0
    2.8315    3.1623    5.0387 C   0  0  1  0  0  0  0  0  0  0  0  0
    3.3248    3.4125    6.4503 C   0  0  0  0  0  0  0  0  0  0  0  0
    1.9177    3.8173    1.0296 O   0  0  0  0  0  0  0  0  0  0  0  0
    4.4924    2.6898    1.6280 N   0  3  0  0  0  0  0  0  0  0  0  0
    4.7696    1.8754    4.3846 O   0  0  0  0  0  0  0  0  0  0  0  0
    2.0049    4.2868    4.6680 O   0  0  0  0  0  0  0  0  0  0  0  0
    4.0622    4.6238    6.5353 O   0  0  0  0  0  0  0  0  0  0  0  0
   -1.4367    1.9419    2.6955 C   0  0  2  0  0  0  0  0  0  0  0  0
   -2.4749    1.8867    1.5831 C   0  0  0  0  0  0  0  0  0  0  0  0
   -3.0923    3.2674    1.3594 C   0  0  1  0  0  0  0  0  0  0  0  0
   -1.9997    4.2642    0.9792 C   0  0  2  0  0  0  0  0  0  0  0  0
   -0.9425    4.3270    2.0827 C   0  0  1  0  0  0  0  0  0  0  0  0
   -0.3501    2.9387    2.3225 C   0  0  1  0  0  0  0  0  0  0  0  0
   -0.8122    0.6157    2.8941 N   0  3  0  0  0  0  0  0  0  0  0  0
   -4.1622    3.1821    0.3317 N   0  3  0  0  0  0  0  0  0  0  0  0
    0.0868    5.2346    1.7128 O   0  0  0  0  0  0  0  0  0  0  0  0
    0.6316    3.0013    3.3728 O   0  0  0  0  0  0  0  0  0  0  0  0
   -3.8612    5.7566    1.2458 C   0  0  1  0  0  0  0  0  0  0  0  0
   -4.3054    7.2036    1.0253 C   0  0  1  0  0  0  0  0  0  0  0  0
   -3.4221    8.1534    1.8202 C   0  0  0  0  0  0  0  0  0  0  0  0
   -3.4378    7.7449    3.2842 C   0  0  1  0  0  0  0  0  0  0  0  0
   -3.0045    6.2855    3.4175 C   0  0  1  0  0  0  0  0  0  0  0  0
   -3.0526    5.7897    4.8513 C   0  0  0  0  0  0  0  0  0  0  0  0
   -4.3268    7.5416   -0.4176 N   0  3  0  0  0  0  0  0  0  0  0  0
   -3.0038    6.9137    5.8166 N   0  3  0  0  0  0  0  0  0  0  0  0
   -2.5699    5.5724    0.7699 O   0  0  0  0  0  0  0  0  0  0  0  0
   -2.5641    8.5798    4.0302 O   0  0  0  0  0  0  0  0  0  0  0  0
   -3.8767    5.4349    2.6420 O   0  0  0  0  0  0  0  0  0  0  0  0
  1  2  1  0  0  0  0
  1 10  1  0  0  0  0
  1 21  1  1  0  0  0
  2  3  1  0  0  0  0
  2  7  1  6  0  0  0
  3  4  1  0  0  0  0
  3  8  1  6  0  0  0
  4  5  1  0  0  0  0
  4  9  1  1  0  0  0
  5  6  1  1  0  0  0
  5 10  1  0  0  0  0
  6 11  1  0  0  0  0
 12 13  1  0  0  0  0
 12 17  1  0  0  0  0
 12 18  1  6  0  0  0
 13 14  1  0  0  0  0
 14 15  1  0  0  0  0
 14 19  1  6  0  0  0
 15 16  1  0  0  0  0
 15 30  1  1  0  0  0
 16 17  1  0  0  0  0
 16 20  1  6  0  0  0
 17 21  1  1  0  0  0
 22 23  1  0  0  0  0
 22 30  1  1  0  0  0
 22 32  1  0  0  0  0
 23 24  1  0  0  0  0
 23 28  1  6  0  0  0
 24 25  1  0  0  0  0
 25 26  1  0  0  0  0
 25 31  1  1  0  0  0
 26 27  1  1  0  0  0
 26 32  1  0  0  0  0
 27 29  1  0  0  0  0
M  CHG  5   8   1  18   1  19   1  28   1  29   1
M  END
>  <CHROM.1>
-78.45025178,158.64048492,-40.68846935,-55.49247197,62.22121861,-56.63953592
52.20930393,16.66106276,14.82433740,58.38242886,-160.56667270,176.87484151
26.76090438,74.67546147,-21.45160133,-118.59606919,-0.50653121,4.49366226
2.80972793,-0.13011739,-0.49670416,0.73039759

>  <Name>
1tob

>  <RI>
0

>  <Rbt.Current_Directory>
/home/itssahil/PROJECTS/Mol_Feturizer/New_Systems/rnas/1tob

>  <Rbt.Executable>
rbdock ($Id: //depot/dev/client3/rdock/2013.1/src/exe/rbdock.cxx#4 $)

>  <Rbt.Library>
libRbt.so (2013.1, Build901 2013/11/27)

>  <Rbt.Parameter_File>
/export/apps/rDock/src/rDock_2013.1_src/data/scripts/dock_solv.prm

>  <Rbt.Receptor>
prm/blind_docking_40.prm

>  <SCORE>
-18.9083

>  <SCORE.INTER>
-48.6261

>  <SCORE.INTER.CONST>
1

>  <SCORE.INTER.POLAR>
-6.76469

>  <SCORE.INTER.ROT>
6

>  <SCORE.INTER.SOLV>
40.2194

>  <SCORE.INTER.VDW>
-30.8749

>  <SCORE.INTER.norm>
-1.51957

>  <SCORE.INTRA>
21.0851

>  <SCORE.INTRA.DIHEDRAL>
3.23183

>  <SCORE.INTRA.DIHEDRAL.0>
22.9177

>  <SCORE.INTRA.POLAR>
-0.0482067

>  <SCORE.INTRA.POLAR.0>
-0.311208

>  <SCORE.INTRA.REPUL>
0

>  <SCORE.INTRA.REPUL.0>
0

>  <SCORE.INTRA.SOLV>
-0.878933

>  <SCORE.INTRA.SOLV.lig_0>
-132.657

>  <SCORE.INTRA.VDW>
20.0725

>  <SCORE.INTRA.VDW.0>
-4.68867

>  <SCORE.INTRA.norm>
0.658908

>  <SCORE.RESTR>
8.63272

>  <SCORE.RESTR.CAVITY>
8.63272

>  <SCORE.RESTR.norm>
0.269773

>  <SCORE.SYSTEM>
0

>  <SCORE.SYSTEM.CONST>
0

>  <SCORE.SYSTEM.DIHEDRAL>
0

>  <SCORE.SYSTEM.SOLV>
0

>  <SCORE.SYSTEM.norm>
0

>  <SCORE.heavy>
32

>  <SCORE.norm>
-0.590885

>  <RMSD>
5.664

$$$$
1tob
 OpenBabel11021811413D
libRbt.so/2013.1/901 2013/11/27
 32 34  0  0  0  0  0  0  0  0999 V2000
   -1.7819    3.6446    5.4296 C   0  0  2  0  0  0  0  0  0  0  0  0
   -0.3954    3.5877    6.0664 C   0  0  1  0  0  0  0  0  0  0  0  0
    0.6694    3.5980    4.9781 C   0  0  2  0  0  0  0  0  0  0  0  0
    0.4126    2.4508    4.0082 C   0  0  1  0  0  0  0  0  0  0  0  0
   -1.0032    2.5529    3.4476 C   0  0  1  0  0  0  0  0  0  0  0  0
   -1.3468    1.3938    2.5328 C   0  0  0  0  0  0  0  0  0  0  0  0
   -0.2151    4.7061    6.9232 O   0  0  0  0  0  0  0  0  0  0  0  0
    2.0278    3.5361    5.5598 N   0  3  0  0  0  0  0  0  0  0  0  0
    1.3611    2.4939    2.9506 O   0  0  0  0  0  0  0  0  0  0  0  0
   -1.9638    2.5473    4.5258 O   0  0  0  0  0  0  0  0  0  0  0  0
   -2.7376    1.3534    2.2463 O   0  0  0  0  0  0  0  0  0  0  0  0
   -3.2315    6.8654    4.7435 C   0  0  2  0  0  0  0  0  0  0  0  0
   -4.6521    7.4116    4.7027 C   0  0  0  0  0  0  0  0  0  0  0  0
   -5.3634    6.9561    3.4283 C   0  0  1  0  0  0  0  0  0  0  0  0
   -5.4091    5.4305    3.3818 C   0  0  2  0  0  0  0  0  0  0  0  0
   -3.9895    4.8633    3.4301 C   0  0  1  0  0  0  0  0  0  0  0  0
   -3.2734    5.3460    4.6910 C   0  0  1  0  0  0  0  0  0  0  0  0
   -2.5491    7.2757    5.9903 N   0  3  0  0  0  0  0  0  0  0  0  0
   -6.7173    7.5647    3.3603 N   0  3  0  0  0  0  0  0  0  0  0  0
   -4.0374    3.4429    3.4148 O   0  0  0  0  0  0  0  0  0  0  0  0
   -1.9333    4.8225    4.7223 O   0  0  0  0  0  0  0  0  0  0  0  0
   -5.6791    5.6086    1.0029 C   0  0  1  0  0  0  0  0  0  0  0  0
   -5.7377    4.6188   -0.1619 C   0  0  1  0  0  0  0  0  0  0  0  0
   -4.7573    3.4781    0.0653 C   0  0  0  0  0  0  0  0  0  0  0  0
   -3.3666    4.0498    0.2881 C   0  0  1  0  0  0  0  0  0  0  0  0
   -3.3967    5.0422    1.4499 C   0  0  1  0  0  0  0  0  0  0  0  0
   -2.0500    5.6991    1.6930 C   0  0  0  0  0  0  0  0  0  0  0  0
   -7.1198    4.1287   -0.3770 N   0  3  0  0  0  0  0  0  0  0  0  0
   -1.9983    7.0628    1.1138 N   0  3  0  0  0  0  0  0  0  0  0  0
   -6.0744    4.9885    2.1808 O   0  0  0  0  0  0  0  0  0  0  0  0
   -2.4506    3.0018    0.5697 O   0  0  0  0  0  0  0  0  0  0  0  0
   -4.3437    6.0979    1.1779 O   0  0  0  0  0  0  0  0  0  0  0  0
  1  2  1  0  0  0  0
  1 10  1  0  0  0  0
  1 21  1  6  0  0  0
  2  3  1  0  0  0  0
  2  7  1  1  0  0  0
  3  4  1  0  0  0  0
  3  8  1  1  0  0  0
  4  5  1  0  0  0  0
  4  9  1  6  0  0  0
  5  6  1  6  0  0  0
  5 10  1  0  0  0  0
  6 11  1  0  0  0  0
 12 13  1  0  0  0  0
 12 17  1  0  0  0  0
 12 18  1  1  0  0  0
 13 14  1  0  0  0  0
 14 15  1  0  0  0  0
 14 19  1  1  0  0  0
 15 16  1  0  0  0  0
 15 30  1  6  0  0  0
 16 17  1  0  0  0  0
 16 20  1  1  0  0  0
 17 21  1  6  0  0  0
 22 23  1  0  0  0  0
 22 30  1  1  0  0  0
 22 32  1  0  0  0  0
 23 24  1  0  0  0  0
 23 28  1  1  0  0  0
 24 25  1  0  0  0  0
 25 26  1  0  0  0  0
 25 31  1  1  0  0  0
 26 27  1  6  0  0  0
 26 32  1  0  0  0  0
 27 29  1  0  0  0  0
M  CHG  5   8   1  18   1  19   1  28   1  29   1
M  END
>  <CHROM.1>
-148.14576098,-52.98634262,-66.44288371,-60.43139128,167.79988345,-148.74257819
84.26121724,-171.04950314,46.55283038,58.47053772,143.76094334,145.90642034
61.95388913,40.81284391,100.63609221,-173.16523684,-2.89336268,4.54613807
3.10527147,0.18448748,-0.59667388,0.85652269

>  <Name>
1tob

>  <RI>
0

>  <Rbt.Current_Directory>
/home/itssahil/PROJECTS/Mol_Feturizer/New_Systems/rnas/1tob

>  <Rbt.Executable>
rbdock ($Id: //depot/dev/client3/rdock/2013.1/src/exe/rbdock.cxx#4 $)

>  <Rbt.Library>
libRbt.so (2013.1, Build901 2013/11/27)

>  <Rbt.Parameter_File>
/export/apps/rDock/src/rDock_2013.1_src/data/scripts/dock_solv.prm

>  <Rbt.Receptor>
prm/blind_docking_40.prm

>  <SCORE>
25.0895

>  <SCORE.INTER>
-7.42044

>  <SCORE.INTER.CONST>
1

>  <SCORE.INTER.POLAR>
-3.95076

>  <SCORE.INTER.ROT>
6

>  <SCORE.INTER.SOLV>
32.9662

>  <SCORE.INTER.VDW>
-10.3665

>  <SCORE.INTER.norm>
-0.231889

>  <SCORE.INTRA>
27.1917

>  <SCORE.INTRA.DIHEDRAL>
3.21074

>  <SCORE.INTRA.DIHEDRAL.0>
22.9177

>  <SCORE.INTRA.POLAR>
0.306402

>  <SCORE.INTRA.POLAR.0>
-0.311208

>  <SCORE.INTRA.REPUL>
0

>  <SCORE.INTRA.REPUL.0>
0

>  <SCORE.INTRA.SOLV>
1.19597

>  <SCORE.INTRA.SOLV.lig_0>
-132.657

>  <SCORE.INTRA.VDW>
23.9465

>  <SCORE.INTRA.VDW.0>
-4.68867

>  <SCORE.INTRA.norm>
0.849739

>  <SCORE.RESTR>
5.31828

>  <SCORE.RESTR.CAVITY>
5.31828

>  <SCORE.RESTR.norm>
0.166196

>  <SCORE.SYSTEM>
0

>  <SCORE.SYSTEM.CONST>
0

>  <SCORE.SYSTEM.DIHEDRAL>
0

>  <SCORE.SYSTEM.SOLV>
0

>  <SCORE.SYSTEM.norm>
0

>  <SCORE.heavy>
32

>  <SCORE.norm>
0.784047

>  <RMSD>
5.706

$$$$
1tob
 OpenBabel11021811413D
libRbt.so/2013.1/901 2013/11/27
 32 34  0  0  0  0  0  0  0  0999 V2000
   -0.0709    3.3036    3.8189 C   0  0  2  0  0  0  0  0  0  0  0  0
    0.3492    2.0636    3.0334 C   0  0  1  0  0  0  0  0  0  0  0  0
    1.2988    1.2213    3.8743 C   0  0  2  0  0  0  0  0  0  0  0  0
    2.4813    2.0772    4.3121 C   0  0  1  0  0  0  0  0  0  0  0  0
    1.9801    3.3147    5.0515 C   0  0  1  0  0  0  0  0  0  0  0  0
    3.1082    4.2474    5.4465 C   0  0  0  0  0  0  0  0  0  0  0  0
   -0.7988    1.2981    2.6960 O   0  0  0  0  0  0  0  0  0  0  0  0
    1.7330    0.0130    3.1402 N   0  3  0  0  0  0  0  0  0  0  0  0
    3.3383    1.3183    5.1546 O   0  0  0  0  0  0  0  0  0  0  0  0
    1.0798    4.0645    4.2075 O   0  0  0  0  0  0  0  0  0  0  0  0
    2.9056    4.7858    6.7453 O   0  0  0  0  0  0  0  0  0  0  0  0
   -1.0954    5.1500    5.8750 C   0  0  2  0  0  0  0  0  0  0  0  0
   -2.1643    6.1353    6.3277 C   0  0  0  0  0  0  0  0  0  0  0  0
   -3.1250    6.4463    5.1797 C   0  0  1  0  0  0  0  0  0  0  0  0
   -3.7954    5.1585    4.7066 C   0  0  2  0  0  0  0  0  0  0  0  0
   -2.7353    4.1527    4.2550 C   0  0  1  0  0  0  0  0  0  0  0  0
   -1.7605    3.8684    5.3973 C   0  0  1  0  0  0  0  0  0  0  0  0
   -0.1823    4.8199    6.9911 N   0  3  0  0  0  0  0  0  0  0  0  0
   -4.1107    7.4719    5.6094 N   0  3  0  0  0  0  0  0  0  0  0  0
   -3.3614    2.9455    3.8418 O   0  0  0  0  0  0  0  0  0  0  0  0
   -0.7563    2.9344    4.9612 O   0  0  0  0  0  0  0  0  0  0  0  0
   -4.2225    6.2894    2.6324 C   0  0  1  0  0  0  0  0  0  0  0  0
   -5.3820    6.8426    1.8020 C   0  0  1  0  0  0  0  0  0  0  0  0
   -6.0972    5.7127    1.0766 C   0  0  0  0  0  0  0  0  0  0  0  0
   -5.0904    4.9349    0.2449 C   0  0  1  0  0  0  0  0  0  0  0  0
   -3.9566    4.4366    1.1403 C   0  0  1  0  0  0  0  0  0  0  0  0
   -2.8803    3.6986    0.3650 C   0  0  0  0  0  0  0  0  0  0  0  0
   -6.3086    7.6377    2.6420 N   0  3  0  0  0  0  0  0  0  0  0  0
   -1.6317    3.5733    1.1543 N   0  3  0  0  0  0  0  0  0  0  0  0
   -4.7014    5.4388    3.6199 O   0  0  0  0  0  0  0  0  0  0  0  0
   -5.7292    3.8343   -0.3856 O   0  0  0  0  0  0  0  0  0  0  0  0
   -3.3186    5.5508    1.8014 O   0  0  0  0  0  0  0  0  0  0  0  0
  1  2  1  0  0  0  0
  1 10  1  0  0  0  0
  1 21  1  1  0  0  0
  2  3  1  0  0  0  0
  2  7  1  1  0  0  0
  3  4  1  0  0  0  0
  3  8  1  6  0  0  0
  4  5  1  0  0  0  0
  4  9  1  1  0  0  0
  5  6  1  6  0  0  0
  5 10  1  0  0  0  0
  6 11  1  0  0  0  0
 12 13  1  0  0  0  0
 12 17  1  0  0  0  0
 12 18  1  1  0  0  0
 13 14  1  0  0  0  0
 14 15  1  0  0  0  0
 14 19  1  1  0  0  0
 15 16  1  0  0  0  0
 15 30  1  6  0  0  0
 16 17  1  0  0  0  0
 16 20  1  1  0  0  0
 17 21  1  6  0  0  0
 22 23  1  0  0  0  0
 22 30  1  1  0  0  0
 22 32  1  0  0  0  0
 23 24  1  0  0  0  0
 23 28  1  1  0  0  0
 24 25  1  0  0  0  0
 25 26  1  0  0  0  0
 25 31  1  1  0  0  0
 26 27  1  6  0  0  0
 26 32  1  0  0  0  0
 27 29  1  0  0  0  0
M  CHG  5   8   1  18   1  19   1  28   1  29   1
M  END
>  <CHROM.1>
-149.01479822,-66.34774812,-177.09419467,66.33448986,-139.86165233,176.38375894
89.94703250,56.67169345,44.75396754,58.00046305,-67.61836940,-162.37746962
64.43168824,-70.09165230,163.48442144,-24.65876590,-1.70006351,4.18469918
3.65887302,-0.02585360,0.54828792,-2.25800698

>  <Name>
1tob

>  <RI>
0

>  <Rbt.Current_Directory>
/home/itssahil/PROJECTS/Mol_Feturizer/New_Systems/rnas/1tob

>  <Rbt.Executable>
rbdock ($Id: //depot/dev/client3/rdock/2013.1/src/exe/rbdock.cxx#4 $)

>  <Rbt.Library>
libRbt.so (2013.1, Build901 2013/11/27)

>  <Rbt.Parameter_File>
/export/apps/rDock/src/rDock_2013.1_src/data/scripts/dock_solv.prm

>  <Rbt.Receptor>
prm/blind_docking_40.prm

>  <SCORE>
-9.85031

>  <SCORE.INTER>
-15.9066

>  <SCORE.INTER.CONST>
1

>  <SCORE.INTER.POLAR>
-4.92066

>  <SCORE.INTER.ROT>
6

>  <SCORE.INTER.SOLV>
34.9067

>  <SCORE.INTER.VDW>
-13.4378

>  <SCORE.INTER.norm>
-0.497082

>  <SCORE.INTRA>
-4.18654

>  <SCORE.INTRA.DIHEDRAL>
-6.07498

>  <SCORE.INTRA.DIHEDRAL.0>
22.9177

>  <SCORE.INTRA.POLAR>
-2.29446

>  <SCORE.INTRA.POLAR.0>
-0.311208

>  <SCORE.INTRA.REPUL>
0

>  <SCORE.INTRA.REPUL.0>
0

>  <SCORE.INTRA.SOLV>
8.82527

>  <SCORE.INTRA.SOLV.lig_0>
-132.657

>  <SCORE.INTRA.VDW>
2.23948

>  <SCORE.INTRA.VDW.0>
-4.68867

>  <SCORE.INTRA.norm>
-0.130829

>  <SCORE.RESTR>
10.2428

>  <SCORE.RESTR.CAVITY>
10.2428

>  <SCORE.RESTR.norm>
0.320089

>  <SCORE.SYSTEM>
0

>  <SCORE.SYSTEM.CONST>
0

>  <SCORE.SYSTEM.DIHEDRAL>
0

>  <SCORE.SYSTEM.SOLV>
0

>  <SCORE.SYSTEM.norm>
0

>  <SCORE.heavy>
32

>  <SCORE.norm>
-0.307822

>  <RMSD>
5.730

$$$$
1tob
 OpenBabel11021811413D
libRbt.so/2013.1/901 2013/11/27
 32 34  0  0  0  0  0  0  0  0999 V2000
    0.8170    3.9038    3.7105 C   0  0  2  0  0  0  0  0  0  0  0  0
    2.3320    4.0734    3.7968 C   0  0  1  0  0  0  0  0  0  0  0  0
    2.9154    3.0102    4.7173 C   0  0  2  0  0  0  0  0  0  0  0  0
    2.2299    3.0862    6.0763 C   0  0  1  0  0  0  0  0  0  0  0  0
    0.7195    2.9509    5.9034 C   0  0  1  0  0  0  0  0  0  0  0  0
   -0.0269    3.0959    7.2151 C   0  0  0  0  0  0  0  0  0  0  0  0
    2.9026    3.9510    2.5018 O   0  0  0  0  0  0  0  0  0  0  0  0
    4.3834    3.1493    4.8305 N   0  3  0  0  0  0  0  0  0  0  0  0
    2.7195    2.0527    6.9203 O   0  0  0  0  0  0  0  0  0  0  0  0
    0.2292    3.9786    5.0154 O   0  0  0  0  0  0  0  0  0  0  0  0
   -1.4316    3.0001    7.0261 O   0  0  0  0  0  0  0  0  0  0  0  0
   -1.7435    1.9212    2.6792 C   0  0  2  0  0  0  0  0  0  0  0  0
   -2.8453    1.9552    1.6289 C   0  0  0  0  0  0  0  0  0  0  0  0
   -3.2473    3.3982    1.3227 C   0  0  1  0  0  0  0  0  0  0  0  0
   -2.0357    4.1714    0.8067 C   0  0  2  0  0  0  0  0  0  0  0  0
   -0.9146    4.1411    1.8467 C   0  0  1  0  0  0  0  0  0  0  0  0
   -0.5375    2.6959    2.1707 C   0  0  1  0  0  0  0  0  0  0  0  0
   -1.3274    0.5287    2.9555 N   0  3  0  0  0  0  0  0  0  0  0  0
   -4.3797    3.4140    0.3607 N   0  3  0  0  0  0  0  0  0  0  0  0
    0.2209    4.8378    1.3514 O   0  0  0  0  0  0  0  0  0  0  0  0
    0.5059    2.6739    3.1615 O   0  0  0  0  0  0  0  0  0  0  0  0
   -3.5179    6.0213    1.1875 C   0  0  1  0  0  0  0  0  0  0  0  0
   -3.7550    7.4889    0.8272 C   0  0  1  0  0  0  0  0  0  0  0  0
   -2.5821    8.3412    1.2880 C   0  0  0  0  0  0  0  0  0  0  0  0
   -2.3594    8.1244    2.7759 C   0  0  1  0  0  0  0  0  0  0  0  0
   -2.1530    6.6361    3.0554 C   0  0  1  0  0  0  0  0  0  0  0  0
   -1.9822    6.3368    4.5337 C   0  0  0  0  0  0  0  0  0  0  0  0
   -4.0205    7.6467   -0.6223 N   0  3  0  0  0  0  0  0  0  0  0  0
   -2.4415    4.9673    4.8671 N   0  3  0  0  0  0  0  0  0  0  0  0
   -2.4019    5.5364    0.5185 O   0  0  0  0  0  0  0  0  0  0  0  0
   -1.2249    8.8606    3.2090 O   0  0  0  0  0  0  0  0  0  0  0  0
   -3.2948    5.8807    2.5959 O   0  0  0  0  0  0  0  0  0  0  0  0
  1  2  1  0  0  0  0
  1 10  1  0  0  0  0
  1 21  1  1  0  0  0
  2  3  1  0  0  0  0
  2  7  1  6  0  0  0
  3  4  1  0  0  0  0
  3  8  1  1  0  0  0
  4  5  1  0  0  0  0
  4  9  1  1  0  0  0
  5  6  1  1  0  0  0
  5 10  1  0  0  0  0
  6 11  1  0  0  0  0
 12 13  1  0  0  0  0
 12 17  1  0  0  0  0
 12 18  1  6  0  0  0
 13 14  1  0  0  0  0
 14 15  1  0  0  0  0
 14 19  1  6  0  0  0
 15 16  1  0  0  0  0
 15 30  1  1  0  0  0
 16 17  1  0  0  0  0
 16 20  1  6  0  0  0
 17 21  1  1  0  0  0
 22 23  1  0  0  0  0
 22 30  1  6  0  0  0
 22 32  1  0  0  0  0
 23 24  1  0  0  0  0
 23 28  1  6  0  0  0
 24 25  1  0  0  0  0
 25 26  1  0  0  0  0
 25 31  1  6  0  0  0
 26 27  1  1  0  0  0
 26 32  1  0  0  0  0
 27 29  1  0  0  0  0
M  CHG  5   8   1  18   1  19   1  28   1  29   1
M  END
>  <CHROM.1>
-135.90025958,168.14144931,68.43883706,72.53301502,178.53529776,-179.65581099
-179.46559905,13.67413209,23.27444068,-75.69442071,-114.68619669,177.84353572
-97.02707483,64.45849319,151.94456059,154.19742854,-0.86020679,4.42113121
3.14495149,-0.45502969,-0.71689261,0.06170066

>  <Name>
1tob

>  <RI>
0

>  <Rbt.Current_Directory>
/home/itssahil/PROJECTS/Mol_Feturizer/New_Systems/rnas/1tob

>  <Rbt.Executable>
rbdock ($Id: //depot/dev/client3/rdock/2013.1/src/exe/rbdock.cxx#4 $)

>  <Rbt.Library>
libRbt.so (2013.1, Build901 2013/11/27)

>  <Rbt.Parameter_File>
/export/apps/rDock/src/rDock_2013.1_src/data/scripts/dock_solv.prm

>  <Rbt.Receptor>
prm/blind_docking_40.prm

>  <SCORE>
-30.8367

>  <SCORE.INTER>
-48.6179

>  <SCORE.INTER.CONST>
1

>  <SCORE.INTER.POLAR>
-6.44373

>  <SCORE.INTER.ROT>
6

>  <SCORE.INTER.SOLV>
30.1004

>  <SCORE.INTER.VDW>
-28.5663

>  <SCORE.INTER.norm>
-1.51931

>  <SCORE.INTRA>
10.5388

>  <SCORE.INTRA.DIHEDRAL>
7.32567

>  <SCORE.INTRA.DIHEDRAL.0>
22.9177

>  <SCORE.INTRA.POLAR>
-0.872837

>  <SCORE.INTRA.POLAR.0>
-0.311208

>  <SCORE.INTRA.REPUL>
0

>  <SCORE.INTRA.REPUL.0>
0

>  <SCORE.INTRA.SOLV>
3.79801

>  <SCORE.INTRA.SOLV.lig_0>
-132.657

>  <SCORE.INTRA.VDW>
7.94459

>  <SCORE.INTRA.VDW.0>
-4.68867

>  <SCORE.INTRA.norm>
0.329337

>  <SCORE.RESTR>
7.2424

>  <SCORE.RESTR.CAVITY>
7.2424

>  <SCORE.RESTR.norm>
0.226325

>  <SCORE.SYSTEM>
0

>  <SCORE.SYSTEM.CONST>
0

>  <SCORE.SYSTEM.DIHEDRAL>
0

>  <SCORE.SYSTEM.SOLV>
0

>  <SCORE.SYSTEM.norm>
0

>  <SCORE.heavy>
32

>  <SCORE.norm>
-0.963648

>  <RMSD>
5.773

$$$$
1tob
 OpenBabel11021811413D
libRbt.so/2013.1/901 2013/11/27
 32 34  0  0  0  0  0  0  0  0999 V2000
   -0.2980    2.3189    3.3390 C   0  0  2  0  0  0  0  0  0  0  0  0
    0.3252    0.9275    3.4211 C   0  0  1  0  0  0  0  0  0  0  0  0
    1.7240    1.0264    4.0143 C   0  0  2  0  0  0  0  0  0  0  0  0
    2.5550    2.0028    3.1905 C   0  0  1  0  0  0  0  0  0  0  0  0
    1.8485    3.3538    3.1201 C   0  0  1  0  0  0  0  0  0  0  0  0
    2.5897    4.3480    2.2479 C   0  0  0  0  0  0  0  0  0  0  0  0
   -0.4817    0.0881    4.2346 O   0  0  0  0  0  0  0  0  0  0  0  0
    2.3620   -0.3050    4.1019 N   0  3  0  0  0  0  0  0  0  0  0  0
    3.8407    2.1539    3.7771 O   0  0  0  0  0  0  0  0  0  0  0  0
    0.5277    3.1928    2.5589 O   0  0  0  0  0  0  0  0  0  0  0  0
    2.6788    3.8946    0.9046 O   0  0  0  0  0  0  0  0  0  0  0  0
   -1.1700    5.0386    5.3492 C   0  0  2  0  0  0  0  0  0  0  0  0
   -2.4030    5.9107    5.5427 C   0  0  0  0  0  0  0  0  0  0  0  0
   -3.1389    6.0977    4.2156 C   0  0  1  0  0  0  0  0  0  0  0  0
   -3.5651    4.7376    3.6676 C   0  0  2  0  0  0  0  0  0  0  0  0
   -2.3388    3.8443    3.4742 C   0  0  1  0  0  0  0  0  0  0  0  0
   -1.5908    3.6852    4.7974 C   0  0  1  0  0  0  0  0  0  0  0  0
   -0.4720    4.8269    6.6362 N   0  3  0  0  0  0  0  0  0  0  0  0
   -4.2903    7.0184    4.4017 N   0  3  0  0  0  0  0  0  0  0  0  0
   -2.7423    2.5702    2.9905 O   0  0  0  0  0  0  0  0  0  0  0  0
   -0.4294    2.8575    4.6053 O   0  0  0  0  0  0  0  0  0  0  0  0
   -4.9030    3.7738    1.9226 C   0  0  1  0  0  0  0  0  0  0  0  0
   -4.4244    3.4643    0.5031 C   0  0  1  0  0  0  0  0  0  0  0  0
   -4.7898    4.6033   -0.4368 C   0  0  0  0  0  0  0  0  0  0  0  0
   -6.2863    4.8574   -0.3579 C   0  0  1  0  0  0  0  0  0  0  0  0
   -6.6868    5.1361    1.0904 C   0  0  1  0  0  0  0  0  0  0  0  0
   -8.1817    5.3420    1.2546 C   0  0  0  0  0  0  0  0  0  0  0  0
   -2.9719    3.1706    0.4815 N   0  3  0  0  0  0  0  0  0  0  0  0
   -8.6713    6.4610    0.4145 N   0  3  0  0  0  0  0  0  0  0  0  0
   -4.2570    4.9011    2.4125 O   0  0  0  0  0  0  0  0  0  0  0  0
   -6.6346    5.9631   -1.1783 O   0  0  0  0  0  0  0  0  0  0  0  0
   -6.3140    4.0236    1.9324 O   0  0  0  0  0  0  0  0  0  0  0  0
  1  2  1  0  0  0  0
  1 10  1  0  0  0  0
  1 21  1  1  0  0  0
  2  3  1  0  0  0  0
  2  7  1  1  0  0  0
  3  4  1  0  0  0  0
  3  8  1  6  0  0  0
  4  5  1  0  0  0  0
  4  9  1  1  0  0  0
  5  6  1  6  0  0  0
  5 10  1  0  0  0  0
  6 11  1  0  0  0  0
 12 13  1  0  0  0  0
 12 17  1  0  0  0  0
 12 18  1  1  0  0  0
 13 14  1  0  0  0  0
 14 15  1  0  0  0  0
 14 19  1  1  0  0  0
 15 16  1  0  0  0  0
 15 30  1  6  0  0  0
 16 17  1  0  0  0  0
 16 20  1  1  0  0  0
 17 21  1  6  0  0  0
 22 23  1  0  0  0  0
 22 30  1  6  0  0  0
 22 32  1  0  0  0  0
 23 24  1  0  0  0  0
 23 28  1  1  0  0  0
 24 25  1  0  0  0  0
 25 26  1  0  0  0  0
 25 31  1  6  0  0  0
 26 27  1  6  0  0  0
 26 32  1  0  0  0  0
 27 29  1  0  0  0  0
M  CHG  5   8   1  18   1  19   1  28   1  29   1
M  END
>  <CHROM.1>
-145.45626050,70.81519231,23.25925617,-177.69833142,61.78469263,77.29398933
75.56017917,63.18274779,-169.05396117,-34.46350038,-126.73184183,-124.92260957
151.10769150,-47.66365469,-58.07900294,-68.43610572,-2.13210724,3.78530686
2.75828170,-0.12102985,0.45810987,-2.01323572

>  <Name>
1tob

>  <RI>
0

>  <Rbt.Current_Directory>
/home/itssahil/PROJECTS/Mol_Feturizer/New_Systems/rnas/1tob

>  <Rbt.Executable>
rbdock ($Id: //depot/dev/client3/rdock/2013.1/src/exe/rbdock.cxx#4 $)

>  <Rbt.Library>
libRbt.so (2013.1, Build901 2013/11/27)

>  <Rbt.Parameter_File>
/export/apps/rDock/src/rDock_2013.1_src/data/scripts/dock_solv.prm

>  <Rbt.Receptor>
prm/blind_docking_100.prm

>  <SCORE>
10.4482

>  <SCORE.INTER>
-5.05036

>  <SCORE.INTER.CONST>
1

>  <SCORE.INTER.POLAR>
-4.59414

>  <SCORE.INTER.ROT>
6

>  <SCORE.INTER.SOLV>
34.6112

>  <SCORE.INTER.VDW>
-7.19017

>  <SCORE.INTER.norm>
-0.157824

>  <SCORE.INTRA>
8.28884

>  <SCORE.INTRA.DIHEDRAL>
6.76478

>  <SCORE.INTRA.DIHEDRAL.0>
22.9177

>  <SCORE.INTRA.POLAR>
-1.37187

>  <SCORE.INTRA.POLAR.0>
-0.311208

>  <SCORE.INTRA.REPUL>
0

>  <SCORE.INTRA.REPUL.0>
0

>  <SCORE.INTRA.SOLV>
-1.23033

>  <SCORE.INTRA.SOLV.lig_0>
-132.657

>  <SCORE.INTRA.VDW>
10.186

>  <SCORE.INTRA.VDW.0>
-4.68867

>  <SCORE.INTRA.norm>
0.259026

>  <SCORE.RESTR>
7.20972

>  <SCORE.RESTR.CAVITY>
7.20972

>  <SCORE.RESTR.norm>
0.225304

>  <SCORE.SYSTEM>
0

>  <SCORE.SYSTEM.CONST>
0

>  <SCORE.SYSTEM.DIHEDRAL>
0

>  <SCORE.SYSTEM.SOLV>
0

>  <SCORE.SYSTEM.norm>
0

>  <SCORE.heavy>
32

>  <SCORE.norm>
0.326506

>  <RMSD>
5.798

$$$$
1tob
 OpenBabel11021811413D
libRbt.so/2013.1/901 2013/11/27
 32 34  0  0  0  0  0  0  0  0999 V2000
   -0.2273    1.1512    5.8125 C   0  0  2  0  0  0  0  0  0  0  0  0
    0.4153    1.6682    7.0974 C   0  0  1  0  0  0  0  0  0  0  0  0
    1.0315    3.0379    6.8473 C   0  0  2  0  0  0  0  0  0  0  0  0
    2.0140    2.9462    5.6860 C   0  0  1  0  0  0  0  0  0  0  0  0
    1.3098    2.3836    4.4543 C   0  0  1  0  0  0  0  0  0  0  0  0
    2.2554    2.1956    3.2843 C   0  0  0  0  0  0  0  0  0  0  0  0
   -0.5665    1.7643    8.1194 O   0  0  0  0  0  0  0  0  0  0  0  0
    1.6708    3.5672    8.0714 N   0  3  0  0  0  0  0  0  0  0  0  0
    2.5428    4.2342    5.4007 O   0  0  0  0  0  0  0  0  0  0  0  0
    0.7403    1.0916    4.7570 O   0  0  0  0  0  0  0  0  0  0  0  0
    1.5981    2.4186    2.0448 O   0  0  0  0  0  0  0  0  0  0  0  0
   -2.3116    1.3393    3.3443 C   0  0  2  0  0  0  0  0  0  0  0  0
   -2.3690    1.6402    1.8529 C   0  0  0  0  0  0  0  0  0  0  0  0
   -2.7718    3.0960    1.6166 C   0  0  1  0  0  0  0  0  0  0  0  0
   -1.7564    4.0247    2.2788 C   0  0  2  0  0  0  0  0  0  0  0  0
   -1.6793    3.7310    3.7778 C   0  0  1  0  0  0  0  0  0  0  0  0
   -1.3055    2.2671    4.0079 C   0  0  1  0  0  0  0  0  0  0  0  0
   -1.8903   -0.0591    3.5798 N   0  3  0  0  0  0  0  0  0  0  0  0
   -2.9065    3.3528    0.1592 N   0  3  0  0  0  0  0  0  0  0  0  0
   -0.7133    4.5781    4.3857 O   0  0  0  0  0  0  0  0  0  0  0  0
   -1.2508    1.9931    5.4195 O   0  0  0  0  0  0  0  0  0  0  0  0
   -3.4906    5.6721    2.0717 C   0  0  1  0  0  0  0  0  0  0  0  0
   -3.7725    6.9870    1.3428 C   0  0  1  0  0  0  0  0  0  0  0  0
   -3.1084    8.1463    2.0704 C   0  0  0  0  0  0  0  0  0  0  0  0
   -3.5711    8.1599    3.5182 C   0  0  1  0  0  0  0  0  0  0  0  0
   -3.2749    6.8085    4.1675 C   0  0  1  0  0  0  0  0  0  0  0  0
   -3.7645    6.7289    5.6020 C   0  0  0  0  0  0  0  0  0  0  0  0
   -3.3552    6.9104   -0.0772 N   0  3  0  0  0  0  0  0  0  0  0  0
   -5.0802    7.3924    5.7645 N   0  3  0  0  0  0  0  0  0  0  0  0
   -2.1286    5.4020    2.0663 O   0  0  0  0  0  0  0  0  0  0  0  0
   -2.9082    9.1949    4.2297 O   0  0  0  0  0  0  0  0  0  0  0  0
   -3.9286    5.7503    3.4338 O   0  0  0  0  0  0  0  0  0  0  0  0
  1  2  1  0  0  0  0
  1 10  1  0  0  0  0
  1 21  1  6  0  0  0
  2  3  1  0  0  0  0
  2  7  1  1  0  0  0
  3  4  1  0  0  0  0
  3  8  1  1  0  0  0
  4  5  1  0  0  0  0
  4  9  1  6  0  0  0
  5  6  1  6  0  0  0
  5 10  1  0  0  0  0
  6 11  1  0  0  0  0
 12 13  1  0  0  0  0
 12 17  1  0  0  0  0
 12 18  1  6  0  0  0
 13 14  1  0  0  0  0
 14 15  1  0  0  0  0
 14 19  1  6  0  0  0
 15 16  1  0  0  0  0
 15 30  1  1  0  0  0
 16 17  1  0  0  0  0
 16 20  1  6  0  0  0
 17 21  1  1  0  0  0
 22 23  1  0  0  0  0
 22 30  1  1  0  0  0
 22 32  1  0  0  0  0
 23 24  1  0  0  0  0
 23 28  1  6  0  0  0
 24 25  1  0  0  0  0
 25 26  1  0  0  0  0
 25 31  1  1  0  0  0
 26 27  1  1  0  0  0
 26 32  1  0  0  0  0
 27 29  1  0  0  0  0
M  CHG  5   8   1  18   1  19   1  28   1  29   1
M  END
>  <CHROM.1>
137.91348516,-61.99079958,-176.20557569,-8.83631502,-146.84774384,51.90866566
-29.37046816,127.53929216,35.88206247,58.17492294,96.71231155,-158.92189635
176.81397759,73.49203378,39.50685450,65.44647339,-1.38752960,4.07601248,3.95322067
-0.10625610,-0.92504506,0.90002415

>  <Name>
1tob

>  <RI>
0

>  <Rbt.Current_Directory>
/home/itssahil/PROJECTS/Mol_Feturizer/New_Systems/rnas/1tob

>  <Rbt.Executable>
rbdock ($Id: //depot/dev/client3/rdock/2013.1/src/exe/rbdock.cxx#4 $)

>  <Rbt.Library>
libRbt.so (2013.1, Build901 2013/11/27)

>  <Rbt.Parameter_File>
/export/apps/rDock/src/rDock_2013.1_src/data/scripts/dock_solv.prm

>  <Rbt.Receptor>
prm/blind_docking_40.prm

>  <SCORE>
1.56758

>  <SCORE.INTER>
-17.5367

>  <SCORE.INTER.CONST>
1

>  <SCORE.INTER.POLAR>
-4.59854

>  <SCORE.INTER.ROT>
6

>  <SCORE.INTER.SOLV>
41.5059

>  <SCORE.INTER.VDW>
-17.798

>  <SCORE.INTER.norm>
-0.548022

>  <SCORE.INTRA>
12.1074

>  <SCORE.INTRA.DIHEDRAL>
10.2676

>  <SCORE.INTRA.DIHEDRAL.0>
22.9177

>  <SCORE.INTRA.POLAR>
-0.193317

>  <SCORE.INTRA.POLAR.0>
-0.311208

>  <SCORE.INTRA.REPUL>
0

>  <SCORE.INTRA.REPUL.0>
0

>  <SCORE.INTRA.SOLV>
1.9788

>  <SCORE.INTRA.SOLV.lig_0>
-132.657

>  <SCORE.INTRA.VDW>
6.64152

>  <SCORE.INTRA.VDW.0>
-4.68867

>  <SCORE.INTRA.norm>
0.378357

>  <SCORE.RESTR>
6.99688

>  <SCORE.RESTR.CAVITY>
6.99688

>  <SCORE.RESTR.norm>
0.218653

>  <SCORE.SYSTEM>
0

>  <SCORE.SYSTEM.CONST>
0

>  <SCORE.SYSTEM.DIHEDRAL>
0

>  <SCORE.SYSTEM.SOLV>
0

>  <SCORE.SYSTEM.norm>
0

>  <SCORE.heavy>
32

>  <SCORE.norm>
0.0489869

>  <RMSD>
5.837

$$$$
1tob
 OpenBabel11021811413D
libRbt.so/2013.1/901 2013/11/27
 32 34  0  0  0  0  0  0  0  0999 V2000
    0.2385    2.8077    3.0610 C   0  0  2  0  0  0  0  0  0  0  0  0
    0.6408    1.4350    3.5949 C   0  0  1  0  0  0  0  0  0  0  0  0
    2.0485    1.5015    4.1714 C   0  0  2  0  0  0  0  0  0  0  0  0
    3.0054    2.0308    3.1100 C   0  0  1  0  0  0  0  0  0  0  0  0
    2.5148    3.3820    2.5972 C   0  0  1  0  0  0  0  0  0  0  0  0
    3.3849    3.9264    1.4814 C   0  0  0  0  0  0  0  0  0  0  0  0
   -0.2713    1.0271    4.6044 O   0  0  0  0  0  0  0  0  0  0  0  0
    2.4747    0.1845    4.6922 N   0  3  0  0  0  0  0  0  0  0  0  0
    4.3093    2.1613    3.6603 O   0  0  0  0  0  0  0  0  0  0  0  0
    1.1752    3.2554    2.0730 O   0  0  0  0  0  0  0  0  0  0  0  0
    4.2580    2.9290    0.9705 O   0  0  0  0  0  0  0  0  0  0  0  0
   -1.0481    5.1836    5.5574 C   0  0  2  0  0  0  0  0  0  0  0  0
   -2.3448    5.9725    5.6771 C   0  0  0  0  0  0  0  0  0  0  0  0
   -2.4539    6.9960    4.5466 C   0  0  1  0  0  0  0  0  0  0  0  0
   -2.4234    6.2790    3.1987 C   0  0  2  0  0  0  0  0  0  0  0  0
   -1.1300    5.4740    3.0640 C   0  0  1  0  0  0  0  0  0  0  0  0
   -1.0119    4.4732    4.2131 C   0  0  1  0  0  0  0  0  0  0  0  0
   -0.9524    4.1689    6.6297 N   0  3  0  0  0  0  0  0  0  0  0  0
   -3.6808    7.8154    4.7236 N   0  3  0  0  0  0  0  0  0  0  0  0
   -1.1180    4.7860    1.8204 O   0  0  0  0  0  0  0  0  0  0  0  0
    0.2145    3.7306    4.0898 O   0  0  0  0  0  0  0  0  0  0  0  0
   -2.6438    6.7048    0.8463 C   0  0  1  0  0  0  0  0  0  0  0  0
   -3.5673    7.5790   -0.0040 C   0  0  1  0  0  0  0  0  0  0  0  0
   -4.9699    7.5927    0.5848 C   0  0  0  0  0  0  0  0  0  0  0  0
   -5.4687    6.1636    0.7240 C   0  0  1  0  0  0  0  0  0  0  0  0
   -4.4836    5.3528    1.5653 C   0  0  1  0  0  0  0  0  0  0  0  0
   -4.8886    3.8959    1.6981 C   0  0  0  0  0  0  0  0  0  0  0  0
   -3.0161    8.9461   -0.1576 N   0  3  0  0  0  0  0  0  0  0  0  0
   -4.3039    3.0688    0.6157 N   0  3  0  0  0  0  0  0  0  0  0  0
   -2.5212    7.2355    2.1235 O   0  0  0  0  0  0  0  0  0  0  0  0
   -6.7503    6.1544    1.3357 O   0  0  0  0  0  0  0  0  0  0  0  0
   -3.1732    5.3781    0.9589 O   0  0  0  0  0  0  0  0  0  0  0  0
  1  2  1  0  0  0  0
  1 10  1  0  0  0  0
  1 21  1  1  0  0  0
  2  3  1  0  0  0  0
  2  7  1  1  0  0  0
  3  4  1  0  0  0  0
  3  8  1  6  0  0  0
  4  5  1  0  0  0  0
  4  9  1  1  0  0  0
  5  6  1  6  0  0  0
  5 10  1  0  0  0  0
  6 11  1  0  0  0  0
 12 13  1  0  0  0  0
 12 17  1  0  0  0  0
 12 18  1  1  0  0  0
 13 14  1  0  0  0  0
 14 15  1  0  0  0  0
 14 19  1  1  0  0  0
 15 16  1  0  0  0  0
 15 30  1  6  0  0  0
 16 17  1  0  0  0  0
 16 20  1  6  0  0  0
 17 21  1  6  0  0  0
 22 23  1  0  0  0  0
 22 30  1  1  0  0  0
 22 32  1  0  0  0  0
 23 24  1  0  0  0  0
 23 28  1  1  0  0  0
 24 25  1  0  0  0  0
 25 26  1  0  0  0  0
 25 31  1  1  0  0  0
 26 27  1  6  0  0  0
 26 32  1  0  0  0  0
 27 29  1  0  0  0  0
M  CHG  5   8   1  18   1  19   1  28   1  29   1
M  END
>  <CHROM.1>
-127.07384417,60.36096498,-61.31708989,-57.87202318,13.40272318,-151.79599930
-171.74290053,-126.15392961,-173.60119552,166.17175439,165.93837734,144.03173312
88.68702547,175.19456975,90.47789320,-158.73221655,-1.16685046,4.58220861
2.74325595,0.40007177,-0.50084905,1.88183629

>  <Name>
1tob

>  <RI>
0

>  <Rbt.Current_Directory>
/home/itssahil/PROJECTS/Mol_Feturizer/New_Systems/rnas/1tob

>  <Rbt.Executable>
rbdock ($Id: //depot/dev/client3/rdock/2013.1/src/exe/rbdock.cxx#4 $)

>  <Rbt.Library>
libRbt.so (2013.1, Build901 2013/11/27)

>  <Rbt.Parameter_File>
/export/apps/rDock/src/rDock_2013.1_src/data/scripts/dock_solv.prm

>  <Rbt.Receptor>
prm/blind_docking_20.prm

>  <SCORE>
-18.7118

>  <SCORE.INTER>
-35.6997

>  <SCORE.INTER.CONST>
1

>  <SCORE.INTER.POLAR>
-4.05178

>  <SCORE.INTER.ROT>
6

>  <SCORE.INTER.SOLV>
27.9497

>  <SCORE.INTER.VDW>
-27.2104

>  <SCORE.INTER.norm>
-1.11561

>  <SCORE.INTRA>
10.3983

>  <SCORE.INTRA.DIHEDRAL>
7.92301

>  <SCORE.INTRA.DIHEDRAL.0>
22.9177

>  <SCORE.INTRA.POLAR>
-0.63453

>  <SCORE.INTRA.POLAR.0>
-0.311208

>  <SCORE.INTRA.REPUL>
0.0545895

>  <SCORE.INTRA.REPUL.0>
0

>  <SCORE.INTRA.SOLV>
-4.20783

>  <SCORE.INTRA.SOLV.lig_0>
-132.657

>  <SCORE.INTRA.VDW>
10.4252

>  <SCORE.INTRA.VDW.0>
-4.68867

>  <SCORE.INTRA.norm>
0.324947

>  <SCORE.RESTR>
6.58953

>  <SCORE.RESTR.CAVITY>
6.58953

>  <SCORE.RESTR.norm>
0.205923

>  <SCORE.SYSTEM>
0

>  <SCORE.SYSTEM.CONST>
0

>  <SCORE.SYSTEM.DIHEDRAL>
0

>  <SCORE.SYSTEM.SOLV>
0

>  <SCORE.SYSTEM.norm>
0

>  <SCORE.heavy>
32

>  <SCORE.norm>
-0.584744

>  <RMSD>
5.866

$$$$
1tob
 OpenBabel11021811413D
libRbt.so/2013.1/901 2013/11/27
 32 34  0  0  0  0  0  0  0  0999 V2000
    0.8695    1.5799    3.7295 C   0  0  2  0  0  0  0  0  0  0  0  0
    1.4194    1.2887    5.1238 C   0  0  1  0  0  0  0  0  0  0  0  0
    2.0496    2.5493    5.7000 C   0  0  2  0  0  0  0  0  0  0  0  0
    3.1115    3.0691    4.7384 C   0  0  1  0  0  0  0  0  0  0  0  0
    2.4964    3.2954    3.3600 C   0  0  1  0  0  0  0  0  0  0  0  0
    3.5223    3.7406    2.3363 C   0  0  0  0  0  0  0  0  0  0  0  0
    0.3680    0.8485    5.9714 O   0  0  0  0  0  0  0  0  0  0  0  0
    2.6005    2.3015    7.0500 N   0  3  0  0  0  0  0  0  0  0  0  0
    3.6571    4.2837    5.2353 O   0  0  0  0  0  0  0  0  0  0  0  0
    1.9090    2.0695    2.8730 O   0  0  0  0  0  0  0  0  0  0  0  0
    2.8997    4.2637    1.1715 O   0  0  0  0  0  0  0  0  0  0  0  0
   -2.2946    1.8694    2.9596 C   0  0  2  0  0  0  0  0  0  0  0  0
   -3.2114    1.9439    1.7463 C   0  0  0  0  0  0  0  0  0  0  0  0
   -3.5049    3.4006    1.3868 C   0  0  1  0  0  0  0  0  0  0  0  0
   -2.1982    4.1271    1.0757 C   0  0  2  0  0  0  0  0  0  0  0  0
   -1.2604    4.0556    2.2818 C   0  0  1  0  0  0  0  0  0  0  0  0
   -0.9945    2.5976    2.6549 C   0  0  1  0  0  0  0  0  0  0  0  0
   -1.9805    0.4626    3.2921 N   0  3  0  0  0  0  0  0  0  0  0  0
   -4.4669    3.4581    0.2557 N   0  3  0  0  0  0  0  0  0  0  0  0
   -0.0349    4.7085    1.9786 O   0  0  0  0  0  0  0  0  0  0  0  0
   -0.1251    2.5374    3.8001 O   0  0  0  0  0  0  0  0  0  0  0  0
   -3.6333    6.0433    1.2550 C   0  0  1  0  0  0  0  0  0  0  0  0
   -3.7655    7.5116    0.8468 C   0  0  1  0  0  0  0  0  0  0  0  0
   -2.6272    8.3283    1.4397 C   0  0  0  0  0  0  0  0  0  0  0  0
   -2.6018    8.1319    2.9467 C   0  0  1  0  0  0  0  0  0  0  0  0
   -2.4908    6.6426    3.2713 C   0  0  1  0  0  0  0  0  0  0  0  0
   -2.5189    6.3655    4.7634 C   0  0  0  0  0  0  0  0  0  0  0  0
   -3.8405    7.6514   -0.6267 N   0  3  0  0  0  0  0  0  0  0  0  0
   -3.7981    6.8013    5.3728 N   0  3  0  0  0  0  0  0  0  0  0  0
   -2.4621    5.5046    0.7392 O   0  0  0  0  0  0  0  0  0  0  0  0
   -1.5026    8.8336    3.5090 O   0  0  0  0  0  0  0  0  0  0  0  0
   -3.5946    5.9216    2.6822 O   0  0  0  0  0  0  0  0  0  0  0  0
  1  2  1  0  0  0  0
  1 10  1  0  0  0  0
  1 21  1  1  0  0  0
  2  3  1  0  0  0  0
  2  7  1  1  0  0  0
  3  4  1  0  0  0  0
  3  8  1  1  0  0  0
  4  5  1  0  0  0  0
  4  9  1  1  0  0  0
  5  6  1  6  0  0  0
  5 10  1  0  0  0  0
  6 11  1  0  0  0  0
 12 13  1  0  0  0  0
 12 17  1  0  0  0  0
 12 18  1  6  0  0  0
 13 14  1  0  0  0  0
 14 15  1  0  0  0  0
 14 19  1  6  0  0  0
 15 16  1  0  0  0  0
 15 30  1  1  0  0  0
 16 17  1  0  0  0  0
 16 20  1  6  0  0  0
 17 21  1  1  0  0  0
 22 23  1  0  0  0  0
 22 30  1  6  0  0  0
 22 32  1  0  0  0  0
 23 24  1  0  0  0  0
 23 28  1  6  0  0  0
 24 25  1  0  0  0  0
 25 26  1  0  0  0  0
 25 31  1  6  0  0  0
 26 27  1  1  0  0  0
 26 32  1  0  0  0  0
 27 29  1  0  0  0  0
M  CHG  5   8   1  18   1  19   1  28   1  29   1
M  END
>  <CHROM.1>
-161.46295411,175.99129688,176.35003547,-172.95835556,-165.31401812,172.32300474
-36.36792584,127.02271729,25.05526478,-179.73176539,100.20282570,178.66910231
147.61498401,63.76561576,62.00366340,-74.94203895,-0.85773096,4.26761633
2.98207440,0.60809950,0.49892229,3.12826243

>  <Name>
1tob

>  <RI>
0

>  <Rbt.Current_Directory>
/home/itssahil/PROJECTS/Mol_Feturizer/New_Systems/rnas/1tob

>  <Rbt.Executable>
rbdock ($Id: //depot/dev/client3/rdock/2013.1/src/exe/rbdock.cxx#4 $)

>  <Rbt.Library>
libRbt.so (2013.1, Build901 2013/11/27)

>  <Rbt.Parameter_File>
/export/apps/rDock/src/rDock_2013.1_src/data/scripts/dock_solv.prm

>  <Rbt.Receptor>
prm/blind_docking_40.prm

>  <SCORE>
-35.3399

>  <SCORE.INTER>
-46.3159

>  <SCORE.INTER.CONST>
1

>  <SCORE.INTER.POLAR>
-5.80756

>  <SCORE.INTER.ROT>
6

>  <SCORE.INTER.SOLV>
34.5176

>  <SCORE.INTER.VDW>
-30.6246

>  <SCORE.INTER.norm>
-1.44737

>  <SCORE.INTRA>
3.41391

>  <SCORE.INTRA.DIHEDRAL>
-2.42976

>  <SCORE.INTRA.DIHEDRAL.0>
22.9177

>  <SCORE.INTRA.POLAR>
0.26847

>  <SCORE.INTRA.POLAR.0>
-0.311208

>  <SCORE.INTRA.REPUL>
0

>  <SCORE.INTRA.REPUL.0>
0

>  <SCORE.INTRA.SOLV>
-1.71742

>  <SCORE.INTRA.SOLV.lig_0>
-132.657

>  <SCORE.INTRA.VDW>
4.5747

>  <SCORE.INTRA.VDW.0>
-4.68867

>  <SCORE.INTRA.norm>
0.106685

>  <SCORE.RESTR>
7.5621

>  <SCORE.RESTR.CAVITY>
7.5621

>  <SCORE.RESTR.norm>
0.236316

>  <SCORE.SYSTEM>
0

>  <SCORE.SYSTEM.CONST>
0

>  <SCORE.SYSTEM.DIHEDRAL>
0

>  <SCORE.SYSTEM.SOLV>
0

>  <SCORE.SYSTEM.norm>
0

>  <SCORE.heavy>
32

>  <SCORE.norm>
-1.10437

>  <RMSD>
5.936

$$$$
1tob
 OpenBabel11021811413D
libRbt.so/2013.1/901 2013/11/27
 32 34  0  0  0  0  0  0  0  0999 V2000
    0.2244    1.5095    5.3669 C   0  0  2  0  0  0  0  0  0  0  0  0
    0.3875    1.3583    6.8774 C   0  0  1  0  0  0  0  0  0  0  0  0
    0.6555    2.7204    7.5030 C   0  0  2  0  0  0  0  0  0  0  0  0
    1.8693    3.3543    6.8340 C   0  0  1  0  0  0  0  0  0  0  0  0
    1.6483    3.4323    5.3259 C   0  0  1  0  0  0  0  0  0  0  0  0
    2.8552    3.9848    4.5935 C   0  0  0  0  0  0  0  0  0  0  0  0
   -0.7942    0.8001    7.4337 O   0  0  0  0  0  0  0  0  0  0  0  0
    0.8266    2.6106    8.9679 N   0  3  0  0  0  0  0  0  0  0  0  0
    2.0856    4.6552    7.3639 O   0  0  0  0  0  0  0  0  0  0  0  0
    1.3909    2.1144    4.7948 O   0  0  0  0  0  0  0  0  0  0  0  0
    2.6756    3.9342    3.1852 O   0  0  0  0  0  0  0  0  0  0  0  0
   -2.3533    1.6166    3.3037 C   0  0  2  0  0  0  0  0  0  0  0  0
   -2.6563    1.7994    1.8228 C   0  0  0  0  0  0  0  0  0  0  0  0
   -2.9493    3.2679    1.5146 C   0  0  1  0  0  0  0  0  0  0  0  0
   -1.7416    4.1234    1.8906 C   0  0  2  0  0  0  0  0  0  0  0  0
   -1.4172    3.9462    3.3747 C   0  0  1  0  0  0  0  0  0  0  0  0
   -1.1545    2.4725    3.6828 C   0  0  1  0  0  0  0  0  0  0  0  0
   -2.0367    0.2027    3.6021 N   0  3  0  0  0  0  0  0  0  0  0  0
   -3.3260    3.4188    0.0851 N   0  3  0  0  0  0  0  0  0  0  0  0
   -0.2759    4.7221    3.7145 O   0  0  0  0  0  0  0  0  0  0  0  0
   -0.8662    2.3101    5.0833 O   0  0  0  0  0  0  0  0  0  0  0  0
   -3.3379    5.9048    1.6841 C   0  0  1  0  0  0  0  0  0  0  0  0
   -3.5642    7.1719    0.8576 C   0  0  1  0  0  0  0  0  0  0  0  0
   -2.7501    8.3246    1.4258 C   0  0  0  0  0  0  0  0  0  0  0  0
   -3.0957    8.5054    2.8949 C   0  0  1  0  0  0  0  0  0  0  0  0
   -2.8644    7.1939    3.6447 C   0  0  1  0  0  0  0  0  0  0  0  0
   -3.2456    7.2836    5.1112 C   0  0  0  0  0  0  0  0  0  0  0  0
   -3.2669    6.9351   -0.5749 N   0  3  0  0  0  0  0  0  0  0  0  0
   -2.5085    6.2881    5.9258 N   0  3  0  0  0  0  0  0  0  0  0  0
   -2.0080    5.5126    1.6083 O   0  0  0  0  0  0  0  0  0  0  0  0
   -2.2945    9.5336    3.4587 O   0  0  0  0  0  0  0  0  0  0  0  0
   -3.6601    6.1400    3.0603 O   0  0  0  0  0  0  0  0  0  0  0  0
  1  2  1  0  0  0  0
  1 10  1  0  0  0  0
  1 21  1  1  0  0  0
  2  3  1  0  0  0  0
  2  7  1  1  0  0  0
  3  4  1  0  0  0  0
  3  8  1  1  0  0  0
  4  5  1  0  0  0  0
  4  9  1  1  0  0  0
  5  6  1  6  0  0  0
  5 10  1  0  0  0  0
  6 11  1  0  0  0  0
 12 13  1  0  0  0  0
 12 17  1  0  0  0  0
 12 18  1  6  0  0  0
 13 14  1  0  0  0  0
 14 15  1  0  0  0  0
 14 19  1  6  0  0  0
 15 16  1  0  0  0  0
 15 30  1  1  0  0  0
 16 17  1  0  0  0  0
 16 20  1  6  0  0  0
 17 21  1  1  0  0  0
 22 23  1  0  0  0  0
 22 30  1  1  0  0  0
 22 32  1  0  0  0  0
 23 24  1  0  0  0  0
 23 28  1  6  0  0  0
 24 25  1  0  0  0  0
 25 26  1  0  0  0  0
 25 31  1  1  0  0  0
 26 27  1  1  0  0  0
 26 32  1  0  0  0  0
 27 29  1  0  0  0  0
M  CHG  5   8   1  18   1  19   1  28   1  29   1
M  END
>  <CHROM.1>
-177.24341802,64.01114029,-63.09825067,-42.78942276,174.62024503,50.98619843
170.21692200,-21.01853415,29.10173415,165.83663837,103.87111419,-157.51372043
175.12208780,153.65444018,-155.26725181,-164.55327610,-1.15849265,4.28738373
3.94249588,0.45498966,0.96060582,-2.92728626

>  <Name>
1tob

>  <RI>
0

>  <Rbt.Current_Directory>
/home/itssahil/PROJECTS/Mol_Feturizer/New_Systems/rnas/1tob

>  <Rbt.Executable>
rbdock ($Id: //depot/dev/client3/rdock/2013.1/src/exe/rbdock.cxx#4 $)

>  <Rbt.Library>
libRbt.so (2013.1, Build901 2013/11/27)

>  <Rbt.Parameter_File>
/export/apps/rDock/src/rDock_2013.1_src/data/scripts/dock_solv.prm

>  <Rbt.Receptor>
prm/blind_docking_40.prm

>  <SCORE>
-21.5776

>  <SCORE.INTER>
-31.7927

>  <SCORE.INTER.CONST>
1

>  <SCORE.INTER.POLAR>
-4.94957

>  <SCORE.INTER.ROT>
6

>  <SCORE.INTER.SOLV>
43.7536

>  <SCORE.INTER.VDW>
-26.8811

>  <SCORE.INTER.norm>
-0.993522

>  <SCORE.INTRA>
0.686608

>  <SCORE.INTRA.DIHEDRAL>
0.291211

>  <SCORE.INTRA.DIHEDRAL.0>
22.9177

>  <SCORE.INTRA.POLAR>
-0.494825

>  <SCORE.INTRA.POLAR.0>
-0.311208

>  <SCORE.INTRA.REPUL>
0

>  <SCORE.INTRA.REPUL.0>
0

>  <SCORE.INTRA.SOLV>
0.659085

>  <SCORE.INTRA.SOLV.lig_0>
-132.657

>  <SCORE.INTRA.VDW>
1.89387

>  <SCORE.INTRA.VDW.0>
-4.68867

>  <SCORE.INTRA.norm>
0.0214565

>  <SCORE.RESTR>
9.52854

>  <SCORE.RESTR.CAVITY>
9.52854

>  <SCORE.RESTR.norm>
0.297767

>  <SCORE.SYSTEM>
0

>  <SCORE.SYSTEM.CONST>
0

>  <SCORE.SYSTEM.DIHEDRAL>
0

>  <SCORE.SYSTEM.SOLV>
0

>  <SCORE.SYSTEM.norm>
0

>  <SCORE.heavy>
32

>  <SCORE.norm>
-0.674299

>  <RMSD>
5.966

$$$$
1tob
 OpenBabel11021811413D
libRbt.so/2013.1/901 2013/11/27
 32 34  0  0  0  0  0  0  0  0999 V2000
    1.1679    1.6283    3.4606 C   0  0  2  0  0  0  0  0  0  0  0  0
    1.8850    1.4180    4.7920 C   0  0  1  0  0  0  0  0  0  0  0  0
    2.5372    2.7208    5.2345 C   0  0  2  0  0  0  0  0  0  0  0  0
    3.4630    3.2227    4.1329 C   0  0  1  0  0  0  0  0  0  0  0  0
    2.6851    3.3673    2.8278 C   0  0  1  0  0  0  0  0  0  0  0  0
    3.5703    3.7909    1.6722 C   0  0  0  0  0  0  0  0  0  0  0  0
    0.9538    0.9904    5.7757 O   0  0  0  0  0  0  0  0  0  0  0  0
    3.2488    2.5517    6.5199 N   0  3  0  0  0  0  0  0  0  0  0  0
    4.0234    4.4736    4.5087 O   0  0  0  0  0  0  0  0  0  0  0  0
    2.0847    2.1045    2.4672 O   0  0  0  0  0  0  0  0  0  0  0  0
    4.4674    2.7547    1.2987 O   0  0  0  0  0  0  0  0  0  0  0  0
   -2.0210    1.8279    2.8482 C   0  0  2  0  0  0  0  0  0  0  0  0
   -3.0025    1.9084    1.6871 C   0  0  0  0  0  0  0  0  0  0  0  0
   -3.3783    3.3632    1.4048 C   0  0  1  0  0  0  0  0  0  0  0  0
   -2.1230    4.1610    1.0590 C   0  0  2  0  0  0  0  0  0  0  0  0
   -1.1211    4.0848    2.2121 C   0  0  1  0  0  0  0  0  0  0  0  0
   -0.7719    2.6269    2.5093 C   0  0  1  0  0  0  0  0  0  0  0  0
   -1.6282    0.4249    3.1047 N   0  3  0  0  0  0  0  0  0  0  0  0
   -4.3998    3.4213    0.3272 N   0  3  0  0  0  0  0  0  0  0  0  0
    0.0570    4.8051    1.8753 O   0  0  0  0  0  0  0  0  0  0  0  0
    0.1580    2.5611    3.6055 O   0  0  0  0  0  0  0  0  0  0  0  0
   -3.6938    5.9631    1.2803 C   0  0  1  0  0  0  0  0  0  0  0  0
   -3.9436    7.4195    0.8848 C   0  0  1  0  0  0  0  0  0  0  0  0
   -2.9005    8.3253    1.5218 C   0  0  0  0  0  0  0  0  0  0  0  0
   -2.9027    8.1108    3.0266 C   0  0  1  0  0  0  0  0  0  0  0  0
   -2.6695    6.6328    3.3376 C   0  0  1  0  0  0  0  0  0  0  0  0
   -2.7173    6.3334    4.8249 C   0  0  0  0  0  0  0  0  0  0  0  0
   -3.9869    7.5726   -0.5886 N   0  3  0  0  0  0  0  0  0  0  0  0
   -4.0432    6.6595    5.4023 N   0  3  0  0  0  0  0  0  0  0  0  0
   -2.4645    5.5373    0.7949 O   0  0  0  0  0  0  0  0  0  0  0  0
   -1.8873    8.8990    3.6304 O   0  0  0  0  0  0  0  0  0  0  0  0
   -3.6869    5.8252    2.7066 O   0  0  0  0  0  0  0  0  0  0  0  0
  1  2  1  0  0  0  0
  1 10  1  0  0  0  0
  1 21  1  1  0  0  0
  2  3  1  0  0  0  0
  2  7  1  1  0  0  0
  3  4  1  0  0  0  0
  3  8  1  1  0  0  0
  4  5  1  0  0  0  0
  4  9  1  1  0  0  0
  5  6  1  6  0  0  0
  5 10  1  0  0  0  0
  6 11  1  0  0  0  0
 12 13  1  0  0  0  0
 12 17  1  0  0  0  0
 12 18  1  6  0  0  0
 13 14  1  0  0  0  0
 14 15  1  0  0  0  0
 14 19  1  6  0  0  0
 15 16  1  0  0  0  0
 15 30  1  1  0  0  0
 16 17  1  0  0  0  0
 16 20  1  6  0  0  0
 17 21  1  1  0  0  0
 22 23  1  0  0  0  0
 22 30  1  1  0  0  0
 22 32  1  0  0  0  0
 23 24  1  0  0  0  0
 23 28  1  6  0  0  0
 24 25  1  0  0  0  0
 25 26  1  0  0  0  0
 25 31  1  1  0  0  0
 26 27  1  1  0  0  0
 26 32  1  0  0  0  0
 27 29  1  0  0  0  0
M  CHG  5   8   1  18   1  19   1  28   1  29   1
M  END
>  <CHROM.1>
-166.85284563,-51.74664877,-167.46865954,68.21012971,69.22982825,-56.10210470
84.78902570,11.89891583,18.91690146,-57.36988108,98.50939252,-177.95520188
152.32732369,-54.29705657,61.39254885,-59.12932276,-0.69566242,4.23507713
2.83428568,0.50445961,0.42873303,-2.97864404

>  <Name>
1tob

>  <RI>
0

>  <Rbt.Current_Directory>
/home/itssahil/PROJECTS/Mol_Feturizer/New_Systems/rnas/1tob

>  <Rbt.Executable>
rbdock ($Id: //depot/dev/client3/rdock/2013.1/src/exe/rbdock.cxx#4 $)

>  <Rbt.Library>
libRbt.so (2013.1, Build901 2013/11/27)

>  <Rbt.Parameter_File>
/export/apps/rDock/src/rDock_2013.1_src/data/scripts/dock_solv.prm

>  <Rbt.Receptor>
prm/blind_docking_40.prm

>  <SCORE>
-42.4306

>  <SCORE.INTER>
-52.2435

>  <SCORE.INTER.CONST>
1

>  <SCORE.INTER.POLAR>
-6.65688

>  <SCORE.INTER.ROT>
6

>  <SCORE.INTER.SOLV>
33.5923

>  <SCORE.INTER.VDW>
-31.4369

>  <SCORE.INTER.norm>
-1.63261

>  <SCORE.INTRA>
2.95736

>  <SCORE.INTRA.DIHEDRAL>
-3.36536

>  <SCORE.INTRA.DIHEDRAL.0>
22.9177

>  <SCORE.INTRA.POLAR>
0.298705

>  <SCORE.INTRA.POLAR.0>
-0.311208

>  <SCORE.INTRA.REPUL>
0

>  <SCORE.INTRA.REPUL.0>
0

>  <SCORE.INTRA.SOLV>
-1.51373

>  <SCORE.INTRA.SOLV.lig_0>
-132.657

>  <SCORE.INTRA.VDW>
4.38131

>  <SCORE.INTRA.VDW.0>
-4.68867

>  <SCORE.INTRA.norm>
0.0924175

>  <SCORE.RESTR>
6.85555

>  <SCORE.RESTR.CAVITY>
6.85555

>  <SCORE.RESTR.norm>
0.214236

>  <SCORE.SYSTEM>
0

>  <SCORE.SYSTEM.CONST>
0

>  <SCORE.SYSTEM.DIHEDRAL>
0

>  <SCORE.SYSTEM.SOLV>
0

>  <SCORE.SYSTEM.norm>
0

>  <SCORE.heavy>
32

>  <SCORE.norm>
-1.32596

>  <RMSD>
5.995

$$$$
1tob
 OpenBabel11021811413D
libRbt.so/2013.1/901 2013/11/27
 32 34  0  0  0  0  0  0  0  0999 V2000
    0.2856    2.5822    5.4224 C   0  0  2  0  0  0  0  0  0  0  0  0
    1.6903    2.0188    5.6235 C   0  0  1  0  0  0  0  0  0  0  0  0
    2.6058    2.5156    4.5129 C   0  0  2  0  0  0  0  0  0  0  0  0
    2.0058    2.1491    3.1608 C   0  0  1  0  0  0  0  0  0  0  0  0
    0.5906    2.7101    3.0524 C   0  0  1  0  0  0  0  0  0  0  0  0
   -0.0901    2.3129    1.7573 C   0  0  0  0  0  0  0  0  0  0  0  0
    2.1974    2.4340    6.8837 O   0  0  0  0  0  0  0  0  0  0  0  0
    3.9761    1.9823    4.6722 N   0  3  0  0  0  0  0  0  0  0  0  0
    2.8187    2.6688    2.1173 O   0  0  0  0  0  0  0  0  0  0  0  0
   -0.2238    2.2109    4.1353 O   0  0  0  0  0  0  0  0  0  0  0  0
   -0.9445    1.1931    1.9424 O   0  0  0  0  0  0  0  0  0  0  0  0
   -1.1266    5.4367    6.7739 C   0  0  2  0  0  0  0  0  0  0  0  0
   -2.4935    6.1074    6.7791 C   0  0  0  0  0  0  0  0  0  0  0  0
   -2.6604    6.9898    5.5418 C   0  0  1  0  0  0  0  0  0  0  0  0
   -2.5215    6.1397    4.2809 C   0  0  2  0  0  0  0  0  0  0  0  0
   -1.1559    5.4511    4.2625 C   0  0  1  0  0  0  0  0  0  0  0  0
   -0.9828    4.5940    5.5160 C   0  0  1  0  0  0  0  0  0  0  0  0
   -0.9721    4.5556    7.9522 N   0  3  0  0  0  0  0  0  0  0  0  0
   -3.9624    7.7034    5.6020 N   0  3  0  0  0  0  0  0  0  0  0  0
   -1.0414    4.6390    3.1018 O   0  0  0  0  0  0  0  0  0  0  0  0
    0.3100    3.9621    5.5008 O   0  0  0  0  0  0  0  0  0  0  0  0
   -2.0908    6.4760    1.9431 C   0  0  1  0  0  0  0  0  0  0  0  0
   -2.1744    7.5230    0.8310 C   0  0  1  0  0  0  0  0  0  0  0  0
   -3.6278    7.8127    0.4876 C   0  0  0  0  0  0  0  0  0  0  0  0
   -4.3271    6.5112    0.1305 C   0  0  1  0  0  0  0  0  0  0  0  0
   -4.1798    5.5141    1.2793 C   0  0  1  0  0  0  0  0  0  0  0  0
   -4.8059    4.1667    0.9682 C   0  0  0  0  0  0  0  0  0  0  0  0
   -1.4349    8.7534    1.1993 N   0  3  0  0  0  0  0  0  0  0  0  0
   -4.6422    3.2185    2.0959 N   0  3  0  0  0  0  0  0  0  0  0  0
   -2.6727    6.9628    3.1061 O   0  0  0  0  0  0  0  0  0  0  0  0
   -5.7025    6.7542   -0.1268 O   0  0  0  0  0  0  0  0  0  0  0  0
   -2.7825    5.2812    1.5595 O   0  0  0  0  0  0  0  0  0  0  0  0
  1  2  1  0  0  0  0
  1 10  1  0  0  0  0
  1 21  1  6  0  0  0
  2  3  1  0  0  0  0
  2  7  1  1  0  0  0
  3  4  1  0  0  0  0
  3  8  1  1  0  0  0
  4  5  1  0  0  0  0
  4  9  1  6  0  0  0
  5  6  1  6  0  0  0
  5 10  1  0  0  0  0
  6 11  1  0  0  0  0
 12 13  1  0  0  0  0
 12 17  1  0  0  0  0
 12 18  1  1  0  0  0
 13 14  1  0  0  0  0
 14 15  1  0  0  0  0
 14 19  1  1  0  0  0
 15 16  1  0  0  0  0
 15 30  1  6  0  0  0
 16 17  1  0  0  0  0
 16 20  1  6  0  0  0
 17 21  1  6  0  0  0
 22 23  1  0  0  0  0
 22 30  1  1  0  0  0
 22 32  1  0  0  0  0
 23 24  1  0  0  0  0
 23 28  1  1  0  0  0
 24 25  1  0  0  0  0
 25 26  1  0  0  0  0
 25 31  1  1  0  0  0
 26 27  1  6  0  0  0
 26 32  1  0  0  0  0
 27 29  1  0  0  0  0
M  CHG  5   8   1  18   1  19   1  28   1  29   1
M  END
>  <CHROM.1>
-171.56263999,173.27149786,63.03858946,70.10832139,97.98629859,58.86842839
38.20249290,-4.20214034,156.48434611,128.85875067,122.29122013,-172.85949799
70.11993522,69.11739301,179.71095417,58.34020179,-1.23941005,4.64488702,3.50211404
0.25005564,-0.73463481,1.24824248

>  <Name>
1tob

>  <RI>
0

>  <Rbt.Current_Directory>
/home/itssahil/PROJECTS/Mol_Feturizer/New_Systems/rnas/1tob

>  <Rbt.Executable>
rbdock ($Id: //depot/dev/client3/rdock/2013.1/src/exe/rbdock.cxx#4 $)

>  <Rbt.Library>
libRbt.so (2013.1, Build901 2013/11/27)

>  <Rbt.Parameter_File>
/export/apps/rDock/src/rDock_2013.1_src/data/scripts/dock_solv.prm

>  <Rbt.Receptor>
prm/blind_docking_40.prm

>  <SCORE>
8.11818

>  <SCORE.INTER>
-11.0657

>  <SCORE.INTER.CONST>
1

>  <SCORE.INTER.POLAR>
-4.812

>  <SCORE.INTER.ROT>
6

>  <SCORE.INTER.SOLV>
29.2766

>  <SCORE.INTER.VDW>
-8.69602

>  <SCORE.INTER.norm>
-0.345804

>  <SCORE.INTRA>
10.8549

>  <SCORE.INTRA.DIHEDRAL>
3.64452

>  <SCORE.INTRA.DIHEDRAL.0>
22.9177

>  <SCORE.INTRA.POLAR>
0.309957

>  <SCORE.INTRA.POLAR.0>
-0.311208

>  <SCORE.INTRA.REPUL>
0.0226717

>  <SCORE.INTRA.REPUL.0>
0

>  <SCORE.INTRA.SOLV>
-4.31082

>  <SCORE.INTRA.SOLV.lig_0>
-132.657

>  <SCORE.INTRA.VDW>
10.0209

>  <SCORE.INTRA.VDW.0>
-4.68867

>  <SCORE.INTRA.norm>
0.339217

>  <SCORE.RESTR>
8.32896

>  <SCORE.RESTR.CAVITY>
8.32896

>  <SCORE.RESTR.norm>
0.26028

>  <SCORE.SYSTEM>
0

>  <SCORE.SYSTEM.CONST>
0

>  <SCORE.SYSTEM.DIHEDRAL>
0

>  <SCORE.SYSTEM.SOLV>
0

>  <SCORE.SYSTEM.norm>
0

>  <SCORE.heavy>
32

>  <SCORE.norm>
0.253693

>  <RMSD>
6.095

$$$$
1tob
 OpenBabel11021811413D
libRbt.so/2013.1/901 2013/11/27
 32 34  0  0  0  0  0  0  0  0999 V2000
   -1.0128    3.4046    6.4411 C   0  0  2  0  0  0  0  0  0  0  0  0
   -1.1757    4.4980    7.4942 C   0  0  1  0  0  0  0  0  0  0  0  0
    0.0753    4.5670    8.3594 C   0  0  2  0  0  0  0  0  0  0  0  0
    0.3488    3.1949    8.9637 C   0  0  1  0  0  0  0  0  0  0  0  0
    0.4567    2.1521    7.8545 C   0  0  1  0  0  0  0  0  0  0  0  0
    0.6524    0.7502    8.3974 C   0  0  0  0  0  0  0  0  0  0  0  0
   -1.3868    5.7498    6.8570 O   0  0  0  0  0  0  0  0  0  0  0  0
   -0.0506    5.6128    9.3975 N   0  3  0  0  0  0  0  0  0  0  0  0
    1.5531    3.2329    9.7174 O   0  0  0  0  0  0  0  0  0  0  0  0
   -0.7530    2.1414    7.0661 O   0  0  0  0  0  0  0  0  0  0  0  0
    1.0207   -0.1579    7.3690 O   0  0  0  0  0  0  0  0  0  0  0  0
   -0.4478    1.9702    3.9880 C   0  0  2  0  0  0  0  0  0  0  0  0
   -0.7070    1.7152    2.5095 C   0  0  0  0  0  0  0  0  0  0  0  0
   -1.9127    2.5244    2.0309 C   0  0  1  0  0  0  0  0  0  0  0  0
   -1.6514    4.0134    2.2467 C   0  0  2  0  0  0  0  0  0  0  0  0
   -1.3807    4.2874    3.7269 C   0  0  1  0  0  0  0  0  0  0  0  0
   -0.1933    3.4536    4.2070 C   0  0  1  0  0  0  0  0  0  0  0  0
    0.7379    1.2151    4.4488 N   0  3  0  0  0  0  0  0  0  0  0  0
   -2.2062    2.2019    0.6104 N   0  3  0  0  0  0  0  0  0  0  0  0
   -1.1105    5.6695    3.9194 O   0  0  0  0  0  0  0  0  0  0  0  0
    0.0458    3.7034    5.6039 O   0  0  0  0  0  0  0  0  0  0  0  0
   -3.9889    4.5248    2.4423 C   0  0  1  0  0  0  0  0  0  0  0  0
   -5.1621    4.8462    1.5148 C   0  0  1  0  0  0  0  0  0  0  0  0
   -5.1768    6.3296    1.1776 C   0  0  0  0  0  0  0  0  0  0  0  0
   -5.2014    7.1358    2.4659 C   0  0  1  0  0  0  0  0  0  0  0  0
   -4.0141    6.7421    3.3439 C   0  0  1  0  0  0  0  0  0  0  0  0
   -4.0066    7.4675    4.6773 C   0  0  0  0  0  0  0  0  0  0  0  0
   -5.1281    4.0005    0.2982 N   0  3  0  0  0  0  0  0  0  0  0  0
   -3.6827    6.5479    5.7940 N   0  3  0  0  0  0  0  0  0  0  0  0
   -2.7847    4.7873    1.8028 O   0  0  0  0  0  0  0  0  0  0  0  0
   -5.1465    8.5239    2.1707 O   0  0  0  0  0  0  0  0  0  0  0  0
   -4.0533    5.3268    3.6280 O   0  0  0  0  0  0  0  0  0  0  0  0
  1  2  1  0  0  0  0
  1 10  1  0  0  0  0
  1 21  1  6  0  0  0
  2  3  1  0  0  0  0
  2  7  1  6  0  0  0
  3  4  1  0  0  0  0
  3  8  1  1  0  0  0
  4  5  1  0  0  0  0
  4  9  1  6  0  0  0
  5  6  1  1  0  0  0
  5 10  1  0  0  0  0
  6 11  1  0  0  0  0
 12 13  1  0  0  0  0
 12 17  1  0  0  0  0
 12 18  1  6  0  0  0
 13 14  1  0  0  0  0
 14 15  1  0  0  0  0
 14 19  1  6  0  0  0
 15 16  1  0  0  0  0
 15 30  1  1  0  0  0
 16 17  1  0  0  0  0
 16 20  1  6  0  0  0
 17 21  1  1  0  0  0
 22 23  1  0  0  0  0
 22 30  1  6  0  0  0
 22 32  1  0  0  0  0
 23 24  1  0  0  0  0
 23 28  1  6  0  0  0
 24 25  1  0  0  0  0
 25 26  1  0  0  0  0
 25 31  1  6  0  0  0
 26 27  1  1  0  0  0
 26 32  1  0  0  0  0
 27 29  1  0  0  0  0
M  CHG  5   8   1  18   1  19   1  28   1  29   1
M  END
>  <CHROM.1>
-137.82474761,176.52503370,66.24921531,-57.26871529,-168.06338966,160.36548073
-144.21217896,-8.06886395,60.21725991,171.95743899,-62.47241316,-152.83161327
102.93095620,-65.07032248,136.34091012,105.90888590,-1.77411121,4.13501016
4.72754510,0.36883272,-0.90118310,0.93181701

>  <Name>
1tob

>  <RI>
0

>  <Rbt.Current_Directory>
/home/itssahil/PROJECTS/Mol_Feturizer/New_Systems/rnas/1tob

>  <Rbt.Executable>
rbdock ($Id: //depot/dev/client3/rdock/2013.1/src/exe/rbdock.cxx#4 $)

>  <Rbt.Library>
libRbt.so (2013.1, Build901 2013/11/27)

>  <Rbt.Parameter_File>
/export/apps/rDock/src/rDock_2013.1_src/data/scripts/dock_solv.prm

>  <Rbt.Receptor>
prm/blind_docking_40.prm

>  <SCORE>
-20.359

>  <SCORE.INTER>
-32.3361

>  <SCORE.INTER.CONST>
1

>  <SCORE.INTER.POLAR>
-5.60521

>  <SCORE.INTER.ROT>
6

>  <SCORE.INTER.SOLV>
41.9455

>  <SCORE.INTER.VDW>
-24.4552

>  <SCORE.INTER.norm>
-1.0105

>  <SCORE.INTRA>
0.458672

>  <SCORE.INTRA.DIHEDRAL>
5.07842

>  <SCORE.INTRA.DIHEDRAL.0>
22.9177

>  <SCORE.INTRA.POLAR>
-2.74747

>  <SCORE.INTRA.POLAR.0>
-0.311208

>  <SCORE.INTRA.REPUL>
0.0330225

>  <SCORE.INTRA.REPUL.0>
0

>  <SCORE.INTRA.SOLV>
8.11195

>  <SCORE.INTRA.SOLV.lig_0>
-132.657

>  <SCORE.INTRA.VDW>
3.03977

>  <SCORE.INTRA.VDW.0>
-4.68867

>  <SCORE.INTRA.norm>
0.0143335

>  <SCORE.RESTR>
11.5185

>  <SCORE.RESTR.CAVITY>
11.5185

>  <SCORE.RESTR.norm>
0.359952

>  <SCORE.SYSTEM>
0

>  <SCORE.SYSTEM.CONST>
0

>  <SCORE.SYSTEM.DIHEDRAL>
0

>  <SCORE.SYSTEM.SOLV>
0

>  <SCORE.SYSTEM.norm>
0

>  <SCORE.heavy>
32

>  <SCORE.norm>
-0.636217

>  <RMSD>
6.108

$$$$
1tob
 OpenBabel11021811413D
libRbt.so/2013.1/901 2013/11/27
 32 34  0  0  0  0  0  0  0  0999 V2000
   -0.9950    3.3242    6.4617 C   0  0  2  0  0  0  0  0  0  0  0  0
   -0.9917    4.2312    7.6899 C   0  0  1  0  0  0  0  0  0  0  0  0
    0.2966    4.0262    8.4751 C   0  0  2  0  0  0  0  0  0  0  0  0
    0.4465    2.5505    8.8249 C   0  0  1  0  0  0  0  0  0  0  0  0
    0.3916    1.7082    7.5533 C   0  0  1  0  0  0  0  0  0  0  0  0
    0.4584    0.2214    7.8425 C   0  0  0  0  0  0  0  0  0  0  0  0
   -1.0942    5.5885    7.2839 O   0  0  0  0  0  0  0  0  0  0  0  0
    0.3308    4.8854    9.6784 N   0  3  0  0  0  0  0  0  0  0  0  0
    1.6802    2.3388    9.4982 O   0  0  0  0  0  0  0  0  0  0  0  0
   -0.8459    1.9530    6.8507 O   0  0  0  0  0  0  0  0  0  0  0  0
    0.0197   -0.0708    9.1617 O   0  0  0  0  0  0  0  0  0  0  0  0
   -0.2905    2.0185    3.8721 C   0  0  2  0  0  0  0  0  0  0  0  0
   -0.5865    1.8599    2.3871 C   0  0  0  0  0  0  0  0  0  0  0  0
   -1.9094    2.5382    2.0304 C   0  0  1  0  0  0  0  0  0  0  0  0
   -1.8343    4.0245    2.3728 C   0  0  2  0  0  0  0  0  0  0  0  0
   -1.5294    4.2033    3.8609 C   0  0  1  0  0  0  0  0  0  0  0  0
   -0.2212    3.4981    4.2176 C   0  0  1  0  0  0  0  0  0  0  0  0
    1.0048    1.3925    4.2169 N   0  3  0  0  0  0  0  0  0  0  0  0
   -2.2277    2.3034    0.5980 N   0  3  0  0  0  0  0  0  0  0  0  0
   -1.4326    5.5872    4.1700 O   0  0  0  0  0  0  0  0  0  0  0  0
    0.0515    3.6560    5.6217 O   0  0  0  0  0  0  0  0  0  0  0  0
   -4.2091    4.1850    2.6864 C   0  0  1  0  0  0  0  0  0  0  0  0
   -5.4730    4.6444    1.9573 C   0  0  1  0  0  0  0  0  0  0  0  0
   -5.5855    6.1609    2.0012 C   0  0  0  0  0  0  0  0  0  0  0  0
   -5.5333    6.6253    3.4475 C   0  0  1  0  0  0  0  0  0  0  0  0
   -4.2564    6.1091    4.1097 C   0  0  1  0  0  0  0  0  0  0  0  0
   -4.1648    6.4865    5.5771 C   0  0  0  0  0  0  0  0  0  0  0  0
   -5.5076    4.1248    0.5698 N   0  3  0  0  0  0  0  0  0  0  0  0
   -4.0632    7.9548    5.7549 N   0  3  0  0  0  0  0  0  0  0  0  0
   -3.0793    4.6747    2.0447 O   0  0  0  0  0  0  0  0  0  0  0  0
   -5.5684    8.0440    3.5030 O   0  0  0  0  0  0  0  0  0  0  0  0
   -4.2055    4.6678    4.0355 O   0  0  0  0  0  0  0  0  0  0  0  0
  1  2  1  0  0  0  0
  1 10  1  0  0  0  0
  1 21  1  6  0  0  0
  2  3  1  0  0  0  0
  2  7  1  6  0  0  0
  3  4  1  0  0  0  0
  3  8  1  1  0  0  0
  4  5  1  0  0  0  0
  4  9  1  6  0  0  0
  5  6  1  1  0  0  0
  5 10  1  0  0  0  0
  6 11  1  0  0  0  0
 12 13  1  0  0  0  0
 12 17  1  0  0  0  0
 12 18  1  6  0  0  0
 13 14  1  0  0  0  0
 14 15  1  0  0  0  0
 14 19  1  6  0  0  0
 15 16  1  0  0  0  0
 15 30  1  1  0  0  0
 16 17  1  0  0  0  0
 16 20  1  6  0  0  0
 17 21  1  1  0  0  0
 22 23  1  0  0  0  0
 22 30  1  6  0  0  0
 22 32  1  0  0  0  0
 23 24  1  0  0  0  0
 23 28  1  6  0  0  0
 24 25  1  0  0  0  0
 25 26  1  0  0  0  0
 25 31  1  6  0  0  0
 26 27  1  1  0  0  0
 26 32  1  0  0  0  0
 27 29  1  0  0  0  0
M  CHG  5   8   1  18   1  19   1  28   1  29   1
M  END
>  <CHROM.1>
-145.94368392,-172.31841634,127.74968783,-52.95904748,23.71637757,63.14199200
-55.46859163,125.60618414,59.28123708,-179.94478799,-71.37620421,-162.72941839
-58.24351708,67.57304821,-64.72751402,52.32850065,-1.89337118,3.94572520
4.97917275,0.40356304,-0.84086434,1.03642226

>  <Name>
1tob

>  <RI>
0

>  <Rbt.Current_Directory>
/home/itssahil/PROJECTS/Mol_Feturizer/New_Systems/rnas/1tob

>  <Rbt.Executable>
rbdock ($Id: //depot/dev/client3/rdock/2013.1/src/exe/rbdock.cxx#4 $)

>  <Rbt.Library>
libRbt.so (2013.1, Build901 2013/11/27)

>  <Rbt.Parameter_File>
/export/apps/rDock/src/rDock_2013.1_src/data/scripts/dock_solv.prm

>  <Rbt.Receptor>
prm/blind_docking_80.prm

>  <SCORE>
-27.836

>  <SCORE.INTER>
-35.9802

>  <SCORE.INTER.CONST>
1

>  <SCORE.INTER.POLAR>
-5.34478

>  <SCORE.INTER.ROT>
6

>  <SCORE.INTER.SOLV>
40.5016

>  <SCORE.INTER.VDW>
-27.2714

>  <SCORE.INTER.norm>
-1.12438

>  <SCORE.INTRA>
-2.47336

>  <SCORE.INTRA.DIHEDRAL>
-4.85713

>  <SCORE.INTRA.DIHEDRAL.0>
22.9177

>  <SCORE.INTRA.POLAR>
-1.39145

>  <SCORE.INTRA.POLAR.0>
-0.311208

>  <SCORE.INTRA.REPUL>
0

>  <SCORE.INTRA.REPUL.0>
0

>  <SCORE.INTRA.SOLV>
1.8186

>  <SCORE.INTRA.SOLV.lig_0>
-132.657

>  <SCORE.INTRA.VDW>
3.77684

>  <SCORE.INTRA.VDW.0>
-4.68867

>  <SCORE.INTRA.norm>
-0.0772926

>  <SCORE.RESTR>
10.6176

>  <SCORE.RESTR.CAVITY>
10.6176

>  <SCORE.RESTR.norm>
0.331801

>  <SCORE.SYSTEM>
0

>  <SCORE.SYSTEM.CONST>
0

>  <SCORE.SYSTEM.DIHEDRAL>
0

>  <SCORE.SYSTEM.SOLV>
0

>  <SCORE.SYSTEM.norm>
0

>  <SCORE.heavy>
32

>  <SCORE.norm>
-0.869874

>  <RMSD>
6.111

$$$$
1tob
 OpenBabel11021811413D
libRbt.so/2013.1/901 2013/11/27
 32 34  0  0  0  0  0  0  0  0999 V2000
    1.1448    3.2290    3.4764 C   0  0  2  0  0  0  0  0  0  0  0  0
    1.3934    1.8181    2.9485 C   0  0  1  0  0  0  0  0  0  0  0  0
    2.5929    1.2081    3.6609 C   0  0  2  0  0  0  0  0  0  0  0  0
    3.7988    2.1255    3.4973 C   0  0  1  0  0  0  0  0  0  0  0  0
    3.4596    3.5235    4.0071 C   0  0  1  0  0  0  0  0  0  0  0  0
    4.5965    4.5049    3.8003 C   0  0  0  0  0  0  0  0  0  0  0  0
    0.2442    1.0135    3.1713 O   0  0  0  0  0  0  0  0  0  0  0  0
    2.8679   -0.1590    3.1681 N   0  3  0  0  0  0  0  0  0  0  0  0
    4.9052    1.5982    4.2168 O   0  0  0  0  0  0  0  0  0  0  0  0
    2.3117    4.0425    3.3013 O   0  0  0  0  0  0  0  0  0  0  0  0
    4.8515    4.7202    2.4195 O   0  0  0  0  0  0  0  0  0  0  0  0
   -0.3119    4.9799    5.9711 C   0  0  2  0  0  0  0  0  0  0  0  0
   -1.6920    5.5152    6.3276 C   0  0  0  0  0  0  0  0  0  0  0  0
   -2.5044    5.7844    5.0607 C   0  0  1  0  0  0  0  0  0  0  0  0
   -2.6567    4.4914    4.2627 C   0  0  2  0  0  0  0  0  0  0  0  0
   -1.2787    3.9342    3.9023 C   0  0  1  0  0  0  0  0  0  0  0  0
   -0.4604    3.6951    5.1707 C   0  0  1  0  0  0  0  0  0  0  0  0
    0.4670    4.6864    7.1941 N   0  3  0  0  0  0  0  0  0  0  0  0
   -3.8153    6.3853    5.4192 N   0  3  0  0  0  0  0  0  0  0  0  0
   -1.4242    2.7165    3.1839 O   0  0  0  0  0  0  0  0  0  0  0  0
    0.8404    3.1866    4.8241 O   0  0  0  0  0  0  0  0  0  0  0  0
   -4.5948    4.0085    2.9307 C   0  0  1  0  0  0  0  0  0  0  0  0
   -4.5672    3.1830    1.6432 C   0  0  1  0  0  0  0  0  0  0  0  0
   -4.4975    4.0992    0.4307 C   0  0  0  0  0  0  0  0  0  0  0  0
   -5.6550    5.0832    0.4794 C   0  0  1  0  0  0  0  0  0  0  0  0
   -5.6251    5.8503    1.8009 C   0  0  1  0  0  0  0  0  0  0  0  0
   -6.7898    6.8130    1.9448 C   0  0  0  0  0  0  0  0  0  0  0  0
   -3.4570    2.2015    1.6621 N   0  3  0  0  0  0  0  0  0  0  0  0
   -8.0774    6.1627    1.6031 N   0  3  0  0  0  0  0  0  0  0  0  0
   -3.4181    4.7339    3.0620 O   0  0  0  0  0  0  0  0  0  0  0  0
   -5.5665    5.9906   -0.6096 O   0  0  0  0  0  0  0  0  0  0  0  0
   -5.6920    4.9300    2.9117 O   0  0  0  0  0  0  0  0  0  0  0  0
  1  2  1  0  0  0  0
  1 10  1  0  0  0  0
  1 21  1  1  0  0  0
  2  3  1  0  0  0  0
  2  7  1  1  0  0  0
  3  4  1  0  0  0  0
  3  8  1  6  0  0  0
  4  5  1  0  0  0  0
  4  9  1  1  0  0  0
  5  6  1  6  0  0  0
  5 10  1  0  0  0  0
  6 11  1  0  0  0  0
 12 13  1  0  0  0  0
 12 17  1  0  0  0  0
 12 18  1  1  0  0  0
 13 14  1  0  0  0  0
 14 15  1  0  0  0  0
 14 19  1  1  0  0  0
 15 16  1  0  0  0  0
 15 30  1  6  0  0  0
 16 17  1  0  0  0  0
 16 20  1  1  0  0  0
 17 21  1  6  0  0  0
 22 23  1  0  0  0  0
 22 30  1  6  0  0  0
 22 32  1  0  0  0  0
 23 24  1  0  0  0  0
 23 28  1  1  0  0  0
 24 25  1  0  0  0  0
 25 26  1  0  0  0  0
 25 31  1  6  0  0  0
 26 27  1  6  0  0  0
 26 32  1  0  0  0  0
 27 29  1  0  0  0  0
M  CHG  5   8   1  18   1  19   1  28   1  29   1
M  END
>  <CHROM.1>
-118.90654908,-176.95798361,174.38658041,-0.09005704,64.92460557,-60.52415678
73.83591512,100.47103534,-120.24675508,-68.24224857,-112.25846637,-122.14593931
-43.06803807,-178.04260831,47.71981943,-173.71202079,-1.19861942,3.91251704
3.32746175,-0.00511512,0.36460902,-2.17913430

>  <Name>
1tob

>  <RI>
0

>  <Rbt.Current_Directory>
/home/itssahil/PROJECTS/Mol_Feturizer/New_Systems/rnas/1tob

>  <Rbt.Executable>
rbdock ($Id: //depot/dev/client3/rdock/2013.1/src/exe/rbdock.cxx#4 $)

>  <Rbt.Library>
libRbt.so (2013.1, Build901 2013/11/27)

>  <Rbt.Parameter_File>
/export/apps/rDock/src/rDock_2013.1_src/data/scripts/dock_solv.prm

>  <Rbt.Receptor>
prm/blind_docking_80.prm

>  <SCORE>
0.277823

>  <SCORE.INTER>
-21.5279

>  <SCORE.INTER.CONST>
1

>  <SCORE.INTER.POLAR>
-5.07601

>  <SCORE.INTER.ROT>
6

>  <SCORE.INTER.SOLV>
34.3968

>  <SCORE.INTER.VDW>
-16.4975

>  <SCORE.INTER.norm>
-0.672746

>  <SCORE.INTRA>
15.3278

>  <SCORE.INTRA.DIHEDRAL>
17.8515

>  <SCORE.INTRA.DIHEDRAL.0>
22.9177

>  <SCORE.INTRA.POLAR>
-0.908537

>  <SCORE.INTRA.POLAR.0>
-0.311208

>  <SCORE.INTRA.REPUL>
0

>  <SCORE.INTRA.REPUL.0>
0

>  <SCORE.INTRA.SOLV>
0.87512

>  <SCORE.INTRA.SOLV.lig_0>
-132.657

>  <SCORE.INTRA.VDW>
9.05355

>  <SCORE.INTRA.VDW.0>
-4.68867

>  <SCORE.INTRA.norm>
0.478994

>  <SCORE.RESTR>
6.47787

>  <SCORE.RESTR.CAVITY>
6.47787

>  <SCORE.RESTR.norm>
0.202433

>  <SCORE.SYSTEM>
0

>  <SCORE.SYSTEM.CONST>
0

>  <SCORE.SYSTEM.DIHEDRAL>
0

>  <SCORE.SYSTEM.SOLV>
0

>  <SCORE.SYSTEM.norm>
0

>  <SCORE.heavy>
32

>  <SCORE.norm>
0.00868195

>  <RMSD>
6.118

$$$$
1tob
 OpenBabel11021811413D
libRbt.so/2013.1/901 2013/11/27
 32 34  0  0  0  0  0  0  0  0999 V2000
   -0.4936    1.9142    4.5335 C   0  0  2  0  0  0  0  0  0  0  0  0
    0.6627    0.9360    4.3406 C   0  0  1  0  0  0  0  0  0  0  0  0
    1.8761    1.6774    3.7961 C   0  0  2  0  0  0  0  0  0  0  0  0
    1.4911    2.4039    2.5129 C   0  0  1  0  0  0  0  0  0  0  0  0
    0.3056    3.3283    2.7763 C   0  0  1  0  0  0  0  0  0  0  0  0
   -0.1749    4.0236    1.5177 C   0  0  0  0  0  0  0  0  0  0  0  0
    0.9899    0.3295    5.5827 O   0  0  0  0  0  0  0  0  0  0  0  0
    3.0154    0.7572    3.5894 N   0  3  0  0  0  0  0  0  0  0  0  0
    2.5991    3.1546    2.0345 O   0  0  0  0  0  0  0  0  0  0  0  0
   -0.8068    2.5698    3.2982 O   0  0  0  0  0  0  0  0  0  0  0  0
    0.6512    5.1316    1.1892 O   0  0  0  0  0  0  0  0  0  0  0  0
   -0.6949    4.8212    6.8011 C   0  0  2  0  0  0  0  0  0  0  0  0
   -1.8296    5.7583    7.1918 C   0  0  0  0  0  0  0  0  0  0  0  0
   -2.4201    6.4288    5.9511 C   0  0  1  0  0  0  0  0  0  0  0  0
   -2.9532    5.3639    4.9953 C   0  0  2  0  0  0  0  0  0  0  0  0
   -1.8276    4.4076    4.5979 C   0  0  1  0  0  0  0  0  0  0  0  0
   -1.2214    3.7629    5.8439 C   0  0  1  0  0  0  0  0  0  0  0  0
   -0.1413    4.1444    7.9944 N   0  3  0  0  0  0  0  0  0  0  0  0
   -3.4677    7.4028    6.3535 N   0  3  0  0  0  0  0  0  0  0  0  0
   -2.3337    3.4018    3.7305 O   0  0  0  0  0  0  0  0  0  0  0  0
   -0.1525    2.8772    5.4647 O   0  0  0  0  0  0  0  0  0  0  0  0
   -2.6207    6.2208    2.7774 C   0  0  1  0  0  0  0  0  0  0  0  0
   -3.0576    7.4486    1.9764 C   0  0  1  0  0  0  0  0  0  0  0  0
   -4.4117    7.2012    1.3287 C   0  0  0  0  0  0  0  0  0  0  0  0
   -4.3406    5.9381    0.4861 C   0  0  1  0  0  0  0  0  0  0  0  0
   -3.8774    4.7663    1.3509 C   0  0  1  0  0  0  0  0  0  0  0  0
   -3.7266    3.4794    0.5600 C   0  0  0  0  0  0  0  0  0  0  0  0
   -3.0609    8.6649    2.8231 N   0  3  0  0  0  0  0  0  0  0  0  0
   -3.3108    2.3531    1.4296 N   0  3  0  0  0  0  0  0  0  0  0  0
   -3.5091    5.9847    3.8181 O   0  0  0  0  0  0  0  0  0  0  0  0
   -5.6156    5.6545   -0.0715 O   0  0  0  0  0  0  0  0  0  0  0  0
   -2.5912    5.0596    1.9384 O   0  0  0  0  0  0  0  0  0  0  0  0
  1  2  1  0  0  0  0
  1 10  1  0  0  0  0
  1 21  1  1  0  0  0
  2  3  1  0  0  0  0
  2  7  1  1  0  0  0
  3  4  1  0  0  0  0
  3  8  1  6  0  0  0
  4  5  1  0  0  0  0
  4  9  1  1  0  0  0
  5  6  1  6  0  0  0
  5 10  1  0  0  0  0
  6 11  1  0  0  0  0
 12 13  1  0  0  0  0
 12 17  1  0  0  0  0
 12 18  1  1  0  0  0
 13 14  1  0  0  0  0
 14 15  1  0  0  0  0
 14 19  1  1  0  0  0
 15 16  1  0  0  0  0
 15 30  1  6  0  0  0
 16 17  1  0  0  0  0
 16 20  1  6  0  0  0
 17 21  1  6  0  0  0
 22 23  1  0  0  0  0
 22 30  1  1  0  0  0
 22 32  1  0  0  0  0
 23 24  1  0  0  0  0
 23 28  1  1  0  0  0
 24 25  1  0  0  0  0
 25 26  1  0  0  0  0
 25 31  1  1  0  0  0
 26 27  1  6  0  0  0
 26 32  1  0  0  0  0
 27 29  1  0  0  0  0
M  CHG  5   8   1  18   1  19   1  28   1  29   1
M  END
>  <CHROM.1>
-173.06384162,-64.39779165,94.59249406,59.67206238,-79.40176155,58.46349564
173.43503463,167.48537701,88.36341035,72.45543054,-176.49738219,-150.13034633
-76.87752656,68.03326518,-178.52146974,-71.15845858,-1.44734201,4.28012990
3.50914133,0.14031949,-0.76509278,1.30098390

>  <Name>
1tob

>  <RI>
0

>  <Rbt.Current_Directory>
/home/itssahil/PROJECTS/Mol_Feturizer/New_Systems/rnas/1tob

>  <Rbt.Executable>
rbdock ($Id: //depot/dev/client3/rdock/2013.1/src/exe/rbdock.cxx#4 $)

>  <Rbt.Library>
libRbt.so (2013.1, Build901 2013/11/27)

>  <Rbt.Parameter_File>
/export/apps/rDock/src/rDock_2013.1_src/data/scripts/dock_solv.prm

>  <Rbt.Receptor>
prm/blind_docking_40.prm

>  <SCORE>
4.42486

>  <SCORE.INTER>
-21.6558

>  <SCORE.INTER.CONST>
1

>  <SCORE.INTER.POLAR>
-5.68834

>  <SCORE.INTER.ROT>
6

>  <SCORE.INTER.SOLV>
32.698

>  <SCORE.INTER.VDW>
-13.9754

>  <SCORE.INTER.norm>
-0.676745

>  <SCORE.INTRA>
21.7104

>  <SCORE.INTRA.DIHEDRAL>
-9.63884

>  <SCORE.INTRA.DIHEDRAL.0>
22.9177

>  <SCORE.INTRA.POLAR>
-1.76976

>  <SCORE.INTRA.POLAR.0>
-0.311208

>  <SCORE.INTRA.REPUL>
0.175964

>  <SCORE.INTRA.REPUL.0>
0

>  <SCORE.INTRA.SOLV>
2.83893

>  <SCORE.INTRA.SOLV.lig_0>
-132.657

>  <SCORE.INTRA.VDW>
30.2477

>  <SCORE.INTRA.VDW.0>
-4.68867

>  <SCORE.INTRA.norm>
0.678451

>  <SCORE.RESTR>
4.37028

>  <SCORE.RESTR.CAVITY>
4.37028

>  <SCORE.RESTR.norm>
0.136571

>  <SCORE.SYSTEM>
0

>  <SCORE.SYSTEM.CONST>
0

>  <SCORE.SYSTEM.DIHEDRAL>
0

>  <SCORE.SYSTEM.SOLV>
0

>  <SCORE.SYSTEM.norm>
0

>  <SCORE.heavy>
32

>  <SCORE.norm>
0.138277

>  <RMSD>
6.148

$$$$
1tob
 OpenBabel11021811413D
libRbt.so/2013.1/901 2013/11/27
 32 34  0  0  0  0  0  0  0  0999 V2000
    0.1535    2.2570    3.5764 C   0  0  2  0  0  0  0  0  0  0  0  0
    0.8473    0.9990    3.0594 C   0  0  1  0  0  0  0  0  0  0  0  0
    2.0489    0.6784    3.9379 C   0  0  2  0  0  0  0  0  0  0  0  0
    2.9737    1.8886    3.9914 C   0  0  1  0  0  0  0  0  0  0  0  0
    2.1997    3.1115    4.4758 C   0  0  1  0  0  0  0  0  0  0  0  0
    3.0480    4.3681    4.4773 C   0  0  0  0  0  0  0  0  0  0  0  0
   -0.0626   -0.0916    3.0761 O   0  0  0  0  0  0  0  0  0  0  0  0
    2.7509   -0.5328    3.4609 N   0  3  0  0  0  0  0  0  0  0  0  0
    4.0634    1.6228    4.8643 O   0  0  0  0  0  0  0  0  0  0  0  0
    1.0708    3.3576    3.6096 O   0  0  0  0  0  0  0  0  0  0  0  0
    3.8070    4.4832    3.2821 O   0  0  0  0  0  0  0  0  0  0  0  0
   -0.3478    4.2422    5.8754 C   0  0  2  0  0  0  0  0  0  0  0  0
   -1.2680    5.3347    6.4026 C   0  0  0  0  0  0  0  0  0  0  0  0
   -2.2082    5.8201    5.2990 C   0  0  1  0  0  0  0  0  0  0  0  0
   -3.0519    4.6528    4.7915 C   0  0  2  0  0  0  0  0  0  0  0  0
   -2.1430    3.5411    4.2649 C   0  0  1  0  0  0  0  0  0  0  0  0
   -1.1855    3.0805    5.3634 C   0  0  1  0  0  0  0  0  0  0  0  0
    0.5420    3.7454    6.9477 N   0  3  0  0  0  0  0  0  0  0  0  0
   -3.0412    6.9429    5.8024 N   0  3  0  0  0  0  0  0  0  0  0  0
   -2.9309    2.4452    3.8194 O   0  0  0  0  0  0  0  0  0  0  0  0
   -0.3224    2.0464    4.8570 O   0  0  0  0  0  0  0  0  0  0  0  0
   -3.3515    5.8087    2.7088 C   0  0  1  0  0  0  0  0  0  0  0  0
   -4.4197    6.2997    1.7301 C   0  0  1  0  0  0  0  0  0  0  0  0
   -5.1270    5.1176    1.0847 C   0  0  0  0  0  0  0  0  0  0  0  0
   -4.0953    4.2125    0.4314 C   0  0  1  0  0  0  0  0  0  0  0  0
   -3.0552    3.7845    1.4660 C   0  0  1  0  0  0  0  0  0  0  0  0
   -1.9568    2.9231    0.8695 C   0  0  0  0  0  0  0  0  0  0  0  0
   -5.3713    7.2202    2.3962 N   0  3  0  0  0  0  0  0  0  0  0  0
   -2.0376    1.5254    1.3569 N   0  3  0  0  0  0  0  0  0  0  0  0
   -3.9403    5.0979    3.7461 O   0  0  0  0  0  0  0  0  0  0  0  0
   -4.7323    3.0679   -0.1174 O   0  0  0  0  0  0  0  0  0  0  0  0
   -2.4207    4.9462    2.0433 O   0  0  0  0  0  0  0  0  0  0  0  0
  1  2  1  0  0  0  0
  1 10  1  0  0  0  0
  1 21  1  1  0  0  0
  2  3  1  0  0  0  0
  2  7  1  1  0  0  0
  3  4  1  0  0  0  0
  3  8  1  6  0  0  0
  4  5  1  0  0  0  0
  4  9  1  1  0  0  0
  5  6  1  6  0  0  0
  5 10  1  0  0  0  0
  6 11  1  0  0  0  0
 12 13  1  0  0  0  0
 12 17  1  0  0  0  0
 12 18  1  1  0  0  0
 13 14  1  0  0  0  0
 14 15  1  0  0  0  0
 14 19  1  1  0  0  0
 15 16  1  0  0  0  0
 15 30  1  6  0  0  0
 16 17  1  0  0  0  0
 16 20  1  1  0  0  0
 17 21  1  6  0  0  0
 22 23  1  0  0  0  0
 22 30  1  1  0  0  0
 22 32  1  0  0  0  0
 23 24  1  0  0  0  0
 23 28  1  1  0  0  0
 24 25  1  0  0  0  0
 25 26  1  0  0  0  0
 25 31  1  1  0  0  0
 26 27  1  6  0  0  0
 26 32  1  0  0  0  0
 27 29  1  0  0  0  0
M  CHG  5   8   1  18   1  19   1  28   1  29   1
M  END
>  <CHROM.1>
-170.13054257,19.44341876,-63.68607193,-51.27173650,44.67446114,-176.42565483
-64.81983285,156.03255001,51.18898701,31.52361693,-80.78319092,-175.98707317
-42.90065348,94.66388777,-111.05057734,88.23331564,-1.03522885,3.53487763
3.52700163,0.12601985,0.51885337,-2.35957220

>  <Name>
1tob

>  <RI>
0

>  <Rbt.Current_Directory>
/home/itssahil/PROJECTS/Mol_Feturizer/New_Systems/rnas/1tob

>  <Rbt.Executable>
rbdock ($Id: //depot/dev/client3/rdock/2013.1/src/exe/rbdock.cxx#4 $)

>  <Rbt.Library>
libRbt.so (2013.1, Build901 2013/11/27)

>  <Rbt.Parameter_File>
/export/apps/rDock/src/rDock_2013.1_src/data/scripts/dock_solv.prm

>  <Rbt.Receptor>
prm/blind_docking_40.prm

>  <SCORE>
-2.90687

>  <SCORE.INTER>
-16.9723

>  <SCORE.INTER.CONST>
1

>  <SCORE.INTER.POLAR>
-5.25467

>  <SCORE.INTER.ROT>
6

>  <SCORE.INTER.SOLV>
34.4873

>  <SCORE.INTER.VDW>
-12.8951

>  <SCORE.INTER.norm>
-0.530385

>  <SCORE.INTRA>
6.68293

>  <SCORE.INTRA.DIHEDRAL>
3.05986

>  <SCORE.INTRA.DIHEDRAL.0>
22.9177

>  <SCORE.INTRA.POLAR>
-0.881278

>  <SCORE.INTRA.POLAR.0>
-0.311208

>  <SCORE.INTRA.REPUL>
0.0530031

>  <SCORE.INTRA.REPUL.0>
0

>  <SCORE.INTRA.SOLV>
5.35971

>  <SCORE.INTRA.SOLV.lig_0>
-132.657

>  <SCORE.INTRA.VDW>
5.20447

>  <SCORE.INTRA.VDW.0>
-4.68867

>  <SCORE.INTRA.norm>
0.208842

>  <SCORE.RESTR>
7.38251

>  <SCORE.RESTR.CAVITY>
7.38251

>  <SCORE.RESTR.norm>
0.230703

>  <SCORE.SYSTEM>
0

>  <SCORE.SYSTEM.CONST>
0

>  <SCORE.SYSTEM.DIHEDRAL>
0

>  <SCORE.SYSTEM.SOLV>
0

>  <SCORE.SYSTEM.norm>
0

>  <SCORE.heavy>
32

>  <SCORE.norm>
-0.0908396

>  <RMSD>
6.542

$$$$
1tob
 OpenBabel11021811413D
libRbt.so/2013.1/901 2013/11/27
 32 34  0  0  0  0  0  0  0  0999 V2000
   -6.6345    6.6711    4.2970 C   0  0  2  0  0  0  0  0  0  0  0  0
   -6.9761    7.9614    5.0385 C   0  0  1  0  0  0  0  0  0  0  0  0
   -5.8002    8.9254    4.9583 C   0  0  2  0  0  0  0  0  0  0  0  0
   -4.5488    8.2429    5.4974 C   0  0  1  0  0  0  0  0  0  0  0  0
   -4.2981    6.9439    4.7365 C   0  0  1  0  0  0  0  0  0  0  0  0
   -3.1076    6.1778    5.2789 C   0  0  0  0  0  0  0  0  0  0  0  0
   -8.1256    8.5589    4.4562 O   0  0  0  0  0  0  0  0  0  0  0  0
   -6.0938   10.1860    5.6738 N   0  3  0  0  0  0  0  0  0  0  0  0
   -3.4317    9.1112    5.3629 O   0  0  0  0  0  0  0  0  0  0  0  0
   -5.4491    6.0784    4.8425 O   0  0  0  0  0  0  0  0  0  0  0  0
   -3.0489    6.2458    6.6966 O   0  0  0  0  0  0  0  0  0  0  0  0
   -6.6868    6.2545    0.6512 C   0  0  2  0  0  0  0  0  0  0  0  0
   -6.7768    5.0400   -0.2626 C   0  0  0  0  0  0  0  0  0  0  0  0
   -5.5123    4.1886   -0.1460 C   0  0  1  0  0  0  0  0  0  0  0  0
   -5.3381    3.7210    1.2972 C   0  0  2  0  0  0  0  0  0  0  0  0
   -5.2538    4.9289    2.2316 C   0  0  1  0  0  0  0  0  0  0  0  0
   -6.5071    5.7919    2.0890 C   0  0  1  0  0  0  0  0  0  0  0  0
   -7.9218    7.0647    0.5673 N   0  3  0  0  0  0  0  0  0  0  0  0
   -5.5765    3.0545   -1.1040 N   0  3  0  0  0  0  0  0  0  0  0  0
   -5.1199    4.4893    3.5765 O   0  0  0  0  0  0  0  0  0  0  0  0
   -6.4143    6.9351    2.9581 O   0  0  0  0  0  0  0  0  0  0  0  0
   -3.1179    3.2176    0.5349 C   0  0  1  0  0  0  0  0  0  0  0  0
   -1.7947    2.6461    1.0472 C   0  0  1  0  0  0  0  0  0  0  0  0
   -1.4155    3.2972    2.3688 C   0  0  0  0  0  0  0  0  0  0  0  0
   -1.3807    4.8064    2.1919 C   0  0  1  0  0  0  0  0  0  0  0  0
   -2.7270    5.2948    1.6585 C   0  0  1  0  0  0  0  0  0  0  0  0
   -2.7464    6.7906    1.4012 C   0  0  0  0  0  0  0  0  0  0  0  0
   -1.8564    1.1692    1.1531 N   0  3  0  0  0  0  0  0  0  0  0  0
   -3.0317    7.0933   -0.0218 N   0  3  0  0  0  0  0  0  0  0  0  0
   -4.1450    2.9199    1.4207 O   0  0  0  0  0  0  0  0  0  0  0  0
   -1.0949    5.4340    3.4334 O   0  0  0  0  0  0  0  0  0  0  0  0
   -3.0324    4.6422    0.4070 O   0  0  0  0  0  0  0  0  0  0  0  0
  1  2  1  0  0  0  0
  1 10  1  0  0  0  0
  1 21  1  6  0  0  0
  2  3  1  0  0  0  0
  2  7  1  6  0  0  0
  3  4  1  0  0  0  0
  3  8  1  1  0  0  0
  4  5  1  0  0  0  0
  4  9  1  6  0  0  0
  5  6  1  1  0  0  0
  5 10  1  0  0  0  0
  6 11  1  0  0  0  0
 12 13  1  0  0  0  0
 12 17  1  0  0  0  0
 12 18  1  1  0  0  0
 13 14  1  0  0  0  0
 14 15  1  0  0  0  0
 14 19  1  6  0  0  0
 15 16  1  0  0  0  0
 15 30  1  6  0  0  0
 16 17  1  0  0  0  0
 16 20  1  1  0  0  0
 17 21  1  1  0  0  0
 22 23  1  0  0  0  0
 22 30  1  1  0  0  0
 22 32  1  0  0  0  0
 23 24  1  0  0  0  0
 23 28  1  1  0  0  0
 24 25  1  0  0  0  0
 25 26  1  0  0  0  0
 25 31  1  1  0  0  0
 26 27  1  6  0  0  0
 26 32  1  0  0  0  0
 27 29  1  0  0  0  0
M  CHG  5   8   1  18   1  19   1  28   1  29   1
M  END
>  <CHROM.1>
-161.02915164,58.18360732,-1.44897551,-57.19159902,38.82221986,-109.51222506
64.20179778,-16.49755333,29.32317569,55.16829085,162.19646083,161.55905058
56.25162772,-173.29473837,119.94435123,10.38505874,-4.52830017,5.77037828
2.64943157,1.97969146,-0.43153796,0.89708138

>  <Name>
1tob

>  <RI>
0

>  <Rbt.Current_Directory>
/home/itssahil/PROJECTS/Mol_Feturizer/New_Systems/rnas/1tob

>  <Rbt.Executable>
rbdock ($Id: //depot/dev/client3/rdock/2013.1/src/exe/rbdock.cxx#4 $)

>  <Rbt.Library>
libRbt.so (2013.1, Build901 2013/11/27)

>  <Rbt.Parameter_File>
/export/apps/rDock/src/rDock_2013.1_src/data/scripts/dock_solv.prm

>  <Rbt.Receptor>
prm/blind_docking_100.prm

>  <SCORE>
86.9277

>  <SCORE.INTER>
55.0113

>  <SCORE.INTER.CONST>
1

>  <SCORE.INTER.POLAR>
-7.99784

>  <SCORE.INTER.ROT>
6

>  <SCORE.INTER.SOLV>
47.5157

>  <SCORE.INTER.VDW>
39.8951

>  <SCORE.INTER.norm>
1.7191

>  <SCORE.INTRA>
22.7187

>  <SCORE.INTRA.DIHEDRAL>
9.30162

>  <SCORE.INTRA.DIHEDRAL.0>
22.9177

>  <SCORE.INTRA.POLAR>
-0.0592359

>  <SCORE.INTRA.POLAR.0>
-0.311208

>  <SCORE.INTRA.REPUL>
0

>  <SCORE.INTRA.REPUL.0>
0

>  <SCORE.INTRA.SOLV>
-1.48654

>  <SCORE.INTRA.SOLV.lig_0>
-132.657

>  <SCORE.INTRA.VDW>
19.0126

>  <SCORE.INTRA.VDW.0>
-4.68867

>  <SCORE.INTRA.norm>
0.70996

>  <SCORE.RESTR>
9.19763

>  <SCORE.RESTR.CAVITY>
9.19763

>  <SCORE.RESTR.norm>
0.287426

>  <SCORE.SYSTEM>
0

>  <SCORE.SYSTEM.CONST>
0

>  <SCORE.SYSTEM.DIHEDRAL>
0

>  <SCORE.SYSTEM.SOLV>
0

>  <SCORE.SYSTEM.norm>
0

>  <SCORE.heavy>
32

>  <SCORE.norm>
2.71649

>  <RMSD>
6.699

$$$$
1tob
 OpenBabel11021811413D
libRbt.so/2013.1/901 2013/11/27
 32 34  0  0  0  0  0  0  0  0999 V2000
    3.0209    4.2295    2.6342 C   0  0  2  0  0  0  0  0  0  0  0  0
    3.5986    3.5419    1.3995 C   0  0  1  0  0  0  0  0  0  0  0  0
    4.5586    2.4405    1.8280 C   0  0  2  0  0  0  0  0  0  0  0  0
    5.6306    3.0293    2.7373 C   0  0  1  0  0  0  0  0  0  0  0  0
    4.9756    3.7335    3.9224 C   0  0  1  0  0  0  0  0  0  0  0  0
    5.9897    4.4078    4.8254 C   0  0  0  0  0  0  0  0  0  0  0  0
    2.5465    2.9852    0.6245 O   0  0  0  0  0  0  0  0  0  0  0  0
    5.1441    1.7564    0.6548 N   0  3  0  0  0  0  0  0  0  0  0  0
    6.4911    1.9961    3.1977 O   0  0  0  0  0  0  0  0  0  0  0  0
    4.0728    4.7576    3.4521 O   0  0  0  0  0  0  0  0  0  0  0  0
    6.4445    5.6338    4.2705 O   0  0  0  0  0  0  0  0  0  0  0  0
    0.7458    1.4655    3.3810 C   0  0  2  0  0  0  0  0  0  0  0  0
   -0.4910    0.9067    2.6910 C   0  0  0  0  0  0  0  0  0  0  0  0
   -1.6542    1.8932    2.7978 C   0  0  1  0  0  0  0  0  0  0  0  0
   -1.2675    3.2174    2.1430 C   0  0  2  0  0  0  0  0  0  0  0  0
   -0.0207    3.7903    2.8188 C   0  0  1  0  0  0  0  0  0  0  0  0
    1.1299    2.7878    2.7351 C   0  0  1  0  0  0  0  0  0  0  0  0
    1.8842    0.5296    3.2524 N   0  3  0  0  0  0  0  0  0  0  0  0
   -2.8764    1.3003    2.1956 N   0  3  0  0  0  0  0  0  0  0  0  0
    0.3523    5.0083    2.1886 O   0  0  0  0  0  0  0  0  0  0  0  0
    2.2946    3.3257    3.3869 O   0  0  0  0  0  0  0  0  0  0  0  0
   -2.5141    5.0211    1.1651 C   0  0  1  0  0  0  0  0  0  0  0  0
   -2.6887    6.4581    1.6594 C   0  0  1  0  0  0  0  0  0  0  0  0
   -3.9580    6.5800    2.4890 C   0  0  0  0  0  0  0  0  0  0  0  0
   -5.1403    6.0867    1.6710 C   0  0  1  0  0  0  0  0  0  0  0  0
   -4.8798    4.6571    1.1977 C   0  0  1  0  0  0  0  0  0  0  0  0
   -5.9969    4.1179    0.3227 C   0  0  0  0  0  0  0  0  0  0  0  0
   -1.4921    6.9154    2.4047 N   0  3  0  0  0  0  0  0  0  0  0  0
   -5.4840    3.1548   -0.6808 N   0  3  0  0  0  0  0  0  0  0  0  0
   -2.3562    4.1584    2.2416 O   0  0  0  0  0  0  0  0  0  0  0  0
   -6.3240    6.1295    2.4544 O   0  0  0  0  0  0  0  0  0  0  0  0
   -3.6646    4.6045    0.4193 O   0  0  0  0  0  0  0  0  0  0  0  0
  1  2  1  0  0  0  0
  1 10  1  0  0  0  0
  1 21  1  1  0  0  0
  2  3  1  0  0  0  0
  2  7  1  1  0  0  0
  3  4  1  0  0  0  0
  3  8  1  6  0  0  0
  4  5  1  0  0  0  0
  4  9  1  1  0  0  0
  5  6  1  1  0  0  0
  5 10  1  0  0  0  0
  6 11  1  0  0  0  0
 12 13  1  0  0  0  0
 12 17  1  0  0  0  0
 12 18  1  6  0  0  0
 13 14  1  0  0  0  0
 14 15  1  0  0  0  0
 14 19  1  6  0  0  0
 15 16  1  0  0  0  0
 15 30  1  1  0  0  0
 16 17  1  0  0  0  0
 16 20  1  6  0  0  0
 17 21  1  1  0  0  0
 22 23  1  0  0  0  0
 22 30  1  1  0  0  0
 22 32  1  0  0  0  0
 23 24  1  0  0  0  0
 23 28  1  1  0  0  0
 24 25  1  0  0  0  0
 25 26  1  0  0  0  0
 25 31  1  1  0  0  0
 26 27  1  6  0  0  0
 26 32  1  0  0  0  0
 27 29  1  0  0  0  0
M  CHG  5   8   1  18   1  19   1  28   1  29   1
M  END
>  <CHROM.1>
-63.90172088,79.28562103,163.67077621,69.11396427,77.82264679,71.17781729
77.07720229,155.99577957,-145.00861896,-59.78545303,157.78707123,-132.46924526
27.07542398,-174.24573960,148.89434805,-167.71340962,0.27194931,3.75985953
2.24287542,-0.11770171,-0.20183777,0.21173611

>  <Name>
1tob

>  <RI>
0

>  <Rbt.Current_Directory>
/home/itssahil/PROJECTS/Mol_Feturizer/New_Systems/rnas/1tob

>  <Rbt.Executable>
rbdock ($Id: //depot/dev/client3/rdock/2013.1/src/exe/rbdock.cxx#4 $)

>  <Rbt.Library>
libRbt.so (2013.1, Build901 2013/11/27)

>  <Rbt.Parameter_File>
/export/apps/rDock/src/rDock_2013.1_src/data/scripts/dock_solv.prm

>  <Rbt.Receptor>
prm/blind_docking_20.prm

>  <SCORE>
-23.6718

>  <SCORE.INTER>
-32.5518

>  <SCORE.INTER.CONST>
1

>  <SCORE.INTER.POLAR>
-10.6832

>  <SCORE.INTER.ROT>
6

>  <SCORE.INTER.SOLV>
51.5805

>  <SCORE.INTER.VDW>
-10.8841

>  <SCORE.INTER.norm>
-1.01724

>  <SCORE.INTRA>
1.58934

>  <SCORE.INTRA.DIHEDRAL>
2.25321

>  <SCORE.INTRA.DIHEDRAL.0>
22.9177

>  <SCORE.INTRA.POLAR>
-0.889302

>  <SCORE.INTRA.POLAR.0>
-0.311208

>  <SCORE.INTRA.REPUL>
0

>  <SCORE.INTRA.REPUL.0>
0

>  <SCORE.INTRA.SOLV>
0.843695

>  <SCORE.INTRA.SOLV.lig_0>
-132.657

>  <SCORE.INTRA.VDW>
3.06451

>  <SCORE.INTRA.VDW.0>
-4.68867

>  <SCORE.INTRA.norm>
0.0496668

>  <SCORE.RESTR>
7.29065

>  <SCORE.RESTR.CAVITY>
7.29065

>  <SCORE.RESTR.norm>
0.227833

>  <SCORE.SYSTEM>
0

>  <SCORE.SYSTEM.CONST>
0

>  <SCORE.SYSTEM.DIHEDRAL>
0

>  <SCORE.SYSTEM.SOLV>
0

>  <SCORE.SYSTEM.norm>
0

>  <SCORE.heavy>
32

>  <SCORE.norm>
-0.739745

>  <RMSD>
6.750

$$$$
1tob
 OpenBabel11021811413D
libRbt.so/2013.1/901 2013/11/27
 32 34  0  0  0  0  0  0  0  0999 V2000
   -7.5483    4.4710    0.6976 C   0  0  2  0  0  0  0  0  0  0  0  0
   -7.9773    4.7741   -0.7360 C   0  0  1  0  0  0  0  0  0  0  0  0
   -8.0932    6.2800   -0.9290 C   0  0  2  0  0  0  0  0  0  0  0  0
   -9.0491    6.8513    0.1114 C   0  0  1  0  0  0  0  0  0  0  0  0
   -8.5775    6.4718    1.5124 C   0  0  1  0  0  0  0  0  0  0  0  0
   -9.5313    6.9469    2.5909 C   0  0  0  0  0  0  0  0  0  0  0  0
   -7.0207    4.2472   -1.6442 O   0  0  0  0  0  0  0  0  0  0  0  0
   -8.5151    6.6105   -2.3075 N   0  3  0  0  0  0  0  0  0  0  0  0
   -9.1104    8.2654   -0.0172 O   0  0  0  0  0  0  0  0  0  0  0  0
   -8.4792    5.0359    1.6294 O   0  0  0  0  0  0  0  0  0  0  0  0
   -9.9510    8.2843    2.3601 O   0  0  0  0  0  0  0  0  0  0  0  0
   -4.2813    3.7342    0.5549 C   0  0  2  0  0  0  0  0  0  0  0  0
   -3.2857    2.7892    1.2137 C   0  0  0  0  0  0  0  0  0  0  0  0
   -2.6472    3.4521    2.4345 C   0  0  1  0  0  0  0  0  0  0  0  0
   -3.7311    3.8247    3.4435 C   0  0  2  0  0  0  0  0  0  0  0  0
   -4.7458    4.7684    2.7961 C   0  0  1  0  0  0  0  0  0  0  0  0
   -5.3590    4.1122    1.5594 C   0  0  1  0  0  0  0  0  0  0  0  0
   -4.9268    3.0861   -0.6078 N   0  3  0  0  0  0  0  0  0  0  0  0
   -1.6175    2.5529    3.0170 N   0  3  0  0  0  0  0  0  0  0  0  0
   -5.7680    5.0906    3.7295 O   0  0  0  0  0  0  0  0  0  0  0  0
   -6.3003    5.0111    0.9456 O   0  0  0  0  0  0  0  0  0  0  0  0
   -2.2433    5.4826    4.3388 C   0  0  1  0  0  0  0  0  0  0  0  0
   -1.5460    5.9156    5.6296 C   0  0  1  0  0  0  0  0  0  0  0  0
   -2.5604    6.4789    6.6135 C   0  0  0  0  0  0  0  0  0  0  0  0
   -3.3302    7.6080    5.9479 C   0  0  1  0  0  0  0  0  0  0  0  0
   -3.9767    7.1021    4.6589 C   0  0  1  0  0  0  0  0  0  0  0  0
   -4.7163    8.1943    3.9077 C   0  0  0  0  0  0  0  0  0  0  0  0
   -0.7651    4.8002    6.2146 N   0  3  0  0  0  0  0  0  0  0  0  0
   -5.8326    8.7462    4.7120 N   0  3  0  0  0  0  0  0  0  0  0  0
   -3.1407    4.4554    4.5985 O   0  0  0  0  0  0  0  0  0  0  0  0
   -4.3285    8.1003    6.8298 O   0  0  0  0  0  0  0  0  0  0  0  0
   -2.9673    6.5795    3.7681 O   0  0  0  0  0  0  0  0  0  0  0  0
  1  2  1  0  0  0  0
  1 10  1  0  0  0  0
  1 21  1  1  0  0  0
  2  3  1  0  0  0  0
  2  7  1  6  0  0  0
  3  4  1  0  0  0  0
  3  8  1  6  0  0  0
  4  5  1  0  0  0  0
  4  9  1  1  0  0  0
  5  6  1  1  0  0  0
  5 10  1  0  0  0  0
  6 11  1  0  0  0  0
 12 13  1  0  0  0  0
 12 17  1  0  0  0  0
 12 18  1  6  0  0  0
 13 14  1  0  0  0  0
 14 15  1  0  0  0  0
 14 19  1  1  0  0  0
 15 16  1  0  0  0  0
 15 30  1  1  0  0  0
 16 17  1  0  0  0  0
 16 20  1  1  0  0  0
 17 21  1  6  0  0  0
 22 23  1  0  0  0  0
 22 30  1  1  0  0  0
 22 32  1  0  0  0  0
 23 24  1  0  0  0  0
 23 28  1  1  0  0  0
 24 25  1  0  0  0  0
 25 26  1  0  0  0  0
 25 31  1  1  0  0  0
 26 27  1  6  0  0  0
 26 32  1  0  0  0  0
 27 29  1  0  0  0  0
M  CHG  5   8   1  18   1  19   1  28   1  29   1
M  END
>  <CHROM.1>
-131.39950007,174.95069626,-58.75990031,74.70527841,-44.53480092,-168.67573205
154.52243942,-168.12840768,49.01884454,45.12920135,109.27039509,-171.67487620
-168.36948736,91.80644649,-61.97511485,-163.65379986,-5.40236164,5.65446103
2.48067982,-2.66104989,-0.57148458,0.86959968

>  <Name>
1tob

>  <RI>
0

>  <Rbt.Current_Directory>
/home/itssahil/PROJECTS/Mol_Feturizer/New_Systems/rnas/1tob

>  <Rbt.Executable>
rbdock ($Id: //depot/dev/client3/rdock/2013.1/src/exe/rbdock.cxx#4 $)

>  <Rbt.Library>
libRbt.so (2013.1, Build901 2013/11/27)

>  <Rbt.Parameter_File>
/export/apps/rDock/src/rDock_2013.1_src/data/scripts/dock_solv.prm

>  <Rbt.Receptor>
prm/blind_docking_80.prm

>  <SCORE>
8.18325

>  <SCORE.INTER>
-5.2934

>  <SCORE.INTER.CONST>
1

>  <SCORE.INTER.POLAR>
-4.60145

>  <SCORE.INTER.ROT>
6

>  <SCORE.INTER.SOLV>
32.8735

>  <SCORE.INTER.VDW>
-6.74861

>  <SCORE.INTER.norm>
-0.165419

>  <SCORE.INTRA>
3.19313

>  <SCORE.INTRA.DIHEDRAL>
1.30108

>  <SCORE.INTRA.DIHEDRAL.0>
22.9177

>  <SCORE.INTRA.POLAR>
-0.883863

>  <SCORE.INTRA.POLAR.0>
-0.311208

>  <SCORE.INTRA.REPUL>
0

>  <SCORE.INTRA.REPUL.0>
0

>  <SCORE.INTRA.SOLV>
2.49147

>  <SCORE.INTRA.SOLV.lig_0>
-132.657

>  <SCORE.INTRA.VDW>
4.30199

>  <SCORE.INTRA.VDW.0>
-4.68867

>  <SCORE.INTRA.norm>
0.0997854

>  <SCORE.RESTR>
10.2835

>  <SCORE.RESTR.CAVITY>
10.2835

>  <SCORE.RESTR.norm>
0.32136

>  <SCORE.SYSTEM>
0

>  <SCORE.SYSTEM.CONST>
0

>  <SCORE.SYSTEM.DIHEDRAL>
0

>  <SCORE.SYSTEM.SOLV>
0

>  <SCORE.SYSTEM.norm>
0

>  <SCORE.heavy>
32

>  <SCORE.norm>
0.255727

>  <RMSD>
6.788

$$$$
1tob
 OpenBabel11021811413D
libRbt.so/2013.1/901 2013/11/27
 32 34  0  0  0  0  0  0  0  0999 V2000
    1.6821    1.4873    3.2703 C   0  0  2  0  0  0  0  0  0  0  0  0
    2.5027    0.2058    3.1461 C   0  0  1  0  0  0  0  0  0  0  0  0
    3.9585    0.4942    3.4863 C   0  0  2  0  0  0  0  0  0  0  0  0
    4.4730    1.6187    2.5957 C   0  0  1  0  0  0  0  0  0  0  0  0
    3.5794    2.8471    2.7433 C   0  0  1  0  0  0  0  0  0  0  0  0
    3.9951    3.9773    1.8223 C   0  0  0  0  0  0  0  0  0  0  0  0
    1.9900   -0.7794    4.0317 O   0  0  0  0  0  0  0  0  0  0  0  0
    4.7858   -0.7261    3.3690 N   0  3  0  0  0  0  0  0  0  0  0  0
    5.8102    1.9415    2.9530 O   0  0  0  0  0  0  0  0  0  0  0  0
    2.2143    2.5080    2.4165 O   0  0  0  0  0  0  0  0  0  0  0  0
    4.9880    4.7971    2.4224 O   0  0  0  0  0  0  0  0  0  0  0  0
    1.0112    3.8853    5.8439 C   0  0  2  0  0  0  0  0  0  0  0  0
   -0.2062    4.7015    6.2564 C   0  0  0  0  0  0  0  0  0  0  0  0
   -0.9400    5.2275    5.0225 C   0  0  1  0  0  0  0  0  0  0  0  0
   -1.3906    4.0556    4.1534 C   0  0  2  0  0  0  0  0  0  0  0  0
   -0.1803    3.2189    3.7357 C   0  0  1  0  0  0  0  0  0  0  0  0
    0.5662    2.7207    4.9727 C   0  0  1  0  0  0  0  0  0  0  0  0
    1.7066    3.3461    7.0331 N   0  3  0  0  0  0  0  0  0  0  0  0
   -2.0748    6.0913    5.4396 N   0  3  0  0  0  0  0  0  0  0  0  0
   -0.6065    2.1137    2.9503 O   0  0  0  0  0  0  0  0  0  0  0  0
    1.7127    1.9482    4.5731 O   0  0  0  0  0  0  0  0  0  0  0  0
   -3.4130    4.8873    3.1625 C   0  0  1  0  0  0  0  0  0  0  0  0
   -4.2556    4.3765    1.9924 C   0  0  1  0  0  0  0  0  0  0  0  0
   -3.8161    5.0410    0.6964 C   0  0  0  0  0  0  0  0  0  0  0  0
   -3.8822    6.5508    0.8602 C   0  0  1  0  0  0  0  0  0  0  0  0
   -3.0354    6.9775    2.0587 C   0  0  1  0  0  0  0  0  0  0  0  0
   -3.1012    8.4715    2.3190 C   0  0  0  0  0  0  0  0  0  0  0  0
   -4.2050    2.8981    1.9034 N   0  3  0  0  0  0  0  0  0  0  0  0
   -2.6225    8.8069    3.6814 N   0  3  0  0  0  0  0  0  0  0  0  0
   -2.0806    4.5400    2.9831 O   0  0  0  0  0  0  0  0  0  0  0  0
   -3.4100    7.1877   -0.3181 O   0  0  0  0  0  0  0  0  0  0  0  0
   -3.4977    6.3147    3.2555 O   0  0  0  0  0  0  0  0  0  0  0  0
  1  2  1  0  0  0  0
  1 10  1  0  0  0  0
  1 21  1  1  0  0  0
  2  3  1  0  0  0  0
  2  7  1  1  0  0  0
  3  4  1  0  0  0  0
  3  8  1  6  0  0  0
  4  5  1  0  0  0  0
  4  9  1  1  0  0  0
  5  6  1  6  0  0  0
  5 10  1  0  0  0  0
  6 11  1  0  0  0  0
 12 13  1  0  0  0  0
 12 17  1  0  0  0  0
 12 18  1  1  0  0  0
 13 14  1  0  0  0  0
 14 15  1  0  0  0  0
 14 19  1  1  0  0  0
 15 16  1  0  0  0  0
 15 30  1  6  0  0  0
 16 17  1  0  0  0  0
 16 20  1  1  0  0  0
 17 21  1  6  0  0  0
 22 23  1  0  0  0  0
 22 30  1  6  0  0  0
 22 32  1  0  0  0  0
 23 24  1  0  0  0  0
 23 28  1  6  0  0  0
 24 25  1  0  0  0  0
 25 26  1  0  0  0  0
 25 31  1  6  0  0  0
 26 27  1  1  0  0  0
 26 32  1  0  0  0  0
 27 29  1  0  0  0  0
M  CHG  5   8   1  18   1  19   1  28   1  29   1
M  END
>  <CHROM.1>
-152.65327862,-59.19926226,-53.29733652,-62.42985318,-87.13823829,150.90448306
47.44261241,-62.54484131,-80.88298834,-61.16783609,-140.58466859,-137.35995653
172.59024353,32.24722908,163.11747312,-50.26081262,0.09976399,3.79658066
3.28496460,0.41336840,0.47439633,-2.55681052

>  <Name>
1tob

>  <RI>
0

>  <Rbt.Current_Directory>
/home/itssahil/PROJECTS/Mol_Feturizer/New_Systems/rnas/1tob

>  <Rbt.Executable>
rbdock ($Id: //depot/dev/client3/rdock/2013.1/src/exe/rbdock.cxx#4 $)

>  <Rbt.Library>
libRbt.so (2013.1, Build901 2013/11/27)

>  <Rbt.Parameter_File>
/export/apps/rDock/src/rDock_2013.1_src/data/scripts/dock_solv.prm

>  <Rbt.Receptor>
prm/blind_docking_40.prm

>  <SCORE>
-9.10274

>  <SCORE.INTER>
-30.874

>  <SCORE.INTER.CONST>
1

>  <SCORE.INTER.POLAR>
-5.06809

>  <SCORE.INTER.ROT>
6

>  <SCORE.INTER.SOLV>
28.6673

>  <SCORE.INTER.VDW>
-20.8448

>  <SCORE.INTER.norm>
-0.964814

>  <SCORE.INTRA>
8.81789

>  <SCORE.INTRA.DIHEDRAL>
3.93248

>  <SCORE.INTRA.DIHEDRAL.0>
22.9177

>  <SCORE.INTRA.POLAR>
-0.930434

>  <SCORE.INTRA.POLAR.0>
-0.311208

>  <SCORE.INTRA.REPUL>
0

>  <SCORE.INTRA.REPUL.0>
0

>  <SCORE.INTRA.SOLV>
1.03934

>  <SCORE.INTRA.SOLV.lig_0>
-132.657

>  <SCORE.INTRA.VDW>
9.49546

>  <SCORE.INTRA.VDW.0>
-4.68867

>  <SCORE.INTRA.norm>
0.275559

>  <SCORE.RESTR>
12.9534

>  <SCORE.RESTR.CAVITY>
12.9534

>  <SCORE.RESTR.norm>
0.404794

>  <SCORE.SYSTEM>
0

>  <SCORE.SYSTEM.CONST>
0

>  <SCORE.SYSTEM.DIHEDRAL>
0

>  <SCORE.SYSTEM.SOLV>
0

>  <SCORE.SYSTEM.norm>
0

>  <SCORE.heavy>
32

>  <SCORE.norm>
-0.284461

>  <RMSD>
6.868

$$$$
1tob
 OpenBabel11021811413D
libRbt.so/2013.1/901 2013/11/27
 32 34  0  0  0  0  0  0  0  0999 V2000
   -5.3488    6.4735    1.3568 C   0  0  2  0  0  0  0  0  0  0  0  0
   -5.5290    5.2799    0.4220 C   0  0  1  0  0  0  0  0  0  0  0  0
   -4.4232    4.2630    0.6698 C   0  0  2  0  0  0  0  0  0  0  0  0
   -3.0676    4.9416    0.5136 C   0  0  1  0  0  0  0  0  0  0  0  0
   -2.9801    6.1459    1.4471 C   0  0  1  0  0  0  0  0  0  0  0  0
   -1.6813    6.9105    1.2825 C   0  0  0  0  0  0  0  0  0  0  0  0
   -6.7943    4.6771    0.6527 O   0  0  0  0  0  0  0  0  0  0  0  0
   -4.5624    3.0942   -0.2257 N   0  3  0  0  0  0  0  0  0  0  0  0
   -2.0299    4.0169    0.8105 O   0  0  0  0  0  0  0  0  0  0  0  0
   -4.0575    7.0664    1.1695 O   0  0  0  0  0  0  0  0  0  0  0  0
   -0.5631    6.1228    1.6661 O   0  0  0  0  0  0  0  0  0  0  0  0
   -5.6646    7.3591    4.7103 C   0  0  2  0  0  0  0  0  0  0  0  0
   -4.8827    8.2001    5.7102 C   0  0  0  0  0  0  0  0  0  0  0  0
   -3.7517    7.3790    6.3300 C   0  0  1  0  0  0  0  0  0  0  0  0
   -2.8070    6.8939    5.2327 C   0  0  2  0  0  0  0  0  0  0  0  0
   -3.5776    6.0531    4.2137 C   0  0  1  0  0  0  0  0  0  0  0  0
   -4.7250    6.8692    3.6193 C   0  0  1  0  0  0  0  0  0  0  0  0
   -6.7399    8.1582    4.0829 N   0  3  0  0  0  0  0  0  0  0  0  0
   -3.0511    8.1839    7.3642 N   0  3  0  0  0  0  0  0  0  0  0  0
   -2.7009    5.6268    3.1794 O   0  0  0  0  0  0  0  0  0  0  0  0
   -5.4559    6.0676    2.6738 O   0  0  0  0  0  0  0  0  0  0  0  0
   -2.1030    4.8936    6.3582 C   0  0  1  0  0  0  0  0  0  0  0  0
   -0.9851    4.3639    7.2581 C   0  0  1  0  0  0  0  0  0  0  0  0
    0.2697    4.0987    6.4398 C   0  0  0  0  0  0  0  0  0  0  0  0
   -0.0680    3.1558    5.2964 C   0  0  1  0  0  0  0  0  0  0  0  0
   -1.2041    3.7443    4.4606 C   0  0  1  0  0  0  0  0  0  0  0  0
   -1.6354    2.8264    3.3312 C   0  0  0  0  0  0  0  0  0  0  0  0
   -0.7264    5.2876    8.3879 N   0  3  0  0  0  0  0  0  0  0  0  0
   -1.0808    1.4618    3.4985 N   0  3  0  0  0  0  0  0  0  0  0  0
   -1.7375    6.1137    5.8053 O   0  0  0  0  0  0  0  0  0  0  0  0
    1.0772    2.9514    4.4819 O   0  0  0  0  0  0  0  0  0  0  0  0
   -2.3636    3.9751    5.2897 O   0  0  0  0  0  0  0  0  0  0  0  0
  1  2  1  0  0  0  0
  1 10  1  0  0  0  0
  1 21  1  1  0  0  0
  2  3  1  0  0  0  0
  2  7  1  1  0  0  0
  3  4  1  0  0  0  0
  3  8  1  6  0  0  0
  4  5  1  0  0  0  0
  4  9  1  1  0  0  0
  5  6  1  6  0  0  0
  5 10  1  0  0  0  0
  6 11  1  0  0  0  0
 12 13  1  0  0  0  0
 12 17  1  0  0  0  0
 12 18  1  6  0  0  0
 13 14  1  0  0  0  0
 14 15  1  0  0  0  0
 14 19  1  1  0  0  0
 15 16  1  0  0  0  0
 15 30  1  1  0  0  0
 16 17  1  0  0  0  0
 16 20  1  6  0  0  0
 17 21  1  6  0  0  0
 22 23  1  0  0  0  0
 22 30  1  6  0  0  0
 22 32  1  0  0  0  0
 23 24  1  0  0  0  0
 23 28  1  1  0  0  0
 24 25  1  0  0  0  0
 25 26  1  0  0  0  0
 25 31  1  6  0  0  0
 26 27  1  6  0  0  0
 26 32  1  0  0  0  0
 27 29  1  0  0  0  0
M  CHG  5   8   1  18   1  19   1  28   1  29   1
M  END
>  <CHROM.1>
152.13190828,60.76931951,61.46950207,54.00625229,-64.81579108,49.48254681
-168.96343486,-19.67107911,67.62733641,16.31461813,125.39661166,-164.09465973
-35.40157681,65.43399570,13.34450112,62.14155871,-2.94650855,5.36631333,3.65408224
2.48283962,0.66983429,-2.05121895

>  <Name>
1tob

>  <RI>
0

>  <Rbt.Current_Directory>
/home/itssahil/PROJECTS/Mol_Feturizer/New_Systems/rnas/1tob

>  <Rbt.Executable>
rbdock ($Id: //depot/dev/client3/rdock/2013.1/src/exe/rbdock.cxx#4 $)

>  <Rbt.Library>
libRbt.so (2013.1, Build901 2013/11/27)

>  <Rbt.Parameter_File>
/export/apps/rDock/src/rDock_2013.1_src/data/scripts/dock_solv.prm

>  <Rbt.Receptor>
prm/blind_docking_80.prm

>  <SCORE>
104.636

>  <SCORE.INTER>
70.2362

>  <SCORE.INTER.CONST>
1

>  <SCORE.INTER.POLAR>
-6.71796

>  <SCORE.INTER.ROT>
6

>  <SCORE.INTER.SOLV>
47.2296

>  <SCORE.INTER.VDW>
45.8742

>  <SCORE.INTER.norm>
2.19488

>  <SCORE.INTRA>
29.7183

>  <SCORE.INTRA.DIHEDRAL>
4.70808

>  <SCORE.INTRA.DIHEDRAL.0>
22.9177

>  <SCORE.INTRA.POLAR>
-0.704432

>  <SCORE.INTRA.POLAR.0>
-0.311208

>  <SCORE.INTRA.REPUL>
0.236002

>  <SCORE.INTRA.REPUL.0>
0

>  <SCORE.INTRA.SOLV>
2.37536

>  <SCORE.INTRA.SOLV.lig_0>
-132.657

>  <SCORE.INTRA.VDW>
27.3916

>  <SCORE.INTRA.VDW.0>
-4.68867

>  <SCORE.INTRA.norm>
0.928697

>  <SCORE.RESTR>
4.6817

>  <SCORE.RESTR.CAVITY>
4.6817

>  <SCORE.RESTR.norm>
0.146303

>  <SCORE.SYSTEM>
0

>  <SCORE.SYSTEM.CONST>
0

>  <SCORE.SYSTEM.DIHEDRAL>
0

>  <SCORE.SYSTEM.SOLV>
0

>  <SCORE.SYSTEM.norm>
0

>  <SCORE.heavy>
32

>  <SCORE.norm>
3.26988

>  <RMSD>
7.122

$$$$
1tob
 OpenBabel11021811413D
libRbt.so/2013.1/901 2013/11/27
 32 34  0  0  0  0  0  0  0  0999 V2000
   -5.3029    7.5105    3.8980 C   0  0  2  0  0  0  0  0  0  0  0  0
   -5.4885    8.5623    4.9891 C   0  0  1  0  0  0  0  0  0  0  0  0
   -6.3850    9.6809    4.4758 C   0  0  2  0  0  0  0  0  0  0  0  0
   -5.7954   10.2529    3.1922 C   0  0  1  0  0  0  0  0  0  0  0  0
   -5.6012    9.1375    2.1688 C   0  0  1  0  0  0  0  0  0  0  0  0
   -4.9447    9.6312    0.8945 C   0  0  0  0  0  0  0  0  0  0  0  0
   -6.0771    7.9650    6.1356 O   0  0  0  0  0  0  0  0  0  0  0  0
   -6.5809   10.7234    5.5064 N   0  3  0  0  0  0  0  0  0  0  0  0
   -6.6611   11.2511    2.6685 O   0  0  0  0  0  0  0  0  0  0  0  0
   -4.7521    8.1059    2.7165 O   0  0  0  0  0  0  0  0  0  0  0  0
   -4.6726    8.5598    0.0022 O   0  0  0  0  0  0  0  0  0  0  0  0
   -6.6267    6.2446    1.2575 C   0  0  2  0  0  0  0  0  0  0  0  0
   -6.5382    5.0327    0.3401 C   0  0  0  0  0  0  0  0  0  0  0  0
   -5.1860    4.3378    0.5015 C   0  0  1  0  0  0  0  0  0  0  0  0
   -5.0088    3.8870    1.9497 C   0  0  2  0  0  0  0  0  0  0  0  0
   -5.1028    5.0916    2.8874 C   0  0  1  0  0  0  0  0  0  0  0  0
   -6.4443    5.7995    2.7004 C   0  0  1  0  0  0  0  0  0  0  0  0
   -7.9458    6.9019    1.1299 N   0  3  0  0  0  0  0  0  0  0  0  0
   -5.0800    3.2091   -0.4591 N   0  3  0  0  0  0  0  0  0  0  0  0
   -4.9654    4.6643    4.2360 O   0  0  0  0  0  0  0  0  0  0  0  0
   -6.5199    6.9411    3.5733 O   0  0  0  0  0  0  0  0  0  0  0  0
   -2.6849    3.7463    1.3635 C   0  0  1  0  0  0  0  0  0  0  0  0
   -1.4005    2.9643    1.6438 C   0  0  1  0  0  0  0  0  0  0  0  0
   -0.9936    3.1233    3.1010 C   0  0  0  0  0  0  0  0  0  0  0  0
   -0.8704    4.6026    3.4281 C   0  0  1  0  0  0  0  0  0  0  0  0
   -2.1825    5.3145    3.1009 C   0  0  1  0  0  0  0  0  0  0  0  0
   -2.1137    6.8105    3.3483 C   0  0  0  0  0  0  0  0  0  0  0  0
   -1.5481    1.5402    1.2607 N   0  3  0  0  0  0  0  0  0  0  0  0
   -2.3938    7.1400    4.7663 N   0  3  0  0  0  0  0  0  0  0  0  0
   -3.7336    3.2336    2.1154 O   0  0  0  0  0  0  0  0  0  0  0  0
   -0.5576    4.7710    4.8031 O   0  0  0  0  0  0  0  0  0  0  0  0
   -2.5164    5.1268    1.7085 O   0  0  0  0  0  0  0  0  0  0  0  0
  1  2  1  0  0  0  0
  1 10  1  0  0  0  0
  1 21  1  6  0  0  0
  2  3  1  0  0  0  0
  2  7  1  1  0  0  0
  3  4  1  0  0  0  0
  3  8  1  1  0  0  0
  4  5  1  0  0  0  0
  4  9  1  6  0  0  0
  5  6  1  6  0  0  0
  5 10  1  0  0  0  0
  6 11  1  0  0  0  0
 12 13  1  0  0  0  0
 12 17  1  0  0  0  0
 12 18  1  1  0  0  0
 13 14  1  0  0  0  0
 14 15  1  0  0  0  0
 14 19  1  6  0  0  0
 15 16  1  0  0  0  0
 15 30  1  6  0  0  0
 16 17  1  0  0  0  0
 16 20  1  1  0  0  0
 17 21  1  1  0  0  0
 22 23  1  0  0  0  0
 22 30  1  1  0  0  0
 22 32  1  0  0  0  0
 23 24  1  0  0  0  0
 23 28  1  1  0  0  0
 24 25  1  0  0  0  0
 25 26  1  0  0  0  0
 25 31  1  1  0  0  0
 26 27  1  6  0  0  0
 26 32  1  0  0  0  0
 27 29  1  0  0  0  0
M  CHG  5   8   1  18   1  19   1  28   1  29   1
M  END
>  <CHROM.1>
-171.17550086,61.26140488,-53.47794242,71.98862133,175.13918614,63.81345826
-63.87939399,-123.68053121,35.56552658,64.19474501,-94.39374975,179.74287594
56.78205273,72.03036326,-84.63868806,-38.86442740,-4.46465645,6.32324555
2.69099139,-2.28429235,0.63009003,-2.43359639

>  <Name>
1tob

>  <RI>
0

>  <Rbt.Current_Directory>
/home/itssahil/PROJECTS/Mol_Feturizer/New_Systems/rnas/1tob

>  <Rbt.Executable>
rbdock ($Id: //depot/dev/client3/rdock/2013.1/src/exe/rbdock.cxx#4 $)

>  <Rbt.Library>
libRbt.so (2013.1, Build901 2013/11/27)

>  <Rbt.Parameter_File>
/export/apps/rDock/src/rDock_2013.1_src/data/scripts/dock_solv.prm

>  <Rbt.Receptor>
prm/blind_docking_60.prm

>  <SCORE>
-17.3005

>  <SCORE.INTER>
-24.0242

>  <SCORE.INTER.CONST>
1

>  <SCORE.INTER.POLAR>
-7.43942

>  <SCORE.INTER.ROT>
6

>  <SCORE.INTER.SOLV>
43.2783

>  <SCORE.INTER.VDW>
-13.2441

>  <SCORE.INTER.norm>
-0.750756

>  <SCORE.INTRA>
1.86079

>  <SCORE.INTRA.DIHEDRAL>
-7.28921

>  <SCORE.INTRA.DIHEDRAL.0>
22.9177

>  <SCORE.INTRA.POLAR>
0.289167

>  <SCORE.INTRA.POLAR.0>
-0.311208

>  <SCORE.INTRA.REPUL>
0.000305611

>  <SCORE.INTRA.REPUL.0>
0

>  <SCORE.INTRA.SOLV>
2.58506

>  <SCORE.INTRA.SOLV.lig_0>
-132.657

>  <SCORE.INTRA.VDW>
3.22817

>  <SCORE.INTRA.VDW.0>
-4.68867

>  <SCORE.INTRA.norm>
0.0581498

>  <SCORE.RESTR>
4.86284

>  <SCORE.RESTR.CAVITY>
4.86284

>  <SCORE.RESTR.norm>
0.151964

>  <SCORE.SYSTEM>
0

>  <SCORE.SYSTEM.CONST>
0

>  <SCORE.SYSTEM.DIHEDRAL>
0

>  <SCORE.SYSTEM.SOLV>
0

>  <SCORE.SYSTEM.norm>
0

>  <SCORE.heavy>
32

>  <SCORE.norm>
-0.540642

>  <RMSD>
7.368

$$$$
1tob
 OpenBabel11021811413D
libRbt.so/2013.1/901 2013/11/27
 32 34  0  0  0  0  0  0  0  0999 V2000
    2.7871    4.1088    3.7491 C   0  0  2  0  0  0  0  0  0  0  0  0
    3.0974    3.7932    2.2879 C   0  0  1  0  0  0  0  0  0  0  0  0
    4.2491    2.8003    2.2111 C   0  0  2  0  0  0  0  0  0  0  0  0
    5.4491    3.3580    2.9671 C   0  0  1  0  0  0  0  0  0  0  0  0
    5.0500    3.6870    4.4030 C   0  0  1  0  0  0  0  0  0  0  0  0
    6.1835    4.3190    5.1867 C   0  0  0  0  0  0  0  0  0  0  0  0
    1.9476    3.2422    1.6618 O   0  0  0  0  0  0  0  0  0  0  0  0
    4.5824    2.4769    0.8069 N   0  3  0  0  0  0  0  0  0  0  0  0
    6.5062    2.4080    2.9593 O   0  0  0  0  0  0  0  0  0  0  0  0
    3.9508    4.6233    4.4088 O   0  0  0  0  0  0  0  0  0  0  0  0
    5.7179    4.8967    6.3981 O   0  0  0  0  0  0  0  0  0  0  0  0
    2.0138    4.1005    6.5130 C   0  0  2  0  0  0  0  0  0  0  0  0
    0.9922    4.3233    7.6197 C   0  0  0  0  0  0  0  0  0  0  0  0
   -0.2888    4.9331    7.0496 C   0  0  1  0  0  0  0  0  0  0  0  0
   -0.8810    3.9967    5.9988 C   0  0  2  0  0  0  0  0  0  0  0  0
    0.1355    3.7548    4.8819 C   0  0  1  0  0  0  0  0  0  0  0  0
    1.4244    3.1730    5.4615 C   0  0  1  0  0  0  0  0  0  0  0  0
    3.2432    3.4800    7.0534 N   0  3  0  0  0  0  0  0  0  0  0  0
   -1.2436    5.2236    8.1506 N   0  3  0  0  0  0  0  0  0  0  0  0
   -0.4090    2.8609    3.9203 O   0  0  0  0  0  0  0  0  0  0  0  0
    2.3823    2.9631    4.4083 O   0  0  0  0  0  0  0  0  0  0  0  0
   -1.9149    5.5486    4.4867 C   0  0  1  0  0  0  0  0  0  0  0  0
   -3.0933    6.5237    4.5080 C   0  0  1  0  0  0  0  0  0  0  0  0
   -4.3824    5.8011    4.1470 C   0  0  0  0  0  0  0  0  0  0  0  0
   -4.2096    5.1091    2.8047 C   0  0  1  0  0  0  0  0  0  0  0  0
   -3.0034    4.1723    2.8585 C   0  0  1  0  0  0  0  0  0  0  0  0
   -2.7341    3.4886    1.5303 C   0  0  0  0  0  0  0  0  0  0  0  0
   -3.1912    7.2143    5.8157 N   0  3  0  0  0  0  0  0  0  0  0  0
   -3.5600    2.2680    1.3704 N   0  3  0  0  0  0  0  0  0  0  0  0
   -2.0884    4.5639    5.4502 O   0  0  0  0  0  0  0  0  0  0  0  0
   -5.3810    4.3728    2.4842 O   0  0  0  0  0  0  0  0  0  0  0  0
   -1.8135    4.9130    3.2065 O   0  0  0  0  0  0  0  0  0  0  0  0
  1  2  1  0  0  0  0
  1 10  1  0  0  0  0
  1 21  1  1  0  0  0
  2  3  1  0  0  0  0
  2  7  1  1  0  0  0
  3  4  1  0  0  0  0
  3  8  1  6  0  0  0
  4  5  1  0  0  0  0
  4  9  1  1  0  0  0
  5  6  1  1  0  0  0
  5 10  1  0  0  0  0
  6 11  1  0  0  0  0
 12 13  1  0  0  0  0
 12 17  1  0  0  0  0
 12 18  1  1  0  0  0
 13 14  1  0  0  0  0
 14 15  1  0  0  0  0
 14 19  1  1  0  0  0
 15 16  1  0  0  0  0
 15 30  1  6  0  0  0
 16 17  1  0  0  0  0
 16 20  1  6  0  0  0
 17 21  1  6  0  0  0
 22 23  1  0  0  0  0
 22 30  1  1  0  0  0
 22 32  1  0  0  0  0
 23 24  1  0  0  0  0
 23 28  1  1  0  0  0
 24 25  1  0  0  0  0
 25 26  1  0  0  0  0
 25 31  1  1  0  0  0
 26 27  1  6  0  0  0
 26 32  1  0  0  0  0
 27 29  1  0  0  0  0
M  CHG  5   8   1  18   1  19   1  28   1  29   1
M  END
>  <CHROM.1>
-147.83968389,128.31206833,-114.33995479,-53.37189365,166.37975875,-73.58732719
9.04775856,-59.36777617,79.26243198,-60.26345712,-59.59588243,-151.13281153
146.48095318,163.07184810,-84.65361324,-155.77151034,0.67430610,4.11844326
4.26035137,0.04011997,0.16211377,-1.91830933

>  <Name>
1tob

>  <RI>
0

>  <Rbt.Current_Directory>
/home/itssahil/PROJECTS/Mol_Feturizer/New_Systems/rnas/1tob

>  <Rbt.Executable>
rbdock ($Id: //depot/dev/client3/rdock/2013.1/src/exe/rbdock.cxx#4 $)

>  <Rbt.Library>
libRbt.so (2013.1, Build901 2013/11/27)

>  <Rbt.Parameter_File>
/export/apps/rDock/src/rDock_2013.1_src/data/scripts/dock_solv.prm

>  <Rbt.Receptor>
prm/blind_docking_40.prm

>  <SCORE>
-31.476

>  <SCORE.INTER>
-51.4288

>  <SCORE.INTER.CONST>
1

>  <SCORE.INTER.POLAR>
-9.53698

>  <SCORE.INTER.ROT>
6

>  <SCORE.INTER.SOLV>
48.2152

>  <SCORE.INTER.VDW>
-26.1677

>  <SCORE.INTER.norm>
-1.60715

>  <SCORE.INTRA>
7.15568

>  <SCORE.INTRA.DIHEDRAL>
8.30984

>  <SCORE.INTRA.DIHEDRAL.0>
22.9177

>  <SCORE.INTRA.POLAR>
-0.593383

>  <SCORE.INTRA.POLAR.0>
-0.311208

>  <SCORE.INTRA.REPUL>
0.0289664

>  <SCORE.INTRA.REPUL.0>
0

>  <SCORE.INTRA.SOLV>
2.79396

>  <SCORE.INTRA.SOLV.lig_0>
-132.657

>  <SCORE.INTRA.VDW>
3.47645

>  <SCORE.INTRA.VDW.0>
-4.68867

>  <SCORE.INTRA.norm>
0.223615

>  <SCORE.RESTR>
12.7971

>  <SCORE.RESTR.CAVITY>
12.7971

>  <SCORE.RESTR.norm>
0.399911

>  <SCORE.SYSTEM>
0

>  <SCORE.SYSTEM.CONST>
0

>  <SCORE.SYSTEM.DIHEDRAL>
0

>  <SCORE.SYSTEM.SOLV>
0

>  <SCORE.SYSTEM.norm>
0

>  <SCORE.heavy>
32

>  <SCORE.norm>
-0.983624

>  <RMSD>
7.403

$$$$
1tob
 OpenBabel11021811413D
libRbt.so/2013.1/901 2013/11/27
 32 34  0  0  0  0  0  0  0  0999 V2000
    1.9994    0.6636    3.5563 C   0  0  2  0  0  0  0  0  0  0  0  0
    3.1672    0.6176    4.5388 C   0  0  1  0  0  0  0  0  0  0  0  0
    3.4110    2.0074    5.1109 C   0  0  2  0  0  0  0  0  0  0  0  0
    3.6324    2.9926    3.9695 C   0  0  1  0  0  0  0  0  0  0  0  0
    2.4457    2.9504    3.0107 C   0  0  1  0  0  0  0  0  0  0  0  0
    2.6415    3.8549    1.8099 C   0  0  0  0  0  0  0  0  0  0  0  0
    2.8721   -0.2887    5.5920 O   0  0  0  0  0  0  0  0  0  0  0  0
    4.5427    2.0016    6.0631 N   0  3  0  0  0  0  0  0  0  0  0  0
    3.7926    4.3049    4.4913 O   0  0  0  0  0  0  0  0  0  0  0  0
    2.2610    1.6084    2.5108 O   0  0  0  0  0  0  0  0  0  0  0  0
    4.0039    4.2273    1.6573 O   0  0  0  0  0  0  0  0  0  0  0  0
   -1.3505    0.7255    3.2349 C   0  0  2  0  0  0  0  0  0  0  0  0
   -2.4045    1.3829    2.3545 C   0  0  0  0  0  0  0  0  0  0  0  0
   -2.8514    2.7141    2.9594 C   0  0  1  0  0  0  0  0  0  0  0  0
   -1.6508    3.6485    3.0906 C   0  0  2  0  0  0  0  0  0  0  0  0
   -0.5772    3.0004    3.9662 C   0  0  1  0  0  0  0  0  0  0  0  0
   -0.1558    1.6566    3.3726 C   0  0  1  0  0  0  0  0  0  0  0  0
   -0.8902   -0.5473    2.6376 N   0  3  0  0  0  0  0  0  0  0  0  0
   -3.9393    3.3033    2.1363 N   0  3  0  0  0  0  0  0  0  0  0  0
    0.5497    3.8611    4.0630 O   0  0  0  0  0  0  0  0  0  0  0  0
    0.8421    1.0445    4.2094 O   0  0  0  0  0  0  0  0  0  0  0  0
   -2.9945    4.8334    4.6888 C   0  0  1  0  0  0  0  0  0  0  0  0
   -3.0608    6.1633    5.4417 C   0  0  1  0  0  0  0  0  0  0  0  0
   -1.7257    6.4591    6.1083 C   0  0  0  0  0  0  0  0  0  0  0  0
   -1.3421    5.2906    7.0014 C   0  0  1  0  0  0  0  0  0  0  0  0
   -1.3196    4.0006    6.1823 C   0  0  1  0  0  0  0  0  0  0  0  0
   -1.0000    2.7786    7.0243 C   0  0  0  0  0  0  0  0  0  0  0  0
   -3.4901    7.2632    4.5459 N   0  3  0  0  0  0  0  0  0  0  0  0
    0.4513    2.6803    7.3100 N   0  3  0  0  0  0  0  0  0  0  0  0
   -2.0596    4.9069    3.6648 O   0  0  0  0  0  0  0  0  0  0  0  0
   -0.0651    5.5202    7.5789 O   0  0  0  0  0  0  0  0  0  0  0  0
   -2.6099    3.7748    5.5745 O   0  0  0  0  0  0  0  0  0  0  0  0
  1  2  1  0  0  0  0
  1 10  1  0  0  0  0
  1 21  1  1  0  0  0
  2  3  1  0  0  0  0
  2  7  1  1  0  0  0
  3  4  1  0  0  0  0
  3  8  1  1  0  0  0
  4  5  1  0  0  0  0
  4  9  1  1  0  0  0
  5  6  1  6  0  0  0
  5 10  1  0  0  0  0
  6 11  1  0  0  0  0
 12 13  1  0  0  0  0
 12 17  1  0  0  0  0
 12 18  1  6  0  0  0
 13 14  1  0  0  0  0
 14 15  1  0  0  0  0
 14 19  1  6  0  0  0
 15 16  1  0  0  0  0
 15 30  1  1  0  0  0
 16 17  1  0  0  0  0
 16 20  1  6  0  0  0
 17 21  1  1  0  0  0
 22 23  1  0  0  0  0
 22 30  1  6  0  0  0
 22 32  1  0  0  0  0
 23 24  1  0  0  0  0
 23 28  1  6  0  0  0
 24 25  1  0  0  0  0
 25 26  1  0  0  0  0
 25 31  1  6  0  0  0
 26 27  1  1  0  0  0
 26 32  1  0  0  0  0
 27 29  1  0  0  0  0
M  CHG  5   8   1  18   1  19   1  28   1  29   1
M  END
>  <CHROM.1>
155.11992164,62.56746701,-170.01196702,67.73376674,16.68194177,171.94696913
22.81767471,53.88788675,39.62867325,60.40635200,110.84609140,165.13055435
-176.57196763,154.64151290,-78.30167098,-33.29804626,0.14071596,3.11486092
4.36932464,0.44454257,0.25221893,-2.42186546

>  <Name>
1tob

>  <RI>
0

>  <Rbt.Current_Directory>
/home/itssahil/PROJECTS/Mol_Feturizer/New_Systems/rnas/1tob

>  <Rbt.Executable>
rbdock ($Id: //depot/dev/client3/rdock/2013.1/src/exe/rbdock.cxx#4 $)

>  <Rbt.Library>
libRbt.so (2013.1, Build901 2013/11/27)

>  <Rbt.Parameter_File>
/export/apps/rDock/src/rDock_2013.1_src/data/scripts/dock_solv.prm

>  <Rbt.Receptor>
prm/blind_docking_40.prm

>  <SCORE>
44.5115

>  <SCORE.INTER>
17.2358

>  <SCORE.INTER.CONST>
1

>  <SCORE.INTER.POLAR>
-3.15152

>  <SCORE.INTER.ROT>
6

>  <SCORE.INTER.SOLV>
31.6556

>  <SCORE.INTER.VDW>
3.84374

>  <SCORE.INTER.norm>
0.538619

>  <SCORE.INTRA>
18.1182

>  <SCORE.INTRA.DIHEDRAL>
2.42246

>  <SCORE.INTRA.DIHEDRAL.0>
22.9177

>  <SCORE.INTRA.POLAR>
0.310114

>  <SCORE.INTRA.POLAR.0>
-0.311208

>  <SCORE.INTRA.REPUL>
0

>  <SCORE.INTRA.REPUL.0>
0

>  <SCORE.INTRA.SOLV>
2.01841

>  <SCORE.INTRA.SOLV.lig_0>
-132.657

>  <SCORE.INTRA.VDW>
14.8434

>  <SCORE.INTRA.VDW.0>
-4.68867

>  <SCORE.INTRA.norm>
0.566194

>  <SCORE.RESTR>
9.15748

>  <SCORE.RESTR.CAVITY>
9.15748

>  <SCORE.RESTR.norm>
0.286171

>  <SCORE.SYSTEM>
0

>  <SCORE.SYSTEM.CONST>
0

>  <SCORE.SYSTEM.DIHEDRAL>
0

>  <SCORE.SYSTEM.SOLV>
0

>  <SCORE.SYSTEM.norm>
0

>  <SCORE.heavy>
32

>  <SCORE.norm>
1.39098

>  <RMSD>
7.451

$$$$
1tob
 OpenBabel11021811413D
libRbt.so/2013.1/901 2013/11/27
 32 34  0  0  0  0  0  0  0  0999 V2000
    3.5377    2.7560    3.9909 C   0  0  2  0  0  0  0  0  0  0  0  0
    4.5810    3.6967    4.5891 C   0  0  1  0  0  0  0  0  0  0  0  0
    4.9140    4.7956    3.5892 C   0  0  2  0  0  0  0  0  0  0  0  0
    5.3641    4.1656    2.2765 C   0  0  1  0  0  0  0  0  0  0  0  0
    4.2898    3.2098    1.7649 C   0  0  1  0  0  0  0  0  0  0  0  0
    4.7120    2.4915    0.4984 C   0  0  0  0  0  0  0  0  0  0  0  0
    4.0764    4.2741    5.7847 O   0  0  0  0  0  0  0  0  0  0  0  0
    5.9293    5.7230    4.1336 N   0  3  0  0  0  0  0  0  0  0  0  0
    5.6111    5.1826    1.3149 O   0  0  0  0  0  0  0  0  0  0  0  0
    4.0128    2.1993    2.7586 O   0  0  0  0  0  0  0  0  0  0  0  0
    5.2508    1.2086    0.7844 O   0  0  0  0  0  0  0  0  0  0  0  0
    0.7394    1.6952    4.1287 C   0  0  2  0  0  0  0  0  0  0  0  0
   -0.3647    0.8818    3.4673 C   0  0  0  0  0  0  0  0  0  0  0  0
   -1.4629    1.8038    2.9366 C   0  0  1  0  0  0  0  0  0  0  0  0
   -0.8717    2.7736    1.9159 C   0  0  2  0  0  0  0  0  0  0  0  0
    0.2458    3.5946    2.5612 C   0  0  1  0  0  0  0  0  0  0  0  0
    1.3261    2.6667    3.1160 C   0  0  1  0  0  0  0  0  0  0  0  0
    1.8208    0.8106    4.6149 N   0  3  0  0  0  0  0  0  0  0  0  0
   -2.5726    0.9939    2.3703 N   0  3  0  0  0  0  0  0  0  0  0  0
    0.8121    4.4761    1.6008 O   0  0  0  0  0  0  0  0  0  0  0  0
    2.3662    3.4441    3.7362 O   0  0  0  0  0  0  0  0  0  0  0  0
   -3.0330    3.7794    2.2012 C   0  0  1  0  0  0  0  0  0  0  0  0
   -4.1881    4.3550    1.3801 C   0  0  1  0  0  0  0  0  0  0  0  0
   -3.8469    5.7579    0.9010 C   0  0  0  0  0  0  0  0  0  0  0  0
   -3.4824    6.6211    2.0979 C   0  0  1  0  0  0  0  0  0  0  0  0
   -2.3397    5.9690    2.8756 C   0  0  1  0  0  0  0  0  0  0  0  0
   -1.9605    6.7487    4.1215 C   0  0  0  0  0  0  0  0  0  0  0  0
   -4.5448    3.4560    0.2572 N   0  3  0  0  0  0  0  0  0  0  0  0
   -3.0435    6.7160    5.1333 N   0  3  0  0  0  0  0  0  0  0  0  0
   -1.8983    3.6522    1.4111 O   0  0  0  0  0  0  0  0  0  0  0  0
   -3.0948    7.9160    1.6621 O   0  0  0  0  0  0  0  0  0  0  0  0
   -2.7211    4.6429    3.3014 O   0  0  0  0  0  0  0  0  0  0  0  0
  1  2  1  0  0  0  0
  1 10  1  0  0  0  0
  1 21  1  6  0  0  0
  2  3  1  0  0  0  0
  2  7  1  1  0  0  0
  3  4  1  0  0  0  0
  3  8  1  1  0  0  0
  4  5  1  0  0  0  0
  4  9  1  6  0  0  0
  5  6  1  6  0  0  0
  5 10  1  0  0  0  0
  6 11  1  0  0  0  0
 12 13  1  0  0  0  0
 12 17  1  0  0  0  0
 12 18  1  6  0  0  0
 13 14  1  0  0  0  0
 14 15  1  0  0  0  0
 14 19  1  6  0  0  0
 15 16  1  0  0  0  0
 15 30  1  1  0  0  0
 16 17  1  0  0  0  0
 16 20  1  6  0  0  0
 17 21  1  1  0  0  0
 22 23  1  0  0  0  0
 22 30  1  6  0  0  0
 22 32  1  0  0  0  0
 23 24  1  0  0  0  0
 23 28  1  6  0  0  0
 24 25  1  0  0  0  0
 25 26  1  0  0  0  0
 25 31  1  6  0  0  0
 26 27  1  1  0  0  0
 26 32  1  0  0  0  0
 27 29  1  0  0  0  0
M  CHG  5   8   1  18   1  19   1  28   1  29   1
M  END
>  <CHROM.1>
177.49514714,-47.92929916,-74.63481493,-101.80889698,96.13773119,83.55432616
-168.59352256,132.63875628,20.56125992,69.09737379,72.51693015,-162.17431197
106.64206456,-60.80223311,67.35367144,-44.30776103,0.64404028,3.83888690
2.72536759,0.16547201,0.13015585,-2.95019148

>  <Name>
1tob

>  <RI>
0

>  <Rbt.Current_Directory>
/home/itssahil/PROJECTS/Mol_Feturizer/New_Systems/rnas/1tob

>  <Rbt.Executable>
rbdock ($Id: //depot/dev/client3/rdock/2013.1/src/exe/rbdock.cxx#4 $)

>  <Rbt.Library>
libRbt.so (2013.1, Build901 2013/11/27)

>  <Rbt.Parameter_File>
/export/apps/rDock/src/rDock_2013.1_src/data/scripts/dock_solv.prm

>  <Rbt.Receptor>
prm/blind_docking_20.prm

>  <SCORE>
-15.0884

>  <SCORE.INTER>
-35.7356

>  <SCORE.INTER.CONST>
1

>  <SCORE.INTER.POLAR>
-6.75965

>  <SCORE.INTER.ROT>
6

>  <SCORE.INTER.SOLV>
40.8972

>  <SCORE.INTER.VDW>
-22.524

>  <SCORE.INTER.norm>
-1.11674

>  <SCORE.INTRA>
12.227

>  <SCORE.INTRA.DIHEDRAL>
5.36709

>  <SCORE.INTRA.DIHEDRAL.0>
22.9177

>  <SCORE.INTRA.POLAR>
0.264954

>  <SCORE.INTRA.POLAR.0>
-0.311208

>  <SCORE.INTRA.REPUL>
0.0225834

>  <SCORE.INTRA.REPUL.0>
0

>  <SCORE.INTRA.SOLV>
-0.687232

>  <SCORE.INTRA.SOLV.lig_0>
-132.657

>  <SCORE.INTRA.VDW>
8.87329

>  <SCORE.INTRA.VDW.0>
-4.68867

>  <SCORE.INTRA.norm>
0.382093

>  <SCORE.RESTR>
8.42026

>  <SCORE.RESTR.CAVITY>
8.42026

>  <SCORE.RESTR.norm>
0.263133

>  <SCORE.SYSTEM>
0

>  <SCORE.SYSTEM.CONST>
0

>  <SCORE.SYSTEM.DIHEDRAL>
0

>  <SCORE.SYSTEM.SOLV>
0

>  <SCORE.SYSTEM.norm>
0

>  <SCORE.heavy>
32

>  <SCORE.norm>
-0.471512

>  <RMSD>
7.458

$$$$
1tob
 OpenBabel11021811413D
libRbt.so/2013.1/901 2013/11/27
 32 34  0  0  0  0  0  0  0  0999 V2000
   -6.5080    5.9454    3.1900 C   0  0  2  0  0  0  0  0  0  0  0  0
   -7.8558    6.1016    2.4899 C   0  0  1  0  0  0  0  0  0  0  0  0
   -7.9022    7.4366    1.7591 C   0  0  2  0  0  0  0  0  0  0  0  0
   -7.6090    8.5626    2.7433 C   0  0  1  0  0  0  0  0  0  0  0  0
   -6.2694    8.3142    3.4311 C   0  0  1  0  0  0  0  0  0  0  0  0
   -5.9564    9.3625    4.4807 C   0  0  0  0  0  0  0  0  0  0  0  0
   -8.0402    5.0415    1.5627 O   0  0  0  0  0  0  0  0  0  0  0  0
   -9.1994    7.6253    1.0741 N   0  3  0  0  0  0  0  0  0  0  0  0
   -7.5823    9.8066    2.0565 O   0  0  0  0  0  0  0  0  0  0  0  0
   -6.2851    7.0328    4.0966 O   0  0  0  0  0  0  0  0  0  0  0  0
   -5.3916    8.7779    5.6457 O   0  0  0  0  0  0  0  0  0  0  0  0
   -4.3982    4.5275    0.6189 C   0  0  2  0  0  0  0  0  0  0  0  0
   -3.7210    3.1779    0.4232 C   0  0  0  0  0  0  0  0  0  0  0  0
   -2.5183    3.0430    1.3574 C   0  0  1  0  0  0  0  0  0  0  0  0
   -2.9770    3.1703    2.8084 C   0  0  2  0  0  0  0  0  0  0  0  0
   -3.6676    4.5182    3.0219 C   0  0  1  0  0  0  0  0  0  0  0  0
   -4.8508    4.6598    2.0650 C   0  0  1  0  0  0  0  0  0  0  0  0
   -5.5825    4.6505   -0.2591 N   0  3  0  0  0  0  0  0  0  0  0  0
   -1.8174    1.7590    1.0966 N   0  3  0  0  0  0  0  0  0  0  0  0
   -4.1177    4.6214    4.3661 O   0  0  0  0  0  0  0  0  0  0  0  0
   -5.4860    5.9364    2.2593 O   0  0  0  0  0  0  0  0  0  0  0  0
   -0.8270    3.9706    3.5162 C   0  0  1  0  0  0  0  0  0  0  0  0
    0.3770    3.6057    4.3862 C   0  0  1  0  0  0  0  0  0  0  0  0
    0.0038    3.6756    5.8594 C   0  0  0  0  0  0  0  0  0  0  0  0
   -0.5556    5.0545    6.1694 C   0  0  1  0  0  0  0  0  0  0  0  0
   -1.7371    5.3516    5.2466 C   0  0  1  0  0  0  0  0  0  0  0  0
   -2.3114    6.7404    5.4604 C   0  0  0  0  0  0  0  0  0  0  0  0
    0.9222    2.2788    4.0139 N   0  3  0  0  0  0  0  0  0  0  0  0
   -3.7842    6.6996    5.6246 N   0  3  0  0  0  0  0  0  0  0  0  0
   -1.8495    3.0491    3.6996 O   0  0  0  0  0  0  0  0  0  0  0  0
   -0.9728    5.1152    7.5255 O   0  0  0  0  0  0  0  0  0  0  0  0
   -1.3228    5.2687    3.8657 O   0  0  0  0  0  0  0  0  0  0  0  0
  1  2  1  0  0  0  0
  1 10  1  0  0  0  0
  1 21  1  6  0  0  0
  2  3  1  0  0  0  0
  2  7  1  6  0  0  0
  3  4  1  0  0  0  0
  3  8  1  1  0  0  0
  4  5  1  0  0  0  0
  4  9  1  6  0  0  0
  5  6  1  1  0  0  0
  5 10  1  0  0  0  0
  6 11  1  0  0  0  0
 12 13  1  0  0  0  0
 12 17  1  0  0  0  0
 12 18  1  6  0  0  0
 13 14  1  0  0  0  0
 14 15  1  0  0  0  0
 14 19  1  1  0  0  0
 15 16  1  0  0  0  0
 15 30  1  1  0  0  0
 16 17  1  0  0  0  0
 16 20  1  1  0  0  0
 17 21  1  6  0  0  0
 22 23  1  0  0  0  0
 22 30  1  1  0  0  0
 22 32  1  0  0  0  0
 23 24  1  0  0  0  0
 23 28  1  6  0  0  0
 24 25  1  0  0  0  0
 25 26  1  0  0  0  0
 25 31  1  1  0  0  0
 26 27  1  1  0  0  0
 26 32  1  0  0  0  0
 27 29  1  0  0  0  0
M  CHG  5   8   1  18   1  19   1  28   1  29   1
M  END
>  <CHROM.1>
-108.70047512,165.13309272,91.76790227,-61.14525965,138.67888230,174.80283581
20.68704433,-106.07410643,58.34516063,-108.74548467,147.32568323,-172.02872665
-61.95516612,-52.23798108,-130.23907163,-168.06021275,-4.08897937,5.47441804
3.30627392,3.00362346,-0.57063018,0.84365425

>  <Name>
1tob

>  <RI>
0

>  <Rbt.Current_Directory>
/home/itssahil/PROJECTS/Mol_Feturizer/New_Systems/rnas/1tob

>  <Rbt.Executable>
rbdock ($Id: //depot/dev/client3/rdock/2013.1/src/exe/rbdock.cxx#4 $)

>  <Rbt.Library>
libRbt.so (2013.1, Build901 2013/11/27)

>  <Rbt.Parameter_File>
/export/apps/rDock/src/rDock_2013.1_src/data/scripts/dock_solv.prm

>  <Rbt.Receptor>
prm/blind_docking_100.prm

>  <SCORE>
-4.8621

>  <SCORE.INTER>
-28.4676

>  <SCORE.INTER.CONST>
1

>  <SCORE.INTER.POLAR>
-6.69359

>  <SCORE.INTER.ROT>
6

>  <SCORE.INTER.SOLV>
30.9277

>  <SCORE.INTER.VDW>
-14.5756

>  <SCORE.INTER.norm>
-0.889612

>  <SCORE.INTRA>
8.23168

>  <SCORE.INTRA.DIHEDRAL>
13.1329

>  <SCORE.INTRA.DIHEDRAL.0>
22.9177

>  <SCORE.INTRA.POLAR>
-2.53718

>  <SCORE.INTRA.POLAR.0>
-0.311208

>  <SCORE.INTRA.REPUL>
0

>  <SCORE.INTRA.REPUL.0>
0

>  <SCORE.INTRA.SOLV>
7.03456

>  <SCORE.INTRA.SOLV.lig_0>
-132.657

>  <SCORE.INTRA.VDW>
6.77434

>  <SCORE.INTRA.VDW.0>
-4.68867

>  <SCORE.INTRA.norm>
0.25724

>  <SCORE.RESTR>
15.3738

>  <SCORE.RESTR.CAVITY>
15.3738

>  <SCORE.RESTR.norm>
0.480431

>  <SCORE.SYSTEM>
0

>  <SCORE.SYSTEM.CONST>
0

>  <SCORE.SYSTEM.DIHEDRAL>
0

>  <SCORE.SYSTEM.SOLV>
0

>  <SCORE.SYSTEM.norm>
0

>  <SCORE.heavy>
32

>  <SCORE.norm>
-0.151941

>  <RMSD>
7.469

$$$$
1tob
 OpenBabel11021811413D
libRbt.so/2013.1/901 2013/11/27
 32 34  0  0  0  0  0  0  0  0999 V2000
    4.0211    3.3885    1.8480 C   0  0  2  0  0  0  0  0  0  0  0  0
    4.9895    2.2103    1.7773 C   0  0  1  0  0  0  0  0  0  0  0  0
    5.7436    2.0868    3.0943 C   0  0  2  0  0  0  0  0  0  0  0  0
    6.4360    3.4080    3.4066 C   0  0  1  0  0  0  0  0  0  0  0  0
    5.4121    4.5397    3.4183 C   0  0  1  0  0  0  0  0  0  0  0  0
    6.0522    5.8948    3.6480 C   0  0  0  0  0  0  0  0  0  0  0  0
    4.2694    1.0125    1.5238 O   0  0  0  0  0  0  0  0  0  0  0  0
    6.6982    0.9576    3.0589 N   0  3  0  0  0  0  0  0  0  0  0  0
    7.0858    3.3240    4.6679 O   0  0  0  0  0  0  0  0  0  0  0  0
    4.7261    4.5994    2.1491 O   0  0  0  0  0  0  0  0  0  0  0  0
    7.1760    5.7982    4.5116 O   0  0  0  0  0  0  0  0  0  0  0  0
    1.4214    1.4953    3.3771 C   0  0  2  0  0  0  0  0  0  0  0  0
    0.1192    0.8662    2.9009 C   0  0  0  0  0  0  0  0  0  0  0  0
   -0.9739    1.9281    2.7789 C   0  0  1  0  0  0  0  0  0  0  0  0
   -0.5397    3.0014    1.7832 C   0  0  2  0  0  0  0  0  0  0  0  0
    0.7725    3.6395    2.2417 C   0  0  1  0  0  0  0  0  0  0  0  0
    1.8533    2.5693    2.3906 C   0  0  1  0  0  0  0  0  0  0  0  0
    2.4919    0.4781    3.4655 N   0  3  0  0  0  0  0  0  0  0  0  0
   -2.2593    1.2884    2.3959 N   0  3  0  0  0  0  0  0  0  0  0  0
    1.1877    4.6182    1.2984 O   0  0  0  0  0  0  0  0  0  0  0  0
    3.0804    3.1734    2.8378 O   0  0  0  0  0  0  0  0  0  0  0  0
   -2.6969    3.8250    2.4408 C   0  0  1  0  0  0  0  0  0  0  0  0
   -3.9564    4.0479    1.6019 C   0  0  1  0  0  0  0  0  0  0  0  0
   -4.0138    5.4858    1.1086 C   0  0  0  0  0  0  0  0  0  0  0  0
   -3.9192    6.4275    2.2979 C   0  0  1  0  0  0  0  0  0  0  0  0
   -2.6499    6.1273    3.0943 C   0  0  1  0  0  0  0  0  0  0  0  0
   -2.5185    6.9935    4.3339 C   0  0  0  0  0  0  0  0  0  0  0  0
   -4.0344    3.0747    0.4869 N   0  3  0  0  0  0  0  0  0  0  0  0
   -2.6139    8.4351    4.0017 N   0  3  0  0  0  0  0  0  0  0  0  0
   -1.5619    4.0119    1.6630 O   0  0  0  0  0  0  0  0  0  0  0  0
   -3.9026    7.7750    1.8497 O   0  0  0  0  0  0  0  0  0  0  0  0
   -2.6518    4.7515    3.5330 O   0  0  0  0  0  0  0  0  0  0  0  0
  1  2  1  0  0  0  0
  1 10  1  0  0  0  0
  1 21  1  1  0  0  0
  2  3  1  0  0  0  0
  2  7  1  1  0  0  0
  3  4  1  0  0  0  0
  3  8  1  6  0  0  0
  4  5  1  0  0  0  0
  4  9  1  1  0  0  0
  5  6  1  6  0  0  0
  5 10  1  0  0  0  0
  6 11  1  0  0  0  0
 12 13  1  0  0  0  0
 12 17  1  0  0  0  0
 12 18  1  6  0  0  0
 13 14  1  0  0  0  0
 14 15  1  0  0  0  0
 14 19  1  6  0  0  0
 15 16  1  0  0  0  0
 15 30  1  1  0  0  0
 16 17  1  0  0  0  0
 16 20  1  6  0  0  0
 17 21  1  1  0  0  0
 22 23  1  0  0  0  0
 22 30  1  6  0  0  0
 22 32  1  0  0  0  0
 23 24  1  0  0  0  0
 23 28  1  6  0  0  0
 24 25  1  0  0  0  0
 25 26  1  0  0  0  0
 25 31  1  6  0  0  0
 26 27  1  1  0  0  0
 26 32  1  0  0  0  0
 27 29  1  0  0  0  0
M  CHG  5   8   1  18   1  19   1  28   1  29   1
M  END
>  <CHROM.1>
-93.82526582,163.98311891,-55.98196967,-176.51206937,-33.76986880,-169.95585694
-161.78355566,-104.54291584,-0.01400938,-69.81086090,137.10960169,-133.42307429
-144.57462697,-43.07822460,-54.18637269,-92.53079434,1.13506237,3.79445136
2.65579473,-0.20739591,-0.15564330,0.21918579

>  <Name>
1tob

>  <RI>
0

>  <Rbt.Current_Directory>
/home/itssahil/PROJECTS/Mol_Feturizer/New_Systems/rnas/1tob

>  <Rbt.Executable>
rbdock ($Id: //depot/dev/client3/rdock/2013.1/src/exe/rbdock.cxx#4 $)

>  <Rbt.Library>
libRbt.so (2013.1, Build901 2013/11/27)

>  <Rbt.Parameter_File>
/export/apps/rDock/src/rDock_2013.1_src/data/scripts/dock_solv.prm

>  <Rbt.Receptor>
prm/blind_docking_100.prm

>  <SCORE>
-20.1576

>  <SCORE.INTER>
-44.5286

>  <SCORE.INTER.CONST>
1

>  <SCORE.INTER.POLAR>
-6.40171

>  <SCORE.INTER.ROT>
6

>  <SCORE.INTER.SOLV>
35.3973

>  <SCORE.INTER.VDW>
-27.7458

>  <SCORE.INTER.norm>
-1.39152

>  <SCORE.INTRA>
14.0794

>  <SCORE.INTRA.DIHEDRAL>
14.8284

>  <SCORE.INTRA.DIHEDRAL.0>
22.9177

>  <SCORE.INTRA.POLAR>
-2.03283

>  <SCORE.INTRA.POLAR.0>
-0.311208

>  <SCORE.INTRA.REPUL>
0

>  <SCORE.INTRA.REPUL.0>
0

>  <SCORE.INTRA.SOLV>
6.83974

>  <SCORE.INTRA.SOLV.lig_0>
-132.657

>  <SCORE.INTRA.VDW>
10.1569

>  <SCORE.INTRA.VDW.0>
-4.68867

>  <SCORE.INTRA.norm>
0.43998

>  <SCORE.RESTR>
10.2917

>  <SCORE.RESTR.CAVITY>
10.2917

>  <SCORE.RESTR.norm>
0.321614

>  <SCORE.SYSTEM>
0

>  <SCORE.SYSTEM.CONST>
0

>  <SCORE.SYSTEM.DIHEDRAL>
0

>  <SCORE.SYSTEM.SOLV>
0

>  <SCORE.SYSTEM.norm>
0

>  <SCORE.heavy>
32

>  <SCORE.norm>
-0.629924

>  <RMSD>
7.487

$$$$
1tob
 OpenBabel11021811413D
libRbt.so/2013.1/901 2013/11/27
 32 34  0  0  0  0  0  0  0  0999 V2000
    2.8641    4.0793    3.8088 C   0  0  2  0  0  0  0  0  0  0  0  0
    3.1274    3.7201    2.3483 C   0  0  1  0  0  0  0  0  0  0  0  0
    4.2885    2.7389    2.2629 C   0  0  2  0  0  0  0  0  0  0  0  0
    5.5068    3.3351    2.9578 C   0  0  1  0  0  0  0  0  0  0  0  0
    5.1538    3.7058    4.3956 C   0  0  1  0  0  0  0  0  0  0  0  0
    6.3056    4.3764    5.1182 C   0  0  0  0  0  0  0  0  0  0  0  0
    1.9637    3.1354    1.7812 O   0  0  0  0  0  0  0  0  0  0  0  0
    4.5768    2.3739    0.8590 N   0  3  0  0  0  0  0  0  0  0  0  0
    6.5752    2.3979    2.9432 O   0  0  0  0  0  0  0  0  0  0  0  0
    4.0433    4.6287    4.4102 O   0  0  0  0  0  0  0  0  0  0  0  0
    6.9651    5.3172    4.2827 O   0  0  0  0  0  0  0  0  0  0  0  0
    2.0424    4.0832    6.6087 C   0  0  2  0  0  0  0  0  0  0  0  0
    0.9728    4.3111    7.6680 C   0  0  0  0  0  0  0  0  0  0  0  0
   -0.2748    4.9351    7.0421 C   0  0  1  0  0  0  0  0  0  0  0  0
   -0.8263    4.0085    5.9608 C   0  0  2  0  0  0  0  0  0  0  0  0
    0.2385    3.7616    4.8910 C   0  0  1  0  0  0  0  0  0  0  0  0
    1.4938    3.1655    5.5269 C   0  0  1  0  0  0  0  0  0  0  0  0
    3.2398    3.4491    7.2026 N   0  3  0  0  0  0  0  0  0  0  0  0
   -1.2768    5.2301    8.0990 N   0  3  0  0  0  0  0  0  0  0  0  0
   -0.2691    2.8768    3.9013 O   0  0  0  0  0  0  0  0  0  0  0  0
    2.4975    2.9509    4.5182 O   0  0  0  0  0  0  0  0  0  0  0  0
   -1.7886    5.7043    4.5601 C   0  0  1  0  0  0  0  0  0  0  0  0
   -3.0059    6.6296    4.6066 C   0  0  1  0  0  0  0  0  0  0  0  0
   -4.2261    5.9250    4.0331 C   0  0  0  0  0  0  0  0  0  0  0  0
   -3.9077    5.4340    2.6303 C   0  0  1  0  0  0  0  0  0  0  0  0
   -2.6709    4.5370    2.6657 C   0  0  1  0  0  0  0  0  0  0  0  0
   -2.2581    4.0553    1.2867 C   0  0  0  0  0  0  0  0  0  0  0  0
   -3.2467    7.1263    5.9819 N   0  3  0  0  0  0  0  0  0  0  0  0
   -1.0363    3.2179    1.3472 N   0  3  0  0  0  0  0  0  0  0  0  0
   -2.0018    4.5892    5.3595 O   0  0  0  0  0  0  0  0  0  0  0  0
   -5.0137    4.7139    2.1057 O   0  0  0  0  0  0  0  0  0  0  0  0
   -1.5492    5.2583    3.2196 O   0  0  0  0  0  0  0  0  0  0  0  0
  1  2  1  0  0  0  0
  1 10  1  0  0  0  0
  1 21  1  1  0  0  0
  2  3  1  0  0  0  0
  2  7  1  1  0  0  0
  3  4  1  0  0  0  0
  3  8  1  6  0  0  0
  4  5  1  0  0  0  0
  4  9  1  1  0  0  0
  5  6  1  6  0  0  0
  5 10  1  0  0  0  0
  6 11  1  0  0  0  0
 12 13  1  0  0  0  0
 12 17  1  0  0  0  0
 12 18  1  1  0  0  0
 13 14  1  0  0  0  0
 14 15  1  0  0  0  0
 14 19  1  1  0  0  0
 15 16  1  0  0  0  0
 15 30  1  6  0  0  0
 16 17  1  0  0  0  0
 16 20  1  6  0  0  0
 17 21  1  6  0  0  0
 22 23  1  0  0  0  0
 22 30  1  1  0  0  0
 22 32  1  0  0  0  0
 23 24  1  0  0  0  0
 23 28  1  1  0  0  0
 24 25  1  0  0  0  0
 25 26  1  0  0  0  0
 25 31  1  1  0  0  0
 26 27  1  6  0  0  0
 26 32  1  0  0  0  0
 27 29  1  0  0  0  0
M  CHG  5   8   1  18   1  19   1  28   1  29   1
M  END
>  <CHROM.1>
-143.07883537,-28.31904243,-110.36680903,-179.33069981,42.00475713,-64.56618395
-179.09001137,59.05837020,70.15081040,-51.62158245,-64.61852244,-149.63717125
-87.57719883,-45.61754172,178.48784324,-1.35853200,0.91335169,4.22089521
4.18324799,0.10119657,0.19177786,-1.82202777

>  <Name>
1tob

>  <RI>
0

>  <Rbt.Current_Directory>
/home/itssahil/PROJECTS/Mol_Feturizer/New_Systems/rnas/1tob

>  <Rbt.Executable>
rbdock ($Id: //depot/dev/client3/rdock/2013.1/src/exe/rbdock.cxx#4 $)

>  <Rbt.Library>
libRbt.so (2013.1, Build901 2013/11/27)

>  <Rbt.Parameter_File>
/export/apps/rDock/src/rDock_2013.1_src/data/scripts/dock_solv.prm

>  <Rbt.Receptor>
prm/blind_docking_80.prm

>  <SCORE>
-35.7847

>  <SCORE.INTER>
-46.5458

>  <SCORE.INTER.CONST>
1

>  <SCORE.INTER.POLAR>
-7.5476

>  <SCORE.INTER.ROT>
6

>  <SCORE.INTER.SOLV>
43.0673

>  <SCORE.INTER.VDW>
-27.8276

>  <SCORE.INTER.norm>
-1.45456

>  <SCORE.INTRA>
0.757506

>  <SCORE.INTRA.DIHEDRAL>
1.34342

>  <SCORE.INTRA.DIHEDRAL.0>
22.9177

>  <SCORE.INTRA.POLAR>
-1.75948

>  <SCORE.INTRA.POLAR.0>
-0.311208

>  <SCORE.INTRA.REPUL>
0

>  <SCORE.INTRA.REPUL.0>
0

>  <SCORE.INTRA.SOLV>
5.41458

>  <SCORE.INTRA.SOLV.lig_0>
-132.657

>  <SCORE.INTRA.VDW>
3.36075

>  <SCORE.INTRA.VDW.0>
-4.68867

>  <SCORE.INTRA.norm>
0.0236721

>  <SCORE.RESTR>
10.0036

>  <SCORE.RESTR.CAVITY>
10.0036

>  <SCORE.RESTR.norm>
0.312612

>  <SCORE.SYSTEM>
0

>  <SCORE.SYSTEM.CONST>
0

>  <SCORE.SYSTEM.DIHEDRAL>
0

>  <SCORE.SYSTEM.SOLV>
0

>  <SCORE.SYSTEM.norm>
0

>  <SCORE.heavy>
32

>  <SCORE.norm>
-1.11827

>  <RMSD>
7.494

$$$$
1tob
 OpenBabel11021811413D
libRbt.so/2013.1/901 2013/11/27
 32 34  0  0  0  0  0  0  0  0999 V2000
   -1.5211    4.9962    7.8188 C   0  0  2  0  0  0  0  0  0  0  0  0
   -0.3851    5.3964    8.7572 C   0  0  1  0  0  0  0  0  0  0  0  0
    0.9530    5.1804    8.0636 C   0  0  2  0  0  0  0  0  0  0  0  0
    1.0515    3.7342    7.5933 C   0  0  1  0  0  0  0  0  0  0  0  0
   -0.1372    3.3985    6.6969 C   0  0  1  0  0  0  0  0  0  0  0  0
   -0.1374    1.9474    6.2578 C   0  0  0  0  0  0  0  0  0  0  0  0
   -0.5216    6.7631    9.1195 O   0  0  0  0  0  0  0  0  0  0  0  0
    2.0787    5.5516    8.9482 N   0  3  0  0  0  0  0  0  0  0  0  0
    2.2680    3.5409    6.8843 O   0  0  0  0  0  0  0  0  0  0  0  0
   -1.3732    3.6317    7.4062 O   0  0  0  0  0  0  0  0  0  0  0  0
   -0.8376    1.1258    7.1813 O   0  0  0  0  0  0  0  0  0  0  0  0
   -3.0723    7.1012    5.3792 C   0  0  2  0  0  0  0  0  0  0  0  0
   -4.3208    7.0051    4.5129 C   0  0  0  0  0  0  0  0  0  0  0  0
   -4.0760    6.0756    3.3240 C   0  0  1  0  0  0  0  0  0  0  0  0
   -3.7042    4.6828    3.8277 C   0  0  2  0  0  0  0  0  0  0  0  0
   -2.4554    4.7611    4.7073 C   0  0  1  0  0  0  0  0  0  0  0  0
   -2.6959    5.7144    5.8774 C   0  0  1  0  0  0  0  0  0  0  0  0
   -3.3138    7.9734    6.5494 N   0  3  0  0  0  0  0  0  0  0  0  0
   -5.2719    6.0574    2.4422 N   0  3  0  0  0  0  0  0  0  0  0  0
   -2.1289    3.4673    5.1968 O   0  0  0  0  0  0  0  0  0  0  0  0
   -1.5122    5.7965    6.6916 O   0  0  0  0  0  0  0  0  0  0  0  0
   -2.5571    4.2447    1.7647 C   0  0  1  0  0  0  0  0  0  0  0  0
   -2.5240    3.2883    0.5714 C   0  0  1  0  0  0  0  0  0  0  0  0
   -2.0372    1.9151    1.0094 C   0  0  0  0  0  0  0  0  0  0  0  0
   -0.6872    2.0570    1.6932 C   0  0  1  0  0  0  0  0  0  0  0  0
   -0.7986    3.0421    2.8562 C   0  0  1  0  0  0  0  0  0  0  0  0
    0.5297    3.2786    3.5517 C   0  0  0  0  0  0  0  0  0  0  0  0
   -3.8454    3.2221   -0.0965 N   0  3  0  0  0  0  0  0  0  0  0  0
    1.5328    3.8554    2.6250 N   0  3  0  0  0  0  0  0  0  0  0  0
   -3.4663    3.7975    2.7141 O   0  0  0  0  0  0  0  0  0  0  0  0
   -0.2493    0.7927    2.1693 O   0  0  0  0  0  0  0  0  0  0  0  0
   -1.2654    4.3230    2.3801 O   0  0  0  0  0  0  0  0  0  0  0  0
  1  2  1  0  0  0  0
  1 10  1  0  0  0  0
  1 21  1  6  0  0  0
  2  3  1  0  0  0  0
  2  7  1  6  0  0  0
  3  4  1  0  0  0  0
  3  8  1  1  0  0  0
  4  5  1  0  0  0  0
  4  9  1  6  0  0  0
  5  6  1  1  0  0  0
  5 10  1  0  0  0  0
  6 11  1  0  0  0  0
 12 13  1  0  0  0  0
 12 17  1  0  0  0  0
 12 18  1  1  0  0  0
 13 14  1  0  0  0  0
 14 15  1  0  0  0  0
 14 19  1  1  0  0  0
 15 16  1  0  0  0  0
 15 30  1  6  0  0  0
 16 17  1  0  0  0  0
 16 20  1  1  0  0  0
 17 21  1  6  0  0  0
 22 23  1  0  0  0  0
 22 30  1  1  0  0  0
 22 32  1  0  0  0  0
 23 24  1  0  0  0  0
 23 28  1  1  0  0  0
 24 25  1  0  0  0  0
 25 26  1  0  0  0  0
 25 31  1  1  0  0  0
 26 27  1  6  0  0  0
 26 32  1  0  0  0  0
 27 29  1  0  0  0  0
M  CHG  5   8   1  18   1  19   1  28   1  29   1
M  END
>  <CHROM.1>
-167.03026337,-157.73847176,163.29290389,-52.12748131,89.34973493,-149.25166913
-71.57316398,-99.45542679,52.69628040,34.30919864,139.71771064,-173.53371462
136.55749514,-52.62227989,61.06060580,173.11366779,-1.42813984,4.29405074
4.83924837,1.03651514,-0.66918931,1.00165319

>  <Name>
1tob

>  <RI>
0

>  <Rbt.Current_Directory>
/home/itssahil/PROJECTS/Mol_Feturizer/New_Systems/rnas/1tob

>  <Rbt.Executable>
rbdock ($Id: //depot/dev/client3/rdock/2013.1/src/exe/rbdock.cxx#4 $)

>  <Rbt.Library>
libRbt.so (2013.1, Build901 2013/11/27)

>  <Rbt.Parameter_File>
/export/apps/rDock/src/rDock_2013.1_src/data/scripts/dock_solv.prm

>  <Rbt.Receptor>
prm/blind_docking_40.prm

>  <SCORE>
34.8973

>  <SCORE.INTER>
17.4451

>  <SCORE.INTER.CONST>
1

>  <SCORE.INTER.POLAR>
-3.54081

>  <SCORE.INTER.ROT>
6

>  <SCORE.INTER.SOLV>
48.9115

>  <SCORE.INTER.VDW>
-0.471051

>  <SCORE.INTER.norm>
0.54516

>  <SCORE.INTRA>
11.1566

>  <SCORE.INTRA.DIHEDRAL>
2.36762

>  <SCORE.INTRA.DIHEDRAL.0>
22.9177

>  <SCORE.INTRA.POLAR>
0.255655

>  <SCORE.INTRA.POLAR.0>
-0.311208

>  <SCORE.INTRA.REPUL>
0.0425595

>  <SCORE.INTRA.REPUL.0>
0

>  <SCORE.INTRA.SOLV>
-0.958952

>  <SCORE.INTRA.SOLV.lig_0>
-132.657

>  <SCORE.INTRA.VDW>
9.37026

>  <SCORE.INTRA.VDW.0>
-4.68867

>  <SCORE.INTRA.norm>
0.348644

>  <SCORE.RESTR>
6.29559

>  <SCORE.RESTR.CAVITY>
6.29559

>  <SCORE.RESTR.norm>
0.196737

>  <SCORE.SYSTEM>
0

>  <SCORE.SYSTEM.CONST>
0

>  <SCORE.SYSTEM.DIHEDRAL>
0

>  <SCORE.SYSTEM.SOLV>
0

>  <SCORE.SYSTEM.norm>
0

>  <SCORE.heavy>
32

>  <SCORE.norm>
1.09054

>  <RMSD>
7.550

$$$$
1tob
 OpenBabel11021811413D
libRbt.so/2013.1/901 2013/11/27
 32 34  0  0  0  0  0  0  0  0999 V2000
    4.0250    3.6083    1.9737 C   0  0  2  0  0  0  0  0  0  0  0  0
    4.9471    2.4069    1.7802 C   0  0  1  0  0  0  0  0  0  0  0  0
    5.6860    2.1133    3.0787 C   0  0  2  0  0  0  0  0  0  0  0  0
    6.4272    3.3650    3.5331 C   0  0  1  0  0  0  0  0  0  0  0  0
    5.4483    4.5287    3.6628 C   0  0  1  0  0  0  0  0  0  0  0  0
    6.1392    5.8249    4.0385 C   0  0  0  0  0  0  0  0  0  0  0  0
    4.1826    1.2726    1.3973 O   0  0  0  0  0  0  0  0  0  0  0  0
    6.5959    0.9575    2.9254 N   0  3  0  0  0  0  0  0  0  0  0  0
    7.0638    3.1207    4.7801 O   0  0  0  0  0  0  0  0  0  0  0  0
    4.7746    4.7511    2.4051 O   0  0  0  0  0  0  0  0  0  0  0  0
    6.8180    5.7099    5.2811 O   0  0  0  0  0  0  0  0  0  0  0  0
    1.5132    1.5293    3.3894 C   0  0  2  0  0  0  0  0  0  0  0  0
    0.2658    0.8296    2.8670 C   0  0  0  0  0  0  0  0  0  0  0  0
   -0.8920    1.8208    2.7464 C   0  0  1  0  0  0  0  0  0  0  0  0
   -0.5079    2.9465    1.7887 C   0  0  2  0  0  0  0  0  0  0  0  0
    0.7492    3.6563    2.2937 C   0  0  1  0  0  0  0  0  0  0  0  0
    1.8946    2.6553    2.4407 C   0  0  1  0  0  0  0  0  0  0  0  0
    2.6461    0.5821    3.4770 N   0  3  0  0  0  0  0  0  0  0  0  0
   -2.1238    1.1090    2.3173 N   0  3  0  0  0  0  0  0  0  0  0  0
    1.1194    4.6849    1.3855 O   0  0  0  0  0  0  0  0  0  0  0  0
    3.0693    3.3260    2.9317 O   0  0  0  0  0  0  0  0  0  0  0  0
   -2.6644    3.6972    2.5302 C   0  0  1  0  0  0  0  0  0  0  0  0
   -3.9644    4.1552    1.8667 C   0  0  1  0  0  0  0  0  0  0  0  0
   -3.9139    5.6490    1.5831 C   0  0  0  0  0  0  0  0  0  0  0  0
   -3.6124    6.3938    2.8733 C   0  0  1  0  0  0  0  0  0  0  0  0
   -2.3148    5.8650    3.4833 C   0  0  1  0  0  0  0  0  0  0  0  0
   -1.9802    6.5247    4.8089 C   0  0  0  0  0  0  0  0  0  0  0  0
   -4.2460    3.3669    0.6437 N   0  3  0  0  0  0  0  0  0  0  0  0
   -3.1995    6.7747    5.6141 N   0  3  0  0  0  0  0  0  0  0  0  0
   -1.5916    3.8909    1.6702 O   0  0  0  0  0  0  0  0  0  0  0  0
   -3.4941    7.7851    2.6140 O   0  0  0  0  0  0  0  0  0  0  0  0
   -2.4223    4.4458    3.7278 O   0  0  0  0  0  0  0  0  0  0  0  0
  1  2  1  0  0  0  0
  1 10  1  0  0  0  0
  1 21  1  1  0  0  0
  2  3  1  0  0  0  0
  2  7  1  1  0  0  0
  3  4  1  0  0  0  0
  3  8  1  6  0  0  0
  4  5  1  0  0  0  0
  4  9  1  1  0  0  0
  5  6  1  6  0  0  0
  5 10  1  0  0  0  0
  6 11  1  0  0  0  0
 12 13  1  0  0  0  0
 12 17  1  0  0  0  0
 12 18  1  6  0  0  0
 13 14  1  0  0  0  0
 14 15  1  0  0  0  0
 14 19  1  6  0  0  0
 15 16  1  0  0  0  0
 15 30  1  1  0  0  0
 16 17  1  0  0  0  0
 16 20  1  6  0  0  0
 17 21  1  1  0  0  0
 22 23  1  0  0  0  0
 22 30  1  6  0  0  0
 22 32  1  0  0  0  0
 23 24  1  0  0  0  0
 23 28  1  6  0  0  0
 24 25  1  0  0  0  0
 25 26  1  0  0  0  0
 25 31  1  6  0  0  0
 26 27  1  1  0  0  0
 26 32  1  0  0  0  0
 27 29  1  0  0  0  0
M  CHG  5   8   1  18   1  19   1  28   1  29   1
M  END
>  <CHROM.1>
-85.76642161,169.42805757,75.76491232,50.74963614,-59.80655410,179.64782957
-159.45551133,20.16491399,7.21259061,-69.63647302,136.06458494,-148.42972714
5.62595435,58.13397105,37.51177736,54.68199022,1.16049122,3.72408783,2.88114310
-0.16324381,-0.15115033,0.38243175

>  <Name>
1tob

>  <RI>
0

>  <Rbt.Current_Directory>
/home/itssahil/PROJECTS/Mol_Feturizer/New_Systems/rnas/1tob

>  <Rbt.Executable>
rbdock ($Id: //depot/dev/client3/rdock/2013.1/src/exe/rbdock.cxx#4 $)

>  <Rbt.Library>
libRbt.so (2013.1, Build901 2013/11/27)

>  <Rbt.Parameter_File>
/export/apps/rDock/src/rDock_2013.1_src/data/scripts/dock_solv.prm

>  <Rbt.Receptor>
prm/blind_docking_100.prm

>  <SCORE>
-21.6656

>  <SCORE.INTER>
-44.9222

>  <SCORE.INTER.CONST>
1

>  <SCORE.INTER.POLAR>
-6.29357

>  <SCORE.INTER.ROT>
6

>  <SCORE.INTER.SOLV>
35.5261

>  <SCORE.INTER.VDW>
-28.4116

>  <SCORE.INTER.norm>
-1.40382

>  <SCORE.INTRA>
12.9924

>  <SCORE.INTRA.DIHEDRAL>
7.69207

>  <SCORE.INTRA.DIHEDRAL.0>
22.9177

>  <SCORE.INTRA.POLAR>
-0.739604

>  <SCORE.INTRA.POLAR.0>
-0.311208

>  <SCORE.INTRA.REPUL>
0.192883

>  <SCORE.INTRA.REPUL.0>
0

>  <SCORE.INTRA.SOLV>
5.40053

>  <SCORE.INTRA.SOLV.lig_0>
-132.657

>  <SCORE.INTRA.VDW>
7.99638

>  <SCORE.INTRA.VDW.0>
-4.68867

>  <SCORE.INTRA.norm>
0.406014

>  <SCORE.RESTR>
10.2642

>  <SCORE.RESTR.CAVITY>
10.2642

>  <SCORE.RESTR.norm>
0.320755

>  <SCORE.SYSTEM>
0

>  <SCORE.SYSTEM.CONST>
0

>  <SCORE.SYSTEM.DIHEDRAL>
0

>  <SCORE.SYSTEM.SOLV>
0

>  <SCORE.SYSTEM.norm>
0

>  <SCORE.heavy>
32

>  <SCORE.norm>
-0.677049

>  <RMSD>
7.560

$$$$
1tob
 OpenBabel11021811413D
libRbt.so/2013.1/901 2013/11/27
 32 34  0  0  0  0  0  0  0  0999 V2000
    4.0384    3.5035    1.7735 C   0  0  2  0  0  0  0  0  0  0  0  0
    5.0017    2.3191    1.7936 C   0  0  1  0  0  0  0  0  0  0  0  0
    5.7418    2.2826    3.1237 C   0  0  2  0  0  0  0  0  0  0  0  0
    6.4375    3.6191    3.3524 C   0  0  1  0  0  0  0  0  0  0  0  0
    5.4192    4.7533    3.2761 C   0  0  1  0  0  0  0  0  0  0  0  0
    6.0636    6.1181    3.4195 C   0  0  0  0  0  0  0  0  0  0  0  0
    4.2783    1.1098    1.6147 O   0  0  0  0  0  0  0  0  0  0  0  0
    6.6911    1.1496    3.1754 N   0  3  0  0  0  0  0  0  0  0  0  0
    7.0740    3.6186    4.6231 O   0  0  0  0  0  0  0  0  0  0  0  0
    4.7464    4.7292    1.9987 O   0  0  0  0  0  0  0  0  0  0  0  0
    5.9736    6.8638    2.2137 O   0  0  0  0  0  0  0  0  0  0  0  0
    1.5327    1.6156    3.3980 C   0  0  2  0  0  0  0  0  0  0  0  0
    0.2594    0.8988    2.9703 C   0  0  0  0  0  0  0  0  0  0  0  0
   -0.8929    1.8940    2.8305 C   0  0  1  0  0  0  0  0  0  0  0  0
   -0.5359    2.9512    1.7880 C   0  0  2  0  0  0  0  0  0  0  0  0
    0.7466    3.6769    2.1975 C   0  0  1  0  0  0  0  0  0  0  0  0
    1.8875    2.6737    2.3646 C   0  0  1  0  0  0  0  0  0  0  0  0
    2.6592    0.6625    3.5030 N   0  3  0  0  0  0  0  0  0  0  0  0
   -2.1472    1.1710    2.4959 N   0  3  0  0  0  0  0  0  0  0  0  0
    1.0908    4.6407    1.2112 O   0  0  0  0  0  0  0  0  0  0  0  0
    3.0868    3.3604    2.7658 O   0  0  0  0  0  0  0  0  0  0  0  0
   -2.6630    3.7624    2.5504 C   0  0  1  0  0  0  0  0  0  0  0  0
   -3.9897    4.1136    1.8748 C   0  0  1  0  0  0  0  0  0  0  0  0
   -3.9913    5.5719    1.4416 C   0  0  0  0  0  0  0  0  0  0  0  0
   -3.6868    6.4516    2.6432 C   0  0  1  0  0  0  0  0  0  0  0  0
   -2.3613    6.0245    3.2728 C   0  0  1  0  0  0  0  0  0  0  0  0
   -2.0205    6.8240    4.5173 C   0  0  0  0  0  0  0  0  0  0  0  0
   -4.2717    3.1980    0.7439 N   0  3  0  0  0  0  0  0  0  0  0  0
   -2.2268    6.0256    5.7492 N   0  3  0  0  0  0  0  0  0  0  0  0
   -1.6144    3.8991    1.6505 O   0  0  0  0  0  0  0  0  0  0  0  0
   -3.6169    7.8124    2.2430 O   0  0  0  0  0  0  0  0  0  0  0  0
   -2.4199    4.6348    3.6609 O   0  0  0  0  0  0  0  0  0  0  0  0
  1  2  1  0  0  0  0
  1 10  1  0  0  0  0
  1 21  1  1  0  0  0
  2  3  1  0  0  0  0
  2  7  1  1  0  0  0
  3  4  1  0  0  0  0
  3  8  1  6  0  0  0
  4  5  1  0  0  0  0
  4  9  1  1  0  0  0
  5  6  1  6  0  0  0
  5 10  1  0  0  0  0
  6 11  1  0  0  0  0
 12 13  1  0  0  0  0
 12 17  1  0  0  0  0
 12 18  1  6  0  0  0
 13 14  1  0  0  0  0
 14 15  1  0  0  0  0
 14 19  1  6  0  0  0
 15 16  1  0  0  0  0
 15 30  1  1  0  0  0
 16 17  1  0  0  0  0
 16 20  1  6  0  0  0
 17 21  1  1  0  0  0
 22 23  1  0  0  0  0
 22 30  1  6  0  0  0
 22 32  1  0  0  0  0
 23 24  1  0  0  0  0
 23 28  1  6  0  0  0
 24 25  1  0  0  0  0
 25 26  1  0  0  0  0
 25 31  1  6  0  0  0
 26 27  1  1  0  0  0
 26 32  1  0  0  0  0
 27 29  1  0  0  0  0
M  CHG  5   8   1  18   1  19   1  28   1  29   1
M  END
>  <CHROM.1>
-90.90818222,-176.51959347,57.85603282,86.28279602,112.94935168,-56.46495077
-43.47160075,23.51680442,6.37666996,81.16142694,132.62680124,-144.87700340
12.54269881,81.97183356,105.60656565,157.01243306,1.15709708,3.80412667,2.69771137
-0.17607211,-0.07126141,0.14639197

>  <Name>
1tob

>  <RI>
0

>  <Rbt.Current_Directory>
/home/itssahil/PROJECTS/Mol_Feturizer/New_Systems/rnas/1tob

>  <Rbt.Executable>
rbdock ($Id: //depot/dev/client3/rdock/2013.1/src/exe/rbdock.cxx#4 $)

>  <Rbt.Library>
libRbt.so (2013.1, Build901 2013/11/27)

>  <Rbt.Parameter_File>
/export/apps/rDock/src/rDock_2013.1_src/data/scripts/dock_solv.prm

>  <Rbt.Receptor>
prm/blind_docking_80.prm

>  <SCORE>
-19.0023

>  <SCORE.INTER>
-48.117

>  <SCORE.INTER.CONST>
1

>  <SCORE.INTER.POLAR>
-6.85428

>  <SCORE.INTER.ROT>
6

>  <SCORE.INTER.SOLV>
37.2528

>  <SCORE.INTER.VDW>
-29.248

>  <SCORE.INTER.norm>
-1.50366

>  <SCORE.INTRA>
20.6018

>  <SCORE.INTRA.DIHEDRAL>
23.2576

>  <SCORE.INTRA.DIHEDRAL.0>
22.9177

>  <SCORE.INTRA.POLAR>
-0.636583

>  <SCORE.INTRA.POLAR.0>
-0.311208

>  <SCORE.INTRA.REPUL>
0

>  <SCORE.INTRA.REPUL.0>
0

>  <SCORE.INTRA.SOLV>
4.62816

>  <SCORE.INTRA.SOLV.lig_0>
-132.657

>  <SCORE.INTRA.VDW>
8.82332

>  <SCORE.INTRA.VDW.0>
-4.68867

>  <SCORE.INTRA.norm>
0.643807

>  <SCORE.RESTR>
8.51289

>  <SCORE.RESTR.CAVITY>
8.51289

>  <SCORE.RESTR.norm>
0.266028

>  <SCORE.SYSTEM>
0

>  <SCORE.SYSTEM.CONST>
0

>  <SCORE.SYSTEM.DIHEDRAL>
0

>  <SCORE.SYSTEM.SOLV>
0

>  <SCORE.SYSTEM.norm>
0

>  <SCORE.heavy>
32

>  <SCORE.norm>
-0.593823

>  <RMSD>
7.627

$$$$
1tob
 OpenBabel11021811413D
libRbt.so/2013.1/901 2013/11/27
 32 34  0  0  0  0  0  0  0  0999 V2000
    4.0717    3.6214    1.8263 C   0  0  2  0  0  0  0  0  0  0  0  0
    5.0125    2.4189    1.8319 C   0  0  1  0  0  0  0  0  0  0  0  0
    5.7397    2.3431    3.1674 C   0  0  2  0  0  0  0  0  0  0  0  0
    6.4581    3.6617    3.4279 C   0  0  1  0  0  0  0  0  0  0  0  0
    5.4618    4.8161    3.3647 C   0  0  1  0  0  0  0  0  0  0  0  0
    6.1302    6.1655    3.5400 C   0  0  0  0  0  0  0  0  0  0  0  0
    4.2684    1.2271    1.6235 O   0  0  0  0  0  0  0  0  0  0  0  0
    6.6672    1.1917    3.2055 N   0  3  0  0  0  0  0  0  0  0  0  0
    7.0830    3.6249    4.7039 O   0  0  0  0  0  0  0  0  0  0  0  0
    4.8002    4.8290    2.0812 O   0  0  0  0  0  0  0  0  0  0  0  0
    7.5449    6.0569    3.4707 O   0  0  0  0  0  0  0  0  0  0  0  0
    1.5871    1.6955    3.4153 C   0  0  2  0  0  0  0  0  0  0  0  0
    0.3268    0.9616    2.9779 C   0  0  0  0  0  0  0  0  0  0  0  0
   -0.8435    1.9374    2.8524 C   0  0  1  0  0  0  0  0  0  0  0  0
   -0.5065    3.0156    1.8249 C   0  0  2  0  0  0  0  0  0  0  0  0
    0.7627    3.7588    2.2442 C   0  0  1  0  0  0  0  0  0  0  0  0
    1.9218    2.7744    2.3969 C   0  0  1  0  0  0  0  0  0  0  0  0
    2.7309    0.7618    3.5066 N   0  3  0  0  0  0  0  0  0  0  0  0
   -2.0846    1.1963    2.5081 N   0  3  0  0  0  0  0  0  0  0  0  0
    1.0887    4.7425    1.2715 O   0  0  0  0  0  0  0  0  0  0  0  0
    3.1086    3.4773    2.8074 O   0  0  0  0  0  0  0  0  0  0  0  0
   -2.6481    3.7763    2.5986 C   0  0  1  0  0  0  0  0  0  0  0  0
   -3.9804    4.1195    1.9300 C   0  0  1  0  0  0  0  0  0  0  0  0
   -4.0044    5.5853    1.5236 C   0  0  0  0  0  0  0  0  0  0  0  0
   -3.7126    6.4474    2.7410 C   0  0  1  0  0  0  0  0  0  0  0  0
   -2.3804    6.0292    3.3622 C   0  0  1  0  0  0  0  0  0  0  0  0
   -2.0510    6.8109    4.6210 C   0  0  0  0  0  0  0  0  0  0  0  0
   -4.2491    3.2206    0.7827 N   0  3  0  0  0  0  0  0  0  0  0  0
   -2.3872    6.0406    5.8422 N   0  3  0  0  0  0  0  0  0  0  0  0
   -1.6023    3.9453    1.7010 O   0  0  0  0  0  0  0  0  0  0  0  0
   -3.6637    7.8162    2.3656 O   0  0  0  0  0  0  0  0  0  0  0  0
   -2.4176    4.6318    3.7248 O   0  0  0  0  0  0  0  0  0  0  0  0
  1  2  1  0  0  0  0
  1 10  1  0  0  0  0
  1 21  1  1  0  0  0
  2  3  1  0  0  0  0
  2  7  1  1  0  0  0
  3  4  1  0  0  0  0
  3  8  1  6  0  0  0
  4  5  1  0  0  0  0
  4  9  1  1  0  0  0
  5  6  1  6  0  0  0
  5 10  1  0  0  0  0
  6 11  1  0  0  0  0
 12 13  1  0  0  0  0
 12 17  1  0  0  0  0
 12 18  1  6  0  0  0
 13 14  1  0  0  0  0
 14 15  1  0  0  0  0
 14 19  1  6  0  0  0
 15 16  1  0  0  0  0
 15 30  1  1  0  0  0
 16 17  1  0  0  0  0
 16 20  1  6  0  0  0
 17 21  1  1  0  0  0
 22 23  1  0  0  0  0
 22 30  1  6  0  0  0
 22 32  1  0  0  0  0
 23 24  1  0  0  0  0
 23 28  1  6  0  0  0
 24 25  1  0  0  0  0
 25 26  1  0  0  0  0
 25 31  1  6  0  0  0
 26 27  1  1  0  0  0
 26 32  1  0  0  0  0
 27 29  1  0  0  0  0
M  CHG  5   8   1  18   1  19   1  28   1  29   1
M  END
>  <CHROM.1>
-88.56752718,173.80631742,170.64635724,176.27218504,10.98335173,58.98385937
72.80898211,23.06825067,6.33741231,-73.87459388,131.02562683,-145.15783818
12.05865827,66.34102634,99.26014900,42.80280443,1.22458528,3.82404310,2.79387829
0.14883105,0.09262303,-2.90938754

>  <Name>
1tob

>  <RI>
0

>  <Rbt.Current_Directory>
/home/itssahil/PROJECTS/Mol_Feturizer/New_Systems/rnas/1tob

>  <Rbt.Executable>
rbdock ($Id: //depot/dev/client3/rdock/2013.1/src/exe/rbdock.cxx#4 $)

>  <Rbt.Library>
libRbt.so (2013.1, Build901 2013/11/27)

>  <Rbt.Parameter_File>
/export/apps/rDock/src/rDock_2013.1_src/data/scripts/dock_solv.prm

>  <Rbt.Receptor>
prm/blind_docking_80.prm

>  <SCORE>
-26.495

>  <SCORE.INTER>
-53.2186

>  <SCORE.INTER.CONST>
1

>  <SCORE.INTER.POLAR>
-7.19305

>  <SCORE.INTER.ROT>
6

>  <SCORE.INTER.SOLV>
35.5291

>  <SCORE.INTER.VDW>
-30.9453

>  <SCORE.INTER.norm>
-1.66308

>  <SCORE.INTRA>
17.5173

>  <SCORE.INTRA.DIHEDRAL>
15.766

>  <SCORE.INTRA.DIHEDRAL.0>
22.9177

>  <SCORE.INTRA.POLAR>
-0.687443

>  <SCORE.INTRA.POLAR.0>
-0.311208

>  <SCORE.INTRA.REPUL>
0

>  <SCORE.INTRA.REPUL.0>
0

>  <SCORE.INTRA.SOLV>
5.19132

>  <SCORE.INTRA.SOLV.lig_0>
-132.657

>  <SCORE.INTRA.VDW>
9.37594

>  <SCORE.INTRA.VDW.0>
-4.68867

>  <SCORE.INTRA.norm>
0.547416

>  <SCORE.RESTR>
9.20637

>  <SCORE.RESTR.CAVITY>
9.20637

>  <SCORE.RESTR.norm>
0.287699

>  <SCORE.SYSTEM>
0

>  <SCORE.SYSTEM.CONST>
0

>  <SCORE.SYSTEM.DIHEDRAL>
0

>  <SCORE.SYSTEM.SOLV>
0

>  <SCORE.SYSTEM.norm>
0

>  <SCORE.heavy>
32

>  <SCORE.norm>
-0.827967

>  <RMSD>
7.637

$$$$
1tob
 OpenBabel11021811413D
libRbt.so/2013.1/901 2013/11/27
 32 34  0  0  0  0  0  0  0  0999 V2000
   -7.2616    8.9447    2.0868 C   0  0  2  0  0  0  0  0  0  0  0  0
   -6.4648    9.5591    3.2352 C   0  0  1  0  0  0  0  0  0  0  0  0
   -7.4202   10.1114    4.2843 C   0  0  2  0  0  0  0  0  0  0  0  0
   -8.3760   11.1002    3.6276 C   0  0  1  0  0  0  0  0  0  0  0  0
   -9.1021   10.4262    2.4666 C   0  0  1  0  0  0  0  0  0  0  0  0
  -10.0131   11.3826    1.7224 C   0  0  0  0  0  0  0  0  0  0  0  0
   -5.6292    8.5712    3.8212 O   0  0  0  0  0  0  0  0  0  0  0  0
   -6.6812   10.7221    5.4104 N   0  3  0  0  0  0  0  0  0  0  0  0
   -9.3156   11.5690    4.5853 O   0  0  0  0  0  0  0  0  0  0  0  0
   -8.1447    9.9169    1.5131 O   0  0  0  0  0  0  0  0  0  0  0  0
   -9.3211   12.5600    1.3313 O   0  0  0  0  0  0  0  0  0  0  0  0
   -7.7992    6.8905    0.3505 C   0  0  2  0  0  0  0  0  0  0  0  0
   -7.5733    5.5729   -0.3781 C   0  0  0  0  0  0  0  0  0  0  0  0
   -6.2495    4.9426    0.0554 C   0  0  1  0  0  0  0  0  0  0  0  0
   -6.2694    4.6884    1.5610 C   0  0  2  0  0  0  0  0  0  0  0  0
   -6.5035    6.0013    2.3097 C   0  0  1  0  0  0  0  0  0  0  0  0
   -7.8132    6.6415    1.8508 C   0  0  1  0  0  0  0  0  0  0  0  0
   -9.0944    7.4889   -0.0405 N   0  3  0  0  0  0  0  0  0  0  0  0
   -6.0011    3.7022   -0.7243 N   0  3  0  0  0  0  0  0  0  0  0  0
   -6.5492    5.7564    3.7090 O   0  0  0  0  0  0  0  0  0  0  0  0
   -8.0195    7.8841    2.5467 O   0  0  0  0  0  0  0  0  0  0  0  0
   -3.9114    4.4050    1.2095 C   0  0  1  0  0  0  0  0  0  0  0  0
   -2.7024    3.5902    1.6726 C   0  0  1  0  0  0  0  0  0  0  0  0
   -2.3368    3.9559    3.1033 C   0  0  0  0  0  0  0  0  0  0  0  0
   -2.1108    5.4563    3.1946 C   0  0  1  0  0  0  0  0  0  0  0  0
   -3.3511    6.1963    2.6952 C   0  0  1  0  0  0  0  0  0  0  0  0
   -3.1752    7.7040    2.7027 C   0  0  0  0  0  0  0  0  0  0  0  0
   -2.9464    2.1368    1.5160 N   0  3  0  0  0  0  0  0  0  0  0  0
   -1.8630    8.0949    3.2708 N   0  3  0  0  0  0  0  0  0  0  0  0
   -5.0230    4.0976    1.9828 O   0  0  0  0  0  0  0  0  0  0  0  0
   -1.8352    5.8245    4.5383 O   0  0  0  0  0  0  0  0  0  0  0  0
   -3.6486    5.8079    1.3365 O   0  0  0  0  0  0  0  0  0  0  0  0
  1  2  1  0  0  0  0
  1 10  1  0  0  0  0
  1 21  1  1  0  0  0
  2  3  1  0  0  0  0
  2  7  1  1  0  0  0
  3  4  1  0  0  0  0
  3  8  1  1  0  0  0
  4  5  1  0  0  0  0
  4  9  1  1  0  0  0
  5  6  1  6  0  0  0
  5 10  1  0  0  0  0
  6 11  1  0  0  0  0
 12 13  1  0  0  0  0
 12 17  1  0  0  0  0
 12 18  1  6  0  0  0
 13 14  1  0  0  0  0
 14 15  1  0  0  0  0
 14 19  1  6  0  0  0
 15 16  1  0  0  0  0
 15 30  1  1  0  0  0
 16 17  1  0  0  0  0
 16 20  1  1  0  0  0
 17 21  1  1  0  0  0
 22 23  1  0  0  0  0
 22 30  1  1  0  0  0
 22 32  1  0  0  0  0
 23 24  1  0  0  0  0
 23 28  1  1  0  0  0
 24 25  1  0  0  0  0
 25 26  1  0  0  0  0
 25 31  1  1  0  0  0
 26 27  1  6  0  0  0
 26 32  1  0  0  0  0
 27 29  1  0  0  0  0
M  CHG  5   8   1  18   1  19   1  28   1  29   1
M  END
>  <CHROM.1>
-125.21987572,168.52280749,-119.29041571,66.71484106,52.21729237,175.45668922
57.41108938,110.77418079,27.58986774,47.33695434,-45.17006386,-173.55143541
52.79240761,57.61847044,-3.33410096,69.37076774,-6.00471048,7.26521184,2.29612796
2.38443574,-0.51078596,0.59896277

>  <Name>
1tob

>  <RI>
0

>  <Rbt.Current_Directory>
/home/itssahil/PROJECTS/Mol_Feturizer/New_Systems/rnas/1tob

>  <Rbt.Executable>
rbdock ($Id: //depot/dev/client3/rdock/2013.1/src/exe/rbdock.cxx#4 $)

>  <Rbt.Library>
libRbt.so (2013.1, Build901 2013/11/27)

>  <Rbt.Parameter_File>
/export/apps/rDock/src/rDock_2013.1_src/data/scripts/dock_solv.prm

>  <Rbt.Receptor>
prm/pocket_docking_2.prm

>  <SCORE>
-41.9012

>  <SCORE.INTER>
-50.5837

>  <SCORE.INTER.CONST>
1

>  <SCORE.INTER.POLAR>
-9.76624

>  <SCORE.INTER.ROT>
6

>  <SCORE.INTER.SOLV>
33.0235

>  <SCORE.INTER.VDW>
-19.7762

>  <SCORE.INTER.norm>
-1.58074

>  <SCORE.INTRA>
6.6735

>  <SCORE.INTRA.DIHEDRAL>
4.007

>  <SCORE.INTRA.DIHEDRAL.0>
22.9177

>  <SCORE.INTRA.POLAR>
-0.777483

>  <SCORE.INTRA.POLAR.0>
-0.311208

>  <SCORE.INTRA.REPUL>
0

>  <SCORE.INTRA.REPUL.0>
0

>  <SCORE.INTRA.SOLV>
1.95999

>  <SCORE.INTRA.SOLV.lig_0>
-132.657

>  <SCORE.INTRA.VDW>
6.33345

>  <SCORE.INTRA.VDW.0>
-4.68867

>  <SCORE.INTRA.norm>
0.208547

>  <SCORE.RESTR>
2.00906

>  <SCORE.RESTR.CAVITY>
2.00906

>  <SCORE.RESTR.norm>
0.0627832

>  <SCORE.SYSTEM>
0

>  <SCORE.SYSTEM.CONST>
0

>  <SCORE.SYSTEM.DIHEDRAL>
0

>  <SCORE.SYSTEM.SOLV>
0

>  <SCORE.SYSTEM.norm>
0

>  <SCORE.heavy>
32

>  <SCORE.norm>
-1.30941

>  <RMSD>
7.763

$$$$
1tob
 OpenBabel11021811413D
libRbt.so/2013.1/901 2013/11/27
 32 34  0  0  0  0  0  0  0  0999 V2000
   -9.1309    8.0506    2.8726 C   0  0  2  0  0  0  0  0  0  0  0  0
  -10.4824    8.6773    2.5379 C   0  0  1  0  0  0  0  0  0  0  0  0
  -10.2962   10.1523    2.2091 C   0  0  2  0  0  0  0  0  0  0  0  0
   -9.5907   10.8441    3.3694 C   0  0  1  0  0  0  0  0  0  0  0  0
   -8.2721   10.1369    3.6702 C   0  0  1  0  0  0  0  0  0  0  0  0
   -7.5578   10.7325    4.8675 C   0  0  0  0  0  0  0  0  0  0  0  0
  -11.0589    8.0079    1.4256 O   0  0  0  0  0  0  0  0  0  0  0  0
  -11.5888   10.7945    1.8865 N   0  3  0  0  0  0  0  0  0  0  0  0
   -9.3511   12.2064    3.0430 O   0  0  0  0  0  0  0  0  0  0  0  0
   -8.5136    8.7440    3.9644 O   0  0  0  0  0  0  0  0  0  0  0  0
   -7.0421   12.0234    4.5748 O   0  0  0  0  0  0  0  0  0  0  0  0
   -7.9602    7.1568   -0.4171 C   0  0  2  0  0  0  0  0  0  0  0  0
   -7.7571    5.8415   -1.1566 C   0  0  0  0  0  0  0  0  0  0  0  0
   -6.5096    5.1247   -0.6393 C   0  0  1  0  0  0  0  0  0  0  0  0
   -6.6594    4.8445    0.8543 C   0  0  2  0  0  0  0  0  0  0  0  0
   -6.8725    6.1552    1.6132 C   0  0  1  0  0  0  0  0  0  0  0  0
   -8.1035    6.8816    1.0719 C   0  0  1  0  0  0  0  0  0  0  0  0
   -9.1843    7.8393   -0.8905 N   0  3  0  0  0  0  0  0  0  0  0  0
   -6.2757    3.8861   -1.4262 N   0  3  0  0  0  0  0  0  0  0  0  0
   -7.0394    5.8879    2.9991 O   0  0  0  0  0  0  0  0  0  0  0  0
   -8.2889    8.1214    1.7786 O   0  0  0  0  0  0  0  0  0  0  0  0
   -4.2810    4.5298    0.7647 C   0  0  1  0  0  0  0  0  0  0  0  0
   -3.1110    3.9126    1.5328 C   0  0  1  0  0  0  0  0  0  0  0  0
   -3.0653    4.4585    2.9521 C   0  0  0  0  0  0  0  0  0  0  0  0
   -3.0075    5.9766    2.9032 C   0  0  1  0  0  0  0  0  0  0  0  0
   -4.1939    6.5127    2.1028 C   0  0  1  0  0  0  0  0  0  0  0  0
   -4.1695    8.0239    1.9622 C   0  0  0  0  0  0  0  0  0  0  0  0
   -3.1784    2.4323    1.5091 N   0  3  0  0  0  0  0  0  0  0  0  0
   -3.0454    8.4716    1.1056 N   0  3  0  0  0  0  0  0  0  0  0  0
   -5.4858    4.1720    1.3550 O   0  0  0  0  0  0  0  0  0  0  0  0
   -3.0331    6.5057    4.2208 O   0  0  0  0  0  0  0  0  0  0  0  0
   -4.1847    5.9595    0.7689 O   0  0  0  0  0  0  0  0  0  0  0  0
  1  2  1  0  0  0  0
  1 10  1  0  0  0  0
  1 21  1  6  0  0  0
  2  3  1  0  0  0  0
  2  7  1  6  0  0  0
  3  4  1  0  0  0  0
  3  8  1  1  0  0  0
  4  5  1  0  0  0  0
  4  9  1  6  0  0  0
  5  6  1  1  0  0  0
  5 10  1  0  0  0  0
  6 11  1  0  0  0  0
 12 13  1  0  0  0  0
 12 17  1  0  0  0  0
 12 18  1  6  0  0  0
 13 14  1  0  0  0  0
 14 15  1  0  0  0  0
 14 19  1  6  0  0  0
 15 16  1  0  0  0  0
 15 30  1  1  0  0  0
 16 17  1  0  0  0  0
 16 20  1  1  0  0  0
 17 21  1  1  0  0  0
 22 23  1  0  0  0  0
 22 30  1  1  0  0  0
 22 32  1  0  0  0  0
 23 24  1  0  0  0  0
 23 28  1  1  0  0  0
 24 25  1  0  0  0  0
 25 26  1  0  0  0  0
 25 31  1  1  0  0  0
 26 27  1  6  0  0  0
 26 32  1  0  0  0  0
 27 29  1  0  0  0  0
M  CHG  5   8   1  18   1  19   1  28   1  29   1
M  END
>  <CHROM.1>
-104.59043819,47.53947780,53.47177392,-58.69055044,-70.51412299,-58.33537949
20.58100640,161.06506466,33.97692039,59.59353555,145.00636536,171.09523275
37.18538562,-59.14011241,68.02479975,-58.95869185,-6.82720968,7.30818053
1.85460301,2.41763575,-0.40362801,0.67143128

>  <Name>
1tob

>  <RI>
0

>  <Rbt.Current_Directory>
/home/itssahil/PROJECTS/Mol_Feturizer/New_Systems/rnas/1tob

>  <Rbt.Executable>
rbdock ($Id: //depot/dev/client3/rdock/2013.1/src/exe/rbdock.cxx#4 $)

>  <Rbt.Library>
libRbt.so (2013.1, Build901 2013/11/27)

>  <Rbt.Parameter_File>
/export/apps/rDock/src/rDock_2013.1_src/data/scripts/dock_solv.prm

>  <Rbt.Receptor>
prm/pocket_docking_6.prm

>  <SCORE>
-30.0823

>  <SCORE.INTER>
-29.9877

>  <SCORE.INTER.CONST>
1

>  <SCORE.INTER.POLAR>
-4.81242

>  <SCORE.INTER.ROT>
6

>  <SCORE.INTER.SOLV>
20.9094

>  <SCORE.INTER.VDW>
-18.5202

>  <SCORE.INTER.norm>
-0.937114

>  <SCORE.INTRA>
-0.0946731

>  <SCORE.INTRA.DIHEDRAL>
-2.95835

>  <SCORE.INTRA.DIHEDRAL.0>
22.9177

>  <SCORE.INTRA.POLAR>
-0.537128

>  <SCORE.INTRA.POLAR.0>
-0.311208

>  <SCORE.INTRA.REPUL>
0.000501457

>  <SCORE.INTRA.REPUL.0>
0

>  <SCORE.INTRA.SOLV>
-1.82266

>  <SCORE.INTRA.SOLV.lig_0>
-132.657

>  <SCORE.INTRA.VDW>
4.11956

>  <SCORE.INTRA.VDW.0>
-4.68867

>  <SCORE.INTRA.norm>
-0.00295853

>  <SCORE.RESTR>
0

>  <SCORE.RESTR.CAVITY>
0

>  <SCORE.RESTR.norm>
0

>  <SCORE.SYSTEM>
0

>  <SCORE.SYSTEM.CONST>
0

>  <SCORE.SYSTEM.DIHEDRAL>
0

>  <SCORE.SYSTEM.SOLV>
0

>  <SCORE.SYSTEM.norm>
0

>  <SCORE.heavy>
32

>  <SCORE.norm>
-0.940073

>  <RMSD>
7.769

$$$$
1tob
 OpenBabel11021811413D
libRbt.so/2013.1/901 2013/11/27
 32 34  0  0  0  0  0  0  0  0999 V2000
   -5.3880    4.9691    2.8347 C   0  0  2  0  0  0  0  0  0  0  0  0
   -6.4182    5.0065    1.7084 C   0  0  1  0  0  0  0  0  0  0  0  0
   -6.3184    6.3322    0.9661 C   0  0  2  0  0  0  0  0  0  0  0  0
   -6.4776    7.4797    1.9564 C   0  0  1  0  0  0  0  0  0  0  0  0
   -5.4433    7.3497    3.0711 C   0  0  1  0  0  0  0  0  0  0  0  0
   -5.6001    8.4215    4.1318 C   0  0  0  0  0  0  0  0  0  0  0  0
   -6.1824    3.9342    0.8073 O   0  0  0  0  0  0  0  0  0  0  0  0
   -7.3092    6.4063   -0.1294 N   0  3  0  0  0  0  0  0  0  0  0  0
   -6.3173    8.7212    1.2834 O   0  0  0  0  0  0  0  0  0  0  0  0
   -5.5828    6.0719    3.7290 O   0  0  0  0  0  0  0  0  0  0  0  0
   -4.6168    8.2929    5.1489 O   0  0  0  0  0  0  0  0  0  0  0  0
   -2.6998    3.5273    1.0680 C   0  0  2  0  0  0  0  0  0  0  0  0
   -1.8757    2.2523    1.1836 C   0  0  0  0  0  0  0  0  0  0  0  0
   -0.7874    2.4138    2.2452 C   0  0  1  0  0  0  0  0  0  0  0  0
   -1.4284    2.7232    3.5962 C   0  0  2  0  0  0  0  0  0  0  0  0
   -2.2677    3.9979    3.4970 C   0  0  1  0  0  0  0  0  0  0  0  0
   -3.3346    3.8415    2.4139 C   0  0  1  0  0  0  0  0  0  0  0  0
   -3.7755    3.3656    0.0654 N   0  3  0  0  0  0  0  0  0  0  0  0
    0.0617    1.1951    2.2880 N   0  3  0  0  0  0  0  0  0  0  0  0
   -2.8849    4.2671    4.7486 O   0  0  0  0  0  0  0  0  0  0  0  0
   -4.1099    5.0497    2.3141 O   0  0  0  0  0  0  0  0  0  0  0  0
    0.2524    4.1024    4.6144 C   0  0  1  0  0  0  0  0  0  0  0  0
    1.5579    3.9900    5.4036 C   0  0  1  0  0  0  0  0  0  0  0  0
    1.2673    3.6561    6.8590 C   0  0  0  0  0  0  0  0  0  0  0  0
    0.3162    4.6947    7.4309 C   0  0  1  0  0  0  0  0  0  0  0  0
   -0.9494    4.7614    6.5769 C   0  0  1  0  0  0  0  0  0  0  0  0
   -1.9233    5.8225    7.0562 C   0  0  0  0  0  0  0  0  0  0  0  0
    2.4754    3.0068    4.7807 N   0  3  0  0  0  0  0  0  0  0  0  0
   -2.5287    6.5571    5.9198 N   0  3  0  0  0  0  0  0  0  0  0  0
   -0.4105    2.8823    4.6056 O   0  0  0  0  0  0  0  0  0  0  0  0
   -0.0197    4.3600    8.7696 O   0  0  0  0  0  0  0  0  0  0  0  0
   -0.6105    5.0793    5.2096 O   0  0  0  0  0  0  0  0  0  0  0  0
  1  2  1  0  0  0  0
  1 10  1  0  0  0  0
  1 21  1  6  0  0  0
  2  3  1  0  0  0  0
  2  7  1  6  0  0  0
  3  4  1  0  0  0  0
  3  8  1  6  0  0  0
  4  5  1  0  0  0  0
  4  9  1  6  0  0  0
  5  6  1  1  0  0  0
  5 10  1  0  0  0  0
  6 11  1  0  0  0  0
 12 13  1  0  0  0  0
 12 17  1  0  0  0  0
 12 18  1  6  0  0  0
 13 14  1  0  0  0  0
 14 15  1  0  0  0  0
 14 19  1  1  0  0  0
 15 16  1  0  0  0  0
 15 30  1  1  0  0  0
 16 17  1  0  0  0  0
 16 20  1  1  0  0  0
 17 21  1  6  0  0  0
 22 23  1  0  0  0  0
 22 30  1  1  0  0  0
 22 32  1  0  0  0  0
 23 24  1  0  0  0  0
 23 28  1  6  0  0  0
 24 25  1  0  0  0  0
 25 26  1  0  0  0  0
 25 31  1  1  0  0  0
 26 27  1  1  0  0  0
 26 32  1  0  0  0  0
 27 29  1  0  0  0  0
M  CHG  5   8   1  18   1  19   1  28   1  29   1
M  END
>  <CHROM.1>
-109.89577973,-178.41797339,52.53840681,-55.40318653,-179.19186988,-173.94926345
26.69620845,-15.00917524,78.50262523,3.49539757,131.43173461,-162.35064981
-64.99189502,-84.72427809,138.90216982,-72.60991966,-2.81138055,4.84094219
3.62054086,-2.93973251,-0.62203272,0.92243532

>  <Name>
1tob

>  <RI>
0

>  <Rbt.Current_Directory>
/home/itssahil/PROJECTS/Mol_Feturizer/New_Systems/rnas/1tob

>  <Rbt.Executable>
rbdock ($Id: //depot/dev/client3/rdock/2013.1/src/exe/rbdock.cxx#4 $)

>  <Rbt.Library>
libRbt.so (2013.1, Build901 2013/11/27)

>  <Rbt.Parameter_File>
/export/apps/rDock/src/rDock_2013.1_src/data/scripts/dock_solv.prm

>  <Rbt.Receptor>
prm/blind_docking_100.prm

>  <SCORE>
11.9627

>  <SCORE.INTER>
-8.01505

>  <SCORE.INTER.CONST>
1

>  <SCORE.INTER.POLAR>
-3.09505

>  <SCORE.INTER.ROT>
6

>  <SCORE.INTER.SOLV>
31.0906

>  <SCORE.INTER.VDW>
-12.9901

>  <SCORE.INTER.norm>
-0.25047

>  <SCORE.INTRA>
7.41162

>  <SCORE.INTRA.DIHEDRAL>
13.1539

>  <SCORE.INTRA.DIHEDRAL.0>
22.9177

>  <SCORE.INTRA.POLAR>
-2.51404

>  <SCORE.INTRA.POLAR.0>
-0.311208

>  <SCORE.INTRA.REPUL>
0.00354253

>  <SCORE.INTRA.REPUL.0>
0

>  <SCORE.INTRA.SOLV>
7.08762

>  <SCORE.INTRA.SOLV.lig_0>
-132.657

>  <SCORE.INTRA.VDW>
5.82089

>  <SCORE.INTRA.VDW.0>
-4.68867

>  <SCORE.INTRA.norm>
0.231613

>  <SCORE.RESTR>
12.5661

>  <SCORE.RESTR.CAVITY>
12.5661

>  <SCORE.RESTR.norm>
0.39269

>  <SCORE.SYSTEM>
0

>  <SCORE.SYSTEM.CONST>
0

>  <SCORE.SYSTEM.DIHEDRAL>
0

>  <SCORE.SYSTEM.SOLV>
0

>  <SCORE.SYSTEM.norm>
0

>  <SCORE.heavy>
32

>  <SCORE.norm>
0.373833

>  <RMSD>
7.799

$$$$
1tob
 OpenBabel11021811413D
libRbt.so/2013.1/901 2013/11/27
 32 34  0  0  0  0  0  0  0  0999 V2000
   -6.4370    5.5675    1.9470 C   0  0  2  0  0  0  0  0  0  0  0  0
   -5.8654    4.2513    1.4254 C   0  0  1  0  0  0  0  0  0  0  0  0
   -5.7169    4.3209   -0.0883 C   0  0  2  0  0  0  0  0  0  0  0  0
   -7.0613    4.6746   -0.7128 C   0  0  1  0  0  0  0  0  0  0  0  0
   -7.5855    5.9761   -0.1122 C   0  0  1  0  0  0  0  0  0  0  0  0
   -8.9594    6.3423   -0.6383 C   0  0  0  0  0  0  0  0  0  0  0  0
   -4.5984    4.0097    2.0203 O   0  0  0  0  0  0  0  0  0  0  0  0
   -5.1715    3.0573   -0.6298 N   0  3  0  0  0  0  0  0  0  0  0  0
   -6.9170    4.8094   -2.1203 O   0  0  0  0  0  0  0  0  0  0  0  0
   -7.6954    5.8500    1.3221 O   0  0  0  0  0  0  0  0  0  0  0  0
   -9.0079    6.2714   -2.0563 O   0  0  0  0  0  0  0  0  0  0  0  0
   -5.5812    7.0160    4.0556 C   0  0  2  0  0  0  0  0  0  0  0  0
   -4.7124    7.4607    5.2242 C   0  0  0  0  0  0  0  0  0  0  0  0
   -3.5046    6.5355    5.3748 C   0  0  1  0  0  0  0  0  0  0  0  0
   -2.6751    6.5596    4.0929 C   0  0  2  0  0  0  0  0  0  0  0  0
   -3.5347    6.1229    2.9057 C   0  0  1  0  0  0  0  0  0  0  0  0
   -4.7558    7.0330    2.7782 C   0  0  1  0  0  0  0  0  0  0  0  0
   -6.7339    7.9272    3.8845 N   0  3  0  0  0  0  0  0  0  0  0  0
   -2.7122    6.9291    6.5686 N   0  3  0  0  0  0  0  0  0  0  0  0
   -2.7670    6.1734    1.7106 O   0  0  0  0  0  0  0  0  0  0  0  0
   -5.5688    6.6069    1.6699 O   0  0  0  0  0  0  0  0  0  0  0  0
   -1.7976    4.4068    4.6923 C   0  0  1  0  0  0  0  0  0  0  0  0
   -0.5264    3.7839    5.2719 C   0  0  1  0  0  0  0  0  0  0  0  0
    0.5265    3.6264    4.1852 C   0  0  0  0  0  0  0  0  0  0  0  0
   -0.0570    2.8217    3.0354 C   0  0  1  0  0  0  0  0  0  0  0  0
   -1.3317    3.4953    2.5285 C   0  0  1  0  0  0  0  0  0  0  0  0
   -2.0035    2.7129    1.4146 C   0  0  0  0  0  0  0  0  0  0  0  0
   -0.0233    4.5705    6.4228 N   0  3  0  0  0  0  0  0  0  0  0  0
   -2.5565    1.4296    1.9094 N   0  3  0  0  0  0  0  0  0  0  0  0
   -1.5344    5.6862    4.2214 O   0  0  0  0  0  0  0  0  0  0  0  0
    0.8906    2.7232    1.9821 O   0  0  0  0  0  0  0  0  0  0  0  0
   -2.2898    3.6181    3.6020 O   0  0  0  0  0  0  0  0  0  0  0  0
  1  2  1  0  0  0  0
  1 10  1  0  0  0  0
  1 21  1  6  0  0  0
  2  3  1  0  0  0  0
  2  7  1  1  0  0  0
  3  4  1  0  0  0  0
  3  8  1  6  0  0  0
  4  5  1  0  0  0  0
  4  9  1  6  0  0  0
  5  6  1  6  0  0  0
  5 10  1  0  0  0  0
  6 11  1  0  0  0  0
 12 13  1  0  0  0  0
 12 17  1  0  0  0  0
 12 18  1  6  0  0  0
 13 14  1  0  0  0  0
 14 15  1  0  0  0  0
 14 19  1  1  0  0  0
 15 16  1  0  0  0  0
 15 30  1  1  0  0  0
 16 17  1  0  0  0  0
 16 20  1  6  0  0  0
 17 21  1  6  0  0  0
 22 23  1  0  0  0  0
 22 30  1  6  0  0  0
 22 32  1  0  0  0  0
 23 24  1  0  0  0  0
 23 28  1  1  0  0  0
 24 25  1  0  0  0  0
 25 26  1  0  0  0  0
 25 31  1  6  0  0  0
 26 27  1  6  0  0  0
 26 32  1  0  0  0  0
 27 29  1  0  0  0  0
M  CHG  5   8   1  18   1  19   1  28   1  29   1
M  END
>  <CHROM.1>
-100.91210879,64.02069056,10.60621878,70.29675764,-49.17822192,-59.73890358
-176.26315067,0.47304165,48.99075314,175.94523800,-39.30633061,-158.72708056
-30.99236503,-99.39798162,67.95590368,-57.02493296,-4.00866198,5.05801453
2.40277283,2.78652252,0.53995887,-2.22503510

>  <Name>
1tob

>  <RI>
0

>  <Rbt.Current_Directory>
/home/itssahil/PROJECTS/Mol_Feturizer/New_Systems/rnas/1tob

>  <Rbt.Executable>
rbdock ($Id: //depot/dev/client3/rdock/2013.1/src/exe/rbdock.cxx#4 $)

>  <Rbt.Library>
libRbt.so (2013.1, Build901 2013/11/27)

>  <Rbt.Parameter_File>
/export/apps/rDock/src/rDock_2013.1_src/data/scripts/dock_solv.prm

>  <Rbt.Receptor>
prm/blind_docking_80.prm

>  <SCORE>
-24.7386

>  <SCORE.INTER>
-40.1158

>  <SCORE.INTER.CONST>
1

>  <SCORE.INTER.POLAR>
-7.24003

>  <SCORE.INTER.ROT>
6

>  <SCORE.INTER.SOLV>
43.1835

>  <SCORE.INTER.VDW>
-24.605

>  <SCORE.INTER.norm>
-1.25362

>  <SCORE.INTRA>
10.6186

>  <SCORE.INTRA.DIHEDRAL>
2.44547

>  <SCORE.INTRA.DIHEDRAL.0>
22.9177

>  <SCORE.INTRA.POLAR>
0.292171

>  <SCORE.INTRA.POLAR.0>
-0.311208

>  <SCORE.INTRA.REPUL>
0.0962777

>  <SCORE.INTRA.REPUL.0>
0

>  <SCORE.INTRA.SOLV>
5.20492

>  <SCORE.INTRA.SOLV.lig_0>
-132.657

>  <SCORE.INTRA.VDW>
5.31863

>  <SCORE.INTRA.VDW.0>
-4.68867

>  <SCORE.INTRA.norm>
0.331831

>  <SCORE.RESTR>
4.75869

>  <SCORE.RESTR.CAVITY>
4.75869

>  <SCORE.RESTR.norm>
0.148709

>  <SCORE.SYSTEM>
0

>  <SCORE.SYSTEM.CONST>
0

>  <SCORE.SYSTEM.DIHEDRAL>
0

>  <SCORE.SYSTEM.SOLV>
0

>  <SCORE.SYSTEM.norm>
0

>  <SCORE.heavy>
32

>  <SCORE.norm>
-0.77308

>  <RMSD>
7.892

$$$$
1tob
 OpenBabel11021811413D
libRbt.so/2013.1/901 2013/11/27
 32 34  0  0  0  0  0  0  0  0999 V2000
   -4.8364    5.9403    4.8103 C   0  0  2  0  0  0  0  0  0  0  0  0
   -5.7219    7.1377    5.1467 C   0  0  1  0  0  0  0  0  0  0  0  0
   -4.8544    8.3108    5.5821 C   0  0  2  0  0  0  0  0  0  0  0  0
   -3.9686    7.8806    6.7453 C   0  0  1  0  0  0  0  0  0  0  0  0
   -3.1477    6.6572    6.3469 C   0  0  1  0  0  0  0  0  0  0  0  0
   -2.3008    6.1332    7.4900 C   0  0  0  0  0  0  0  0  0  0  0  0
   -6.4858    7.5043    4.0066 O   0  0  0  0  0  0  0  0  0  0  0  0
   -5.6814    9.4885    5.9236 N   0  3  0  0  0  0  0  0  0  0  0  0
   -3.1063    8.9487    7.1136 O   0  0  0  0  0  0  0  0  0  0  0  0
   -4.0242    5.5855    5.9367 O   0  0  0  0  0  0  0  0  0  0  0  0
   -1.1933    5.3820    7.0134 O   0  0  0  0  0  0  0  0  0  0  0  0
   -3.0544    5.7314    1.5842 C   0  0  2  0  0  0  0  0  0  0  0  0
   -2.9408    4.6413    0.5274 C   0  0  0  0  0  0  0  0  0  0  0  0
   -2.3023    3.3855    1.1215 C   0  0  1  0  0  0  0  0  0  0  0  0
   -3.1539    2.8751    2.2817 C   0  0  2  0  0  0  0  0  0  0  0  0
   -3.2858    3.9610    3.3506 C   0  0  1  0  0  0  0  0  0  0  0  0
   -3.8970    5.2237    2.7442 C   0  0  1  0  0  0  0  0  0  0  0  0
   -3.7017    6.9377    1.0237 N   0  3  0  0  0  0  0  0  0  0  0  0
   -2.1198    2.3612    0.0606 N   0  3  0  0  0  0  0  0  0  0  0  0
   -4.1019    3.4921    4.4156 O   0  0  0  0  0  0  0  0  0  0  0  0
   -4.0032    6.2467    3.7507 O   0  0  0  0  0  0  0  0  0  0  0  0
   -1.1985    1.5261    2.6291 C   0  0  1  0  0  0  0  0  0  0  0  0
   -0.6875    0.2874    3.3670 C   0  0  1  0  0  0  0  0  0  0  0  0
   -0.8498    0.4640    4.8692 C   0  0  0  0  0  0  0  0  0  0  0  0
   -0.1505    1.7423    5.3018 C   0  0  1  0  0  0  0  0  0  0  0  0
   -0.6998    2.9257    4.5059 C   0  0  1  0  0  0  0  0  0  0  0  0
   -0.0041    4.2317    4.8446 C   0  0  0  0  0  0  0  0  0  0  0  0
   -1.3572   -0.9403    2.8765 N   0  3  0  0  0  0  0  0  0  0  0  0
   -0.9392    5.3798    4.7724 N   0  3  0  0  0  0  0  0  0  0  0  0
   -2.5587    1.6922    2.8536 O   0  0  0  0  0  0  0  0  0  0  0  0
   -0.3502    1.9583    6.6911 O   0  0  0  0  0  0  0  0  0  0  0  0
   -0.5193    2.7002    3.0910 O   0  0  0  0  0  0  0  0  0  0  0  0
  1  2  1  0  0  0  0
  1 10  1  0  0  0  0
  1 21  1  6  0  0  0
  2  3  1  0  0  0  0
  2  7  1  6  0  0  0
  3  4  1  0  0  0  0
  3  8  1  1  0  0  0
  4  5  1  0  0  0  0
  4  9  1  6  0  0  0
  5  6  1  1  0  0  0
  5 10  1  0  0  0  0
  6 11  1  0  0  0  0
 12 13  1  0  0  0  0
 12 17  1  0  0  0  0
 12 18  1  6  0  0  0
 13 14  1  0  0  0  0
 14 15  1  0  0  0  0
 14 19  1  6  0  0  0
 15 16  1  0  0  0  0
 15 30  1  1  0  0  0
 16 17  1  0  0  0  0
 16 20  1  1  0  0  0
 17 21  1  1  0  0  0
 22 23  1  0  0  0  0
 22 30  1  1  0  0  0
 22 32  1  0  0  0  0
 23 24  1  0  0  0  0
 23 28  1  6  0  0  0
 24 25  1  0  0  0  0
 25 26  1  0  0  0  0
 25 31  1  1  0  0  0
 26 27  1  1  0  0  0
 26 32  1  0  0  0  0
 27 29  1  0  0  0  0
M  CHG  5   8   1  18   1  19   1  28   1  29   1
M  END
>  <CHROM.1>
-135.68620387,64.38364329,131.58120851,147.25146602,-156.89157947,-84.16314806
-173.10638092,13.32720115,22.31589858,-46.64533672,175.07154426,176.24229375
-79.38104352,74.83369846,-145.85116983,23.40343778,-2.73778746,4.57492552
4.16478592,2.35465871,-0.90790095,1.03009659

>  <Name>
1tob

>  <RI>
0

>  <Rbt.Current_Directory>
/home/itssahil/PROJECTS/Mol_Feturizer/New_Systems/rnas/1tob

>  <Rbt.Executable>
rbdock ($Id: //depot/dev/client3/rdock/2013.1/src/exe/rbdock.cxx#4 $)

>  <Rbt.Library>
libRbt.so (2013.1, Build901 2013/11/27)

>  <Rbt.Parameter_File>
/export/apps/rDock/src/rDock_2013.1_src/data/scripts/dock_solv.prm

>  <Rbt.Receptor>
prm/blind_docking_40.prm

>  <SCORE>
166.106

>  <SCORE.INTER>
144.66

>  <SCORE.INTER.CONST>
1

>  <SCORE.INTER.POLAR>
-5.3708

>  <SCORE.INTER.ROT>
6

>  <SCORE.INTER.SOLV>
58.1859

>  <SCORE.INTER.VDW>
87.3472

>  <SCORE.INTER.norm>
4.52062

>  <SCORE.INTRA>
19.0469

>  <SCORE.INTRA.DIHEDRAL>
11.8823

>  <SCORE.INTRA.DIHEDRAL.0>
22.9177

>  <SCORE.INTRA.POLAR>
0.0690477

>  <SCORE.INTRA.POLAR.0>
-0.311208

>  <SCORE.INTRA.REPUL>
0

>  <SCORE.INTRA.REPUL.0>
0

>  <SCORE.INTRA.SOLV>
6.00199

>  <SCORE.INTRA.SOLV.lig_0>
-132.657

>  <SCORE.INTRA.VDW>
9.86999

>  <SCORE.INTRA.VDW.0>
-4.68867

>  <SCORE.INTRA.norm>
0.595215

>  <SCORE.RESTR>
2.39954

>  <SCORE.RESTR.CAVITY>
2.39954

>  <SCORE.RESTR.norm>
0.0749857

>  <SCORE.SYSTEM>
0

>  <SCORE.SYSTEM.CONST>
0

>  <SCORE.SYSTEM.DIHEDRAL>
0

>  <SCORE.SYSTEM.SOLV>
0

>  <SCORE.SYSTEM.norm>
0

>  <SCORE.heavy>
32

>  <SCORE.norm>
5.19082

>  <RMSD>
7.904

$$$$
1tob
 OpenBabel11021811413D
libRbt.so/2013.1/901 2013/11/27
 32 34  0  0  0  0  0  0  0  0999 V2000
   -4.9722    7.7593    4.2202 C   0  0  2  0  0  0  0  0  0  0  0  0
   -5.4237    8.9361    5.0818 C   0  0  1  0  0  0  0  0  0  0  0  0
   -6.5276    9.7022    4.3657 C   0  0  2  0  0  0  0  0  0  0  0  0
   -6.0357   10.1281    2.9876 C   0  0  1  0  0  0  0  0  0  0  0  0
   -5.5641    8.9057    2.2048 C   0  0  1  0  0  0  0  0  0  0  0  0
   -4.9899    9.2737    0.8508 C   0  0  0  0  0  0  0  0  0  0  0  0
   -5.9042    8.4593    6.3306 O   0  0  0  0  0  0  0  0  0  0  0  0
   -6.9849   10.8560    5.1700 N   0  3  0  0  0  0  0  0  0  0  0  0
   -7.0826   10.7841    2.2850 O   0  0  0  0  0  0  0  0  0  0  0  0
   -4.5268    8.2188    2.9378 O   0  0  0  0  0  0  0  0  0  0  0  0
   -4.5111    8.1277    0.1613 O   0  0  0  0  0  0  0  0  0  0  0  0
   -5.9102    5.9846    1.7820 C   0  0  2  0  0  0  0  0  0  0  0  0
   -5.5595    4.7404    0.9775 C   0  0  0  0  0  0  0  0  0  0  0  0
   -4.1062    4.3357    1.2255 C   0  0  1  0  0  0  0  0  0  0  0  0
   -3.8980    4.0499    2.7111 C   0  0  2  0  0  0  0  0  0  0  0  0
   -4.2535    5.2876    3.5363 C   0  0  1  0  0  0  0  0  0  0  0  0
   -5.6979    5.7050    3.2619 C   0  0  1  0  0  0  0  0  0  0  0  0
   -7.3251    6.3618    1.5715 N   0  3  0  0  0  0  0  0  0  0  0  0
   -3.7526    3.1726    0.3710 N   0  3  0  0  0  0  0  0  0  0  0  0
   -4.0852    5.0089    4.9198 O   0  0  0  0  0  0  0  0  0  0  0  0
   -6.0209    6.8793    4.0284 O   0  0  0  0  0  0  0  0  0  0  0  0
   -1.5942    4.6972    2.9048 C   0  0  1  0  0  0  0  0  0  0  0  0
   -0.2183    4.1417    2.5329 C   0  0  1  0  0  0  0  0  0  0  0  0
    0.2700    3.1805    3.6062 C   0  0  0  0  0  0  0  0  0  0  0  0
    0.2594    3.8857    4.9526 C   0  0  1  0  0  0  0  0  0  0  0  0
   -1.1398    4.4290    5.2397 C   0  0  1  0  0  0  0  0  0  0  0  0
   -1.2117    5.1991    6.5458 C   0  0  0  0  0  0  0  0  0  0  0  0
   -0.2417    3.5115    1.1918 N   0  3  0  0  0  0  0  0  0  0  0  0
   -0.7938    4.3604    7.6945 N   0  3  0  0  0  0  0  0  0  0  0  0
   -2.5283    3.6712    2.9582 O   0  0  0  0  0  0  0  0  0  0  0  0
    0.6478    2.9818    5.9768 O   0  0  0  0  0  0  0  0  0  0  0  0
   -1.5482    5.3315    4.1889 O   0  0  0  0  0  0  0  0  0  0  0  0
  1  2  1  0  0  0  0
  1 10  1  0  0  0  0
  1 21  1  6  0  0  0
  2  3  1  0  0  0  0
  2  7  1  1  0  0  0
  3  4  1  0  0  0  0
  3  8  1  1  0  0  0
  4  5  1  0  0  0  0
  4  9  1  6  0  0  0
  5  6  1  6  0  0  0
  5 10  1  0  0  0  0
  6 11  1  0  0  0  0
 12 13  1  0  0  0  0
 12 17  1  0  0  0  0
 12 18  1  1  0  0  0
 13 14  1  0  0  0  0
 14 15  1  0  0  0  0
 14 19  1  6  0  0  0
 15 16  1  0  0  0  0
 15 30  1  6  0  0  0
 16 17  1  0  0  0  0
 16 20  1  1  0  0  0
 17 21  1  1  0  0  0
 22 23  1  0  0  0  0
 22 30  1  1  0  0  0
 22 32  1  0  0  0  0
 23 24  1  0  0  0  0
 23 28  1  6  0  0  0
 24 25  1  0  0  0  0
 25 26  1  0  0  0  0
 25 31  1  1  0  0  0
 26 27  1  1  0  0  0
 26 32  1  0  0  0  0
 27 29  1  0  0  0  0
M  CHG  5   8   1  18   1  19   1  28   1  29   1
M  END
>  <CHROM.1>
-178.13122893,-179.29527787,-57.92107740,179.62291285,177.76964605,74.93551556
-63.94219238,-51.12141847,73.80415644,-173.05306133,-88.74493554,-153.71669381
26.26418870,67.43561910,-58.01132688,29.12714439,-3.79745062,6.19601253,3.41190063
-2.95424194,0.75930389,-2.04025318

>  <Name>
1tob

>  <RI>
0

>  <Rbt.Current_Directory>
/home/itssahil/PROJECTS/Mol_Feturizer/New_Systems/rnas/1tob

>  <Rbt.Executable>
rbdock ($Id: //depot/dev/client3/rdock/2013.1/src/exe/rbdock.cxx#4 $)

>  <Rbt.Library>
libRbt.so (2013.1, Build901 2013/11/27)

>  <Rbt.Parameter_File>
/export/apps/rDock/src/rDock_2013.1_src/data/scripts/dock_solv.prm

>  <Rbt.Receptor>
prm/blind_docking_60.prm

>  <SCORE>
-28.1485

>  <SCORE.INTER>
-31.5214

>  <SCORE.INTER.CONST>
1

>  <SCORE.INTER.POLAR>
-6.08239

>  <SCORE.INTER.ROT>
6

>  <SCORE.INTER.SOLV>
38.4179

>  <SCORE.INTER.VDW>
-21.1456

>  <SCORE.INTER.norm>
-0.985044

>  <SCORE.INTRA>
-0.831034

>  <SCORE.INTRA.DIHEDRAL>
-9.78584

>  <SCORE.INTRA.DIHEDRAL.0>
22.9177

>  <SCORE.INTRA.POLAR>
-0.713955

>  <SCORE.INTRA.POLAR.0>
-0.311208

>  <SCORE.INTRA.REPUL>
0.0155901

>  <SCORE.INTRA.REPUL.0>
0

>  <SCORE.INTRA.SOLV>
2.31681

>  <SCORE.INTRA.SOLV.lig_0>
-132.657

>  <SCORE.INTRA.VDW>
5.25298

>  <SCORE.INTRA.VDW.0>
-4.68867

>  <SCORE.INTRA.norm>
-0.0259698

>  <SCORE.RESTR>
4.20395

>  <SCORE.RESTR.CAVITY>
4.20395

>  <SCORE.RESTR.norm>
0.131374

>  <SCORE.SYSTEM>
0

>  <SCORE.SYSTEM.CONST>
0

>  <SCORE.SYSTEM.DIHEDRAL>
0

>  <SCORE.SYSTEM.SOLV>
0

>  <SCORE.SYSTEM.norm>
0

>  <SCORE.heavy>
32

>  <SCORE.norm>
-0.87964

>  <RMSD>
7.934

$$$$
1tob
 OpenBabel11021811413D
libRbt.so/2013.1/901 2013/11/27
 32 34  0  0  0  0  0  0  0  0999 V2000
   -7.3978   11.5943    0.6813 C   0  0  2  0  0  0  0  0  0  0  0  0
   -6.8844   13.0315    0.7257 C   0  0  1  0  0  0  0  0  0  0  0  0
   -5.7932   13.1538    1.7805 C   0  0  2  0  0  0  0  0  0  0  0  0
   -6.3309   12.6724    3.1228 C   0  0  1  0  0  0  0  0  0  0  0  0
   -6.8623   11.2481    2.9877 C   0  0  1  0  0  0  0  0  0  0  0  0
   -7.4826   10.7391    4.2740 C   0  0  0  0  0  0  0  0  0  0  0  0
   -6.3644   13.3943   -0.5454 O   0  0  0  0  0  0  0  0  0  0  0  0
   -5.2768   14.5376    1.8564 N   0  3  0  0  0  0  0  0  0  0  0  0
   -5.2987   12.7183    4.0987 O   0  0  0  0  0  0  0  0  0  0  0  0
   -7.8845   11.1959    1.9691 O   0  0  0  0  0  0  0  0  0  0  0  0
   -6.4906   10.4421    5.2465 O   0  0  0  0  0  0  0  0  0  0  0  0
   -7.0918    9.3380   -1.5283 C   0  0  2  0  0  0  0  0  0  0  0  0
   -7.5301    7.9265   -1.8940 C   0  0  0  0  0  0  0  0  0  0  0  0
   -6.4394    6.9178   -1.5328 C   0  0  1  0  0  0  0  0  0  0  0  0
   -6.1534    6.9838   -0.0342 C   0  0  2  0  0  0  0  0  0  0  0  0
   -5.7189    8.3982    0.3532 C   0  0  1  0  0  0  0  0  0  0  0  0
   -6.8001    9.4054   -0.0371 C   0  0  1  0  0  0  0  0  0  0  0  0
   -8.1566   10.3148   -1.8452 N   0  3  0  0  0  0  0  0  0  0  0  0
   -6.8441    5.5571   -1.9717 N   0  3  0  0  0  0  0  0  0  0  0  0
   -5.4807    8.4626    1.7529 O   0  0  0  0  0  0  0  0  0  0  0  0
   -6.3785   10.7354    0.3149 O   0  0  0  0  0  0  0  0  0  0  0  0
   -5.5546    4.8544    0.8989 C   0  0  1  0  0  0  0  0  0  0  0  0
   -5.8911    5.0799    2.3740 C   0  0  1  0  0  0  0  0  0  0  0  0
   -4.6455    5.4970    3.1413 C   0  0  0  0  0  0  0  0  0  0  0  0
   -3.5573    4.4562    2.9338 C   0  0  1  0  0  0  0  0  0  0  0  0
   -3.2961    4.2737    1.4391 C   0  0  1  0  0  0  0  0  0  0  0  0
   -2.2585    3.2032    1.1532 C   0  0  0  0  0  0  0  0  0  0  0  0
   -6.9918    6.0605    2.5267 N   0  3  0  0  0  0  0  0  0  0  0  0
   -0.9078    3.6239    1.5960 N   0  3  0  0  0  0  0  0  0  0  0  0
   -5.1220    6.0390    0.3181 O   0  0  0  0  0  0  0  0  0  0  0  0
   -2.3646    4.8642    3.5879 O   0  0  0  0  0  0  0  0  0  0  0  0
   -4.5118    3.8807    0.7661 O   0  0  0  0  0  0  0  0  0  0  0  0
  1  2  1  0  0  0  0
  1 10  1  0  0  0  0
  1 21  1  1  0  0  0
  2  3  1  0  0  0  0
  2  7  1  6  0  0  0
  3  4  1  0  0  0  0
  3  8  1  1  0  0  0
  4  5  1  0  0  0  0
  4  9  1  1  0  0  0
  5  6  1  1  0  0  0
  5 10  1  0  0  0  0
  6 11  1  0  0  0  0
 12 13  1  0  0  0  0
 12 17  1  0  0  0  0
 12 18  1  1  0  0  0
 13 14  1  0  0  0  0
 14 15  1  0  0  0  0
 14 19  1  1  0  0  0
 15 16  1  0  0  0  0
 15 30  1  6  0  0  0
 16 17  1  0  0  0  0
 16 20  1  1  0  0  0
 17 21  1  6  0  0  0
 22 23  1  0  0  0  0
 22 30  1  1  0  0  0
 22 32  1  0  0  0  0
 23 24  1  0  0  0  0
 23 28  1  6  0  0  0
 24 25  1  0  0  0  0
 25 26  1  0  0  0  0
 25 31  1  1  0  0  0
 26 27  1  1  0  0  0
 26 32  1  0  0  0  0
 27 29  1  0  0  0  0
M  CHG  5   8   1  18   1  19   1  28   1  29   1
M  END
>  <CHROM.1>
-167.33460720,-60.82800536,-165.35693658,-69.97739433,-73.27637100,174.67806633
-175.59224472,173.81068990,-101.20853830,77.77959137,90.22819286,-78.36839367
155.56256929,58.23558109,-68.73329584,27.26762663,-5.71567149,8.47502722
1.29316647,2.26002727,-1.02259615,0.63450928

>  <Name>
1tob

>  <RI>
0

>  <Rbt.Current_Directory>
/home/itssahil/PROJECTS/Mol_Feturizer/New_Systems/rnas/1tob

>  <Rbt.Executable>
rbdock ($Id: //depot/dev/client3/rdock/2013.1/src/exe/rbdock.cxx#4 $)

>  <Rbt.Library>
libRbt.so (2013.1, Build901 2013/11/27)

>  <Rbt.Parameter_File>
/export/apps/rDock/src/rDock_2013.1_src/data/scripts/dock_solv.prm

>  <Rbt.Receptor>
prm/pocket_docking_7.prm

>  <SCORE>
-33.8736

>  <SCORE.INTER>
-27.8357

>  <SCORE.INTER.CONST>
1

>  <SCORE.INTER.POLAR>
-4.36595

>  <SCORE.INTER.ROT>
6

>  <SCORE.INTER.SOLV>
18.0067

>  <SCORE.INTER.VDW>
-17.6062

>  <SCORE.INTER.norm>
-0.869866

>  <SCORE.INTRA>
-6.03785

>  <SCORE.INTRA.DIHEDRAL>
-4.2926

>  <SCORE.INTRA.DIHEDRAL.0>
22.9177

>  <SCORE.INTRA.POLAR>
-1.40957

>  <SCORE.INTRA.POLAR.0>
-0.311208

>  <SCORE.INTRA.REPUL>
0

>  <SCORE.INTRA.REPUL.0>
0

>  <SCORE.INTRA.SOLV>
1.40093

>  <SCORE.INTRA.SOLV.lig_0>
-132.657

>  <SCORE.INTRA.VDW>
0.200525

>  <SCORE.INTRA.VDW.0>
-4.68867

>  <SCORE.INTRA.norm>
-0.188683

>  <SCORE.RESTR>
0

>  <SCORE.RESTR.CAVITY>
0

>  <SCORE.RESTR.norm>
0

>  <SCORE.SYSTEM>
0

>  <SCORE.SYSTEM.CONST>
0

>  <SCORE.SYSTEM.DIHEDRAL>
0

>  <SCORE.SYSTEM.SOLV>
0

>  <SCORE.SYSTEM.norm>
0

>  <SCORE.heavy>
32

>  <SCORE.norm>
-1.05855

>  <RMSD>
8.033

$$$$
1tob
 OpenBabel11021811413D
libRbt.so/2013.1/901 2013/11/27
 32 34  0  0  0  0  0  0  0  0999 V2000
   -5.4856    5.5306    3.0886 C   0  0  2  0  0  0  0  0  0  0  0  0
   -6.4022    6.5077    2.3563 C   0  0  1  0  0  0  0  0  0  0  0  0
   -5.7367    7.8750    2.2788 C   0  0  2  0  0  0  0  0  0  0  0  0
   -5.3717    8.3403    3.6834 C   0  0  1  0  0  0  0  0  0  0  0  0
   -4.4920    7.2950    4.3636 C   0  0  1  0  0  0  0  0  0  0  0  0
   -4.1577    7.6653    5.7952 C   0  0  0  0  0  0  0  0  0  0  0  0
   -6.6649    6.0280    1.0454 O   0  0  0  0  0  0  0  0  0  0  0  0
   -6.6015    8.8508    1.5808 N   0  3  0  0  0  0  0  0  0  0  0  0
   -4.6882    9.5846    3.6152 O   0  0  0  0  0  0  0  0  0  0  0  0
   -5.1728    6.0221    4.3980 O   0  0  0  0  0  0  0  0  0  0  0  0
   -3.2039    6.7724    6.3530 O   0  0  0  0  0  0  0  0  0  0  0  0
   -3.1032    3.6006    1.2549 C   0  0  2  0  0  0  0  0  0  0  0  0
   -2.4059    2.2641    1.4692 C   0  0  0  0  0  0  0  0  0  0  0  0
   -1.2656    2.4118    2.4769 C   0  0  1  0  0  0  0  0  0  0  0  0
   -1.8184    2.9107    3.8100 C   0  0  2  0  0  0  0  0  0  0  0  0
   -2.5301    4.2500    3.6125 C   0  0  1  0  0  0  0  0  0  0  0  0
   -3.6496    4.1032    2.5824 C   0  0  1  0  0  0  0  0  0  0  0  0
   -4.2287    3.4569    0.3057 N   0  3  0  0  0  0  0  0  0  0  0  0
   -0.5409    1.1217    2.6125 N   0  3  0  0  0  0  0  0  0  0  0  0
   -3.0673    4.6973    4.8500 O   0  0  0  0  0  0  0  0  0  0  0  0
   -4.3043    5.3699    2.3889 O   0  0  0  0  0  0  0  0  0  0  0  0
   -0.0810    4.2748    4.7505 C   0  0  1  0  0  0  0  0  0  0  0  0
    1.4282    4.0504    4.8594 C   0  0  1  0  0  0  0  0  0  0  0  0
    1.7698    3.3988    6.1909 C   0  0  0  0  0  0  0  0  0  0  0  0
    1.2137    4.2487    7.3218 C   0  0  1  0  0  0  0  0  0  0  0  0
   -0.2897    4.4442    7.1291 C   0  0  1  0  0  0  0  0  0  0  0  0
   -0.9048    5.3350    8.1933 C   0  0  0  0  0  0  0  0  0  0  0  0
    1.9353    3.2641    3.7100 N   0  3  0  0  0  0  0  0  0  0  0  0
    0.1224    5.8524    9.1286 N   0  3  0  0  0  0  0  0  0  0  0  0
   -0.7503    3.0584    4.7681 O   0  0  0  0  0  0  0  0  0  0  0  0
    1.4644    3.6195    8.5700 O   0  0  0  0  0  0  0  0  0  0  0  0
   -0.5510    5.0632    5.8509 O   0  0  0  0  0  0  0  0  0  0  0  0
  1  2  1  0  0  0  0
  1 10  1  0  0  0  0
  1 21  1  6  0  0  0
  2  3  1  0  0  0  0
  2  7  1  6  0  0  0
  3  4  1  0  0  0  0
  3  8  1  1  0  0  0
  4  5  1  0  0  0  0
  4  9  1  6  0  0  0
  5  6  1  1  0  0  0
  5 10  1  0  0  0  0
  6 11  1  0  0  0  0
 12 13  1  0  0  0  0
 12 17  1  0  0  0  0
 12 18  1  6  0  0  0
 13 14  1  0  0  0  0
 14 15  1  0  0  0  0
 14 19  1  1  0  0  0
 15 16  1  0  0  0  0
 15 30  1  1  0  0  0
 16 17  1  0  0  0  0
 16 20  1  1  0  0  0
 17 21  1  6  0  0  0
 22 23  1  0  0  0  0
 22 30  1  1  0  0  0
 22 32  1  0  0  0  0
 23 24  1  0  0  0  0
 23 28  1  6  0  0  0
 24 25  1  0  0  0  0
 25 26  1  0  0  0  0
 25 31  1  1  0  0  0
 26 27  1  1  0  0  0
 26 32  1  0  0  0  0
 27 29  1  0  0  0  0
M  CHG  5   8   1  18   1  19   1  28   1  29   1
M  END
>  <CHROM.1>
-152.60904364,167.99676139,62.27286530,-58.37516477,-172.49481952,90.79573403
141.29184105,-26.36894852,86.55858567,75.24805618,139.07750669,-136.44340460
-61.42241444,-58.31316034,2.69956000,22.14691063,-2.48346494,5.05590070,4.20813638
-3.00293685,-0.66732204,0.87988833

>  <Name>
1tob

>  <RI>
0

>  <Rbt.Current_Directory>
/home/itssahil/PROJECTS/Mol_Feturizer/New_Systems/rnas/1tob

>  <Rbt.Executable>
rbdock ($Id: //depot/dev/client3/rdock/2013.1/src/exe/rbdock.cxx#4 $)

>  <Rbt.Library>
libRbt.so (2013.1, Build901 2013/11/27)

>  <Rbt.Parameter_File>
/export/apps/rDock/src/rDock_2013.1_src/data/scripts/dock_solv.prm

>  <Rbt.Receptor>
prm/blind_docking_100.prm

>  <SCORE>
-11.7516

>  <SCORE.INTER>
-38.79

>  <SCORE.INTER.CONST>
1

>  <SCORE.INTER.POLAR>
-4.85202

>  <SCORE.INTER.ROT>
6

>  <SCORE.INTER.SOLV>
33.1205

>  <SCORE.INTER.VDW>
-28.3267

>  <SCORE.INTER.norm>
-1.21219

>  <SCORE.INTRA>
12.8201

>  <SCORE.INTRA.DIHEDRAL>
12.8138

>  <SCORE.INTRA.DIHEDRAL.0>
22.9177

>  <SCORE.INTRA.POLAR>
-0.671958

>  <SCORE.INTRA.POLAR.0>
-0.311208

>  <SCORE.INTRA.REPUL>
0

>  <SCORE.INTRA.REPUL.0>
0

>  <SCORE.INTRA.SOLV>
2.8087

>  <SCORE.INTRA.SOLV.lig_0>
-132.657

>  <SCORE.INTRA.VDW>
7.29357

>  <SCORE.INTRA.VDW.0>
-4.68867

>  <SCORE.INTRA.norm>
0.40063

>  <SCORE.RESTR>
14.2182

>  <SCORE.RESTR.CAVITY>
14.2182

>  <SCORE.RESTR.norm>
0.444319

>  <SCORE.SYSTEM>
0

>  <SCORE.SYSTEM.CONST>
0

>  <SCORE.SYSTEM.DIHEDRAL>
0

>  <SCORE.SYSTEM.SOLV>
0

>  <SCORE.SYSTEM.norm>
0

>  <SCORE.heavy>
32

>  <SCORE.norm>
-0.367238

>  <RMSD>
8.037

$$$$
1tob
 OpenBabel11021811413D
libRbt.so/2013.1/901 2013/11/27
 32 34  0  0  0  0  0  0  0  0999 V2000
   -3.6742    6.5997    0.9442 C   0  0  2  0  0  0  0  0  0  0  0  0
   -3.1871    8.0358    1.1211 C   0  0  1  0  0  0  0  0  0  0  0  0
   -2.1838    8.0998    2.2647 C   0  0  2  0  0  0  0  0  0  0  0  0
   -2.8179    7.5270    3.5266 C   0  0  1  0  0  0  0  0  0  0  0  0
   -3.3160    6.1094    3.2589 C   0  0  1  0  0  0  0  0  0  0  0  0
   -4.0276    5.5118    4.4568 C   0  0  0  0  0  0  0  0  0  0  0  0
   -2.5746    8.4855   -0.0790 O   0  0  0  0  0  0  0  0  0  0  0  0
   -1.6954    9.4807    2.4697 N   0  3  0  0  0  0  0  0  0  0  0  0
   -1.8661    7.5192    4.5820 O   0  0  0  0  0  0  0  0  0  0  0  0
   -4.2544    6.1137    2.1613 O   0  0  0  0  0  0  0  0  0  0  0  0
   -5.1590    6.2865    4.8280 O   0  0  0  0  0  0  0  0  0  0  0  0
   -3.4036    3.4934    0.7745 C   0  0  2  0  0  0  0  0  0  0  0  0
   -3.2834    2.2165    1.5950 C   0  0  0  0  0  0  0  0  0  0  0  0
   -1.8330    1.7337    1.6228 C   0  0  1  0  0  0  0  0  0  0  0  0
   -0.9433    2.8123    2.2368 C   0  0  2  0  0  0  0  0  0  0  0  0
   -1.0576    4.1062    1.4294 C   0  0  1  0  0  0  0  0  0  0  0  0
   -2.5136    4.5679    1.3800 C   0  0  1  0  0  0  0  0  0  0  0  0
   -4.7994    3.9836    0.7714 N   0  3  0  0  0  0  0  0  0  0  0  0
   -1.7439    0.4433    2.3543 N   0  3  0  0  0  0  0  0  0  0  0  0
   -0.2499    5.1156    2.0200 O   0  0  0  0  0  0  0  0  0  0  0  0
   -2.6168    5.7763    0.6054 O   0  0  0  0  0  0  0  0  0  0  0  0
    1.2521    2.9961    3.1908 C   0  0  1  0  0  0  0  0  0  0  0  0
    1.9942    1.9541    4.0296 C   0  0  1  0  0  0  0  0  0  0  0  0
    1.0058    1.1240    4.8348 C   0  0  0  0  0  0  0  0  0  0  0  0
    0.1385    2.0504    5.6714 C   0  0  1  0  0  0  0  0  0  0  0  0
   -0.5489    3.0717    4.7658 C   0  0  1  0  0  0  0  0  0  0  0  0
   -1.3887    4.0699    5.5420 C   0  0  0  0  0  0  0  0  0  0  0  0
    2.8674    1.1092    3.1811 N   0  3  0  0  0  0  0  0  0  0  0  0
   -0.6096    4.7033    6.6326 N   0  3  0  0  0  0  0  0  0  0  0  0
    0.4292    2.3697    2.2643 O   0  0  0  0  0  0  0  0  0  0  0  0
   -0.8357    1.2962    6.3780 O   0  0  0  0  0  0  0  0  0  0  0  0
    0.4374    3.8257    4.0283 O   0  0  0  0  0  0  0  0  0  0  0  0
  1  2  1  0  0  0  0
  1 10  1  0  0  0  0
  1 21  1  1  0  0  0
  2  3  1  0  0  0  0
  2  7  1  6  0  0  0
  3  4  1  0  0  0  0
  3  8  1  1  0  0  0
  4  5  1  0  0  0  0
  4  9  1  1  0  0  0
  5  6  1  1  0  0  0
  5 10  1  0  0  0  0
  6 11  1  0  0  0  0
 12 13  1  0  0  0  0
 12 17  1  0  0  0  0
 12 18  1  1  0  0  0
 13 14  1  0  0  0  0
 14 15  1  0  0  0  0
 14 19  1  1  0  0  0
 15 16  1  0  0  0  0
 15 30  1  6  0  0  0
 16 17  1  0  0  0  0
 16 20  1  1  0  0  0
 17 21  1  6  0  0  0
 22 23  1  0  0  0  0
 22 30  1  6  0  0  0
 22 32  1  0  0  0  0
 23 24  1  0  0  0  0
 23 28  1  6  0  0  0
 24 25  1  0  0  0  0
 25 26  1  0  0  0  0
 25 31  1  6  0  0  0
 26 27  1  1  0  0  0
 26 32  1  0  0  0  0
 27 29  1  0  0  0  0
M  CHG  5   8   1  18   1  19   1  28   1  29   1
M  END
>  <CHROM.1>
131.06886223,-51.67510457,-56.18726139,177.60272969,59.91200314,-62.87740302
89.44357650,-76.29902741,-157.77445133,78.34869125,85.17445662,128.88608189
-161.96716619,65.50505637,52.05544588,-96.41091008,-1.63466839,4.47821575
2.99024285,2.74711791,-0.94921521,0.72233562

>  <Name>
1tob

>  <RI>
0

>  <Rbt.Current_Directory>
/home/itssahil/PROJECTS/Mol_Feturizer/New_Systems/rnas/1tob

>  <Rbt.Executable>
rbdock ($Id: //depot/dev/client3/rdock/2013.1/src/exe/rbdock.cxx#4 $)

>  <Rbt.Library>
libRbt.so (2013.1, Build901 2013/11/27)

>  <Rbt.Parameter_File>
/export/apps/rDock/src/rDock_2013.1_src/data/scripts/dock_solv.prm

>  <Rbt.Receptor>
prm/blind_docking_100.prm

>  <SCORE>
-19.0509

>  <SCORE.INTER>
-46.0506

>  <SCORE.INTER.CONST>
1

>  <SCORE.INTER.POLAR>
-5.57406

>  <SCORE.INTER.ROT>
6

>  <SCORE.INTER.SOLV>
32.6399

>  <SCORE.INTER.VDW>
-30.6002

>  <SCORE.INTER.norm>
-1.43908

>  <SCORE.INTRA>
14.3905

>  <SCORE.INTRA.DIHEDRAL>
3.39901

>  <SCORE.INTRA.DIHEDRAL.0>
22.9177

>  <SCORE.INTRA.POLAR>
-0.602152

>  <SCORE.INTRA.POLAR.0>
-0.311208

>  <SCORE.INTRA.REPUL>
0

>  <SCORE.INTRA.REPUL.0>
0

>  <SCORE.INTRA.SOLV>
1.79111

>  <SCORE.INTRA.SOLV.lig_0>
-132.657

>  <SCORE.INTRA.VDW>
13.8427

>  <SCORE.INTRA.VDW.0>
-4.68867

>  <SCORE.INTRA.norm>
0.449702

>  <SCORE.RESTR>
12.6093

>  <SCORE.RESTR.CAVITY>
12.6093

>  <SCORE.RESTR.norm>
0.39404

>  <SCORE.SYSTEM>
0

>  <SCORE.SYSTEM.CONST>
0

>  <SCORE.SYSTEM.DIHEDRAL>
0

>  <SCORE.SYSTEM.SOLV>
0

>  <SCORE.SYSTEM.norm>
0

>  <SCORE.heavy>
32

>  <SCORE.norm>
-0.59534

>  <RMSD>
8.050

$$$$
1tob
 OpenBabel11021811413D
libRbt.so/2013.1/901 2013/11/27
 32 34  0  0  0  0  0  0  0  0999 V2000
   -5.9189    5.9204    3.5654 C   0  0  2  0  0  0  0  0  0  0  0  0
   -7.1125    6.7367    3.0755 C   0  0  1  0  0  0  0  0  0  0  0  0
   -6.6852    8.1790    2.8399 C   0  0  2  0  0  0  0  0  0  0  0  0
   -6.0655    8.7378    4.1151 C   0  0  1  0  0  0  0  0  0  0  0  0
   -4.9100    7.8472    4.5634 C   0  0  1  0  0  0  0  0  0  0  0  0
   -4.2998    8.3086    5.8723 C   0  0  0  0  0  0  0  0  0  0  0  0
   -7.6096    6.1810    1.8665 O   0  0  0  0  0  0  0  0  0  0  0  0
   -7.8208    9.0023    2.3707 N   0  3  0  0  0  0  0  0  0  0  0  0
   -5.6012   10.0611    3.8842 O   0  0  0  0  0  0  0  0  0  0  0  0
   -5.3756    6.4947    4.7609 O   0  0  0  0  0  0  0  0  0  0  0  0
   -5.2841    8.4306    6.8893 O   0  0  0  0  0  0  0  0  0  0  0  0
   -4.2234    4.3496    0.8814 C   0  0  2  0  0  0  0  0  0  0  0  0
   -3.5781    2.9900    0.6507 C   0  0  0  0  0  0  0  0  0  0  0  0
   -2.1858    2.9455    1.2810 C   0  0  1  0  0  0  0  0  0  0  0  0
   -2.2921    3.2042    2.7822 C   0  0  2  0  0  0  0  0  0  0  0  0
   -2.9462    4.5638    3.0333 C   0  0  1  0  0  0  0  0  0  0  0  0
   -4.3250    4.6129    2.3759 C   0  0  1  0  0  0  0  0  0  0  0  0
   -5.5842    4.3875    0.3022 N   0  3  0  0  0  0  0  0  0  0  0  0
   -1.5344    1.6452    0.9760 N   0  3  0  0  0  0  0  0  0  0  0  0
   -3.0687    4.7886    4.4314 O   0  0  0  0  0  0  0  0  0  0  0  0
   -4.9281    5.8998    2.6017 O   0  0  0  0  0  0  0  0  0  0  0  0
   -0.2978    4.3761    3.4250 C   0  0  1  0  0  0  0  0  0  0  0  0
    1.2092    4.1322    3.3279 C   0  0  1  0  0  0  0  0  0  0  0  0
    1.6927    3.3335    4.5290 C   0  0  0  0  0  0  0  0  0  0  0  0
    1.2897    4.0545    5.8050 C   0  0  1  0  0  0  0  0  0  0  0  0
   -0.2219    4.2790    5.8156 C   0  0  1  0  0  0  0  0  0  0  0  0
   -0.6904    5.0484    7.0373 C   0  0  0  0  0  0  0  0  0  0  0  0
    1.5625    3.4769    2.0465 N   0  3  0  0  0  0  0  0  0  0  0  0
   -0.3046    4.3611    8.2929 N   0  3  0  0  0  0  0  0  0  0  0  0
   -0.9833    3.1692    3.3875 O   0  0  0  0  0  0  0  0  0  0  0  0
    1.6737    3.2880    6.9372 O   0  0  0  0  0  0  0  0  0  0  0  0
   -0.6200    5.0389    4.6539 O   0  0  0  0  0  0  0  0  0  0  0  0
  1  2  1  0  0  0  0
  1 10  1  0  0  0  0
  1 21  1  6  0  0  0
  2  3  1  0  0  0  0
  2  7  1  6  0  0  0
  3  4  1  0  0  0  0
  3  8  1  1  0  0  0
  4  5  1  0  0  0  0
  4  9  1  6  0  0  0
  5  6  1  1  0  0  0
  5 10  1  0  0  0  0
  6 11  1  0  0  0  0
 12 13  1  0  0  0  0
 12 17  1  0  0  0  0
 12 18  1  1  0  0  0
 13 14  1  0  0  0  0
 14 15  1  0  0  0  0
 14 19  1  1  0  0  0
 15 16  1  0  0  0  0
 15 30  1  6  0  0  0
 16 17  1  0  0  0  0
 16 20  1  1  0  0  0
 17 21  1  6  0  0  0
 22 23  1  0  0  0  0
 22 30  1  1  0  0  0
 22 32  1  0  0  0  0
 23 24  1  0  0  0  0
 23 28  1  6  0  0  0
 24 25  1  0  0  0  0
 25 26  1  0  0  0  0
 25 31  1  1  0  0  0
 26 27  1  1  0  0  0
 26 32  1  0  0  0  0
 27 29  1  0  0  0  0
M  CHG  5   8   1  18   1  19   1  28   1  29   1
M  END
>  <CHROM.1>
-135.78417888,179.09895872,51.08255106,-177.04221504,54.20064681,63.45828431
44.84705955,33.91895949,89.19506192,-20.48054133,134.02866616,-148.55567431
46.02009565,65.94664718,-57.53662894,27.54488012,-3.04813837,5.31695615,3.71921013
2.99443085,-0.54019249,0.96930245

>  <Name>
1tob

>  <RI>
0

>  <Rbt.Current_Directory>
/home/itssahil/PROJECTS/Mol_Feturizer/New_Systems/rnas/1tob

>  <Rbt.Executable>
rbdock ($Id: //depot/dev/client3/rdock/2013.1/src/exe/rbdock.cxx#4 $)

>  <Rbt.Library>
libRbt.so (2013.1, Build901 2013/11/27)

>  <Rbt.Parameter_File>
/export/apps/rDock/src/rDock_2013.1_src/data/scripts/dock_solv.prm

>  <Rbt.Receptor>
prm/blind_docking_80.prm

>  <SCORE>
-20.4582

>  <SCORE.INTER>
-31.8215

>  <SCORE.INTER.CONST>
1

>  <SCORE.INTER.POLAR>
-6.64506

>  <SCORE.INTER.ROT>
6

>  <SCORE.INTER.SOLV>
36.957

>  <SCORE.INTER.VDW>
-18.9832

>  <SCORE.INTER.norm>
-0.994422

>  <SCORE.INTRA>
1.13731

>  <SCORE.INTRA.DIHEDRAL>
7.13535

>  <SCORE.INTRA.DIHEDRAL.0>
22.9177

>  <SCORE.INTRA.POLAR>
-1.84636

>  <SCORE.INTRA.POLAR.0>
-0.311208

>  <SCORE.INTRA.REPUL>
0

>  <SCORE.INTRA.REPUL.0>
0

>  <SCORE.INTRA.SOLV>
0.65092

>  <SCORE.INTRA.SOLV.lig_0>
-132.657

>  <SCORE.INTRA.VDW>
3.52178

>  <SCORE.INTRA.VDW.0>
-4.68867

>  <SCORE.INTRA.norm>
0.0355409

>  <SCORE.RESTR>
10.226

>  <SCORE.RESTR.CAVITY>
10.226

>  <SCORE.RESTR.norm>
0.319562

>  <SCORE.SYSTEM>
0

>  <SCORE.SYSTEM.CONST>
0

>  <SCORE.SYSTEM.DIHEDRAL>
0

>  <SCORE.SYSTEM.SOLV>
0

>  <SCORE.SYSTEM.norm>
0

>  <SCORE.heavy>
32

>  <SCORE.norm>
-0.63932

>  <RMSD>
8.063

$$$$
1tob
 OpenBabel11021811413D
libRbt.so/2013.1/901 2013/11/27
 32 34  0  0  0  0  0  0  0  0999 V2000
   -5.8753    6.0833    2.2858 C   0  0  2  0  0  0  0  0  0  0  0  0
   -6.3181    7.1039    1.2400 C   0  0  1  0  0  0  0  0  0  0  0  0
   -5.4699    8.3626    1.3607 C   0  0  2  0  0  0  0  0  0  0  0  0
   -5.5556    8.8956    2.7859 C   0  0  1  0  0  0  0  0  0  0  0  0
   -5.1390    7.8080    3.7722 C   0  0  1  0  0  0  0  0  0  0  0  0
   -5.2769    8.2535    5.2148 C   0  0  0  0  0  0  0  0  0  0  0  0
   -6.1727    6.5515   -0.0605 O   0  0  0  0  0  0  0  0  0  0  0  0
   -5.8770    9.3780    0.3656 N   0  3  0  0  0  0  0  0  0  0  0  0
   -4.7126   10.0313    2.9260 O   0  0  0  0  0  0  0  0  0  0  0  0
   -5.9720    6.6408    3.6025 O   0  0  0  0  0  0  0  0  0  0  0  0
   -4.2291    7.7335    6.0209 O   0  0  0  0  0  0  0  0  0  0  0  0
   -3.7832    3.5558    1.2895 C   0  0  2  0  0  0  0  0  0  0  0  0
   -3.4219    2.1497    1.7483 C   0  0  0  0  0  0  0  0  0  0  0  0
   -2.3005    2.1979    2.7863 C   0  0  1  0  0  0  0  0  0  0  0  0
   -2.7500    3.0208    3.9916 C   0  0  2  0  0  0  0  0  0  0  0  0
   -3.1251    4.4356    3.5480 C   0  0  1  0  0  0  0  0  0  0  0  0
   -4.2255    4.3799    2.4889 C   0  0  1  0  0  0  0  0  0  0  0  0
   -4.8905    3.5177    0.3093 N   0  3  0  0  0  0  0  0  0  0  0  0
   -1.9000    0.8171    3.1620 N   0  3  0  0  0  0  0  0  0  0  0  0
   -3.5694    5.1898    4.6678 O   0  0  0  0  0  0  0  0  0  0  0  0
   -4.5622    5.7129    2.0639 O   0  0  0  0  0  0  0  0  0  0  0  0
   -0.7890    4.1177    4.8371 C   0  0  1  0  0  0  0  0  0  0  0  0
    0.6214    3.5641    4.6267 C   0  0  1  0  0  0  0  0  0  0  0  0
    1.0660    2.7750    5.8489 C   0  0  0  0  0  0  0  0  0  0  0  0
    0.9528    3.6560    7.0824 C   0  0  1  0  0  0  0  0  0  0  0  0
   -0.4753    4.1852    7.2092 C   0  0  1  0  0  0  0  0  0  0  0  0
   -0.6488    5.1229    8.3902 C   0  0  0  0  0  0  0  0  0  0  0  0
    0.6986    2.7569    3.3862 N   0  3  0  0  0  0  0  0  0  0  0  0
    0.1697    4.6937    9.5494 N   0  3  0  0  0  0  0  0  0  0  0  0
   -1.6978    3.0772    4.9765 O   0  0  0  0  0  0  0  0  0  0  0  0
    1.2992    2.9136    8.2424 O   0  0  0  0  0  0  0  0  0  0  0  0
   -0.8400    4.9219    6.0219 O   0  0  0  0  0  0  0  0  0  0  0  0
  1  2  1  0  0  0  0
  1 10  1  0  0  0  0
  1 21  1  6  0  0  0
  2  3  1  0  0  0  0
  2  7  1  6  0  0  0
  3  4  1  0  0  0  0
  3  8  1  6  0  0  0
  4  5  1  0  0  0  0
  4  9  1  6  0  0  0
  5  6  1  1  0  0  0
  5 10  1  0  0  0  0
  6 11  1  0  0  0  0
 12 13  1  0  0  0  0
 12 17  1  0  0  0  0
 12 18  1  6  0  0  0
 13 14  1  0  0  0  0
 14 15  1  0  0  0  0
 14 19  1  1  0  0  0
 15 16  1  0  0  0  0
 15 30  1  1  0  0  0
 16 17  1  0  0  0  0
 16 20  1  1  0  0  0
 17 21  1  6  0  0  0
 22 23  1  0  0  0  0
 22 30  1  1  0  0  0
 22 32  1  0  0  0  0
 23 24  1  0  0  0  0
 23 28  1  6  0  0  0
 24 25  1  0  0  0  0
 25 26  1  0  0  0  0
 25 31  1  1  0  0  0
 26 27  1  1  0  0  0
 26 32  1  0  0  0  0
 27 29  1  0  0  0  0
M  CHG  5   8   1  18   1  19   1  28   1  29   1
M  END
>  <CHROM.1>
-150.94006776,61.88546247,-179.28422683,-176.32144875,-143.26678521,-97.64876806
74.96530954,-149.66558099,88.67774338,-102.61655088,118.37818949,-119.31159534
53.10012808,-61.86033402,-36.24865775,51.87212498,-2.96422616,5.12082307
3.94156922,-3.11321271,-0.83194854,0.74295038

>  <Name>
1tob

>  <RI>
0

>  <Rbt.Current_Directory>
/home/itssahil/PROJECTS/Mol_Feturizer/New_Systems/rnas/1tob

>  <Rbt.Executable>
rbdock ($Id: //depot/dev/client3/rdock/2013.1/src/exe/rbdock.cxx#4 $)

>  <Rbt.Library>
libRbt.so (2013.1, Build901 2013/11/27)

>  <Rbt.Parameter_File>
/export/apps/rDock/src/rDock_2013.1_src/data/scripts/dock_solv.prm

>  <Rbt.Receptor>
prm/blind_docking_60.prm

>  <SCORE>
-29.562

>  <SCORE.INTER>
-48.8512

>  <SCORE.INTER.CONST>
1

>  <SCORE.INTER.POLAR>
-6.55391

>  <SCORE.INTER.ROT>
6

>  <SCORE.INTER.SOLV>
28.9656

>  <SCORE.INTER.VDW>
-27.9763

>  <SCORE.INTER.norm>
-1.5266

>  <SCORE.INTRA>
12.8832

>  <SCORE.INTRA.DIHEDRAL>
17.2913

>  <SCORE.INTRA.DIHEDRAL.0>
22.9177

>  <SCORE.INTRA.POLAR>
-0.261918

>  <SCORE.INTRA.POLAR.0>
-0.311208

>  <SCORE.INTRA.REPUL>
0

>  <SCORE.INTRA.REPUL.0>
0

>  <SCORE.INTRA.SOLV>
3.67441

>  <SCORE.INTRA.SOLV.lig_0>
-132.657

>  <SCORE.INTRA.VDW>
3.29083

>  <SCORE.INTRA.VDW.0>
-4.68867

>  <SCORE.INTRA.norm>
0.402599

>  <SCORE.RESTR>
6.40598

>  <SCORE.RESTR.CAVITY>
6.40598

>  <SCORE.RESTR.norm>
0.200187

>  <SCORE.SYSTEM>
0

>  <SCORE.SYSTEM.CONST>
0

>  <SCORE.SYSTEM.DIHEDRAL>
0

>  <SCORE.SYSTEM.SOLV>
0

>  <SCORE.SYSTEM.norm>
0

>  <SCORE.heavy>
32

>  <SCORE.norm>
-0.923814

>  <RMSD>
8.078

$$$$
1tob
 OpenBabel11021811413D
libRbt.so/2013.1/901 2013/11/27
 32 34  0  0  0  0  0  0  0  0999 V2000
   -5.7841    4.8517    1.5142 C   0  0  2  0  0  0  0  0  0  0  0  0
   -5.7722    3.8199    0.3889 C   0  0  1  0  0  0  0  0  0  0  0  0
   -6.2242    4.4729   -0.9102 C   0  0  2  0  0  0  0  0  0  0  0  0
   -7.5916    5.1138   -0.7053 C   0  0  1  0  0  0  0  0  0  0  0  0
   -7.5333    6.0983    0.4594 C   0  0  1  0  0  0  0  0  0  0  0  0
   -8.8852    6.7134    0.7634 C   0  0  0  0  0  0  0  0  0  0  0  0
   -4.4607    3.2976    0.2312 O   0  0  0  0  0  0  0  0  0  0  0  0
   -6.2319    3.4985   -2.0229 N   0  3  0  0  0  0  0  0  0  0  0  0
   -7.9909    5.7848   -1.8928 O   0  0  0  0  0  0  0  0  0  0  0  0
   -7.0908    5.4229    1.6566 O   0  0  0  0  0  0  0  0  0  0  0  0
   -9.1987    6.6204    2.1458 O   0  0  0  0  0  0  0  0  0  0  0  0
   -5.2038    6.5287    3.5449 C   0  0  2  0  0  0  0  0  0  0  0  0
   -4.4903    7.1099    4.7578 C   0  0  0  0  0  0  0  0  0  0  0  0
   -3.3073    6.2270    5.1558 C   0  0  1  0  0  0  0  0  0  0  0  0
   -2.3235    6.1296    3.9919 C   0  0  2  0  0  0  0  0  0  0  0  0
   -3.0256    5.5546    2.7608 C   0  0  1  0  0  0  0  0  0  0  0  0
   -4.2248    6.4246    2.3856 C   0  0  1  0  0  0  0  0  0  0  0  0
   -6.3297    7.3963    3.1350 N   0  3  0  0  0  0  0  0  0  0  0  0
   -2.6725    6.7587    6.3897 N   0  3  0  0  0  0  0  0  0  0  0  0
   -2.1143    5.4916    1.6719 O   0  0  0  0  0  0  0  0  0  0  0  0
   -4.8906    5.8693    1.2370 O   0  0  0  0  0  0  0  0  0  0  0  0
   -1.5082    4.1526    5.0830 C   0  0  1  0  0  0  0  0  0  0  0  0
   -0.2440    3.5874    5.7328 C   0  0  1  0  0  0  0  0  0  0  0  0
    0.7502    3.1562    4.6651 C   0  0  0  0  0  0  0  0  0  0  0  0
    0.0772    2.1718    3.7225 C   0  0  1  0  0  0  0  0  0  0  0  0
   -1.1847    2.8014    3.1337 C   0  0  1  0  0  0  0  0  0  0  0  0
   -1.9430    1.8512    2.2248 C   0  0  0  0  0  0  0  0  0  0  0  0
    0.3479    4.5588    6.6829 N   0  3  0  0  0  0  0  0  0  0  0  0
   -2.0736    0.5057    2.8333 N   0  3  0  0  0  0  0  0  0  0  0  0
   -1.2045    5.2949    4.3542 O   0  0  0  0  0  0  0  0  0  0  0  0
    0.9707    1.8109    2.6792 O   0  0  0  0  0  0  0  0  0  0  0  0
   -2.0866    3.1908    4.1922 O   0  0  0  0  0  0  0  0  0  0  0  0
  1  2  1  0  0  0  0
  1 10  1  0  0  0  0
  1 21  1  6  0  0  0
  2  3  1  0  0  0  0
  2  7  1  6  0  0  0
  3  4  1  0  0  0  0
  3  8  1  6  0  0  0
  4  5  1  0  0  0  0
  4  9  1  6  0  0  0
  5  6  1  1  0  0  0
  5 10  1  0  0  0  0
  6 11  1  0  0  0  0
 12 13  1  0  0  0  0
 12 17  1  0  0  0  0
 12 18  1  6  0  0  0
 13 14  1  0  0  0  0
 14 15  1  0  0  0  0
 14 19  1  1  0  0  0
 15 16  1  0  0  0  0
 15 30  1  1  0  0  0
 16 17  1  0  0  0  0
 16 20  1  6  0  0  0
 17 21  1  6  0  0  0
 22 23  1  0  0  0  0
 22 30  1  6  0  0  0
 22 32  1  0  0  0  0
 23 24  1  0  0  0  0
 23 28  1  1  0  0  0
 24 25  1  0  0  0  0
 25 26  1  0  0  0  0
 25 31  1  6  0  0  0
 26 27  1  6  0  0  0
 26 32  1  0  0  0  0
 27 29  1  0  0  0  0
M  CHG  5   8   1  18   1  19   1  28   1  29   1
M  END
>  <CHROM.1>
-145.33579055,-76.72865198,48.49266761,-54.98221915,129.96258597,-85.72967369
86.29573583,128.47126966,40.67582952,-54.08036220,-39.20234389,-163.85932679
-129.79311481,-58.83552113,45.62506945,-86.59624967,-3.86112710,4.75206982
2.54081556,-2.90401000,-0.57232004,0.86396437

>  <Name>
1tob

>  <RI>
0

>  <Rbt.Current_Directory>
/home/itssahil/PROJECTS/Mol_Feturizer/New_Systems/rnas/1tob

>  <Rbt.Executable>
rbdock ($Id: //depot/dev/client3/rdock/2013.1/src/exe/rbdock.cxx#4 $)

>  <Rbt.Library>
libRbt.so (2013.1, Build901 2013/11/27)

>  <Rbt.Parameter_File>
/export/apps/rDock/src/rDock_2013.1_src/data/scripts/dock_solv.prm

>  <Rbt.Receptor>
prm/blind_docking_20.prm

>  <SCORE>
-21.6658

>  <SCORE.INTER>
-35.6829

>  <SCORE.INTER.CONST>
1

>  <SCORE.INTER.POLAR>
-5.62967

>  <SCORE.INTER.ROT>
6

>  <SCORE.INTER.SOLV>
44.3858

>  <SCORE.INTER.VDW>
-27.4183

>  <SCORE.INTER.norm>
-1.11509

>  <SCORE.INTRA>
7.35487

>  <SCORE.INTRA.DIHEDRAL>
6.62394

>  <SCORE.INTRA.DIHEDRAL.0>
22.9177

>  <SCORE.INTRA.POLAR>
-1.18155

>  <SCORE.INTRA.POLAR.0>
-0.311208

>  <SCORE.INTRA.REPUL>
0

>  <SCORE.INTRA.REPUL.0>
0

>  <SCORE.INTRA.SOLV>
3.80664

>  <SCORE.INTRA.SOLV.lig_0>
-132.657

>  <SCORE.INTRA.VDW>
6.15685

>  <SCORE.INTRA.VDW.0>
-4.68867

>  <SCORE.INTRA.norm>
0.22984

>  <SCORE.RESTR>
6.66223

>  <SCORE.RESTR.CAVITY>
6.66223

>  <SCORE.RESTR.norm>
0.208195

>  <SCORE.SYSTEM>
0

>  <SCORE.SYSTEM.CONST>
0

>  <SCORE.SYSTEM.DIHEDRAL>
0

>  <SCORE.SYSTEM.SOLV>
0

>  <SCORE.SYSTEM.norm>
0

>  <SCORE.heavy>
32

>  <SCORE.norm>
-0.677057

>  <RMSD>
8.086

$$$$
1tob
 OpenBabel11021811413D
libRbt.so/2013.1/901 2013/11/27
 32 34  0  0  0  0  0  0  0  0999 V2000
   -5.2117    4.3736    1.5590 C   0  0  2  0  0  0  0  0  0  0  0  0
   -5.3134    3.5564    0.2733 C   0  0  1  0  0  0  0  0  0  0  0  0
   -6.1625    4.3056   -0.7446 C   0  0  2  0  0  0  0  0  0  0  0  0
   -7.5216    4.6240   -0.1331 C   0  0  1  0  0  0  0  0  0  0  0  0
   -7.3359    5.4031    1.1661 C   0  0  1  0  0  0  0  0  0  0  0  0
   -8.6522    5.6839    1.8639 C   0  0  0  0  0  0  0  0  0  0  0  0
   -4.0147    3.3343   -0.2574 O   0  0  0  0  0  0  0  0  0  0  0  0
   -6.2888    3.5381   -2.0025 N   0  3  0  0  0  0  0  0  0  0  0  0
   -8.2961    5.3833   -1.0516 O   0  0  0  0  0  0  0  0  0  0  0  0
   -6.5171    4.6466    2.0839 O   0  0  0  0  0  0  0  0  0  0  0  0
   -8.5543    6.8118    2.7221 O   0  0  0  0  0  0  0  0  0  0  0  0
   -4.9529    6.5234    3.5064 C   0  0  2  0  0  0  0  0  0  0  0  0
   -4.2485    7.1397    4.7074 C   0  0  0  0  0  0  0  0  0  0  0  0
   -3.2243    6.1627    5.2855 C   0  0  1  0  0  0  0  0  0  0  0  0
   -2.1886    5.8125    4.2195 C   0  0  2  0  0  0  0  0  0  0  0  0
   -2.8797    5.1988    3.0008 C   0  0  1  0  0  0  0  0  0  0  0  0
   -3.9230    6.1677    2.4453 C   0  0  1  0  0  0  0  0  0  0  0  0
   -5.9217    7.4768    2.9225 N   0  3  0  0  0  0  0  0  0  0  0  0
   -2.6058    6.7425    6.5059 N   0  3  0  0  0  0  0  0  0  0  0  0
   -1.9158    4.9000    2.0000 O   0  0  0  0  0  0  0  0  0  0  0  0
   -4.5810    5.5781    1.3093 O   0  0  0  0  0  0  0  0  0  0  0  0
   -1.7306    3.7207    5.3051 C   0  0  1  0  0  0  0  0  0  0  0  0
   -0.7043    3.0854    6.2448 C   0  0  1  0  0  0  0  0  0  0  0  0
    0.5387    2.6761    5.4690 C   0  0  0  0  0  0  0  0  0  0  0  0
    0.1359    1.7603    4.3247 C   0  0  1  0  0  0  0  0  0  0  0  0
   -0.9041    2.4568    3.4478 C   0  0  1  0  0  0  0  0  0  0  0  0
   -1.3977    1.5761    2.3143 C   0  0  0  0  0  0  0  0  0  0  0  0
   -0.3816    3.9904    7.3732 N   0  3  0  0  0  0  0  0  0  0  0  0
   -2.0482    0.3462    2.8258 N   0  3  0  0  0  0  0  0  0  0  0  0
   -1.2189    4.8871    4.7523 O   0  0  0  0  0  0  0  0  0  0  0  0
    1.2764    1.4232    3.5486 O   0  0  0  0  0  0  0  0  0  0  0  0
   -2.0565    2.8219    4.2378 O   0  0  0  0  0  0  0  0  0  0  0  0
  1  2  1  0  0  0  0
  1 10  1  0  0  0  0
  1 21  1  6  0  0  0
  2  3  1  0  0  0  0
  2  7  1  6  0  0  0
  3  4  1  0  0  0  0
  3  8  1  6  0  0  0
  4  5  1  0  0  0  0
  4  9  1  6  0  0  0
  5  6  1  1  0  0  0
  5 10  1  0  0  0  0
  6 11  1  0  0  0  0
 12 13  1  0  0  0  0
 12 17  1  0  0  0  0
 12 18  1  6  0  0  0
 13 14  1  0  0  0  0
 14 15  1  0  0  0  0
 14 19  1  1  0  0  0
 15 16  1  0  0  0  0
 15 30  1  1  0  0  0
 16 17  1  0  0  0  0
 16 20  1  6  0  0  0
 17 21  1  6  0  0  0
 22 23  1  0  0  0  0
 22 30  1  6  0  0  0
 22 32  1  0  0  0  0
 23 24  1  0  0  0  0
 23 28  1  1  0  0  0
 24 25  1  0  0  0  0
 25 26  1  0  0  0  0
 25 31  1  6  0  0  0
 26 27  1  6  0  0  0
 26 32  1  0  0  0  0
 27 29  1  0  0  0  0
M  CHG  5   8   1  18   1  19   1  28   1  29   1
M  END
>  <CHROM.1>
-154.63931105,92.96798321,-56.39621103,175.81130806,-156.40628410,-102.69593992
-91.87494758,-97.99528796,54.78128725,34.79356359,-64.01887196,-160.05675873
-162.59949942,-67.48394701,60.81619221,14.28521170,-3.72050762,4.43587945
2.83533222,-2.89550239,-0.60130345,0.87186161

>  <Name>
1tob

>  <RI>
0

>  <Rbt.Current_Directory>
/home/itssahil/PROJECTS/Mol_Feturizer/New_Systems/rnas/1tob

>  <Rbt.Executable>
rbdock ($Id: //depot/dev/client3/rdock/2013.1/src/exe/rbdock.cxx#4 $)

>  <Rbt.Library>
libRbt.so (2013.1, Build901 2013/11/27)

>  <Rbt.Parameter_File>
/export/apps/rDock/src/rDock_2013.1_src/data/scripts/dock_solv.prm

>  <Rbt.Receptor>
prm/blind_docking_100.prm

>  <SCORE>
-22.3128

>  <SCORE.INTER>
-35.8733

>  <SCORE.INTER.CONST>
1

>  <SCORE.INTER.POLAR>
-7.40693

>  <SCORE.INTER.ROT>
6

>  <SCORE.INTER.SOLV>
44.7633

>  <SCORE.INTER.VDW>
-21.7468

>  <SCORE.INTER.norm>
-1.12104

>  <SCORE.INTRA>
6.84945

>  <SCORE.INTRA.DIHEDRAL>
4.87336

>  <SCORE.INTRA.DIHEDRAL.0>
22.9177

>  <SCORE.INTRA.POLAR>
-0.275274

>  <SCORE.INTRA.POLAR.0>
-0.311208

>  <SCORE.INTRA.REPUL>
0

>  <SCORE.INTRA.REPUL.0>
0

>  <SCORE.INTRA.SOLV>
3.61329

>  <SCORE.INTRA.SOLV.lig_0>
-132.657

>  <SCORE.INTRA.VDW>
3.54206

>  <SCORE.INTRA.VDW.0>
-4.68867

>  <SCORE.INTRA.norm>
0.214045

>  <SCORE.RESTR>
6.71097

>  <SCORE.RESTR.CAVITY>
6.71097

>  <SCORE.RESTR.norm>
0.209718

>  <SCORE.SYSTEM>
0

>  <SCORE.SYSTEM.CONST>
0

>  <SCORE.SYSTEM.DIHEDRAL>
0

>  <SCORE.SYSTEM.SOLV>
0

>  <SCORE.SYSTEM.norm>
0

>  <SCORE.heavy>
32

>  <SCORE.norm>
-0.697276

>  <RMSD>
8.088

$$$$
1tob
 OpenBabel11021811413D
libRbt.so/2013.1/901 2013/11/27
 32 34  0  0  0  0  0  0  0  0999 V2000
   -3.8910    6.4904    4.1699 C   0  0  2  0  0  0  0  0  0  0  0  0
   -4.6531    7.4703    5.0589 C   0  0  1  0  0  0  0  0  0  0  0  0
   -5.3665    8.4997    4.1931 C   0  0  2  0  0  0  0  0  0  0  0  0
   -4.3537    9.1853    3.2839 C   0  0  1  0  0  0  0  0  0  0  0  0
   -3.6055    8.1405    2.4605 C   0  0  1  0  0  0  0  0  0  0  0  0
   -2.5275    8.7555    1.5898 C   0  0  0  0  0  0  0  0  0  0  0  0
   -5.6028    6.7652    5.8452 O   0  0  0  0  0  0  0  0  0  0  0  0
   -6.1106    9.4717    5.0232 N   0  3  0  0  0  0  0  0  0  0  0  0
   -5.0209   10.0991    2.4237 O   0  0  0  0  0  0  0  0  0  0  0  0
   -2.9595    7.1907    3.3356 O   0  0  0  0  0  0  0  0  0  0  0  0
   -1.4820    9.3124    2.3740 O   0  0  0  0  0  0  0  0  0  0  0  0
   -3.5395    5.1800    1.3685 C   0  0  2  0  0  0  0  0  0  0  0  0
   -2.9306    3.9981    0.6265 C   0  0  0  0  0  0  0  0  0  0  0  0
   -1.8972    3.2912    1.5040 C   0  0  1  0  0  0  0  0  0  0  0  0
   -2.5641    2.7925    2.7840 C   0  0  2  0  0  0  0  0  0  0  0  0
   -3.1890    3.9665    3.5394 C   0  0  1  0  0  0  0  0  0  0  0  0
   -4.1992    4.6873    2.6473 C   0  0  1  0  0  0  0  0  0  0  0  0
   -4.5640    5.8481    0.5364 N   0  3  0  0  0  0  0  0  0  0  0  0
   -1.2506    2.1937    0.7388 N   0  3  0  0  0  0  0  0  0  0  0  0
   -3.8326    3.4948    4.7156 O   0  0  0  0  0  0  0  0  0  0  0  0
   -4.7713    5.8003    3.3578 O   0  0  0  0  0  0  0  0  0  0  0  0
   -0.3517    2.7337    3.7143 C   0  0  1  0  0  0  0  0  0  0  0  0
    0.6526    1.7842    4.3700 C   0  0  1  0  0  0  0  0  0  0  0  0
    0.2284    1.4713    5.7970 C   0  0  0  0  0  0  0  0  0  0  0  0
    0.0539    2.7718    6.5643 C   0  0  1  0  0  0  0  0  0  0  0  0
   -0.9443    3.6709    5.8357 C   0  0  1  0  0  0  0  0  0  0  0  0
   -1.1248    5.0159    6.5159 C   0  0  0  0  0  0  0  0  0  0  0  0
    0.8314    0.5550    3.5616 N   0  3  0  0  0  0  0  0  0  0  0  0
   -0.9133    4.9169    7.9799 N   0  3  0  0  0  0  0  0  0  0  0  0
   -1.5974    2.1272    3.6227 O   0  0  0  0  0  0  0  0  0  0  0  0
   -0.4082    2.5009    7.8795 O   0  0  0  0  0  0  0  0  0  0  0  0
   -0.4896    3.9307    4.4899 O   0  0  0  0  0  0  0  0  0  0  0  0
  1  2  1  0  0  0  0
  1 10  1  0  0  0  0
  1 21  1  6  0  0  0
  2  3  1  0  0  0  0
  2  7  1  6  0  0  0
  3  4  1  0  0  0  0
  3  8  1  1  0  0  0
  4  5  1  0  0  0  0
  4  9  1  6  0  0  0
  5  6  1  1  0  0  0
  5 10  1  0  0  0  0
  6 11  1  0  0  0  0
 12 13  1  0  0  0  0
 12 17  1  0  0  0  0
 12 18  1  6  0  0  0
 13 14  1  0  0  0  0
 14 15  1  0  0  0  0
 14 19  1  6  0  0  0
 15 16  1  0  0  0  0
 15 30  1  1  0  0  0
 16 17  1  0  0  0  0
 16 20  1  1  0  0  0
 17 21  1  1  0  0  0
 22 23  1  0  0  0  0
 22 30  1  1  0  0  0
 22 32  1  0  0  0  0
 23 24  1  0  0  0  0
 23 28  1  6  0  0  0
 24 25  1  0  0  0  0
 25 26  1  0  0  0  0
 25 31  1  1  0  0  0
 26 27  1  1  0  0  0
 26 32  1  0  0  0  0
 27 29  1  0  0  0  0
M  CHG  5   8   1  18   1  19   1  28   1  29   1
M  END
>  <CHROM.1>
-169.53904065,173.62176643,-167.52656042,177.20675010,66.41219941,60.46703954
-162.86696869,-25.36372983,41.64518568,-58.23152540,-84.17916217,-167.66301495
-60.50070470,-62.24747001,-29.89101055,163.78280838,-2.58828144,5.14640803
3.83125717,-3.12318632,0.99449645,-1.84240007

>  <Name>
1tob

>  <RI>
0

>  <Rbt.Current_Directory>
/home/itssahil/PROJECTS/Mol_Feturizer/New_Systems/rnas/1tob

>  <Rbt.Executable>
rbdock ($Id: //depot/dev/client3/rdock/2013.1/src/exe/rbdock.cxx#4 $)

>  <Rbt.Library>
libRbt.so (2013.1, Build901 2013/11/27)

>  <Rbt.Parameter_File>
/export/apps/rDock/src/rDock_2013.1_src/data/scripts/dock_solv.prm

>  <Rbt.Receptor>
prm/blind_docking_40.prm

>  <SCORE>
-13.4116

>  <SCORE.INTER>
-23.563

>  <SCORE.INTER.CONST>
1

>  <SCORE.INTER.POLAR>
-6.94102

>  <SCORE.INTER.ROT>
6

>  <SCORE.INTER.SOLV>
43.0653

>  <SCORE.INTER.VDW>
-14.5271

>  <SCORE.INTER.norm>
-0.736344

>  <SCORE.INTRA>
2.87578

>  <SCORE.INTRA.DIHEDRAL>
-10.4736

>  <SCORE.INTRA.DIHEDRAL.0>
22.9177

>  <SCORE.INTRA.POLAR>
0.0957812

>  <SCORE.INTRA.POLAR.0>
-0.311208

>  <SCORE.INTRA.REPUL>
0.0369003

>  <SCORE.INTRA.REPUL.0>
0

>  <SCORE.INTRA.SOLV>
1.48455

>  <SCORE.INTRA.SOLV.lig_0>
-132.657

>  <SCORE.INTRA.VDW>
6.86015

>  <SCORE.INTRA.VDW.0>
-4.68867

>  <SCORE.INTRA.norm>
0.089868

>  <SCORE.RESTR>
7.27565

>  <SCORE.RESTR.CAVITY>
7.27565

>  <SCORE.RESTR.norm>
0.227364

>  <SCORE.SYSTEM>
0

>  <SCORE.SYSTEM.CONST>
0

>  <SCORE.SYSTEM.DIHEDRAL>
0

>  <SCORE.SYSTEM.SOLV>
0

>  <SCORE.SYSTEM.norm>
0

>  <SCORE.heavy>
32

>  <SCORE.norm>
-0.419112

>  <RMSD>
8.088

$$$$
1tob
 OpenBabel11021811413D
libRbt.so/2013.1/901 2013/11/27
 32 34  0  0  0  0  0  0  0  0999 V2000
   -6.0990    5.1740    1.7824 C   0  0  2  0  0  0  0  0  0  0  0  0
   -5.8335    3.9081    0.9710 C   0  0  1  0  0  0  0  0  0  0  0  0
   -5.9719    4.2127   -0.5144 C   0  0  2  0  0  0  0  0  0  0  0  0
   -7.3468    4.8133   -0.7817 C   0  0  1  0  0  0  0  0  0  0  0  0
   -7.5532    6.0462    0.0939 C   0  0  1  0  0  0  0  0  0  0  0  0
   -8.9359    6.6458   -0.0703 C   0  0  0  0  0  0  0  0  0  0  0  0
   -4.5234    3.4310    1.2420 O   0  0  0  0  0  0  0  0  0  0  0  0
   -5.7281    3.0046   -1.3319 N   0  3  0  0  0  0  0  0  0  0  0  0
   -7.4594    5.1644   -2.1543 O   0  0  0  0  0  0  0  0  0  0  0  0
   -7.4008    5.6953    1.4863 O   0  0  0  0  0  0  0  0  0  0  0  0
   -9.0804    7.8341    0.6946 O   0  0  0  0  0  0  0  0  0  0  0  0
   -5.2940    6.7510    3.8145 C   0  0  2  0  0  0  0  0  0  0  0  0
   -4.4748    7.2538    4.9954 C   0  0  0  0  0  0  0  0  0  0  0  0
   -3.3254    6.2917    5.2966 C   0  0  1  0  0  0  0  0  0  0  0  0
   -2.4214    6.1705    4.0719 C   0  0  2  0  0  0  0  0  0  0  0  0
   -3.2299    5.6738    2.8724 C   0  0  1  0  0  0  0  0  0  0  0  0
   -4.3948    6.6234    2.5945 C   0  0  1  0  0  0  0  0  0  0  0  0
   -6.3880    7.6949    3.4974 N   0  3  0  0  0  0  0  0  0  0  0  0
   -2.5863    6.7490    6.5019 N   0  3  0  0  0  0  0  0  0  0  0  0
   -2.3915    5.5891    1.7280 O   0  0  0  0  0  0  0  0  0  0  0  0
   -5.1610    6.1419    1.4756 O   0  0  0  0  0  0  0  0  0  0  0  0
   -1.6812    4.0658    4.9586 C   0  0  1  0  0  0  0  0  0  0  0  0
   -0.5166    3.5497    5.8055 C   0  0  1  0  0  0  0  0  0  0  0  0
    0.6814    3.2385    4.9211 C   0  0  0  0  0  0  0  0  0  0  0  0
    0.2612    2.2632    3.8336 C   0  0  1  0  0  0  0  0  0  0  0  0
   -0.9168    2.8405    3.0496 C   0  0  1  0  0  0  0  0  0  0  0  0
   -1.4292    1.8920    1.9810 C   0  0  0  0  0  0  0  0  0  0  0  0
   -0.1764    4.5065    6.8849 N   0  3  0  0  0  0  0  0  0  0  0  0
   -1.9490    0.6363    2.5733 N   0  3  0  0  0  0  0  0  0  0  0  0
   -1.3350    5.2612    4.3428 O   0  0  0  0  0  0  0  0  0  0  0  0
    1.3510    2.0145    2.9575 O   0  0  0  0  0  0  0  0  0  0  0  0
   -2.0196    3.1162    3.9402 O   0  0  0  0  0  0  0  0  0  0  0  0
  1  2  1  0  0  0  0
  1 10  1  0  0  0  0
  1 21  1  6  0  0  0
  2  3  1  0  0  0  0
  2  7  1  6  0  0  0
  3  4  1  0  0  0  0
  3  8  1  6  0  0  0
  4  5  1  0  0  0  0
  4  9  1  6  0  0  0
  5  6  1  1  0  0  0
  5 10  1  0  0  0  0
  6 11  1  0  0  0  0
 12 13  1  0  0  0  0
 12 17  1  0  0  0  0
 12 18  1  6  0  0  0
 13 14  1  0  0  0  0
 14 15  1  0  0  0  0
 14 19  1  1  0  0  0
 15 16  1  0  0  0  0
 15 30  1  1  0  0  0
 16 17  1  0  0  0  0
 16 20  1  6  0  0  0
 17 21  1  6  0  0  0
 22 23  1  0  0  0  0
 22 30  1  6  0  0  0
 22 32  1  0  0  0  0
 23 24  1  0  0  0  0
 23 28  1  1  0  0  0
 24 25  1  0  0  0  0
 25 26  1  0  0  0  0
 25 31  1  6  0  0  0
 26 27  1  6  0  0  0
 26 32  1  0  0  0  0
 27 29  1  0  0  0  0
M  CHG  5   8   1  18   1  19   1  28   1  29   1
M  END
>  <CHROM.1>
-122.11391910,69.99008227,-9.76926217,-53.80370055,-176.66566478,-68.85817272
66.61421140,9.37878698,45.97135129,-54.27691954,-39.00423990,-151.11891576
82.43624753,-59.45664199,62.55028221,-105.91871180,-3.85447521,4.81611717
2.59364313,2.93610243,0.60011512,-2.30314087

>  <Name>
1tob

>  <RI>
0

>  <Rbt.Current_Directory>
/home/itssahil/PROJECTS/Mol_Feturizer/New_Systems/rnas/1tob

>  <Rbt.Executable>
rbdock ($Id: //depot/dev/client3/rdock/2013.1/src/exe/rbdock.cxx#4 $)

>  <Rbt.Library>
libRbt.so (2013.1, Build901 2013/11/27)

>  <Rbt.Parameter_File>
/export/apps/rDock/src/rDock_2013.1_src/data/scripts/dock_solv.prm

>  <Rbt.Receptor>
prm/blind_docking_20.prm

>  <SCORE>
-20.7141

>  <SCORE.INTER>
-31.8209

>  <SCORE.INTER.CONST>
1

>  <SCORE.INTER.POLAR>
-5.44836

>  <SCORE.INTER.ROT>
6

>  <SCORE.INTER.SOLV>
42.1672

>  <SCORE.INTER.VDW>
-24.7085

>  <SCORE.INTER.norm>
-0.994403

>  <SCORE.INTRA>
4.04042

>  <SCORE.INTRA.DIHEDRAL>
2.93015

>  <SCORE.INTRA.DIHEDRAL.0>
22.9177

>  <SCORE.INTRA.POLAR>
-0.585575

>  <SCORE.INTRA.POLAR.0>
-0.311208

>  <SCORE.INTRA.REPUL>
0

>  <SCORE.INTRA.REPUL.0>
0

>  <SCORE.INTRA.SOLV>
3.0513

>  <SCORE.INTRA.SOLV.lig_0>
-132.657

>  <SCORE.INTRA.VDW>
3.04065

>  <SCORE.INTRA.VDW.0>
-4.68867

>  <SCORE.INTRA.norm>
0.126263

>  <SCORE.RESTR>
7.06635

>  <SCORE.RESTR.CAVITY>
7.06635

>  <SCORE.RESTR.norm>
0.220824

>  <SCORE.SYSTEM>
0

>  <SCORE.SYSTEM.CONST>
0

>  <SCORE.SYSTEM.DIHEDRAL>
0

>  <SCORE.SYSTEM.SOLV>
0

>  <SCORE.SYSTEM.norm>
0

>  <SCORE.heavy>
32

>  <SCORE.norm>
-0.647317

>  <RMSD>
8.120

$$$$
1tob
 OpenBabel11021811413D
libRbt.so/2013.1/901 2013/11/27
 32 34  0  0  0  0  0  0  0  0999 V2000
   -4.1139    6.7246    3.8983 C   0  0  2  0  0  0  0  0  0  0  0  0
   -4.8450    7.7345    4.7797 C   0  0  1  0  0  0  0  0  0  0  0  0
   -5.7891    8.5707    3.9267 C   0  0  2  0  0  0  0  0  0  0  0  0
   -5.0038    9.2259    2.7968 C   0  0  1  0  0  0  0  0  0  0  0  0
   -4.2694    8.1591    1.9893 C   0  0  1  0  0  0  0  0  0  0  0  0
   -3.4065    8.7558    0.8949 C   0  0  0  0  0  0  0  0  0  0  0  0
   -5.5839    7.0501    5.7813 O   0  0  0  0  0  0  0  0  0  0  0  0
   -6.5101    9.5668    4.7484 N   0  3  0  0  0  0  0  0  0  0  0  0
   -5.8884    9.9531    1.9550 O   0  0  0  0  0  0  0  0  0  0  0  0
   -3.3994    7.3963    2.8532 O   0  0  0  0  0  0  0  0  0  0  0  0
   -2.6776    7.7517    0.2032 O   0  0  0  0  0  0  0  0  0  0  0  0
   -4.5804    4.3445    1.4791 C   0  0  2  0  0  0  0  0  0  0  0  0
   -4.0108    2.9765    1.1293 C   0  0  0  0  0  0  0  0  0  0  0  0
   -2.5534    2.8734    1.5797 C   0  0  1  0  0  0  0  0  0  0  0  0
   -2.4652    3.0844    3.0895 C   0  0  2  0  0  0  0  0  0  0  0  0
   -3.0409    4.4519    3.4607 C   0  0  1  0  0  0  0  0  0  0  0  0
   -4.4882    4.5602    2.9818 C   0  0  1  0  0  0  0  0  0  0  0  0
   -6.0004    4.4385    1.0753 N   0  3  0  0  0  0  0  0  0  0  0  0
   -1.9852    1.5670    1.1572 N   0  3  0  0  0  0  0  0  0  0  0  0
   -2.9827    4.6330    4.8692 O   0  0  0  0  0  0  0  0  0  0  0  0
   -5.0187    5.8547    3.3193 O   0  0  0  0  0  0  0  0  0  0  0  0
   -0.3595    4.1714    3.4743 C   0  0  1  0  0  0  0  0  0  0  0  0
    1.1291    3.8608    3.3083 C   0  0  1  0  0  0  0  0  0  0  0  0
    1.6454    3.0930    4.5159 C   0  0  0  0  0  0  0  0  0  0  0  0
    1.3417    3.8825    5.7788 C   0  0  1  0  0  0  0  0  0  0  0  0
   -0.1571    4.1704    5.8594 C   0  0  1  0  0  0  0  0  0  0  0  0
   -0.5273    5.0088    7.0695 C   0  0  0  0  0  0  0  0  0  0  0  0
    1.3856    3.1386    2.0398 N   0  3  0  0  0  0  0  0  0  0  0  0
   -0.0296    4.3988    8.3257 N   0  3  0  0  0  0  0  0  0  0  0  0
   -1.0934    2.9938    3.5258 O   0  0  0  0  0  0  0  0  0  0  0  0
    1.7561    3.1481    6.9215 O   0  0  0  0  0  0  0  0  0  0  0  0
   -0.5876    4.8975    4.6884 O   0  0  0  0  0  0  0  0  0  0  0  0
  1  2  1  0  0  0  0
  1 10  1  0  0  0  0
  1 21  1  6  0  0  0
  2  3  1  0  0  0  0
  2  7  1  1  0  0  0
  3  4  1  0  0  0  0
  3  8  1  1  0  0  0
  4  5  1  0  0  0  0
  4  9  1  6  0  0  0
  5  6  1  6  0  0  0
  5 10  1  0  0  0  0
  6 11  1  0  0  0  0
 12 13  1  0  0  0  0
 12 17  1  0  0  0  0
 12 18  1  1  0  0  0
 13 14  1  0  0  0  0
 14 15  1  0  0  0  0
 14 19  1  1  0  0  0
 15 16  1  0  0  0  0
 15 30  1  6  0  0  0
 16 17  1  0  0  0  0
 16 20  1  1  0  0  0
 17 21  1  6  0  0  0
 22 23  1  0  0  0  0
 22 30  1  1  0  0  0
 22 32  1  0  0  0  0
 23 24  1  0  0  0  0
 23 28  1  6  0  0  0
 24 25  1  0  0  0  0
 25 26  1  0  0  0  0
 25 31  1  1  0  0  0
 26 27  1  1  0  0  0
 26 32  1  0  0  0  0
 27 29  1  0  0  0  0
M  CHG  5   8   1  18   1  19   1  28   1  29   1
M  END
>  <CHROM.1>
-153.47243932,70.94445167,-54.91243362,-51.31473822,176.85989852,-172.44887671
151.36406310,166.15329046,87.26354471,104.75609230,-117.97839127,-153.36209049
50.73123090,65.36783592,-54.12659247,147.42911281,-2.63180619,5.39473590
3.55996800,-3.03811347,0.72270783,-2.14506068

>  <Name>
1tob

>  <RI>
0

>  <Rbt.Current_Directory>
/home/itssahil/PROJECTS/Mol_Feturizer/New_Systems/rnas/1tob

>  <Rbt.Executable>
rbdock ($Id: //depot/dev/client3/rdock/2013.1/src/exe/rbdock.cxx#4 $)

>  <Rbt.Library>
libRbt.so (2013.1, Build901 2013/11/27)

>  <Rbt.Parameter_File>
/export/apps/rDock/src/rDock_2013.1_src/data/scripts/dock_solv.prm

>  <Rbt.Receptor>
prm/blind_docking_60.prm

>  <SCORE>
-35.9264

>  <SCORE.INTER>
-49.4898

>  <SCORE.INTER.CONST>
1

>  <SCORE.INTER.POLAR>
-7.6853

>  <SCORE.INTER.ROT>
6

>  <SCORE.INTER.SOLV>
35.7664

>  <SCORE.INTER.VDW>
-26.8977

>  <SCORE.INTER.norm>
-1.54656

>  <SCORE.INTRA>
8.44216

>  <SCORE.INTRA.DIHEDRAL>
5.27279

>  <SCORE.INTRA.DIHEDRAL.0>
22.9177

>  <SCORE.INTRA.POLAR>
-1.23144

>  <SCORE.INTRA.POLAR.0>
-0.311208

>  <SCORE.INTRA.REPUL>
0.164243

>  <SCORE.INTRA.REPUL.0>
0

>  <SCORE.INTRA.SOLV>
-2.44073

>  <SCORE.INTRA.SOLV.lig_0>
-132.657

>  <SCORE.INTRA.VDW>
10.3918

>  <SCORE.INTRA.VDW.0>
-4.68867

>  <SCORE.INTRA.norm>
0.263817

>  <SCORE.RESTR>
5.12128

>  <SCORE.RESTR.CAVITY>
5.12128

>  <SCORE.RESTR.norm>
0.16004

>  <SCORE.SYSTEM>
0

>  <SCORE.SYSTEM.CONST>
0

>  <SCORE.SYSTEM.DIHEDRAL>
0

>  <SCORE.SYSTEM.SOLV>
0

>  <SCORE.SYSTEM.norm>
0

>  <SCORE.heavy>
32

>  <SCORE.norm>
-1.1227

>  <RMSD>
8.158

$$$$
1tob
 OpenBabel11021811413D
libRbt.so/2013.1/901 2013/11/27
 32 34  0  0  0  0  0  0  0  0999 V2000
   -3.7034    6.9737    5.2419 C   0  0  2  0  0  0  0  0  0  0  0  0
   -3.8152    8.3948    5.7890 C   0  0  1  0  0  0  0  0  0  0  0  0
   -4.1132    9.3606    4.6503 C   0  0  2  0  0  0  0  0  0  0  0  0
   -3.0430    9.2199    3.5744 C   0  0  1  0  0  0  0  0  0  0  0  0
   -2.9630    7.7684    3.1096 C   0  0  1  0  0  0  0  0  0  0  0  0
   -1.8611    7.5482    2.0918 C   0  0  0  0  0  0  0  0  0  0  0  0
   -4.8557    8.4564    6.7539 O   0  0  0  0  0  0  0  0  0  0  0  0
   -4.2209   10.7506    5.1439 N   0  3  0  0  0  0  0  0  0  0  0  0
   -3.3506   10.0683    2.4764 O   0  0  0  0  0  0  0  0  0  0  0  0
   -2.6880    6.9036    4.2328 O   0  0  0  0  0  0  0  0  0  0  0  0
   -2.2266    8.0505    0.8143 O   0  0  0  0  0  0  0  0  0  0  0  0
   -5.3225    5.8561    2.4097 C   0  0  2  0  0  0  0  0  0  0  0  0
   -5.2259    4.6607    1.4716 C   0  0  0  0  0  0  0  0  0  0  0  0
   -3.7807    4.1705    1.3778 C   0  0  1  0  0  0  0  0  0  0  0  0
   -3.2842    3.7644    2.7636 C   0  0  2  0  0  0  0  0  0  0  0  0
   -3.3816    4.9520    3.7225 C   0  0  1  0  0  0  0  0  0  0  0  0
   -4.8227    5.4564    3.7894 C   0  0  1  0  0  0  0  0  0  0  0  0
   -6.7240    6.3143    2.5301 N   0  3  0  0  0  0  0  0  0  0  0  0
   -3.6867    3.0596    0.3955 N   0  3  0  0  0  0  0  0  0  0  0  0
   -2.9450    4.5624    5.0178 O   0  0  0  0  0  0  0  0  0  0  0  0
   -4.9047    6.5836    4.6802 O   0  0  0  0  0  0  0  0  0  0  0  0
   -0.9895    4.0358    3.4152 C   0  0  1  0  0  0  0  0  0  0  0  0
    0.3054    4.1894    2.6155 C   0  0  1  0  0  0  0  0  0  0  0  0
    0.9377    2.8279    2.3690 C   0  0  0  0  0  0  0  0  0  0  0  0
    1.1428    2.1226    3.6998 C   0  0  1  0  0  0  0  0  0  0  0  0
   -0.1883    2.0287    4.4447 C   0  0  1  0  0  0  0  0  0  0  0  0
   -0.0490    1.3857    5.8126 C   0  0  0  0  0  0  0  0  0  0  0  0
    0.0686    4.9286    1.3529 N   0  3  0  0  0  0  0  0  0  0  0  0
    0.9127    2.1251    6.6648 N   0  3  0  0  0  0  0  0  0  0  0  0
   -1.9193    3.3041    2.6885 O   0  0  0  0  0  0  0  0  0  0  0  0
    1.6696    0.8217    3.4832 O   0  0  0  0  0  0  0  0  0  0  0  0
   -0.7390    3.3482    4.6472 O   0  0  0  0  0  0  0  0  0  0  0  0
  1  2  1  0  0  0  0
  1 10  1  0  0  0  0
  1 21  1  6  0  0  0
  2  3  1  0  0  0  0
  2  7  1  1  0  0  0
  3  4  1  0  0  0  0
  3  8  1  1  0  0  0
  4  5  1  0  0  0  0
  4  9  1  6  0  0  0
  5  6  1  6  0  0  0
  5 10  1  0  0  0  0
  6 11  1  0  0  0  0
 12 13  1  0  0  0  0
 12 17  1  0  0  0  0
 12 18  1  1  0  0  0
 13 14  1  0  0  0  0
 14 15  1  0  0  0  0
 14 19  1  6  0  0  0
 15 16  1  0  0  0  0
 15 30  1  6  0  0  0
 16 17  1  0  0  0  0
 16 20  1  1  0  0  0
 17 21  1  1  0  0  0
 22 23  1  0  0  0  0
 22 30  1  6  0  0  0
 22 32  1  0  0  0  0
 23 24  1  0  0  0  0
 23 28  1  6  0  0  0
 24 25  1  0  0  0  0
 25 26  1  0  0  0  0
 25 31  1  6  0  0  0
 26 27  1  1  0  0  0
 26 32  1  0  0  0  0
 27 29  1  0  0  0  0
M  CHG  5   8   1  18   1  19   1  28   1  29   1
M  END
>  <CHROM.1>
162.06117103,173.20476387,59.89504260,-64.66587991,-75.54094636,-138.75381239
-178.76538399,72.21006012,118.40123510,128.21283007,-120.84965309,-139.84437255
-105.09687472,29.71248363,57.87404634,-62.19020636,-2.48955912,5.46069472
3.53635882,-2.62497950,0.82642407,-2.19884213

>  <Name>
1tob

>  <RI>
0

>  <Rbt.Current_Directory>
/home/itssahil/PROJECTS/Mol_Feturizer/New_Systems/rnas/1tob

>  <Rbt.Executable>
rbdock ($Id: //depot/dev/client3/rdock/2013.1/src/exe/rbdock.cxx#4 $)

>  <Rbt.Library>
libRbt.so (2013.1, Build901 2013/11/27)

>  <Rbt.Parameter_File>
/export/apps/rDock/src/rDock_2013.1_src/data/scripts/dock_solv.prm

>  <Rbt.Receptor>
prm/blind_docking_100.prm

>  <SCORE>
48.2616

>  <SCORE.INTER>
-2.10048

>  <SCORE.INTER.CONST>
1

>  <SCORE.INTER.POLAR>
-6.10559

>  <SCORE.INTER.ROT>
6

>  <SCORE.INTER.SOLV>
31.9455

>  <SCORE.INTER.VDW>
0.703152

>  <SCORE.INTER.norm>
-0.06564

>  <SCORE.INTRA>
38.2635

>  <SCORE.INTRA.DIHEDRAL>
19.157

>  <SCORE.INTRA.DIHEDRAL.0>
22.9177

>  <SCORE.INTRA.POLAR>
0.281178

>  <SCORE.INTRA.POLAR.0>
-0.311208

>  <SCORE.INTRA.REPUL>
0

>  <SCORE.INTRA.REPUL.0>
0

>  <SCORE.INTRA.SOLV>
-1.21516

>  <SCORE.INTRA.SOLV.lig_0>
-132.657

>  <SCORE.INTRA.VDW>
28.3366

>  <SCORE.INTRA.VDW.0>
-4.68867

>  <SCORE.INTRA.norm>
1.19574

>  <SCORE.RESTR>
12.0985

>  <SCORE.RESTR.CAVITY>
12.0985

>  <SCORE.RESTR.norm>
0.378079

>  <SCORE.SYSTEM>
0

>  <SCORE.SYSTEM.CONST>
0

>  <SCORE.SYSTEM.DIHEDRAL>
0

>  <SCORE.SYSTEM.SOLV>
0

>  <SCORE.SYSTEM.norm>
0

>  <SCORE.heavy>
32

>  <SCORE.norm>
1.50817

>  <RMSD>
8.164

$$$$
1tob
 OpenBabel11021811413D
libRbt.so/2013.1/901 2013/11/27
 32 34  0  0  0  0  0  0  0  0999 V2000
   -5.6371    6.0602    3.5257 C   0  0  2  0  0  0  0  0  0  0  0  0
   -6.7750    6.8415    2.8730 C   0  0  1  0  0  0  0  0  0  0  0  0
   -6.4011    8.3150    2.7858 C   0  0  2  0  0  0  0  0  0  0  0  0
   -6.0464    8.8299    4.1756 C   0  0  1  0  0  0  0  0  0  0  0  0
   -4.9344    7.9749    4.7771 C   0  0  1  0  0  0  0  0  0  0  0  0
   -4.5890    8.3904    6.1936 C   0  0  0  0  0  0  0  0  0  0  0  0
   -7.0207    6.3320    1.5701 O   0  0  0  0  0  0  0  0  0  0  0  0
   -7.4859    9.1050    2.1641 N   0  3  0  0  0  0  0  0  0  0  0  0
   -5.6298   10.1863    4.0939 O   0  0  0  0  0  0  0  0  0  0  0  0
   -5.3448    6.5913    4.8243 O   0  0  0  0  0  0  0  0  0  0  0  0
   -3.4803    7.6565    6.6939 O   0  0  0  0  0  0  0  0  0  0  0  0
   -4.3924    4.0097    1.6180 C   0  0  2  0  0  0  0  0  0  0  0  0
   -3.5846    2.7242    1.5030 C   0  0  0  0  0  0  0  0  0  0  0  0
   -2.1471    3.0322    1.0830 C   0  0  1  0  0  0  0  0  0  0  0  0
   -1.4938    3.9466    2.1168 C   0  0  2  0  0  0  0  0  0  0  0  0
   -2.2972    5.2411    2.2517 C   0  0  1  0  0  0  0  0  0  0  0  0
   -3.7405    4.9254    2.6426 C   0  0  1  0  0  0  0  0  0  0  0  0
   -5.7755    3.7207    2.0561 N   0  3  0  0  0  0  0  0  0  0  0  0
   -1.3941    1.7655    0.8923 N   0  3  0  0  0  0  0  0  0  0  0  0
   -1.7018    6.0774    3.2346 O   0  0  0  0  0  0  0  0  0  0  0  0
   -4.4950    6.1459    2.7517 O   0  0  0  0  0  0  0  0  0  0  0  0
    0.7287    4.5884    2.7591 C   0  0  1  0  0  0  0  0  0  0  0  0
    1.9468    3.6631    2.7542 C   0  0  1  0  0  0  0  0  0  0  0  0
    1.5193    2.2272    3.0180 C   0  0  0  0  0  0  0  0  0  0  0  0
    0.7357    2.1688    4.3191 C   0  0  1  0  0  0  0  0  0  0  0  0
   -0.4475    3.1338    4.2526 C   0  0  1  0  0  0  0  0  0  0  0  0
   -1.2444    3.1720    5.5440 C   0  0  0  0  0  0  0  0  0  0  0  0
    2.7101    3.7922    1.4905 N   0  3  0  0  0  0  0  0  0  0  0  0
   -0.8402    4.3143    6.3981 N   0  3  0  0  0  0  0  0  0  0  0  0
   -0.1377    4.2480    1.7288 O   0  0  0  0  0  0  0  0  0  0  0  0
    0.2702    0.8464    4.5462 O   0  0  0  0  0  0  0  0  0  0  0  0
    0.0195    4.4766    3.9992 O   0  0  0  0  0  0  0  0  0  0  0  0
  1  2  1  0  0  0  0
  1 10  1  0  0  0  0
  1 21  1  6  0  0  0
  2  3  1  0  0  0  0
  2  7  1  6  0  0  0
  3  4  1  0  0  0  0
  3  8  1  1  0  0  0
  4  5  1  0  0  0  0
  4  9  1  6  0  0  0
  5  6  1  1  0  0  0
  5 10  1  0  0  0  0
  6 11  1  0  0  0  0
 12 13  1  0  0  0  0
 12 17  1  0  0  0  0
 12 18  1  1  0  0  0
 13 14  1  0  0  0  0
 14 15  1  0  0  0  0
 14 19  1  1  0  0  0
 15 16  1  0  0  0  0
 15 30  1  6  0  0  0
 16 17  1  0  0  0  0
 16 20  1  1  0  0  0
 17 21  1  6  0  0  0
 22 23  1  0  0  0  0
 22 30  1  6  0  0  0
 22 32  1  0  0  0  0
 23 24  1  0  0  0  0
 23 28  1  6  0  0  0
 24 25  1  0  0  0  0
 25 26  1  0  0  0  0
 25 31  1  6  0  0  0
 26 27  1  1  0  0  0
 26 32  1  0  0  0  0
 27 29  1  0  0  0  0
M  CHG  5   8   1  18   1  19   1  28   1  29   1
M  END
>  <CHROM.1>
-139.47698668,177.66148752,177.33219816,-177.94081168,-175.18580615,49.87261748
69.28099635,-162.16433395,-155.04347429,179.39385844,79.40608412,123.99177085
80.14951722,-54.12647363,97.30920665,-166.06678106,-2.79402444,5.16171505
3.27844877,2.67252249,-0.47846997,0.84211410

>  <Name>
1tob

>  <RI>
0

>  <Rbt.Current_Directory>
/home/itssahil/PROJECTS/Mol_Feturizer/New_Systems/rnas/1tob

>  <Rbt.Executable>
rbdock ($Id: //depot/dev/client3/rdock/2013.1/src/exe/rbdock.cxx#4 $)

>  <Rbt.Library>
libRbt.so (2013.1, Build901 2013/11/27)

>  <Rbt.Parameter_File>
/export/apps/rDock/src/rDock_2013.1_src/data/scripts/dock_solv.prm

>  <Rbt.Receptor>
prm/blind_docking_100.prm

>  <SCORE>
1.60278

>  <SCORE.INTER>
-15.7602

>  <SCORE.INTER.CONST>
1

>  <SCORE.INTER.POLAR>
-4.3627

>  <SCORE.INTER.ROT>
6

>  <SCORE.INTER.SOLV>
43.8043

>  <SCORE.INTER.VDW>
-18.1659

>  <SCORE.INTER.norm>
-0.492506

>  <SCORE.INTRA>
8.18186

>  <SCORE.INTRA.DIHEDRAL>
0.865458

>  <SCORE.INTRA.DIHEDRAL.0>
22.9177

>  <SCORE.INTRA.POLAR>
-0.884909

>  <SCORE.INTRA.POLAR.0>
-0.311208

>  <SCORE.INTRA.REPUL>
0.0672544

>  <SCORE.INTRA.REPUL.0>
0

>  <SCORE.INTRA.SOLV>
0.90999

>  <SCORE.INTRA.SOLV.lig_0>
-132.657

>  <SCORE.INTRA.VDW>
9.96656

>  <SCORE.INTRA.VDW.0>
-4.68867

>  <SCORE.INTRA.norm>
0.255683

>  <SCORE.RESTR>
9.18111

>  <SCORE.RESTR.CAVITY>
9.18111

>  <SCORE.RESTR.norm>
0.28691

>  <SCORE.SYSTEM>
0

>  <SCORE.SYSTEM.CONST>
0

>  <SCORE.SYSTEM.DIHEDRAL>
0

>  <SCORE.SYSTEM.SOLV>
0

>  <SCORE.SYSTEM.norm>
0

>  <SCORE.heavy>
32

>  <SCORE.norm>
0.0500869

>  <RMSD>
8.166

$$$$
1tob
 OpenBabel11021811413D
libRbt.so/2013.1/901 2013/11/27
 32 34  0  0  0  0  0  0  0  0999 V2000
   -5.8418    6.1878    2.9888 C   0  0  2  0  0  0  0  0  0  0  0  0
   -6.5138    7.1375    2.0000 C   0  0  1  0  0  0  0  0  0  0  0  0
   -5.8316    8.4977    2.0512 C   0  0  2  0  0  0  0  0  0  0  0  0
   -5.8496    9.0192    3.4830 C   0  0  1  0  0  0  0  0  0  0  0  0
   -5.2002    7.9994    4.4144 C   0  0  1  0  0  0  0  0  0  0  0  0
   -5.2565    8.4272    5.8678 C   0  0  0  0  0  0  0  0  0  0  0  0
   -6.4225    6.6051    0.6863 O   0  0  0  0  0  0  0  0  0  0  0  0
   -6.4629    9.4473    1.1093 N   0  3  0  0  0  0  0  0  0  0  0  0
   -5.1543   10.2568    3.5528 O   0  0  0  0  0  0  0  0  0  0  0  0
   -5.8843    6.7317    4.3141 O   0  0  0  0  0  0  0  0  0  0  0  0
   -4.0611    8.0866    6.5557 O   0  0  0  0  0  0  0  0  0  0  0  0
   -4.3085    4.0063    1.2729 C   0  0  2  0  0  0  0  0  0  0  0  0
   -3.8377    2.5584    1.2855 C   0  0  0  0  0  0  0  0  0  0  0  0
   -2.3549    2.4818    1.6502 C   0  0  1  0  0  0  0  0  0  0  0  0
   -2.1322    3.0957    3.0305 C   0  0  2  0  0  0  0  0  0  0  0  0
   -2.6074    4.5494    3.0390 C   0  0  1  0  0  0  0  0  0  0  0  0
   -4.0822    4.6224    2.6449 C   0  0  1  0  0  0  0  0  0  0  0  0
   -5.7507    4.0844    0.9529 N   0  3  0  0  0  0  0  0  0  0  0  0
   -1.8884    1.0729    1.5759 N   0  3  0  0  0  0  0  0  0  0  0  0
   -2.4243    5.1086    4.3328 O   0  0  0  0  0  0  0  0  0  0  0  0
   -4.5187    5.9937    2.6387 O   0  0  0  0  0  0  0  0  0  0  0  0
   -0.0694    4.2499    3.4506 C   0  0  1  0  0  0  0  0  0  0  0  0
    1.3981    4.0727    3.0569 C   0  0  1  0  0  0  0  0  0  0  0  0
    2.1010    3.1513    4.0424 C   0  0  0  0  0  0  0  0  0  0  0  0
    1.9265    3.6970    5.4503 C   0  0  1  0  0  0  0  0  0  0  0  0
    0.4390    3.8654    5.7579 C   0  0  1  0  0  0  0  0  0  0  0  0
    0.1896    4.4635    7.1306 C   0  0  0  0  0  0  0  0  0  0  0  0
    1.5220    3.5909    1.6609 N   0  3  0  0  0  0  0  0  0  0  0  0
   -1.1589    5.0726    7.2207 N   0  3  0  0  0  0  0  0  0  0  0  0
   -0.7352    3.0332    3.3839 O   0  0  0  0  0  0  0  0  0  0  0  0
    2.5186    2.8124    6.3904 O   0  0  0  0  0  0  0  0  0  0  0  0
   -0.1722    4.7465    4.7907 O   0  0  0  0  0  0  0  0  0  0  0  0
  1  2  1  0  0  0  0
  1 10  1  0  0  0  0
  1 21  1  6  0  0  0
  2  3  1  0  0  0  0
  2  7  1  6  0  0  0
  3  4  1  0  0  0  0
  3  8  1  6  0  0  0
  4  5  1  0  0  0  0
  4  9  1  6  0  0  0
  5  6  1  1  0  0  0
  5 10  1  0  0  0  0
  6 11  1  0  0  0  0
 12 13  1  0  0  0  0
 12 17  1  0  0  0  0
 12 18  1  1  0  0  0
 13 14  1  0  0  0  0
 14 15  1  0  0  0  0
 14 19  1  1  0  0  0
 15 16  1  0  0  0  0
 15 30  1  6  0  0  0
 16 17  1  0  0  0  0
 16 20  1  1  0  0  0
 17 21  1  6  0  0  0
 22 23  1  0  0  0  0
 22 30  1  1  0  0  0
 22 32  1  0  0  0  0
 23 24  1  0  0  0  0
 23 28  1  6  0  0  0
 24 25  1  0  0  0  0
 25 26  1  0  0  0  0
 25 31  1  1  0  0  0
 26 27  1  1  0  0  0
 26 32  1  0  0  0  0
 27 29  1  0  0  0  0
M  CHG  5   8   1  18   1  19   1  28   1  29   1
M  END
>  <CHROM.1>
-133.28791973,176.43845302,50.87733954,79.10105263,-141.61005095,148.59507770
-37.00115269,-51.98757692,111.87339601,-70.35396434,90.02192091,-148.55930630
59.56958497,61.97649734,159.02328683,123.93868923,-2.77529574,5.29580553
3.49837113,2.91727042,-0.59036029,0.82031273

>  <Name>
1tob

>  <RI>
0

>  <Rbt.Current_Directory>
/home/itssahil/PROJECTS/Mol_Feturizer/New_Systems/rnas/1tob

>  <Rbt.Executable>
rbdock ($Id: //depot/dev/client3/rdock/2013.1/src/exe/rbdock.cxx#4 $)

>  <Rbt.Library>
libRbt.so (2013.1, Build901 2013/11/27)

>  <Rbt.Parameter_File>
/export/apps/rDock/src/rDock_2013.1_src/data/scripts/dock_solv.prm

>  <Rbt.Receptor>
prm/blind_docking_20.prm

>  <SCORE>
-17.5525

>  <SCORE.INTER>
-39.6675

>  <SCORE.INTER.CONST>
1

>  <SCORE.INTER.POLAR>
-6.46377

>  <SCORE.INTER.ROT>
6

>  <SCORE.INTER.SOLV>
39.7427

>  <SCORE.INTER.VDW>
-25.7467

>  <SCORE.INTER.norm>
-1.23961

>  <SCORE.INTRA>
7.07569

>  <SCORE.INTRA.DIHEDRAL>
14.4017

>  <SCORE.INTRA.DIHEDRAL.0>
22.9177

>  <SCORE.INTRA.POLAR>
-2.15631

>  <SCORE.INTRA.POLAR.0>
-0.311208

>  <SCORE.INTRA.REPUL>
0.0532379

>  <SCORE.INTRA.REPUL.0>
0

>  <SCORE.INTRA.SOLV>
0.743923

>  <SCORE.INTRA.SOLV.lig_0>
-132.657

>  <SCORE.INTRA.VDW>
6.56815

>  <SCORE.INTRA.VDW.0>
-4.68867

>  <SCORE.INTRA.norm>
0.221115

>  <SCORE.RESTR>
15.0394

>  <SCORE.RESTR.CAVITY>
15.0394

>  <SCORE.RESTR.norm>
0.46998

>  <SCORE.SYSTEM>
0

>  <SCORE.SYSTEM.CONST>
0

>  <SCORE.SYSTEM.DIHEDRAL>
0

>  <SCORE.SYSTEM.SOLV>
0

>  <SCORE.SYSTEM.norm>
0

>  <SCORE.heavy>
32

>  <SCORE.norm>
-0.548515

>  <RMSD>
8.168

$$$$
1tob
 OpenBabel11021811413D
libRbt.so/2013.1/901 2013/11/27
 32 34  0  0  0  0  0  0  0  0999 V2000
   -3.9835    6.8702    3.3555 C   0  0  2  0  0  0  0  0  0  0  0  0
   -4.1369    7.3816    4.7859 C   0  0  1  0  0  0  0  0  0  0  0  0
   -5.4976    8.0447    4.9503 C   0  0  2  0  0  0  0  0  0  0  0  0
   -5.6545    9.1432    3.9057 C   0  0  1  0  0  0  0  0  0  0  0  0
   -5.4466    8.5641    2.5090 C   0  0  1  0  0  0  0  0  0  0  0  0
   -5.5141    9.6251    1.4283 C   0  0  0  0  0  0  0  0  0  0  0  0
   -4.0187    6.2987    5.6974 O   0  0  0  0  0  0  0  0  0  0  0  0
   -5.6779    8.5596    6.3249 N   0  3  0  0  0  0  0  0  0  0  0  0
   -6.9488    9.7217    4.0070 O   0  0  0  0  0  0  0  0  0  0  0  0
   -4.1460    7.9432    2.4194 O   0  0  0  0  0  0  0  0  0  0  0  0
   -5.2411    9.0780    0.1460 O   0  0  0  0  0  0  0  0  0  0  0  0
   -3.8471    5.0660    1.0999 C   0  0  2  0  0  0  0  0  0  0  0  0
   -3.3183    3.8004    0.4390 C   0  0  0  0  0  0  0  0  0  0  0  0
   -2.2564    3.1412    1.3196 C   0  0  1  0  0  0  0  0  0  0  0  0
   -2.8612    2.7859    2.6760 C   0  0  2  0  0  0  0  0  0  0  0  0
   -3.4053    4.0454    3.3519 C   0  0  1  0  0  0  0  0  0  0  0  0
   -4.4445    4.7162    2.4541 C   0  0  1  0  0  0  0  0  0  0  0  0
   -4.8986    5.6904    0.2676 N   0  3  0  0  0  0  0  0  0  0  0  0
   -1.6890    1.9562    0.6256 N   0  3  0  0  0  0  0  0  0  0  0  0
   -3.9921    3.7065    4.6012 O   0  0  0  0  0  0  0  0  0  0  0  0
   -4.9404    5.9090    3.0881 O   0  0  0  0  0  0  0  0  0  0  0  0
   -0.6029    2.7412    3.4897 C   0  0  1  0  0  0  0  0  0  0  0  0
    0.4279    1.7821    4.0876 C   0  0  1  0  0  0  0  0  0  0  0  0
    0.1154    1.5186    5.5529 C   0  0  0  0  0  0  0  0  0  0  0  0
    0.0379    2.8431    6.2945 C   0  0  1  0  0  0  0  0  0  0  0  0
   -0.9942    3.7498    5.6250 C   0  0  1  0  0  0  0  0  0  0  0  0
   -1.0839    5.1167    6.2791 C   0  0  0  0  0  0  0  0  0  0  0  0
    0.5082    0.5276    3.3026 N   0  3  0  0  0  0  0  0  0  0  0  0
   -0.9508    5.0234    7.7526 N   0  3  0  0  0  0  0  0  0  0  0  0
   -1.8668    2.1669    3.5178 O   0  0  0  0  0  0  0  0  0  0  0  0
   -0.3205    2.6197    7.6504 O   0  0  0  0  0  0  0  0  0  0  0  0
   -0.6460    3.9615    4.2396 O   0  0  0  0  0  0  0  0  0  0  0  0
  1  2  1  0  0  0  0
  1 10  1  0  0  0  0
  1 21  1  6  0  0  0
  2  3  1  0  0  0  0
  2  7  1  1  0  0  0
  3  4  1  0  0  0  0
  3  8  1  1  0  0  0
  4  5  1  0  0  0  0
  4  9  1  6  0  0  0
  5  6  1  6  0  0  0
  5 10  1  0  0  0  0
  6 11  1  0  0  0  0
 12 13  1  0  0  0  0
 12 17  1  0  0  0  0
 12 18  1  6  0  0  0
 13 14  1  0  0  0  0
 14 15  1  0  0  0  0
 14 19  1  6  0  0  0
 15 16  1  0  0  0  0
 15 30  1  1  0  0  0
 16 17  1  0  0  0  0
 16 20  1  1  0  0  0
 17 21  1  1  0  0  0
 22 23  1  0  0  0  0
 22 30  1  1  0  0  0
 22 32  1  0  0  0  0
 23 24  1  0  0  0  0
 23 28  1  6  0  0  0
 24 25  1  0  0  0  0
 25 26  1  0  0  0  0
 25 31  1  1  0  0  0
 26 27  1  1  0  0  0
 26 32  1  0  0  0  0
 27 29  1  0  0  0  0
M  CHG  5   8   1  18   1  19   1  28   1  29   1
M  END
>  <CHROM.1>
-132.91882396,36.72395983,67.89509548,-174.25128059,176.59232209,-59.52379128
-50.05096275,-133.50092082,42.09129932,-47.49521579,-61.87450530,-163.85081736
54.22527690,-55.80701214,-38.21912006,-71.52524077,-3.05624031,5.13386203
3.68278612,-3.05182481,0.90561620,-1.95699489

>  <Name>
1tob

>  <RI>
0

>  <Rbt.Current_Directory>
/home/itssahil/PROJECTS/Mol_Feturizer/New_Systems/rnas/1tob

>  <Rbt.Executable>
rbdock ($Id: //depot/dev/client3/rdock/2013.1/src/exe/rbdock.cxx#4 $)

>  <Rbt.Library>
libRbt.so (2013.1, Build901 2013/11/27)

>  <Rbt.Parameter_File>
/export/apps/rDock/src/rDock_2013.1_src/data/scripts/dock_solv.prm

>  <Rbt.Receptor>
prm/blind_docking_60.prm

>  <SCORE>
-16.3907

>  <SCORE.INTER>
-22.736

>  <SCORE.INTER.CONST>
1

>  <SCORE.INTER.POLAR>
-6.58645

>  <SCORE.INTER.ROT>
6

>  <SCORE.INTER.SOLV>
49.1087

>  <SCORE.INTER.VDW>
-17.1721

>  <SCORE.INTER.norm>
-0.710501

>  <SCORE.INTRA>
2.05246

>  <SCORE.INTRA.DIHEDRAL>
-4.7712

>  <SCORE.INTRA.DIHEDRAL.0>
22.9177

>  <SCORE.INTRA.POLAR>
-0.418431

>  <SCORE.INTRA.POLAR.0>
-0.311208

>  <SCORE.INTRA.REPUL>
0

>  <SCORE.INTRA.REPUL.0>
0

>  <SCORE.INTRA.SOLV>
2.41331

>  <SCORE.INTRA.SOLV.lig_0>
-132.657

>  <SCORE.INTRA.VDW>
4.65407

>  <SCORE.INTRA.VDW.0>
-4.68867

>  <SCORE.INTRA.norm>
0.0641394

>  <SCORE.RESTR>
4.29291

>  <SCORE.RESTR.CAVITY>
4.29291

>  <SCORE.RESTR.norm>
0.134153

>  <SCORE.SYSTEM>
0

>  <SCORE.SYSTEM.CONST>
0

>  <SCORE.SYSTEM.DIHEDRAL>
0

>  <SCORE.SYSTEM.SOLV>
0

>  <SCORE.SYSTEM.norm>
0

>  <SCORE.heavy>
32

>  <SCORE.norm>
-0.512208

>  <RMSD>
8.178

$$$$
1tob
 OpenBabel11021811413D
libRbt.so/2013.1/901 2013/11/27
 32 34  0  0  0  0  0  0  0  0999 V2000
   -4.0573    6.1452    1.8780 C   0  0  2  0  0  0  0  0  0  0  0  0
   -4.1698    6.1184    0.3555 C   0  0  1  0  0  0  0  0  0  0  0  0
   -4.8388    7.3964   -0.1317 C   0  0  2  0  0  0  0  0  0  0  0  0
   -6.1863    7.5581    0.5616 C   0  0  1  0  0  0  0  0  0  0  0  0
   -5.9965    7.5333    2.0758 C   0  0  1  0  0  0  0  0  0  0  0  0
   -7.3127    7.6129    2.8238 C   0  0  0  0  0  0  0  0  0  0  0  0
   -2.8756    6.0064   -0.2189 O   0  0  0  0  0  0  0  0  0  0  0  0
   -4.9713    7.4014   -1.6048 N   0  3  0  0  0  0  0  0  0  0  0  0
   -6.7873    8.7833    0.1646 O   0  0  0  0  0  0  0  0  0  0  0  0
   -5.3512    6.3042    2.4734 O   0  0  0  0  0  0  0  0  0  0  0  0
   -7.1925    8.3946    4.0039 O   0  0  0  0  0  0  0  0  0  0  0  0
   -3.4553    7.0713    4.6874 C   0  0  2  0  0  0  0  0  0  0  0  0
   -2.6663    6.8279    5.9666 C   0  0  0  0  0  0  0  0  0  0  0  0
   -2.0040    5.4503    5.9320 C   0  0  1  0  0  0  0  0  0  0  0  0
   -1.0607    5.3629    4.7344 C   0  0  2  0  0  0  0  0  0  0  0  0
   -1.8353    5.6131    3.4395 C   0  0  1  0  0  0  0  0  0  0  0  0
   -2.5195    6.9787    3.4920 C   0  0  1  0  0  0  0  0  0  0  0  0
   -4.0715    8.4161    4.7009 N   0  3  0  0  0  0  0  0  0  0  0  0
   -1.3087    5.1915    7.2195 N   0  3  0  0  0  0  0  0  0  0  0  0
   -0.9490    5.5586    2.3297 O   0  0  0  0  0  0  0  0  0  0  0  0
   -3.2598    7.2010    2.2782 O   0  0  0  0  0  0  0  0  0  0  0  0
   -1.1455    3.0237    5.2677 C   0  0  1  0  0  0  0  0  0  0  0  0
   -0.2213    1.8347    5.5362 C   0  0  1  0  0  0  0  0  0  0  0  0
    0.3332    1.2917    4.2278 C   0  0  0  0  0  0  0  0  0  0  0  0
   -0.8201    0.9484    3.2991 C   0  0  1  0  0  0  0  0  0  0  0  0
   -1.7056    2.1778    3.0995 C   0  0  1  0  0  0  0  0  0  0  0  0
   -2.9144    1.8926    2.2268 C   0  0  0  0  0  0  0  0  0  0  0  0
    0.8555    2.1995    6.4869 N   0  3  0  0  0  0  0  0  0  0  0  0
   -3.8615    3.0330    2.2213 N   0  3  0  0  0  0  0  0  0  0  0  0
   -0.4328    4.0652    4.6886 O   0  0  0  0  0  0  0  0  0  0  0  0
   -0.3188    0.5038    2.0469 O   0  0  0  0  0  0  0  0  0  0  0  0
   -2.1994    2.6471    4.3729 O   0  0  0  0  0  0  0  0  0  0  0  0
  1  2  1  0  0  0  0
  1 10  1  0  0  0  0
  1 21  1  6  0  0  0
  2  3  1  0  0  0  0
  2  7  1  6  0  0  0
  3  4  1  0  0  0  0
  3  8  1  6  0  0  0
  4  5  1  0  0  0  0
  4  9  1  1  0  0  0
  5  6  1  1  0  0  0
  5 10  1  0  0  0  0
  6 11  1  0  0  0  0
 12 13  1  0  0  0  0
 12 17  1  0  0  0  0
 12 18  1  1  0  0  0
 13 14  1  0  0  0  0
 14 15  1  0  0  0  0
 14 19  1  1  0  0  0
 15 16  1  0  0  0  0
 15 30  1  6  0  0  0
 16 17  1  0  0  0  0
 16 20  1  6  0  0  0
 17 21  1  6  0  0  0
 22 23  1  0  0  0  0
 22 30  1  6  0  0  0
 22 32  1  0  0  0  0
 23 24  1  0  0  0  0
 23 28  1  1  0  0  0
 24 25  1  0  0  0  0
 25 26  1  0  0  0  0
 25 31  1  6  0  0  0
 26 27  1  6  0  0  0
 26 32  1  0  0  0  0
 27 29  1  0  0  0  0
M  CHG  5   8   1  18   1  19   1  28   1  29   1
M  END
>  <CHROM.1>
-149.17822192,-68.57214477,41.60550888,-57.81238130,-142.90900935,177.74130382
105.66606314,80.82948555,26.86515584,174.21617490,-74.81303672,-162.68233432
62.03930919,178.06930159,171.14951153,-45.86626719,-2.99186630,5.23033637
3.12345102,-3.07985944,-0.88550952,1.08564891

>  <Name>
1tob

>  <RI>
0

>  <Rbt.Current_Directory>
/home/itssahil/PROJECTS/Mol_Feturizer/New_Systems/rnas/1tob

>  <Rbt.Executable>
rbdock ($Id: //depot/dev/client3/rdock/2013.1/src/exe/rbdock.cxx#4 $)

>  <Rbt.Library>
libRbt.so (2013.1, Build901 2013/11/27)

>  <Rbt.Parameter_File>
/export/apps/rDock/src/rDock_2013.1_src/data/scripts/dock_solv.prm

>  <Rbt.Receptor>
prm/blind_docking_60.prm

>  <SCORE>
-4.09929

>  <SCORE.INTER>
-11.5128

>  <SCORE.INTER.CONST>
1

>  <SCORE.INTER.POLAR>
-3.64586

>  <SCORE.INTER.ROT>
6

>  <SCORE.INTER.SOLV>
30.4174

>  <SCORE.INTER.VDW>
-13.2615

>  <SCORE.INTER.norm>
-0.359774

>  <SCORE.INTRA>
0.850303

>  <SCORE.INTRA.DIHEDRAL>
-2.59235

>  <SCORE.INTRA.DIHEDRAL.0>
22.9177

>  <SCORE.INTRA.POLAR>
-1.24386

>  <SCORE.INTRA.POLAR.0>
-0.311208

>  <SCORE.INTRA.REPUL>
0

>  <SCORE.INTRA.REPUL.0>
0

>  <SCORE.INTRA.SOLV>
4.92809

>  <SCORE.INTRA.SOLV.lig_0>
-132.657

>  <SCORE.INTRA.VDW>
3.91155

>  <SCORE.INTRA.VDW.0>
-4.68867

>  <SCORE.INTRA.norm>
0.026572

>  <SCORE.RESTR>
6.56317

>  <SCORE.RESTR.CAVITY>
6.56317

>  <SCORE.RESTR.norm>
0.205099

>  <SCORE.SYSTEM>
0

>  <SCORE.SYSTEM.CONST>
0

>  <SCORE.SYSTEM.DIHEDRAL>
0

>  <SCORE.SYSTEM.SOLV>
0

>  <SCORE.SYSTEM.norm>
0

>  <SCORE.heavy>
32

>  <SCORE.norm>
-0.128103

>  <RMSD>
8.181

$$$$
1tob
 OpenBabel11021811413D
libRbt.so/2013.1/901 2013/11/27
 32 34  0  0  0  0  0  0  0  0999 V2000
   -8.9599    8.6406    3.2257 C   0  0  2  0  0  0  0  0  0  0  0  0
  -10.2000    9.5246    3.3348 C   0  0  1  0  0  0  0  0  0  0  0  0
   -9.8791   10.9232    2.8258 C   0  0  2  0  0  0  0  0  0  0  0  0
   -8.6838   11.4782    3.5911 C   0  0  1  0  0  0  0  0  0  0  0  0
   -7.5008   10.5216    3.4695 C   0  0  1  0  0  0  0  0  0  0  0  0
   -6.3016   10.9813    4.2750 C   0  0  0  0  0  0  0  0  0  0  0  0
  -11.2560    8.9660    2.5665 O   0  0  0  0  0  0  0  0  0  0  0  0
  -11.0583   11.8105    2.9239 N   0  3  0  0  0  0  0  0  0  0  0  0
   -8.3340   12.7557    3.0758 O   0  0  0  0  0  0  0  0  0  0  0  0
   -7.8697    9.2139    3.9584 O   0  0  0  0  0  0  0  0  0  0  0  0
   -6.5671   10.9410    5.6700 O   0  0  0  0  0  0  0  0  0  0  0  0
   -8.3907    6.9931    0.0304 C   0  0  2  0  0  0  0  0  0  0  0  0
   -7.9200    5.6021   -0.3716 C   0  0  0  0  0  0  0  0  0  0  0  0
   -6.4316    5.4325   -0.0659 C   0  0  1  0  0  0  0  0  0  0  0  0
   -6.1869    5.6347    1.4278 C   0  0  2  0  0  0  0  0  0  0  0  0
   -6.6617    7.0254    1.8518 C   0  0  1  0  0  0  0  0  0  0  0  0
   -8.1425    7.1998    1.5167 C   0  0  1  0  0  0  0  0  0  0  0  0
   -9.8378    7.1518   -0.2327 N   0  3  0  0  0  0  0  0  0  0  0  0
   -5.9665    4.1033   -0.5402 N   0  3  0  0  0  0  0  0  0  0  0  0
   -6.4580    7.1993    3.2476 O   0  0  0  0  0  0  0  0  0  0  0  0
   -8.5789    8.5156    1.9028 O   0  0  0  0  0  0  0  0  0  0  0  0
   -4.4485    5.4675    3.0752 C   0  0  1  0  0  0  0  0  0  0  0  0
   -3.4034    6.5445    3.3714 C   0  0  1  0  0  0  0  0  0  0  0  0
   -2.1176    6.2549    2.6118 C   0  0  0  0  0  0  0  0  0  0  0  0
   -1.6384    4.8536    2.9541 C   0  0  1  0  0  0  0  0  0  0  0  0
   -2.7431    3.8420    2.6513 C   0  0  1  0  0  0  0  0  0  0  0  0
   -2.3550    2.4228    3.0247 C   0  0  0  0  0  0  0  0  0  0  0  0
   -3.9315    7.8969    3.0741 N   0  3  0  0  0  0  0  0  0  0  0  0
   -2.6429    1.4734    1.9231 N   0  3  0  0  0  0  0  0  0  0  0  0
   -4.7844    5.4814    1.7279 O   0  0  0  0  0  0  0  0  0  0  0  0
   -0.4755    4.5411    2.2011 O   0  0  0  0  0  0  0  0  0  0  0  0
   -3.9353    4.1691    3.3978 O   0  0  0  0  0  0  0  0  0  0  0  0
  1  2  1  0  0  0  0
  1 10  1  0  0  0  0
  1 21  1  6  0  0  0
  2  3  1  0  0  0  0
  2  7  1  6  0  0  0
  3  4  1  0  0  0  0
  3  8  1  1  0  0  0
  4  5  1  0  0  0  0
  4  9  1  6  0  0  0
  5  6  1  1  0  0  0
  5 10  1  0  0  0  0
  6 11  1  0  0  0  0
 12 13  1  0  0  0  0
 12 17  1  0  0  0  0
 12 18  1  1  0  0  0
 13 14  1  0  0  0  0
 14 15  1  0  0  0  0
 14 19  1  1  0  0  0
 15 16  1  0  0  0  0
 15 30  1  6  0  0  0
 16 17  1  0  0  0  0
 16 20  1  1  0  0  0
 17 21  1  6  0  0  0
 22 23  1  0  0  0  0
 22 30  1  6  0  0  0
 22 32  1  0  0  0  0
 23 24  1  0  0  0  0
 23 28  1  6  0  0  0
 24 25  1  0  0  0  0
 25 26  1  0  0  0  0
 25 31  1  6  0  0  0
 26 27  1  1  0  0  0
 26 32  1  0  0  0  0
 27 29  1  0  0  0  0
M  CHG  5   8   1  18   1  19   1  28   1  29   1
M  END
>  <CHROM.1>
-139.73302392,175.38733312,-58.51092275,-50.33169147,66.41521660,50.65227099
64.06472369,152.84706532,-171.90312666,-58.43897987,152.97238141,-124.53753929
-76.35967666,82.00809407,-131.62630061,-114.11364292,-6.37911242,7.30966207
2.43000959,2.45442360,-0.42204507,0.58301246

>  <Name>
1tob

>  <RI>
0

>  <Rbt.Current_Directory>
/home/itssahil/PROJECTS/Mol_Feturizer/New_Systems/rnas/1tob

>  <Rbt.Executable>
rbdock ($Id: //depot/dev/client3/rdock/2013.1/src/exe/rbdock.cxx#4 $)

>  <Rbt.Library>
libRbt.so (2013.1, Build901 2013/11/27)

>  <Rbt.Parameter_File>
/export/apps/rDock/src/rDock_2013.1_src/data/scripts/dock_solv.prm

>  <Rbt.Receptor>
prm/pocket_docking_2.prm

>  <SCORE>
-25.749

>  <SCORE.INTER>
-30.5837

>  <SCORE.INTER.CONST>
1

>  <SCORE.INTER.POLAR>
-5.75333

>  <SCORE.INTER.ROT>
6

>  <SCORE.INTER.SOLV>
25.9079

>  <SCORE.INTER.VDW>
-17.4473

>  <SCORE.INTER.norm>
-0.955739

>  <SCORE.INTRA>
1.62208

>  <SCORE.INTRA.DIHEDRAL>
6.94045

>  <SCORE.INTRA.DIHEDRAL.0>
22.9177

>  <SCORE.INTRA.POLAR>
-0.701284

>  <SCORE.INTRA.POLAR.0>
-0.311208

>  <SCORE.INTRA.REPUL>
0

>  <SCORE.INTRA.REPUL.0>
0

>  <SCORE.INTRA.SOLV>
-2.58776

>  <SCORE.INTRA.SOLV.lig_0>
-132.657

>  <SCORE.INTRA.VDW>
1.8301

>  <SCORE.INTRA.VDW.0>
-4.68867

>  <SCORE.INTRA.norm>
0.05069

>  <SCORE.RESTR>
3.21262

>  <SCORE.RESTR.CAVITY>
3.21262

>  <SCORE.RESTR.norm>
0.100394

>  <SCORE.SYSTEM>
0

>  <SCORE.SYSTEM.CONST>
0

>  <SCORE.SYSTEM.DIHEDRAL>
0

>  <SCORE.SYSTEM.SOLV>
0

>  <SCORE.SYSTEM.norm>
0

>  <SCORE.heavy>
32

>  <SCORE.norm>
-0.804655

>  <RMSD>
8.182

$$$$
1tob
 OpenBabel11021811413D
libRbt.so/2013.1/901 2013/11/27
 32 34  0  0  0  0  0  0  0  0999 V2000
   -3.9459    6.4966    4.3013 C   0  0  2  0  0  0  0  0  0  0  0  0
   -4.6913    7.5749    5.0841 C   0  0  1  0  0  0  0  0  0  0  0  0
   -5.5378    8.4076    4.1309 C   0  0  2  0  0  0  0  0  0  0  0  0
   -4.6494    8.9774    3.0316 C   0  0  1  0  0  0  0  0  0  0  0  0
   -3.9084    7.8456    2.3251 C   0  0  1  0  0  0  0  0  0  0  0  0
   -2.9475    8.3555    1.2691 C   0  0  0  0  0  0  0  0  0  0  0  0
   -5.5260    6.9682    6.0602 O   0  0  0  0  0  0  0  0  0  0  0  0
   -6.2697    9.4690    4.8556 N   0  3  0  0  0  0  0  0  0  0  0  0
   -5.4422    9.6994    2.0987 O   0  0  0  0  0  0  0  0  0  0  0  0
   -3.1332    7.0896    3.2806 O   0  0  0  0  0  0  0  0  0  0  0  0
   -2.4041    7.2893    0.5037 O   0  0  0  0  0  0  0  0  0  0  0  0
   -4.4069    4.3907    1.6709 C   0  0  2  0  0  0  0  0  0  0  0  0
   -3.7948    3.1035    1.1355 C   0  0  0  0  0  0  0  0  0  0  0  0
   -2.3207    3.0084    1.5299 C   0  0  1  0  0  0  0  0  0  0  0  0
   -2.1926    3.0320    3.0514 C   0  0  2  0  0  0  0  0  0  0  0  0
   -2.8101    4.3157    3.6081 C   0  0  1  0  0  0  0  0  0  0  0  0
   -4.2752    4.4200    3.1858 C   0  0  1  0  0  0  0  0  0  0  0  0
   -5.8418    4.4725    1.3205 N   0  3  0  0  0  0  0  0  0  0  0  0
   -1.7147    1.7913    0.9303 N   0  3  0  0  0  0  0  0  0  0  0  0
   -2.7140    4.3211    5.0261 O   0  0  0  0  0  0  0  0  0  0  0  0
   -4.8458    5.6375    3.6987 O   0  0  0  0  0  0  0  0  0  0  0  0
   -0.0890    4.1364    3.3963 C   0  0  1  0  0  0  0  0  0  0  0  0
    1.4045    3.8500    3.2305 C   0  0  1  0  0  0  0  0  0  0  0  0
    1.9303    3.0793    4.4321 C   0  0  0  0  0  0  0  0  0  0  0  0
    1.6122    3.8526    5.7015 C   0  0  1  0  0  0  0  0  0  0  0  0
    0.1091    4.1169    5.7818 C   0  0  1  0  0  0  0  0  0  0  0  0
   -0.2761    4.9385    6.9986 C   0  0  0  0  0  0  0  0  0  0  0  0
    1.6743    3.1434    1.9561 N   0  3  0  0  0  0  0  0  0  0  0  0
   -0.1052    4.1656    8.2521 N   0  3  0  0  0  0  0  0  0  0  0  0
   -0.8049    2.9473    3.4357 O   0  0  0  0  0  0  0  0  0  0  0  0
    2.0357    3.1143    6.8383 O   0  0  0  0  0  0  0  0  0  0  0  0
   -0.3303    4.8479    4.6164 O   0  0  0  0  0  0  0  0  0  0  0  0
  1  2  1  0  0  0  0
  1 10  1  0  0  0  0
  1 21  1  6  0  0  0
  2  3  1  0  0  0  0
  2  7  1  1  0  0  0
  3  4  1  0  0  0  0
  3  8  1  1  0  0  0
  4  5  1  0  0  0  0
  4  9  1  6  0  0  0
  5  6  1  6  0  0  0
  5 10  1  0  0  0  0
  6 11  1  0  0  0  0
 12 13  1  0  0  0  0
 12 17  1  0  0  0  0
 12 18  1  1  0  0  0
 13 14  1  0  0  0  0
 14 15  1  0  0  0  0
 14 19  1  1  0  0  0
 15 16  1  0  0  0  0
 15 30  1  6  0  0  0
 16 17  1  0  0  0  0
 16 20  1  1  0  0  0
 17 21  1  6  0  0  0
 22 23  1  0  0  0  0
 22 30  1  1  0  0  0
 22 32  1  0  0  0  0
 23 24  1  0  0  0  0
 23 28  1  6  0  0  0
 24 25  1  0  0  0  0
 25 26  1  0  0  0  0
 25 31  1  1  0  0  0
 26 27  1  1  0  0  0
 26 32  1  0  0  0  0
 27 29  1  0  0  0  0
M  CHG  5   8   1  18   1  19   1  28   1  29   1
M  END
>  <CHROM.1>
-166.76703423,178.12406949,65.51956296,-53.12857879,-172.13847803,66.22833100
150.37078180,30.47169235,81.61020920,131.43301556,-114.96230884,-155.88459500
179.70571395,66.90867222,-69.53015777,-86.00182406,-2.39365539,5.28249360
3.66048800,-3.04398448,0.67773461,-2.06093380

>  <Name>
1tob

>  <RI>
0

>  <Rbt.Current_Directory>
/home/itssahil/PROJECTS/Mol_Feturizer/New_Systems/rnas/1tob

>  <Rbt.Executable>
rbdock ($Id: //depot/dev/client3/rdock/2013.1/src/exe/rbdock.cxx#4 $)

>  <Rbt.Library>
libRbt.so (2013.1, Build901 2013/11/27)

>  <Rbt.Parameter_File>
/export/apps/rDock/src/rDock_2013.1_src/data/scripts/dock_solv.prm

>  <Rbt.Receptor>
prm/blind_docking_20.prm

>  <SCORE>
-27.0399

>  <SCORE.INTER>
-45.978

>  <SCORE.INTER.CONST>
1

>  <SCORE.INTER.POLAR>
-7.63229

>  <SCORE.INTER.ROT>
6

>  <SCORE.INTER.SOLV>
38.4364

>  <SCORE.INTER.VDW>
-25.6232

>  <SCORE.INTER.norm>
-1.43681

>  <SCORE.INTRA>
9.29581

>  <SCORE.INTRA.DIHEDRAL>
2.27988

>  <SCORE.INTRA.DIHEDRAL.0>
22.9177

>  <SCORE.INTRA.POLAR>
-0.711807

>  <SCORE.INTRA.POLAR.0>
-0.311208

>  <SCORE.INTRA.REPUL>
0.399995

>  <SCORE.INTRA.REPUL.0>
0

>  <SCORE.INTRA.SOLV>
-2.02409

>  <SCORE.INTRA.SOLV.lig_0>
-132.657

>  <SCORE.INTRA.VDW>
9.58809

>  <SCORE.INTRA.VDW.0>
-4.68867

>  <SCORE.INTRA.norm>
0.290494

>  <SCORE.RESTR>
9.64225

>  <SCORE.RESTR.CAVITY>
9.64225

>  <SCORE.RESTR.norm>
0.30132

>  <SCORE.SYSTEM>
0

>  <SCORE.SYSTEM.CONST>
0

>  <SCORE.SYSTEM.DIHEDRAL>
0

>  <SCORE.SYSTEM.SOLV>
0

>  <SCORE.SYSTEM.norm>
0

>  <SCORE.heavy>
32

>  <SCORE.norm>
-0.844998

>  <RMSD>
8.187

$$$$
1tob
 OpenBabel11021811413D
libRbt.so/2013.1/901 2013/11/27
 32 34  0  0  0  0  0  0  0  0999 V2000
   -4.3024    7.6123    2.8103 C   0  0  2  0  0  0  0  0  0  0  0  0
   -5.7967    7.8056    2.5638 C   0  0  1  0  0  0  0  0  0  0  0  0
   -6.2801    6.7992    1.5285 C   0  0  2  0  0  0  0  0  0  0  0  0
   -5.4453    6.9370    0.2609 C   0  0  1  0  0  0  0  0  0  0  0  0
   -3.9651    6.7735    0.5946 C   0  0  1  0  0  0  0  0  0  0  0  0
   -3.0747    6.9769   -0.6155 C   0  0  0  0  0  0  0  0  0  0  0  0
   -6.5104    7.6234    3.7784 O   0  0  0  0  0  0  0  0  0  0  0  0
   -7.7250    6.9629    1.2591 N   0  3  0  0  0  0  0  0  0  0  0  0
   -5.8439    5.9552   -0.6863 O   0  0  0  0  0  0  0  0  0  0  0  0
   -3.5708    7.7473    1.5853 O   0  0  0  0  0  0  0  0  0  0  0  0
   -2.1328    8.0178   -0.3977 O   0  0  0  0  0  0  0  0  0  0  0  0
   -3.3911    6.1814    5.6437 C   0  0  2  0  0  0  0  0  0  0  0  0
   -2.1804    6.0735    6.5607 C   0  0  0  0  0  0  0  0  0  0  0  0
   -1.3582    4.8314    6.2163 C   0  0  1  0  0  0  0  0  0  0  0  0
   -0.8858    4.9128    4.7665 C   0  0  2  0  0  0  0  0  0  0  0  0
   -2.0896    5.0299    3.8303 C   0  0  1  0  0  0  0  0  0  0  0  0
   -2.9240    6.2563    4.1982 C   0  0  1  0  0  0  0  0  0  0  0  0
   -4.1726    7.3993    5.9506 N   0  3  0  0  0  0  0  0  0  0  0  0
   -0.2288    4.6921    7.1720 N   0  3  0  0  0  0  0  0  0  0  0  0
   -1.6450    5.1335    2.4843 O   0  0  0  0  0  0  0  0  0  0  0  0
   -4.0636    6.3516    3.3247 O   0  0  0  0  0  0  0  0  0  0  0  0
   -0.6885    2.5202    4.7442 C   0  0  1  0  0  0  0  0  0  0  0  0
    0.1378    1.3769    4.1525 C   0  0  1  0  0  0  0  0  0  0  0  0
    0.1441    1.4620    2.6336 C   0  0  0  0  0  0  0  0  0  0  0  0
   -1.2889    1.4817    2.1271 C   0  0  1  0  0  0  0  0  0  0  0  0
   -2.0510    2.6347    2.7793 C   0  0  1  0  0  0  0  0  0  0  0  0
   -3.5101    2.6808    2.3634 C   0  0  0  0  0  0  0  0  0  0  0  0
    1.5094    1.3635    4.7137 N   0  3  0  0  0  0  0  0  0  0  0  0
   -3.6927    3.4455    1.1066 N   0  3  0  0  0  0  0  0  0  0  0  0
   -0.1122    3.7434    4.4283 O   0  0  0  0  0  0  0  0  0  0  0  0
   -1.3022    1.6297    0.7147 O   0  0  0  0  0  0  0  0  0  0  0  0
   -2.0207    2.5007    4.2169 O   0  0  0  0  0  0  0  0  0  0  0  0
  1  2  1  0  0  0  0
  1 10  1  0  0  0  0
  1 21  1  6  0  0  0
  2  3  1  0  0  0  0
  2  7  1  1  0  0  0
  3  4  1  0  0  0  0
  3  8  1  6  0  0  0
  4  5  1  0  0  0  0
  4  9  1  6  0  0  0
  5  6  1  6  0  0  0
  5 10  1  0  0  0  0
  6 11  1  0  0  0  0
 12 13  1  0  0  0  0
 12 17  1  0  0  0  0
 12 18  1  1  0  0  0
 13 14  1  0  0  0  0
 14 15  1  0  0  0  0
 14 19  1  1  0  0  0
 15 16  1  0  0  0  0
 15 30  1  6  0  0  0
 16 17  1  0  0  0  0
 16 20  1  6  0  0  0
 17 21  1  6  0  0  0
 22 23  1  0  0  0  0
 22 30  1  6  0  0  0
 22 32  1  0  0  0  0
 23 24  1  0  0  0  0
 23 28  1  1  0  0  0
 24 25  1  0  0  0  0
 25 26  1  0  0  0  0
 25 31  1  6  0  0  0
 26 27  1  6  0  0  0
 26 32  1  0  0  0  0
 27 29  1  0  0  0  0
M  CHG  5   8   1  18   1  19   1  28   1  29   1
M  END
>  <CHROM.1>
-149.86725088,177.82499562,52.50137153,74.39443811,122.22890964,-169.68503020
45.35579922,27.39221744,49.96495860,-61.66098098,103.76585795,171.80438056
-52.29344382,162.12008686,-86.49985327,-35.08969326,-2.84486531,5.04574535
2.99313697,3.02778077,0.81968913,-1.99198088

>  <Name>
1tob

>  <RI>
0

>  <Rbt.Current_Directory>
/home/itssahil/PROJECTS/Mol_Feturizer/New_Systems/rnas/1tob

>  <Rbt.Executable>
rbdock ($Id: //depot/dev/client3/rdock/2013.1/src/exe/rbdock.cxx#4 $)

>  <Rbt.Library>
libRbt.so (2013.1, Build901 2013/11/27)

>  <Rbt.Parameter_File>
/export/apps/rDock/src/rDock_2013.1_src/data/scripts/dock_solv.prm

>  <Rbt.Receptor>
prm/blind_docking_20.prm

>  <SCORE>
-2.2339

>  <SCORE.INTER>
-15.7625

>  <SCORE.INTER.CONST>
1

>  <SCORE.INTER.POLAR>
-3.64765

>  <SCORE.INTER.ROT>
6

>  <SCORE.INTER.SOLV>
25.7538

>  <SCORE.INTER.VDW>
-14.5341

>  <SCORE.INTER.norm>
-0.492579

>  <SCORE.INTRA>
4.50667

>  <SCORE.INTRA.DIHEDRAL>
1.99602

>  <SCORE.INTRA.DIHEDRAL.0>
22.9177

>  <SCORE.INTRA.POLAR>
-1.5657

>  <SCORE.INTRA.POLAR.0>
-0.311208

>  <SCORE.INTRA.REPUL>
0

>  <SCORE.INTRA.REPUL.0>
0

>  <SCORE.INTRA.SOLV>
3.87342

>  <SCORE.INTRA.SOLV.lig_0>
-132.657

>  <SCORE.INTRA.VDW>
6.89534

>  <SCORE.INTRA.VDW.0>
-4.68867

>  <SCORE.INTRA.norm>
0.140833

>  <SCORE.RESTR>
9.02196

>  <SCORE.RESTR.CAVITY>
9.02196

>  <SCORE.RESTR.norm>
0.281936

>  <SCORE.SYSTEM>
0

>  <SCORE.SYSTEM.CONST>
0

>  <SCORE.SYSTEM.DIHEDRAL>
0

>  <SCORE.SYSTEM.SOLV>
0

>  <SCORE.SYSTEM.norm>
0

>  <SCORE.heavy>
32

>  <SCORE.norm>
-0.0698094

>  <RMSD>
8.193

$$$$
1tob
 OpenBabel11021811413D
libRbt.so/2013.1/901 2013/11/27
 32 34  0  0  0  0  0  0  0  0999 V2000
   -3.9992    6.5310    4.2121 C   0  0  2  0  0  0  0  0  0  0  0  0
   -4.7606    7.6133    4.9739 C   0  0  1  0  0  0  0  0  0  0  0  0
   -5.7272    8.3190    4.0327 C   0  0  2  0  0  0  0  0  0  0  0  0
   -4.9595    8.8635    2.8340 C   0  0  1  0  0  0  0  0  0  0  0  0
   -4.1934    7.7332    2.1522 C   0  0  1  0  0  0  0  0  0  0  0  0
   -3.3465    8.2259    0.9953 C   0  0  0  0  0  0  0  0  0  0  0  0
   -5.4809    7.0266    6.0483 O   0  0  0  0  0  0  0  0  0  0  0  0
   -6.4781    9.3811    4.7367 N   0  3  0  0  0  0  0  0  0  0  0  0
   -5.8637    9.4639    1.9164 O   0  0  0  0  0  0  0  0  0  0  0  0
   -3.3029    7.0995    3.0958 O   0  0  0  0  0  0  0  0  0  0  0  0
   -2.1961    8.9218    1.4538 O   0  0  0  0  0  0  0  0  0  0  0  0
   -4.3423    4.4120    1.6835 C   0  0  2  0  0  0  0  0  0  0  0  0
   -3.6787    3.1610    1.1241 C   0  0  0  0  0  0  0  0  0  0  0  0
   -2.2155    3.0910    1.5617 C   0  0  1  0  0  0  0  0  0  0  0  0
   -2.1351    3.0646    3.0864 C   0  0  2  0  0  0  0  0  0  0  0  0
   -2.8046    4.3112    3.6668 C   0  0  1  0  0  0  0  0  0  0  0  0
   -4.2583    4.3916    3.2020 C   0  0  1  0  0  0  0  0  0  0  0  0
   -5.7674    4.4682    1.2906 N   0  3  0  0  0  0  0  0  0  0  0  0
   -1.5580    1.9121    0.9403 N   0  3  0  0  0  0  0  0  0  0  0  0
   -2.7524    4.2694    5.0865 O   0  0  0  0  0  0  0  0  0  0  0  0
   -4.8776    5.5749    3.7378 O   0  0  0  0  0  0  0  0  0  0  0  0
   -0.0770    4.2127    3.5446 C   0  0  1  0  0  0  0  0  0  0  0  0
    1.3962    4.0005    3.1914 C   0  0  1  0  0  0  0  0  0  0  0  0
    2.0642    3.1103    4.2285 C   0  0  0  0  0  0  0  0  0  0  0  0
    1.8666    3.7144    5.6092 C   0  0  1  0  0  0  0  0  0  0  0  0
    0.3752    3.9145    5.8763 C   0  0  1  0  0  0  0  0  0  0  0  0
    0.1041    4.5705    7.2180 C   0  0  0  0  0  0  0  0  0  0  0  0
    1.5439    3.4615    1.8188 N   0  3  0  0  0  0  0  0  0  0  0  0
   -1.2258    5.2251    7.2438 N   0  3  0  0  0  0  0  0  0  0  0  0
   -0.7581    3.0031    3.5115 O   0  0  0  0  0  0  0  0  0  0  0  0
    2.4254    2.8606    6.5969 O   0  0  0  0  0  0  0  0  0  0  0  0
   -0.2023    4.7640    4.8612 O   0  0  0  0  0  0  0  0  0  0  0  0
  1  2  1  0  0  0  0
  1 10  1  0  0  0  0
  1 21  1  6  0  0  0
  2  3  1  0  0  0  0
  2  7  1  1  0  0  0
  3  4  1  0  0  0  0
  3  8  1  1  0  0  0
  4  5  1  0  0  0  0
  4  9  1  6  0  0  0
  5  6  1  6  0  0  0
  5 10  1  0  0  0  0
  6 11  1  0  0  0  0
 12 13  1  0  0  0  0
 12 17  1  0  0  0  0
 12 18  1  1  0  0  0
 13 14  1  0  0  0  0
 14 15  1  0  0  0  0
 14 19  1  6  0  0  0
 15 16  1  0  0  0  0
 15 30  1  6  0  0  0
 16 17  1  0  0  0  0
 16 20  1  1  0  0  0
 17 21  1  1  0  0  0
 22 23  1  0  0  0  0
 22 30  1  1  0  0  0
 22 32  1  0  0  0  0
 23 24  1  0  0  0  0
 23 28  1  6  0  0  0
 24 25  1  0  0  0  0
 25 26  1  0  0  0  0
 25 31  1  1  0  0  0
 26 27  1  1  0  0  0
 26 32  1  0  0  0  0
 27 29  1  0  0  0  0
M  CHG  5   8   1  18   1  19   1  28   1  29   1
M  END
>  <CHROM.1>
-169.90670686,175.68916602,179.07590511,-53.34202013,73.83978466,-60.27864428
155.69575473,18.92324528,82.04438318,5.80080036,-105.35135014,-146.78514287
175.51529862,68.82847350,157.82550493,7.47380519,-2.42992981,5.35407177,3.62211774
-3.00054492,0.65622966,-2.09879490

>  <Name>
1tob

>  <RI>
0

>  <Rbt.Current_Directory>
/home/itssahil/PROJECTS/Mol_Feturizer/New_Systems/rnas/1tob

>  <Rbt.Executable>
rbdock ($Id: //depot/dev/client3/rdock/2013.1/src/exe/rbdock.cxx#4 $)

>  <Rbt.Library>
libRbt.so (2013.1, Build901 2013/11/27)

>  <Rbt.Parameter_File>
/export/apps/rDock/src/rDock_2013.1_src/data/scripts/dock_solv.prm

>  <Rbt.Receptor>
prm/blind_docking_60.prm

>  <SCORE>
-38.0863

>  <SCORE.INTER>
-52.2879

>  <SCORE.INTER.CONST>
1

>  <SCORE.INTER.POLAR>
-8.64408

>  <SCORE.INTER.ROT>
6

>  <SCORE.INTER.SOLV>
42.0312

>  <SCORE.INTER.VDW>
-27.6554

>  <SCORE.INTER.norm>
-1.634

>  <SCORE.INTRA>
8.00579

>  <SCORE.INTRA.DIHEDRAL>
7.58423

>  <SCORE.INTRA.DIHEDRAL.0>
22.9177

>  <SCORE.INTRA.POLAR>
-1.07763

>  <SCORE.INTRA.POLAR.0>
-0.311208

>  <SCORE.INTRA.REPUL>
0.041595

>  <SCORE.INTRA.REPUL.0>
0

>  <SCORE.INTRA.SOLV>
0.939119

>  <SCORE.INTRA.SOLV.lig_0>
-132.657

>  <SCORE.INTRA.VDW>
7.2001

>  <SCORE.INTRA.VDW.0>
-4.68867

>  <SCORE.INTRA.norm>
0.250181

>  <SCORE.RESTR>
6.19587

>  <SCORE.RESTR.CAVITY>
6.19587

>  <SCORE.RESTR.norm>
0.193621

>  <SCORE.SYSTEM>
0

>  <SCORE.SYSTEM.CONST>
0

>  <SCORE.SYSTEM.DIHEDRAL>
0

>  <SCORE.SYSTEM.SOLV>
0

>  <SCORE.SYSTEM.norm>
0

>  <SCORE.heavy>
32

>  <SCORE.norm>
-1.1902

>  <RMSD>
8.198

$$$$
1tob
 OpenBabel11021811413D
libRbt.so/2013.1/901 2013/11/27
 32 34  0  0  0  0  0  0  0  0999 V2000
   -3.7687    6.4389    4.1275 C   0  0  2  0  0  0  0  0  0  0  0  0
   -4.5339    7.3587    5.0760 C   0  0  1  0  0  0  0  0  0  0  0  0
   -5.2621    8.4296    4.2753 C   0  0  2  0  0  0  0  0  0  0  0  0
   -4.2613    9.1759    3.4012 C   0  0  1  0  0  0  0  0  0  0  0  0
   -3.5091    8.1874    2.5146 C   0  0  1  0  0  0  0  0  0  0  0  0
   -2.4423    8.8616    1.6744 C   0  0  0  0  0  0  0  0  0  0  0  0
   -5.4721    6.6006    5.8260 O   0  0  0  0  0  0  0  0  0  0  0  0
   -6.0095    9.3451    5.1645 N   0  3  0  0  0  0  0  0  0  0  0  0
   -4.9422   10.1315    2.5992 O   0  0  0  0  0  0  0  0  0  0  0  0
   -2.8490    7.1948    3.3296 O   0  0  0  0  0  0  0  0  0  0  0  0
   -1.1903    8.8837    2.3454 O   0  0  0  0  0  0  0  0  0  0  0  0
   -4.1169    4.3430    1.4146 C   0  0  2  0  0  0  0  0  0  0  0  0
   -3.7088    2.9235    1.0448 C   0  0  0  0  0  0  0  0  0  0  0  0
   -2.3913    2.5517    1.7256 C   0  0  1  0  0  0  0  0  0  0  0  0
   -2.5492    2.6515    3.2412 C   0  0  2  0  0  0  0  0  0  0  0  0
   -2.9672    4.0702    3.6309 C   0  0  1  0  0  0  0  0  0  0  0  0
   -4.2689    4.4472    2.9243 C   0  0  1  0  0  0  0  0  0  0  0  0
   -5.4080    4.6967    0.7850 N   0  3  0  0  0  0  0  0  0  0  0  0
   -1.9618    1.1976    1.2898 N   0  3  0  0  0  0  0  0  0  0  0  0
   -3.1402    4.1517    5.0392 O   0  0  0  0  0  0  0  0  0  0  0  0
   -4.6479    5.7885    3.2821 O   0  0  0  0  0  0  0  0  0  0  0  0
   -0.2620    3.2010    3.7215 C   0  0  1  0  0  0  0  0  0  0  0  0
    1.0786    2.4837    3.8888 C   0  0  1  0  0  0  0  0  0  0  0  0
    1.2140    1.9421    5.3040 C   0  0  0  0  0  0  0  0  0  0  0  0
    1.0214    3.0779    6.2955 C   0  0  1  0  0  0  0  0  0  0  0  0
   -0.3263    3.7550    6.0493 C   0  0  1  0  0  0  0  0  0  0  0  0
   -0.5620    4.9402    6.9681 C   0  0  0  0  0  0  0  0  0  0  0  0
    1.2467    1.4214    2.8692 N   0  3  0  0  0  0  0  0  0  0  0  0
   -0.4962    4.5428    8.3948 N   0  3  0  0  0  0  0  0  0  0  0  0
   -1.3103    2.3071    3.8947 O   0  0  0  0  0  0  0  0  0  0  0  0
    1.0768    2.5774    7.6234 O   0  0  0  0  0  0  0  0  0  0  0  0
   -0.3960    4.2458    4.6930 O   0  0  0  0  0  0  0  0  0  0  0  0
  1  2  1  0  0  0  0
  1 10  1  0  0  0  0
  1 21  1  6  0  0  0
  2  3  1  0  0  0  0
  2  7  1  6  0  0  0
  3  4  1  0  0  0  0
  3  8  1  1  0  0  0
  4  5  1  0  0  0  0
  4  9  1  6  0  0  0
  5  6  1  1  0  0  0
  5 10  1  0  0  0  0
  6 11  1  0  0  0  0
 12 13  1  0  0  0  0
 12 17  1  0  0  0  0
 12 18  1  6  0  0  0
 13 14  1  0  0  0  0
 14 15  1  0  0  0  0
 14 19  1  1  0  0  0
 15 16  1  0  0  0  0
 15 30  1  1  0  0  0
 16 17  1  0  0  0  0
 16 20  1  1  0  0  0
 17 21  1  6  0  0  0
 22 23  1  0  0  0  0
 22 30  1  1  0  0  0
 22 32  1  0  0  0  0
 23 24  1  0  0  0  0
 23 28  1  6  0  0  0
 24 25  1  0  0  0  0
 25 26  1  0  0  0  0
 25 31  1  1  0  0  0
 26 27  1  1  0  0  0
 26 32  1  0  0  0  0
 27 29  1  0  0  0  0
M  CHG  5   8   1  18   1  19   1  28   1  29   1
M  END
>  <CHROM.1>
-145.64379878,-61.65558548,-163.63336952,-57.14593179,90.71977420,-176.94340772
-68.99135504,159.45293255,68.35808004,127.31851207,-120.51598591,-154.72943914
169.89080026,66.33506000,-58.07334421,-65.74316041,-2.41731023,5.07501669
3.90793566,-2.75066752,0.82892321,-2.34356906

>  <Name>
1tob

>  <RI>
0

>  <Rbt.Current_Directory>
/home/itssahil/PROJECTS/Mol_Feturizer/New_Systems/rnas/1tob

>  <Rbt.Executable>
rbdock ($Id: //depot/dev/client3/rdock/2013.1/src/exe/rbdock.cxx#4 $)

>  <Rbt.Library>
libRbt.so (2013.1, Build901 2013/11/27)

>  <Rbt.Parameter_File>
/export/apps/rDock/src/rDock_2013.1_src/data/scripts/dock_solv.prm

>  <Rbt.Receptor>
prm/blind_docking_100.prm

>  <SCORE>
-12.6615

>  <SCORE.INTER>
-36.4312

>  <SCORE.INTER.CONST>
1

>  <SCORE.INTER.POLAR>
-6.61614

>  <SCORE.INTER.ROT>
6

>  <SCORE.INTER.SOLV>
39.581

>  <SCORE.INTER.VDW>
-23.0273

>  <SCORE.INTER.norm>
-1.13848

>  <SCORE.INTRA>
9.49819

>  <SCORE.INTRA.DIHEDRAL>
3.82912

>  <SCORE.INTRA.DIHEDRAL.0>
22.9177

>  <SCORE.INTRA.POLAR>
-0.33138

>  <SCORE.INTRA.POLAR.0>
-0.311208

>  <SCORE.INTRA.REPUL>
0.184897

>  <SCORE.INTRA.REPUL.0>
0

>  <SCORE.INTRA.SOLV>
-1.3022

>  <SCORE.INTRA.SOLV.lig_0>
-132.657

>  <SCORE.INTRA.VDW>
8.43693

>  <SCORE.INTRA.VDW.0>
-4.68867

>  <SCORE.INTRA.norm>
0.296818

>  <SCORE.RESTR>
14.2715

>  <SCORE.RESTR.CAVITY>
14.2715

>  <SCORE.RESTR.norm>
0.445984

>  <SCORE.SYSTEM>
0

>  <SCORE.SYSTEM.CONST>
0

>  <SCORE.SYSTEM.DIHEDRAL>
0

>  <SCORE.SYSTEM.SOLV>
0

>  <SCORE.SYSTEM.norm>
0

>  <SCORE.heavy>
32

>  <SCORE.norm>
-0.395673

>  <RMSD>
8.202

$$$$
1tob
 OpenBabel11021811413D
libRbt.so/2013.1/901 2013/11/27
 32 34  0  0  0  0  0  0  0  0999 V2000
   -6.0197    5.1178    1.7360 C   0  0  2  0  0  0  0  0  0  0  0  0
   -5.8045    3.8631    0.8930 C   0  0  1  0  0  0  0  0  0  0  0  0
   -5.9638    4.2032   -0.5825 C   0  0  2  0  0  0  0  0  0  0  0  0
   -7.3270    4.8458   -0.8092 C   0  0  1  0  0  0  0  0  0  0  0  0
   -7.4827    6.0645    0.0961 C   0  0  1  0  0  0  0  0  0  0  0  0
   -8.8517    6.7041   -0.0274 C   0  0  0  0  0  0  0  0  0  0  0  0
   -4.5026    3.3456    1.1273 O   0  0  0  0  0  0  0  0  0  0  0  0
   -5.7690    3.0070   -1.4301 N   0  3  0  0  0  0  0  0  0  0  0  0
   -7.4572    5.2293   -2.1716 O   0  0  0  0  0  0  0  0  0  0  0  0
   -7.3125    5.6798    1.4774 O   0  0  0  0  0  0  0  0  0  0  0  0
   -9.1894    6.9494   -1.3853 O   0  0  0  0  0  0  0  0  0  0  0  0
   -5.2559    6.8050    3.7278 C   0  0  2  0  0  0  0  0  0  0  0  0
   -4.4584    7.3227    4.9170 C   0  0  0  0  0  0  0  0  0  0  0  0
   -3.3803    6.3150    5.3169 C   0  0  1  0  0  0  0  0  0  0  0  0
   -2.4350    6.0791    4.1411 C   0  0  2  0  0  0  0  0  0  0  0  0
   -3.2209    5.5658    2.9335 C   0  0  1  0  0  0  0  0  0  0  0  0
   -4.3160    6.5630    2.5568 C   0  0  1  0  0  0  0  0  0  0  0  0
   -6.2792    7.7906    3.3155 N   0  3  0  0  0  0  0  0  0  0  0  0
   -2.6664    6.7932    6.5292 N   0  3  0  0  0  0  0  0  0  0  0  0
   -2.3421    5.3740    1.8329 O   0  0  0  0  0  0  0  0  0  0  0  0
   -5.0621    6.0668    1.4307 O   0  0  0  0  0  0  0  0  0  0  0  0
   -1.8627    3.9552    5.1031 C   0  0  1  0  0  0  0  0  0  0  0  0
   -0.8503    3.4715    6.1428 C   0  0  1  0  0  0  0  0  0  0  0  0
    0.4707    3.1261    5.4718 C   0  0  0  0  0  0  0  0  0  0  0  0
    0.2217    2.1099    4.3692 C   0  0  1  0  0  0  0  0  0  0  0  0
   -0.8135    2.6572    3.3871 C   0  0  1  0  0  0  0  0  0  0  0  0
   -1.1564    1.6686    2.2874 C   0  0  0  0  0  0  0  0  0  0  0  0
   -0.6791    4.4689    7.2255 N   0  3  0  0  0  0  0  0  0  0  0  0
   -1.8427    0.4711    2.8283 N   0  3  0  0  0  0  0  0  0  0  0  0
   -1.4155    5.1260    4.5052 O   0  0  0  0  0  0  0  0  0  0  0  0
    1.4348    1.8273    3.6870 O   0  0  0  0  0  0  0  0  0  0  0  0
   -2.0416    2.9674    4.0806 O   0  0  0  0  0  0  0  0  0  0  0  0
  1  2  1  0  0  0  0
  1 10  1  0  0  0  0
  1 21  1  6  0  0  0
  2  3  1  0  0  0  0
  2  7  1  6  0  0  0
  3  4  1  0  0  0  0
  3  8  1  6  0  0  0
  4  5  1  0  0  0  0
  4  9  1  6  0  0  0
  5  6  1  1  0  0  0
  5 10  1  0  0  0  0
  6 11  1  0  0  0  0
 12 13  1  0  0  0  0
 12 17  1  0  0  0  0
 12 18  1  6  0  0  0
 13 14  1  0  0  0  0
 14 15  1  0  0  0  0
 14 19  1  1  0  0  0
 15 16  1  0  0  0  0
 15 30  1  1  0  0  0
 16 17  1  0  0  0  0
 16 20  1  6  0  0  0
 17 21  1  6  0  0  0
 22 23  1  0  0  0  0
 22 30  1  6  0  0  0
 22 32  1  0  0  0  0
 23 24  1  0  0  0  0
 23 28  1  1  0  0  0
 24 25  1  0  0  0  0
 25 26  1  0  0  0  0
 25 31  1  6  0  0  0
 26 27  1  6  0  0  0
 26 32  1  0  0  0  0
 27 29  1  0  0  0  0
M  CHG  5   8   1  18   1  19   1  28   1  29   1
M  END
>  <CHROM.1>
-125.71747877,164.98933318,110.64243293,-174.26682063,-50.80540615,-172.78622237
-167.16174973,133.74209201,49.13741475,-59.99132051,-42.25247420,-145.70150370
-158.01175136,-178.88281598,65.85028619,-103.58666735,-3.87230766,4.72390997
2.61459759,2.89212071,0.66078673,-2.32492937

>  <Name>
1tob

>  <RI>
0

>  <Rbt.Current_Directory>
/home/itssahil/PROJECTS/Mol_Feturizer/New_Systems/rnas/1tob

>  <Rbt.Executable>
rbdock ($Id: //depot/dev/client3/rdock/2013.1/src/exe/rbdock.cxx#4 $)

>  <Rbt.Library>
libRbt.so (2013.1, Build901 2013/11/27)

>  <Rbt.Parameter_File>
/export/apps/rDock/src/rDock_2013.1_src/data/scripts/dock_solv.prm

>  <Rbt.Receptor>
prm/blind_docking_40.prm

>  <SCORE>
-25.2357

>  <SCORE.INTER>
-42.2431

>  <SCORE.INTER.CONST>
1

>  <SCORE.INTER.POLAR>
-7.63849

>  <SCORE.INTER.ROT>
6

>  <SCORE.INTER.SOLV>
41.9887

>  <SCORE.INTER.VDW>
-24.2966

>  <SCORE.INTER.norm>
-1.3201

>  <SCORE.INTRA>
5.58617

>  <SCORE.INTRA.DIHEDRAL>
3.47692

>  <SCORE.INTRA.DIHEDRAL.0>
22.9177

>  <SCORE.INTRA.POLAR>
-1.26835

>  <SCORE.INTRA.POLAR.0>
-0.311208

>  <SCORE.INTRA.REPUL>
0.224507

>  <SCORE.INTRA.REPUL.0>
0

>  <SCORE.INTRA.SOLV>
4.33246

>  <SCORE.INTRA.SOLV.lig_0>
-132.657

>  <SCORE.INTRA.VDW>
4.87134

>  <SCORE.INTRA.VDW.0>
-4.68867

>  <SCORE.INTRA.norm>
0.174568

>  <SCORE.RESTR>
11.4212

>  <SCORE.RESTR.CAVITY>
11.4212

>  <SCORE.RESTR.norm>
0.356913

>  <SCORE.SYSTEM>
0

>  <SCORE.SYSTEM.CONST>
0

>  <SCORE.SYSTEM.DIHEDRAL>
0

>  <SCORE.SYSTEM.SOLV>
0

>  <SCORE.SYSTEM.norm>
0

>  <SCORE.heavy>
32

>  <SCORE.norm>
-0.788615

>  <RMSD>
8.202

$$$$
1tob
 OpenBabel11021811413D
libRbt.so/2013.1/901 2013/11/27
 32 34  0  0  0  0  0  0  0  0999 V2000
   -3.6680    6.8557    4.2033 C   0  0  2  0  0  0  0  0  0  0  0  0
   -4.5592    7.9053    4.8630 C   0  0  1  0  0  0  0  0  0  0  0  0
   -5.0878    8.8661    3.8067 C   0  0  2  0  0  0  0  0  0  0  0  0
   -3.9165    9.4743    3.0446 C   0  0  1  0  0  0  0  0  0  0  0  0
   -3.0519    8.3651    2.4517 C   0  0  1  0  0  0  0  0  0  0  0  0
   -1.8246    8.9057    1.7445 C   0  0  0  0  0  0  0  0  0  0  0  0
   -5.6468    7.2677    5.5175 O   0  0  0  0  0  0  0  0  0  0  0  0
   -5.9510    9.9031    4.4125 N   0  3  0  0  0  0  0  0  0  0  0  0
   -4.4026   10.3201    2.0110 O   0  0  0  0  0  0  0  0  0  0  0  0
   -2.5899    7.4847    3.4989 O   0  0  0  0  0  0  0  0  0  0  0  0
   -1.9457    8.7904    0.3338 O   0  0  0  0  0  0  0  0  0  0  0  0
   -2.7772    5.6778    1.5584 C   0  0  2  0  0  0  0  0  0  0  0  0
   -1.9961    4.5728    0.8605 C   0  0  0  0  0  0  0  0  0  0  0  0
   -1.1383    3.8066    1.8679 C   0  0  1  0  0  0  0  0  0  0  0  0
   -2.0324    3.1903    2.9414 C   0  0  2  0  0  0  0  0  0  0  0  0
   -2.8316    4.2860    3.6484 C   0  0  1  0  0  0  0  0  0  0  0  0
   -3.6642    5.0675    2.6326 C   0  0  1  0  0  0  0  0  0  0  0  0
   -3.6343    6.4014    0.5939 N   0  3  0  0  0  0  0  0  0  0  0  0
   -0.3182    2.7882    1.1619 N   0  3  0  0  0  0  0  0  0  0  0  0
   -3.6830    3.7058    4.6275 O   0  0  0  0  0  0  0  0  0  0  0  0
   -4.4009    6.1071    3.3015 O   0  0  0  0  0  0  0  0  0  0  0  0
   -0.0065    3.0346    4.2202 C   0  0  1  0  0  0  0  0  0  0  0  0
    0.8819    2.0098    4.9276 C   0  0  1  0  0  0  0  0  0  0  0  0
    0.2536    1.5892    6.2477 C   0  0  0  0  0  0  0  0  0  0  0  0
   -0.0137    2.8249    7.0914 C   0  0  1  0  0  0  0  0  0  0  0  0
   -0.8862    3.8055    6.3087 C   0  0  1  0  0  0  0  0  0  0  0  0
   -1.1464    5.0930    7.0695 C   0  0  0  0  0  0  0  0  0  0  0  0
    1.1601    0.8484    4.0500 N   0  3  0  0  0  0  0  0  0  0  0  0
   -0.4827    5.0840    8.3951 N   0  3  0  0  0  0  0  0  0  0  0  0
   -1.2333    2.4681    3.9007 O   0  0  0  0  0  0  0  0  0  0  0  0
   -0.6629    2.4564    8.2995 O   0  0  0  0  0  0  0  0  0  0  0  0
   -0.2400    4.1656    5.0684 O   0  0  0  0  0  0  0  0  0  0  0  0
  1  2  1  0  0  0  0
  1 10  1  0  0  0  0
  1 21  1  6  0  0  0
  2  3  1  0  0  0  0
  2  7  1  6  0  0  0
  3  4  1  0  0  0  0
  3  8  1  1  0  0  0
  4  5  1  0  0  0  0
  4  9  1  6  0  0  0
  5  6  1  1  0  0  0
  5 10  1  0  0  0  0
  6 11  1  0  0  0  0
 12 13  1  0  0  0  0
 12 17  1  0  0  0  0
 12 18  1  6  0  0  0
 13 14  1  0  0  0  0
 14 15  1  0  0  0  0
 14 19  1  6  0  0  0
 15 16  1  0  0  0  0
 15 30  1  1  0  0  0
 16 17  1  0  0  0  0
 16 20  1  1  0  0  0
 17 21  1  1  0  0  0
 22 23  1  0  0  0  0
 22 30  1  1  0  0  0
 22 32  1  0  0  0  0
 23 24  1  0  0  0  0
 23 28  1  6  0  0  0
 24 25  1  0  0  0  0
 25 26  1  0  0  0  0
 25 31  1  1  0  0  0
 26 27  1  1  0  0  0
 26 32  1  0  0  0  0
 27 29  1  0  0  0  0
M  CHG  5   8   1  18   1  19   1  28   1  29   1
M  END
>  <CHROM.1>
-179.02615308,74.50803789,68.92610052,-57.37821722,-107.39929375,79.75560646
155.57273923,-172.00388445,37.23666614,-58.40517529,-75.87025434,-164.61628241
-56.24782354,-57.26737432,0.10492520,55.76050999,-2.25499143,5.42344642,3.89853261
2.68819733,0.96598897,-1.46130597

>  <Name>
1tob

>  <RI>
0

>  <Rbt.Current_Directory>
/home/itssahil/PROJECTS/Mol_Feturizer/New_Systems/rnas/1tob

>  <Rbt.Executable>
rbdock ($Id: //depot/dev/client3/rdock/2013.1/src/exe/rbdock.cxx#4 $)

>  <Rbt.Library>
libRbt.so (2013.1, Build901 2013/11/27)

>  <Rbt.Parameter_File>
/export/apps/rDock/src/rDock_2013.1_src/data/scripts/dock_solv.prm

>  <Rbt.Receptor>
prm/blind_docking_40.prm

>  <SCORE>
-19.155

>  <SCORE.INTER>
-30.1854

>  <SCORE.INTER.CONST>
1

>  <SCORE.INTER.POLAR>
-5.10127

>  <SCORE.INTER.ROT>
6

>  <SCORE.INTER.SOLV>
34.8088

>  <SCORE.INTER.VDW>
-22.3223

>  <SCORE.INTER.norm>
-0.943295

>  <SCORE.INTRA>
2.91251

>  <SCORE.INTRA.DIHEDRAL>
-3.92743

>  <SCORE.INTRA.DIHEDRAL.0>
22.9177

>  <SCORE.INTRA.POLAR>
-0.904087

>  <SCORE.INTRA.POLAR.0>
-0.311208

>  <SCORE.INTRA.REPUL>
0.00956529

>  <SCORE.INTRA.REPUL.0>
0

>  <SCORE.INTRA.SOLV>
4.3162

>  <SCORE.INTRA.SOLV.lig_0>
-132.657

>  <SCORE.INTRA.VDW>
5.74419

>  <SCORE.INTRA.VDW.0>
-4.68867

>  <SCORE.INTRA.norm>
0.0910158

>  <SCORE.RESTR>
8.11795

>  <SCORE.RESTR.CAVITY>
8.11795

>  <SCORE.RESTR.norm>
0.253686

>  <SCORE.SYSTEM>
0

>  <SCORE.SYSTEM.CONST>
0

>  <SCORE.SYSTEM.DIHEDRAL>
0

>  <SCORE.SYSTEM.SOLV>
0

>  <SCORE.SYSTEM.norm>
0

>  <SCORE.heavy>
32

>  <SCORE.norm>
-0.598594

>  <RMSD>
8.215

$$$$
1tob
 OpenBabel11021811413D
libRbt.so/2013.1/901 2013/11/27
 32 34  0  0  0  0  0  0  0  0999 V2000
   -3.9327    6.4218    4.4517 C   0  0  2  0  0  0  0  0  0  0  0  0
   -4.7025    7.5347    5.1589 C   0  0  1  0  0  0  0  0  0  0  0  0
   -5.5306    8.3105    4.1437 C   0  0  2  0  0  0  0  0  0  0  0  0
   -4.6194    8.8279    3.0371 C   0  0  1  0  0  0  0  0  0  0  0  0
   -3.8554    7.6656    2.4088 C   0  0  1  0  0  0  0  0  0  0  0  0
   -2.8725    8.1259    1.3503 C   0  0  0  0  0  0  0  0  0  0  0  0
   -5.5568    6.9743    6.1457 O   0  0  0  0  0  0  0  0  0  0  0  0
   -6.2854    9.4035    4.7941 N   0  3  0  0  0  0  0  0  0  0  0  0
   -5.3936    9.4946    2.0491 O   0  0  0  0  0  0  0  0  0  0  0  0
   -3.0992    6.9660    3.4206 O   0  0  0  0  0  0  0  0  0  0  0  0
   -2.3371    7.0272    0.6264 O   0  0  0  0  0  0  0  0  0  0  0  0
   -4.3219    4.3686    1.8059 C   0  0  2  0  0  0  0  0  0  0  0  0
   -3.6701    3.1193    1.2293 C   0  0  0  0  0  0  0  0  0  0  0  0
   -2.1976    3.0491    1.6349 C   0  0  1  0  0  0  0  0  0  0  0  0
   -2.0842    3.0191    3.1574 C   0  0  2  0  0  0  0  0  0  0  0  0
   -2.7415    4.2640    3.7552 C   0  0  1  0  0  0  0  0  0  0  0  0
   -4.2050    4.3446    3.3221 C   0  0  1  0  0  0  0  0  0  0  0  0
   -5.7552    4.4249    1.4441 N   0  3  0  0  0  0  0  0  0  0  0  0
   -1.5532    1.8720    0.9966 N   0  3  0  0  0  0  0  0  0  0  0  0
   -2.6586    4.2188    5.1733 O   0  0  0  0  0  0  0  0  0  0  0  0
   -4.8132    5.5263    3.8741 O   0  0  0  0  0  0  0  0  0  0  0  0
   -0.0112    4.1640    3.5522 C   0  0  1  0  0  0  0  0  0  0  0  0
    1.4486    3.9420    3.1527 C   0  0  1  0  0  0  0  0  0  0  0  0
    2.1465    3.0579    4.1753 C   0  0  0  0  0  0  0  0  0  0  0  0
    1.9970    3.6753    5.5562 C   0  0  1  0  0  0  0  0  0  0  0  0
    0.5161    3.8846    5.8703 C   0  0  1  0  0  0  0  0  0  0  0  0
    0.2922    4.5538    7.2143 C   0  0  0  0  0  0  0  0  0  0  0  0
    1.5487    3.3900    1.7810 N   0  3  0  0  0  0  0  0  0  0  0  0
   -1.1049    5.0281    7.3587 N   0  3  0  0  0  0  0  0  0  0  0  0
   -0.6983    2.9574    3.5524 O   0  0  0  0  0  0  0  0  0  0  0  0
    2.5843    2.8277    6.5327 O   0  0  0  0  0  0  0  0  0  0  0  0
   -0.0908    4.7277    4.8671 O   0  0  0  0  0  0  0  0  0  0  0  0
  1  2  1  0  0  0  0
  1 10  1  0  0  0  0
  1 21  1  6  0  0  0
  2  3  1  0  0  0  0
  2  7  1  1  0  0  0
  3  4  1  0  0  0  0
  3  8  1  1  0  0  0
  4  5  1  0  0  0  0
  4  9  1  6  0  0  0
  5  6  1  6  0  0  0
  5 10  1  0  0  0  0
  6 11  1  0  0  0  0
 12 13  1  0  0  0  0
 12 17  1  0  0  0  0
 12 18  1  1  0  0  0
 13 14  1  0  0  0  0
 14 15  1  0  0  0  0
 14 19  1  6  0  0  0
 15 16  1  0  0  0  0
 15 30  1  6  0  0  0
 16 17  1  0  0  0  0
 16 20  1  1  0  0  0
 17 21  1  1  0  0  0
 22 23  1  0  0  0  0
 22 30  1  1  0  0  0
 22 32  1  0  0  0  0
 23 24  1  0  0  0  0
 23 28  1  6  0  0  0
 24 25  1  0  0  0  0
 25 26  1  0  0  0  0
 25 31  1  1  0  0  0
 26 27  1  1  0  0  0
 26 32  1  0  0  0  0
 27 29  1  0  0  0  0
M  CHG  5   8   1  18   1  19   1  28   1  29   1
M  END
>  <CHROM.1>
-172.56677008,176.43218942,-53.84895949,74.50727105,-170.27462660,-50.97928816
38.79352938,-95.27119411,81.01058638,11.94846314,-111.50957198,-146.09778847
-66.80689571,-55.36130864,166.79129542,115.06676737,-2.31937033,5.23375011
3.68238420,-3.01015282,0.63988750,-2.04607756

>  <Name>
1tob

>  <RI>
0

>  <Rbt.Current_Directory>
/home/itssahil/PROJECTS/Mol_Feturizer/New_Systems/rnas/1tob

>  <Rbt.Executable>
rbdock ($Id: //depot/dev/client3/rdock/2013.1/src/exe/rbdock.cxx#4 $)

>  <Rbt.Library>
libRbt.so (2013.1, Build901 2013/11/27)

>  <Rbt.Parameter_File>
/export/apps/rDock/src/rDock_2013.1_src/data/scripts/dock_solv.prm

>  <Rbt.Receptor>
prm/blind_docking_20.prm

>  <SCORE>
-30.3368

>  <SCORE.INTER>
-49.5633

>  <SCORE.INTER.CONST>
1

>  <SCORE.INTER.POLAR>
-8.38814

>  <SCORE.INTER.ROT>
6

>  <SCORE.INTER.SOLV>
42.8732

>  <SCORE.INTER.VDW>
-26.9728

>  <SCORE.INTER.norm>
-1.54885

>  <SCORE.INTRA>
9.73385

>  <SCORE.INTRA.DIHEDRAL>
6.47334

>  <SCORE.INTRA.DIHEDRAL.0>
22.9177

>  <SCORE.INTRA.POLAR>
-0.995141

>  <SCORE.INTRA.POLAR.0>
-0.311208

>  <SCORE.INTRA.REPUL>
0.202214

>  <SCORE.INTRA.REPUL.0>
0

>  <SCORE.INTRA.SOLV>
1.01374

>  <SCORE.INTRA.SOLV.lig_0>
-132.657

>  <SCORE.INTRA.VDW>
8.36272

>  <SCORE.INTRA.VDW.0>
-4.68867

>  <SCORE.INTRA.norm>
0.304183

>  <SCORE.RESTR>
9.49265

>  <SCORE.RESTR.CAVITY>
9.49265

>  <SCORE.RESTR.norm>
0.296645

>  <SCORE.SYSTEM>
0

>  <SCORE.SYSTEM.CONST>
0

>  <SCORE.SYSTEM.DIHEDRAL>
0

>  <SCORE.SYSTEM.SOLV>
0

>  <SCORE.SYSTEM.norm>
0

>  <SCORE.heavy>
32

>  <SCORE.norm>
-0.948026

>  <RMSD>
8.217

$$$$
1tob
 OpenBabel11021811413D
libRbt.so/2013.1/901 2013/11/27
 32 34  0  0  0  0  0  0  0  0999 V2000
   -4.9917    6.7464    1.7627 C   0  0  2  0  0  0  0  0  0  0  0  0
   -6.3358    7.4685    1.8181 C   0  0  1  0  0  0  0  0  0  0  0  0
   -7.4668    6.4574    1.6889 C   0  0  2  0  0  0  0  0  0  0  0  0
   -7.2784    5.6481    0.4113 C   0  0  1  0  0  0  0  0  0  0  0  0
   -5.9000    4.9929    0.4112 C   0  0  1  0  0  0  0  0  0  0  0  0
   -5.6217    4.2345   -0.8717 C   0  0  0  0  0  0  0  0  0  0  0  0
   -6.4551    8.1656    3.0500 O   0  0  0  0  0  0  0  0  0  0  0  0
   -8.7863    7.1241    1.7311 N   0  3  0  0  0  0  0  0  0  0  0  0
   -8.2912    4.6555    0.3172 O   0  0  0  0  0  0  0  0  0  0  0  0
   -4.8736    5.9998    0.5451 O   0  0  0  0  0  0  0  0  0  0  0  0
   -6.8112    4.0257   -1.6197 O   0  0  0  0  0  0  0  0  0  0  0  0
   -4.1581    5.9081    5.1360 C   0  0  2  0  0  0  0  0  0  0  0  0
   -2.9539    6.1436    6.0375 C   0  0  0  0  0  0  0  0  0  0  0  0
   -1.8263    5.1723    5.6876 C   0  0  1  0  0  0  0  0  0  0  0  0
   -1.4110    5.3690    4.2314 C   0  0  2  0  0  0  0  0  0  0  0  0
   -2.6113    5.1441    3.3106 C   0  0  1  0  0  0  0  0  0  0  0  0
   -3.7461    6.0973    3.6842 C   0  0  1  0  0  0  0  0  0  0  0  0
   -5.2404    6.8671    5.4479 N   0  3  0  0  0  0  0  0  0  0  0  0
   -0.6912    5.3555    6.6290 N   0  3  0  0  0  0  0  0  0  0  0  0
   -2.2276    5.3554    1.9585 O   0  0  0  0  0  0  0  0  0  0  0  0
   -4.8780    5.8694    2.8253 O   0  0  0  0  0  0  0  0  0  0  0  0
   -0.5118    3.1448    4.3209 C   0  0  1  0  0  0  0  0  0  0  0  0
    0.5487    2.2428    3.6869 C   0  0  1  0  0  0  0  0  0  0  0  0
    0.3801    2.2126    2.1753 C   0  0  0  0  0  0  0  0  0  0  0  0
   -1.0394    1.7864    1.8380 C   0  0  1  0  0  0  0  0  0  0  0  0
   -2.0355    2.7204    2.5242 C   0  0  1  0  0  0  0  0  0  0  0  0
   -3.4786    2.3187    2.2787 C   0  0  0  0  0  0  0  0  0  0  0  0
    1.9133    2.6617    4.0853 N   0  3  0  0  0  0  0  0  0  0  0  0
   -4.0230    2.9660    1.0612 N   0  3  0  0  0  0  0  0  0  0  0  0
   -0.3500    4.4542    3.8881 O   0  0  0  0  0  0  0  0  0  0  0  0
   -1.2344    1.8187    0.4317 O   0  0  0  0  0  0  0  0  0  0  0  0
   -1.8260    2.7081    3.9529 O   0  0  0  0  0  0  0  0  0  0  0  0
  1  2  1  0  0  0  0
  1 10  1  0  0  0  0
  1 21  1  1  0  0  0
  2  3  1  0  0  0  0
  2  7  1  1  0  0  0
  3  4  1  0  0  0  0
  3  8  1  6  0  0  0
  4  5  1  0  0  0  0
  4  9  1  1  0  0  0
  5  6  1  6  0  0  0
  5 10  1  0  0  0  0
  6 11  1  0  0  0  0
 12 13  1  0  0  0  0
 12 17  1  0  0  0  0
 12 18  1  1  0  0  0
 13 14  1  0  0  0  0
 14 15  1  0  0  0  0
 14 19  1  1  0  0  0
 15 16  1  0  0  0  0
 15 30  1  6  0  0  0
 16 17  1  0  0  0  0
 16 20  1  6  0  0  0
 17 21  1  6  0  0  0
 22 23  1  0  0  0  0
 22 30  1  6  0  0  0
 22 32  1  0  0  0  0
 23 24  1  0  0  0  0
 23 28  1  6  0  0  0
 24 25  1  0  0  0  0
 25 26  1  0  0  0  0
 25 31  1  6  0  0  0
 26 27  1  1  0  0  0
 26 32  1  0  0  0  0
 27 29  1  0  0  0  0
M  CHG  5   8   1  18   1  19   1  28   1  29   1
M  END
>  <CHROM.1>
-121.95049082,-83.93755329,-61.24071845,67.90847393,-14.80925534,178.41966057
-37.03703606,107.29954227,44.49642994,45.75842976,139.40085348,170.14632225
-65.30434674,166.65951694,-89.75277774,-45.08305505,-3.60386837,4.75012112
2.61229771,3.05334323,0.52214718,-2.20610817

>  <Name>
1tob

>  <RI>
0

>  <Rbt.Current_Directory>
/home/itssahil/PROJECTS/Mol_Feturizer/New_Systems/rnas/1tob

>  <Rbt.Executable>
rbdock ($Id: //depot/dev/client3/rdock/2013.1/src/exe/rbdock.cxx#4 $)

>  <Rbt.Library>
libRbt.so (2013.1, Build901 2013/11/27)

>  <Rbt.Parameter_File>
/export/apps/rDock/src/rDock_2013.1_src/data/scripts/dock_solv.prm

>  <Rbt.Receptor>
prm/blind_docking_100.prm

>  <SCORE>
21.984

>  <SCORE.INTER>
-3.31245

>  <SCORE.INTER.CONST>
1

>  <SCORE.INTER.POLAR>
-7.18675

>  <SCORE.INTER.ROT>
6

>  <SCORE.INTER.SOLV>
33.1052

>  <SCORE.INTER.VDW>
3.11247

>  <SCORE.INTER.norm>
-0.103514

>  <SCORE.INTRA>
17.1786

>  <SCORE.INTRA.DIHEDRAL>
8.21118

>  <SCORE.INTRA.DIHEDRAL.0>
22.9177

>  <SCORE.INTRA.POLAR>
-0.321483

>  <SCORE.INTRA.POLAR.0>
-0.311208

>  <SCORE.INTRA.REPUL>
0

>  <SCORE.INTRA.REPUL.0>
0

>  <SCORE.INTRA.SOLV>
7.26122

>  <SCORE.INTRA.SOLV.lig_0>
-132.657

>  <SCORE.INTRA.VDW>
10.5354

>  <SCORE.INTRA.VDW.0>
-4.68867

>  <SCORE.INTRA.norm>
0.536831

>  <SCORE.RESTR>
8.1179

>  <SCORE.RESTR.CAVITY>
8.1179

>  <SCORE.RESTR.norm>
0.253684

>  <SCORE.SYSTEM>
0

>  <SCORE.SYSTEM.CONST>
0

>  <SCORE.SYSTEM.DIHEDRAL>
0

>  <SCORE.SYSTEM.SOLV>
0

>  <SCORE.SYSTEM.norm>
0

>  <SCORE.heavy>
32

>  <SCORE.norm>
0.687001

>  <RMSD>
8.234

$$$$
1tob
 OpenBabel11021811413D
libRbt.so/2013.1/901 2013/11/27
 32 34  0  0  0  0  0  0  0  0999 V2000
   -8.3923    7.7820    2.7104 C   0  0  2  0  0  0  0  0  0  0  0  0
   -9.5139    8.5843    2.0550 C   0  0  1  0  0  0  0  0  0  0  0  0
   -9.0040    9.9704    1.6849 C   0  0  2  0  0  0  0  0  0  0  0  0
   -8.4345   10.6479    2.9256 C   0  0  1  0  0  0  0  0  0  0  0  0
   -7.3521    9.7687    3.5457 C   0  0  1  0  0  0  0  0  0  0  0  0
   -6.7988   10.3538    4.8301 C   0  0  0  0  0  0  0  0  0  0  0  0
   -9.9648    7.9125    0.8876 O   0  0  0  0  0  0  0  0  0  0  0  0
  -10.0687   10.7796    1.0531 N   0  3  0  0  0  0  0  0  0  0  0  0
   -7.8938   11.9150    2.5760 O   0  0  0  0  0  0  0  0  0  0  0  0
   -7.8936    8.4687    3.8653 O   0  0  0  0  0  0  0  0  0  0  0  0
   -6.2948   11.6665    4.6275 O   0  0  0  0  0  0  0  0  0  0  0  0
   -6.7612    5.7852    0.3411 C   0  0  2  0  0  0  0  0  0  0  0  0
   -6.1723    4.3816    0.3044 C   0  0  0  0  0  0  0  0  0  0  0  0
   -4.7604    4.3790    0.8909 C   0  0  1  0  0  0  0  0  0  0  0  0
   -4.8028    4.8694    2.3364 C   0  0  2  0  0  0  0  0  0  0  0  0
   -5.3996    6.2765    2.3937 C   0  0  1  0  0  0  0  0  0  0  0  0
   -6.7990    6.2790    1.7792 C   0  0  1  0  0  0  0  0  0  0  0  0
   -8.1400    5.7880   -0.1949 N   0  3  0  0  0  0  0  0  0  0  0  0
   -4.1661    3.0223    0.7714 N   0  3  0  0  0  0  0  0  0  0  0  0
   -5.4632    6.7183    3.7431 O   0  0  0  0  0  0  0  0  0  0  0  0
   -7.3483    7.6084    1.8211 O   0  0  0  0  0  0  0  0  0  0  0  0
   -3.3654    4.4165    4.2052 C   0  0  1  0  0  0  0  0  0  0  0  0
   -2.2663    5.1811    4.9450 C   0  0  1  0  0  0  0  0  0  0  0  0
   -0.9159    4.9263    4.2924 C   0  0  0  0  0  0  0  0  0  0  0  0
   -0.6614    3.4288    4.2361 C   0  0  1  0  0  0  0  0  0  0  0  0
   -1.8105    2.7372    3.5034 C   0  0  1  0  0  0  0  0  0  0  0  0
   -1.6524    1.2282    3.4598 C   0  0  0  0  0  0  0  0  0  0  0  0
   -2.5815    6.6271    5.0228 N   0  3  0  0  0  0  0  0  0  0  0  0
   -1.9604    0.6885    2.1139 N   0  3  0  0  0  0  0  0  0  0  0  0
   -3.4748    4.8756    2.8994 O   0  0  0  0  0  0  0  0  0  0  0  0
    0.5648    3.1699    3.5680 O   0  0  0  0  0  0  0  0  0  0  0  0
   -3.0627    3.0164    4.1664 O   0  0  0  0  0  0  0  0  0  0  0  0
  1  2  1  0  0  0  0
  1 10  1  0  0  0  0
  1 21  1  6  0  0  0
  2  3  1  0  0  0  0
  2  7  1  6  0  0  0
  3  4  1  0  0  0  0
  3  8  1  1  0  0  0
  4  5  1  0  0  0  0
  4  9  1  6  0  0  0
  5  6  1  1  0  0  0
  5 10  1  0  0  0  0
  6 11  1  0  0  0  0
 12 13  1  0  0  0  0
 12 17  1  0  0  0  0
 12 18  1  1  0  0  0
 13 14  1  0  0  0  0
 14 15  1  0  0  0  0
 14 19  1  1  0  0  0
 15 16  1  0  0  0  0
 15 30  1  6  0  0  0
 16 17  1  0  0  0  0
 16 20  1  1  0  0  0
 17 21  1  6  0  0  0
 22 23  1  0  0  0  0
 22 30  1  6  0  0  0
 22 32  1  0  0  0  0
 23 24  1  0  0  0  0
 23 28  1  6  0  0  0
 24 25  1  0  0  0  0
 25 26  1  0  0  0  0
 25 31  1  6  0  0  0
 26 27  1  1  0  0  0
 26 32  1  0  0  0  0
 27 29  1  0  0  0  0
M  CHG  5   8   1  18   1  19   1  28   1  29   1
M  END
>  <CHROM.1>
-135.58363707,64.91820650,-177.38348703,-170.65851707,-56.29028378,-168.12757084
-67.95181460,-168.45736102,-138.36976535,-57.24085590,128.00264983,-146.19617181
-70.27069433,-55.14675019,-135.75234915,-94.47697111,-5.40328997,6.37271643
2.71855017,2.56083840,-0.57992059,0.55728305

>  <Name>
1tob

>  <RI>
0

>  <Rbt.Current_Directory>
/home/itssahil/PROJECTS/Mol_Feturizer/New_Systems/rnas/1tob

>  <Rbt.Executable>
rbdock ($Id: //depot/dev/client3/rdock/2013.1/src/exe/rbdock.cxx#4 $)

>  <Rbt.Library>
libRbt.so (2013.1, Build901 2013/11/27)

>  <Rbt.Parameter_File>
/export/apps/rDock/src/rDock_2013.1_src/data/scripts/dock_solv.prm

>  <Rbt.Receptor>
prm/pocket_docking_5.prm

>  <SCORE>
-39.9264

>  <SCORE.INTER>
-40.338

>  <SCORE.INTER.CONST>
1

>  <SCORE.INTER.POLAR>
-6.09238

>  <SCORE.INTER.ROT>
6

>  <SCORE.INTER.SOLV>
30.0868

>  <SCORE.INTER.VDW>
-24.213

>  <SCORE.INTER.norm>
-1.26056

>  <SCORE.INTRA>
0.411597

>  <SCORE.INTRA.DIHEDRAL>
8.84042

>  <SCORE.INTRA.DIHEDRAL.0>
22.9177

>  <SCORE.INTRA.POLAR>
-1.19153

>  <SCORE.INTRA.POLAR.0>
-0.311208

>  <SCORE.INTRA.REPUL>
0

>  <SCORE.INTRA.REPUL.0>
0

>  <SCORE.INTRA.SOLV>
1.99727

>  <SCORE.INTRA.SOLV.lig_0>
-132.657

>  <SCORE.INTRA.VDW>
-0.956057

>  <SCORE.INTRA.VDW.0>
-4.68867

>  <SCORE.INTRA.norm>
0.0128624

>  <SCORE.RESTR>
0

>  <SCORE.RESTR.CAVITY>
0

>  <SCORE.RESTR.norm>
0

>  <SCORE.SYSTEM>
0

>  <SCORE.SYSTEM.CONST>
0

>  <SCORE.SYSTEM.DIHEDRAL>
0

>  <SCORE.SYSTEM.SOLV>
0

>  <SCORE.SYSTEM.norm>
0

>  <SCORE.heavy>
32

>  <SCORE.norm>
-1.2477

>  <RMSD>
8.258

$$$$
1tob
 OpenBabel11021811413D
libRbt.so/2013.1/901 2013/11/27
 32 34  0  0  0  0  0  0  0  0999 V2000
   -4.1498    6.0489    1.1971 C   0  0  2  0  0  0  0  0  0  0  0  0
   -4.2063    7.4226    0.5330 C   0  0  1  0  0  0  0  0  0  0  0  0
   -3.2150    8.3600    1.2090 C   0  0  2  0  0  0  0  0  0  0  0  0
   -3.5046    8.4097    2.7044 C   0  0  1  0  0  0  0  0  0  0  0  0
   -3.4716    6.9990    3.2860 C   0  0  1  0  0  0  0  0  0  0  0  0
   -3.8288    6.9736    4.7591 C   0  0  0  0  0  0  0  0  0  0  0  0
   -3.8875    7.3020   -0.8459 O   0  0  0  0  0  0  0  0  0  0  0  0
   -3.2482    9.7050    0.5948 N   0  3  0  0  0  0  0  0  0  0  0  0
   -2.5414    9.2285    3.3537 O   0  0  0  0  0  0  0  0  0  0  0  0
   -4.4241    6.1584    2.5995 O   0  0  0  0  0  0  0  0  0  0  0  0
   -4.9136    7.8451    5.0452 O   0  0  0  0  0  0  0  0  0  0  0  0
   -3.0301    3.0792    0.9838 C   0  0  2  0  0  0  0  0  0  0  0  0
   -2.7671    1.8205    1.7991 C   0  0  0  0  0  0  0  0  0  0  0  0
   -1.2938    1.7417    2.2002 C   0  0  1  0  0  0  0  0  0  0  0  0
   -0.9207    2.9671    3.0315 C   0  0  2  0  0  0  0  0  0  0  0  0
   -1.1861    4.2427    2.2305 C   0  0  1  0  0  0  0  0  0  0  0  0
   -2.6534    4.3014    1.8070 C   0  0  1  0  0  0  0  0  0  0  0  0
   -4.4608    3.1776    0.6208 N   0  3  0  0  0  0  0  0  0  0  0  0
   -1.0338    0.4687    2.9213 N   0  3  0  0  0  0  0  0  0  0  0  0
   -0.8641    5.3816    3.0175 O   0  0  0  0  0  0  0  0  0  0  0  0
   -2.8929    5.4952    1.0400 O   0  0  0  0  0  0  0  0  0  0  0  0
    0.9608    4.0084    4.0989 C   0  0  1  0  0  0  0  0  0  0  0  0
    2.3566    3.7100    4.6493 C   0  0  1  0  0  0  0  0  0  0  0  0
    2.2932    2.5754    5.6606 C   0  0  0  0  0  0  0  0  0  0  0  0
    1.2904    2.9282    6.7470 C   0  0  1  0  0  0  0  0  0  0  0  0
   -0.0679    3.2329    6.1164 C   0  0  1  0  0  0  0  0  0  0  0  0
   -1.1074    3.6515    7.1403 C   0  0  0  0  0  0  0  0  0  0  0  0
    3.3127    3.4246    3.5535 N   0  3  0  0  0  0  0  0  0  0  0  0
   -0.6447    4.8096    7.9418 N   0  3  0  0  0  0  0  0  0  0  0  0
    0.4692    2.9062    3.4123 O   0  0  0  0  0  0  0  0  0  0  0  0
    1.1683    1.8500    7.6632 O   0  0  0  0  0  0  0  0  0  0  0  0
    0.0558    4.3140    5.1670 O   0  0  0  0  0  0  0  0  0  0  0  0
  1  2  1  0  0  0  0
  1 10  1  0  0  0  0
  1 21  1  1  0  0  0
  2  3  1  0  0  0  0
  2  7  1  6  0  0  0
  3  4  1  0  0  0  0
  3  8  1  6  0  0  0
  4  5  1  0  0  0  0
  4  9  1  1  0  0  0
  5  6  1  1  0  0  0
  5 10  1  0  0  0  0
  6 11  1  0  0  0  0
 12 13  1  0  0  0  0
 12 17  1  0  0  0  0
 12 18  1  1  0  0  0
 13 14  1  0  0  0  0
 14 15  1  0  0  0  0
 14 19  1  1  0  0  0
 15 16  1  0  0  0  0
 15 30  1  6  0  0  0
 16 17  1  0  0  0  0
 16 20  1  1  0  0  0
 17 21  1  6  0  0  0
 22 23  1  0  0  0  0
 22 30  1  1  0  0  0
 22 32  1  0  0  0  0
 23 24  1  0  0  0  0
 23 28  1  6  0  0  0
 24 25  1  0  0  0  0
 25 26  1  0  0  0  0
 25 31  1  1  0  0  0
 26 27  1  1  0  0  0
 26 32  1  0  0  0  0
 27 29  1  0  0  0  0
M  CHG  5   8   1  18   1  19   1  28   1  29   1
M  END
>  <CHROM.1>
170.35093070,37.09421245,-55.61051224,160.65690288,41.38081117,-73.57906525
74.76893851,-61.04938692,175.85985470,-179.78704499,91.05113282,170.09903354
56.26323951,65.27446270,55.53348795,-161.06214165,-1.64193730,4.86274154
3.33202307,3.03413377,-0.90262601,0.72187273

>  <Name>
1tob

>  <RI>
0

>  <Rbt.Current_Directory>
/home/itssahil/PROJECTS/Mol_Feturizer/New_Systems/rnas/1tob

>  <Rbt.Executable>
rbdock ($Id: //depot/dev/client3/rdock/2013.1/src/exe/rbdock.cxx#4 $)

>  <Rbt.Library>
libRbt.so (2013.1, Build901 2013/11/27)

>  <Rbt.Parameter_File>
/export/apps/rDock/src/rDock_2013.1_src/data/scripts/dock_solv.prm

>  <Rbt.Receptor>
prm/blind_docking_20.prm

>  <SCORE>
-36.199

>  <SCORE.INTER>
-47.0513

>  <SCORE.INTER.CONST>
1

>  <SCORE.INTER.POLAR>
-6.35416

>  <SCORE.INTER.ROT>
6

>  <SCORE.INTER.SOLV>
30.0726

>  <SCORE.INTER.VDW>
-27.8112

>  <SCORE.INTER.norm>
-1.47035

>  <SCORE.INTRA>
-1.89166

>  <SCORE.INTRA.DIHEDRAL>
-10.3024

>  <SCORE.INTRA.DIHEDRAL.0>
22.9177

>  <SCORE.INTRA.POLAR>
0.311165

>  <SCORE.INTRA.POLAR.0>
-0.311208

>  <SCORE.INTRA.REPUL>
0

>  <SCORE.INTRA.REPUL.0>
0

>  <SCORE.INTRA.SOLV>
-4.49247

>  <SCORE.INTRA.SOLV.lig_0>
-132.657

>  <SCORE.INTRA.VDW>
4.4478

>  <SCORE.INTRA.VDW.0>
-4.68867

>  <SCORE.INTRA.norm>
-0.0591144

>  <SCORE.RESTR>
12.744

>  <SCORE.RESTR.CAVITY>
12.744

>  <SCORE.RESTR.norm>
0.39825

>  <SCORE.SYSTEM>
0

>  <SCORE.SYSTEM.CONST>
0

>  <SCORE.SYSTEM.DIHEDRAL>
0

>  <SCORE.SYSTEM.SOLV>
0

>  <SCORE.SYSTEM.norm>
0

>  <SCORE.heavy>
32

>  <SCORE.norm>
-1.13122

>  <RMSD>
8.259

$$$$
1tob
 OpenBabel11021811413D
libRbt.so/2013.1/901 2013/11/27
 32 34  0  0  0  0  0  0  0  0999 V2000
   -5.9896    5.1230    1.8438 C   0  0  2  0  0  0  0  0  0  0  0  0
   -5.7966    3.8961    0.9557 C   0  0  1  0  0  0  0  0  0  0  0  0
   -5.9880    4.2845   -0.5040 C   0  0  2  0  0  0  0  0  0  0  0  0
   -7.3543    4.9364   -0.6790 C   0  0  1  0  0  0  0  0  0  0  0  0
   -7.4867    6.1253    0.2688 C   0  0  1  0  0  0  0  0  0  0  0  0
   -8.8565    6.7710    0.1970 C   0  0  0  0  0  0  0  0  0  0  0  0
   -4.4911    3.3689    1.1437 O   0  0  0  0  0  0  0  0  0  0  0  0
   -5.8152    3.1161   -1.3943 N   0  3  0  0  0  0  0  0  0  0  0  0
   -7.5140    5.3645   -2.0249 O   0  0  0  0  0  0  0  0  0  0  0  0
   -7.2865    5.6954    1.6327 O   0  0  0  0  0  0  0  0  0  0  0  0
   -9.1104    7.3072   -1.0937 O   0  0  0  0  0  0  0  0  0  0  0  0
   -5.0617    6.6187    3.9078 C   0  0  2  0  0  0  0  0  0  0  0  0
   -4.1782    7.0324    5.0767 C   0  0  0  0  0  0  0  0  0  0  0  0
   -3.0809    5.9938    5.3110 C   0  0  1  0  0  0  0  0  0  0  0  0
   -2.2233    5.8591    4.0547 C   0  0  2  0  0  0  0  0  0  0  0  0
   -3.0964    5.4513    2.8670 C   0  0  1  0  0  0  0  0  0  0  0  0
   -4.2092    6.4775    2.6562 C   0  0  1  0  0  0  0  0  0  0  0  0
   -6.1054    7.6362    3.6553 N   0  3  0  0  0  0  0  0  0  0  0  0
   -2.2793    6.3663    6.5055 N   0  3  0  0  0  0  0  0  0  0  0  0
   -2.2996    5.3541    1.6941 O   0  0  0  0  0  0  0  0  0  0  0  0
   -5.0368    6.0797    1.5481 O   0  0  0  0  0  0  0  0  0  0  0  0
   -1.5251    3.7951    5.0629 C   0  0  1  0  0  0  0  0  0  0  0  0
   -0.3429    3.4033    5.9510 C   0  0  1  0  0  0  0  0  0  0  0  0
    0.8303    2.9473    5.0966 C   0  0  0  0  0  0  0  0  0  0  0  0
    0.3763    1.8208    4.1826 C   0  0  1  0  0  0  0  0  0  0  0  0
   -0.8172    2.2830    3.3476 C   0  0  1  0  0  0  0  0  0  0  0  0
   -1.3628    1.1869    2.4503 C   0  0  0  0  0  0  0  0  0  0  0  0
    0.0309    4.5110    6.8618 N   0  3  0  0  0  0  0  0  0  0  0  0
   -2.6615    1.5734    1.8490 N   0  3  0  0  0  0  0  0  0  0  0  0
   -1.1866    4.8780    4.2623 O   0  0  0  0  0  0  0  0  0  0  0  0
    1.4419    1.4290    3.3295 O   0  0  0  0  0  0  0  0  0  0  0  0
   -1.8953    2.7039    4.2112 O   0  0  0  0  0  0  0  0  0  0  0  0
  1  2  1  0  0  0  0
  1 10  1  0  0  0  0
  1 21  1  6  0  0  0
  2  3  1  0  0  0  0
  2  7  1  6  0  0  0
  3  4  1  0  0  0  0
  3  8  1  6  0  0  0
  4  5  1  0  0  0  0
  4  9  1  6  0  0  0
  5  6  1  1  0  0  0
  5 10  1  0  0  0  0
  6 11  1  0  0  0  0
 12 13  1  0  0  0  0
 12 17  1  0  0  0  0
 12 18  1  6  0  0  0
 13 14  1  0  0  0  0
 14 15  1  0  0  0  0
 14 19  1  1  0  0  0
 15 16  1  0  0  0  0
 15 30  1  1  0  0  0
 16 17  1  0  0  0  0
 16 20  1  6  0  0  0
 17 21  1  6  0  0  0
 22 23  1  0  0  0  0
 22 30  1  6  0  0  0
 22 32  1  0  0  0  0
 23 24  1  0  0  0  0
 23 28  1  6  0  0  0
 24 25  1  0  0  0  0
 25 26  1  0  0  0  0
 25 31  1  6  0  0  0
 26 27  1  1  0  0  0
 26 32  1  0  0  0  0
 27 29  1  0  0  0  0
M  CHG  5   8   1  18   1  19   1  28   1  29   1
M  END
>  <CHROM.1>
-122.05507533,171.33800261,-8.41369277,63.55412002,-62.77481525,56.80290986
-50.47263779,136.61882460,34.67960834,64.51672784,-41.32158582,-141.67807092
-32.68781333,-178.39029735,169.24063110,-105.65373945,-3.77103122,4.65901490
2.59041220,2.91815878,0.63478334,-2.31418234

>  <Name>
1tob

>  <RI>
0

>  <Rbt.Current_Directory>
/home/itssahil/PROJECTS/Mol_Feturizer/New_Systems/rnas/1tob

>  <Rbt.Executable>
rbdock ($Id: //depot/dev/client3/rdock/2013.1/src/exe/rbdock.cxx#4 $)

>  <Rbt.Library>
libRbt.so (2013.1, Build901 2013/11/27)

>  <Rbt.Parameter_File>
/export/apps/rDock/src/rDock_2013.1_src/data/scripts/dock_solv.prm

>  <Rbt.Receptor>
prm/blind_docking_80.prm

>  <SCORE>
-36.2089

>  <SCORE.INTER>
-49.5873

>  <SCORE.INTER.CONST>
1

>  <SCORE.INTER.POLAR>
-8.54004

>  <SCORE.INTER.ROT>
6

>  <SCORE.INTER.SOLV>
39.4543

>  <SCORE.INTER.VDW>
-25.3428

>  <SCORE.INTER.norm>
-1.5496

>  <SCORE.INTRA>
8.94862

>  <SCORE.INTRA.DIHEDRAL>
6.01117

>  <SCORE.INTRA.DIHEDRAL.0>
22.9177

>  <SCORE.INTRA.POLAR>
-1.46598

>  <SCORE.INTRA.POLAR.0>
-0.311208

>  <SCORE.INTRA.REPUL>
0.0031173

>  <SCORE.INTRA.REPUL.0>
0

>  <SCORE.INTRA.SOLV>
8.99601

>  <SCORE.INTRA.SOLV.lig_0>
-132.657

>  <SCORE.INTRA.VDW>
6.41378

>  <SCORE.INTRA.VDW.0>
-4.68867

>  <SCORE.INTRA.norm>
0.279644

>  <SCORE.RESTR>
4.42973

>  <SCORE.RESTR.CAVITY>
4.42973

>  <SCORE.RESTR.norm>
0.138429

>  <SCORE.SYSTEM>
0

>  <SCORE.SYSTEM.CONST>
0

>  <SCORE.SYSTEM.DIHEDRAL>
0

>  <SCORE.SYSTEM.SOLV>
0

>  <SCORE.SYSTEM.norm>
0

>  <SCORE.heavy>
32

>  <SCORE.norm>
-1.13153

>  <RMSD>
8.260

$$$$
1tob
 OpenBabel11021811413D
libRbt.so/2013.1/901 2013/11/27
 32 34  0  0  0  0  0  0  0  0999 V2000
   -3.8442    6.5032    4.1682 C   0  0  2  0  0  0  0  0  0  0  0  0
   -4.5990    7.4676    5.0801 C   0  0  1  0  0  0  0  0  0  0  0  0
   -5.3440    8.4934    4.2369 C   0  0  2  0  0  0  0  0  0  0  0  0
   -4.3599    9.1977    3.3107 C   0  0  1  0  0  0  0  0  0  0  0  0
   -3.6167    8.1679    2.4642 C   0  0  1  0  0  0  0  0  0  0  0  0
   -2.5657    8.8021    1.5745 C   0  0  0  0  0  0  0  0  0  0  0  0
   -5.5225    6.7454    5.8820 O   0  0  0  0  0  0  0  0  0  0  0  0
   -6.0820    9.4504    5.0895 N   0  3  0  0  0  0  0  0  0  0  0  0
   -5.0570   10.1085    2.4713 O   0  0  0  0  0  0  0  0  0  0  0  0
   -2.9400    7.2207    3.3187 O   0  0  0  0  0  0  0  0  0  0  0  0
   -2.2841    7.9897    0.4437 O   0  0  0  0  0  0  0  0  0  0  0  0
   -3.4663    5.1952    1.4010 C   0  0  2  0  0  0  0  0  0  0  0  0
   -2.8637    4.0136    0.6534 C   0  0  0  0  0  0  0  0  0  0  0  0
   -1.8666    3.2707    1.5430 C   0  0  1  0  0  0  0  0  0  0  0  0
   -2.5744    2.7645    2.7978 C   0  0  2  0  0  0  0  0  0  0  0  0
   -3.1935    3.9382    3.5583 C   0  0  1  0  0  0  0  0  0  0  0  0
   -4.1668    4.6947    2.6549 C   0  0  1  0  0  0  0  0  0  0  0  0
   -4.4566    5.8984    0.5564 N   0  3  0  0  0  0  0  0  0  0  0  0
   -1.2240    2.1731    0.7746 N   0  3  0  0  0  0  0  0  0  0  0  0
   -3.8749    3.4602    4.7103 O   0  0  0  0  0  0  0  0  0  0  0  0
   -4.7332    5.8072    3.3707 O   0  0  0  0  0  0  0  0  0  0  0  0
   -0.3853    2.6417    3.7760 C   0  0  1  0  0  0  0  0  0  0  0  0
    0.6312    1.5975    4.2409 C   0  0  1  0  0  0  0  0  0  0  0  0
    0.2605    1.0791    5.6223 C   0  0  0  0  0  0  0  0  0  0  0  0
    0.1352    2.2524    6.5805 C   0  0  1  0  0  0  0  0  0  0  0  0
   -0.8789    3.2576    6.0358 C   0  0  1  0  0  0  0  0  0  0  0  0
   -1.0132    4.4878    6.9148 C   0  0  0  0  0  0  0  0  0  0  0  0
    0.7602    0.5008    3.2525 N   0  3  0  0  0  0  0  0  0  0  0  0
    0.1637    4.6531    7.8011 N   0  3  0  0  0  0  0  0  0  0  0  0
   -1.6420    2.0652    3.6477 O   0  0  0  0  0  0  0  0  0  0  0  0
   -0.2773    1.7925    7.8593 O   0  0  0  0  0  0  0  0  0  0  0  0
   -0.4752    3.7110    4.7255 O   0  0  0  0  0  0  0  0  0  0  0  0
  1  2  1  0  0  0  0
  1 10  1  0  0  0  0
  1 21  1  6  0  0  0
  2  3  1  0  0  0  0
  2  7  1  6  0  0  0
  3  4  1  0  0  0  0
  3  8  1  1  0  0  0
  4  5  1  0  0  0  0
  4  9  1  6  0  0  0
  5  6  1  1  0  0  0
  5 10  1  0  0  0  0
  6 11  1  0  0  0  0
 12 13  1  0  0  0  0
 12 17  1  0  0  0  0
 12 18  1  6  0  0  0
 13 14  1  0  0  0  0
 14 15  1  0  0  0  0
 14 19  1  6  0  0  0
 15 16  1  0  0  0  0
 15 30  1  1  0  0  0
 16 17  1  0  0  0  0
 16 20  1  1  0  0  0
 17 21  1  1  0  0  0
 22 23  1  0  0  0  0
 22 30  1  1  0  0  0
 22 32  1  0  0  0  0
 23 24  1  0  0  0  0
 23 28  1  6  0  0  0
 24 25  1  0  0  0  0
 25 26  1  0  0  0  0
 25 31  1  1  0  0  0
 26 27  1  1  0  0  0
 26 32  1  0  0  0  0
 27 29  1  0  0  0  0
M  CHG  5   8   1  18   1  19   1  28   1  29   1
M  END
>  <CHROM.1>
-168.71093071,173.68221884,-49.65621596,-54.41361748,-155.75177800,-172.31269363
11.80221325,-29.09933797,41.42892829,-60.71167932,-81.31848009,-159.11554559
176.31082263,-44.05696104,19.83000100,-179.47920188,-2.55586623,4.99362016
3.77255443,3.02295072,0.98344508,-1.73651712

>  <Name>
1tob

>  <RI>
0

>  <Rbt.Current_Directory>
/home/itssahil/PROJECTS/Mol_Feturizer/New_Systems/rnas/1tob

>  <Rbt.Executable>
rbdock ($Id: //depot/dev/client3/rdock/2013.1/src/exe/rbdock.cxx#4 $)

>  <Rbt.Library>
libRbt.so (2013.1, Build901 2013/11/27)

>  <Rbt.Parameter_File>
/export/apps/rDock/src/rDock_2013.1_src/data/scripts/dock_solv.prm

>  <Rbt.Receptor>
prm/blind_docking_40.prm

>  <SCORE>
-9.50236

>  <SCORE.INTER>
-17.561

>  <SCORE.INTER.CONST>
1

>  <SCORE.INTER.POLAR>
-5.57398

>  <SCORE.INTER.ROT>
6

>  <SCORE.INTER.SOLV>
40.7134

>  <SCORE.INTER.VDW>
-14.2985

>  <SCORE.INTER.norm>
-0.548782

>  <SCORE.INTRA>
0.401631

>  <SCORE.INTRA.DIHEDRAL>
-3.72776

>  <SCORE.INTRA.DIHEDRAL.0>
22.9177

>  <SCORE.INTRA.POLAR>
-1.24528

>  <SCORE.INTRA.POLAR.0>
-0.311208

>  <SCORE.INTRA.REPUL>
0

>  <SCORE.INTRA.REPUL.0>
0

>  <SCORE.INTRA.SOLV>
3.50134

>  <SCORE.INTRA.SOLV.lig_0>
-132.657

>  <SCORE.INTRA.VDW>
4.7488

>  <SCORE.INTRA.VDW.0>
-4.68867

>  <SCORE.INTRA.norm>
0.012551

>  <SCORE.RESTR>
7.65704

>  <SCORE.RESTR.CAVITY>
7.65704

>  <SCORE.RESTR.norm>
0.239283

>  <SCORE.SYSTEM>
0

>  <SCORE.SYSTEM.CONST>
0

>  <SCORE.SYSTEM.DIHEDRAL>
0

>  <SCORE.SYSTEM.SOLV>
0

>  <SCORE.SYSTEM.norm>
0

>  <SCORE.heavy>
32

>  <SCORE.norm>
-0.296949

>  <RMSD>
8.275

$$$$
1tob
 OpenBabel11021811413D
libRbt.so/2013.1/901 2013/11/27
 32 34  0  0  0  0  0  0  0  0999 V2000
   -3.7692    6.4118    4.6325 C   0  0  2  0  0  0  0  0  0  0  0  0
   -4.5413    7.5679    5.2638 C   0  0  1  0  0  0  0  0  0  0  0  0
   -5.2598    8.3578    4.1784 C   0  0  2  0  0  0  0  0  0  0  0  0
   -4.2494    8.8172    3.1341 C   0  0  1  0  0  0  0  0  0  0  0  0
   -3.4909    7.6134    2.5819 C   0  0  1  0  0  0  0  0  0  0  0  0
   -2.4149    8.0138    1.5918 C   0  0  0  0  0  0  0  0  0  0  0  0
   -5.4881    7.0611    6.1934 O   0  0  0  0  0  0  0  0  0  0  0  0
   -6.0137    9.4924    4.7544 N   0  3  0  0  0  0  0  0  0  0  0  0
   -4.9208    9.4964    2.0815 O   0  0  0  0  0  0  0  0  0  0  0  0
   -2.8405    6.9025    3.6574 O   0  0  0  0  0  0  0  0  0  0  0  0
   -2.4681    7.2167    0.4171 O   0  0  0  0  0  0  0  0  0  0  0  0
   -4.2057    4.3218    1.9611 C   0  0  2  0  0  0  0  0  0  0  0  0
   -3.5560    3.0626    1.4040 C   0  0  0  0  0  0  0  0  0  0  0  0
   -2.0694    3.0261    1.7596 C   0  0  1  0  0  0  0  0  0  0  0  0
   -1.9028    3.0493    3.2773 C   0  0  2  0  0  0  0  0  0  0  0  0
   -2.5572    4.3048    3.8559 C   0  0  1  0  0  0  0  0  0  0  0  0
   -4.0359    4.3509    3.4723 C   0  0  1  0  0  0  0  0  0  0  0  0
   -5.6514    4.3464    1.6484 N   0  3  0  0  0  0  0  0  0  0  0  0
   -1.4303    1.8369    1.1387 N   0  3  0  0  0  0  0  0  0  0  0  0
   -2.4244    4.3088    5.2710 O   0  0  0  0  0  0  0  0  0  0  0  0
   -4.6418    5.5423    4.0055 O   0  0  0  0  0  0  0  0  0  0  0  0
    0.1438    4.2482    3.6493 C   0  0  1  0  0  0  0  0  0  0  0  0
    1.5919    4.0931    3.1816 C   0  0  1  0  0  0  0  0  0  0  0  0
    2.3606    3.1913    4.1356 C   0  0  0  0  0  0  0  0  0  0  0  0
    2.2494    3.7446    5.5469 C   0  0  1  0  0  0  0  0  0  0  0  0
    0.7770    3.8898    5.9298 C   0  0  1  0  0  0  0  0  0  0  0  0
    0.5883    4.4939    7.3095 C   0  0  0  0  0  0  0  0  0  0  0  0
    1.6520    3.6030    1.7842 N   0  3  0  0  0  0  0  0  0  0  0  0
   -0.8140    4.9228    7.5274 N   0  3  0  0  0  0  0  0  0  0  0  0
   -0.5033    3.0198    3.6252 O   0  0  0  0  0  0  0  0  0  0  0  0
    2.9044    2.8773    6.4610 O   0  0  0  0  0  0  0  0  0  0  0  0
    0.1015    4.7531    4.9896 O   0  0  0  0  0  0  0  0  0  0  0  0
  1  2  1  0  0  0  0
  1 10  1  0  0  0  0
  1 21  1  6  0  0  0
  2  3  1  0  0  0  0
  2  7  1  1  0  0  0
  3  4  1  0  0  0  0
  3  8  1  1  0  0  0
  4  5  1  0  0  0  0
  4  9  1  6  0  0  0
  5  6  1  6  0  0  0
  5 10  1  0  0  0  0
  6 11  1  0  0  0  0
 12 13  1  0  0  0  0
 12 17  1  0  0  0  0
 12 18  1  1  0  0  0
 13 14  1  0  0  0  0
 14 15  1  0  0  0  0
 14 19  1  1  0  0  0
 15 16  1  0  0  0  0
 15 30  1  6  0  0  0
 16 17  1  0  0  0  0
 16 20  1  1  0  0  0
 17 21  1  6  0  0  0
 22 23  1  0  0  0  0
 22 30  1  1  0  0  0
 22 32  1  0  0  0  0
 23 24  1  0  0  0  0
 23 28  1  6  0  0  0
 24 25  1  0  0  0  0
 25 26  1  0  0  0  0
 25 31  1  1  0  0  0
 26 27  1  1  0  0  0
 26 32  1  0  0  0  0
 27 29  1  0  0  0  0
M  CHG  5   8   1  18   1  19   1  28   1  29   1
M  END
>  <CHROM.1>
-174.88074182,173.81033270,-57.70214490,174.63111913,-132.73011830,60.48590488
154.68541685,28.82860946,85.25895876,-17.08276469,-117.25516685,-145.52461604
-69.99945630,-58.88381934,166.37494969,121.08695480,-2.11384141,5.25954034
3.76368606,-3.01201312,0.63409296,-2.06113753

>  <Name>
1tob

>  <RI>
0

>  <Rbt.Current_Directory>
/home/itssahil/PROJECTS/Mol_Feturizer/New_Systems/rnas/1tob

>  <Rbt.Executable>
rbdock ($Id: //depot/dev/client3/rdock/2013.1/src/exe/rbdock.cxx#4 $)

>  <Rbt.Library>
libRbt.so (2013.1, Build901 2013/11/27)

>  <Rbt.Parameter_File>
/export/apps/rDock/src/rDock_2013.1_src/data/scripts/dock_solv.prm

>  <Rbt.Receptor>
prm/blind_docking_40.prm

>  <SCORE>
-28.2763

>  <SCORE.INTER>
-48.4633

>  <SCORE.INTER.CONST>
1

>  <SCORE.INTER.POLAR>
-7.87612

>  <SCORE.INTER.ROT>
6

>  <SCORE.INTER.SOLV>
42.6617

>  <SCORE.INTER.VDW>
-27.8757

>  <SCORE.INTER.norm>
-1.51448

>  <SCORE.INTRA>
12.8044

>  <SCORE.INTRA.DIHEDRAL>
10.1295

>  <SCORE.INTRA.DIHEDRAL.0>
22.9177

>  <SCORE.INTRA.POLAR>
-1.05125

>  <SCORE.INTRA.POLAR.0>
-0.311208

>  <SCORE.INTRA.REPUL>
0.377278

>  <SCORE.INTRA.REPUL.0>
0

>  <SCORE.INTRA.SOLV>
-0.185595

>  <SCORE.INTRA.SOLV.lig_0>
-132.657

>  <SCORE.INTRA.VDW>
9.52026

>  <SCORE.INTRA.VDW.0>
-4.68867

>  <SCORE.INTRA.norm>
0.400137

>  <SCORE.RESTR>
7.38267

>  <SCORE.RESTR.CAVITY>
7.38267

>  <SCORE.RESTR.norm>
0.230708

>  <SCORE.SYSTEM>
0

>  <SCORE.SYSTEM.CONST>
0

>  <SCORE.SYSTEM.DIHEDRAL>
0

>  <SCORE.SYSTEM.SOLV>
0

>  <SCORE.SYSTEM.norm>
0

>  <SCORE.heavy>
32

>  <SCORE.norm>
-0.883633

>  <RMSD>
8.282

$$$$
1tob
 OpenBabel11021811413D
libRbt.so/2013.1/901 2013/11/27
 32 34  0  0  0  0  0  0  0  0999 V2000
   -3.8558    6.5626    4.2919 C   0  0  2  0  0  0  0  0  0  0  0  0
   -4.6609    7.5779    5.0996 C   0  0  1  0  0  0  0  0  0  0  0  0
   -5.4665    8.4606    4.1562 C   0  0  2  0  0  0  0  0  0  0  0  0
   -4.5278    9.1124    3.1479 C   0  0  1  0  0  0  0  0  0  0  0  0
   -3.7304    8.0388    2.4126 C   0  0  1  0  0  0  0  0  0  0  0  0
   -2.7208    8.6290    1.4478 C   0  0  0  0  0  0  0  0  0  0  0  0
   -5.5385    6.8980    5.9856 O   0  0  0  0  0  0  0  0  0  0  0  0
   -6.2546    9.4630    4.9056 N   0  3  0  0  0  0  0  0  0  0  0  0
   -5.2791    9.8841    2.2205 O   0  0  0  0  0  0  0  0  0  0  0  0
   -2.9974    7.2315    3.3593 O   0  0  0  0  0  0  0  0  0  0  0  0
   -1.6016    9.1707    2.1348 O   0  0  0  0  0  0  0  0  0  0  0  0
   -4.3488    4.1950    1.7510 C   0  0  2  0  0  0  0  0  0  0  0  0
   -3.7584    2.8386    1.3908 C   0  0  0  0  0  0  0  0  0  0  0  0
   -2.2698    2.7948    1.7369 C   0  0  1  0  0  0  0  0  0  0  0  0
   -2.0814    3.0449    3.2314 C   0  0  2  0  0  0  0  0  0  0  0  0
   -2.6763    4.4012    3.6135 C   0  0  1  0  0  0  0  0  0  0  0  0
   -4.1571    4.4499    3.2382 C   0  0  1  0  0  0  0  0  0  0  0  0
   -5.7964    4.2321    1.4489 N   0  3  0  0  0  0  0  0  0  0  0  0
   -1.6881    1.4981    1.3029 N   0  3  0  0  0  0  0  0  0  0  0  0
   -2.5240    4.6180    5.0099 O   0  0  0  0  0  0  0  0  0  0  0  0
   -4.7067    5.7338    3.5850 O   0  0  0  0  0  0  0  0  0  0  0  0
   -0.0388    4.2405    3.6338 C   0  0  1  0  0  0  0  0  0  0  0  0
    1.3955    4.1181    3.1162 C   0  0  1  0  0  0  0  0  0  0  0  0
    2.1973    3.1765    4.0020 C   0  0  0  0  0  0  0  0  0  0  0  0
    2.1256    3.6601    5.4412 C   0  0  1  0  0  0  0  0  0  0  0  0
    0.6647    3.7766    5.8743 C   0  0  1  0  0  0  0  0  0  0  0  0
    0.5143    4.3120    7.2868 C   0  0  0  0  0  0  0  0  0  0  0  0
    1.4162    3.6966    1.6955 N   0  3  0  0  0  0  0  0  0  0  0  0
   -0.8801    4.7332    7.5623 N   0  3  0  0  0  0  0  0  0  0  0  0
   -0.6796    3.0104    3.5694 O   0  0  0  0  0  0  0  0  0  0  0  0
    2.8125    2.7541    6.2922 O   0  0  0  0  0  0  0  0  0  0  0  0
   -0.0434    4.6797    4.9978 O   0  0  0  0  0  0  0  0  0  0  0  0
  1  2  1  0  0  0  0
  1 10  1  0  0  0  0
  1 21  1  6  0  0  0
  2  3  1  0  0  0  0
  2  7  1  1  0  0  0
  3  4  1  0  0  0  0
  3  8  1  1  0  0  0
  4  5  1  0  0  0  0
  4  9  1  6  0  0  0
  5  6  1  6  0  0  0
  5 10  1  0  0  0  0
  6 11  1  0  0  0  0
 12 13  1  0  0  0  0
 12 17  1  0  0  0  0
 12 18  1  1  0  0  0
 13 14  1  0  0  0  0
 14 15  1  0  0  0  0
 14 19  1  1  0  0  0
 15 16  1  0  0  0  0
 15 30  1  6  0  0  0
 16 17  1  0  0  0  0
 16 20  1  1  0  0  0
 17 21  1  6  0  0  0
 22 23  1  0  0  0  0
 22 30  1  1  0  0  0
 22 32  1  0  0  0  0
 23 24  1  0  0  0  0
 23 28  1  6  0  0  0
 24 25  1  0  0  0  0
 25 26  1  0  0  0  0
 25 31  1  1  0  0  0
 26 27  1  1  0  0  0
 26 32  1  0  0  0  0
 27 29  1  0  0  0  0
M  CHG  5   8   1  18   1  19   1  28   1  29   1
M  END
>  <CHROM.1>
-155.88193704,-38.68340377,66.20750562,-58.73859427,74.58898539,61.57271035
-95.69674040,176.39879838,96.54746089,93.97800295,-128.88167642,-143.99121316
78.61389177,175.25922650,165.78953662,-102.30030565,-2.23996288,5.36032541
3.73107935,-2.78537246,0.61208530,-2.38064055

>  <Name>
1tob

>  <RI>
0

>  <Rbt.Current_Directory>
/home/itssahil/PROJECTS/Mol_Feturizer/New_Systems/rnas/1tob

>  <Rbt.Executable>
rbdock ($Id: //depot/dev/client3/rdock/2013.1/src/exe/rbdock.cxx#4 $)

>  <Rbt.Library>
libRbt.so (2013.1, Build901 2013/11/27)

>  <Rbt.Parameter_File>
/export/apps/rDock/src/rDock_2013.1_src/data/scripts/dock_solv.prm

>  <Rbt.Receptor>
prm/blind_docking_60.prm

>  <SCORE>
-32.4241

>  <SCORE.INTER>
-52.1156

>  <SCORE.INTER.CONST>
1

>  <SCORE.INTER.POLAR>
-7.83301

>  <SCORE.INTER.ROT>
6

>  <SCORE.INTER.SOLV>
43.5905

>  <SCORE.INTER.VDW>
-30.7638

>  <SCORE.INTER.norm>
-1.62861

>  <SCORE.INTRA>
12.9491

>  <SCORE.INTRA.DIHEDRAL>
9.81291

>  <SCORE.INTRA.DIHEDRAL.0>
22.9177

>  <SCORE.INTRA.POLAR>
-1.47152

>  <SCORE.INTRA.POLAR.0>
-0.311208

>  <SCORE.INTRA.REPUL>
0.48915

>  <SCORE.INTRA.REPUL.0>
0

>  <SCORE.INTRA.SOLV>
-2.53451

>  <SCORE.INTRA.SOLV.lig_0>
-132.657

>  <SCORE.INTRA.VDW>
11.8674

>  <SCORE.INTRA.VDW.0>
-4.68867

>  <SCORE.INTRA.norm>
0.40466

>  <SCORE.RESTR>
6.74229

>  <SCORE.RESTR.CAVITY>
6.74229

>  <SCORE.RESTR.norm>
0.210697

>  <SCORE.SYSTEM>
0

>  <SCORE.SYSTEM.CONST>
0

>  <SCORE.SYSTEM.DIHEDRAL>
0

>  <SCORE.SYSTEM.SOLV>
0

>  <SCORE.SYSTEM.norm>
0

>  <SCORE.heavy>
32

>  <SCORE.norm>
-1.01325

>  <RMSD>
8.283

$$$$
1tob
 OpenBabel11021811413D
libRbt.so/2013.1/901 2013/11/27
 32 34  0  0  0  0  0  0  0  0999 V2000
   -9.0388    7.9583    2.8439 C   0  0  2  0  0  0  0  0  0  0  0  0
  -10.3229    8.5409    2.2584 C   0  0  1  0  0  0  0  0  0  0  0  0
  -10.0802    9.9786    1.8197 C   0  0  2  0  0  0  0  0  0  0  0  0
   -9.5449   10.7835    2.9979 C   0  0  1  0  0  0  0  0  0  0  0  0
   -8.2890   10.1173    3.5530 C   0  0  1  0  0  0  0  0  0  0  0  0
   -7.7510   10.8300    4.7782 C   0  0  0  0  0  0  0  0  0  0  0  0
  -10.7373    7.7637    1.1440 O   0  0  0  0  0  0  0  0  0  0  0  0
  -11.3077   10.5782    1.2531 N   0  3  0  0  0  0  0  0  0  0  0  0
   -9.2505   12.1096    2.5801 O   0  0  0  0  0  0  0  0  0  0  0  0
   -8.5808    8.7576    3.9418 O   0  0  0  0  0  0  0  0  0  0  0  0
   -6.6749   10.1123    5.3654 O   0  0  0  0  0  0  0  0  0  0  0  0
   -7.3305    6.3319    0.2096 C   0  0  2  0  0  0  0  0  0  0  0  0
   -6.6573    4.9795    0.0200 C   0  0  0  0  0  0  0  0  0  0  0  0
   -5.2559    4.9898    0.6310 C   0  0  1  0  0  0  0  0  0  0  0  0
   -5.3474    5.3018    2.1230 C   0  0  2  0  0  0  0  0  0  0  0  0
   -6.0290    6.6547    2.3333 C   0  0  1  0  0  0  0  0  0  0  0  0
   -7.4175    6.6484    1.6948 C   0  0  1  0  0  0  0  0  0  0  0  0
   -8.6996    6.3177   -0.3506 N   0  3  0  0  0  0  0  0  0  0  0  0
   -4.5790    3.6940    0.3648 N   0  3  0  0  0  0  0  0  0  0  0  0
   -6.1375    6.9287    3.7237 O   0  0  0  0  0  0  0  0  0  0  0  0
   -8.0468    7.9290    1.8816 O   0  0  0  0  0  0  0  0  0  0  0  0
   -3.8733    4.5794    3.8750 C   0  0  1  0  0  0  0  0  0  0  0  0
   -2.9764    5.3293    4.8614 C   0  0  1  0  0  0  0  0  0  0  0  0
   -1.5816    5.5024    4.2794 C   0  0  0  0  0  0  0  0  0  0  0  0
   -1.0281    4.1408    3.8918 C   0  0  1  0  0  0  0  0  0  0  0  0
   -1.9890    3.4492    2.9254 C   0  0  1  0  0  0  0  0  0  0  0  0
   -1.5279    2.0553    2.5396 C   0  0  0  0  0  0  0  0  0  0  0  0
   -3.5797    6.6253    5.2526 N   0  3  0  0  0  0  0  0  0  0  0  0
   -2.6531    1.2305    2.0383 N   0  3  0  0  0  0  0  0  0  0  0  0
   -4.0300    5.3187    2.7100 O   0  0  0  0  0  0  0  0  0  0  0  0
    0.2465    4.2905    3.2837 O   0  0  0  0  0  0  0  0  0  0  0  0
   -3.2929    3.3152    3.5313 O   0  0  0  0  0  0  0  0  0  0  0  0
  1  2  1  0  0  0  0
  1 10  1  0  0  0  0
  1 21  1  6  0  0  0
  2  3  1  0  0  0  0
  2  7  1  6  0  0  0
  3  4  1  0  0  0  0
  3  8  1  1  0  0  0
  4  5  1  0  0  0  0
  4  9  1  6  0  0  0
  5  6  1  1  0  0  0
  5 10  1  0  0  0  0
  6 11  1  0  0  0  0
 12 13  1  0  0  0  0
 12 17  1  0  0  0  0
 12 18  1  1  0  0  0
 13 14  1  0  0  0  0
 14 15  1  0  0  0  0
 14 19  1  1  0  0  0
 15 16  1  0  0  0  0
 15 30  1  6  0  0  0
 16 17  1  0  0  0  0
 16 20  1  1  0  0  0
 17 21  1  6  0  0  0
 22 23  1  0  0  0  0
 22 30  1  6  0  0  0
 22 32  1  0  0  0  0
 23 24  1  0  0  0  0
 23 28  1  6  0  0  0
 24 25  1  0  0  0  0
 25 26  1  0  0  0  0
 25 31  1  6  0  0  0
 26 27  1  1  0  0  0
 26 32  1  0  0  0  0
 27 29  1  0  0  0  0
M  CHG  5   8   1  18   1  19   1  28   1  29   1
M  END
>  <CHROM.1>
-126.98734516,61.35080772,-172.23295985,-49.21313436,173.46234258,-82.56577534
-66.28444919,-40.97499583,-130.94784907,-174.30982979,133.07639537,-140.64334429
98.25239532,-60.56323933,159.01518898,87.67157827,-6.05881270,6.67004274
2.62952215,2.68455128,-0.54514882,0.71240181

>  <Name>
1tob

>  <RI>
0

>  <Rbt.Current_Directory>
/home/itssahil/PROJECTS/Mol_Feturizer/New_Systems/rnas/1tob

>  <Rbt.Executable>
rbdock ($Id: //depot/dev/client3/rdock/2013.1/src/exe/rbdock.cxx#4 $)

>  <Rbt.Library>
libRbt.so (2013.1, Build901 2013/11/27)

>  <Rbt.Parameter_File>
/export/apps/rDock/src/rDock_2013.1_src/data/scripts/dock_solv.prm

>  <Rbt.Receptor>
prm/pocket_docking_4.prm

>  <SCORE>
-52.0467

>  <SCORE.INTER>
-50.2703

>  <SCORE.INTER.CONST>
1

>  <SCORE.INTER.POLAR>
-8.58772

>  <SCORE.INTER.ROT>
6

>  <SCORE.INTER.SOLV>
29.1021

>  <SCORE.INTER.VDW>
-22.1885

>  <SCORE.INTER.norm>
-1.57095

>  <SCORE.INTRA>
-1.77639

>  <SCORE.INTRA.DIHEDRAL>
11.9553

>  <SCORE.INTRA.DIHEDRAL.0>
22.9177

>  <SCORE.INTRA.POLAR>
-2.35256

>  <SCORE.INTRA.POLAR.0>
-0.311208

>  <SCORE.INTRA.REPUL>
0

>  <SCORE.INTRA.REPUL.0>
0

>  <SCORE.INTRA.SOLV>
2.6167

>  <SCORE.INTRA.SOLV.lig_0>
-132.657

>  <SCORE.INTRA.VDW>
-1.06367

>  <SCORE.INTRA.VDW.0>
-4.68867

>  <SCORE.INTRA.norm>
-0.0555122

>  <SCORE.RESTR>
0

>  <SCORE.RESTR.CAVITY>
0

>  <SCORE.RESTR.norm>
0

>  <SCORE.SYSTEM>
0

>  <SCORE.SYSTEM.CONST>
0

>  <SCORE.SYSTEM.DIHEDRAL>
0

>  <SCORE.SYSTEM.SOLV>
0

>  <SCORE.SYSTEM.norm>
0

>  <SCORE.heavy>
32

>  <SCORE.norm>
-1.62646

>  <RMSD>
8.283

$$$$
1tob
 OpenBabel11021811413D
libRbt.so/2013.1/901 2013/11/27
 32 34  0  0  0  0  0  0  0  0999 V2000
   -3.8835    7.1228    3.0583 C   0  0  2  0  0  0  0  0  0  0  0  0
   -3.2808    7.3676    4.4396 C   0  0  1  0  0  0  0  0  0  0  0  0
   -4.3916    7.6598    5.4391 C   0  0  2  0  0  0  0  0  0  0  0  0
   -5.2273    8.8317    4.9385 C   0  0  1  0  0  0  0  0  0  0  0  0
   -5.7582    8.5298    3.5398 C   0  0  1  0  0  0  0  0  0  0  0  0
   -6.5357    9.6921    2.9542 C   0  0  0  0  0  0  0  0  0  0  0  0
   -2.5524    6.2210    4.8549 O   0  0  0  0  0  0  0  0  0  0  0  0
   -3.8424    7.9097    6.7894 N   0  3  0  0  0  0  0  0  0  0  0  0
   -6.3080    9.0676    5.8309 O   0  0  0  0  0  0  0  0  0  0  0  0
   -4.6608    8.2530    2.6431 O   0  0  0  0  0  0  0  0  0  0  0  0
   -6.4532   10.8422    3.7840 O   0  0  0  0  0  0  0  0  0  0  0  0
   -3.4275    5.2166    1.1942 C   0  0  2  0  0  0  0  0  0  0  0  0
   -2.8481    3.9647    0.5499 C   0  0  0  0  0  0  0  0  0  0  0  0
   -1.8881    3.2640    1.5117 C   0  0  1  0  0  0  0  0  0  0  0  0
   -2.6310    2.8756    2.7881 C   0  0  2  0  0  0  0  0  0  0  0  0
   -3.2272    4.1212    3.4455 C   0  0  1  0  0  0  0  0  0  0  0  0
   -4.1628    4.8337    2.4694 C   0  0  1  0  0  0  0  0  0  0  0  0
   -4.3825    5.8809    0.2804 N   0  3  0  0  0  0  0  0  0  0  0  0
   -1.2660    2.0930    0.8410 N   0  3  0  0  0  0  0  0  0  0  0  0
   -3.9413    3.7523    4.6177 O   0  0  0  0  0  0  0  0  0  0  0  0
   -4.7075    6.0133    3.0879 O   0  0  0  0  0  0  0  0  0  0  0  0
   -0.4729    2.7841    3.8360 C   0  0  1  0  0  0  0  0  0  0  0  0
    0.5509    1.7150    4.2220 C   0  0  1  0  0  0  0  0  0  0  0  0
    0.2099    1.1248    5.5820 C   0  0  0  0  0  0  0  0  0  0  0  0
    0.1094    2.2459    6.6036 C   0  0  1  0  0  0  0  0  0  0  0  0
   -0.9139    3.2801    6.1359 C   0  0  1  0  0  0  0  0  0  0  0  0
   -1.0249    4.4622    7.0816 C   0  0  0  0  0  0  0  0  0  0  0  0
    0.6546    0.6721    3.1741 N   0  3  0  0  0  0  0  0  0  0  0  0
    0.2917    4.8188    7.6622 N   0  3  0  0  0  0  0  0  0  0  0  0
   -1.7338    2.2173    3.7058 O   0  0  0  0  0  0  0  0  0  0  0  0
   -0.2756    1.7195    7.8651 O   0  0  0  0  0  0  0  0  0  0  0  0
   -0.5385    3.8017    4.8427 O   0  0  0  0  0  0  0  0  0  0  0  0
  1  2  1  0  0  0  0
  1 10  1  0  0  0  0
  1 21  1  1  0  0  0
  2  3  1  0  0  0  0
  2  7  1  1  0  0  0
  3  4  1  0  0  0  0
  3  8  1  1  0  0  0
  4  5  1  0  0  0  0
  4  9  1  1  0  0  0
  5  6  1  6  0  0  0
  5 10  1  0  0  0  0
  6 11  1  0  0  0  0
 12 13  1  0  0  0  0
 12 17  1  0  0  0  0
 12 18  1  6  0  0  0
 13 14  1  0  0  0  0
 14 15  1  0  0  0  0
 14 19  1  6  0  0  0
 15 16  1  0  0  0  0
 15 30  1  1  0  0  0
 16 17  1  0  0  0  0
 16 20  1  1  0  0  0
 17 21  1  1  0  0  0
 22 23  1  0  0  0  0
 22 30  1  1  0  0  0
 22 32  1  0  0  0  0
 23 24  1  0  0  0  0
 23 28  1  6  0  0  0
 24 25  1  0  0  0  0
 25 26  1  0  0  0  0
 25 31  1  1  0  0  0
 26 27  1  1  0  0  0
 26 32  1  0  0  0  0
 27 29  1  0  0  0  0
M  CHG  5   8   1  18   1  19   1  28   1  29   1
M  END
>  <CHROM.1>
-105.34374223,76.87916951,-153.70463512,-50.29054231,6.79302329,52.69947166
76.09587213,-144.01255842,42.84833681,-44.23732521,-40.28497570,-151.93103507
-54.79252945,-49.04429870,36.19407036,54.25547199,-2.76888740,5.08374190
4.08426621,2.90652432,-0.88999407,1.13482245

>  <Name>
1tob

>  <RI>
0

>  <Rbt.Current_Directory>
/home/itssahil/PROJECTS/Mol_Feturizer/New_Systems/rnas/1tob

>  <Rbt.Executable>
rbdock ($Id: //depot/dev/client3/rdock/2013.1/src/exe/rbdock.cxx#4 $)

>  <Rbt.Library>
libRbt.so (2013.1, Build901 2013/11/27)

>  <Rbt.Parameter_File>
/export/apps/rDock/src/rDock_2013.1_src/data/scripts/dock_solv.prm

>  <Rbt.Receptor>
prm/blind_docking_40.prm

>  <SCORE>
8.88973

>  <SCORE.INTER>
-11.1081

>  <SCORE.INTER.CONST>
1

>  <SCORE.INTER.POLAR>
-4.95467

>  <SCORE.INTER.ROT>
6

>  <SCORE.INTER.SOLV>
47.1601

>  <SCORE.INTER.VDW>
-14.2099

>  <SCORE.INTER.norm>
-0.347129

>  <SCORE.INTRA>
10.5695

>  <SCORE.INTRA.DIHEDRAL>
4.93233

>  <SCORE.INTRA.DIHEDRAL.0>
22.9177

>  <SCORE.INTRA.POLAR>
0.293278

>  <SCORE.INTRA.POLAR.0>
-0.311208

>  <SCORE.INTRA.REPUL>
0

>  <SCORE.INTRA.REPUL.0>
0

>  <SCORE.INTRA.SOLV>
3.157

>  <SCORE.INTRA.SOLV.lig_0>
-132.657

>  <SCORE.INTRA.VDW>
5.52772

>  <SCORE.INTRA.VDW.0>
-4.68867

>  <SCORE.INTRA.norm>
0.330298

>  <SCORE.RESTR>
9.42832

>  <SCORE.RESTR.CAVITY>
9.42832

>  <SCORE.RESTR.norm>
0.294635

>  <SCORE.SYSTEM>
0

>  <SCORE.SYSTEM.CONST>
0

>  <SCORE.SYSTEM.DIHEDRAL>
0

>  <SCORE.SYSTEM.SOLV>
0

>  <SCORE.SYSTEM.norm>
0

>  <SCORE.heavy>
32

>  <SCORE.norm>
0.277804

>  <RMSD>
8.287

$$$$
1tob
 OpenBabel11021811413D
libRbt.so/2013.1/901 2013/11/27
 32 34  0  0  0  0  0  0  0  0999 V2000
   -3.7556    6.8064    4.0283 C   0  0  2  0  0  0  0  0  0  0  0  0
   -4.4905    7.7622    4.9650 C   0  0  1  0  0  0  0  0  0  0  0  0
   -5.4490    8.6311    4.1621 C   0  0  2  0  0  0  0  0  0  0  0  0
   -4.6784    9.3513    3.0622 C   0  0  1  0  0  0  0  0  0  0  0  0
   -3.9391    8.3350    2.1963 C   0  0  1  0  0  0  0  0  0  0  0  0
   -3.0900    8.9959    1.1283 C   0  0  0  0  0  0  0  0  0  0  0  0
   -5.2154    7.0198    5.9351 O   0  0  0  0  0  0  0  0  0  0  0  0
   -6.1742    9.5762    5.0385 N   0  3  0  0  0  0  0  0  0  0  0  0
   -5.5763   10.1114    2.2646 O   0  0  0  0  0  0  0  0  0  0  0  0
   -3.0553    7.5381    3.0142 O   0  0  0  0  0  0  0  0  0  0  0  0
   -2.4461    8.0319    0.3071 O   0  0  0  0  0  0  0  0  0  0  0  0
   -3.9377    4.7673    1.4299 C   0  0  2  0  0  0  0  0  0  0  0  0
   -3.3415    3.4542    0.9415 C   0  0  0  0  0  0  0  0  0  0  0  0
   -1.9840    3.2062    1.5996 C   0  0  1  0  0  0  0  0  0  0  0  0
   -2.1502    3.1502    3.1166 C   0  0  2  0  0  0  0  0  0  0  0  0
   -2.7561    4.4593    3.6247 C   0  0  1  0  0  0  0  0  0  0  0  0
   -4.0987    4.7169    2.9415 C   0  0  1  0  0  0  0  0  0  0  0  0
   -5.2665    4.9966    0.8214 N   0  3  0  0  0  0  0  0  0  0  0  0
   -1.3756    1.9663    1.0514 N   0  3  0  0  0  0  0  0  0  0  0  0
   -2.9352    4.3927    5.0331 O   0  0  0  0  0  0  0  0  0  0  0  0
   -4.6557    5.9578    3.4114 O   0  0  0  0  0  0  0  0  0  0  0  0
   -0.0019    4.0009    3.7683 C   0  0  1  0  0  0  0  0  0  0  0  0
    1.4472    3.5108    3.7701 C   0  0  1  0  0  0  0  0  0  0  0  0
    1.7328    2.7139    5.0341 C   0  0  0  0  0  0  0  0  0  0  0  0
    1.3922    3.5620    6.2486 C   0  0  1  0  0  0  0  0  0  0  0  0
   -0.0604    4.0288    6.1611 C   0  0  1  0  0  0  0  0  0  0  0  0
   -0.4550    4.9322    7.3154 C   0  0  0  0  0  0  0  0  0  0  0  0
    1.7500    2.7351    2.5442 N   0  3  0  0  0  0  0  0  0  0  0  0
   -0.1973    4.2851    8.6241 N   0  3  0  0  0  0  0  0  0  0  0  0
   -0.8744    2.9209    3.7493 O   0  0  0  0  0  0  0  0  0  0  0  0
    1.5884    2.8090    7.4366 O   0  0  0  0  0  0  0  0  0  0  0  0
   -0.2702    4.7759    4.9433 O   0  0  0  0  0  0  0  0  0  0  0  0
  1  2  1  0  0  0  0
  1 10  1  0  0  0  0
  1 21  1  6  0  0  0
  2  3  1  0  0  0  0
  2  7  1  1  0  0  0
  3  4  1  0  0  0  0
  3  8  1  1  0  0  0
  4  5  1  0  0  0  0
  4  9  1  6  0  0  0
  5  6  1  6  0  0  0
  5 10  1  0  0  0  0
  6 11  1  0  0  0  0
 12 13  1  0  0  0  0
 12 17  1  0  0  0  0
 12 18  1  6  0  0  0
 13 14  1  0  0  0  0
 14 15  1  0  0  0  0
 14 19  1  6  0  0  0
 15 16  1  0  0  0  0
 15 30  1  1  0  0  0
 16 17  1  0  0  0  0
 16 20  1  1  0  0  0
 17 21  1  1  0  0  0
 22 23  1  0  0  0  0
 22 30  1  1  0  0  0
 22 32  1  0  0  0  0
 23 24  1  0  0  0  0
 23 28  1  6  0  0  0
 24 25  1  0  0  0  0
 25 26  1  0  0  0  0
 25 31  1  1  0  0  0
 26 27  1  1  0  0  0
 26 32  1  0  0  0  0
 27 29  1  0  0  0  0
M  CHG  5   8   1  18   1  19   1  28   1  29   1
M  END
>  <CHROM.1>
-156.60217277,-73.82621629,-169.67058026,69.87570622,-178.08156231,66.83922747
-179.64936887,-105.89355816,73.85028488,-177.53660530,-104.36737913,-151.00974273
-176.49842267,-47.37009211,-55.18371679,156.21755373,-2.34098363,5.42699893
3.75280761,3.11168126,0.79508645,-1.94776793

>  <Name>
1tob

>  <RI>
0

>  <Rbt.Current_Directory>
/home/itssahil/PROJECTS/Mol_Feturizer/New_Systems/rnas/1tob

>  <Rbt.Executable>
rbdock ($Id: //depot/dev/client3/rdock/2013.1/src/exe/rbdock.cxx#4 $)

>  <Rbt.Library>
libRbt.so (2013.1, Build901 2013/11/27)

>  <Rbt.Parameter_File>
/export/apps/rDock/src/rDock_2013.1_src/data/scripts/dock_solv.prm

>  <Rbt.Receptor>
prm/blind_docking_40.prm

>  <SCORE>
-21.3168

>  <SCORE.INTER>
-39.2958

>  <SCORE.INTER.CONST>
1

>  <SCORE.INTER.POLAR>
-6.2962

>  <SCORE.INTER.ROT>
6

>  <SCORE.INTER.SOLV>
33.8593

>  <SCORE.INTER.VDW>
-24.0963

>  <SCORE.INTER.norm>
-1.22799

>  <SCORE.INTRA>
7.33925

>  <SCORE.INTRA.DIHEDRAL>
-2.98728

>  <SCORE.INTRA.DIHEDRAL.0>
22.9177

>  <SCORE.INTRA.POLAR>
-0.521353

>  <SCORE.INTRA.POLAR.0>
-0.311208

>  <SCORE.INTRA.REPUL>
0.00632337

>  <SCORE.INTRA.REPUL.0>
0

>  <SCORE.INTRA.SOLV>
0.224146

>  <SCORE.INTRA.SOLV.lig_0>
-132.657

>  <SCORE.INTRA.VDW>
10.4618

>  <SCORE.INTRA.VDW.0>
-4.68867

>  <SCORE.INTRA.norm>
0.229352

>  <SCORE.RESTR>
10.6397

>  <SCORE.RESTR.CAVITY>
10.6397

>  <SCORE.RESTR.norm>
0.332492

>  <SCORE.SYSTEM>
0

>  <SCORE.SYSTEM.CONST>
0

>  <SCORE.SYSTEM.DIHEDRAL>
0

>  <SCORE.SYSTEM.SOLV>
0

>  <SCORE.SYSTEM.norm>
0

>  <SCORE.heavy>
32

>  <SCORE.norm>
-0.666151

>  <RMSD>
8.290

$$$$
1tob
 OpenBabel11021811413D
libRbt.so/2013.1/901 2013/11/27
 32 34  0  0  0  0  0  0  0  0999 V2000
   -5.5562    4.6702    1.5781 C   0  0  2  0  0  0  0  0  0  0  0  0
   -5.5941    3.7270    0.3780 C   0  0  1  0  0  0  0  0  0  0  0  0
   -6.1795    4.4524   -0.8259 C   0  0  2  0  0  0  0  0  0  0  0  0
   -7.5510    5.0093   -0.4633 C   0  0  1  0  0  0  0  0  0  0  0  0
   -7.4378    5.9059    0.7665 C   0  0  1  0  0  0  0  0  0  0  0  0
   -8.7846    6.4304    1.2243 C   0  0  0  0  0  0  0  0  0  0  0  0
   -4.2794    3.2821    0.0763 O   0  0  0  0  0  0  0  0  0  0  0  0
   -6.2383    3.5646   -2.0073 N   0  3  0  0  0  0  0  0  0  0  0  0
   -8.0754    5.7470   -1.5591 O   0  0  0  0  0  0  0  0  0  0  0  0
   -6.8695    5.1653    1.8682 O   0  0  0  0  0  0  0  0  0  0  0  0
   -9.0981    5.9817    2.5351 O   0  0  0  0  0  0  0  0  0  0  0  0
   -4.8913    6.6268    3.5610 C   0  0  2  0  0  0  0  0  0  0  0  0
   -4.0662    7.1131    4.7446 C   0  0  0  0  0  0  0  0  0  0  0  0
   -3.1220    6.0114    5.2265 C   0  0  1  0  0  0  0  0  0  0  0  0
   -2.1841    5.6049    4.0921 C   0  0  2  0  0  0  0  0  0  0  0  0
   -2.9966    5.1206    2.8902 C   0  0  1  0  0  0  0  0  0  0  0  0
   -3.9596    6.2152    2.4315 C   0  0  1  0  0  0  0  0  0  0  0  0
   -5.7834    7.6996    3.0694 N   0  3  0  0  0  0  0  0  0  0  0  0
   -2.3850    6.4694    6.4328 N   0  3  0  0  0  0  0  0  0  0  0  0
   -2.1214    4.7698    1.8268 O   0  0  0  0  0  0  0  0  0  0  0  0
   -4.7325    5.7477    1.3113 O   0  0  0  0  0  0  0  0  0  0  0  0
   -1.8725    3.5275    5.2544 C   0  0  1  0  0  0  0  0  0  0  0  0
   -0.8799    2.9707    6.2765 C   0  0  1  0  0  0  0  0  0  0  0  0
    0.3241    2.3682    5.5682 C   0  0  0  0  0  0  0  0  0  0  0  0
   -0.1517    1.3224    4.5731 C   0  0  1  0  0  0  0  0  0  0  0  0
   -1.1532    1.9499    3.6041 C   0  0  1  0  0  0  0  0  0  0  0  0
   -1.7171    0.9464    2.6146 C   0  0  0  0  0  0  0  0  0  0  0  0
   -0.4849    4.0089    7.2576 N   0  3  0  0  0  0  0  0  0  0  0  0
   -1.1015   -0.3912    2.7871 N   0  3  0  0  0  0  0  0  0  0  0  0
   -1.2909    4.5621    4.5338 O   0  0  0  0  0  0  0  0  0  0  0  0
    0.9550    0.7980    3.8539 O   0  0  0  0  0  0  0  0  0  0  0  0
   -2.2696    2.5046    4.3329 O   0  0  0  0  0  0  0  0  0  0  0  0
  1  2  1  0  0  0  0
  1 10  1  0  0  0  0
  1 21  1  6  0  0  0
  2  3  1  0  0  0  0
  2  7  1  6  0  0  0
  3  4  1  0  0  0  0
  3  8  1  6  0  0  0
  4  5  1  0  0  0  0
  4  9  1  6  0  0  0
  5  6  1  1  0  0  0
  5 10  1  0  0  0  0
  6 11  1  0  0  0  0
 12 13  1  0  0  0  0
 12 17  1  0  0  0  0
 12 18  1  6  0  0  0
 13 14  1  0  0  0  0
 14 15  1  0  0  0  0
 14 19  1  1  0  0  0
 15 16  1  0  0  0  0
 15 30  1  1  0  0  0
 16 17  1  0  0  0  0
 16 20  1  6  0  0  0
 17 21  1  6  0  0  0
 22 23  1  0  0  0  0
 22 30  1  6  0  0  0
 22 32  1  0  0  0  0
 23 24  1  0  0  0  0
 23 28  1  1  0  0  0
 24 25  1  0  0  0  0
 25 26  1  0  0  0  0
 25 31  1  6  0  0  0
 26 27  1  6  0  0  0
 26 32  1  0  0  0  0
 27 29  1  0  0  0  0
M  CHG  5   8   1  18   1  19   1  28   1  29   1
M  END
>  <CHROM.1>
-143.08635873,-40.50151555,-68.50541681,64.74123740,117.88540663,68.90512722
-169.28124364,146.11565485,45.06558017,65.87665048,-58.95027971,-148.36209588
-157.65417343,-49.08524016,-2.95237445,-44.38711289,-3.79484712,4.35986278
2.78661253,-2.98432069,-0.67330717,0.81848304

>  <Name>
1tob

>  <RI>
0

>  <Rbt.Current_Directory>
/home/itssahil/PROJECTS/Mol_Feturizer/New_Systems/rnas/1tob

>  <Rbt.Executable>
rbdock ($Id: //depot/dev/client3/rdock/2013.1/src/exe/rbdock.cxx#4 $)

>  <Rbt.Library>
libRbt.so (2013.1, Build901 2013/11/27)

>  <Rbt.Parameter_File>
/export/apps/rDock/src/rDock_2013.1_src/data/scripts/dock_solv.prm

>  <Rbt.Receptor>
prm/blind_docking_80.prm

>  <SCORE>
-17.8502

>  <SCORE.INTER>
-29.7521

>  <SCORE.INTER.CONST>
1

>  <SCORE.INTER.POLAR>
-5.77458

>  <SCORE.INTER.ROT>
6

>  <SCORE.INTER.SOLV>
45.2088

>  <SCORE.INTER.VDW>
-23.2557

>  <SCORE.INTER.norm>
-0.929753

>  <SCORE.INTRA>
7.28114

>  <SCORE.INTRA.DIHEDRAL>
4.76299

>  <SCORE.INTRA.DIHEDRAL.0>
22.9177

>  <SCORE.INTRA.POLAR>
-1.00486

>  <SCORE.INTRA.POLAR.0>
-0.311208

>  <SCORE.INTRA.REPUL>
0

>  <SCORE.INTRA.REPUL.0>
0

>  <SCORE.INTRA.SOLV>
5.69852

>  <SCORE.INTRA.SOLV.lig_0>
-132.657

>  <SCORE.INTRA.VDW>
5.46692

>  <SCORE.INTRA.VDW.0>
-4.68867

>  <SCORE.INTRA.norm>
0.227536

>  <SCORE.RESTR>
4.62078

>  <SCORE.RESTR.CAVITY>
4.62078

>  <SCORE.RESTR.norm>
0.144399

>  <SCORE.SYSTEM>
0

>  <SCORE.SYSTEM.CONST>
0

>  <SCORE.SYSTEM.DIHEDRAL>
0

>  <SCORE.SYSTEM.SOLV>
0

>  <SCORE.SYSTEM.norm>
0

>  <SCORE.heavy>
32

>  <SCORE.norm>
-0.557818

>  <RMSD>
8.295

$$$$
1tob
 OpenBabel11021811413D
libRbt.so/2013.1/901 2013/11/27
 32 34  0  0  0  0  0  0  0  0999 V2000
   -3.5516    6.6046    4.1268 C   0  0  2  0  0  0  0  0  0  0  0  0
   -4.1295    7.9762    4.4673 C   0  0  1  0  0  0  0  0  0  0  0  0
   -4.8466    8.5467    3.2513 C   0  0  2  0  0  0  0  0  0  0  0  0
   -3.8863    8.5827    2.0684 C   0  0  1  0  0  0  0  0  0  0  0  0
   -3.3204    7.1877    1.8175 C   0  0  1  0  0  0  0  0  0  0  0  0
   -2.2971    7.1725    0.6989 C   0  0  0  0  0  0  0  0  0  0  0  0
   -5.0423    7.8568    5.5490 O   0  0  0  0  0  0  0  0  0  0  0  0
   -5.4136    9.8811    3.5433 N   0  3  0  0  0  0  0  0  0  0  0  0
   -4.5663    9.0495    0.9110 O   0  0  0  0  0  0  0  0  0  0  0  0
   -2.6627    6.6993    3.0066 O   0  0  0  0  0  0  0  0  0  0  0  0
   -2.0305    5.8489    0.2574 O   0  0  0  0  0  0  0  0  0  0  0  0
   -4.2718    4.1729    1.9712 C   0  0  2  0  0  0  0  0  0  0  0  0
   -3.8088    2.7642    1.6253 C   0  0  0  0  0  0  0  0  0  0  0  0
   -2.3555    2.5592    2.0533 C   0  0  1  0  0  0  0  0  0  0  0  0
   -2.2272    2.7756    3.5595 C   0  0  2  0  0  0  0  0  0  0  0  0
   -2.6959    4.1844    3.9269 C   0  0  1  0  0  0  0  0  0  0  0  0
   -4.1393    4.3937    3.4702 C   0  0  1  0  0  0  0  0  0  0  0  0
   -5.6878    4.3665    1.5892 N   0  3  0  0  0  0  0  0  0  0  0  0
   -1.8906    1.2114    1.6342 N   0  3  0  0  0  0  0  0  0  0  0  0
   -2.6014    4.3723    5.3325 O   0  0  0  0  0  0  0  0  0  0  0  0
   -4.5688    5.7260    3.8039 O   0  0  0  0  0  0  0  0  0  0  0  0
   -0.0629    3.7271    3.9768 C   0  0  1  0  0  0  0  0  0  0  0  0
    1.3654    3.3753    3.5569 C   0  0  1  0  0  0  0  0  0  0  0  0
    1.9906    2.4202    4.5624 C   0  0  0  0  0  0  0  0  0  0  0  0
    1.9150    3.0345    5.9507 C   0  0  1  0  0  0  0  0  0  0  0  0
    0.4636    3.3764    6.2854 C   0  0  1  0  0  0  0  0  0  0  0  0
    0.3183    4.0496    7.6382 C   0  0  0  0  0  0  0  0  0  0  0  0
    1.3979    2.8306    2.1790 N   0  3  0  0  0  0  0  0  0  0  0  0
   -0.9534    4.8054    7.7349 N   0  3  0  0  0  0  0  0  0  0  0  0
   -0.8585    2.5891    3.9747 O   0  0  0  0  0  0  0  0  0  0  0  0
    2.4328    2.1263    6.9119 O   0  0  0  0  0  0  0  0  0  0  0  0
   -0.0745    4.2822    5.2978 O   0  0  0  0  0  0  0  0  0  0  0  0
  1  2  1  0  0  0  0
  1 10  1  0  0  0  0
  1 21  1  6  0  0  0
  2  3  1  0  0  0  0
  2  7  1  1  0  0  0
  3  4  1  0  0  0  0
  3  8  1  1  0  0  0
  4  5  1  0  0  0  0
  4  9  1  6  0  0  0
  5  6  1  6  0  0  0
  5 10  1  0  0  0  0
  6 11  1  0  0  0  0
 12 13  1  0  0  0  0
 12 17  1  0  0  0  0
 12 18  1  1  0  0  0
 13 14  1  0  0  0  0
 14 15  1  0  0  0  0
 14 19  1  1  0  0  0
 15 16  1  0  0  0  0
 15 30  1  6  0  0  0
 16 17  1  0  0  0  0
 16 20  1  1  0  0  0
 17 21  1  6  0  0  0
 22 23  1  0  0  0  0
 22 30  1  1  0  0  0
 22 32  1  0  0  0  0
 23 24  1  0  0  0  0
 23 28  1  6  0  0  0
 24 25  1  0  0  0  0
 25 26  1  0  0  0  0
 25 31  1  1  0  0  0
 26 27  1  1  0  0  0
 26 32  1  0  0  0  0
 27 29  1  0  0  0  0
M  CHG  5   8   1  18   1  19   1  28   1  29   1
M  END
>  <CHROM.1>
-179.70481176,49.80815762,170.44479732,-53.76701463,-165.47806275,68.77203171
-103.67623894,60.64456389,90.98290164,153.71466099,-106.62223533,-144.32118345
36.17250717,-54.40262038,159.04972872,126.02926451,-2.14861488,4.96543538
3.64803564,-3.06526072,0.79752530,-2.17208823

>  <Name>
1tob

>  <RI>
0

>  <Rbt.Current_Directory>
/home/itssahil/PROJECTS/Mol_Feturizer/New_Systems/rnas/1tob

>  <Rbt.Executable>
rbdock ($Id: //depot/dev/client3/rdock/2013.1/src/exe/rbdock.cxx#4 $)

>  <Rbt.Library>
libRbt.so (2013.1, Build901 2013/11/27)

>  <Rbt.Parameter_File>
/export/apps/rDock/src/rDock_2013.1_src/data/scripts/dock_solv.prm

>  <Rbt.Receptor>
prm/blind_docking_20.prm

>  <SCORE>
-31.7199

>  <SCORE.INTER>
-53.2293

>  <SCORE.INTER.CONST>
1

>  <SCORE.INTER.POLAR>
-8.65875

>  <SCORE.INTER.ROT>
6

>  <SCORE.INTER.SOLV>
36.7333

>  <SCORE.INTER.VDW>
-26.4681

>  <SCORE.INTER.norm>
-1.66342

>  <SCORE.INTRA>
10.1118

>  <SCORE.INTRA.DIHEDRAL>
6.10121

>  <SCORE.INTRA.DIHEDRAL.0>
22.9177

>  <SCORE.INTRA.POLAR>
-1.07337

>  <SCORE.INTRA.POLAR.0>
-0.311208

>  <SCORE.INTRA.REPUL>
0.0391422

>  <SCORE.INTRA.REPUL.0>
0

>  <SCORE.INTRA.SOLV>
-0.374191

>  <SCORE.INTRA.SOLV.lig_0>
-132.657

>  <SCORE.INTRA.VDW>
10.702

>  <SCORE.INTRA.VDW.0>
-4.68867

>  <SCORE.INTRA.norm>
0.315994

>  <SCORE.RESTR>
11.3976

>  <SCORE.RESTR.CAVITY>
11.3976

>  <SCORE.RESTR.norm>
0.356176

>  <SCORE.SYSTEM>
0

>  <SCORE.SYSTEM.CONST>
0

>  <SCORE.SYSTEM.DIHEDRAL>
0

>  <SCORE.SYSTEM.SOLV>
0

>  <SCORE.SYSTEM.norm>
0

>  <SCORE.heavy>
32

>  <SCORE.norm>
-0.991246

>  <RMSD>
8.305

$$$$
1tob
 OpenBabel11021811413D
libRbt.so/2013.1/901 2013/11/27
 32 34  0  0  0  0  0  0  0  0999 V2000
   -8.7007    7.8974    2.8102 C   0  0  2  0  0  0  0  0  0  0  0  0
   -9.8330    8.7491    2.2414 C   0  0  1  0  0  0  0  0  0  0  0  0
   -9.3347   10.1668    1.9959 C   0  0  2  0  0  0  0  0  0  0  0  0
   -8.7574   10.7311    3.2885 C   0  0  1  0  0  0  0  0  0  0  0  0
   -7.6641    9.8056    3.8154 C   0  0  1  0  0  0  0  0  0  0  0  0
   -7.1021   10.2739    5.1434 C   0  0  0  0  0  0  0  0  0  0  0  0
  -10.2911    8.1846    1.0211 O   0  0  0  0  0  0  0  0  0  0  0  0
  -10.4098   11.0236    1.4506 N   0  3  0  0  0  0  0  0  0  0  0  0
   -8.2273   12.0285    3.0523 O   0  0  0  0  0  0  0  0  0  0  0  0
   -8.1951    8.4783    4.0189 O   0  0  0  0  0  0  0  0  0  0  0  0
   -6.4051   11.5041    5.0071 O   0  0  0  0  0  0  0  0  0  0  0  0
   -7.0731    6.1155    0.2784 C   0  0  2  0  0  0  0  0  0  0  0  0
   -6.4584    4.7308    0.1273 C   0  0  0  0  0  0  0  0  0  0  0  0
   -5.0349    4.7142    0.6849 C   0  0  1  0  0  0  0  0  0  0  0  0
   -5.0569    5.0966    2.1631 C   0  0  2  0  0  0  0  0  0  0  0  0
   -5.6791    6.4832    2.3351 C   0  0  1  0  0  0  0  0  0  0  0  0
   -7.0906    6.5020    1.7494 C   0  0  1  0  0  0  0  0  0  0  0  0
   -8.4624    6.1293   -0.2294 N   0  3  0  0  0  0  0  0  0  0  0  0
   -4.4175    3.3823    0.4546 N   0  3  0  0  0  0  0  0  0  0  0  0
   -5.7233    6.8237    3.7143 O   0  0  0  0  0  0  0  0  0  0  0  0
   -7.6642    7.8132    1.8994 O   0  0  0  0  0  0  0  0  0  0  0  0
   -3.5734    4.5401    3.9668 C   0  0  1  0  0  0  0  0  0  0  0  0
   -2.3194    5.0954    4.6443 C   0  0  1  0  0  0  0  0  0  0  0  0
   -1.0766    4.6929    3.8647 C   0  0  0  0  0  0  0  0  0  0  0  0
   -1.0483    3.1807    3.7132 C   0  0  1  0  0  0  0  0  0  0  0  0
   -2.3405    2.7042    3.0507 C   0  0  1  0  0  0  0  0  0  0  0  0
   -2.4080    1.1934    2.9197 C   0  0  0  0  0  0  0  0  0  0  0  0
   -2.4133    6.5640    4.8199 N   0  3  0  0  0  0  0  0  0  0  0  0
   -1.6332    0.7145    1.7501 N   0  3  0  0  0  0  0  0  0  0  0  0
   -3.7180    5.0888    2.6995 O   0  0  0  0  0  0  0  0  0  0  0  0
    0.0701    2.7925    2.9287 O   0  0  0  0  0  0  0  0  0  0  0  0
   -3.4820    3.1164    3.8333 O   0  0  0  0  0  0  0  0  0  0  0  0
  1  2  1  0  0  0  0
  1 10  1  0  0  0  0
  1 21  1  6  0  0  0
  2  3  1  0  0  0  0
  2  7  1  6  0  0  0
  3  4  1  0  0  0  0
  3  8  1  1  0  0  0
  4  5  1  0  0  0  0
  4  9  1  6  0  0  0
  5  6  1  1  0  0  0
  5 10  1  0  0  0  0
  6 11  1  0  0  0  0
 12 13  1  0  0  0  0
 12 17  1  0  0  0  0
 12 18  1  1  0  0  0
 13 14  1  0  0  0  0
 14 15  1  0  0  0  0
 14 19  1  1  0  0  0
 15 16  1  0  0  0  0
 15 30  1  6  0  0  0
 16 17  1  0  0  0  0
 16 20  1  1  0  0  0
 17 21  1  6  0  0  0
 22 23  1  0  0  0  0
 22 30  1  6  0  0  0
 22 32  1  0  0  0  0
 23 24  1  0  0  0  0
 23 28  1  6  0  0  0
 24 25  1  0  0  0  0
 25 26  1  0  0  0  0
 25 31  1  6  0  0  0
 26 27  1  1  0  0  0
 26 32  1  0  0  0  0
 27 29  1  0  0  0  0
M  CHG  5   8   1  18   1  19   1  28   1  29   1
M  END
>  <CHROM.1>
-136.72092695,-93.89495079,-174.24791209,-56.93043180,-66.31213838,-77.45510162
175.10397889,-161.23375919,-138.49108289,-51.38776658,127.44793714,-156.27463100
49.74943042,-51.59268484,-80.59737463,44.94350513,-5.67090919,6.46887630
2.64604133,2.54605159,-0.56751218,0.63196825

>  <Name>
1tob

>  <RI>
0

>  <Rbt.Current_Directory>
/home/itssahil/PROJECTS/Mol_Feturizer/New_Systems/rnas/1tob

>  <Rbt.Executable>
rbdock ($Id: //depot/dev/client3/rdock/2013.1/src/exe/rbdock.cxx#4 $)

>  <Rbt.Library>
libRbt.so (2013.1, Build901 2013/11/27)

>  <Rbt.Parameter_File>
/export/apps/rDock/src/rDock_2013.1_src/data/scripts/dock_solv.prm

>  <Rbt.Receptor>
prm/pocket_docking_3.prm

>  <SCORE>
-35.7803

>  <SCORE.INTER>
-38.7038

>  <SCORE.INTER.CONST>
1

>  <SCORE.INTER.POLAR>
-5.8861

>  <SCORE.INTER.ROT>
6

>  <SCORE.INTER.SOLV>
31.8215

>  <SCORE.INTER.VDW>
-24.3894

>  <SCORE.INTER.norm>
-1.20949

>  <SCORE.INTRA>
2.92355

>  <SCORE.INTRA.DIHEDRAL>
7.75169

>  <SCORE.INTRA.DIHEDRAL.0>
22.9177

>  <SCORE.INTRA.POLAR>
-0.40585

>  <SCORE.INTRA.POLAR.0>
-0.311208

>  <SCORE.INTRA.REPUL>
0

>  <SCORE.INTRA.REPUL.0>
0

>  <SCORE.INTRA.SOLV>
1.1914

>  <SCORE.INTRA.SOLV.lig_0>
-132.657

>  <SCORE.INTRA.VDW>
-0.168102

>  <SCORE.INTRA.VDW.0>
-4.68867

>  <SCORE.INTRA.norm>
0.0913609

>  <SCORE.RESTR>
0

>  <SCORE.RESTR.CAVITY>
0

>  <SCORE.RESTR.norm>
0

>  <SCORE.SYSTEM>
0

>  <SCORE.SYSTEM.CONST>
0

>  <SCORE.SYSTEM.DIHEDRAL>
0

>  <SCORE.SYSTEM.SOLV>
0

>  <SCORE.SYSTEM.norm>
0

>  <SCORE.heavy>
32

>  <SCORE.norm>
-1.11813

>  <RMSD>
8.309

$$$$
1tob
 OpenBabel11021811413D
libRbt.so/2013.1/901 2013/11/27
 32 34  0  0  0  0  0  0  0  0999 V2000
   -5.0078    7.7878    4.2812 C   0  0  2  0  0  0  0  0  0  0  0  0
   -5.4732    8.9701    5.1279 C   0  0  1  0  0  0  0  0  0  0  0  0
   -6.5515    9.7429    4.3806 C   0  0  2  0  0  0  0  0  0  0  0  0
   -6.0194   10.1618    3.0154 C   0  0  1  0  0  0  0  0  0  0  0  0
   -5.5364    8.9341    2.2482 C   0  0  1  0  0  0  0  0  0  0  0  0
   -4.9232    9.2945    0.9093 C   0  0  0  0  0  0  0  0  0  0  0  0
   -5.9909    8.4999    6.3642 O   0  0  0  0  0  0  0  0  0  0  0  0
   -7.0214   10.9021    5.1699 N   0  3  0  0  0  0  0  0  0  0  0  0
   -7.0419   10.8242    2.2834 O   0  0  0  0  0  0  0  0  0  0  0  0
   -4.5245    8.2409    3.0103 O   0  0  0  0  0  0  0  0  0  0  0  0
   -4.0472    8.2754    0.4486 O   0  0  0  0  0  0  0  0  0  0  0  0
   -5.9940    5.9838    1.8300 C   0  0  2  0  0  0  0  0  0  0  0  0
   -5.6315    4.7365    1.0356 C   0  0  0  0  0  0  0  0  0  0  0  0
   -4.1586    4.3814    1.2411 C   0  0  1  0  0  0  0  0  0  0  0  0
   -3.8921    4.1294    2.7234 C   0  0  2  0  0  0  0  0  0  0  0  0
   -4.2586    5.3704    3.5388 C   0  0  1  0  0  0  0  0  0  0  0  0
   -5.7237    5.7379    3.3064 C   0  0  1  0  0  0  0  0  0  0  0  0
   -7.4263    6.3132    1.6612 N   0  3  0  0  0  0  0  0  0  0  0  0
   -3.7974    3.2144    0.3952 N   0  3  0  0  0  0  0  0  0  0  0  0
   -4.0355    5.1222    4.9204 O   0  0  0  0  0  0  0  0  0  0  0  0
   -6.0577    6.9155    4.0632 O   0  0  0  0  0  0  0  0  0  0  0  0
   -2.1824    3.2737    4.1754 C   0  0  1  0  0  0  0  0  0  0  0  0
   -1.0711    4.0990    4.8265 C   0  0  1  0  0  0  0  0  0  0  0  0
    0.1999    4.0217    3.9942 C   0  0  0  0  0  0  0  0  0  0  0  0
    0.5819    2.5637    3.7974 C   0  0  1  0  0  0  0  0  0  0  0  0
   -0.5845    1.8054    3.1649 C   0  0  1  0  0  0  0  0  0  0  0  0
   -0.2949    0.3255    2.9919 C   0  0  0  0  0  0  0  0  0  0  0  0
   -1.5056    5.4985    5.0483 N   0  3  0  0  0  0  0  0  0  0  0  0
   -1.5361   -0.4449    2.7393 N   0  3  0  0  0  0  0  0  0  0  0  0
   -2.5037    3.7977    2.9304 O   0  0  0  0  0  0  0  0  0  0  0  0
    1.7286    2.4707    2.9649 O   0  0  0  0  0  0  0  0  0  0  0  0
   -1.7595    1.9162    3.9971 O   0  0  0  0  0  0  0  0  0  0  0  0
  1  2  1  0  0  0  0
  1 10  1  0  0  0  0
  1 21  1  6  0  0  0
  2  3  1  0  0  0  0
  2  7  1  1  0  0  0
  3  4  1  0  0  0  0
  3  8  1  1  0  0  0
  4  5  1  0  0  0  0
  4  9  1  6  0  0  0
  5  6  1  6  0  0  0
  5 10  1  0  0  0  0
  6 11  1  0  0  0  0
 12 13  1  0  0  0  0
 12 17  1  0  0  0  0
 12 18  1  1  0  0  0
 13 14  1  0  0  0  0
 14 15  1  0  0  0  0
 14 19  1  6  0  0  0
 15 16  1  0  0  0  0
 15 30  1  6  0  0  0
 16 17  1  0  0  0  0
 16 20  1  1  0  0  0
 17 21  1  1  0  0  0
 22 23  1  0  0  0  0
 22 30  1  6  0  0  0
 22 32  1  0  0  0  0
 23 24  1  0  0  0  0
 23 28  1  6  0  0  0
 24 25  1  0  0  0  0
 25 26  1  0  0  0  0
 25 31  1  6  0  0  0
 26 27  1  1  0  0  0
 26 32  1  0  0  0  0
 27 29  1  0  0  0  0
M  CHG  5   8   1  18   1  19   1  28   1  29   1
M  END
>  <CHROM.1>
-178.21909807,-172.85339876,-125.00783802,58.80236936,157.66040375,62.42924235
-69.77453269,-50.81195728,-166.94817311,-161.18085785,-92.92641193,-125.07181626
43.87667406,-58.10311839,164.20185696,-39.86765807,-3.83226319,5.72800181
3.20525397,-2.54678578,0.75441432,-2.32618967

>  <Name>
1tob

>  <RI>
0

>  <Rbt.Current_Directory>
/home/itssahil/PROJECTS/Mol_Feturizer/New_Systems/rnas/1tob

>  <Rbt.Executable>
rbdock ($Id: //depot/dev/client3/rdock/2013.1/src/exe/rbdock.cxx#4 $)

>  <Rbt.Library>
libRbt.so (2013.1, Build901 2013/11/27)

>  <Rbt.Parameter_File>
/export/apps/rDock/src/rDock_2013.1_src/data/scripts/dock_solv.prm

>  <Rbt.Receptor>
prm/blind_docking_60.prm

>  <SCORE>
-29.3139

>  <SCORE.INTER>
-35.527

>  <SCORE.INTER.CONST>
1

>  <SCORE.INTER.POLAR>
-6.39887

>  <SCORE.INTER.ROT>
6

>  <SCORE.INTER.SOLV>
42.2647

>  <SCORE.INTER.VDW>
-24.0433

>  <SCORE.INTER.norm>
-1.11022

>  <SCORE.INTRA>
2.98361

>  <SCORE.INTRA.DIHEDRAL>
-1.03063

>  <SCORE.INTRA.DIHEDRAL.0>
22.9177

>  <SCORE.INTRA.POLAR>
-0.80112

>  <SCORE.INTRA.POLAR.0>
-0.311208

>  <SCORE.INTRA.REPUL>
0

>  <SCORE.INTRA.REPUL.0>
0

>  <SCORE.INTRA.SOLV>
-0.348032

>  <SCORE.INTRA.SOLV.lig_0>
-132.657

>  <SCORE.INTRA.VDW>
6.39675

>  <SCORE.INTRA.VDW.0>
-4.68867

>  <SCORE.INTRA.norm>
0.0932379

>  <SCORE.RESTR>
3.22949

>  <SCORE.RESTR.CAVITY>
3.22949

>  <SCORE.RESTR.norm>
0.100922

>  <SCORE.SYSTEM>
0

>  <SCORE.SYSTEM.CONST>
0

>  <SCORE.SYSTEM.DIHEDRAL>
0

>  <SCORE.SYSTEM.SOLV>
0

>  <SCORE.SYSTEM.norm>
0

>  <SCORE.heavy>
32

>  <SCORE.norm>
-0.916058

>  <RMSD>
8.311

$$$$
1tob
 OpenBabel11021811413D
libRbt.so/2013.1/901 2013/11/27
 32 34  0  0  0  0  0  0  0  0999 V2000
   -5.0311    6.7127    2.2328 C   0  0  2  0  0  0  0  0  0  0  0  0
   -5.3578    8.1602    1.8736 C   0  0  1  0  0  0  0  0  0  0  0  0
   -4.1389    9.0379    2.1226 C   0  0  2  0  0  0  0  0  0  0  0  0
   -3.6824    8.8719    3.5671 C   0  0  1  0  0  0  0  0  0  0  0  0
   -3.4165    7.3980    3.8606 C   0  0  1  0  0  0  0  0  0  0  0  0
   -3.0322    7.1579    5.3074 C   0  0  0  0  0  0  0  0  0  0  0  0
   -5.7353    8.2414    0.5067 O   0  0  0  0  0  0  0  0  0  0  0  0
   -4.4223   10.4513    1.7916 N   0  3  0  0  0  0  0  0  0  0  0  0
   -2.5040    9.6348    3.7897 O   0  0  0  0  0  0  0  0  0  0  0  0
   -4.6036    6.6191    3.5976 O   0  0  0  0  0  0  0  0  0  0  0  0
   -2.8984    5.7712    5.5855 O   0  0  0  0  0  0  0  0  0  0  0  0
   -4.0437    3.8212    1.3049 C   0  0  2  0  0  0  0  0  0  0  0  0
   -3.3457    2.5643    1.8061 C   0  0  0  0  0  0  0  0  0  0  0  0
   -1.8684    2.5805    1.4127 C   0  0  1  0  0  0  0  0  0  0  0  0
   -1.1889    3.8080    2.0154 C   0  0  2  0  0  0  0  0  0  0  0  0
   -1.8826    5.0813    1.5288 C   0  0  1  0  0  0  0  0  0  0  0  0
   -3.3651    5.0461    1.8987 C   0  0  1  0  0  0  0  0  0  0  0  0
   -5.4662    3.8267    1.7112 N   0  3  0  0  0  0  0  0  0  0  0  0
   -1.2196    1.3115    1.8332 N   0  3  0  0  0  0  0  0  0  0  0  0
   -1.2652    6.2200    2.1137 O   0  0  0  0  0  0  0  0  0  0  0  0
   -4.0153    6.2387    1.4238 O   0  0  0  0  0  0  0  0  0  0  0  0
    1.0795    4.3220    2.6106 C   0  0  1  0  0  0  0  0  0  0  0  0
    2.4124    3.5747    2.5411 C   0  0  1  0  0  0  0  0  0  0  0  0
    2.2080    2.1011    2.8593 C   0  0  0  0  0  0  0  0  0  0  0  0
    1.5249    1.9706    4.2108 C   0  0  1  0  0  0  0  0  0  0  0  0
    0.2164    2.7602    4.2061 C   0  0  1  0  0  0  0  0  0  0  0  0
   -0.4940    2.7231    5.5471 C   0  0  0  0  0  0  0  0  0  0  0  0
    3.0679    3.7733    1.2269 N   0  3  0  0  0  0  0  0  0  0  0  0
    0.0940    3.6946    6.5001 N   0  3  0  0  0  0  0  0  0  0  0  0
    0.2054    3.8366    1.6471 O   0  0  0  0  0  0  0  0  0  0  0  0
    1.2647    0.6033    4.4929 O   0  0  0  0  0  0  0  0  0  0  0  0
    0.4735    4.1472    3.8973 O   0  0  0  0  0  0  0  0  0  0  0  0
  1  2  1  0  0  0  0
  1 10  1  0  0  0  0
  1 21  1  6  0  0  0
  2  3  1  0  0  0  0
  2  7  1  6  0  0  0
  3  4  1  0  0  0  0
  3  8  1  1  0  0  0
  4  5  1  0  0  0  0
  4  9  1  6  0  0  0
  5  6  1  1  0  0  0
  5 10  1  0  0  0  0
  6 11  1  0  0  0  0
 12 13  1  0  0  0  0
 12 17  1  0  0  0  0
 12 18  1  1  0  0  0
 13 14  1  0  0  0  0
 14 15  1  0  0  0  0
 14 19  1  1  0  0  0
 15 16  1  0  0  0  0
 15 30  1  6  0  0  0
 16 17  1  0  0  0  0
 16 20  1  1  0  0  0
 17 21  1  6  0  0  0
 22 23  1  0  0  0  0
 22 30  1  6  0  0  0
 22 32  1  0  0  0  0
 23 24  1  0  0  0  0
 23 28  1  6  0  0  0
 24 25  1  0  0  0  0
 25 26  1  0  0  0  0
 25 31  1  6  0  0  0
 26 27  1  1  0  0  0
 26 32  1  0  0  0  0
 27 29  1  0  0  0  0
M  CHG  5   8   1  18   1  19   1  28   1  29   1
M  END
>  <CHROM.1>
163.20423210,175.66752046,56.09838798,-54.58375770,175.11303082,-38.16131562
-172.15393823,-50.56970006,-144.14603453,179.78758080,92.29467967,145.20601274
85.91039108,175.07865682,80.33322267,-80.69145454,-1.88867780,5.08454423
2.85598736,2.52578781,-0.55463484,0.46206122

>  <Name>
1tob

>  <RI>
0

>  <Rbt.Current_Directory>
/home/itssahil/PROJECTS/Mol_Feturizer/New_Systems/rnas/1tob

>  <Rbt.Executable>
rbdock ($Id: //depot/dev/client3/rdock/2013.1/src/exe/rbdock.cxx#4 $)

>  <Rbt.Library>
libRbt.so (2013.1, Build901 2013/11/27)

>  <Rbt.Parameter_File>
/export/apps/rDock/src/rDock_2013.1_src/data/scripts/dock_solv.prm

>  <Rbt.Receptor>
prm/blind_docking_60.prm

>  <SCORE>
-23.2108

>  <SCORE.INTER>
-28.8268

>  <SCORE.INTER.CONST>
1

>  <SCORE.INTER.POLAR>
-3.74013

>  <SCORE.INTER.ROT>
6

>  <SCORE.INTER.SOLV>
34.494

>  <SCORE.INTER.VDW>
-25.8488

>  <SCORE.INTER.norm>
-0.900837

>  <SCORE.INTRA>
1.3682

>  <SCORE.INTRA.DIHEDRAL>
-1.65393

>  <SCORE.INTRA.DIHEDRAL.0>
22.9177

>  <SCORE.INTRA.POLAR>
-0.0541028

>  <SCORE.INTRA.POLAR.0>
-0.311208

>  <SCORE.INTRA.REPUL>
0.00134813

>  <SCORE.INTRA.REPUL.0>
0

>  <SCORE.INTRA.SOLV>
0.659068

>  <SCORE.INTRA.SOLV.lig_0>
-132.657

>  <SCORE.INTRA.VDW>
2.04283

>  <SCORE.INTRA.VDW.0>
-4.68867

>  <SCORE.INTRA.norm>
0.0427561

>  <SCORE.RESTR>
4.24782

>  <SCORE.RESTR.CAVITY>
4.24782

>  <SCORE.RESTR.norm>
0.132744

>  <SCORE.SYSTEM>
0

>  <SCORE.SYSTEM.CONST>
0

>  <SCORE.SYSTEM.DIHEDRAL>
0

>  <SCORE.SYSTEM.SOLV>
0

>  <SCORE.SYSTEM.norm>
0

>  <SCORE.heavy>
32

>  <SCORE.norm>
-0.725337

>  <RMSD>
8.315

$$$$
1tob
 OpenBabel11021811413D
libRbt.so/2013.1/901 2013/11/27
 32 34  0  0  0  0  0  0  0  0999 V2000
   -8.3356    7.8354    3.0511 C   0  0  2  0  0  0  0  0  0  0  0  0
   -9.5337    8.5670    2.4506 C   0  0  1  0  0  0  0  0  0  0  0  0
   -9.1386    9.9945    2.0980 C   0  0  2  0  0  0  0  0  0  0  0  0
   -8.5794   10.6851    3.3361 C   0  0  1  0  0  0  0  0  0  0  0  0
   -7.4160    9.8747    3.9008 C   0  0  1  0  0  0  0  0  0  0  0  0
   -6.8648   10.4711    5.1810 C   0  0  0  0  0  0  0  0  0  0  0  0
   -9.9727    7.8892    1.2820 O   0  0  0  0  0  0  0  0  0  0  0  0
  -10.2796   10.7366    1.5193 N   0  3  0  0  0  0  0  0  0  0  0  0
   -8.1443   11.9958    3.0003 O   0  0  0  0  0  0  0  0  0  0  0  0
   -7.8505    8.5318    4.2060 O   0  0  0  0  0  0  0  0  0  0  0  0
   -5.9654    9.5790    5.8239 O   0  0  0  0  0  0  0  0  0  0  0  0
   -6.7948    6.1235    0.4171 C   0  0  2  0  0  0  0  0  0  0  0  0
   -6.2331    4.7264    0.1919 C   0  0  0  0  0  0  0  0  0  0  0  0
   -4.8075    4.6294    0.7360 C   0  0  1  0  0  0  0  0  0  0  0  0
   -4.8055    4.9378    2.2315 C   0  0  2  0  0  0  0  0  0  0  0  0
   -5.3746    6.3359    2.4777 C   0  0  1  0  0  0  0  0  0  0  0  0
   -6.7883    6.4361    1.9056 C   0  0  1  0  0  0  0  0  0  0  0  0
   -8.1860    6.2138   -0.0777 N   0  3  0  0  0  0  0  0  0  0  0  0
   -4.2416    3.2890    0.4343 N   0  3  0  0  0  0  0  0  0  0  0  0
   -5.3970    6.6083    3.8725 O   0  0  0  0  0  0  0  0  0  0  0  0
   -7.3117    7.7583    2.1257 O   0  0  0  0  0  0  0  0  0  0  0  0
   -3.3261    4.1974    3.9713 C   0  0  1  0  0  0  0  0  0  0  0  0
   -2.0668    4.6798    4.6933 C   0  0  1  0  0  0  0  0  0  0  0  0
   -0.8278    4.3326    3.8818 C   0  0  0  0  0  0  0  0  0  0  0  0
   -0.8150    2.8387    3.6016 C   0  0  1  0  0  0  0  0  0  0  0  0
   -2.1116    2.4339    2.9012 C   0  0  1  0  0  0  0  0  0  0  0  0
   -2.1945    0.9406    2.6416 C   0  0  0  0  0  0  0  0  0  0  0  0
   -2.1458    6.1289    4.9938 N   0  3  0  0  0  0  0  0  0  0  0  0
   -1.3117    0.1802    3.5582 N   0  3  0  0  0  0  0  0  0  0  0  0
   -3.4643    4.8538    2.7556 O   0  0  0  0  0  0  0  0  0  0  0  0
    0.2998    2.5076    2.7865 O   0  0  0  0  0  0  0  0  0  0  0  0
   -3.2492    2.7894    3.7165 O   0  0  0  0  0  0  0  0  0  0  0  0
  1  2  1  0  0  0  0
  1 10  1  0  0  0  0
  1 21  1  6  0  0  0
  2  3  1  0  0  0  0
  2  7  1  6  0  0  0
  3  4  1  0  0  0  0
  3  8  1  1  0  0  0
  4  5  1  0  0  0  0
  4  9  1  6  0  0  0
  5  6  1  1  0  0  0
  5 10  1  0  0  0  0
  6 11  1  0  0  0  0
 12 13  1  0  0  0  0
 12 17  1  0  0  0  0
 12 18  1  1  0  0  0
 13 14  1  0  0  0  0
 14 15  1  0  0  0  0
 14 19  1  1  0  0  0
 15 16  1  0  0  0  0
 15 30  1  6  0  0  0
 16 17  1  0  0  0  0
 16 20  1  1  0  0  0
 17 21  1  6  0  0  0
 22 23  1  0  0  0  0
 22 30  1  6  0  0  0
 22 32  1  0  0  0  0
 23 24  1  0  0  0  0
 23 28  1  6  0  0  0
 24 25  1  0  0  0  0
 25 26  1  0  0  0  0
 25 31  1  6  0  0  0
 26 27  1  1  0  0  0
 26 32  1  0  0  0  0
 27 29  1  0  0  0  0
M  CHG  5   8   1  18   1  19   1  28   1  29   1
M  END
>  <CHROM.1>
-127.66108663,64.57923661,-166.12261092,170.08102311,168.82985040,179.16916196
-66.00411079,-58.24613722,-136.39544197,-169.36716372,127.63112181,-155.42511417
177.83335552,-58.53608934,22.39783108,-66.54557660,-5.41581774,6.23457728
2.80885624,2.58924368,-0.60861003,0.68806890

>  <Name>
1tob

>  <RI>
0

>  <Rbt.Current_Directory>
/home/itssahil/PROJECTS/Mol_Feturizer/New_Systems/rnas/1tob

>  <Rbt.Executable>
rbdock ($Id: //depot/dev/client3/rdock/2013.1/src/exe/rbdock.cxx#4 $)

>  <Rbt.Library>
libRbt.so (2013.1, Build901 2013/11/27)

>  <Rbt.Parameter_File>
/export/apps/rDock/src/rDock_2013.1_src/data/scripts/dock_solv.prm

>  <Rbt.Receptor>
prm/pocket_docking_3.prm

>  <SCORE>
-49.1072

>  <SCORE.INTER>
-47.6125

>  <SCORE.INTER.CONST>
1

>  <SCORE.INTER.POLAR>
-7.40389

>  <SCORE.INTER.ROT>
6

>  <SCORE.INTER.SOLV>
31.082

>  <SCORE.INTER.VDW>
-25.0227

>  <SCORE.INTER.norm>
-1.48789

>  <SCORE.INTRA>
-1.49477

>  <SCORE.INTRA.DIHEDRAL>
5.33103

>  <SCORE.INTRA.DIHEDRAL.0>
22.9177

>  <SCORE.INTRA.POLAR>
-1.21342

>  <SCORE.INTRA.POLAR.0>
-0.311208

>  <SCORE.INTRA.REPUL>
0

>  <SCORE.INTRA.REPUL.0>
0

>  <SCORE.INTRA.SOLV>
1.13519

>  <SCORE.INTRA.SOLV.lig_0>
-132.657

>  <SCORE.INTRA.VDW>
-0.602245

>  <SCORE.INTRA.VDW.0>
-4.68867

>  <SCORE.INTRA.norm>
-0.0467117

>  <SCORE.RESTR>
0

>  <SCORE.RESTR.CAVITY>
0

>  <SCORE.RESTR.norm>
0

>  <SCORE.SYSTEM>
0

>  <SCORE.SYSTEM.CONST>
0

>  <SCORE.SYSTEM.DIHEDRAL>
0

>  <SCORE.SYSTEM.SOLV>
0

>  <SCORE.SYSTEM.norm>
0

>  <SCORE.heavy>
32

>  <SCORE.norm>
-1.5346

>  <RMSD>
8.335

$$$$
1tob
 OpenBabel11021811413D
libRbt.so/2013.1/901 2013/11/27
 32 34  0  0  0  0  0  0  0  0999 V2000
   -2.3594    8.3090    1.5322 C   0  0  2  0  0  0  0  0  0  0  0  0
   -2.2175    9.6229    2.2969 C   0  0  1  0  0  0  0  0  0  0  0  0
   -2.8967    9.5021    3.6542 C   0  0  2  0  0  0  0  0  0  0  0  0
   -4.3484    9.0819    3.4579 C   0  0  1  0  0  0  0  0  0  0  0  0
   -4.4088    7.7872    2.6519 C   0  0  1  0  0  0  0  0  0  0  0  0
   -5.8323    7.3572    2.3565 C   0  0  0  0  0  0  0  0  0  0  0  0
   -0.8416    9.9275    2.4754 O   0  0  0  0  0  0  0  0  0  0  0  0
   -2.7851   10.7619    4.4209 N   0  3  0  0  0  0  0  0  0  0  0  0
   -4.9715    8.8998    4.7222 O   0  0  0  0  0  0  0  0  0  0  0  0
   -3.7421    7.9627    1.3832 O   0  0  0  0  0  0  0  0  0  0  0  0
   -6.5937    7.2290    3.5489 O   0  0  0  0  0  0  0  0  0  0  0  0
   -2.2118    5.4558    0.7122 C   0  0  2  0  0  0  0  0  0  0  0  0
   -2.8849    4.0930    0.6235 C   0  0  0  0  0  0  0  0  0  0  0  0
   -2.2614    3.1227    1.6271 C   0  0  1  0  0  0  0  0  0  0  0  0
   -2.4225    3.6725    3.0426 C   0  0  2  0  0  0  0  0  0  0  0  0
   -1.7585    5.0463    3.1484 C   0  0  1  0  0  0  0  0  0  0  0  0
   -2.3651    6.0034    2.1228 C   0  0  1  0  0  0  0  0  0  0  0  0
   -2.8332    6.4085   -0.2337 N   0  3  0  0  0  0  0  0  0  0  0  0
   -2.8686    1.7753    1.4714 N   0  3  0  0  0  0  0  0  0  0  0  0
   -1.9347    5.5669    4.4591 O   0  0  0  0  0  0  0  0  0  0  0  0
   -1.7251    7.2889    2.2162 O   0  0  0  0  0  0  0  0  0  0  0  0
   -0.4745    2.5248    3.8499 C   0  0  1  0  0  0  0  0  0  0  0  0
   -0.1700    1.0463    4.0979 C   0  0  1  0  0  0  0  0  0  0  0  0
   -0.5123    0.6707    5.5318 C   0  0  0  0  0  0  0  0  0  0  0  0
    0.2289    1.5963    6.4826 C   0  0  1  0  0  0  0  0  0  0  0  0
   -0.1103    3.0504    6.1566 C   0  0  1  0  0  0  0  0  0  0  0  0
    0.6419    4.0368    7.0315 C   0  0  0  0  0  0  0  0  0  0  0  0
   -0.8702    0.1850    3.1159 N   0  3  0  0  0  0  0  0  0  0  0  0
   -0.2765    4.7754    7.9306 N   0  3  0  0  0  0  0  0  0  0  0  0
   -1.8336    2.7671    3.9986 O   0  0  0  0  0  0  0  0  0  0  0  0
   -0.1322    1.3037    7.8246 O   0  0  0  0  0  0  0  0  0  0  0  0
    0.2344    3.3462    4.7858 O   0  0  0  0  0  0  0  0  0  0  0  0
  1  2  1  0  0  0  0
  1 10  1  0  0  0  0
  1 21  1  1  0  0  0
  2  3  1  0  0  0  0
  2  7  1  1  0  0  0
  3  4  1  0  0  0  0
  3  8  1  6  0  0  0
  4  5  1  0  0  0  0
  4  9  1  1  0  0  0
  5  6  1  6  0  0  0
  5 10  1  0  0  0  0
  6 11  1  0  0  0  0
 12 13  1  0  0  0  0
 12 17  1  0  0  0  0
 12 18  1  6  0  0  0
 13 14  1  0  0  0  0
 14 15  1  0  0  0  0
 14 19  1  1  0  0  0
 15 16  1  0  0  0  0
 15 30  1  1  0  0  0
 16 17  1  0  0  0  0
 16 20  1  1  0  0  0
 17 21  1  6  0  0  0
 22 23  1  0  0  0  0
 22 30  1  1  0  0  0
 22 32  1  0  0  0  0
 23 24  1  0  0  0  0
 23 28  1  6  0  0  0
 24 25  1  0  0  0  0
 25 26  1  0  0  0  0
 25 31  1  1  0  0  0
 26 27  1  1  0  0  0
 26 32  1  0  0  0  0
 27 29  1  0  0  0  0
M  CHG  5   8   1  18   1  19   1  28   1  29   1
M  END
>  <CHROM.1>
144.99785093,-51.59920850,47.18782349,-55.95668436,-55.74333175,-51.47109304
-157.22062506,-111.56391539,60.40431664,-161.62235148,70.16265780,-139.75774210
72.75483117,-57.35070592,-113.40393364,-89.21259291,-2.13005334,5.33751839
3.55014781,2.55310080,-1.08062453,0.55958058

>  <Name>
1tob

>  <RI>
0

>  <Rbt.Current_Directory>
/home/itssahil/PROJECTS/Mol_Feturizer/New_Systems/rnas/1tob

>  <Rbt.Executable>
rbdock ($Id: //depot/dev/client3/rdock/2013.1/src/exe/rbdock.cxx#4 $)

>  <Rbt.Library>
libRbt.so (2013.1, Build901 2013/11/27)

>  <Rbt.Parameter_File>
/export/apps/rDock/src/rDock_2013.1_src/data/scripts/dock_solv.prm

>  <Rbt.Receptor>
prm/blind_docking_20.prm

>  <SCORE>
9.3501

>  <SCORE.INTER>
-17.131

>  <SCORE.INTER.CONST>
1

>  <SCORE.INTER.POLAR>
-5.70298

>  <SCORE.INTER.ROT>
6

>  <SCORE.INTER.SOLV>
34.8989

>  <SCORE.INTER.VDW>
-11.6437

>  <SCORE.INTER.norm>
-0.535343

>  <SCORE.INTRA>
11.4088

>  <SCORE.INTRA.DIHEDRAL>
2.35167

>  <SCORE.INTRA.DIHEDRAL.0>
22.9177

>  <SCORE.INTRA.POLAR>
-0.378493

>  <SCORE.INTRA.POLAR.0>
-0.311208

>  <SCORE.INTRA.REPUL>
0

>  <SCORE.INTRA.REPUL.0>
0

>  <SCORE.INTRA.SOLV>
4.05297

>  <SCORE.INTRA.SOLV.lig_0>
-132.657

>  <SCORE.INTRA.VDW>
9.49336

>  <SCORE.INTRA.VDW.0>
-4.68867

>  <SCORE.INTRA.norm>
0.356525

>  <SCORE.RESTR>
15.0723

>  <SCORE.RESTR.CAVITY>
15.0723

>  <SCORE.RESTR.norm>
0.471009

>  <SCORE.SYSTEM>
0

>  <SCORE.SYSTEM.CONST>
0

>  <SCORE.SYSTEM.DIHEDRAL>
0

>  <SCORE.SYSTEM.SOLV>
0

>  <SCORE.SYSTEM.norm>
0

>  <SCORE.heavy>
32

>  <SCORE.norm>
0.292191

>  <RMSD>
8.339

$$$$
1tob
 OpenBabel11021811413D
libRbt.so/2013.1/901 2013/11/27
 32 34  0  0  0  0  0  0  0  0999 V2000
   -8.2246    8.3695    3.1628 C   0  0  2  0  0  0  0  0  0  0  0  0
   -9.7260    8.6456    3.1329 C   0  0  1  0  0  0  0  0  0  0  0  0
  -10.0120    9.8259    2.2145 C   0  0  2  0  0  0  0  0  0  0  0  0
   -9.1947   11.0295    2.6682 C   0  0  1  0  0  0  0  0  0  0  0  0
   -7.7137   10.6635    2.7127 C   0  0  1  0  0  0  0  0  0  0  0  0
   -6.8538   11.7992    3.2318 C   0  0  0  0  0  0  0  0  0  0  0  0
  -10.4156    7.4958    2.6637 O   0  0  0  0  0  0  0  0  0  0  0  0
  -11.4592   10.1269    2.1672 N   0  3  0  0  0  0  0  0  0  0  0  0
   -9.4028   12.1160    1.7759 O   0  0  0  0  0  0  0  0  0  0  0  0
   -7.5090    9.5353    3.5904 O   0  0  0  0  0  0  0  0  0  0  0  0
   -7.1918   12.1363    4.5698 O   0  0  0  0  0  0  0  0  0  0  0  0
   -7.0111    6.3254    0.3549 C   0  0  2  0  0  0  0  0  0  0  0  0
   -6.3300    4.9663    0.2705 C   0  0  0  0  0  0  0  0  0  0  0  0
   -4.9470    5.0203    0.9201 C   0  0  1  0  0  0  0  0  0  0  0  0
   -5.0826    5.4254    2.3862 C   0  0  2  0  0  0  0  0  0  0  0  0
   -5.7727    6.7863    2.4908 C   0  0  1  0  0  0  0  0  0  0  0  0
   -7.1420    6.7345    1.8139 C   0  0  1  0  0  0  0  0  0  0  0  0
   -8.3632    6.2707   -0.2428 N   0  3  0  0  0  0  0  0  0  0  0  0
   -4.2602    3.7129    0.7559 N   0  3  0  0  0  0  0  0  0  0  0  0
   -5.9221    7.1469    3.8574 O   0  0  0  0  0  0  0  0  0  0  0  0
   -7.7789    8.0219    1.9013 O   0  0  0  0  0  0  0  0  0  0  0  0
   -3.5929    4.6478    4.1008 C   0  0  1  0  0  0  0  0  0  0  0  0
   -2.5368    5.2340    5.0394 C   0  0  1  0  0  0  0  0  0  0  0  0
   -1.1922    5.3192    4.3327 C   0  0  0  0  0  0  0  0  0  0  0  0
   -0.8171    3.9449    3.8025 C   0  0  1  0  0  0  0  0  0  0  0  0
   -1.9288    3.4211    2.8941 C   0  0  1  0  0  0  0  0  0  0  0  0
   -1.6483    2.0233    2.3728 C   0  0  0  0  0  0  0  0  0  0  0  0
   -2.9675    6.5474    5.5738 N   0  3  0  0  0  0  0  0  0  0  0  0
   -2.9010    1.3142    2.0185 N   0  3  0  0  0  0  0  0  0  0  0  0
   -3.7829    5.4842    3.0088 O   0  0  0  0  0  0  0  0  0  0  0  0
    0.4035    4.0202    3.0805 O   0  0  0  0  0  0  0  0  0  0  0  0
   -3.1771    3.3643    3.6179 O   0  0  0  0  0  0  0  0  0  0  0  0
  1  2  1  0  0  0  0
  1 10  1  0  0  0  0
  1 21  1  6  0  0  0
  2  3  1  0  0  0  0
  2  7  1  6  0  0  0
  3  4  1  0  0  0  0
  3  8  1  1  0  0  0
  4  5  1  0  0  0  0
  4  9  1  6  0  0  0
  5  6  1  1  0  0  0
  5 10  1  0  0  0  0
  6 11  1  0  0  0  0
 12 13  1  0  0  0  0
 12 17  1  0  0  0  0
 12 18  1  1  0  0  0
 13 14  1  0  0  0  0
 14 15  1  0  0  0  0
 14 19  1  1  0  0  0
 15 16  1  0  0  0  0
 15 30  1  6  0  0  0
 16 17  1  0  0  0  0
 16 20  1  1  0  0  0
 17 21  1  6  0  0  0
 22 23  1  0  0  0  0
 22 30  1  6  0  0  0
 22 32  1  0  0  0  0
 23 24  1  0  0  0  0
 23 28  1  6  0  0  0
 24 25  1  0  0  0  0
 25 26  1  0  0  0  0
 25 31  1  6  0  0  0
 26 27  1  1  0  0  0
 26 32  1  0  0  0  0
 27 29  1  0  0  0  0
M  CHG  5   8   1  18   1  19   1  28   1  29   1
M  END
>  <CHROM.1>
-121.94479361,168.69226092,-172.51000068,175.41852595,62.35495536,60.68673045
-60.92853627,64.94793824,-120.78501146,56.57422091,166.13742596,-152.93682844
-174.69239005,-57.57618626,155.22164601,89.53730365,-5.78967536,6.81038190
2.69669305,-2.55095510,0.48799340,-2.60659364

>  <Name>
1tob

>  <RI>
0

>  <Rbt.Current_Directory>
/home/itssahil/PROJECTS/Mol_Feturizer/New_Systems/rnas/1tob

>  <Rbt.Executable>
rbdock ($Id: //depot/dev/client3/rdock/2013.1/src/exe/rbdock.cxx#4 $)

>  <Rbt.Library>
libRbt.so (2013.1, Build901 2013/11/27)

>  <Rbt.Parameter_File>
/export/apps/rDock/src/rDock_2013.1_src/data/scripts/dock_solv.prm

>  <Rbt.Receptor>
prm/pocket_docking_3.prm

>  <SCORE>
-36.9183

>  <SCORE.INTER>
-42.1169

>  <SCORE.INTER.CONST>
1

>  <SCORE.INTER.POLAR>
-7.57454

>  <SCORE.INTER.ROT>
6

>  <SCORE.INTER.SOLV>
26.1251

>  <SCORE.INTER.VDW>
-19.1378

>  <SCORE.INTER.norm>
-1.31615

>  <SCORE.INTRA>
5.14422

>  <SCORE.INTRA.DIHEDRAL>
0.203117

>  <SCORE.INTRA.DIHEDRAL.0>
22.9177

>  <SCORE.INTRA.POLAR>
0.0350905

>  <SCORE.INTRA.POLAR.0>
-0.311208

>  <SCORE.INTRA.REPUL>
0

>  <SCORE.INTRA.REPUL.0>
0

>  <SCORE.INTRA.SOLV>
4.67589

>  <SCORE.INTRA.SOLV.lig_0>
-132.657

>  <SCORE.INTRA.VDW>
2.5854

>  <SCORE.INTRA.VDW.0>
-4.68867

>  <SCORE.INTRA.norm>
0.160757

>  <SCORE.RESTR>
0.0544122

>  <SCORE.RESTR.CAVITY>
0.0544122

>  <SCORE.RESTR.norm>
0.00170038

>  <SCORE.SYSTEM>
0

>  <SCORE.SYSTEM.CONST>
0

>  <SCORE.SYSTEM.DIHEDRAL>
0

>  <SCORE.SYSTEM.SOLV>
0

>  <SCORE.SYSTEM.norm>
0

>  <SCORE.heavy>
32

>  <SCORE.norm>
-1.1537

>  <RMSD>
8.355

$$$$
1tob
 OpenBabel11021811413D
libRbt.so/2013.1/901 2013/11/27
 32 34  0  0  0  0  0  0  0  0999 V2000
   -3.9579    6.7658    3.4351 C   0  0  2  0  0  0  0  0  0  0  0  0
   -4.0414    7.5054    4.7682 C   0  0  1  0  0  0  0  0  0  0  0  0
   -5.4601    8.0145    4.9841 C   0  0  2  0  0  0  0  0  0  0  0  0
   -5.8739    8.8774    3.7980 C   0  0  1  0  0  0  0  0  0  0  0  0
   -5.7236    8.0845    2.5026 C   0  0  1  0  0  0  0  0  0  0  0  0
   -6.0475    8.9153    1.2765 C   0  0  0  0  0  0  0  0  0  0  0  0
   -3.6811    6.6289    5.8262 O   0  0  0  0  0  0  0  0  0  0  0  0
   -5.5762    8.7441    6.2653 N   0  3  0  0  0  0  0  0  0  0  0  0
   -7.2212    9.3007    3.9582 O   0  0  0  0  0  0  0  0  0  0  0  0
   -4.3628    7.6228    2.3602 O   0  0  0  0  0  0  0  0  0  0  0  0
   -5.7966    8.1931    0.0792 O   0  0  0  0  0  0  0  0  0  0  0  0
   -4.2056    4.3688    1.4887 C   0  0  2  0  0  0  0  0  0  0  0  0
   -3.5534    3.0721    1.0288 C   0  0  0  0  0  0  0  0  0  0  0  0
   -2.1103    2.9936    1.5275 C   0  0  1  0  0  0  0  0  0  0  0  0
   -2.0892    3.0542    3.0532 C   0  0  2  0  0  0  0  0  0  0  0  0
   -2.7482    4.3479    3.5341 C   0  0  1  0  0  0  0  0  0  0  0  0
   -4.1805    4.4350    3.0080 C   0  0  1  0  0  0  0  0  0  0  0  0
   -5.6127    4.4353    1.0369 N   0  3  0  0  0  0  0  0  0  0  0  0
   -1.4600    1.7654    1.0014 N   0  3  0  0  0  0  0  0  0  0  0  0
   -2.7517    4.3876    4.9549 O   0  0  0  0  0  0  0  0  0  0  0  0
   -4.7894    5.6616    3.4501 O   0  0  0  0  0  0  0  0  0  0  0  0
   -0.0334    4.1854    3.5611 C   0  0  1  0  0  0  0  0  0  0  0  0
    1.4334    3.9523    3.1949 C   0  0  1  0  0  0  0  0  0  0  0  0
    2.0983    3.0540    4.2270 C   0  0  0  0  0  0  0  0  0  0  0  0
    1.9216    3.6624    5.6087 C   0  0  1  0  0  0  0  0  0  0  0  0
    0.4356    3.8835    5.8889 C   0  0  1  0  0  0  0  0  0  0  0  0
    0.1859    4.5447    7.2323 C   0  0  0  0  0  0  0  0  0  0  0  0
    1.5612    3.4097    1.8217 N   0  3  0  0  0  0  0  0  0  0  0  0
   -1.1757    5.1265    7.3065 N   0  3  0  0  0  0  0  0  0  0  0  0
   -0.7316    2.9854    3.5356 O   0  0  0  0  0  0  0  0  0  0  0  0
    2.4773    2.8019    6.5923 O   0  0  0  0  0  0  0  0  0  0  0  0
   -0.1391    4.7399    4.8781 O   0  0  0  0  0  0  0  0  0  0  0  0
  1  2  1  0  0  0  0
  1 10  1  0  0  0  0
  1 21  1  1  0  0  0
  2  3  1  0  0  0  0
  2  7  1  1  0  0  0
  3  4  1  0  0  0  0
  3  8  1  1  0  0  0
  4  5  1  0  0  0  0
  4  9  1  1  0  0  0
  5  6  1  6  0  0  0
  5 10  1  0  0  0  0
  6 11  1  0  0  0  0
 12 13  1  0  0  0  0
 12 17  1  0  0  0  0
 12 18  1  1  0  0  0
 13 14  1  0  0  0  0
 14 15  1  0  0  0  0
 14 19  1  1  0  0  0
 15 16  1  0  0  0  0
 15 30  1  6  0  0  0
 16 17  1  0  0  0  0
 16 20  1  1  0  0  0
 17 21  1  6  0  0  0
 22 23  1  0  0  0  0
 22 30  1  1  0  0  0
 22 32  1  0  0  0  0
 23 24  1  0  0  0  0
 23 28  1  6  0  0  0
 24 25  1  0  0  0  0
 25 26  1  0  0  0  0
 25 31  1  1  0  0  0
 26 27  1  1  0  0  0
 26 32  1  0  0  0  0
 27 29  1  0  0  0  0
M  CHG  5   8   1  18   1  19   1  28   1  29   1
M  END
>  <CHROM.1>
-131.04184984,167.15222682,-176.58768858,72.59869559,175.21941609,71.45613390
43.88527621,25.71955637,83.75727591,-177.10976099,-82.68496263,-143.51657560
48.03198868,178.37540589,162.26554064,-114.64862153,-2.62451073,5.31169840
3.68099444,-3.01958518,0.62114854,-2.09406117

>  <Name>
1tob

>  <RI>
0

>  <Rbt.Current_Directory>
/home/itssahil/PROJECTS/Mol_Feturizer/New_Systems/rnas/1tob

>  <Rbt.Executable>
rbdock ($Id: //depot/dev/client3/rdock/2013.1/src/exe/rbdock.cxx#4 $)

>  <Rbt.Library>
libRbt.so (2013.1, Build901 2013/11/27)

>  <Rbt.Parameter_File>
/export/apps/rDock/src/rDock_2013.1_src/data/scripts/dock_solv.prm

>  <Rbt.Receptor>
prm/blind_docking_60.prm

>  <SCORE>
-42.4609

>  <SCORE.INTER>
-51.7054

>  <SCORE.INTER.CONST>
1

>  <SCORE.INTER.POLAR>
-8.35422

>  <SCORE.INTER.ROT>
6

>  <SCORE.INTER.SOLV>
46.6146

>  <SCORE.INTER.VDW>
-29.761

>  <SCORE.INTER.norm>
-1.61579

>  <SCORE.INTRA>
2.68125

>  <SCORE.INTRA.DIHEDRAL>
3.25266

>  <SCORE.INTRA.DIHEDRAL.0>
22.9177

>  <SCORE.INTRA.POLAR>
-1.49358

>  <SCORE.INTRA.POLAR.0>
-0.311208

>  <SCORE.INTRA.REPUL>
0.0268186

>  <SCORE.INTRA.REPUL.0>
0

>  <SCORE.INTRA.SOLV>
3.76782

>  <SCORE.INTRA.SOLV.lig_0>
-132.657

>  <SCORE.INTRA.VDW>
4.11511

>  <SCORE.INTRA.VDW.0>
-4.68867

>  <SCORE.INTRA.norm>
0.0837891

>  <SCORE.RESTR>
6.56319

>  <SCORE.RESTR.CAVITY>
6.56319

>  <SCORE.RESTR.norm>
0.2051

>  <SCORE.SYSTEM>
0

>  <SCORE.SYSTEM.CONST>
0

>  <SCORE.SYSTEM.DIHEDRAL>
0

>  <SCORE.SYSTEM.SOLV>
0

>  <SCORE.SYSTEM.norm>
0

>  <SCORE.heavy>
32

>  <SCORE.norm>
-1.3269

>  <RMSD>
8.373

$$$$
1tob
 OpenBabel11021811413D
libRbt.so/2013.1/901 2013/11/27
 32 34  0  0  0  0  0  0  0  0999 V2000
   -4.3778    6.9483    2.9162 C   0  0  2  0  0  0  0  0  0  0  0  0
   -4.7823    7.9098    4.0311 C   0  0  1  0  0  0  0  0  0  0  0  0
   -6.1101    8.5689    3.6832 C   0  0  2  0  0  0  0  0  0  0  0  0
   -5.9968    9.2483    2.3238 C   0  0  1  0  0  0  0  0  0  0  0  0
   -5.5493    8.2352    1.2736 C   0  0  1  0  0  0  0  0  0  0  0  0
   -5.3434    8.8685   -0.0884 C   0  0  0  0  0  0  0  0  0  0  0  0
   -4.9063    7.1997    5.2550 O   0  0  0  0  0  0  0  0  0  0  0  0
   -6.5297    9.5144    4.7402 N   0  3  0  0  0  0  0  0  0  0  0  0
   -7.2517    9.8074    1.9596 O   0  0  0  0  0  0  0  0  0  0  0  0
   -4.2928    7.6403    1.6640 O   0  0  0  0  0  0  0  0  0  0  0  0
   -4.9632    7.9022   -1.0578 O   0  0  0  0  0  0  0  0  0  0  0  0
   -4.5229    4.2990    1.1998 C   0  0  2  0  0  0  0  0  0  0  0  0
   -3.9385    2.8987    1.0743 C   0  0  0  0  0  0  0  0  0  0  0  0
   -2.6270    2.7952    1.8532 C   0  0  1  0  0  0  0  0  0  0  0  0
   -2.8780    3.1057    3.3271 C   0  0  2  0  0  0  0  0  0  0  0  0
   -3.4732    4.5072    3.4720 C   0  0  1  0  0  0  0  0  0  0  0  0
   -4.7683    4.6137    2.6675 C   0  0  1  0  0  0  0  0  0  0  0  0
   -5.8090    4.3957    0.4752 N   0  3  0  0  0  0  0  0  0  0  0  0
   -2.0251    1.4514    1.6531 N   0  3  0  0  0  0  0  0  0  0  0  0
   -3.7314    4.7817    4.8425 O   0  0  0  0  0  0  0  0  0  0  0  0
   -5.3145    5.9390    2.7945 O   0  0  0  0  0  0  0  0  0  0  0  0
   -0.9553    4.2066    4.2519 C   0  0  1  0  0  0  0  0  0  0  0  0
    0.3813    4.1609    3.5092 C   0  0  1  0  0  0  0  0  0  0  0  0
    1.2674    3.0667    4.0851 C   0  0  0  0  0  0  0  0  0  0  0  0
    1.4273    3.2869    5.5806 C   0  0  1  0  0  0  0  0  0  0  0  0
    0.0517    3.3423    6.2441 C   0  0  1  0  0  0  0  0  0  0  0  0
    0.1318    3.6191    7.7344 C   0  0  0  0  0  0  0  0  0  0  0  0
    0.1761    3.9991    2.0504 N   0  3  0  0  0  0  0  0  0  0  0  0
   -0.5712    4.8743    8.0922 N   0  3  0  0  0  0  0  0  0  0  0  0
   -1.6461    3.0156    4.0719 O   0  0  0  0  0  0  0  0  0  0  0  0
    2.1962    2.2354    6.1463 O   0  0  0  0  0  0  0  0  0  0  0  0
   -0.7420    4.3957    5.6561 O   0  0  0  0  0  0  0  0  0  0  0  0
  1  2  1  0  0  0  0
  1 10  1  0  0  0  0
  1 21  1  6  0  0  0
  2  3  1  0  0  0  0
  2  7  1  1  0  0  0
  3  4  1  0  0  0  0
  3  8  1  1  0  0  0
  4  5  1  0  0  0  0
  4  9  1  6  0  0  0
  5  6  1  6  0  0  0
  5 10  1  0  0  0  0
  6 11  1  0  0  0  0
 12 13  1  0  0  0  0
 12 17  1  0  0  0  0
 12 18  1  6  0  0  0
 13 14  1  0  0  0  0
 14 15  1  0  0  0  0
 14 19  1  1  0  0  0
 15 16  1  0  0  0  0
 15 30  1  1  0  0  0
 16 17  1  0  0  0  0
 16 20  1  1  0  0  0
 17 21  1  6  0  0  0
 22 23  1  0  0  0  0
 22 30  1  1  0  0  0
 22 32  1  0  0  0  0
 23 24  1  0  0  0  0
 23 28  1  6  0  0  0
 24 25  1  0  0  0  0
 25 26  1  0  0  0  0
 25 31  1  1  0  0  0
 26 27  1  1  0  0  0
 26 32  1  0  0  0  0
 27 29  1  0  0  0  0
M  CHG  5   8   1  18   1  19   1  28   1  29   1
M  END
>  <CHROM.1>
-134.78182559,-76.45416600,41.75042440,-177.56208424,-178.39027932,-51.67171672
-86.38276053,172.51749651,94.51430106,-178.63259934,-88.93673925,-114.20283943
49.46837936,-178.49309146,119.37550673,-149.83579207,-3.06453811,5.35579800
3.36688975,3.11465834,0.77667894,-2.12871774

>  <Name>
1tob

>  <RI>
0

>  <Rbt.Current_Directory>
/home/itssahil/PROJECTS/Mol_Feturizer/New_Systems/rnas/1tob

>  <Rbt.Executable>
rbdock ($Id: //depot/dev/client3/rdock/2013.1/src/exe/rbdock.cxx#4 $)

>  <Rbt.Library>
libRbt.so (2013.1, Build901 2013/11/27)

>  <Rbt.Parameter_File>
/export/apps/rDock/src/rDock_2013.1_src/data/scripts/dock_solv.prm

>  <Rbt.Receptor>
prm/pocket_docking_5.prm

>  <SCORE>
-44.4078

>  <SCORE.INTER>
-55.4266

>  <SCORE.INTER.CONST>
1

>  <SCORE.INTER.POLAR>
-8.65987

>  <SCORE.INTER.ROT>
6

>  <SCORE.INTER.SOLV>
34.0916

>  <SCORE.INTER.VDW>
-27.0487

>  <SCORE.INTER.norm>
-1.73208

>  <SCORE.INTRA>
11.0189

>  <SCORE.INTRA.DIHEDRAL>
9.47436

>  <SCORE.INTRA.DIHEDRAL.0>
22.9177

>  <SCORE.INTRA.POLAR>
-0.423497

>  <SCORE.INTRA.POLAR.0>
-0.311208

>  <SCORE.INTRA.REPUL>
0

>  <SCORE.INTRA.REPUL.0>
0

>  <SCORE.INTRA.SOLV>
-0.0687623

>  <SCORE.INTRA.SOLV.lig_0>
-132.657

>  <SCORE.INTRA.VDW>
7.75597

>  <SCORE.INTRA.VDW.0>
-4.68867

>  <SCORE.INTRA.norm>
0.34434

>  <SCORE.RESTR>
0

>  <SCORE.RESTR.CAVITY>
0

>  <SCORE.RESTR.norm>
0

>  <SCORE.SYSTEM>
0

>  <SCORE.SYSTEM.CONST>
0

>  <SCORE.SYSTEM.DIHEDRAL>
0

>  <SCORE.SYSTEM.SOLV>
0

>  <SCORE.SYSTEM.norm>
0

>  <SCORE.heavy>
32

>  <SCORE.norm>
-1.38774

>  <RMSD>
8.373

$$$$
1tob
 OpenBabel11021811413D
libRbt.so/2013.1/901 2013/11/27
 32 34  0  0  0  0  0  0  0  0999 V2000
   -7.2620    9.2241    3.8997 C   0  0  2  0  0  0  0  0  0  0  0  0
   -8.6817    9.5831    4.3319 C   0  0  1  0  0  0  0  0  0  0  0  0
   -9.1403   10.8352    3.5968 C   0  0  2  0  0  0  0  0  0  0  0  0
   -8.1415   11.9599    3.8416 C   0  0  1  0  0  0  0  0  0  0  0  0
   -6.7434   11.5115    3.4251 C   0  0  1  0  0  0  0  0  0  0  0  0
   -5.6897   12.5619    3.7164 C   0  0  0  0  0  0  0  0  0  0  0  0
   -9.5595    8.5061    4.0368 O   0  0  0  0  0  0  0  0  0  0  0  0
  -10.5117   11.2172    3.9975 N   0  3  0  0  0  0  0  0  0  0  0  0
   -8.5250   13.1125    3.1037 O   0  0  0  0  0  0  0  0  0  0  0  0
   -6.3706   10.3185    4.1482 O   0  0  0  0  0  0  0  0  0  0  0  0
   -5.6022   12.8374    5.1073 O   0  0  0  0  0  0  0  0  0  0  0  0
   -7.7697    7.2073    0.9410 C   0  0  2  0  0  0  0  0  0  0  0  0
   -7.5420    5.7405    0.6021 C   0  0  0  0  0  0  0  0  0  0  0  0
   -6.0494    5.4570    0.4309 C   0  0  1  0  0  0  0  0  0  0  0  0
   -5.3098    5.7957    1.7232 C   0  0  2  0  0  0  0  0  0  0  0  0
   -5.5340    7.2650    2.0841 C   0  0  1  0  0  0  0  0  0  0  0  0
   -7.0290    7.5493    2.2247 C   0  0  1  0  0  0  0  0  0  0  0  0
   -9.2098    7.4805    1.1403 N   0  3  0  0  0  0  0  0  0  0  0  0
   -5.8476    4.0440    0.0176 N   0  3  0  0  0  0  0  0  0  0  0  0
   -4.8672    7.5692    3.3018 O   0  0  0  0  0  0  0  0  0  0  0  0
   -7.2340    8.9365    2.5479 O   0  0  0  0  0  0  0  0  0  0  0  0
   -3.1194    5.7347    2.7041 C   0  0  1  0  0  0  0  0  0  0  0  0
   -1.7392    6.2636    2.3102 C   0  0  1  0  0  0  0  0  0  0  0  0
   -1.0025    5.2363    1.4638 C   0  0  0  0  0  0  0  0  0  0  0  0
   -0.9393    3.9183    2.2182 C   0  0  1  0  0  0  0  0  0  0  0  0
   -2.3514    3.4702    2.5935 C   0  0  1  0  0  0  0  0  0  0  0  0
   -2.3618    2.1860    3.4028 C   0  0  0  0  0  0  0  0  0  0  0  0
   -1.8448    7.5740    1.6261 N   0  3  0  0  0  0  0  0  0  0  0  0
   -1.9994    1.0153    2.5686 N   0  3  0  0  0  0  0  0  0  0  0  0
   -3.8990    5.5364    1.5723 O   0  0  0  0  0  0  0  0  0  0  0  0
   -0.3146    2.9284    1.4140 O   0  0  0  0  0  0  0  0  0  0  0  0
   -2.9989    4.4838    3.3926 O   0  0  0  0  0  0  0  0  0  0  0  0
  1  2  1  0  0  0  0
  1 10  1  0  0  0  0
  1 21  1  6  0  0  0
  2  3  1  0  0  0  0
  2  7  1  6  0  0  0
  3  4  1  0  0  0  0
  3  8  1  1  0  0  0
  4  5  1  0  0  0  0
  4  9  1  6  0  0  0
  5  6  1  1  0  0  0
  5 10  1  0  0  0  0
  6 11  1  0  0  0  0
 12 13  1  0  0  0  0
 12 17  1  0  0  0  0
 12 18  1  1  0  0  0
 13 14  1  0  0  0  0
 14 15  1  0  0  0  0
 14 19  1  1  0  0  0
 15 16  1  0  0  0  0
 15 30  1  6  0  0  0
 16 17  1  0  0  0  0
 16 20  1  1  0  0  0
 17 21  1  6  0  0  0
 22 23  1  0  0  0  0
 22 30  1  6  0  0  0
 22 32  1  0  0  0  0
 23 24  1  0  0  0  0
 23 28  1  6  0  0  0
 24 25  1  0  0  0  0
 25 26  1  0  0  0  0
 25 31  1  6  0  0  0
 26 27  1  1  0  0  0
 26 32  1  0  0  0  0
 27 29  1  0  0  0  0
M  CHG  5   8   1  18   1  19   1  28   1  29   1
M  END
>  <CHROM.1>
-108.99777310,56.40738378,80.53555011,-177.63334780,61.79609758,179.83691324
-102.12344518,45.54494677,-176.60500087,-177.28421929,147.52120478,-145.58116936
72.10999646,41.09031126,-71.41373439,150.82035631,-5.48259777,7.41968633
2.61502917,-2.25250493,0.16861901,-2.78889419

>  <Name>
1tob

>  <RI>
0

>  <Rbt.Current_Directory>
/home/itssahil/PROJECTS/Mol_Feturizer/New_Systems/rnas/1tob

>  <Rbt.Executable>
rbdock ($Id: //depot/dev/client3/rdock/2013.1/src/exe/rbdock.cxx#4 $)

>  <Rbt.Library>
libRbt.so (2013.1, Build901 2013/11/27)

>  <Rbt.Parameter_File>
/export/apps/rDock/src/rDock_2013.1_src/data/scripts/dock_solv.prm

>  <Rbt.Receptor>
prm/pocket_docking_8.prm

>  <SCORE>
-38.2896

>  <SCORE.INTER>
-32.9598

>  <SCORE.INTER.CONST>
1

>  <SCORE.INTER.POLAR>
-4.91053

>  <SCORE.INTER.ROT>
6

>  <SCORE.INTER.SOLV>
22.8213

>  <SCORE.INTER.VDW>
-20.8119

>  <SCORE.INTER.norm>
-1.02999

>  <SCORE.INTRA>
-5.32988

>  <SCORE.INTRA.DIHEDRAL>
0.715182

>  <SCORE.INTRA.DIHEDRAL.0>
22.9177

>  <SCORE.INTRA.POLAR>
-2.25787

>  <SCORE.INTRA.POLAR.0>
-0.311208

>  <SCORE.INTRA.REPUL>
0

>  <SCORE.INTRA.REPUL.0>
0

>  <SCORE.INTRA.SOLV>
-2.784

>  <SCORE.INTRA.SOLV.lig_0>
-132.657

>  <SCORE.INTRA.VDW>
3.38131

>  <SCORE.INTRA.VDW.0>
-4.68867

>  <SCORE.INTRA.norm>
-0.166559

>  <SCORE.RESTR>
0

>  <SCORE.RESTR.CAVITY>
0

>  <SCORE.RESTR.norm>
0

>  <SCORE.SYSTEM>
0

>  <SCORE.SYSTEM.CONST>
0

>  <SCORE.SYSTEM.DIHEDRAL>
0

>  <SCORE.SYSTEM.SOLV>
0

>  <SCORE.SYSTEM.norm>
0

>  <SCORE.heavy>
32

>  <SCORE.norm>
-1.19655

>  <RMSD>
8.379

$$$$
1tob
 OpenBabel11021811413D
libRbt.so/2013.1/901 2013/11/27
 32 34  0  0  0  0  0  0  0  0999 V2000
   -5.0738    6.3780    2.1440 C   0  0  2  0  0  0  0  0  0  0  0  0
   -5.3363    7.8755    2.0033 C   0  0  1  0  0  0  0  0  0  0  0  0
   -4.1655    8.6579    2.5824 C   0  0  2  0  0  0  0  0  0  0  0  0
   -3.9339    8.2276    4.0259 C   0  0  1  0  0  0  0  0  0  0  0  0
   -3.7217    6.7175    4.0890 C   0  0  1  0  0  0  0  0  0  0  0  0
   -3.5621    6.2160    5.5108 C   0  0  0  0  0  0  0  0  0  0  0  0
   -5.5019    8.2064    0.6320 O   0  0  0  0  0  0  0  0  0  0  0  0
   -4.3895   10.1155    2.4695 N   0  3  0  0  0  0  0  0  0  0  0  0
   -2.7997    8.9028    4.5529 O   0  0  0  0  0  0  0  0  0  0  0  0
   -4.8585    6.0339    3.5185 O   0  0  0  0  0  0  0  0  0  0  0  0
   -2.3183    5.5537    5.6909 O   0  0  0  0  0  0  0  0  0  0  0  0
   -3.9139    3.6017    1.3890 C   0  0  2  0  0  0  0  0  0  0  0  0
   -3.1654    2.3824    1.9099 C   0  0  0  0  0  0  0  0  0  0  0  0
   -1.7025    2.4242    1.4676 C   0  0  1  0  0  0  0  0  0  0  0  0
   -1.0385    3.6900    2.0049 C   0  0  2  0  0  0  0  0  0  0  0  0
   -1.7827    4.9262    1.4978 C   0  0  1  0  0  0  0  0  0  0  0  0
   -3.2510    4.8645    1.9175 C   0  0  1  0  0  0  0  0  0  0  0  0
   -5.3222    3.5835    1.8416 N   0  3  0  0  0  0  0  0  0  0  0  0
   -1.0054    1.1886    1.9100 N   0  3  0  0  0  0  0  0  0  0  0  0
   -1.1788    6.1010    2.0224 O   0  0  0  0  0  0  0  0  0  0  0  0
   -3.9491    6.0218    1.4235 O   0  0  0  0  0  0  0  0  0  0  0  0
    1.2092    4.4098    2.4449 C   0  0  1  0  0  0  0  0  0  0  0  0
    2.6000    3.7755    2.3890 C   0  0  1  0  0  0  0  0  0  0  0  0
    2.5438    2.3371    2.8813 C   0  0  0  0  0  0  0  0  0  0  0  0
    1.9342    2.3077    4.2733 C   0  0  1  0  0  0  0  0  0  0  0  0
    0.5606    2.9772    4.2495 C   0  0  1  0  0  0  0  0  0  0  0  0
   -0.0849    3.0367    5.6221 C   0  0  0  0  0  0  0  0  0  0  0  0
    3.1776    3.8744    1.0277 N   0  3  0  0  0  0  0  0  0  0  0  0
   -0.0234    1.7241    6.3085 N   0  3  0  0  0  0  0  0  0  0  0  0
    0.3419    3.7427    1.5900 O   0  0  0  0  0  0  0  0  0  0  0  0
    1.8113    0.9655    4.7208 O   0  0  0  0  0  0  0  0  0  0  0  0
    0.6776    4.3355    3.7735 O   0  0  0  0  0  0  0  0  0  0  0  0
  1  2  1  0  0  0  0
  1 10  1  0  0  0  0
  1 21  1  6  0  0  0
  2  3  1  0  0  0  0
  2  7  1  6  0  0  0
  3  4  1  0  0  0  0
  3  8  1  1  0  0  0
  4  5  1  0  0  0  0
  4  9  1  6  0  0  0
  5  6  1  1  0  0  0
  5 10  1  0  0  0  0
  6 11  1  0  0  0  0
 12 13  1  0  0  0  0
 12 17  1  0  0  0  0
 12 18  1  1  0  0  0
 13 14  1  0  0  0  0
 14 15  1  0  0  0  0
 14 19  1  1  0  0  0
 15 16  1  0  0  0  0
 15 30  1  6  0  0  0
 16 17  1  0  0  0  0
 16 20  1  1  0  0  0
 17 21  1  6  0  0  0
 22 23  1  0  0  0  0
 22 30  1  6  0  0  0
 22 32  1  0  0  0  0
 23 24  1  0  0  0  0
 23 28  1  6  0  0  0
 24 25  1  0  0  0  0
 25 26  1  0  0  0  0
 25 31  1  6  0  0  0
 26 27  1  1  0  0  0
 26 32  1  0  0  0  0
 27 29  1  0  0  0  0
M  CHG  5   8   1  18   1  19   1  28   1  29   1
M  END
>  <CHROM.1>
153.02131460,-174.03655936,-97.87418772,58.49480349,-121.45739145,78.59152366
-162.30641961,70.93322282,-150.62896228,-49.41625797,83.12760543,147.82655481
-28.71392383,68.80863444,-48.09137838,-62.75650351,-1.77996469,4.86009359
2.95212026,2.65392919,-0.56698337,0.63825502

>  <Name>
1tob

>  <RI>
0

>  <Rbt.Current_Directory>
/home/itssahil/PROJECTS/Mol_Feturizer/New_Systems/rnas/1tob

>  <Rbt.Executable>
rbdock ($Id: //depot/dev/client3/rdock/2013.1/src/exe/rbdock.cxx#4 $)

>  <Rbt.Library>
libRbt.so (2013.1, Build901 2013/11/27)

>  <Rbt.Parameter_File>
/export/apps/rDock/src/rDock_2013.1_src/data/scripts/dock_solv.prm

>  <Rbt.Receptor>
prm/blind_docking_100.prm

>  <SCORE>
-8.81045

>  <SCORE.INTER>
-29.675

>  <SCORE.INTER.CONST>
1

>  <SCORE.INTER.POLAR>
-5.70708

>  <SCORE.INTER.ROT>
6

>  <SCORE.INTER.SOLV>
38.7638

>  <SCORE.INTER.VDW>
-21.281

>  <SCORE.INTER.norm>
-0.927343

>  <SCORE.INTRA>
7.58165

>  <SCORE.INTRA.DIHEDRAL>
3.96537

>  <SCORE.INTRA.DIHEDRAL.0>
22.9177

>  <SCORE.INTRA.POLAR>
-0.411031

>  <SCORE.INTRA.POLAR.0>
-0.311208

>  <SCORE.INTRA.REPUL>
0.0249516

>  <SCORE.INTRA.REPUL.0>
0

>  <SCORE.INTRA.SOLV>
2.42808

>  <SCORE.INTRA.SOLV.lig_0>
-132.657

>  <SCORE.INTRA.VDW>
5.65768

>  <SCORE.INTRA.VDW.0>
-4.68867

>  <SCORE.INTRA.norm>
0.236927

>  <SCORE.RESTR>
13.2829

>  <SCORE.RESTR.CAVITY>
13.2829

>  <SCORE.RESTR.norm>
0.415089

>  <SCORE.SYSTEM>
0

>  <SCORE.SYSTEM.CONST>
0

>  <SCORE.SYSTEM.DIHEDRAL>
0

>  <SCORE.SYSTEM.SOLV>
0

>  <SCORE.SYSTEM.norm>
0

>  <SCORE.heavy>
32

>  <SCORE.norm>
-0.275327

>  <RMSD>
8.389

$$$$
1tob
 OpenBabel11021811413D
libRbt.so/2013.1/901 2013/11/27
 32 34  0  0  0  0  0  0  0  0999 V2000
   -6.5404    5.9704    3.2260 C   0  0  2  0  0  0  0  0  0  0  0  0
   -7.6736    6.9445    2.9125 C   0  0  1  0  0  0  0  0  0  0  0  0
   -7.1173    8.3567    2.7925 C   0  0  2  0  0  0  0  0  0  0  0  0
   -6.3624    8.7130    4.0675 C   0  0  1  0  0  0  0  0  0  0  0  0
   -5.2773    7.6736    4.3352 C   0  0  1  0  0  0  0  0  0  0  0  0
   -4.5396    7.9308    5.6344 C   0  0  0  0  0  0  0  0  0  0  0  0
   -8.3022    6.5724    1.6943 O   0  0  0  0  0  0  0  0  0  0  0  0
   -8.1908    9.3298    2.4959 N   0  3  0  0  0  0  0  0  0  0  0  0
   -5.7812   10.0035    3.9375 O   0  0  0  0  0  0  0  0  0  0  0  0
   -5.8650    6.3579    4.4292 O   0  0  0  0  0  0  0  0  0  0  0  0
   -3.2568    7.3205    5.6324 O   0  0  0  0  0  0  0  0  0  0  0  0
   -4.5575    4.4556    0.6241 C   0  0  2  0  0  0  0  0  0  0  0  0
   -3.7216    3.1872    0.5214 C   0  0  0  0  0  0  0  0  0  0  0  0
   -2.4033    3.3532    1.2777 C   0  0  1  0  0  0  0  0  0  0  0  0
   -2.6878    3.6510    2.7482 C   0  0  2  0  0  0  0  0  0  0  0  0
   -3.5342    4.9190    2.8705 C   0  0  1  0  0  0  0  0  0  0  0  0
   -4.8373    4.7584    2.0881 C   0  0  1  0  0  0  0  0  0  0  0  0
   -5.8488    4.2892   -0.0783 N   0  3  0  0  0  0  0  0  0  0  0  0
   -1.5620    2.1416    1.0987 N   0  3  0  0  0  0  0  0  0  0  0  0
   -3.8203    5.1772    4.2385 O   0  0  0  0  0  0  0  0  0  0  0  0
   -5.6215    5.9604    2.1934 O   0  0  0  0  0  0  0  0  0  0  0  0
   -1.2896    3.0089    4.5912 C   0  0  1  0  0  0  0  0  0  0  0  0
   -0.1172    3.5074    5.4378 C   0  0  1  0  0  0  0  0  0  0  0  0
    1.1817    3.4048    4.6525 C   0  0  0  0  0  0  0  0  0  0  0  0
    1.3640    1.9747    4.1708 C   0  0  1  0  0  0  0  0  0  0  0  0
    0.1454    1.5458    3.3542 C   0  0  1  0  0  0  0  0  0  0  0  0
    0.2318    0.1039    2.8880 C   0  0  0  0  0  0  0  0  0  0  0  0
   -0.3613    4.8838    5.9300 N   0  3  0  0  0  0  0  0  0  0  0  0
   -1.1127   -0.5080    2.7630 N   0  3  0  0  0  0  0  0  0  0  0  0
   -1.4507    3.8143    3.4716 O   0  0  0  0  0  0  0  0  0  0  0  0
    2.5379    1.8759    3.3776 O   0  0  0  0  0  0  0  0  0  0  0  0
   -1.0537    1.6662    4.1498 O   0  0  0  0  0  0  0  0  0  0  0  0
  1  2  1  0  0  0  0
  1 10  1  0  0  0  0
  1 21  1  6  0  0  0
  2  3  1  0  0  0  0
  2  7  1  6  0  0  0
  3  4  1  0  0  0  0
  3  8  1  1  0  0  0
  4  5  1  0  0  0  0
  4  9  1  6  0  0  0
  5  6  1  1  0  0  0
  5 10  1  0  0  0  0
  6 11  1  0  0  0  0
 12 13  1  0  0  0  0
 12 17  1  0  0  0  0
 12 18  1  6  0  0  0
 13 14  1  0  0  0  0
 14 15  1  0  0  0  0
 14 19  1  1  0  0  0
 15 16  1  0  0  0  0
 15 30  1  1  0  0  0
 16 17  1  0  0  0  0
 16 20  1  1  0  0  0
 17 21  1  6  0  0  0
 22 23  1  0  0  0  0
 22 30  1  6  0  0  0
 22 32  1  0  0  0  0
 23 24  1  0  0  0  0
 23 28  1  6  0  0  0
 24 25  1  0  0  0  0
 25 26  1  0  0  0  0
 25 31  1  6  0  0  0
 26 27  1  1  0  0  0
 26 32  1  0  0  0  0
 27 29  1  0  0  0  0
M  CHG  5   8   1  18   1  19   1  28   1  29   1
M  END
>  <CHROM.1>
-155.90446317,-73.52279484,64.93974035,-179.87313087,-157.49745445,-166.73573601
-73.28921350,141.05077601,-125.54374334,77.47474217,145.16278681,-166.55286732
67.43698854,-151.38458250,149.90233069,95.50591370,-3.36426518,4.77364744
3.23484021,2.66872834,-0.56017425,0.73555183

>  <Name>
1tob

>  <RI>
0

>  <Rbt.Current_Directory>
/home/itssahil/PROJECTS/Mol_Feturizer/New_Systems/rnas/1tob

>  <Rbt.Executable>
rbdock ($Id: //depot/dev/client3/rdock/2013.1/src/exe/rbdock.cxx#4 $)

>  <Rbt.Library>
libRbt.so (2013.1, Build901 2013/11/27)

>  <Rbt.Parameter_File>
/export/apps/rDock/src/rDock_2013.1_src/data/scripts/dock_solv.prm

>  <Rbt.Receptor>
prm/blind_docking_20.prm

>  <SCORE>
-9.00472

>  <SCORE.INTER>
-29.8403

>  <SCORE.INTER.CONST>
1

>  <SCORE.INTER.POLAR>
-5.95031

>  <SCORE.INTER.ROT>
6

>  <SCORE.INTER.SOLV>
37.6613

>  <SCORE.INTER.VDW>
-20.2129

>  <SCORE.INTER.norm>
-0.932509

>  <SCORE.INTRA>
8.37469

>  <SCORE.INTRA.DIHEDRAL>
8.17127

>  <SCORE.INTRA.DIHEDRAL.0>
22.9177

>  <SCORE.INTRA.POLAR>
-0.463644

>  <SCORE.INTRA.POLAR.0>
-0.311208

>  <SCORE.INTRA.REPUL>
0

>  <SCORE.INTRA.REPUL.0>
0

>  <SCORE.INTRA.SOLV>
5.08218

>  <SCORE.INTRA.SOLV.lig_0>
-132.657

>  <SCORE.INTRA.VDW>
3.32436

>  <SCORE.INTRA.VDW.0>
-4.68867

>  <SCORE.INTRA.norm>
0.261709

>  <SCORE.RESTR>
12.4609

>  <SCORE.RESTR.CAVITY>
12.4609

>  <SCORE.RESTR.norm>
0.389403

>  <SCORE.SYSTEM>
0

>  <SCORE.SYSTEM.CONST>
0

>  <SCORE.SYSTEM.DIHEDRAL>
0

>  <SCORE.SYSTEM.SOLV>
0

>  <SCORE.SYSTEM.norm>
0

>  <SCORE.heavy>
32

>  <SCORE.norm>
-0.281397

>  <RMSD>
8.404

$$$$
1tob
 OpenBabel11021811413D
libRbt.so/2013.1/901 2013/11/27
 32 34  0  0  0  0  0  0  0  0999 V2000
   -6.5916    6.1145    3.2110 C   0  0  2  0  0  0  0  0  0  0  0  0
   -7.6465    7.1783    2.9165 C   0  0  1  0  0  0  0  0  0  0  0  0
   -6.9839    8.5462    2.8264 C   0  0  2  0  0  0  0  0  0  0  0  0
   -6.2073    8.8176    4.1093 C   0  0  1  0  0  0  0  0  0  0  0  0
   -5.2053    7.6932    4.3564 C   0  0  1  0  0  0  0  0  0  0  0  0
   -4.4535    7.8666    5.6615 C   0  0  0  0  0  0  0  0  0  0  0  0
   -8.2985    6.8803    1.6902 O   0  0  0  0  0  0  0  0  0  0  0  0
   -7.9794    9.6042    2.5489 N   0  3  0  0  0  0  0  0  0  0  0  0
   -5.5292   10.0624    4.0066 O   0  0  0  0  0  0  0  0  0  0  0  0
   -5.8918    6.4245    4.4226 O   0  0  0  0  0  0  0  0  0  0  0  0
   -5.3047    8.3514    6.6903 O   0  0  0  0  0  0  0  0  0  0  0  0
   -4.6611    4.4850    0.6406 C   0  0  2  0  0  0  0  0  0  0  0  0
   -3.8646    3.1897    0.5637 C   0  0  0  0  0  0  0  0  0  0  0  0
   -2.5392    3.3321    1.3126 C   0  0  1  0  0  0  0  0  0  0  0  0
   -2.8094    3.6707    2.7768 C   0  0  2  0  0  0  0  0  0  0  0  0
   -3.6165    4.9663    2.8734 C   0  0  1  0  0  0  0  0  0  0  0  0
   -4.9265    4.8283    2.0984 C   0  0  1  0  0  0  0  0  0  0  0  0
   -5.9593    4.3425   -0.0543 N   0  3  0  0  0  0  0  0  0  0  0  0
   -1.7357    2.0917    1.1580 N   0  3  0  0  0  0  0  0  0  0  0  0
   -3.8899    5.2632    4.2362 O   0  0  0  0  0  0  0  0  0  0  0  0
   -5.6735    6.0556    2.1793 O   0  0  0  0  0  0  0  0  0  0  0  0
   -1.4132    3.0058    4.6132 C   0  0  1  0  0  0  0  0  0  0  0  0
   -0.1974    3.4533    5.4265 C   0  0  1  0  0  0  0  0  0  0  0  0
    1.0746    3.2862    4.6089 C   0  0  0  0  0  0  0  0  0  0  0  0
    1.1777    1.8467    4.1316 C   0  0  1  0  0  0  0  0  0  0  0  0
   -0.0802    1.4711    3.3493 C   0  0  1  0  0  0  0  0  0  0  0  0
   -0.0731    0.0243    2.8900 C   0  0  0  0  0  0  0  0  0  0  0  0
   -0.3644    4.8422    5.9161 N   0  3  0  0  0  0  0  0  0  0  0  0
   -1.4459   -0.5311    2.8230 N   0  3  0  0  0  0  0  0  0  0  0  0
   -1.5654    3.8121    3.4931 O   0  0  0  0  0  0  0  0  0  0  0  0
    2.3248    1.6892    3.3094 O   0  0  0  0  0  0  0  0  0  0  0  0
   -1.2515    1.6514    4.1744 O   0  0  0  0  0  0  0  0  0  0  0  0
  1  2  1  0  0  0  0
  1 10  1  0  0  0  0
  1 21  1  6  0  0  0
  2  3  1  0  0  0  0
  2  7  1  6  0  0  0
  3  4  1  0  0  0  0
  3  8  1  1  0  0  0
  4  5  1  0  0  0  0
  4  9  1  6  0  0  0
  5  6  1  1  0  0  0
  5 10  1  0  0  0  0
  6 11  1  0  0  0  0
 12 13  1  0  0  0  0
 12 17  1  0  0  0  0
 12 18  1  6  0  0  0
 13 14  1  0  0  0  0
 14 15  1  0  0  0  0
 14 19  1  1  0  0  0
 15 16  1  0  0  0  0
 15 30  1  1  0  0  0
 16 17  1  0  0  0  0
 16 20  1  1  0  0  0
 17 21  1  6  0  0  0
 22 23  1  0  0  0  0
 22 30  1  6  0  0  0
 22 32  1  0  0  0  0
 23 24  1  0  0  0  0
 23 28  1  6  0  0  0
 24 25  1  0  0  0  0
 25 26  1  0  0  0  0
 25 31  1  6  0  0  0
 26 27  1  1  0  0  0
 26 32  1  0  0  0  0
 27 29  1  0  0  0  0
M  CHG  5   8   1  18   1  19   1  28   1  29   1
M  END
>  <CHROM.1>
-159.40320118,-66.94065804,78.38658936,70.72473348,39.25140507,-107.32711375
45.55141589,-92.85201698,-124.19317399,65.59012833,144.93316214,-168.53863328
-167.27549052,-54.29631272,149.04002376,-142.06575908,-3.50557163,4.84716807
3.28122172,2.63062274,-0.59279463,0.76355462

>  <Name>
1tob

>  <RI>
0

>  <Rbt.Current_Directory>
/home/itssahil/PROJECTS/Mol_Feturizer/New_Systems/rnas/1tob

>  <Rbt.Executable>
rbdock ($Id: //depot/dev/client3/rdock/2013.1/src/exe/rbdock.cxx#4 $)

>  <Rbt.Library>
libRbt.so (2013.1, Build901 2013/11/27)

>  <Rbt.Parameter_File>
/export/apps/rDock/src/rDock_2013.1_src/data/scripts/dock_solv.prm

>  <Rbt.Receptor>
prm/blind_docking_100.prm

>  <SCORE>
-7.4139

>  <SCORE.INTER>
-32.3021

>  <SCORE.INTER.CONST>
1

>  <SCORE.INTER.POLAR>
-6.03508

>  <SCORE.INTER.ROT>
6

>  <SCORE.INTER.SOLV>
38.9895

>  <SCORE.INTER.VDW>
-22.0143

>  <SCORE.INTER.norm>
-1.00944

>  <SCORE.INTRA>
10.7211

>  <SCORE.INTRA.DIHEDRAL>
9.08159

>  <SCORE.INTRA.DIHEDRAL.0>
22.9177

>  <SCORE.INTRA.POLAR>
-0.128122

>  <SCORE.INTRA.POLAR.0>
-0.311208

>  <SCORE.INTRA.REPUL>
0

>  <SCORE.INTRA.REPUL.0>
0

>  <SCORE.INTRA.SOLV>
4.9786

>  <SCORE.INTRA.SOLV.lig_0>
-132.657

>  <SCORE.INTRA.VDW>
4.12663

>  <SCORE.INTRA.VDW.0>
-4.68867

>  <SCORE.INTRA.norm>
0.335035

>  <SCORE.RESTR>
14.1671

>  <SCORE.RESTR.CAVITY>
14.1671

>  <SCORE.RESTR.norm>
0.44272

>  <SCORE.SYSTEM>
0

>  <SCORE.SYSTEM.CONST>
0

>  <SCORE.SYSTEM.DIHEDRAL>
0

>  <SCORE.SYSTEM.SOLV>
0

>  <SCORE.SYSTEM.norm>
0

>  <SCORE.heavy>
32

>  <SCORE.norm>
-0.231684

>  <RMSD>
8.409

$$$$
1tob
 OpenBabel11021811413D
libRbt.so/2013.1/901 2013/11/27
 32 34  0  0  0  0  0  0  0  0999 V2000
   -3.7979    6.0201    0.6831 C   0  0  2  0  0  0  0  0  0  0  0  0
   -3.7109    7.5070    0.3473 C   0  0  1  0  0  0  0  0  0  0  0  0
   -2.7463    8.1933    1.3048 C   0  0  2  0  0  0  0  0  0  0  0  0
   -3.1870    7.9323    2.7402 C   0  0  1  0  0  0  0  0  0  0  0  0
   -3.2907    6.4295    2.9856 C   0  0  1  0  0  0  0  0  0  0  0  0
   -3.8003    6.1056    4.3762 C   0  0  0  0  0  0  0  0  0  0  0  0
   -3.2572    7.6710   -0.9887 O   0  0  0  0  0  0  0  0  0  0  0  0
   -2.6429    9.6394    1.0129 N   0  3  0  0  0  0  0  0  0  0  0  0
   -2.2539    8.5113    3.6425 O   0  0  0  0  0  0  0  0  0  0  0  0
   -4.2105    5.8367    2.0433 O   0  0  0  0  0  0  0  0  0  0  0  0
   -5.1176    6.5989    4.5742 O   0  0  0  0  0  0  0  0  0  0  0  0
   -3.0566    3.0659    0.7787 C   0  0  2  0  0  0  0  0  0  0  0  0
   -2.7959    1.8530    1.6614 C   0  0  0  0  0  0  0  0  0  0  0  0
   -1.2970    1.5624    1.7411 C   0  0  1  0  0  0  0  0  0  0  0  0
   -0.5684    2.7727    2.3207 C   0  0  2  0  0  0  0  0  0  0  0  0
   -0.8257    4.0039    1.4504 C   0  0  1  0  0  0  0  0  0  0  0  0
   -2.3270    4.2719    1.3501 C   0  0  1  0  0  0  0  0  0  0  0  0
   -4.5030    3.3719    0.7244 N   0  3  0  0  0  0  0  0  0  0  0  0
   -1.0631    0.3281    2.5348 N   0  3  0  0  0  0  0  0  0  0  0  0
   -0.1689    5.1341    2.0084 O   0  0  0  0  0  0  0  0  0  0  0  0
   -2.5632    5.4211    0.5168 O   0  0  0  0  0  0  0  0  0  0  0  0
    1.5811    3.3646    3.2114 C   0  0  1  0  0  0  0  0  0  0  0  0
    2.7229    2.6016    3.8852 C   0  0  1  0  0  0  0  0  0  0  0  0
    2.1674    1.5185    4.7975 C   0  0  0  0  0  0  0  0  0  0  0  0
    1.2056    2.1467    5.7929 C   0  0  1  0  0  0  0  0  0  0  0  0
    0.1109    2.9060    5.0440 C   0  0  1  0  0  0  0  0  0  0  0  0
   -0.8561    3.6105    5.9782 C   0  0  0  0  0  0  0  0  0  0  0  0
    3.6641    2.0527    2.8806 N   0  3  0  0  0  0  0  0  0  0  0  0
   -0.1518    4.5571    6.8757 N   0  3  0  0  0  0  0  0  0  0  0  0
    0.8482    2.5119    2.3967 O   0  0  0  0  0  0  0  0  0  0  0  0
    0.6252    1.1395    6.6087 O   0  0  0  0  0  0  0  0  0  0  0  0
    0.6978    3.9165    4.1956 O   0  0  0  0  0  0  0  0  0  0  0  0
  1  2  1  0  0  0  0
  1 10  1  0  0  0  0
  1 21  1  1  0  0  0
  2  3  1  0  0  0  0
  2  7  1  6  0  0  0
  3  4  1  0  0  0  0
  3  8  1  6  0  0  0
  4  5  1  0  0  0  0
  4  9  1  1  0  0  0
  5  6  1  1  0  0  0
  5 10  1  0  0  0  0
  6 11  1  0  0  0  0
 12 13  1  0  0  0  0
 12 17  1  0  0  0  0
 12 18  1  1  0  0  0
 13 14  1  0  0  0  0
 14 15  1  0  0  0  0
 14 19  1  1  0  0  0
 15 16  1  0  0  0  0
 15 30  1  6  0  0  0
 16 17  1  0  0  0  0
 16 20  1  1  0  0  0
 17 21  1  6  0  0  0
 22 23  1  0  0  0  0
 22 30  1  6  0  0  0
 22 32  1  0  0  0  0
 23 24  1  0  0  0  0
 23 28  1  6  0  0  0
 24 25  1  0  0  0  0
 25 26  1  0  0  0  0
 25 31  1  6  0  0  0
 26 27  1  1  0  0  0
 26 32  1  0  0  0  0
 27 29  1  0  0  0  0
M  CHG  5   8   1  18   1  19   1  28   1  29   1
M  END
>  <CHROM.1>
151.84067267,64.09951093,-161.97754726,-60.93941120,62.64444997,-63.26129191
-155.93073154,-54.13422340,-163.77716482,-176.81722850,77.66034468,145.47856894
55.88071431,68.18858514,57.53558267,121.02891698,-1.39524831,4.48454635,2.81019085
2.95487861,-0.88405603,0.80593286

>  <Name>
1tob

>  <RI>
0

>  <Rbt.Current_Directory>
/home/itssahil/PROJECTS/Mol_Feturizer/New_Systems/rnas/1tob

>  <Rbt.Executable>
rbdock ($Id: //depot/dev/client3/rdock/2013.1/src/exe/rbdock.cxx#4 $)

>  <Rbt.Library>
libRbt.so (2013.1, Build901 2013/11/27)

>  <Rbt.Parameter_File>
/export/apps/rDock/src/rDock_2013.1_src/data/scripts/dock_solv.prm

>  <Rbt.Receptor>
prm/blind_docking_40.prm

>  <SCORE>
-32.4974

>  <SCORE.INTER>
-39.4841

>  <SCORE.INTER.CONST>
1

>  <SCORE.INTER.POLAR>
-4.49439

>  <SCORE.INTER.ROT>
6

>  <SCORE.INTER.SOLV>
29.9409

>  <SCORE.INTER.VDW>
-28.9217

>  <SCORE.INTER.norm>
-1.23388

>  <SCORE.INTRA>
0.242065

>  <SCORE.INTRA.DIHEDRAL>
-6.09265

>  <SCORE.INTRA.DIHEDRAL.0>
22.9177

>  <SCORE.INTRA.POLAR>
-0.479061

>  <SCORE.INTRA.POLAR.0>
-0.311208

>  <SCORE.INTRA.REPUL>
0

>  <SCORE.INTRA.REPUL.0>
0

>  <SCORE.INTRA.SOLV>
-1.73635

>  <SCORE.INTRA.SOLV.lig_0>
-132.657

>  <SCORE.INTRA.VDW>
5.78537

>  <SCORE.INTRA.VDW.0>
-4.68867

>  <SCORE.INTRA.norm>
0.00756453

>  <SCORE.RESTR>
6.74469

>  <SCORE.RESTR.CAVITY>
6.74469

>  <SCORE.RESTR.norm>
0.210771

>  <SCORE.SYSTEM>
0

>  <SCORE.SYSTEM.CONST>
0

>  <SCORE.SYSTEM.DIHEDRAL>
0

>  <SCORE.SYSTEM.SOLV>
0

>  <SCORE.SYSTEM.norm>
0

>  <SCORE.heavy>
32

>  <SCORE.norm>
-1.01554

>  <RMSD>
8.425

$$$$
1tob
 OpenBabel11021811413D
libRbt.so/2013.1/901 2013/11/27
 32 34  0  0  0  0  0  0  0  0999 V2000
   -6.7133    8.6204    2.6988 C   0  0  2  0  0  0  0  0  0  0  0  0
   -6.6110    9.5801    3.8820 C   0  0  1  0  0  0  0  0  0  0  0  0
   -8.0014   10.0614    4.2734 C   0  0  2  0  0  0  0  0  0  0  0  0
   -8.6817   10.6836    3.0599 C   0  0  1  0  0  0  0  0  0  0  0  0
   -8.7079    9.6809    1.9095 C   0  0  1  0  0  0  0  0  0  0  0  0
   -9.3048   10.2681    0.6456 C   0  0  0  0  0  0  0  0  0  0  0  0
   -6.0050    8.9196    4.9839 O   0  0  0  0  0  0  0  0  0  0  0  0
   -7.9396   11.0007    5.4142 N   0  3  0  0  0  0  0  0  0  0  0  0
  -10.0058   11.0736    3.3983 O   0  0  0  0  0  0  0  0  0  0  0  0
   -7.3645    9.2568    1.5921 O   0  0  0  0  0  0  0  0  0  0  0  0
   -8.5534   11.3827    0.1860 O   0  0  0  0  0  0  0  0  0  0  0  0
   -7.3431    6.2170    1.0056 C   0  0  2  0  0  0  0  0  0  0  0  0
   -6.8449    4.9083    0.4079 C   0  0  0  0  0  0  0  0  0  0  0  0
   -5.3306    4.7851    0.5785 C   0  0  1  0  0  0  0  0  0  0  0  0
   -4.9749    4.8282    2.0629 C   0  0  2  0  0  0  0  0  0  0  0  0
   -5.4752    6.1339    2.6826 C   0  0  1  0  0  0  0  0  0  0  0  0
   -6.9847    6.2657    2.4830 C   0  0  1  0  0  0  0  0  0  0  0  0
   -8.8123    6.3268    0.8728 N   0  3  0  0  0  0  0  0  0  0  0  0
   -4.8467    3.5456   -0.0830 N   0  3  0  0  0  0  0  0  0  0  0  0
   -5.1670    6.1580    4.0699 O   0  0  0  0  0  0  0  0  0  0  0  0
   -7.4465    7.5035    3.0534 O   0  0  0  0  0  0  0  0  0  0  0  0
   -3.1149    4.3528    3.5046 C   0  0  1  0  0  0  0  0  0  0  0  0
   -2.0362    5.3204    3.9947 C   0  0  1  0  0  0  0  0  0  0  0  0
   -0.8129    5.2469    3.0933 C   0  0  0  0  0  0  0  0  0  0  0  0
   -0.3298    3.8075    3.0210 C   0  0  1  0  0  0  0  0  0  0  0  0
   -1.4676    2.9045    2.5461 C   0  0  1  0  0  0  0  0  0  0  0  0
   -1.0733    1.4392    2.5057 C   0  0  0  0  0  0  0  0  0  0  0  0
   -2.5655    6.7005    4.1011 N   0  3  0  0  0  0  0  0  0  0  0  0
   -2.2196    0.5786    2.1274 N   0  3  0  0  0  0  0  0  0  0  0  0
   -3.5473    4.7173    2.2364 O   0  0  0  0  0  0  0  0  0  0  0  0
    0.7710    3.7095    2.1291 O   0  0  0  0  0  0  0  0  0  0  0  0
   -2.5979    3.0181    3.4377 O   0  0  0  0  0  0  0  0  0  0  0  0
  1  2  1  0  0  0  0
  1 10  1  0  0  0  0
  1 21  1  1  0  0  0
  2  3  1  0  0  0  0
  2  7  1  1  0  0  0
  3  4  1  0  0  0  0
  3  8  1  1  0  0  0
  4  5  1  0  0  0  0
  4  9  1  1  0  0  0
  5  6  1  6  0  0  0
  5 10  1  0  0  0  0
  6 11  1  0  0  0  0
 12 13  1  0  0  0  0
 12 17  1  0  0  0  0
 12 18  1  1  0  0  0
 13 14  1  0  0  0  0
 14 15  1  0  0  0  0
 14 19  1  1  0  0  0
 15 16  1  0  0  0  0
 15 30  1  6  0  0  0
 16 17  1  0  0  0  0
 16 20  1  1  0  0  0
 17 21  1  6  0  0  0
 22 23  1  0  0  0  0
 22 30  1  6  0  0  0
 22 32  1  0  0  0  0
 23 24  1  0  0  0  0
 23 28  1  6  0  0  0
 24 25  1  0  0  0  0
 25 26  1  0  0  0  0
 25 31  1  6  0  0  0
 26 27  1  1  0  0  0
 26 32  1  0  0  0  0
 27 29  1  0  0  0  0
M  CHG  5   8   1  18   1  19   1  28   1  29   1
M  END
>  <CHROM.1>
-143.13388281,139.73615316,178.68619436,-50.84744378,60.81542639,179.74976899
-75.27746827,75.43724482,-161.85261233,-58.17477519,-73.60217613,-129.47639204
39.89519916,-67.82256499,176.29107198,-170.23722067,-5.33175705,6.54576160
2.56443322,-2.54549191,0.55530377,-2.46570217

>  <Name>
1tob

>  <RI>
0

>  <Rbt.Current_Directory>
/home/itssahil/PROJECTS/Mol_Feturizer/New_Systems/rnas/1tob

>  <Rbt.Executable>
rbdock ($Id: //depot/dev/client3/rdock/2013.1/src/exe/rbdock.cxx#4 $)

>  <Rbt.Library>
libRbt.so (2013.1, Build901 2013/11/27)

>  <Rbt.Parameter_File>
/export/apps/rDock/src/rDock_2013.1_src/data/scripts/dock_solv.prm

>  <Rbt.Receptor>
prm/pocket_docking_2.prm

>  <SCORE>
-41.1586

>  <SCORE.INTER>
-40.734

>  <SCORE.INTER.CONST>
1

>  <SCORE.INTER.POLAR>
-7.65252

>  <SCORE.INTER.ROT>
6

>  <SCORE.INTER.SOLV>
36.6658

>  <SCORE.INTER.VDW>
-21.4695

>  <SCORE.INTER.norm>
-1.27294

>  <SCORE.INTRA>
-1.98346

>  <SCORE.INTRA.DIHEDRAL>
-0.439

>  <SCORE.INTRA.DIHEDRAL.0>
22.9177

>  <SCORE.INTRA.POLAR>
-0.7645

>  <SCORE.INTRA.POLAR.0>
-0.311208

>  <SCORE.INTRA.REPUL>
0.0951023

>  <SCORE.INTRA.REPUL.0>
0

>  <SCORE.INTRA.SOLV>
-1.11628

>  <SCORE.INTRA.SOLV.lig_0>
-132.657

>  <SCORE.INTRA.VDW>
0.917973

>  <SCORE.INTRA.VDW.0>
-4.68867

>  <SCORE.INTRA.norm>
-0.061983

>  <SCORE.RESTR>
1.55881

>  <SCORE.RESTR.CAVITY>
1.55881

>  <SCORE.RESTR.norm>
0.0487129

>  <SCORE.SYSTEM>
0

>  <SCORE.SYSTEM.CONST>
0

>  <SCORE.SYSTEM.DIHEDRAL>
0

>  <SCORE.SYSTEM.SOLV>
0

>  <SCORE.SYSTEM.norm>
0

>  <SCORE.heavy>
32

>  <SCORE.norm>
-1.28621

>  <RMSD>
8.436

$$$$
1tob
 OpenBabel11021811413D
libRbt.so/2013.1/901 2013/11/27
 32 34  0  0  0  0  0  0  0  0999 V2000
   -6.9727    9.0350    2.5501 C   0  0  2  0  0  0  0  0  0  0  0  0
   -8.4668    8.8286    2.7878 C   0  0  1  0  0  0  0  0  0  0  0  0
   -9.2580    9.4414    1.6403 C   0  0  2  0  0  0  0  0  0  0  0  0
   -8.8767   10.9093    1.4901 C   0  0  1  0  0  0  0  0  0  0  0  0
   -7.3679   11.0360    1.2987 C   0  0  1  0  0  0  0  0  0  0  0  0
   -6.9155   12.4809    1.2199 C   0  0  0  0  0  0  0  0  0  0  0  0
   -8.7505    7.4397    2.8771 O   0  0  0  0  0  0  0  0  0  0  0  0
  -10.7127    9.2662    1.8416 N   0  3  0  0  0  0  0  0  0  0  0  0
   -9.5594   11.4719    0.3777 O   0  0  0  0  0  0  0  0  0  0  0  0
   -6.6754   10.4301    2.4115 O   0  0  0  0  0  0  0  0  0  0  0  0
   -5.5120   12.5751    1.0214 O   0  0  0  0  0  0  0  0  0  0  0  0
   -6.3885    6.2959    0.1909 C   0  0  2  0  0  0  0  0  0  0  0  0
   -6.0875    4.8128    0.3584 C   0  0  0  0  0  0  0  0  0  0  0  0
   -4.6939    4.6144    0.9550 C   0  0  1  0  0  0  0  0  0  0  0  0
   -4.6144    5.3011    2.3166 C   0  0  2  0  0  0  0  0  0  0  0  0
   -4.9221    6.7920    2.1688 C   0  0  1  0  0  0  0  0  0  0  0  0
   -6.3040    6.9840    1.5447 C   0  0  1  0  0  0  0  0  0  0  0  0
   -7.7488    6.4950   -0.3553 N   0  3  0  0  0  0  0  0  0  0  0  0
   -4.3799    3.1641    1.0340 N   0  3  0  0  0  0  0  0  0  0  0  0
   -4.8747    7.4223    3.4418 O   0  0  0  0  0  0  0  0  0  0  0  0
   -6.5806    8.3880    1.3932 O   0  0  0  0  0  0  0  0  0  0  0  0
   -3.2338    4.3249    4.0208 C   0  0  1  0  0  0  0  0  0  0  0  0
   -2.2743    4.9362    5.0434 C   0  0  1  0  0  0  0  0  0  0  0  0
   -0.8633    4.9885    4.4772 C   0  0  0  0  0  0  0  0  0  0  0  0
   -0.4491    3.5944    4.0351 C   0  0  1  0  0  0  0  0  0  0  0  0
   -1.4663    3.0468    3.0346 C   0  0  1  0  0  0  0  0  0  0  0  0
   -1.1474    1.6302    2.5923 C   0  0  0  0  0  0  0  0  0  0  0  0
   -2.7449    6.2700    5.4861 N   0  3  0  0  0  0  0  0  0  0  0  0
   -2.3650    0.9150    2.1411 N   0  3  0  0  0  0  0  0  0  0  0  0
   -3.3018    5.1245    2.8876 O   0  0  0  0  0  0  0  0  0  0  0  0
    0.8402    3.6370    3.4411 O   0  0  0  0  0  0  0  0  0  0  0  0
   -2.7832    3.0230    3.6268 O   0  0  0  0  0  0  0  0  0  0  0  0
  1  2  1  0  0  0  0
  1 10  1  0  0  0  0
  1 21  1  6  0  0  0
  2  3  1  0  0  0  0
  2  7  1  6  0  0  0
  3  4  1  0  0  0  0
  3  8  1  1  0  0  0
  4  5  1  0  0  0  0
  4  9  1  6  0  0  0
  5  6  1  1  0  0  0
  5 10  1  0  0  0  0
  6 11  1  0  0  0  0
 12 13  1  0  0  0  0
 12 17  1  0  0  0  0
 12 18  1  1  0  0  0
 13 14  1  0  0  0  0
 14 15  1  0  0  0  0
 14 19  1  1  0  0  0
 15 16  1  0  0  0  0
 15 30  1  6  0  0  0
 16 17  1  0  0  0  0
 16 20  1  1  0  0  0
 17 21  1  6  0  0  0
 22 23  1  0  0  0  0
 22 30  1  6  0  0  0
 22 32  1  0  0  0  0
 23 24  1  0  0  0  0
 23 28  1  6  0  0  0
 24 25  1  0  0  0  0
 25 26  1  0  0  0  0
 25 31  1  6  0  0  0
 26 27  1  1  0  0  0
 26 32  1  0  0  0  0
 27 29  1  0  0  0  0
M  CHG  5   8   1  18   1  19   1  28   1  29   1
M  END
>  <CHROM.1>
-82.84079912,58.10497474,74.54491294,-67.89013546,-179.10631444,-171.14992560
-73.18471188,-35.75629071,-112.28698157,164.15688239,159.36246038,-138.83446010
-38.67590513,-60.28526349,154.91932922,91.46514710,-5.18806177,6.71909914
2.28196581,-2.43047587,0.48831294,-2.90351186

>  <Name>
1tob

>  <RI>
0

>  <Rbt.Current_Directory>
/home/itssahil/PROJECTS/Mol_Feturizer/New_Systems/rnas/1tob

>  <Rbt.Executable>
rbdock ($Id: //depot/dev/client3/rdock/2013.1/src/exe/rbdock.cxx#4 $)

>  <Rbt.Library>
libRbt.so (2013.1, Build901 2013/11/27)

>  <Rbt.Parameter_File>
/export/apps/rDock/src/rDock_2013.1_src/data/scripts/dock_solv.prm

>  <Rbt.Receptor>
prm/pocket_docking_3.prm

>  <SCORE>
-38.7145

>  <SCORE.INTER>
-37.3009

>  <SCORE.INTER.CONST>
1

>  <SCORE.INTER.POLAR>
-6.78107

>  <SCORE.INTER.ROT>
6

>  <SCORE.INTER.SOLV>
24.3717

>  <SCORE.INTER.VDW>
-17.9876

>  <SCORE.INTER.norm>
-1.16565

>  <SCORE.INTRA>
-1.41363

>  <SCORE.INTRA.DIHEDRAL>
2.55607

>  <SCORE.INTRA.DIHEDRAL.0>
22.9177

>  <SCORE.INTRA.POLAR>
-1.4803

>  <SCORE.INTRA.POLAR.0>
-0.311208

>  <SCORE.INTRA.REPUL>
0

>  <SCORE.INTRA.REPUL.0>
0

>  <SCORE.INTRA.SOLV>
3.4308

>  <SCORE.INTRA.SOLV.lig_0>
-132.657

>  <SCORE.INTRA.VDW>
0.625951

>  <SCORE.INTRA.VDW.0>
-4.68867

>  <SCORE.INTRA.norm>
-0.044176

>  <SCORE.RESTR>
0

>  <SCORE.RESTR.CAVITY>
0

>  <SCORE.RESTR.norm>
0

>  <SCORE.SYSTEM>
0

>  <SCORE.SYSTEM.CONST>
0

>  <SCORE.SYSTEM.DIHEDRAL>
0

>  <SCORE.SYSTEM.SOLV>
0

>  <SCORE.SYSTEM.norm>
0

>  <SCORE.heavy>
32

>  <SCORE.norm>
-1.20983

>  <RMSD>
8.439

$$$$
1tob
 OpenBabel11021811413D
libRbt.so/2013.1/901 2013/11/27
 32 34  0  0  0  0  0  0  0  0999 V2000
   -3.3031    6.6638    1.7725 C   0  0  2  0  0  0  0  0  0  0  0  0
   -4.1465    7.5858    0.8950 C   0  0  1  0  0  0  0  0  0  0  0  0
   -5.5367    6.9915    0.7146 C   0  0  2  0  0  0  0  0  0  0  0  0
   -5.4145    5.5810    0.1504 C   0  0  1  0  0  0  0  0  0  0  0  0
   -4.5257    4.7349    1.0578 C   0  0  1  0  0  0  0  0  0  0  0  0
   -4.3023    3.3396    0.5085 C   0  0  0  0  0  0  0  0  0  0  0  0
   -4.2481    8.8655    1.5031 O   0  0  0  0  0  0  0  0  0  0  0  0
   -6.3804    7.8565   -0.1382 N   0  3  0  0  0  0  0  0  0  0  0  0
   -6.7039    4.9928    0.0431 O   0  0  0  0  0  0  0  0  0  0  0  0
   -3.2284    5.3537    1.1962 O   0  0  0  0  0  0  0  0  0  0  0  0
   -4.1321    2.3919    1.5530 O   0  0  0  0  0  0  0  0  0  0  0  0
   -3.6807    6.6063    5.4429 C   0  0  2  0  0  0  0  0  0  0  0  0
   -2.6820    6.6173    6.5921 C   0  0  0  0  0  0  0  0  0  0  0  0
   -1.7876    5.3786    6.5347 C   0  0  1  0  0  0  0  0  0  0  0  0
   -1.0298    5.3521    5.2092 C   0  0  2  0  0  0  0  0  0  0  0  0
   -2.0181    5.3488    4.0420 C   0  0  1  0  0  0  0  0  0  0  0  0
   -2.9289    6.5736    4.1212 C   0  0  1  0  0  0  0  0  0  0  0  0
   -4.5272    7.8192    5.4742 N   0  3  0  0  0  0  0  0  0  0  0  0
   -0.8758    5.3588    7.7078 N   0  3  0  0  0  0  0  0  0  0  0  0
   -1.3090    5.3524    2.8102 O   0  0  0  0  0  0  0  0  0  0  0  0
   -3.8669    6.5561    3.0300 O   0  0  0  0  0  0  0  0  0  0  0  0
   -0.7576    2.9942    5.5700 C   0  0  1  0  0  0  0  0  0  0  0  0
    0.3149    2.0689    6.1474 C   0  0  1  0  0  0  0  0  0  0  0  0
    1.3209    1.6912    5.0706 C   0  0  0  0  0  0  0  0  0  0  0  0
    0.5846    1.0807    3.8892 C   0  0  1  0  0  0  0  0  0  0  0  0
   -0.4806    2.0542    3.3860 C   0  0  1  0  0  0  0  0  0  0  0  0
   -1.2979    1.4859    2.2401 C   0  0  0  0  0  0  0  0  0  0  0  0
    0.9688    2.6810    7.3281 N   0  3  0  0  0  0  0  0  0  0  0  0
   -2.4095    0.6384    2.7339 N   0  3  0  0  0  0  0  0  0  0  0  0
   -0.1855    4.1846    5.1415 O   0  0  0  0  0  0  0  0  0  0  0  0
    1.5019    0.7848    2.8462 O   0  0  0  0  0  0  0  0  0  0  0  0
   -1.4027    2.3759    4.4498 O   0  0  0  0  0  0  0  0  0  0  0  0
  1  2  1  0  0  0  0
  1 10  1  0  0  0  0
  1 21  1  1  0  0  0
  2  3  1  0  0  0  0
  2  7  1  1  0  0  0
  3  4  1  0  0  0  0
  3  8  1  6  0  0  0
  4  5  1  0  0  0  0
  4  9  1  1  0  0  0
  5  6  1  6  0  0  0
  5 10  1  0  0  0  0
  6 11  1  0  0  0  0
 12 13  1  0  0  0  0
 12 17  1  0  0  0  0
 12 18  1  6  0  0  0
 13 14  1  0  0  0  0
 14 15  1  0  0  0  0
 14 19  1  1  0  0  0
 15 16  1  0  0  0  0
 15 30  1  1  0  0  0
 16 17  1  0  0  0  0
 16 20  1  6  0  0  0
 17 21  1  6  0  0  0
 22 23  1  0  0  0  0
 22 30  1  6  0  0  0
 22 32  1  0  0  0  0
 23 24  1  0  0  0  0
 23 28  1  1  0  0  0
 24 25  1  0  0  0  0
 25 26  1  0  0  0  0
 25 31  1  6  0  0  0
 26 27  1  6  0  0  0
 26 32  1  0  0  0  0
 27 29  1  0  0  0  0
M  CHG  5   8   1  18   1  19   1  28   1  29   1
M  END
>  <CHROM.1>
-139.07521634,177.58403173,-64.81166409,-56.24914477,-148.97989992,-178.40587650
-59.89577661,-146.93834253,43.80812927,-76.10073750,173.67932192,-150.04460602
175.01680350,66.75632084,83.82805211,-155.94880398,-2.47106339,4.60249786
3.39438658,-3.09943237,0.84723893,-2.39184675

>  <Name>
1tob

>  <RI>
0

>  <Rbt.Current_Directory>
/home/itssahil/PROJECTS/Mol_Feturizer/New_Systems/rnas/1tob

>  <Rbt.Executable>
rbdock ($Id: //depot/dev/client3/rdock/2013.1/src/exe/rbdock.cxx#4 $)

>  <Rbt.Library>
libRbt.so (2013.1, Build901 2013/11/27)

>  <Rbt.Parameter_File>
/export/apps/rDock/src/rDock_2013.1_src/data/scripts/dock_solv.prm

>  <Rbt.Receptor>
prm/blind_docking_20.prm

>  <SCORE>
-9.16289

>  <SCORE.INTER>
-21.0337

>  <SCORE.INTER.CONST>
1

>  <SCORE.INTER.POLAR>
-5.01166

>  <SCORE.INTER.ROT>
6

>  <SCORE.INTER.SOLV>
30.7667

>  <SCORE.INTER.VDW>
-15.1725

>  <SCORE.INTER.norm>
-0.657305

>  <SCORE.INTRA>
3.34286

>  <SCORE.INTRA.DIHEDRAL>
-2.6984

>  <SCORE.INTRA.DIHEDRAL.0>
22.9177

>  <SCORE.INTRA.POLAR>
-0.171006

>  <SCORE.INTRA.POLAR.0>
-0.311208

>  <SCORE.INTRA.REPUL>
0.125489

>  <SCORE.INTRA.REPUL.0>
0

>  <SCORE.INTRA.SOLV>
3.37862

>  <SCORE.INTRA.SOLV.lig_0>
-132.657

>  <SCORE.INTRA.VDW>
2.95672

>  <SCORE.INTRA.VDW.0>
-4.68867

>  <SCORE.INTRA.norm>
0.104464

>  <SCORE.RESTR>
8.528

>  <SCORE.RESTR.CAVITY>
8.528

>  <SCORE.RESTR.norm>
0.2665

>  <SCORE.SYSTEM>
0

>  <SCORE.SYSTEM.CONST>
0

>  <SCORE.SYSTEM.DIHEDRAL>
0

>  <SCORE.SYSTEM.SOLV>
0

>  <SCORE.SYSTEM.norm>
0

>  <SCORE.heavy>
32

>  <SCORE.norm>
-0.28634

>  <RMSD>
8.444

$$$$
1tob
 OpenBabel11021811413D
libRbt.so/2013.1/901 2013/11/27
 32 34  0  0  0  0  0  0  0  0999 V2000
   -5.7448    6.8017    2.7984 C   0  0  2  0  0  0  0  0  0  0  0  0
   -7.0147    6.3626    2.0733 C   0  0  1  0  0  0  0  0  0  0  0  0
   -6.7558    5.0595    1.3294 C   0  0  2  0  0  0  0  0  0  0  0  0
   -5.5676    5.2395    0.3923 C   0  0  1  0  0  0  0  0  0  0  0  0
   -4.3524    5.7182    1.1818 C   0  0  1  0  0  0  0  0  0  0  0  0
   -3.1560    5.9901    0.2912 C   0  0  0  0  0  0  0  0  0  0  0  0
   -8.0636    6.1773    3.0130 O   0  0  0  0  0  0  0  0  0  0  0  0
   -7.9651    4.6075    0.6079 N   0  3  0  0  0  0  0  0  0  0  0  0
   -5.2754    4.0086   -0.2555 O   0  0  0  0  0  0  0  0  0  0  0  0
   -4.6630    6.9491    1.8700 O   0  0  0  0  0  0  0  0  0  0  0  0
   -1.9342    5.7814    0.9854 O   0  0  0  0  0  0  0  0  0  0  0  0
   -3.6185    6.2915    5.3397 C   0  0  2  0  0  0  0  0  0  0  0  0
   -2.1210    6.1493    5.5750 C   0  0  0  0  0  0  0  0  0  0  0  0
   -1.7038    4.6808    5.4908 C   0  0  1  0  0  0  0  0  0  0  0  0
   -2.0517    4.1255    4.1115 C   0  0  2  0  0  0  0  0  0  0  0  0
   -3.5526    4.2674    3.8541 C   0  0  1  0  0  0  0  0  0  0  0  0
   -3.9691    5.7334    3.9690 C   0  0  1  0  0  0  0  0  0  0  0  0
   -4.0226    7.7138    5.3874 N   0  3  0  0  0  0  0  0  0  0  0  0
   -0.2578    4.5475    5.8058 N   0  3  0  0  0  0  0  0  0  0  0  0
   -3.8680    3.7752    2.5587 O   0  0  0  0  0  0  0  0  0  0  0  0
   -5.3847    5.8582    3.7422 O   0  0  0  0  0  0  0  0  0  0  0  0
   -1.5377    2.2248    2.7379 C   0  0  1  0  0  0  0  0  0  0  0  0
   -0.9267    0.8233    2.7873 C   0  0  1  0  0  0  0  0  0  0  0  0
    0.4803    0.8813    3.3630 C   0  0  0  0  0  0  0  0  0  0  0  0
    1.3124    1.8627    2.5538 C   0  0  1  0  0  0  0  0  0  0  0  0
    0.6261    3.2280    2.5345 C   0  0  1  0  0  0  0  0  0  0  0  0
    1.3736    4.2466    1.6931 C   0  0  0  0  0  0  0  0  0  0  0  0
   -1.7963   -0.1120    3.5392 N   0  3  0  0  0  0  0  0  0  0  0  0
    2.8412    4.0648    1.7970 N   0  3  0  0  0  0  0  0  0  0  0  0
   -1.6666    2.7384    4.0215 O   0  0  0  0  0  0  0  0  0  0  0  0
    2.6097    1.9805    3.1195 O   0  0  0  0  0  0  0  0  0  0  0  0
   -0.7023    3.1092    1.9808 O   0  0  0  0  0  0  0  0  0  0  0  0
  1  2  1  0  0  0  0
  1 10  1  0  0  0  0
  1 21  1  1  0  0  0
  2  3  1  0  0  0  0
  2  7  1  1  0  0  0
  3  4  1  0  0  0  0
  3  8  1  6  0  0  0
  4  5  1  0  0  0  0
  4  9  1  1  0  0  0
  5  6  1  6  0  0  0
  5 10  1  0  0  0  0
  6 11  1  0  0  0  0
 12 13  1  0  0  0  0
 12 17  1  0  0  0  0
 12 18  1  6  0  0  0
 13 14  1  0  0  0  0
 14 15  1  0  0  0  0
 14 19  1  6  0  0  0
 15 16  1  0  0  0  0
 15 30  1  1  0  0  0
 16 17  1  0  0  0  0
 16 20  1  6  0  0  0
 17 21  1  1  0  0  0
 22 23  1  0  0  0  0
 22 30  1  1  0  0  0
 22 32  1  0  0  0  0
 23 24  1  0  0  0  0
 23 28  1  1  0  0  0
 24 25  1  0  0  0  0
 25 26  1  0  0  0  0
 25 31  1  1  0  0  0
 26 27  1  6  0  0  0
 26 32  1  0  0  0  0
 27 29  1  0  0  0  0
M  CHG  5   8   1  18   1  19   1  28   1  29   1
M  END
>  <CHROM.1>
148.11647405,-31.91530051,75.26485007,69.21241747,-150.93688947,63.98209564
65.87213159,-70.79477064,-160.87990319,92.59624201,109.32859928,171.49297878
-67.11000618,55.66520834,-35.82362172,-82.26045073,-2.75600342,4.38770142
2.80999208,-2.96385468,0.43321378,-2.23663574

>  <Name>
1tob

>  <RI>
0

>  <Rbt.Current_Directory>
/home/itssahil/PROJECTS/Mol_Feturizer/New_Systems/rnas/1tob

>  <Rbt.Executable>
rbdock ($Id: //depot/dev/client3/rdock/2013.1/src/exe/rbdock.cxx#4 $)

>  <Rbt.Library>
libRbt.so (2013.1, Build901 2013/11/27)

>  <Rbt.Parameter_File>
/export/apps/rDock/src/rDock_2013.1_src/data/scripts/dock_solv.prm

>  <Rbt.Receptor>
prm/blind_docking_20.prm

>  <SCORE>
-26.2295

>  <SCORE.INTER>
-34.7232

>  <SCORE.INTER.CONST>
1

>  <SCORE.INTER.POLAR>
-4.51887

>  <SCORE.INTER.ROT>
6

>  <SCORE.INTER.SOLV>
45.0999

>  <SCORE.INTER.VDW>
-30.7192

>  <SCORE.INTER.norm>
-1.0851

>  <SCORE.INTRA>
4.38969

>  <SCORE.INTRA.DIHEDRAL>
4.21047

>  <SCORE.INTRA.DIHEDRAL.0>
22.9177

>  <SCORE.INTRA.POLAR>
-1.24882

>  <SCORE.INTRA.POLAR.0>
-0.311208

>  <SCORE.INTRA.REPUL>
0

>  <SCORE.INTRA.REPUL.0>
0

>  <SCORE.INTRA.SOLV>
-0.30422

>  <SCORE.INTRA.SOLV.lig_0>
-132.657

>  <SCORE.INTRA.VDW>
6.68254

>  <SCORE.INTRA.VDW.0>
-4.68867

>  <SCORE.INTRA.norm>
0.137178

>  <SCORE.RESTR>
4.10399

>  <SCORE.RESTR.CAVITY>
4.10399

>  <SCORE.RESTR.norm>
0.12825

>  <SCORE.SYSTEM>
0

>  <SCORE.SYSTEM.CONST>
0

>  <SCORE.SYSTEM.DIHEDRAL>
0

>  <SCORE.SYSTEM.SOLV>
0

>  <SCORE.SYSTEM.norm>
0

>  <SCORE.heavy>
32

>  <SCORE.norm>
-0.819672

>  <RMSD>
8.445

$$$$
1tob
 OpenBabel11021811413D
libRbt.so/2013.1/901 2013/11/27
 32 34  0  0  0  0  0  0  0  0999 V2000
   -6.3198    8.8423    3.1171 C   0  0  2  0  0  0  0  0  0  0  0  0
   -6.6948    9.9877    4.0545 C   0  0  1  0  0  0  0  0  0  0  0  0
   -8.0433   10.5645    3.6455 C   0  0  2  0  0  0  0  0  0  0  0  0
   -7.9900   10.9866    2.1821 C   0  0  1  0  0  0  0  0  0  0  0  0
   -7.5689    9.8026    1.3160 C   0  0  1  0  0  0  0  0  0  0  0  0
   -7.4226   10.1796   -0.1452 C   0  0  0  0  0  0  0  0  0  0  0  0
   -6.7636    9.5106    5.3907 O   0  0  0  0  0  0  0  0  0  0  0  0
   -8.4354   11.6835    4.5294 N   0  3  0  0  0  0  0  0  0  0  0  0
   -9.2649   11.4627    1.7723 O   0  0  0  0  0  0  0  0  0  0  0  0
   -6.2909    9.2961    1.7579 O   0  0  0  0  0  0  0  0  0  0  0  0
   -8.6784   10.5006   -0.7266 O   0  0  0  0  0  0  0  0  0  0  0  0
   -6.9764    6.5069    1.2029 C   0  0  2  0  0  0  0  0  0  0  0  0
   -6.5016    5.1590    0.6775 C   0  0  0  0  0  0  0  0  0  0  0  0
   -5.0342    4.9306    1.0408 C   0  0  1  0  0  0  0  0  0  0  0  0
   -4.8682    4.9662    2.5583 C   0  0  2  0  0  0  0  0  0  0  0  0
   -5.3482    6.3115    3.1053 C   0  0  1  0  0  0  0  0  0  0  0  0
   -6.8065    6.5477    2.7138 C   0  0  1  0  0  0  0  0  0  0  0  0
   -8.4051    6.7191    0.8830 N   0  3  0  0  0  0  0  0  0  0  0  0
   -4.5604    3.6521    0.4500 N   0  3  0  0  0  0  0  0  0  0  0  0
   -5.2183    6.3303    4.5205 O   0  0  0  0  0  0  0  0  0  0  0  0
   -7.2470    7.8219    3.2170 O   0  0  0  0  0  0  0  0  0  0  0  0
   -3.2502    4.3229    4.2112 C   0  0  1  0  0  0  0  0  0  0  0  0
   -2.1028    5.1192    4.8351 C   0  0  1  0  0  0  0  0  0  0  0  0
   -0.8127    4.8755    4.0667 C   0  0  0  0  0  0  0  0  0  0  0  0
   -0.5368    3.3818    4.0122 C   0  0  1  0  0  0  0  0  0  0  0  0
   -1.7347    2.6577    3.3987 C   0  0  1  0  0  0  0  0  0  0  0  0
   -1.5533    1.1510    3.3659 C   0  0  0  0  0  0  0  0  0  0  0  0
   -2.4364    6.5609    4.9172 N   0  3  0  0  0  0  0  0  0  0  0  0
   -1.9617    0.5831    2.0588 N   0  3  0  0  0  0  0  0  0  0  0  0
   -3.4861    4.7563    2.9133 O   0  0  0  0  0  0  0  0  0  0  0  0
    0.6283    3.1315    3.2397 O   0  0  0  0  0  0  0  0  0  0  0  0
   -2.9265    2.9277    4.1682 O   0  0  0  0  0  0  0  0  0  0  0  0
  1  2  1  0  0  0  0
  1 10  1  0  0  0  0
  1 21  1  6  0  0  0
  2  3  1  0  0  0  0
  2  7  1  1  0  0  0
  3  4  1  0  0  0  0
  3  8  1  1  0  0  0
  4  5  1  0  0  0  0
  4  9  1  6  0  0  0
  5  6  1  6  0  0  0
  5 10  1  0  0  0  0
  6 11  1  0  0  0  0
 12 13  1  0  0  0  0
 12 17  1  0  0  0  0
 12 18  1  1  0  0  0
 13 14  1  0  0  0  0
 14 15  1  0  0  0  0
 14 19  1  1  0  0  0
 15 16  1  0  0  0  0
 15 30  1  6  0  0  0
 16 17  1  0  0  0  0
 16 20  1  1  0  0  0
 17 21  1  6  0  0  0
 22 23  1  0  0  0  0
 22 30  1  6  0  0  0
 22 32  1  0  0  0  0
 23 24  1  0  0  0  0
 23 28  1  6  0  0  0
 24 25  1  0  0  0  0
 25 26  1  0  0  0  0
 25 31  1  6  0  0  0
 26 27  1  1  0  0  0
 26 32  1  0  0  0  0
 27 29  1  0  0  0  0
M  CHG  5   8   1  18   1  19   1  28   1  29   1
M  END
>  <CHROM.1>
-161.85455638,163.46371058,-9.48914975,64.65363803,-67.74253114,54.00295352
162.93419845,-47.23129464,-159.24101476,-70.93998184,-81.93909926,-134.55580670
-85.76453022,50.39655152,-135.28927006,29.20966885,-5.16644146,6.62148260
2.76253438,-2.66448919,0.74714271,-2.37655214

>  <Name>
1tob

>  <RI>
0

>  <Rbt.Current_Directory>
/home/itssahil/PROJECTS/Mol_Feturizer/New_Systems/rnas/1tob

>  <Rbt.Executable>
rbdock ($Id: //depot/dev/client3/rdock/2013.1/src/exe/rbdock.cxx#4 $)

>  <Rbt.Library>
libRbt.so (2013.1, Build901 2013/11/27)

>  <Rbt.Parameter_File>
/export/apps/rDock/src/rDock_2013.1_src/data/scripts/dock_solv.prm

>  <Rbt.Receptor>
prm/pocket_docking_3.prm

>  <SCORE>
-42.8989

>  <SCORE.INTER>
-42.1069

>  <SCORE.INTER.CONST>
1

>  <SCORE.INTER.POLAR>
-6.78975

>  <SCORE.INTER.ROT>
6

>  <SCORE.INTER.SOLV>
32.1574

>  <SCORE.INTER.VDW>
-23.7579

>  <SCORE.INTER.norm>
-1.31584

>  <SCORE.INTRA>
-0.792074

>  <SCORE.INTRA.DIHEDRAL>
3.78562

>  <SCORE.INTRA.DIHEDRAL.0>
22.9177

>  <SCORE.INTRA.POLAR>
-1.50809

>  <SCORE.INTRA.POLAR.0>
-0.311208

>  <SCORE.INTRA.REPUL>
0

>  <SCORE.INTRA.REPUL.0>
0

>  <SCORE.INTRA.SOLV>
-0.776456

>  <SCORE.INTRA.SOLV.lig_0>
-132.657

>  <SCORE.INTRA.VDW>
2.83085

>  <SCORE.INTRA.VDW.0>
-4.68867

>  <SCORE.INTRA.norm>
-0.0247523

>  <SCORE.RESTR>
0

>  <SCORE.RESTR.CAVITY>
0

>  <SCORE.RESTR.norm>
0

>  <SCORE.SYSTEM>
0

>  <SCORE.SYSTEM.CONST>
0

>  <SCORE.SYSTEM.DIHEDRAL>
0

>  <SCORE.SYSTEM.SOLV>
0

>  <SCORE.SYSTEM.norm>
0

>  <SCORE.heavy>
32

>  <SCORE.norm>
-1.34059

>  <RMSD>
8.452

$$$$
1tob
 OpenBabel11021811413D
libRbt.so/2013.1/901 2013/11/27
 32 34  0  0  0  0  0  0  0  0999 V2000
   -3.7258    6.4248    4.2676 C   0  0  2  0  0  0  0  0  0  0  0  0
   -4.5248    7.3824    5.1484 C   0  0  1  0  0  0  0  0  0  0  0  0
   -5.2394    8.4057    4.2764 C   0  0  2  0  0  0  0  0  0  0  0  0
   -4.2210    9.1181    3.3944 C   0  0  1  0  0  0  0  0  0  0  0  0
   -3.4361    8.0947    2.5783 C   0  0  1  0  0  0  0  0  0  0  0  0
   -2.3520    8.7375    1.7356 C   0  0  0  0  0  0  0  0  0  0  0  0
   -5.4772    6.6528    5.9087 O   0  0  0  0  0  0  0  0  0  0  0  0
   -6.0190    9.3562    5.0986 N   0  3  0  0  0  0  0  0  0  0  0  0
   -4.8873   10.0266    2.5280 O   0  0  0  0  0  0  0  0  0  0  0  0
   -2.7906    7.1497    3.4589 O   0  0  0  0  0  0  0  0  0  0  0  0
   -1.4922    9.5469    2.5254 O   0  0  0  0  0  0  0  0  0  0  0  0
   -4.2590    4.1306    1.6381 C   0  0  2  0  0  0  0  0  0  0  0  0
   -3.8173    2.7059    1.3330 C   0  0  0  0  0  0  0  0  0  0  0  0
   -2.3821    2.4779    1.8082 C   0  0  1  0  0  0  0  0  0  0  0  0
   -2.2938    2.7209    3.3132 C   0  0  2  0  0  0  0  0  0  0  0  0
   -2.7419    4.1464    3.6397 C   0  0  1  0  0  0  0  0  0  0  0  0
   -4.1661    4.3778    3.1360 C   0  0  1  0  0  0  0  0  0  0  0  0
   -5.6584    4.3472    1.2102 N   0  3  0  0  0  0  0  0  0  0  0  0
   -1.9350    1.1126    1.4287 N   0  3  0  0  0  0  0  0  0  0  0  0
   -2.6849    4.3597    5.0437 O   0  0  0  0  0  0  0  0  0  0  0  0
   -4.5757    5.7253    3.4314 O   0  0  0  0  0  0  0  0  0  0  0  0
   -0.2989    3.6276    4.2941 C   0  0  1  0  0  0  0  0  0  0  0  0
    1.1961    3.5736    3.9745 C   0  0  1  0  0  0  0  0  0  0  0  0
    1.8348    2.3652    4.6424 C   0  0  0  0  0  0  0  0  0  0  0  0
    1.5487    2.4082    6.1346 C   0  0  1  0  0  0  0  0  0  0  0  0
    0.0404    2.4832    6.3690 C   0  0  1  0  0  0  0  0  0  0  0  0
   -0.3185    2.5883    7.8401 C   0  0  0  0  0  0  0  0  0  0  0  0
    1.4300    3.5876    2.5111 N   0  3  0  0  0  0  0  0  0  0  0  0
   -0.2227    3.9863    8.3240 N   0  3  0  0  0  0  0  0  0  0  0  0
   -0.9424    2.5132    3.7728 O   0  0  0  0  0  0  0  0  0  0  0  0
    2.0799    1.2513    6.7640 O   0  0  0  0  0  0  0  0  0  0  0  0
   -0.5079    3.6462    5.7116 O   0  0  0  0  0  0  0  0  0  0  0  0
  1  2  1  0  0  0  0
  1 10  1  0  0  0  0
  1 21  1  6  0  0  0
  2  3  1  0  0  0  0
  2  7  1  6  0  0  0
  3  4  1  0  0  0  0
  3  8  1  1  0  0  0
  4  5  1  0  0  0  0
  4  9  1  6  0  0  0
  5  6  1  1  0  0  0
  5 10  1  0  0  0  0
  6 11  1  0  0  0  0
 12 13  1  0  0  0  0
 12 17  1  0  0  0  0
 12 18  1  1  0  0  0
 13 14  1  0  0  0  0
 14 15  1  0  0  0  0
 14 19  1  1  0  0  0
 15 16  1  0  0  0  0
 15 30  1  6  0  0  0
 16 17  1  0  0  0  0
 16 20  1  1  0  0  0
 17 21  1  6  0  0  0
 22 23  1  0  0  0  0
 22 30  1  1  0  0  0
 22 32  1  0  0  0  0
 23 24  1  0  0  0  0
 23 28  1  6  0  0  0
 24 25  1  0  0  0  0
 25 26  1  0  0  0  0
 25 31  1  1  0  0  0
 26 27  1  1  0  0  0
 26 32  1  0  0  0  0
 27 29  1  0  0  0  0
M  CHG  5   8   1  18   1  19   1  28   1  29   1
M  END
>  <CHROM.1>
-146.44974758,-63.83322715,-166.69068956,63.79733962,53.90393603,57.13466175
-94.47343883,171.04369432,116.26397998,111.19348223,-132.18982828,-146.40341811
-175.18405734,-65.97668295,82.72933377,14.00436573,-2.28617312,4.99602250
3.99169038,-2.74436651,0.80437422,-2.40940810

>  <Name>
1tob

>  <RI>
0

>  <Rbt.Current_Directory>
/home/itssahil/PROJECTS/Mol_Feturizer/New_Systems/rnas/1tob

>  <Rbt.Executable>
rbdock ($Id: //depot/dev/client3/rdock/2013.1/src/exe/rbdock.cxx#4 $)

>  <Rbt.Library>
libRbt.so (2013.1, Build901 2013/11/27)

>  <Rbt.Parameter_File>
/export/apps/rDock/src/rDock_2013.1_src/data/scripts/dock_solv.prm

>  <Rbt.Receptor>
prm/blind_docking_40.prm

>  <SCORE>
-19.4905

>  <SCORE.INTER>
-48.4086

>  <SCORE.INTER.CONST>
1

>  <SCORE.INTER.POLAR>
-7.36568

>  <SCORE.INTER.ROT>
6

>  <SCORE.INTER.SOLV>
37.2106

>  <SCORE.INTER.VDW>
-27.7237

>  <SCORE.INTER.norm>
-1.51277

>  <SCORE.INTRA>
19.3001

>  <SCORE.INTRA.DIHEDRAL>
14.1064

>  <SCORE.INTRA.DIHEDRAL.0>
22.9177

>  <SCORE.INTRA.POLAR>
-0.106641

>  <SCORE.INTRA.POLAR.0>
-0.311208

>  <SCORE.INTRA.REPUL>
0.0498894

>  <SCORE.INTRA.REPUL.0>
0

>  <SCORE.INTRA.SOLV>
-4.39669

>  <SCORE.INTRA.SOLV.lig_0>
-132.657

>  <SCORE.INTRA.VDW>
14.5584

>  <SCORE.INTRA.VDW.0>
-4.68867

>  <SCORE.INTRA.norm>
0.603129

>  <SCORE.RESTR>
9.61801

>  <SCORE.RESTR.CAVITY>
9.61801

>  <SCORE.RESTR.norm>
0.300563

>  <SCORE.SYSTEM>
0

>  <SCORE.SYSTEM.CONST>
0

>  <SCORE.SYSTEM.DIHEDRAL>
0

>  <SCORE.SYSTEM.SOLV>
0

>  <SCORE.SYSTEM.norm>
0

>  <SCORE.heavy>
32

>  <SCORE.norm>
-0.609078

>  <RMSD>
8.459

$$$$
1tob
 OpenBabel11021811413D
libRbt.so/2013.1/901 2013/11/27
 32 34  0  0  0  0  0  0  0  0999 V2000
   -7.1355    8.9333    2.0259 C   0  0  2  0  0  0  0  0  0  0  0  0
   -6.2743    9.9550    2.7644 C   0  0  1  0  0  0  0  0  0  0  0  0
   -7.0540   10.5290    3.9395 C   0  0  2  0  0  0  0  0  0  0  0  0
   -8.3695   11.1119    3.4373 C   0  0  1  0  0  0  0  0  0  0  0  0
   -9.1521   10.0454    2.6761 C   0  0  1  0  0  0  0  0  0  0  0  0
  -10.4387   10.5862    2.0840 C   0  0  0  0  0  0  0  0  0  0  0  0
   -5.0884    9.3311    3.2357 O   0  0  0  0  0  0  0  0  0  0  0  0
   -6.2511   11.5300    4.6749 N   0  3  0  0  0  0  0  0  0  0  0  0
   -9.1348   11.5884    4.5361 O   0  0  0  0  0  0  0  0  0  0  0  0
   -8.3584    9.5353    1.5830 O   0  0  0  0  0  0  0  0  0  0  0  0
  -11.1082    9.6008    1.3101 O   0  0  0  0  0  0  0  0  0  0  0  0
   -7.0718    6.4841    0.9202 C   0  0  2  0  0  0  0  0  0  0  0  0
   -6.5462    5.1272    0.4721 C   0  0  0  0  0  0  0  0  0  0  0  0
   -5.0879    4.9523    0.8964 C   0  0  1  0  0  0  0  0  0  0  0  0
   -4.9778    5.0581    2.4158 C   0  0  2  0  0  0  0  0  0  0  0  0
   -5.5093    6.4133    2.8853 C   0  0  1  0  0  0  0  0  0  0  0  0
   -6.9577    6.5950    2.4328 C   0  0  1  0  0  0  0  0  0  0  0  0
   -8.4926    6.6457    0.5412 N   0  3  0  0  0  0  0  0  0  0  0  0
   -4.5626    3.6618    0.3800 N   0  3  0  0  0  0  0  0  0  0  0  0
   -5.4311    6.4969    4.3019 O   0  0  0  0  0  0  0  0  0  0  0  0
   -7.4464    7.8782    2.8632 O   0  0  0  0  0  0  0  0  0  0  0  0
   -3.4078    4.4130    4.1137 C   0  0  1  0  0  0  0  0  0  0  0  0
   -2.1977    5.0924    4.7570 C   0  0  1  0  0  0  0  0  0  0  0  0
   -0.9321    4.7606    3.9808 C   0  0  0  0  0  0  0  0  0  0  0  0
   -0.7838    3.2508    3.8864 C   0  0  1  0  0  0  0  0  0  0  0  0
   -2.0381    2.6474    3.2555 C   0  0  1  0  0  0  0  0  0  0  0  0
   -1.9852    1.1322    3.1826 C   0  0  0  0  0  0  0  0  0  0  0  0
   -2.4079    6.5545    4.8777 N   0  3  0  0  0  0  0  0  0  0  0  0
   -0.8942    0.6691    2.2921 N   0  3  0  0  0  0  0  0  0  0  0  0
   -3.6048    4.8991    2.8280 O   0  0  0  0  0  0  0  0  0  0  0  0
    0.3567    2.9232    3.1061 O   0  0  0  0  0  0  0  0  0  0  0  0
   -3.2035    2.9970    4.0333 O   0  0  0  0  0  0  0  0  0  0  0  0
  1  2  1  0  0  0  0
  1 10  1  0  0  0  0
  1 21  1  1  0  0  0
  2  3  1  0  0  0  0
  2  7  1  1  0  0  0
  3  4  1  0  0  0  0
  3  8  1  6  0  0  0
  4  5  1  0  0  0  0
  4  9  1  1  0  0  0
  5  6  1  6  0  0  0
  5 10  1  0  0  0  0
  6 11  1  0  0  0  0
 12 13  1  0  0  0  0
 12 17  1  0  0  0  0
 12 18  1  1  0  0  0
 13 14  1  0  0  0  0
 14 15  1  0  0  0  0
 14 19  1  1  0  0  0
 15 16  1  0  0  0  0
 15 30  1  6  0  0  0
 16 17  1  0  0  0  0
 16 20  1  1  0  0  0
 17 21  1  6  0  0  0
 22 23  1  0  0  0  0
 22 30  1  6  0  0  0
 22 32  1  0  0  0  0
 23 24  1  0  0  0  0
 23 28  1  6  0  0  0
 24 25  1  0  0  0  0
 25 26  1  0  0  0  0
 25 31  1  6  0  0  0
 26 27  1  1  0  0  0
 26 32  1  0  0  0  0
 27 29  1  0  0  0  0
M  CHG  5   8   1  18   1  19   1  28   1  29   1
M  END
>  <CHROM.1>
-118.36084817,179.60654487,176.58279025,59.54180453,176.29842878,60.29403224
60.58062430,-168.77840594,-153.65145733,-131.80929301,-37.98067518,-142.90150176
152.14880942,-45.70571122,-64.18935283,-63.58240474,-5.35861022,6.61821359
2.83925976,2.51349904,-0.54284543,0.55743726

>  <Name>
1tob

>  <RI>
0

>  <Rbt.Current_Directory>
/home/itssahil/PROJECTS/Mol_Feturizer/New_Systems/rnas/1tob

>  <Rbt.Executable>
rbdock ($Id: //depot/dev/client3/rdock/2013.1/src/exe/rbdock.cxx#4 $)

>  <Rbt.Library>
libRbt.so (2013.1, Build901 2013/11/27)

>  <Rbt.Parameter_File>
/export/apps/rDock/src/rDock_2013.1_src/data/scripts/dock_solv.prm

>  <Rbt.Receptor>
prm/pocket_docking_3.prm

>  <SCORE>
-48.68

>  <SCORE.INTER>
-47.0817

>  <SCORE.INTER.CONST>
1

>  <SCORE.INTER.POLAR>
-7.66295

>  <SCORE.INTER.ROT>
6

>  <SCORE.INTER.SOLV>
32.783

>  <SCORE.INTER.VDW>
-24.3723

>  <SCORE.INTER.norm>
-1.4713

>  <SCORE.INTRA>
-1.5983

>  <SCORE.INTRA.DIHEDRAL>
3.91753

>  <SCORE.INTRA.DIHEDRAL.0>
22.9177

>  <SCORE.INTRA.POLAR>
-2.16626

>  <SCORE.INTRA.POLAR.0>
-0.311208

>  <SCORE.INTRA.REPUL>
0

>  <SCORE.INTRA.REPUL.0>
0

>  <SCORE.INTRA.SOLV>
0.653038

>  <SCORE.INTRA.SOLV.lig_0>
-132.657

>  <SCORE.INTRA.VDW>
3.4817

>  <SCORE.INTRA.VDW.0>
-4.68867

>  <SCORE.INTRA.norm>
-0.0499468

>  <SCORE.RESTR>
0

>  <SCORE.RESTR.CAVITY>
0

>  <SCORE.RESTR.norm>
0

>  <SCORE.SYSTEM>
0

>  <SCORE.SYSTEM.CONST>
0

>  <SCORE.SYSTEM.DIHEDRAL>
0

>  <SCORE.SYSTEM.SOLV>
0

>  <SCORE.SYSTEM.norm>
0

>  <SCORE.heavy>
32

>  <SCORE.norm>
-1.52125

>  <RMSD>
8.464

$$$$
1tob
 OpenBabel11021811413D
libRbt.so/2013.1/901 2013/11/27
 32 34  0  0  0  0  0  0  0  0999 V2000
   -5.6112    6.0269    3.6704 C   0  0  2  0  0  0  0  0  0  0  0  0
   -6.2151    7.4246    3.7839 C   0  0  1  0  0  0  0  0  0  0  0  0
   -5.1455    8.4103    4.2339 C   0  0  2  0  0  0  0  0  0  0  0  0
   -4.5246    7.9229    5.5376 C   0  0  1  0  0  0  0  0  0  0  0  0
   -3.9824    6.5078    5.3563 C   0  0  1  0  0  0  0  0  0  0  0  0
   -3.4194    5.9362    6.6427 C   0  0  0  0  0  0  0  0  0  0  0  0
   -6.7362    7.8253    2.5248 O   0  0  0  0  0  0  0  0  0  0  0  0
   -5.6982    9.7761    4.3620 N   0  3  0  0  0  0  0  0  0  0  0  0
   -3.4778    8.8007    5.9293 O   0  0  0  0  0  0  0  0  0  0  0  0
   -5.0392    5.6249    4.9215 O   0  0  0  0  0  0  0  0  0  0  0  0
   -1.9988    5.9315    6.6304 O   0  0  0  0  0  0  0  0  0  0  0  0
   -4.2224    4.2317    1.1219 C   0  0  2  0  0  0  0  0  0  0  0  0
   -3.5212    2.8932    0.9350 C   0  0  0  0  0  0  0  0  0  0  0  0
   -2.0166    3.0419    1.1622 C   0  0  1  0  0  0  0  0  0  0  0  0
   -1.7580    3.5523    2.5780 C   0  0  2  0  0  0  0  0  0  0  0  0
   -2.4623    4.8938    2.7868 C   0  0  1  0  0  0  0  0  0  0  0  0
   -3.9615    4.7457    2.5294 C   0  0  1  0  0  0  0  0  0  0  0  0
   -5.6829    4.0873    0.9357 N   0  3  0  0  0  0  0  0  0  0  0  0
   -1.3349    1.7490    0.8939 N   0  3  0  0  0  0  0  0  0  0  0  0
   -2.2425    5.3519    4.1141 O   0  0  0  0  0  0  0  0  0  0  0  0
   -4.6159    6.0144    2.7113 O   0  0  0  0  0  0  0  0  0  0  0  0
    0.3953    2.5244    2.8436 C   0  0  1  0  0  0  0  0  0  0  0  0
    0.8248    2.2181    4.2794 C   0  0  1  0  0  0  0  0  0  0  0  0
    1.7457    3.3118    4.7992 C   0  0  0  0  0  0  0  0  0  0  0  0
    2.9218    3.4694    3.8494 C   0  0  1  0  0  0  0  0  0  0  0  0
    2.4105    3.7506    2.4369 C   0  0  1  0  0  0  0  0  0  0  0  0
    3.5321    3.8621    1.4202 C   0  0  0  0  0  0  0  0  0  0  0  0
   -0.3523    2.0192    5.1578 N   0  3  0  0  0  0  0  0  0  0  0  0
    4.4598    2.7089    1.5063 N   0  3  0  0  0  0  0  0  0  0  0  0
   -0.3410    3.7009    2.8028 O   0  0  0  0  0  0  0  0  0  0  0  0
    3.7565    4.5334    4.2833 O   0  0  0  0  0  0  0  0  0  0  0  0
    1.5429    2.6820    2.0001 O   0  0  0  0  0  0  0  0  0  0  0  0
  1  2  1  0  0  0  0
  1 10  1  0  0  0  0
  1 21  1  6  0  0  0
  2  3  1  0  0  0  0
  2  7  1  6  0  0  0
  3  4  1  0  0  0  0
  3  8  1  1  0  0  0
  4  5  1  0  0  0  0
  4  9  1  6  0  0  0
  5  6  1  1  0  0  0
  5 10  1  0  0  0  0
  6 11  1  0  0  0  0
 12 13  1  0  0  0  0
 12 17  1  0  0  0  0
 12 18  1  1  0  0  0
 13 14  1  0  0  0  0
 14 15  1  0  0  0  0
 14 19  1  1  0  0  0
 15 16  1  0  0  0  0
 15 30  1  6  0  0  0
 16 17  1  0  0  0  0
 16 20  1  1  0  0  0
 17 21  1  6  0  0  0
 22 23  1  0  0  0  0
 22 30  1  1  0  0  0
 22 32  1  0  0  0  0
 23 24  1  0  0  0  0
 23 28  1  1  0  0  0
 24 25  1  0  0  0  0
 25 26  1  0  0  0  0
 25 31  1  1  0  0  0
 26 27  1  6  0  0  0
 26 32  1  0  0  0  0
 27 29  1  0  0  0  0
M  CHG  5   8   1  18   1  19   1  28   1  29   1
M  END
>  <CHROM.1>
179.26807443,179.71157457,-54.09799230,152.84465521,-104.83043906,179.95102581
-87.79832874,48.65673449,-67.89270898,-51.60541070,116.37980579,-107.22673242
-57.77551866,64.37987517,50.40132962,178.48132478,-1.95143903,4.87625605
3.42002170,2.69557915,-0.31347791,0.86311763

>  <Name>
1tob

>  <RI>
0

>  <Rbt.Current_Directory>
/home/itssahil/PROJECTS/Mol_Feturizer/New_Systems/rnas/1tob

>  <Rbt.Executable>
rbdock ($Id: //depot/dev/client3/rdock/2013.1/src/exe/rbdock.cxx#4 $)

>  <Rbt.Library>
libRbt.so (2013.1, Build901 2013/11/27)

>  <Rbt.Parameter_File>
/export/apps/rDock/src/rDock_2013.1_src/data/scripts/dock_solv.prm

>  <Rbt.Receptor>
prm/blind_docking_40.prm

>  <SCORE>
56.6689

>  <SCORE.INTER>
42.9978

>  <SCORE.INTER.CONST>
1

>  <SCORE.INTER.POLAR>
-5.09621

>  <SCORE.INTER.ROT>
6

>  <SCORE.INTER.SOLV>
42.2284

>  <SCORE.INTER.VDW>
23.9764

>  <SCORE.INTER.norm>
1.34368

>  <SCORE.INTRA>
7.90124

>  <SCORE.INTRA.DIHEDRAL>
1.15533

>  <SCORE.INTRA.DIHEDRAL.0>
22.9177

>  <SCORE.INTRA.POLAR>
-0.271475

>  <SCORE.INTRA.POLAR.0>
-0.311208

>  <SCORE.INTRA.REPUL>
0

>  <SCORE.INTRA.REPUL.0>
0

>  <SCORE.INTRA.SOLV>
0.562094

>  <SCORE.INTRA.SOLV.lig_0>
-132.657

>  <SCORE.INTRA.VDW>
7.96554

>  <SCORE.INTRA.VDW.0>
-4.68867

>  <SCORE.INTRA.norm>
0.246914

>  <SCORE.RESTR>
5.7699

>  <SCORE.RESTR.CAVITY>
5.7699

>  <SCORE.RESTR.norm>
0.180309

>  <SCORE.SYSTEM>
0

>  <SCORE.SYSTEM.CONST>
0

>  <SCORE.SYSTEM.DIHEDRAL>
0

>  <SCORE.SYSTEM.SOLV>
0

>  <SCORE.SYSTEM.norm>
0

>  <SCORE.heavy>
32

>  <SCORE.norm>
1.7709

>  <RMSD>
8.469

$$$$
1tob
 OpenBabel11021811413D
libRbt.so/2013.1/901 2013/11/27
 32 34  0  0  0  0  0  0  0  0999 V2000
   -7.3677    9.3473    2.0054 C   0  0  2  0  0  0  0  0  0  0  0  0
   -6.4871   10.2838    2.8292 C   0  0  1  0  0  0  0  0  0  0  0  0
   -7.2993   10.8786    3.9715 C   0  0  2  0  0  0  0  0  0  0  0  0
   -8.5361   11.5678    3.4075 C   0  0  1  0  0  0  0  0  0  0  0  0
   -9.3400   10.5817    2.5645 C   0  0  1  0  0  0  0  0  0  0  0  0
  -10.5450   11.2294    1.9112 C   0  0  0  0  0  0  0  0  0  0  0  0
   -5.3803    9.5639    3.3529 O   0  0  0  0  0  0  0  0  0  0  0  0
   -6.4781   11.7987    4.7878 N   0  3  0  0  0  0  0  0  0  0  0  0
   -9.3358   12.0665    4.4713 O   0  0  0  0  0  0  0  0  0  0  0  0
   -8.5147   10.0473    1.5069 O   0  0  0  0  0  0  0  0  0  0  0  0
  -10.1650   12.0349    0.8045 O   0  0  0  0  0  0  0  0  0  0  0  0
   -7.5860    6.7533    0.9327 C   0  0  2  0  0  0  0  0  0  0  0  0
   -7.0410    5.3883    0.5352 C   0  0  0  0  0  0  0  0  0  0  0  0
   -5.5348    5.3199    0.7880 C   0  0  1  0  0  0  0  0  0  0  0  0
   -5.2499    5.5641    2.2683 C   0  0  2  0  0  0  0  0  0  0  0  0
   -5.7980    6.9289    2.6878 C   0  0  1  0  0  0  0  0  0  0  0  0
   -7.2982    7.0021    2.4053 C   0  0  1  0  0  0  0  0  0  0  0  0
   -9.0488    6.8142    0.7211 N   0  3  0  0  0  0  0  0  0  0  0  0
   -5.0021    4.0149    0.3175 N   0  3  0  0  0  0  0  0  0  0  0  0
   -5.5557    7.1406    4.0722 O   0  0  0  0  0  0  0  0  0  0  0  0
   -7.8045    8.2940    2.7867 O   0  0  0  0  0  0  0  0  0  0  0  0
   -3.4488    4.9533    3.7335 C   0  0  1  0  0  0  0  0  0  0  0  0
   -2.0992    5.5230    4.1739 C   0  0  1  0  0  0  0  0  0  0  0  0
   -1.0153    5.1422    3.1766 C   0  0  0  0  0  0  0  0  0  0  0  0
   -0.9956    3.6314    3.0109 C   0  0  1  0  0  0  0  0  0  0  0  0
   -2.3810    3.1399    2.5929 C   0  0  1  0  0  0  0  0  0  0  0  0
   -2.4516    1.6290    2.4650 C   0  0  0  0  0  0  0  0  0  0  0  0
   -2.1786    6.9892    4.3749 N   0  3  0  0  0  0  0  0  0  0  0  0
   -1.4763    1.1220    1.4703 N   0  3  0  0  0  0  0  0  0  0  0  0
   -3.8306    5.5064    2.5184 O   0  0  0  0  0  0  0  0  0  0  0  0
   -0.0350    3.2632    2.0318 O   0  0  0  0  0  0  0  0  0  0  0  0
   -3.3649    3.5317    3.5746 O   0  0  0  0  0  0  0  0  0  0  0  0
  1  2  1  0  0  0  0
  1 10  1  0  0  0  0
  1 21  1  1  0  0  0
  2  3  1  0  0  0  0
  2  7  1  1  0  0  0
  3  4  1  0  0  0  0
  3  8  1  6  0  0  0
  4  5  1  0  0  0  0
  4  9  1  1  0  0  0
  5  6  1  6  0  0  0
  5 10  1  0  0  0  0
  6 11  1  0  0  0  0
 12 13  1  0  0  0  0
 12 17  1  0  0  0  0
 12 18  1  1  0  0  0
 13 14  1  0  0  0  0
 14 15  1  0  0  0  0
 14 19  1  1  0  0  0
 15 16  1  0  0  0  0
 15 30  1  6  0  0  0
 16 17  1  0  0  0  0
 16 20  1  1  0  0  0
 17 21  1  6  0  0  0
 22 23  1  0  0  0  0
 22 30  1  6  0  0  0
 22 32  1  0  0  0  0
 23 24  1  0  0  0  0
 23 28  1  6  0  0  0
 24 25  1  0  0  0  0
 25 26  1  0  0  0  0
 25 31  1  6  0  0  0
 26 27  1  1  0  0  0
 26 32  1  0  0  0  0
 27 29  1  0  0  0  0
M  CHG  5   8   1  18   1  19   1  28   1  29   1
M  END
>  <CHROM.1>
-113.92422425,177.67241558,175.35770724,58.16292726,75.46131065,-64.05518070
-83.70383197,-154.89853293,-144.23847524,-76.91199494,-53.67333763,-153.02641387
143.21997909,-51.32763976,-58.85989791,-90.31048227,-5.57414412,7.11657370
2.57386478,2.43818364,-0.50718039,0.54397489

>  <Name>
1tob

>  <RI>
0

>  <Rbt.Current_Directory>
/home/itssahil/PROJECTS/Mol_Feturizer/New_Systems/rnas/1tob

>  <Rbt.Executable>
rbdock ($Id: //depot/dev/client3/rdock/2013.1/src/exe/rbdock.cxx#4 $)

>  <Rbt.Library>
libRbt.so (2013.1, Build901 2013/11/27)

>  <Rbt.Parameter_File>
/export/apps/rDock/src/rDock_2013.1_src/data/scripts/dock_solv.prm

>  <Rbt.Receptor>
prm/pocket_docking_2.prm

>  <SCORE>
-48.1292

>  <SCORE.INTER>
-53.4157

>  <SCORE.INTER.CONST>
1

>  <SCORE.INTER.POLAR>
-9.41234

>  <SCORE.INTER.ROT>
6

>  <SCORE.INTER.SOLV>
33.776

>  <SCORE.INTER.VDW>
-23.0947

>  <SCORE.INTER.norm>
-1.66924

>  <SCORE.INTRA>
2.77581

>  <SCORE.INTRA.DIHEDRAL>
1.4706

>  <SCORE.INTRA.DIHEDRAL.0>
22.9177

>  <SCORE.INTRA.POLAR>
-0.624171

>  <SCORE.INTRA.POLAR.0>
-0.311208

>  <SCORE.INTRA.REPUL>
0

>  <SCORE.INTRA.REPUL.0>
0

>  <SCORE.INTRA.SOLV>
0.726201

>  <SCORE.INTRA.SOLV.lig_0>
-132.657

>  <SCORE.INTRA.VDW>
3.79959

>  <SCORE.INTRA.VDW.0>
-4.68867

>  <SCORE.INTRA.norm>
0.0867441

>  <SCORE.RESTR>
2.51079

>  <SCORE.RESTR.CAVITY>
2.51079

>  <SCORE.RESTR.norm>
0.0784621

>  <SCORE.SYSTEM>
0

>  <SCORE.SYSTEM.CONST>
0

>  <SCORE.SYSTEM.DIHEDRAL>
0

>  <SCORE.SYSTEM.SOLV>
0

>  <SCORE.SYSTEM.norm>
0

>  <SCORE.heavy>
32

>  <SCORE.norm>
-1.50404

>  <RMSD>
8.477

$$$$
1tob
 OpenBabel11021811413D
libRbt.so/2013.1/901 2013/11/27
 32 34  0  0  0  0  0  0  0  0999 V2000
   -6.4657    7.7192    0.2226 C   0  0  2  0  0  0  0  0  0  0  0  0
   -6.9621    8.2175   -1.1326 C   0  0  1  0  0  0  0  0  0  0  0  0
   -8.0648    9.2472   -0.9277 C   0  0  2  0  0  0  0  0  0  0  0  0
   -9.1723    8.6397   -0.0751 C   0  0  1  0  0  0  0  0  0  0  0  0
   -8.5922    8.1285    1.2407 C   0  0  1  0  0  0  0  0  0  0  0  0
   -9.6335    7.4419    2.1025 C   0  0  0  0  0  0  0  0  0  0  0  0
   -5.8864    8.8043   -1.8510 O   0  0  0  0  0  0  0  0  0  0  0  0
   -8.5756    9.7471   -2.2225 N   0  3  0  0  0  0  0  0  0  0  0  0
  -10.1738    9.6157    0.1789 O   0  0  0  0  0  0  0  0  0  0  0  0
   -7.5486    7.1650    0.9802 O   0  0  0  0  0  0  0  0  0  0  0  0
   -9.0289    6.6339    3.1024 O   0  0  0  0  0  0  0  0  0  0  0  0
   -5.6579    8.5425    3.3394 C   0  0  2  0  0  0  0  0  0  0  0  0
   -4.6816    8.1209    4.4290 C   0  0  0  0  0  0  0  0  0  0  0  0
   -4.2593    6.6645    4.2339 C   0  0  1  0  0  0  0  0  0  0  0  0
   -3.5928    6.5004    2.8698 C   0  0  2  0  0  0  0  0  0  0  0  0
   -4.5572    6.9273    1.7621 C   0  0  1  0  0  0  0  0  0  0  0  0
   -4.9990    8.3742    1.9789 C   0  0  1  0  0  0  0  0  0  0  0  0
   -6.0446    9.9608    3.5040 N   0  3  0  0  0  0  0  0  0  0  0  0
   -3.3744    6.2410    5.3500 N   0  3  0  0  0  0  0  0  0  0  0  0
   -3.9238    6.7997    0.4961 O   0  0  0  0  0  0  0  0  0  0  0  0
   -5.9187    8.7644    0.9431 O   0  0  0  0  0  0  0  0  0  0  0  0
   -2.4548    4.8688    1.5257 C   0  0  1  0  0  0  0  0  0  0  0  0
   -2.8636    3.5222    0.9260 C   0  0  1  0  0  0  0  0  0  0  0  0
   -2.5479    2.3947    1.8972 C   0  0  0  0  0  0  0  0  0  0  0  0
   -1.0762    2.4543    2.2725 C   0  0  1  0  0  0  0  0  0  0  0  0
   -0.7441    3.8332    2.8415 C   0  0  1  0  0  0  0  0  0  0  0  0
    0.7266    3.9855    3.1851 C   0  0  0  0  0  0  0  0  0  0  0  0
   -4.2905    3.5273    0.5257 N   0  3  0  0  0  0  0  0  0  0  0  0
    1.5901    3.7043    2.0134 N   0  3  0  0  0  0  0  0  0  0  0  0
   -3.1938    5.1285    2.6722 O   0  0  0  0  0  0  0  0  0  0  0  0
   -0.7791    1.4500    3.2317 O   0  0  0  0  0  0  0  0  0  0  0  0
   -1.0658    4.8595    1.8778 O   0  0  0  0  0  0  0  0  0  0  0  0
  1  2  1  0  0  0  0
  1 10  1  0  0  0  0
  1 21  1  1  0  0  0
  2  3  1  0  0  0  0
  2  7  1  1  0  0  0
  3  4  1  0  0  0  0
  3  8  1  6  0  0  0
  4  5  1  0  0  0  0
  4  9  1  1  0  0  0
  5  6  1  1  0  0  0
  5 10  1  0  0  0  0
  6 11  1  0  0  0  0
 12 13  1  0  0  0  0
 12 17  1  0  0  0  0
 12 18  1  1  0  0  0
 13 14  1  0  0  0  0
 14 15  1  0  0  0  0
 14 19  1  1  0  0  0
 15 16  1  0  0  0  0
 15 30  1  6  0  0  0
 16 17  1  0  0  0  0
 16 20  1  6  0  0  0
 17 21  1  6  0  0  0
 22 23  1  0  0  0  0
 22 30  1  1  0  0  0
 22 32  1  0  0  0  0
 23 24  1  0  0  0  0
 23 28  1  1  0  0  0
 24 25  1  0  0  0  0
 25 26  1  0  0  0  0
 25 31  1  1  0  0  0
 26 27  1  6  0  0  0
 26 32  1  0  0  0  0
 27 29  1  0  0  0  0
M  CHG  5   8   1  18   1  19   1  28   1  29   1
M  END
>  <CHROM.1>
-158.12041149,-57.71726799,69.16008442,65.85889201,162.29815803,-177.57590744
-91.38725435,-177.16937417,-173.80064508,-59.71236161,-106.05604038,-142.09053275
-167.60327164,60.42014992,56.01353219,31.61701260,-4.81224681,6.50535734
1.65773877,-3.00570165,-0.64923676,1.39039846

>  <Name>
1tob

>  <RI>
0

>  <Rbt.Current_Directory>
/home/itssahil/PROJECTS/Mol_Feturizer/New_Systems/rnas/1tob

>  <Rbt.Executable>
rbdock ($Id: //depot/dev/client3/rdock/2013.1/src/exe/rbdock.cxx#4 $)

>  <Rbt.Library>
libRbt.so (2013.1, Build901 2013/11/27)

>  <Rbt.Parameter_File>
/export/apps/rDock/src/rDock_2013.1_src/data/scripts/dock_solv.prm

>  <Rbt.Receptor>
prm/pocket_docking_5.prm

>  <SCORE>
-39.2692

>  <SCORE.INTER>
-41.3823

>  <SCORE.INTER.CONST>
1

>  <SCORE.INTER.POLAR>
-6.13739

>  <SCORE.INTER.ROT>
6

>  <SCORE.INTER.SOLV>
24.9763

>  <SCORE.INTER.VDW>
-23.0556

>  <SCORE.INTER.norm>
-1.2932

>  <SCORE.INTRA>
2.11308

>  <SCORE.INTRA.DIHEDRAL>
-3.93198

>  <SCORE.INTRA.DIHEDRAL.0>
22.9177

>  <SCORE.INTRA.POLAR>
0.149406

>  <SCORE.INTRA.POLAR.0>
-0.311208

>  <SCORE.INTRA.REPUL>
0

>  <SCORE.INTRA.REPUL.0>
0

>  <SCORE.INTRA.SOLV>
-3.71527

>  <SCORE.INTRA.SOLV.lig_0>
-132.657

>  <SCORE.INTRA.VDW>
5.42872

>  <SCORE.INTRA.VDW.0>
-4.68867

>  <SCORE.INTRA.norm>
0.0660336

>  <SCORE.RESTR>
0

>  <SCORE.RESTR.CAVITY>
0

>  <SCORE.RESTR.norm>
0

>  <SCORE.SYSTEM>
0

>  <SCORE.SYSTEM.CONST>
0

>  <SCORE.SYSTEM.DIHEDRAL>
0

>  <SCORE.SYSTEM.SOLV>
0

>  <SCORE.SYSTEM.norm>
0

>  <SCORE.heavy>
32

>  <SCORE.norm>
-1.22716

>  <RMSD>
8.483

$$$$
1tob
 OpenBabel11021811413D
libRbt.so/2013.1/901 2013/11/27
 32 34  0  0  0  0  0  0  0  0999 V2000
   -5.6175    8.1497    3.4125 C   0  0  2  0  0  0  0  0  0  0  0  0
   -5.9144    9.2014    4.4789 C   0  0  1  0  0  0  0  0  0  0  0  0
   -7.3343    9.7225    4.3037 C   0  0  2  0  0  0  0  0  0  0  0  0
   -7.5083   10.2490    2.8841 C   0  0  1  0  0  0  0  0  0  0  0  0
   -7.1539    9.1567    1.8789 C   0  0  1  0  0  0  0  0  0  0  0  0
   -7.2333    9.6437    0.4454 C   0  0  0  0  0  0  0  0  0  0  0  0
   -5.7708    8.6282    5.7705 O   0  0  0  0  0  0  0  0  0  0  0  0
   -7.6544   10.7507    5.3174 N   0  3  0  0  0  0  0  0  0  0  0  0
   -8.8505   10.6745    2.6903 O   0  0  0  0  0  0  0  0  0  0  0  0
   -5.8026    8.6989    2.1017 O   0  0  0  0  0  0  0  0  0  0  0  0
   -7.1286    8.5667   -0.4751 O   0  0  0  0  0  0  0  0  0  0  0  0
   -6.1939    5.9658    1.4216 C   0  0  2  0  0  0  0  0  0  0  0  0
   -5.7142    4.6794    0.7633 C   0  0  0  0  0  0  0  0  0  0  0  0
   -4.2458    4.4211    1.1019 C   0  0  1  0  0  0  0  0  0  0  0  0
   -4.0796    4.3044    2.6153 C   0  0  2  0  0  0  0  0  0  0  0  0
   -4.5644    5.5860    3.2948 C   0  0  1  0  0  0  0  0  0  0  0  0
   -6.0237    5.8550    2.9290 C   0  0  1  0  0  0  0  0  0  0  0  0
   -7.6234    6.2037    1.1246 N   0  3  0  0  0  0  0  0  0  0  0  0
   -3.7675    3.2103    0.3855 N   0  3  0  0  0  0  0  0  0  0  0  0
   -4.4342    5.4627    4.7048 O   0  0  0  0  0  0  0  0  0  0  0  0
   -6.4688    7.0704    3.5578 O   0  0  0  0  0  0  0  0  0  0  0  0
   -2.4592    3.4973    4.1922 C   0  0  1  0  0  0  0  0  0  0  0  0
   -1.3608    4.2692    4.9255 C   0  0  1  0  0  0  0  0  0  0  0  0
   -0.0493    4.1748    4.1604 C   0  0  0  0  0  0  0  0  0  0  0  0
    0.2991    2.7115    3.9421 C   0  0  1  0  0  0  0  0  0  0  0  0
   -0.8534    2.0078    3.2264 C   0  0  1  0  0  0  0  0  0  0  0  0
   -0.5992    0.5247    3.0263 C   0  0  0  0  0  0  0  0  0  0  0  0
   -1.7646    5.6750    5.1642 N   0  3  0  0  0  0  0  0  0  0  0  0
   -1.8639   -0.2196    2.8167 N   0  3  0  0  0  0  0  0  0  0  0  0
   -2.6966    4.0650    2.9475 O   0  0  0  0  0  0  0  0  0  0  0  0
    1.4861    2.6054    3.1697 O   0  0  0  0  0  0  0  0  0  0  0  0
   -2.0680    2.1326    3.9974 O   0  0  0  0  0  0  0  0  0  0  0  0
  1  2  1  0  0  0  0
  1 10  1  0  0  0  0
  1 21  1  1  0  0  0
  2  3  1  0  0  0  0
  2  7  1  1  0  0  0
  3  4  1  0  0  0  0
  3  8  1  1  0  0  0
  4  5  1  0  0  0  0
  4  9  1  1  0  0  0
  5  6  1  6  0  0  0
  5 10  1  0  0  0  0
  6 11  1  0  0  0  0
 12 13  1  0  0  0  0
 12 17  1  0  0  0  0
 12 18  1  1  0  0  0
 13 14  1  0  0  0  0
 14 15  1  0  0  0  0
 14 19  1  6  0  0  0
 15 16  1  0  0  0  0
 15 30  1  6  0  0  0
 16 17  1  0  0  0  0
 16 20  1  1  0  0  0
 17 21  1  1  0  0  0
 22 23  1  0  0  0  0
 22 30  1  6  0  0  0
 22 32  1  0  0  0  0
 23 24  1  0  0  0  0
 23 28  1  6  0  0  0
 24 25  1  0  0  0  0
 25 26  1  0  0  0  0
 25 31  1  6  0  0  0
 26 27  1  1  0  0  0
 26 32  1  0  0  0  0
 27 29  1  0  0  0  0
M  CHG  5   8   1  18   1  19   1  28   1  29   1
M  END
>  <CHROM.1>
-160.39833607,69.34289116,-55.42266483,-55.48156141,-169.88431148,-68.09621788
154.73996587,-166.16239028,-158.89940417,-176.08775332,-74.03014776,-131.92361558
-77.78129980,178.76940751,158.63331237,-154.34890260,-4.42425602,5.86704058
3.01132564,-2.67058483,0.72522817,-2.30451534

>  <Name>
1tob

>  <RI>
0

>  <Rbt.Current_Directory>
/home/itssahil/PROJECTS/Mol_Feturizer/New_Systems/rnas/1tob

>  <Rbt.Executable>
rbdock ($Id: //depot/dev/client3/rdock/2013.1/src/exe/rbdock.cxx#4 $)

>  <Rbt.Library>
libRbt.so (2013.1, Build901 2013/11/27)

>  <Rbt.Parameter_File>
/export/apps/rDock/src/rDock_2013.1_src/data/scripts/dock_solv.prm

>  <Rbt.Receptor>
prm/pocket_docking_5.prm

>  <SCORE>
-46.2257

>  <SCORE.INTER>
-40.467

>  <SCORE.INTER.CONST>
1

>  <SCORE.INTER.POLAR>
-5.85253

>  <SCORE.INTER.ROT>
6

>  <SCORE.INTER.SOLV>
39.8193

>  <SCORE.INTER.VDW>
-28.3427

>  <SCORE.INTER.norm>
-1.2646

>  <SCORE.INTRA>
-5.75868

>  <SCORE.INTRA.DIHEDRAL>
-5.056

>  <SCORE.INTRA.DIHEDRAL.0>
22.9177

>  <SCORE.INTRA.POLAR>
-1.4959

>  <SCORE.INTRA.POLAR.0>
-0.311208

>  <SCORE.INTRA.REPUL>
0

>  <SCORE.INTRA.REPUL.0>
0

>  <SCORE.INTRA.SOLV>
1.05865

>  <SCORE.INTRA.SOLV.lig_0>
-132.657

>  <SCORE.INTRA.VDW>
1.32605

>  <SCORE.INTRA.VDW.0>
-4.68867

>  <SCORE.INTRA.norm>
-0.179959

>  <SCORE.RESTR>
0

>  <SCORE.RESTR.CAVITY>
0

>  <SCORE.RESTR.norm>
0

>  <SCORE.SYSTEM>
0

>  <SCORE.SYSTEM.CONST>
0

>  <SCORE.SYSTEM.DIHEDRAL>
0

>  <SCORE.SYSTEM.SOLV>
0

>  <SCORE.SYSTEM.norm>
0

>  <SCORE.heavy>
32

>  <SCORE.norm>
-1.44455

>  <RMSD>
8.483

$$$$
1tob
 OpenBabel11021811413D
libRbt.so/2013.1/901 2013/11/27
 32 34  0  0  0  0  0  0  0  0999 V2000
   -6.9372    8.5286    2.2520 C   0  0  2  0  0  0  0  0  0  0  0  0
   -6.3534    9.4224    3.3435 C   0  0  1  0  0  0  0  0  0  0  0  0
   -7.4603    9.8640    4.2912 C   0  0  2  0  0  0  0  0  0  0  0  0
   -8.5671   10.5440    3.4942 C   0  0  1  0  0  0  0  0  0  0  0  0
   -9.0686    9.6064    2.3994 C   0  0  1  0  0  0  0  0  0  0  0  0
  -10.1201   10.2552    1.5207 C   0  0  0  0  0  0  0  0  0  0  0  0
   -5.3601    8.7095    4.0666 O   0  0  0  0  0  0  0  0  0  0  0  0
   -6.9308   10.7394    5.3592 N   0  3  0  0  0  0  0  0  0  0  0  0
   -9.6360   10.8982    4.3614 O   0  0  0  0  0  0  0  0  0  0  0  0
   -7.9741    9.2172    1.5416 O   0  0  0  0  0  0  0  0  0  0  0  0
   -9.6317   11.4466    0.9207 O   0  0  0  0  0  0  0  0  0  0  0  0
   -7.0319    5.9975    0.8774 C   0  0  2  0  0  0  0  0  0  0  0  0
   -6.3801    4.6961    0.4303 C   0  0  0  0  0  0  0  0  0  0  0  0
   -4.8950    4.6898    0.7938 C   0  0  1  0  0  0  0  0  0  0  0  0
   -4.7346    4.8400    2.3049 C   0  0  2  0  0  0  0  0  0  0  0  0
   -5.3911    6.1394    2.7737 C   0  0  1  0  0  0  0  0  0  0  0  0
   -6.8682    6.1530    2.3815 C   0  0  1  0  0  0  0  0  0  0  0  0
   -8.4763    5.9956    0.5578 N   0  3  0  0  0  0  0  0  0  0  0  0
   -4.2536    3.4529    0.2773 N   0  3  0  0  0  0  0  0  0  0  0  0
   -5.2641    6.2619    4.1840 O   0  0  0  0  0  0  0  0  0  0  0  0
   -7.4761    7.3847    2.8106 O   0  0  0  0  0  0  0  0  0  0  0  0
   -2.9866    4.0605    3.7543 C   0  0  1  0  0  0  0  0  0  0  0  0
   -1.7458    4.6361    4.4392 C   0  0  1  0  0  0  0  0  0  0  0  0
   -0.5550    4.5961    3.4933 C   0  0  0  0  0  0  0  0  0  0  0  0
   -0.3538    3.1721    3.0013 C   0  0  1  0  0  0  0  0  0  0  0  0
   -1.6404    2.6638    2.3518 C   0  0  1  0  0  0  0  0  0  0  0  0
   -1.5315    1.2228    1.8875 C   0  0  0  0  0  0  0  0  0  0  0  0
   -2.0037    6.0032    4.9499 N   0  3  0  0  0  0  0  0  0  0  0  0
   -1.8481    0.2742    2.9819 N   0  3  0  0  0  0  0  0  0  0  0  0
   -3.3365    4.8400    2.6598 O   0  0  0  0  0  0  0  0  0  0  0  0
    0.7121    3.1288    2.0637 O   0  0  0  0  0  0  0  0  0  0  0  0
   -2.7322    2.7273    3.2948 O   0  0  0  0  0  0  0  0  0  0  0  0
  1  2  1  0  0  0  0
  1 10  1  0  0  0  0
  1 21  1  1  0  0  0
  2  3  1  0  0  0  0
  2  7  1  1  0  0  0
  3  4  1  0  0  0  0
  3  8  1  1  0  0  0
  4  5  1  0  0  0  0
  4  9  1  1  0  0  0
  5  6  1  6  0  0  0
  5 10  1  0  0  0  0
  6 11  1  0  0  0  0
 12 13  1  0  0  0  0
 12 17  1  0  0  0  0
 12 18  1  1  0  0  0
 13 14  1  0  0  0  0
 14 15  1  0  0  0  0
 14 19  1  1  0  0  0
 15 16  1  0  0  0  0
 15 30  1  6  0  0  0
 16 17  1  0  0  0  0
 16 20  1  1  0  0  0
 17 21  1  6  0  0  0
 22 23  1  0  0  0  0
 22 30  1  6  0  0  0
 22 32  1  0  0  0  0
 23 24  1  0  0  0  0
 23 28  1  6  0  0  0
 24 25  1  0  0  0  0
 25 26  1  0  0  0  0
 25 31  1  6  0  0  0
 26 27  1  1  0  0  0
 26 32  1  0  0  0  0
 27 29  1  0  0  0  0
M  CHG  5   8   1  18   1  19   1  28   1  29   1
M  END
>  <CHROM.1>
-118.58194959,174.16803321,-111.70125193,178.46769476,57.35890742,63.58826258
-52.84130101,75.15276000,-135.33849582,-152.78268216,-60.84540592,-152.00959517
169.39246712,-71.86965255,85.83884217,-21.23158772,-5.21994604,6.33696227
2.69709295,2.54823575,-0.56282262,0.67614825

>  <Name>
1tob

>  <RI>
0

>  <Rbt.Current_Directory>
/home/itssahil/PROJECTS/Mol_Feturizer/New_Systems/rnas/1tob

>  <Rbt.Executable>
rbdock ($Id: //depot/dev/client3/rdock/2013.1/src/exe/rbdock.cxx#4 $)

>  <Rbt.Library>
libRbt.so (2013.1, Build901 2013/11/27)

>  <Rbt.Parameter_File>
/export/apps/rDock/src/rDock_2013.1_src/data/scripts/dock_solv.prm

>  <Rbt.Receptor>
prm/pocket_docking_2.prm

>  <SCORE>
-52.1958

>  <SCORE.INTER>
-61.0969

>  <SCORE.INTER.CONST>
1

>  <SCORE.INTER.POLAR>
-9.60918

>  <SCORE.INTER.ROT>
6

>  <SCORE.INTER.SOLV>
38.6173

>  <SCORE.INTER.VDW>
-29.1731

>  <SCORE.INTER.norm>
-1.90928

>  <SCORE.INTRA>
6.6565

>  <SCORE.INTRA.DIHEDRAL>
6.78711

>  <SCORE.INTRA.DIHEDRAL.0>
22.9177

>  <SCORE.INTRA.POLAR>
0.278053

>  <SCORE.INTRA.POLAR.0>
-0.311208

>  <SCORE.INTRA.REPUL>
0

>  <SCORE.INTRA.REPUL.0>
0

>  <SCORE.INTRA.SOLV>
-0.575548

>  <SCORE.INTRA.SOLV.lig_0>
-132.657

>  <SCORE.INTRA.VDW>
2.60534

>  <SCORE.INTRA.VDW.0>
-4.68867

>  <SCORE.INTRA.norm>
0.208016

>  <SCORE.RESTR>
2.24458

>  <SCORE.RESTR.CAVITY>
2.24458

>  <SCORE.RESTR.norm>
0.070143

>  <SCORE.SYSTEM>
0

>  <SCORE.SYSTEM.CONST>
0

>  <SCORE.SYSTEM.DIHEDRAL>
0

>  <SCORE.SYSTEM.SOLV>
0

>  <SCORE.SYSTEM.norm>
0

>  <SCORE.heavy>
32

>  <SCORE.norm>
-1.63112

>  <RMSD>
8.490

$$$$
1tob
 OpenBabel11021811413D
libRbt.so/2013.1/901 2013/11/27
 32 34  0  0  0  0  0  0  0  0999 V2000
   -7.0729    8.8559    3.3095 C   0  0  2  0  0  0  0  0  0  0  0  0
   -8.5587    8.8776    2.9583 C   0  0  1  0  0  0  0  0  0  0  0  0
   -8.8260    7.9245    1.8014 C   0  0  2  0  0  0  0  0  0  0  0  0
   -7.9311    8.2939    0.6245 C   0  0  1  0  0  0  0  0  0  0  0  0
   -6.4695    8.2913    1.0637 C   0  0  1  0  0  0  0  0  0  0  0  0
   -5.5326    8.7270   -0.0457 C   0  0  0  0  0  0  0  0  0  0  0  0
   -9.3242    8.4852    4.0886 O   0  0  0  0  0  0  0  0  0  0  0  0
  -10.2573    7.9255    1.4288 N   0  3  0  0  0  0  0  0  0  0  0  0
   -8.1242    7.3673   -0.4358 O   0  0  0  0  0  0  0  0  0  0  0  0
   -6.2825    9.2051    2.1661 O   0  0  0  0  0  0  0  0  0  0  0  0
   -4.1771    8.4603    0.2851 O   0  0  0  0  0  0  0  0  0  0  0  0
   -4.9537    7.5057    5.4012 C   0  0  2  0  0  0  0  0  0  0  0  0
   -3.4578    7.3010    5.5973 C   0  0  0  0  0  0  0  0  0  0  0  0
   -3.0304    5.9349    5.0600 C   0  0  1  0  0  0  0  0  0  0  0  0
   -3.3606    5.8410    3.5720 C   0  0  2  0  0  0  0  0  0  0  0  0
   -4.8598    6.0524    3.3550 C   0  0  1  0  0  0  0  0  0  0  0  0
   -5.2868    7.4065    3.9205 C   0  0  1  0  0  0  0  0  0  0  0  0
   -5.3674    8.8395    5.8894 N   0  3  0  0  0  0  0  0  0  0  0  0
   -1.5868    5.7133    5.3338 N   0  3  0  0  0  0  0  0  0  0  0  0
   -5.1588    5.9920    1.9668 O   0  0  0  0  0  0  0  0  0  0  0  0
   -6.7007    7.5922    3.7280 O   0  0  0  0  0  0  0  0  0  0  0  0
   -2.2741    4.5682    1.8506 C   0  0  1  0  0  0  0  0  0  0  0  0
   -2.7150    3.3957    0.9727 C   0  0  1  0  0  0  0  0  0  0  0  0
   -2.3688    2.0750    1.6437 C   0  0  0  0  0  0  0  0  0  0  0  0
   -0.8831    2.0502    1.9638 C   0  0  1  0  0  0  0  0  0  0  0  0
   -0.5199    3.2612    2.8223 C   0  0  1  0  0  0  0  0  0  0  0  0
    0.9641    3.3338    3.1331 C   0  0  0  0  0  0  0  0  0  0  0  0
   -4.1565    3.4892    0.6415 N   0  3  0  0  0  0  0  0  0  0  0  0
    1.7493    3.7378    1.9423 N   0  3  0  0  0  0  0  0  0  0  0  0
   -2.9658    4.5538    3.0546 O   0  0  0  0  0  0  0  0  0  0  0  0
   -0.5552    0.8522    2.6524 O   0  0  0  0  0  0  0  0  0  0  0  0
   -0.8725    4.4816    2.1355 O   0  0  0  0  0  0  0  0  0  0  0  0
  1  2  1  0  0  0  0
  1 10  1  0  0  0  0
  1 21  1  6  0  0  0
  2  3  1  0  0  0  0
  2  7  1  1  0  0  0
  3  4  1  0  0  0  0
  3  8  1  6  0  0  0
  4  5  1  0  0  0  0
  4  9  1  6  0  0  0
  5  6  1  6  0  0  0
  5 10  1  0  0  0  0
  6 11  1  0  0  0  0
 12 13  1  0  0  0  0
 12 17  1  0  0  0  0
 12 18  1  6  0  0  0
 13 14  1  0  0  0  0
 14 15  1  0  0  0  0
 14 19  1  6  0  0  0
 15 16  1  0  0  0  0
 15 30  1  1  0  0  0
 16 17  1  0  0  0  0
 16 20  1  6  0  0  0
 17 21  1  1  0  0  0
 22 23  1  0  0  0  0
 22 30  1  1  0  0  0
 22 32  1  0  0  0  0
 23 24  1  0  0  0  0
 23 28  1  1  0  0  0
 24 25  1  0  0  0  0
 25 26  1  0  0  0  0
 25 31  1  1  0  0  0
 26 27  1  6  0  0  0
 26 32  1  0  0  0  0
 27 29  1  0  0  0  0
M  CHG  5   8   1  18   1  19   1  28   1  29   1
M  END
>  <CHROM.1>
172.30244318,-57.11455219,-159.50357080,165.32141466,-168.03832036,-58.17665721
-158.87255981,-101.92038469,-133.92384443,174.90296454,100.23184272,-141.43079919
90.22329509,171.72792380,73.03268215,-21.24574097,-4.40733830,6.13649066
2.60318834,-2.88775145,0.57563773,-2.06547557

>  <Name>
1tob

>  <RI>
0

>  <Rbt.Current_Directory>
/home/itssahil/PROJECTS/Mol_Feturizer/New_Systems/rnas/1tob

>  <Rbt.Executable>
rbdock ($Id: //depot/dev/client3/rdock/2013.1/src/exe/rbdock.cxx#4 $)

>  <Rbt.Library>
libRbt.so (2013.1, Build901 2013/11/27)

>  <Rbt.Parameter_File>
/export/apps/rDock/src/rDock_2013.1_src/data/scripts/dock_solv.prm

>  <Rbt.Receptor>
prm/pocket_docking_8.prm

>  <SCORE>
-59.3064

>  <SCORE.INTER>
-61.5681

>  <SCORE.INTER.CONST>
1

>  <SCORE.INTER.POLAR>
-9.36801

>  <SCORE.INTER.ROT>
6

>  <SCORE.INTER.SOLV>
35.9302

>  <SCORE.INTER.VDW>
-29.3954

>  <SCORE.INTER.norm>
-1.924

>  <SCORE.INTRA>
2.26165

>  <SCORE.INTRA.DIHEDRAL>
6.12972

>  <SCORE.INTRA.DIHEDRAL.0>
22.9177

>  <SCORE.INTRA.POLAR>
-0.417225

>  <SCORE.INTRA.POLAR.0>
-0.311208

>  <SCORE.INTRA.REPUL>
0

>  <SCORE.INTRA.REPUL.0>
0

>  <SCORE.INTRA.SOLV>
-0.89629

>  <SCORE.INTRA.SOLV.lig_0>
-132.657

>  <SCORE.INTRA.VDW>
1.0635

>  <SCORE.INTRA.VDW.0>
-4.68867

>  <SCORE.INTRA.norm>
0.0706766

>  <SCORE.RESTR>
0

>  <SCORE.RESTR.CAVITY>
0

>  <SCORE.RESTR.norm>
0

>  <SCORE.SYSTEM>
0

>  <SCORE.SYSTEM.CONST>
0

>  <SCORE.SYSTEM.DIHEDRAL>
0

>  <SCORE.SYSTEM.SOLV>
0

>  <SCORE.SYSTEM.norm>
0

>  <SCORE.heavy>
32

>  <SCORE.norm>
-1.85333

>  <RMSD>
8.490

$$$$
1tob
 OpenBabel11021811413D
libRbt.so/2013.1/901 2013/11/27
 32 34  0  0  0  0  0  0  0  0999 V2000
   -6.4414    8.5342    2.7224 C   0  0  2  0  0  0  0  0  0  0  0  0
   -6.4069    9.4498    3.9438 C   0  0  1  0  0  0  0  0  0  0  0  0
   -7.8042    9.9874    4.2212 C   0  0  2  0  0  0  0  0  0  0  0  0
   -8.3365   10.6807    2.9728 C   0  0  1  0  0  0  0  0  0  0  0  0
   -8.3004    9.7175    1.7895 C   0  0  1  0  0  0  0  0  0  0  0  0
   -8.7467   10.3733    0.4975 C   0  0  0  0  0  0  0  0  0  0  0  0
   -5.9397    8.7255    5.0728 O   0  0  0  0  0  0  0  0  0  0  0  0
   -7.8069   10.8860    5.3958 N   0  3  0  0  0  0  0  0  0  0  0  0
   -9.6670   11.1256    3.2002 O   0  0  0  0  0  0  0  0  0  0  0  0
   -6.9543    9.2370    1.5835 O   0  0  0  0  0  0  0  0  0  0  0  0
   -7.8801   11.4369    0.1292 O   0  0  0  0  0  0  0  0  0  0  0  0
   -7.0552    6.1056    0.9602 C   0  0  2  0  0  0  0  0  0  0  0  0
   -6.5305    4.7817    0.4215 C   0  0  0  0  0  0  0  0  0  0  0  0
   -5.0265    4.6625    0.6690 C   0  0  1  0  0  0  0  0  0  0  0  0
   -4.7435    4.7439    2.1673 C   0  0  2  0  0  0  0  0  0  0  0  0
   -5.2715    6.0654    2.7279 C   0  0  1  0  0  0  0  0  0  0  0  0
   -6.7692    6.1925    2.4515 C   0  0  1  0  0  0  0  0  0  0  0  0
   -8.5161    6.2123    0.7531 N   0  3  0  0  0  0  0  0  0  0  0  0
   -4.5129    3.4062    0.0640 N   0  3  0  0  0  0  0  0  0  0  0  0
   -5.0312    6.1253    4.1275 O   0  0  0  0  0  0  0  0  0  0  0  0
   -7.2564    7.4447    2.9666 O   0  0  0  0  0  0  0  0  0  0  0  0
   -2.9595    4.0153    3.5992 C   0  0  1  0  0  0  0  0  0  0  0  0
   -1.7440    4.7149    4.2099 C   0  0  1  0  0  0  0  0  0  0  0  0
   -0.5449    4.5954    3.2813 C   0  0  0  0  0  0  0  0  0  0  0  0
   -0.2928    3.1281    2.9752 C   0  0  1  0  0  0  0  0  0  0  0  0
   -1.5566    2.4982    2.3908 C   0  0  1  0  0  0  0  0  0  0  0  0
   -1.3964    1.0143    2.1141 C   0  0  0  0  0  0  0  0  0  0  0  0
   -2.0511    6.1263    4.5416 N   0  3  0  0  0  0  0  0  0  0  0  0
   -2.0751    0.1932    3.1450 N   0  3  0  0  0  0  0  0  0  0  0  0
   -3.3263    4.6371    2.4130 O   0  0  0  0  0  0  0  0  0  0  0  0
    0.7814    3.0021    2.0548 O   0  0  0  0  0  0  0  0  0  0  0  0
   -2.6575    2.6439    3.3139 O   0  0  0  0  0  0  0  0  0  0  0  0
  1  2  1  0  0  0  0
  1 10  1  0  0  0  0
  1 21  1  1  0  0  0
  2  3  1  0  0  0  0
  2  7  1  1  0  0  0
  3  4  1  0  0  0  0
  3  8  1  1  0  0  0
  4  5  1  0  0  0  0
  4  9  1  1  0  0  0
  5  6  1  6  0  0  0
  5 10  1  0  0  0  0
  6 11  1  0  0  0  0
 12 13  1  0  0  0  0
 12 17  1  0  0  0  0
 12 18  1  1  0  0  0
 13 14  1  0  0  0  0
 14 15  1  0  0  0  0
 14 19  1  1  0  0  0
 15 16  1  0  0  0  0
 15 30  1  6  0  0  0
 16 17  1  0  0  0  0
 16 20  1  1  0  0  0
 17 21  1  6  0  0  0
 22 23  1  0  0  0  0
 22 30  1  6  0  0  0
 22 32  1  0  0  0  0
 23 24  1  0  0  0  0
 23 28  1  6  0  0  0
 24 25  1  0  0  0  0
 25 26  1  0  0  0  0
 25 31  1  6  0  0  0
 26 27  1  1  0  0  0
 26 32  1  0  0  0  0
 27 29  1  0  0  0  0
M  CHG  5   8   1  18   1  19   1  28   1  29   1
M  END
>  <CHROM.1>
-140.32624650,39.08461468,-61.21263109,-175.40877470,62.59681335,-170.40693190
52.86798534,-157.89268220,-147.55896696,-65.02339855,-79.19889390,-141.85819241
153.18237397,-60.83457688,103.45945126,-153.71345813,-5.10058897,6.34259213
2.59984300,-2.55727740,0.64429522,-2.42138178

>  <Name>
1tob

>  <RI>
0

>  <Rbt.Current_Directory>
/home/itssahil/PROJECTS/Mol_Feturizer/New_Systems/rnas/1tob

>  <Rbt.Executable>
rbdock ($Id: //depot/dev/client3/rdock/2013.1/src/exe/rbdock.cxx#4 $)

>  <Rbt.Library>
libRbt.so (2013.1, Build901 2013/11/27)

>  <Rbt.Parameter_File>
/export/apps/rDock/src/rDock_2013.1_src/data/scripts/dock_solv.prm

>  <Rbt.Receptor>
prm/pocket_docking_2.prm

>  <SCORE>
-48.6511

>  <SCORE.INTER>
-49.3554

>  <SCORE.INTER.CONST>
1

>  <SCORE.INTER.POLAR>
-7.58626

>  <SCORE.INTER.ROT>
6

>  <SCORE.INTER.SOLV>
38.1143

>  <SCORE.INTER.VDW>
-27.9208

>  <SCORE.INTER.norm>
-1.54236

>  <SCORE.INTRA>
-1.57941

>  <SCORE.INTRA.DIHEDRAL>
4.44913

>  <SCORE.INTRA.DIHEDRAL.0>
22.9177

>  <SCORE.INTRA.POLAR>
-1.44997

>  <SCORE.INTRA.POLAR.0>
-0.311208

>  <SCORE.INTRA.REPUL>
0

>  <SCORE.INTRA.REPUL.0>
0

>  <SCORE.INTRA.SOLV>
-2.00822

>  <SCORE.INTRA.SOLV.lig_0>
-132.657

>  <SCORE.INTRA.VDW>
2.13004

>  <SCORE.INTRA.VDW.0>
-4.68867

>  <SCORE.INTRA.norm>
-0.0493566

>  <SCORE.RESTR>
2.2837

>  <SCORE.RESTR.CAVITY>
2.2837

>  <SCORE.RESTR.norm>
0.0713657

>  <SCORE.SYSTEM>
0

>  <SCORE.SYSTEM.CONST>
0

>  <SCORE.SYSTEM.DIHEDRAL>
0

>  <SCORE.SYSTEM.SOLV>
0

>  <SCORE.SYSTEM.norm>
0

>  <SCORE.heavy>
32

>  <SCORE.norm>
-1.52035

>  <RMSD>
8.493

$$$$
1tob
 OpenBabel11021811413D
libRbt.so/2013.1/901 2013/11/27
 32 34  0  0  0  0  0  0  0  0999 V2000
   -6.8527    8.5375    2.5666 C   0  0  2  0  0  0  0  0  0  0  0  0
   -6.6761    9.5122    3.7285 C   0  0  1  0  0  0  0  0  0  0  0  0
   -8.0384    9.8810    4.2998 C   0  0  2  0  0  0  0  0  0  0  0  0
   -8.9204   10.4351    3.1873 C   0  0  1  0  0  0  0  0  0  0  0  0
   -9.0140    9.4241    2.0478 C   0  0  1  0  0  0  0  0  0  0  0  0
   -9.8173    9.9497    0.8744 C   0  0  0  0  0  0  0  0  0  0  0  0
   -5.8790    8.9129    4.7399 O   0  0  0  0  0  0  0  0  0  0  0  0
   -7.9057   10.8317    5.4249 N   0  3  0  0  0  0  0  0  0  0  0  0
  -10.2166   10.7179    3.6972 O   0  0  0  0  0  0  0  0  0  0  0  0
   -7.6933    9.1090    1.5562 O   0  0  0  0  0  0  0  0  0  0  0  0
   -9.2280   11.1194    0.3244 O   0  0  0  0  0  0  0  0  0  0  0  0
   -6.9019    6.1156    1.0102 C   0  0  2  0  0  0  0  0  0  0  0  0
   -6.2454    4.8373    0.5071 C   0  0  0  0  0  0  0  0  0  0  0  0
   -4.7850    4.7743    0.9554 C   0  0  1  0  0  0  0  0  0  0  0  0
   -4.7129    4.8108    2.4802 C   0  0  2  0  0  0  0  0  0  0  0  0
   -5.3754    6.0857    3.0046 C   0  0  1  0  0  0  0  0  0  0  0  0
   -6.8260    6.1579    2.5287 C   0  0  1  0  0  0  0  0  0  0  0  0
   -8.3244    6.1664    0.6075 N   0  3  0  0  0  0  0  0  0  0  0  0
   -4.1338    3.5655    0.3872 N   0  3  0  0  0  0  0  0  0  0  0  0
   -5.3311    6.1026    4.4250 O   0  0  0  0  0  0  0  0  0  0  0  0
   -7.4387    7.3672    3.0114 O   0  0  0  0  0  0  0  0  0  0  0  0
   -3.1038    4.0828    4.1065 C   0  0  1  0  0  0  0  0  0  0  0  0
   -2.0368    4.8116    4.9253 C   0  0  1  0  0  0  0  0  0  0  0  0
   -0.7126    4.8213    4.1765 C   0  0  0  0  0  0  0  0  0  0  0  0
   -0.3222    3.3935    3.8309 C   0  0  1  0  0  0  0  0  0  0  0  0
   -1.4453    2.7297    3.0348 C   0  0  1  0  0  0  0  0  0  0  0  0
   -1.1487    1.2783    2.7039 C   0  0  0  0  0  0  0  0  0  0  0  0
   -2.4814    6.1788    5.2851 N   0  3  0  0  0  0  0  0  0  0  0  0
   -2.3403    0.5936    2.1479 N   0  3  0  0  0  0  0  0  0  0  0  0
   -3.3387    4.7565    2.9152 O   0  0  0  0  0  0  0  0  0  0  0  0
    0.8780    3.3890    3.0716 O   0  0  0  0  0  0  0  0  0  0  0  0
   -2.6735    2.7522    3.7940 O   0  0  0  0  0  0  0  0  0  0  0  0
  1  2  1  0  0  0  0
  1 10  1  0  0  0  0
  1 21  1  1  0  0  0
  2  3  1  0  0  0  0
  2  7  1  1  0  0  0
  3  4  1  0  0  0  0
  3  8  1  1  0  0  0
  4  5  1  0  0  0  0
  4  9  1  1  0  0  0
  5  6  1  6  0  0  0
  5 10  1  0  0  0  0
  6 11  1  0  0  0  0
 12 13  1  0  0  0  0
 12 17  1  0  0  0  0
 12 18  1  1  0  0  0
 13 14  1  0  0  0  0
 14 15  1  0  0  0  0
 14 19  1  1  0  0  0
 15 16  1  0  0  0  0
 15 30  1  6  0  0  0
 16 17  1  0  0  0  0
 16 20  1  1  0  0  0
 17 21  1  6  0  0  0
 22 23  1  0  0  0  0
 22 30  1  6  0  0  0
 22 32  1  0  0  0  0
 23 24  1  0  0  0  0
 23 28  1  6  0  0  0
 24 25  1  0  0  0  0
 25 26  1  0  0  0  0
 25 31  1  6  0  0  0
 26 27  1  1  0  0  0
 26 32  1  0  0  0  0
 27 29  1  0  0  0  0
M  CHG  5   8   1  18   1  19   1  28   1  29   1
M  END
>  <CHROM.1>
-134.54568234,155.55783363,50.89219169,-58.27819665,60.72851087,-177.36143428
-58.58185224,-47.92999388,-146.29596766,-172.80989500,-60.57470199,-141.10039005
160.64507508,174.31934949,169.95034507,-41.44972592,-5.29893665,6.36681609
2.86120855,-2.66605854,0.62811811,-2.36648377

>  <Name>
1tob

>  <RI>
0

>  <Rbt.Current_Directory>
/home/itssahil/PROJECTS/Mol_Feturizer/New_Systems/rnas/1tob

>  <Rbt.Executable>
rbdock ($Id: //depot/dev/client3/rdock/2013.1/src/exe/rbdock.cxx#4 $)

>  <Rbt.Library>
libRbt.so (2013.1, Build901 2013/11/27)

>  <Rbt.Parameter_File>
/export/apps/rDock/src/rDock_2013.1_src/data/scripts/dock_solv.prm

>  <Rbt.Receptor>
prm/pocket_docking_2.prm

>  <SCORE>
-48.2349

>  <SCORE.INTER>
-45.5523

>  <SCORE.INTER.CONST>
1

>  <SCORE.INTER.POLAR>
-7.80425

>  <SCORE.INTER.ROT>
6

>  <SCORE.INTER.SOLV>
37.131

>  <SCORE.INTER.VDW>
-24.3311

>  <SCORE.INTER.norm>
-1.42351

>  <SCORE.INTRA>
-5.64753

>  <SCORE.INTRA.DIHEDRAL>
-1.49177

>  <SCORE.INTRA.DIHEDRAL.0>
22.9177

>  <SCORE.INTRA.POLAR>
-1.46537

>  <SCORE.INTRA.POLAR.0>
-0.311208

>  <SCORE.INTRA.REPUL>
0

>  <SCORE.INTRA.REPUL.0>
0

>  <SCORE.INTRA.SOLV>
0.595183

>  <SCORE.INTRA.SOLV.lig_0>
-132.657

>  <SCORE.INTRA.VDW>
-0.216991

>  <SCORE.INTRA.VDW.0>
-4.68867

>  <SCORE.INTRA.norm>
-0.176485

>  <SCORE.RESTR>
2.96499

>  <SCORE.RESTR.CAVITY>
2.96499

>  <SCORE.RESTR.norm>
0.0926558

>  <SCORE.SYSTEM>
0

>  <SCORE.SYSTEM.CONST>
0

>  <SCORE.SYSTEM.DIHEDRAL>
0

>  <SCORE.SYSTEM.SOLV>
0

>  <SCORE.SYSTEM.norm>
0

>  <SCORE.heavy>
32

>  <SCORE.norm>
-1.50734

>  <RMSD>
8.502

$$$$
1tob
 OpenBabel11021811413D
libRbt.so/2013.1/901 2013/11/27
 32 34  0  0  0  0  0  0  0  0999 V2000
   -3.4149    6.6173    4.2604 C   0  0  2  0  0  0  0  0  0  0  0  0
   -4.3878    7.4704    5.0708 C   0  0  1  0  0  0  0  0  0  0  0  0
   -5.0722    8.4767    4.1559 C   0  0  2  0  0  0  0  0  0  0  0  0
   -4.0156    9.3036    3.4332 C   0  0  1  0  0  0  0  0  0  0  0  0
   -3.0591    8.3810    2.6827 C   0  0  1  0  0  0  0  0  0  0  0  0
   -1.9366    9.1416    2.0044 C   0  0  0  0  0  0  0  0  0  0  0  0
   -5.3631    6.6369    5.6804 O   0  0  0  0  0  0  0  0  0  0  0  0
   -6.0183    9.3269    4.9105 N   0  3  0  0  0  0  0  0  0  0  0  0
   -4.6436   10.1990    2.5255 O   0  0  0  0  0  0  0  0  0  0  0  0
   -2.4504    7.4470    3.6005 O   0  0  0  0  0  0  0  0  0  0  0  0
   -1.2209    8.3128    1.0996 O   0  0  0  0  0  0  0  0  0  0  0  0
   -3.8191    3.9259    1.9220 C   0  0  2  0  0  0  0  0  0  0  0  0
   -3.5842    2.4223    1.9717 C   0  0  0  0  0  0  0  0  0  0  0  0
   -2.2822    2.1089    2.7094 C   0  0  1  0  0  0  0  0  0  0  0  0
   -2.3538    2.6546    4.1338 C   0  0  2  0  0  0  0  0  0  0  0  0
   -2.5976    4.1642    4.1036 C   0  0  1  0  0  0  0  0  0  0  0  0
   -3.8845    4.4734    3.3395 C   0  0  1  0  0  0  0  0  0  0  0  0
   -5.0942    4.2336    1.2381 N   0  3  0  0  0  0  0  0  0  0  0  0
   -2.0224    0.6462    2.6767 N   0  3  0  0  0  0  0  0  0  0  0  0
   -2.6914    4.6638    5.4309 O   0  0  0  0  0  0  0  0  0  0  0  0
   -4.0996    5.8958    3.3004 O   0  0  0  0  0  0  0  0  0  0  0  0
   -0.3305    1.3720    4.2927 C   0  0  1  0  0  0  0  0  0  0  0  0
    0.9063    1.1469    5.1642 C   0  0  1  0  0  0  0  0  0  0  0  0
    1.7632    2.4035    5.1983 C   0  0  0  0  0  0  0  0  0  0  0  0
    2.1069    2.8141    3.7758 C   0  0  1  0  0  0  0  0  0  0  0  0
    0.8232    2.9972    2.9670 C   0  0  1  0  0  0  0  0  0  0  0  0
    1.0919    3.3519    1.5157 C   0  0  0  0  0  0  0  0  0  0  0  0
    0.5265    0.6966    6.5241 N   0  3  0  0  0  0  0  0  0  0  0  0
    1.8305    4.6318    1.3972 N   0  3  0  0  0  0  0  0  0  0  0  0
   -1.1283    2.3687    4.8388 O   0  0  0  0  0  0  0  0  0  0  0  0
    2.8498    4.0244    3.7863 O   0  0  0  0  0  0  0  0  0  0  0  0
    0.0534    1.7754    2.9725 O   0  0  0  0  0  0  0  0  0  0  0  0
  1  2  1  0  0  0  0
  1 10  1  0  0  0  0
  1 21  1  6  0  0  0
  2  3  1  0  0  0  0
  2  7  1  6  0  0  0
  3  4  1  0  0  0  0
  3  8  1  1  0  0  0
  4  5  1  0  0  0  0
  4  9  1  6  0  0  0
  5  6  1  1  0  0  0
  5 10  1  0  0  0  0
  6 11  1  0  0  0  0
 12 13  1  0  0  0  0
 12 17  1  0  0  0  0
 12 18  1  1  0  0  0
 13 14  1  0  0  0  0
 14 15  1  0  0  0  0
 14 19  1  1  0  0  0
 15 16  1  0  0  0  0
 15 30  1  6  0  0  0
 16 17  1  0  0  0  0
 16 20  1  1  0  0  0
 17 21  1  6  0  0  0
 22 23  1  0  0  0  0
 22 30  1  1  0  0  0
 22 32  1  0  0  0  0
 23 24  1  0  0  0  0
 23 28  1  1  0  0  0
 24 25  1  0  0  0  0
 25 26  1  0  0  0  0
 25 31  1  1  0  0  0
 26 27  1  6  0  0  0
 26 32  1  0  0  0  0
 27 29  1  0  0  0  0
M  CHG  5   8   1  18   1  19   1  28   1  29   1
M  END
>  <CHROM.1>
-124.94924316,74.83215998,-157.73291676,-51.97659173,-168.20362851,-170.24486284
26.22179355,129.08488454,-18.16146885,74.71056289,-141.88311625,-178.21114416
-81.64543762,69.08128970,-61.17595118,47.04368871,-1.98554865,4.84301143
3.52185160,2.25576666,0.24769696,-0.26457061

>  <Name>
1tob

>  <RI>
0

>  <Rbt.Current_Directory>
/home/itssahil/PROJECTS/Mol_Feturizer/New_Systems/rnas/1tob

>  <Rbt.Executable>
rbdock ($Id: //depot/dev/client3/rdock/2013.1/src/exe/rbdock.cxx#4 $)

>  <Rbt.Library>
libRbt.so (2013.1, Build901 2013/11/27)

>  <Rbt.Parameter_File>
/export/apps/rDock/src/rDock_2013.1_src/data/scripts/dock_solv.prm

>  <Rbt.Receptor>
prm/blind_docking_100.prm

>  <SCORE>
8.98084

>  <SCORE.INTER>
-29.6901

>  <SCORE.INTER.CONST>
1

>  <SCORE.INTER.POLAR>
-6.69479

>  <SCORE.INTER.ROT>
6

>  <SCORE.INTER.SOLV>
43.5834

>  <SCORE.INTER.VDW>
-19.6052

>  <SCORE.INTER.norm>
-0.927816

>  <SCORE.INTRA>
23.758

>  <SCORE.INTRA.DIHEDRAL>
6.65184

>  <SCORE.INTRA.DIHEDRAL.0>
22.9177

>  <SCORE.INTRA.POLAR>
-0.737526

>  <SCORE.INTRA.POLAR.0>
-0.311208

>  <SCORE.INTRA.REPUL>
0

>  <SCORE.INTRA.REPUL.0>
0

>  <SCORE.INTRA.SOLV>
-2.16894

>  <SCORE.INTRA.SOLV.lig_0>
-132.657

>  <SCORE.INTRA.VDW>
24.0241

>  <SCORE.INTRA.VDW.0>
-4.68867

>  <SCORE.INTRA.norm>
0.742437

>  <SCORE.RESTR>
14.913

>  <SCORE.RESTR.CAVITY>
14.913

>  <SCORE.RESTR.norm>
0.46603

>  <SCORE.SYSTEM>
0

>  <SCORE.SYSTEM.CONST>
0

>  <SCORE.SYSTEM.DIHEDRAL>
0

>  <SCORE.SYSTEM.SOLV>
0

>  <SCORE.SYSTEM.norm>
0

>  <SCORE.heavy>
32

>  <SCORE.norm>
0.280651

>  <RMSD>
8.509

$$$$
1tob
 OpenBabel11021811413D
libRbt.so/2013.1/901 2013/11/27
 32 34  0  0  0  0  0  0  0  0999 V2000
   -6.3745    8.4509    2.7630 C   0  0  2  0  0  0  0  0  0  0  0  0
   -6.3389    9.4034    3.9557 C   0  0  1  0  0  0  0  0  0  0  0  0
   -7.7475    9.8930    4.2630 C   0  0  2  0  0  0  0  0  0  0  0  0
   -8.3467   10.5268    3.0133 C   0  0  1  0  0  0  0  0  0  0  0  0
   -8.3087    9.5305    1.8577 C   0  0  1  0  0  0  0  0  0  0  0  0
   -8.8218   10.1289    0.5627 C   0  0  0  0  0  0  0  0  0  0  0  0
   -5.8072    8.7325    5.0892 O   0  0  0  0  0  0  0  0  0  0  0  0
   -7.7498   10.8257    5.4109 N   0  3  0  0  0  0  0  0  0  0  0  0
   -9.6865   10.9249    3.2712 O   0  0  0  0  0  0  0  0  0  0  0  0
   -6.9513    9.0981    1.6217 O   0  0  0  0  0  0  0  0  0  0  0  0
   -8.6444    9.2359   -0.5278 O   0  0  0  0  0  0  0  0  0  0  0  0
   -6.9107    6.0249    1.0438 C   0  0  2  0  0  0  0  0  0  0  0  0
   -6.3714    4.7121    0.4925 C   0  0  0  0  0  0  0  0  0  0  0  0
   -4.8680    4.6025    0.7484 C   0  0  1  0  0  0  0  0  0  0  0  0
   -4.5955    4.6679    2.2495 C   0  0  2  0  0  0  0  0  0  0  0  0
   -5.1383    5.9780    2.8227 C   0  0  1  0  0  0  0  0  0  0  0  0
   -6.6352    6.0959    2.5379 C   0  0  1  0  0  0  0  0  0  0  0  0
   -8.3710    6.1219    0.8283 N   0  3  0  0  0  0  0  0  0  0  0  0
   -4.3399    3.3580    0.1317 N   0  3  0  0  0  0  0  0  0  0  0  0
   -4.9077    6.0228    4.2244 O   0  0  0  0  0  0  0  0  0  0  0  0
   -7.1363    7.3376    3.0649 O   0  0  0  0  0  0  0  0  0  0  0  0
   -2.8144    3.9239    3.6770 C   0  0  1  0  0  0  0  0  0  0  0  0
   -1.5779    4.5882    4.2850 C   0  0  1  0  0  0  0  0  0  0  0  0
   -0.3909    4.4556    3.3428 C   0  0  0  0  0  0  0  0  0  0  0  0
   -0.1740    2.9875    3.0141 C   0  0  1  0  0  0  0  0  0  0  0  0
   -1.4570    2.3935    2.4339 C   0  0  1  0  0  0  0  0  0  0  0  0
   -1.3321    0.9105    2.1353 C   0  0  0  0  0  0  0  0  0  0  0  0
   -1.8507    6.0013    4.6391 N   0  3  0  0  0  0  0  0  0  0  0  0
   -2.0673    0.0925    3.1293 N   0  3  0  0  0  0  0  0  0  0  0  0
   -3.1790    4.5700    2.5033 O   0  0  0  0  0  0  0  0  0  0  0  0
    0.8881    2.8510    2.0813 O   0  0  0  0  0  0  0  0  0  0  0  0
   -2.5454    2.5503    3.3700 O   0  0  0  0  0  0  0  0  0  0  0  0
  1  2  1  0  0  0  0
  1 10  1  0  0  0  0
  1 21  1  1  0  0  0
  2  3  1  0  0  0  0
  2  7  1  1  0  0  0
  3  4  1  0  0  0  0
  3  8  1  1  0  0  0
  4  5  1  0  0  0  0
  4  9  1  1  0  0  0
  5  6  1  6  0  0  0
  5 10  1  0  0  0  0
  6 11  1  0  0  0  0
 12 13  1  0  0  0  0
 12 17  1  0  0  0  0
 12 18  1  1  0  0  0
 13 14  1  0  0  0  0
 14 15  1  0  0  0  0
 14 19  1  1  0  0  0
 15 16  1  0  0  0  0
 15 30  1  6  0  0  0
 16 17  1  0  0  0  0
 16 20  1  1  0  0  0
 17 21  1  6  0  0  0
 22 23  1  0  0  0  0
 22 30  1  6  0  0  0
 22 32  1  0  0  0  0
 23 24  1  0  0  0  0
 23 28  1  6  0  0  0
 24 25  1  0  0  0  0
 25 26  1  0  0  0  0
 25 31  1  6  0  0  0
 26 27  1  1  0  0  0
 26 32  1  0  0  0  0
 27 29  1  0  0  0  0
M  CHG  5   8   1  18   1  19   1  28   1  29   1
M  END
>  <CHROM.1>
-142.02672401,39.41091006,-70.01377562,-64.07871018,173.69387854,-175.68283304
56.90728253,-168.43127274,-146.88138417,-67.03940235,-75.07619124,-144.03752046
-89.75158981,-63.78226392,105.89301443,-151.67982390,-5.03395430,6.15944186
2.63439480,-2.60547512,0.63189703,-2.38091755

>  <Name>
1tob

>  <RI>
0

>  <Rbt.Current_Directory>
/home/itssahil/PROJECTS/Mol_Feturizer/New_Systems/rnas/1tob

>  <Rbt.Executable>
rbdock ($Id: //depot/dev/client3/rdock/2013.1/src/exe/rbdock.cxx#4 $)

>  <Rbt.Library>
libRbt.so (2013.1, Build901 2013/11/27)

>  <Rbt.Parameter_File>
/export/apps/rDock/src/rDock_2013.1_src/data/scripts/dock_solv.prm

>  <Rbt.Receptor>
prm/pocket_docking_5.prm

>  <SCORE>
-52.7311

>  <SCORE.INTER>
-50.156

>  <SCORE.INTER.CONST>
1

>  <SCORE.INTER.POLAR>
-7.71069

>  <SCORE.INTER.ROT>
6

>  <SCORE.INTER.SOLV>
39.3322

>  <SCORE.INTER.VDW>
-28.4457

>  <SCORE.INTER.norm>
-1.56737

>  <SCORE.INTRA>
-2.57515

>  <SCORE.INTRA.DIHEDRAL>
3.31472

>  <SCORE.INTRA.DIHEDRAL.0>
22.9177

>  <SCORE.INTRA.POLAR>
-1.47902

>  <SCORE.INTRA.POLAR.0>
-0.311208

>  <SCORE.INTRA.REPUL>
0

>  <SCORE.INTRA.REPUL.0>
0

>  <SCORE.INTRA.SOLV>
-1.05617

>  <SCORE.INTRA.SOLV.lig_0>
-132.657

>  <SCORE.INTRA.VDW>
1.32425

>  <SCORE.INTRA.VDW.0>
-4.68867

>  <SCORE.INTRA.norm>
-0.0804733

>  <SCORE.RESTR>
0

>  <SCORE.RESTR.CAVITY>
0

>  <SCORE.RESTR.norm>
0

>  <SCORE.SYSTEM>
0

>  <SCORE.SYSTEM.CONST>
0

>  <SCORE.SYSTEM.DIHEDRAL>
0

>  <SCORE.SYSTEM.SOLV>
0

>  <SCORE.SYSTEM.norm>
0

>  <SCORE.heavy>
32

>  <SCORE.norm>
-1.64785

>  <RMSD>
8.512

$$$$
1tob
 OpenBabel11021811413D
libRbt.so/2013.1/901 2013/11/27
 32 34  0  0  0  0  0  0  0  0999 V2000
   -5.9417    8.1145    2.5866 C   0  0  2  0  0  0  0  0  0  0  0  0
   -5.7287    9.1375    3.6999 C   0  0  1  0  0  0  0  0  0  0  0  0
   -7.0710    9.7121    4.1319 C   0  0  2  0  0  0  0  0  0  0  0  0
   -7.7863   10.2938    2.9184 C   0  0  1  0  0  0  0  0  0  0  0  0
   -7.9237    9.2261    1.8365 C   0  0  1  0  0  0  0  0  0  0  0  0
   -8.5603    9.7655    0.5707 C   0  0  0  0  0  0  0  0  0  0  0  0
   -5.0955    8.5147    4.8084 O   0  0  0  0  0  0  0  0  0  0  0  0
   -6.9017   10.7142    5.2063 N   0  3  0  0  0  0  0  0  0  0  0  0
   -9.0697   10.7708    3.2997 O   0  0  0  0  0  0  0  0  0  0  0  0
   -6.6216    8.7154    1.4772 O   0  0  0  0  0  0  0  0  0  0  0  0
   -7.7046   10.6886   -0.0879 O   0  0  0  0  0  0  0  0  0  0  0  0
   -6.1735    5.3672    1.4027 C   0  0  2  0  0  0  0  0  0  0  0  0
   -5.5441    3.9926    1.2227 C   0  0  0  0  0  0  0  0  0  0  0  0
   -4.0930    4.0020    1.7041 C   0  0  1  0  0  0  0  0  0  0  0  0
   -4.0433    4.3891    3.1805 C   0  0  2  0  0  0  0  0  0  0  0  0
   -4.6792    5.7654    3.3817 C   0  0  1  0  0  0  0  0  0  0  0  0
   -6.1198    5.7583    2.8715 C   0  0  1  0  0  0  0  0  0  0  0  0
   -7.5878    5.3556    0.9691 N   0  3  0  0  0  0  0  0  0  0  0  0
   -3.4659    2.6801    1.4447 N   0  3  0  0  0  0  0  0  0  0  0  0
   -4.6561    6.1098    4.7605 O   0  0  0  0  0  0  0  0  0  0  0  0
   -6.7070    7.0601    3.0485 O   0  0  0  0  0  0  0  0  0  0  0  0
   -2.3989    3.6027    4.7430 C   0  0  1  0  0  0  0  0  0  0  0  0
   -1.2866    4.2274    5.5871 C   0  0  1  0  0  0  0  0  0  0  0  0
    0.0027    4.3085    4.7837 C   0  0  0  0  0  0  0  0  0  0  0  0
    0.3579    2.9244    4.2655 C   0  0  1  0  0  0  0  0  0  0  0  0
   -0.8086    2.3622    3.4538 C   0  0  1  0  0  0  0  0  0  0  0  0
   -0.5468    0.9537    2.9520 C   0  0  0  0  0  0  0  0  0  0  0  0
   -1.6961    5.5502    6.1152 N   0  3  0  0  0  0  0  0  0  0  0  0
   -1.6708    0.0435    3.2775 N   0  3  0  0  0  0  0  0  0  0  0  0
   -2.6779    4.4058    3.6452 O   0  0  0  0  0  0  0  0  0  0  0  0
    1.5226    2.9936    3.4560 O   0  0  0  0  0  0  0  0  0  0  0  0
   -2.0012    2.3111    4.2666 O   0  0  0  0  0  0  0  0  0  0  0  0
  1  2  1  0  0  0  0
  1 10  1  0  0  0  0
  1 21  1  1  0  0  0
  2  3  1  0  0  0  0
  2  7  1  1  0  0  0
  3  4  1  0  0  0  0
  3  8  1  1  0  0  0
  4  5  1  0  0  0  0
  4  9  1  1  0  0  0
  5  6  1  6  0  0  0
  5 10  1  0  0  0  0
  6 11  1  0  0  0  0
 12 13  1  0  0  0  0
 12 17  1  0  0  0  0
 12 18  1  1  0  0  0
 13 14  1  0  0  0  0
 14 15  1  0  0  0  0
 14 19  1  1  0  0  0
 15 16  1  0  0  0  0
 15 30  1  6  0  0  0
 16 17  1  0  0  0  0
 16 20  1  1  0  0  0
 17 21  1  6  0  0  0
 22 23  1  0  0  0  0
 22 30  1  6  0  0  0
 22 32  1  0  0  0  0
 23 24  1  0  0  0  0
 23 28  1  6  0  0  0
 24 25  1  0  0  0  0
 25 26  1  0  0  0  0
 25 31  1  6  0  0  0
 26 27  1  1  0  0  0
 26 32  1  0  0  0  0
 27 29  1  0  0  0  0
M  CHG  5   8   1  18   1  19   1  28   1  29   1
M  END
>  <CHROM.1>
-125.42639129,166.82479943,22.71236749,-55.32781575,68.23340240,-56.53324007
-61.17796588,-81.27163900,-124.10645534,-77.05997779,-72.98879232,-148.51647027
-134.31480834,-179.50577984,129.55184526,85.86137607,-4.47187317,5.94705520
3.16823952,-2.61946804,0.67307656,-2.50161657

>  <Name>
1tob

>  <RI>
0

>  <Rbt.Current_Directory>
/home/itssahil/PROJECTS/Mol_Feturizer/New_Systems/rnas/1tob

>  <Rbt.Executable>
rbdock ($Id: //depot/dev/client3/rdock/2013.1/src/exe/rbdock.cxx#4 $)

>  <Rbt.Library>
libRbt.so (2013.1, Build901 2013/11/27)

>  <Rbt.Parameter_File>
/export/apps/rDock/src/rDock_2013.1_src/data/scripts/dock_solv.prm

>  <Rbt.Receptor>
prm/pocket_docking_3.prm

>  <SCORE>
-41.8365

>  <SCORE.INTER>
-49.9868

>  <SCORE.INTER.CONST>
1

>  <SCORE.INTER.POLAR>
-8.13367

>  <SCORE.INTER.ROT>
6

>  <SCORE.INTER.SOLV>
38.1981

>  <SCORE.INTER.VDW>
-26.545

>  <SCORE.INTER.norm>
-1.56209

>  <SCORE.INTRA>
7.63664

>  <SCORE.INTRA.DIHEDRAL>
11.4692

>  <SCORE.INTRA.DIHEDRAL.0>
22.9177

>  <SCORE.INTRA.POLAR>
-0.531081

>  <SCORE.INTRA.POLAR.0>
-0.311208

>  <SCORE.INTRA.REPUL>
0.0150133

>  <SCORE.INTRA.REPUL.0>
0

>  <SCORE.INTRA.SOLV>
1.93719

>  <SCORE.INTRA.SOLV.lig_0>
-132.657

>  <SCORE.INTRA.VDW>
2.66405

>  <SCORE.INTRA.VDW.0>
-4.68867

>  <SCORE.INTRA.norm>
0.238645

>  <SCORE.RESTR>
0.513675

>  <SCORE.RESTR.CAVITY>
0.513675

>  <SCORE.RESTR.norm>
0.0160523

>  <SCORE.SYSTEM>
0

>  <SCORE.SYSTEM.CONST>
0

>  <SCORE.SYSTEM.DIHEDRAL>
0

>  <SCORE.SYSTEM.SOLV>
0

>  <SCORE.SYSTEM.norm>
0

>  <SCORE.heavy>
32

>  <SCORE.norm>
-1.30739

>  <RMSD>
8.520

$$$$
1tob
 OpenBabel11021811413D
libRbt.so/2013.1/901 2013/11/27
 32 34  0  0  0  0  0  0  0  0999 V2000
   -4.6803    4.1878    2.5837 C   0  0  2  0  0  0  0  0  0  0  0  0
   -5.7006    4.6387    1.5411 C   0  0  1  0  0  0  0  0  0  0  0  0
   -5.3439    6.0331    1.0443 C   0  0  2  0  0  0  0  0  0  0  0  0
   -5.2467    6.9837    2.2315 C   0  0  1  0  0  0  0  0  0  0  0  0
   -4.2416    6.4451    3.2459 C   0  0  1  0  0  0  0  0  0  0  0  0
   -4.1565    7.3092    4.4887 C   0  0  0  0  0  0  0  0  0  0  0  0
   -5.7058    3.7286    0.4506 O   0  0  0  0  0  0  0  0  0  0  0  0
   -6.3174    6.5058    0.0362 N   0  3  0  0  0  0  0  0  0  0  0  0
   -4.8468    8.2721    1.7843 O   0  0  0  0  0  0  0  0  0  0  0  0
   -4.6289    5.1204    3.6707 O   0  0  0  0  0  0  0  0  0  0  0  0
   -5.0224    6.8356    5.5104 O   0  0  0  0  0  0  0  0  0  0  0  0
   -1.4479    2.7606    1.6383 C   0  0  2  0  0  0  0  0  0  0  0  0
   -0.5141    1.7505    2.2909 C   0  0  0  0  0  0  0  0  0  0  0  0
    0.1135    2.3409    3.5538 C   0  0  1  0  0  0  0  0  0  0  0  0
   -0.9847    2.7238    4.5434 C   0  0  2  0  0  0  0  0  0  0  0  0
   -1.9379    3.7331    3.9016 C   0  0  1  0  0  0  0  0  0  0  0  0
   -2.5394    3.1488    2.6239 C   0  0  1  0  0  0  0  0  0  0  0  0
   -2.0836    2.1831    0.4338 N   0  3  0  0  0  0  0  0  0  0  0  0
    1.0856    1.3777    4.1327 N   0  3  0  0  0  0  0  0  0  0  0  0
   -2.9742    4.0658    4.8157 O   0  0  0  0  0  0  0  0  0  0  0  0
   -3.4223    4.1090    2.0162 O   0  0  0  0  0  0  0  0  0  0  0  0
   -1.2301    3.3296    6.8535 C   0  0  1  0  0  0  0  0  0  0  0  0
   -1.2279    4.7338    7.4602 C   0  0  1  0  0  0  0  0  0  0  0  0
    0.1661    5.0938    7.9516 C   0  0  0  0  0  0  0  0  0  0  0  0
    0.6457    4.0274    8.9229 C   0  0  1  0  0  0  0  0  0  0  0  0
    0.5929    2.6559    8.2508 C   0  0  1  0  0  0  0  0  0  0  0  0
    1.0039    1.5312    9.1837 C   0  0  0  0  0  0  0  0  0  0  0  0
   -1.7527    5.7317    6.4984 N   0  3  0  0  0  0  0  0  0  0  0  0
    0.7532    0.2025    8.5760 N   0  3  0  0  0  0  0  0  0  0  0  0
   -0.4044    3.2867    5.7379 O   0  0  0  0  0  0  0  0  0  0  0  0
    1.9732    4.3123    9.3393 O   0  0  0  0  0  0  0  0  0  0  0  0
   -0.7510    2.3717    7.8054 O   0  0  0  0  0  0  0  0  0  0  0  0
  1  2  1  0  0  0  0
  1 10  1  0  0  0  0
  1 21  1  6  0  0  0
  2  3  1  0  0  0  0
  2  7  1  6  0  0  0
  3  4  1  0  0  0  0
  3  8  1  6  0  0  0
  4  5  1  0  0  0  0
  4  9  1  6  0  0  0
  5  6  1  1  0  0  0
  5 10  1  0  0  0  0
  6 11  1  0  0  0  0
 12 13  1  0  0  0  0
 12 17  1  0  0  0  0
 12 18  1  6  0  0  0
 13 14  1  0  0  0  0
 14 15  1  0  0  0  0
 14 19  1  1  0  0  0
 15 16  1  0  0  0  0
 15 30  1  1  0  0  0
 16 17  1  0  0  0  0
 16 20  1  1  0  0  0
 17 21  1  6  0  0  0
 22 23  1  0  0  0  0
 22 30  1  6  0  0  0
 22 32  1  0  0  0  0
 23 24  1  0  0  0  0
 23 28  1  6  0  0  0
 24 25  1  0  0  0  0
 25 26  1  0  0  0  0
 25 31  1  6  0  0  0
 26 27  1  1  0  0  0
 26 32  1  0  0  0  0
 27 29  1  0  0  0  0
M  CHG  5   8   1  18   1  19   1  28   1  29   1
M  END
>  <CHROM.1>
-151.79320915,-77.19586393,-170.26753435,69.89770956,93.67443942,-49.98254042
-160.97658218,-177.19139544,-162.53552175,-91.21310731,158.01978100,-129.43019311
131.70279172,178.17724196,171.56102052,81.15403330,-2.23271372,4.11250064
4.45998010,-2.71876245,-0.81410243,0.99237167

>  <Name>
1tob

>  <RI>
0

>  <Rbt.Current_Directory>
/home/itssahil/PROJECTS/Mol_Feturizer/New_Systems/rnas/1tob

>  <Rbt.Executable>
rbdock ($Id: //depot/dev/client3/rdock/2013.1/src/exe/rbdock.cxx#4 $)

>  <Rbt.Library>
libRbt.so (2013.1, Build901 2013/11/27)

>  <Rbt.Parameter_File>
/export/apps/rDock/src/rDock_2013.1_src/data/scripts/dock_solv.prm

>  <Rbt.Receptor>
prm/blind_docking_100.prm

>  <SCORE>
13.9516

>  <SCORE.INTER>
-7.76908

>  <SCORE.INTER.CONST>
1

>  <SCORE.INTER.POLAR>
-3.63985

>  <SCORE.INTER.ROT>
6

>  <SCORE.INTER.SOLV>
32.5105

>  <SCORE.INTER.VDW>
-11.4834

>  <SCORE.INTER.norm>
-0.242784

>  <SCORE.INTRA>
4.35476

>  <SCORE.INTRA.DIHEDRAL>
5.70555

>  <SCORE.INTRA.DIHEDRAL.0>
22.9177

>  <SCORE.INTRA.POLAR>
-0.9893

>  <SCORE.INTRA.POLAR.0>
-0.311208

>  <SCORE.INTRA.REPUL>
0.0165907

>  <SCORE.INTRA.REPUL.0>
0

>  <SCORE.INTRA.SOLV>
-0.244183

>  <SCORE.INTRA.SOLV.lig_0>
-132.657

>  <SCORE.INTRA.VDW>
4.90474

>  <SCORE.INTRA.VDW.0>
-4.68867

>  <SCORE.INTRA.norm>
0.136086

>  <SCORE.RESTR>
17.366

>  <SCORE.RESTR.CAVITY>
17.366

>  <SCORE.RESTR.norm>
0.542686

>  <SCORE.SYSTEM>
0

>  <SCORE.SYSTEM.CONST>
0

>  <SCORE.SYSTEM.DIHEDRAL>
0

>  <SCORE.SYSTEM.SOLV>
0

>  <SCORE.SYSTEM.norm>
0

>  <SCORE.heavy>
32

>  <SCORE.norm>
0.435989

>  <RMSD>
8.533

$$$$
1tob
 OpenBabel11021811413D
libRbt.so/2013.1/901 2013/11/27
 32 34  0  0  0  0  0  0  0  0999 V2000
   -6.3675    8.4694    2.7499 C   0  0  2  0  0  0  0  0  0  0  0  0
   -6.3581    9.4071    3.9548 C   0  0  1  0  0  0  0  0  0  0  0  0
   -7.7631    9.9396    4.2011 C   0  0  2  0  0  0  0  0  0  0  0  0
   -8.2812   10.6062    2.9324 C   0  0  1  0  0  0  0  0  0  0  0  0
   -8.2204    9.6219    1.7676 C   0  0  1  0  0  0  0  0  0  0  0  0
   -8.6515   10.2509    0.4573 C   0  0  0  0  0  0  0  0  0  0  0  0
   -5.9031    8.7069    5.1037 O   0  0  0  0  0  0  0  0  0  0  0  0
   -7.7900   10.8593    5.3590 N   0  3  0  0  0  0  0  0  0  0  0  0
   -9.6181   11.0455    3.1316 O   0  0  0  0  0  0  0  0  0  0  0  0
   -6.8680    9.1476    1.5908 O   0  0  0  0  0  0  0  0  0  0  0  0
   -8.6115    9.3113   -0.6074 O   0  0  0  0  0  0  0  0  0  0  0  0
   -6.9808    6.0521    0.9866 C   0  0  2  0  0  0  0  0  0  0  0  0
   -6.4612    4.7296    0.4396 C   0  0  0  0  0  0  0  0  0  0  0  0
   -4.9580    4.6023    0.6878 C   0  0  1  0  0  0  0  0  0  0  0  0
   -4.6763    4.6725    2.1870 C   0  0  2  0  0  0  0  0  0  0  0  0
   -5.1992    5.9925    2.7559 C   0  0  1  0  0  0  0  0  0  0  0  0
   -6.6961    6.1277    2.4787 C   0  0  1  0  0  0  0  0  0  0  0  0
   -8.4410    6.1664    0.7786 N   0  3  0  0  0  0  0  0  0  0  0  0
   -4.4491    3.3479    0.0751 N   0  3  0  0  0  0  0  0  0  0  0  0
   -4.9603    6.0420    4.1561 O   0  0  0  0  0  0  0  0  0  0  0  0
   -7.1785    7.3786    3.0016 O   0  0  0  0  0  0  0  0  0  0  0  0
   -2.8972    3.9479    3.6270 C   0  0  1  0  0  0  0  0  0  0  0  0
   -1.6397    4.6059    4.1974 C   0  0  1  0  0  0  0  0  0  0  0  0
   -0.4661    4.4112    3.2492 C   0  0  0  0  0  0  0  0  0  0  0  0
   -0.2858    2.9273    2.9735 C   0  0  1  0  0  0  0  0  0  0  0  0
   -1.5880    2.3416    2.4287 C   0  0  1  0  0  0  0  0  0  0  0  0
   -1.4997    0.8460    2.1846 C   0  0  0  0  0  0  0  0  0  0  0  0
   -1.8768    6.0370    4.5010 N   0  3  0  0  0  0  0  0  0  0  0  0
   -1.1582    0.1123    3.4267 N   0  3  0  0  0  0  0  0  0  0  0  0
   -3.2598    4.5580    2.4335 O   0  0  0  0  0  0  0  0  0  0  0  0
    0.7629    2.7319    2.0361 O   0  0  0  0  0  0  0  0  0  0  0  0
   -2.6624    2.5581    3.3690 O   0  0  0  0  0  0  0  0  0  0  0  0
  1  2  1  0  0  0  0
  1 10  1  0  0  0  0
  1 21  1  1  0  0  0
  2  3  1  0  0  0  0
  2  7  1  1  0  0  0
  3  4  1  0  0  0  0
  3  8  1  1  0  0  0
  4  5  1  0  0  0  0
  4  9  1  1  0  0  0
  5  6  1  6  0  0  0
  5 10  1  0  0  0  0
  6 11  1  0  0  0  0
 12 13  1  0  0  0  0
 12 17  1  0  0  0  0
 12 18  1  1  0  0  0
 13 14  1  0  0  0  0
 14 15  1  0  0  0  0
 14 19  1  1  0  0  0
 15 16  1  0  0  0  0
 15 30  1  6  0  0  0
 16 17  1  0  0  0  0
 16 20  1  1  0  0  0
 17 21  1  6  0  0  0
 22 23  1  0  0  0  0
 22 30  1  6  0  0  0
 22 32  1  0  0  0  0
 23 24  1  0  0  0  0
 23 28  1  6  0  0  0
 24 25  1  0  0  0  0
 25 26  1  0  0  0  0
 25 31  1  6  0  0  0
 26 27  1  1  0  0  0
 26 32  1  0  0  0  0
 27 29  1  0  0  0  0
M  CHG  5   8   1  18   1  19   1  28   1  29   1
M  END
>  <CHROM.1>
-142.27407304,34.83316750,178.26888527,-59.71159409,-178.89122540,-61.49153381
54.60662094,-37.93484348,-148.65683531,-68.37543811,-78.35947246,-144.35129407
27.82280914,-64.04797678,58.67246624,47.24708988,-5.03926936,6.17531566,2.59323720
-2.61967711,0.65404650,-2.36105724

>  <Name>
1tob

>  <RI>
0

>  <Rbt.Current_Directory>
/home/itssahil/PROJECTS/Mol_Feturizer/New_Systems/rnas/1tob

>  <Rbt.Executable>
rbdock ($Id: //depot/dev/client3/rdock/2013.1/src/exe/rbdock.cxx#4 $)

>  <Rbt.Library>
libRbt.so (2013.1, Build901 2013/11/27)

>  <Rbt.Parameter_File>
/export/apps/rDock/src/rDock_2013.1_src/data/scripts/dock_solv.prm

>  <Rbt.Receptor>
prm/pocket_docking_6.prm

>  <SCORE>
-51.2016

>  <SCORE.INTER>
-45.497

>  <SCORE.INTER.CONST>
1

>  <SCORE.INTER.POLAR>
-6.71143

>  <SCORE.INTER.ROT>
6

>  <SCORE.INTER.SOLV>
36.5484

>  <SCORE.INTER.VDW>
-27.7427

>  <SCORE.INTER.norm>
-1.42178

>  <SCORE.INTRA>
-5.70467

>  <SCORE.INTRA.DIHEDRAL>
-1.10574

>  <SCORE.INTRA.DIHEDRAL.0>
22.9177

>  <SCORE.INTRA.POLAR>
-1.68009

>  <SCORE.INTRA.POLAR.0>
-0.311208

>  <SCORE.INTRA.REPUL>
0

>  <SCORE.INTRA.REPUL.0>
0

>  <SCORE.INTRA.SOLV>
-0.674864

>  <SCORE.INTRA.SOLV.lig_0>
-132.657

>  <SCORE.INTRA.VDW>
0.89795

>  <SCORE.INTRA.VDW.0>
-4.68867

>  <SCORE.INTRA.norm>
-0.178271

>  <SCORE.RESTR>
0

>  <SCORE.RESTR.CAVITY>
0

>  <SCORE.RESTR.norm>
0

>  <SCORE.SYSTEM>
0

>  <SCORE.SYSTEM.CONST>
0

>  <SCORE.SYSTEM.DIHEDRAL>
0

>  <SCORE.SYSTEM.SOLV>
0

>  <SCORE.SYSTEM.norm>
0

>  <SCORE.heavy>
32

>  <SCORE.norm>
-1.60005

>  <RMSD>
8.533

$$$$
1tob
 OpenBabel11021811413D
libRbt.so/2013.1/901 2013/11/27
 32 34  0  0  0  0  0  0  0  0999 V2000
   -5.1782    4.3129    1.7025 C   0  0  2  0  0  0  0  0  0  0  0  0
   -5.2919    3.5466    0.3868 C   0  0  1  0  0  0  0  0  0  0  0  0
   -6.1077    4.3580   -0.6104 C   0  0  2  0  0  0  0  0  0  0  0  0
   -7.4625    4.6957    0.0004 C   0  0  1  0  0  0  0  0  0  0  0  0
   -7.2661    5.4209    1.3288 C   0  0  1  0  0  0  0  0  0  0  0  0
   -8.5801    5.7165    2.0248 C   0  0  0  0  0  0  0  0  0  0  0  0
   -3.9953    3.3041   -0.1402 O   0  0  0  0  0  0  0  0  0  0  0  0
   -6.2447    3.6411   -1.8967 N   0  3  0  0  0  0  0  0  0  0  0  0
   -8.2044    5.5113   -0.8965 O   0  0  0  0  0  0  0  0  0  0  0  0
   -6.4799    4.6066    2.2255 O   0  0  0  0  0  0  0  0  0  0  0  0
   -9.3105    6.7287    1.3465 O   0  0  0  0  0  0  0  0  0  0  0  0
   -4.4952    6.0810    3.8539 C   0  0  2  0  0  0  0  0  0  0  0  0
   -3.5925    6.5109    5.0022 C   0  0  0  0  0  0  0  0  0  0  0  0
   -2.4936    5.4737    5.2351 C   0  0  1  0  0  0  0  0  0  0  0  0
   -1.6563    5.3178    3.9677 C   0  0  2  0  0  0  0  0  0  0  0  0
   -2.5489    4.8936    2.8004 C   0  0  1  0  0  0  0  0  0  0  0  0
   -3.6629    5.9188    2.5913 C   0  0  1  0  0  0  0  0  0  0  0  0
   -5.5408    7.0968    3.6023 N   0  3  0  0  0  0  0  0  0  0  0  0
   -1.6725    5.8629    6.4109 N   0  3  0  0  0  0  0  0  0  0  0  0
   -1.7709    4.7766    1.6167 O   0  0  0  0  0  0  0  0  0  0  0  0
   -4.5087    5.5057    1.5028 O   0  0  0  0  0  0  0  0  0  0  0  0
   -0.9447    3.2702    4.9996 C   0  0  1  0  0  0  0  0  0  0  0  0
    0.2866    2.8101    5.7821 C   0  0  1  0  0  0  0  0  0  0  0  0
    1.3554    2.2965    4.8291 C   0  0  0  0  0  0  0  0  0  0  0  0
    0.7641    1.2014    3.9566 C   0  0  1  0  0  0  0  0  0  0  0  0
   -0.4702    1.7319    3.2281 C   0  0  1  0  0  0  0  0  0  0  0  0
   -1.1495    0.6720    2.3800 C   0  0  0  0  0  0  0  0  0  0  0  0
    0.7968    3.8909    6.6584 N   0  3  0  0  0  0  0  0  0  0  0  0
   -2.0763   -0.1573    3.1869 N   0  3  0  0  0  0  0  0  0  0  0  0
   -0.6182    4.3378    4.1740 O   0  0  0  0  0  0  0  0  0  0  0  0
    1.7294    0.7576    3.0142 O   0  0  0  0  0  0  0  0  0  0  0  0
   -1.4455    2.2054    4.1820 O   0  0  0  0  0  0  0  0  0  0  0  0
  1  2  1  0  0  0  0
  1 10  1  0  0  0  0
  1 21  1  6  0  0  0
  2  3  1  0  0  0  0
  2  7  1  6  0  0  0
  3  4  1  0  0  0  0
  3  8  1  6  0  0  0
  4  5  1  0  0  0  0
  4  9  1  6  0  0  0
  5  6  1  1  0  0  0
  5 10  1  0  0  0  0
  6 11  1  0  0  0  0
 12 13  1  0  0  0  0
 12 17  1  0  0  0  0
 12 18  1  6  0  0  0
 13 14  1  0  0  0  0
 14 15  1  0  0  0  0
 14 19  1  1  0  0  0
 15 16  1  0  0  0  0
 15 30  1  1  0  0  0
 16 17  1  0  0  0  0
 16 20  1  6  0  0  0
 17 21  1  6  0  0  0
 22 23  1  0  0  0  0
 22 30  1  6  0  0  0
 22 32  1  0  0  0  0
 23 24  1  0  0  0  0
 23 28  1  6  0  0  0
 24 25  1  0  0  0  0
 25 26  1  0  0  0  0
 25 31  1  6  0  0  0
 26 27  1  1  0  0  0
 26 32  1  0  0  0  0
 27 29  1  0  0  0  0
M  CHG  5   8   1  18   1  19   1  28   1  29   1
M  END
>  <CHROM.1>
-144.65717003,-22.04860497,-57.61058413,169.47691440,-70.85595939,-59.81706847
48.96406490,-88.71044476,34.49634226,-58.08265691,-59.30408233,-146.73315945
-46.36820413,67.86999064,83.98479951,123.70278836,-3.38362266,4.13874559
2.74161203,-3.03309608,-0.57610205,0.80717961

>  <Name>
1tob

>  <RI>
0

>  <Rbt.Current_Directory>
/home/itssahil/PROJECTS/Mol_Feturizer/New_Systems/rnas/1tob

>  <Rbt.Executable>
rbdock ($Id: //depot/dev/client3/rdock/2013.1/src/exe/rbdock.cxx#4 $)

>  <Rbt.Library>
libRbt.so (2013.1, Build901 2013/11/27)

>  <Rbt.Parameter_File>
/export/apps/rDock/src/rDock_2013.1_src/data/scripts/dock_solv.prm

>  <Rbt.Receptor>
prm/blind_docking_20.prm

>  <SCORE>
-18.648

>  <SCORE.INTER>
-28.4643

>  <SCORE.INTER.CONST>
1

>  <SCORE.INTER.POLAR>
-6.1606

>  <SCORE.INTER.ROT>
6

>  <SCORE.INTER.SOLV>
45.0904

>  <SCORE.INTER.VDW>
-21.071

>  <SCORE.INTER.norm>
-0.88951

>  <SCORE.INTRA>
3.61255

>  <SCORE.INTRA.DIHEDRAL>
2.75162

>  <SCORE.INTRA.DIHEDRAL.0>
22.9177

>  <SCORE.INTRA.POLAR>
-1.04468

>  <SCORE.INTRA.POLAR.0>
-0.311208

>  <SCORE.INTRA.REPUL>
0

>  <SCORE.INTRA.REPUL.0>
0

>  <SCORE.INTRA.SOLV>
3.19929

>  <SCORE.INTRA.SOLV.lig_0>
-132.657

>  <SCORE.INTRA.VDW>
4.18902

>  <SCORE.INTRA.VDW.0>
-4.68867

>  <SCORE.INTRA.norm>
0.112892

>  <SCORE.RESTR>
6.20376

>  <SCORE.RESTR.CAVITY>
6.20376

>  <SCORE.RESTR.norm>
0.193867

>  <SCORE.SYSTEM>
0

>  <SCORE.SYSTEM.CONST>
0

>  <SCORE.SYSTEM.DIHEDRAL>
0

>  <SCORE.SYSTEM.SOLV>
0

>  <SCORE.SYSTEM.norm>
0

>  <SCORE.heavy>
32

>  <SCORE.norm>
-0.58275

>  <RMSD>
8.536

$$$$
1tob
 OpenBabel11021811413D
libRbt.so/2013.1/901 2013/11/27
 32 34  0  0  0  0  0  0  0  0999 V2000
   -6.7507    8.8012    3.2355 C   0  0  2  0  0  0  0  0  0  0  0  0
   -8.2093    8.8471    2.7864 C   0  0  1  0  0  0  0  0  0  0  0  0
   -8.4115    7.9092    1.6042 C   0  0  2  0  0  0  0  0  0  0  0  0
   -7.4352    8.2774    0.4935 C   0  0  1  0  0  0  0  0  0  0  0  0
   -6.0063    8.2500    1.0291 C   0  0  1  0  0  0  0  0  0  0  0  0
   -4.9918    8.6833   -0.0109 C   0  0  0  0  0  0  0  0  0  0  0  0
   -9.0537    8.4546    3.8590 O   0  0  0  0  0  0  0  0  0  0  0  0
   -9.8146    7.9339    1.1372 N   0  3  0  0  0  0  0  0  0  0  0  0
   -7.5695    7.3640   -0.5871 O   0  0  0  0  0  0  0  0  0  0  0  0
   -5.8812    9.1503    2.1511 O   0  0  0  0  0  0  0  0  0  0  0  0
   -5.2478   10.0041   -0.4669 O   0  0  0  0  0  0  0  0  0  0  0  0
   -4.8843    7.5186    5.5320 C   0  0  2  0  0  0  0  0  0  0  0  0
   -3.4239    7.3152    5.9113 C   0  0  0  0  0  0  0  0  0  0  0  0
   -2.9538    5.9202    5.4981 C   0  0  1  0  0  0  0  0  0  0  0  0
   -3.1103    5.7507    3.9886 C   0  0  2  0  0  0  0  0  0  0  0  0
   -4.5714    5.9597    3.5878 C   0  0  1  0  0  0  0  0  0  0  0  0
   -5.0445    7.3442    4.0296 C   0  0  1  0  0  0  0  0  0  0  0  0
   -5.3355    8.8787    5.8997 N   0  3  0  0  0  0  0  0  0  0  0  0
   -1.5545    5.7043    5.9493 N   0  3  0  0  0  0  0  0  0  0  0  0
   -4.7081    5.8287    2.1792 O   0  0  0  0  0  0  0  0  0  0  0  0
   -6.4242    7.5283    3.6644 O   0  0  0  0  0  0  0  0  0  0  0  0
   -2.2012    4.3222    2.2866 C   0  0  1  0  0  0  0  0  0  0  0  0
   -2.6243    2.9810    1.6847 C   0  0  1  0  0  0  0  0  0  0  0  0
   -1.9999    1.8330    2.4635 C   0  0  0  0  0  0  0  0  0  0  0  0
   -0.4915    2.0160    2.5023 C   0  0  1  0  0  0  0  0  0  0  0  0
   -0.1525    3.3836    3.0941 C   0  0  1  0  0  0  0  0  0  0  0  0
    1.3399    3.6605    3.1100 C   0  0  0  0  0  0  0  0  0  0  0  0
   -4.1005    2.8682    1.6171 N   0  3  0  0  0  0  0  0  0  0  0  0
    1.8317    4.0636    1.7709 N   0  3  0  0  0  0  0  0  0  0  0  0
   -2.6738    4.4358    3.5873 O   0  0  0  0  0  0  0  0  0  0  0  0
    0.1019    0.9893    3.2838 O   0  0  0  0  0  0  0  0  0  0  0  0
   -0.7726    4.4300    2.3157 O   0  0  0  0  0  0  0  0  0  0  0  0
  1  2  1  0  0  0  0
  1 10  1  0  0  0  0
  1 21  1  6  0  0  0
  2  3  1  0  0  0  0
  2  7  1  1  0  0  0
  3  4  1  0  0  0  0
  3  8  1  6  0  0  0
  4  5  1  0  0  0  0
  4  9  1  6  0  0  0
  5  6  1  6  0  0  0
  5 10  1  0  0  0  0
  6 11  1  0  0  0  0
 12 13  1  0  0  0  0
 12 17  1  0  0  0  0
 12 18  1  6  0  0  0
 13 14  1  0  0  0  0
 14 15  1  0  0  0  0
 14 19  1  6  0  0  0
 15 16  1  0  0  0  0
 15 30  1  1  0  0  0
 16 17  1  0  0  0  0
 16 20  1  6  0  0  0
 17 21  1  1  0  0  0
 22 23  1  0  0  0  0
 22 30  1  1  0  0  0
 22 32  1  0  0  0  0
 23 24  1  0  0  0  0
 23 28  1  1  0  0  0
 24 25  1  0  0  0  0
 25 26  1  0  0  0  0
 25 31  1  1  0  0  0
 26 27  1  6  0  0  0
 26 32  1  0  0  0  0
 27 29  1  0  0  0  0
M  CHG  5   8   1  18   1  19   1  28   1  29   1
M  END
>  <CHROM.1>
176.06798756,-49.17053504,100.81064450,71.13593270,59.48043377,69.55121254
-32.55588487,91.79576151,-152.58712019,-55.22666824,95.59725773,-142.98363043
35.85814537,-56.15781038,78.30365709,-157.16972118,-4.17333524,6.14690353
2.76514231,-3.03723649,0.65152243,-1.92830853

>  <Name>
1tob

>  <RI>
0

>  <Rbt.Current_Directory>
/home/itssahil/PROJECTS/Mol_Feturizer/New_Systems/rnas/1tob

>  <Rbt.Executable>
rbdock ($Id: //depot/dev/client3/rdock/2013.1/src/exe/rbdock.cxx#4 $)

>  <Rbt.Library>
libRbt.so (2013.1, Build901 2013/11/27)

>  <Rbt.Parameter_File>
/export/apps/rDock/src/rDock_2013.1_src/data/scripts/dock_solv.prm

>  <Rbt.Receptor>
prm/pocket_docking_4.prm

>  <SCORE>
-54.7462

>  <SCORE.INTER>
-53.5909

>  <SCORE.INTER.CONST>
1

>  <SCORE.INTER.POLAR>
-8.64678

>  <SCORE.INTER.ROT>
6

>  <SCORE.INTER.SOLV>
39.6815

>  <SCORE.INTER.VDW>
-27.7319

>  <SCORE.INTER.norm>
-1.67472

>  <SCORE.INTRA>
-1.25833

>  <SCORE.INTRA.DIHEDRAL>
1.5718

>  <SCORE.INTRA.DIHEDRAL.0>
22.9177

>  <SCORE.INTRA.POLAR>
-0.650615

>  <SCORE.INTRA.POLAR.0>
-0.311208

>  <SCORE.INTRA.REPUL>
0

>  <SCORE.INTRA.REPUL.0>
0

>  <SCORE.INTRA.SOLV>
-1.62096

>  <SCORE.INTRA.SOLV.lig_0>
-132.657

>  <SCORE.INTRA.VDW>
0.978344

>  <SCORE.INTRA.VDW.0>
-4.68867

>  <SCORE.INTRA.norm>
-0.0393227

>  <SCORE.RESTR>
0.103104

>  <SCORE.RESTR.CAVITY>
0.103104

>  <SCORE.RESTR.norm>
0.00322199

>  <SCORE.SYSTEM>
0

>  <SCORE.SYSTEM.CONST>
0

>  <SCORE.SYSTEM.DIHEDRAL>
0

>  <SCORE.SYSTEM.SOLV>
0

>  <SCORE.SYSTEM.norm>
0

>  <SCORE.heavy>
32

>  <SCORE.norm>
-1.71082

>  <RMSD>
8.537

$$$$
1tob
 OpenBabel11021811413D
libRbt.so/2013.1/901 2013/11/27
 32 34  0  0  0  0  0  0  0  0999 V2000
   -7.1569    9.2727    3.9778 C   0  0  2  0  0  0  0  0  0  0  0  0
   -8.5047    9.5235    3.3055 C   0  0  1  0  0  0  0  0  0  0  0  0
   -8.3627    9.3659    1.7978 C   0  0  2  0  0  0  0  0  0  0  0  0
   -7.2644   10.2942    1.2933 C   0  0  1  0  0  0  0  0  0  0  0  0
   -5.9635   10.0118    2.0398 C   0  0  1  0  0  0  0  0  0  0  0  0
   -4.8494   10.9575    1.6362 C   0  0  0  0  0  0  0  0  0  0  0  0
   -9.4643    8.5979    3.7954 O   0  0  0  0  0  0  0  0  0  0  0  0
   -9.6502    9.6096    1.1121 N   0  3  0  0  0  0  0  0  0  0  0  0
   -7.0776   10.1039   -0.1028 O   0  0  0  0  0  0  0  0  0  0  0  0
   -6.1647   10.1685    3.4612 O   0  0  0  0  0  0  0  0  0  0  0  0
   -3.5741   10.4326    1.9771 O   0  0  0  0  0  0  0  0  0  0  0  0
   -5.1179    7.6871    5.5138 C   0  0  2  0  0  0  0  0  0  0  0  0
   -3.6461    7.4135    5.7914 C   0  0  0  0  0  0  0  0  0  0  0  0
   -3.2230    6.0831    5.1681 C   0  0  1  0  0  0  0  0  0  0  0  0
   -3.4510    6.1264    3.6588 C   0  0  2  0  0  0  0  0  0  0  0  0
   -4.9244    6.4086    3.3606 C   0  0  1  0  0  0  0  0  0  0  0  0
   -5.3494    7.7247    4.0110 C   0  0  1  0  0  0  0  0  0  0  0  0
   -5.5248    8.9890    6.0864 N   0  3  0  0  0  0  0  0  0  0  0  0
   -1.8093    5.7879    5.5181 N   0  3  0  0  0  0  0  0  0  0  0  0
   -5.1273    6.4759    1.9555 O   0  0  0  0  0  0  0  0  0  0  0  0
   -6.7403    7.9761    3.7408 O   0  0  0  0  0  0  0  0  0  0  0  0
   -2.4894    4.9559    1.7963 C   0  0  1  0  0  0  0  0  0  0  0  0
   -2.9325    3.7699    0.9377 C   0  0  1  0  0  0  0  0  0  0  0  0
   -2.4349    2.4658    1.5427 C   0  0  0  0  0  0  0  0  0  0  0  0
   -0.9271    2.5390    1.7197 C   0  0  1  0  0  0  0  0  0  0  0  0
   -0.5655    3.7583    2.5672 C   0  0  1  0  0  0  0  0  0  0  0  0
    0.9332    3.9288    2.7374 C   0  0  0  0  0  0  0  0  0  0  0  0
   -4.4022    3.7685    0.7470 N   0  3  0  0  0  0  0  0  0  0  0  0
    1.5226    2.8101    3.5112 N   0  3  0  0  0  0  0  0  0  0  0  0
   -3.0594    4.8741    3.0598 O   0  0  0  0  0  0  0  0  0  0  0  0
   -0.4542    1.3557    2.3467 O   0  0  0  0  0  0  0  0  0  0  0  0
   -1.0643    4.9622    1.9448 O   0  0  0  0  0  0  0  0  0  0  0  0
  1  2  1  0  0  0  0
  1 10  1  0  0  0  0
  1 21  1  6  0  0  0
  2  3  1  0  0  0  0
  2  7  1  1  0  0  0
  3  4  1  0  0  0  0
  3  8  1  6  0  0  0
  4  5  1  0  0  0  0
  4  9  1  6  0  0  0
  5  6  1  6  0  0  0
  5 10  1  0  0  0  0
  6 11  1  0  0  0  0
 12 13  1  0  0  0  0
 12 17  1  0  0  0  0
 12 18  1  6  0  0  0
 13 14  1  0  0  0  0
 14 15  1  0  0  0  0
 14 19  1  6  0  0  0
 15 16  1  0  0  0  0
 15 30  1  1  0  0  0
 16 17  1  0  0  0  0
 16 20  1  6  0  0  0
 17 21  1  1  0  0  0
 22 23  1  0  0  0  0
 22 30  1  1  0  0  0
 22 32  1  0  0  0  0
 23 24  1  0  0  0  0
 23 28  1  1  0  0  0
 24 25  1  0  0  0  0
 25 26  1  0  0  0  0
 25 31  1  1  0  0  0
 26 27  1  6  0  0  0
 26 32  1  0  0  0  0
 27 29  1  0  0  0  0
M  CHG  5   8   1  18   1  19   1  28   1  29   1
M  END
>  <CHROM.1>
164.27075335,171.90899003,63.40989345,-56.42217963,-160.58548650,-177.56729133
-31.69421969,-113.24835395,-144.69471249,-170.22836041,73.45836964,-143.27259308
-11.57124415,56.36517944,-65.23388801,167.85241928,-4.34337277,6.81463437
2.86277856,-2.78457066,0.68606869,-2.10713937

>  <Name>
1tob

>  <RI>
0

>  <Rbt.Current_Directory>
/home/itssahil/PROJECTS/Mol_Feturizer/New_Systems/rnas/1tob

>  <Rbt.Executable>
rbdock ($Id: //depot/dev/client3/rdock/2013.1/src/exe/rbdock.cxx#4 $)

>  <Rbt.Library>
libRbt.so (2013.1, Build901 2013/11/27)

>  <Rbt.Parameter_File>
/export/apps/rDock/src/rDock_2013.1_src/data/scripts/dock_solv.prm

>  <Rbt.Receptor>
prm/pocket_docking_8.prm

>  <SCORE>
-51.4784

>  <SCORE.INTER>
-47.2723

>  <SCORE.INTER.CONST>
1

>  <SCORE.INTER.POLAR>
-5.95724

>  <SCORE.INTER.ROT>
6

>  <SCORE.INTER.SOLV>
26.7675

>  <SCORE.INTER.VDW>
-28.1799

>  <SCORE.INTER.norm>
-1.47726

>  <SCORE.INTRA>
-4.20612

>  <SCORE.INTRA.DIHEDRAL>
-0.274353

>  <SCORE.INTRA.DIHEDRAL.0>
22.9177

>  <SCORE.INTRA.POLAR>
-2.393

>  <SCORE.INTRA.POLAR.0>
-0.311208

>  <SCORE.INTRA.REPUL>
0

>  <SCORE.INTRA.REPUL.0>
0

>  <SCORE.INTRA.SOLV>
-0.0211053

>  <SCORE.INTRA.SOLV.lig_0>
-132.657

>  <SCORE.INTRA.VDW>
4.0778

>  <SCORE.INTRA.VDW.0>
-4.68867

>  <SCORE.INTRA.norm>
-0.131441

>  <SCORE.RESTR>
0

>  <SCORE.RESTR.CAVITY>
0

>  <SCORE.RESTR.norm>
0

>  <SCORE.SYSTEM>
0

>  <SCORE.SYSTEM.CONST>
0

>  <SCORE.SYSTEM.DIHEDRAL>
0

>  <SCORE.SYSTEM.SOLV>
0

>  <SCORE.SYSTEM.norm>
0

>  <SCORE.heavy>
32

>  <SCORE.norm>
-1.6087

>  <RMSD>
8.541

$$$$
1tob
 OpenBabel11021811413D
libRbt.so/2013.1/901 2013/11/27
 32 34  0  0  0  0  0  0  0  0999 V2000
   -7.2073    8.2496    2.6080 C   0  0  2  0  0  0  0  0  0  0  0  0
   -8.6162    7.6942    2.4136 C   0  0  1  0  0  0  0  0  0  0  0  0
   -9.1636    8.1450    1.0662 C   0  0  2  0  0  0  0  0  0  0  0  0
   -9.1064    9.6655    0.9800 C   0  0  1  0  0  0  0  0  0  0  0  0
   -7.6786   10.1453    1.2258 C   0  0  1  0  0  0  0  0  0  0  0  0
   -7.5704   11.6575    1.2293 C   0  0  0  0  0  0  0  0  0  0  0  0
   -8.5836    6.2751    2.4667 O   0  0  0  0  0  0  0  0  0  0  0  0
  -10.5327    7.6303    0.8471 N   0  3  0  0  0  0  0  0  0  0  0  0
   -9.5513   10.0915   -0.3008 O   0  0  0  0  0  0  0  0  0  0  0  0
   -7.2145    9.6795    2.5114 O   0  0  0  0  0  0  0  0  0  0  0  0
   -6.2154   12.0807    1.2832 O   0  0  0  0  0  0  0  0  0  0  0  0
   -5.9953    5.6678    0.4582 C   0  0  2  0  0  0  0  0  0  0  0  0
   -5.5890    4.2124    0.6453 C   0  0  0  0  0  0  0  0  0  0  0  0
   -4.1945    4.1224    1.2656 C   0  0  1  0  0  0  0  0  0  0  0  0
   -4.1881    4.8251    2.6213 C   0  0  2  0  0  0  0  0  0  0  0  0
   -4.6020    6.2880    2.4538 C   0  0  1  0  0  0  0  0  0  0  0  0
   -5.9838    6.3721    1.8061 C   0  0  1  0  0  0  0  0  0  0  0  0
   -7.3574    5.7614   -0.1113 N   0  3  0  0  0  0  0  0  0  0  0  0
   -3.7761    2.6999    1.3641 N   0  3  0  0  0  0  0  0  0  0  0  0
   -4.6219    6.9312    3.7210 O   0  0  0  0  0  0  0  0  0  0  0  0
   -6.3603    7.7506    1.6362 O   0  0  0  0  0  0  0  0  0  0  0  0
   -2.7584    3.9350    4.3323 C   0  0  1  0  0  0  0  0  0  0  0  0
   -1.5880    4.3950    5.2032 C   0  0  1  0  0  0  0  0  0  0  0  0
   -0.2783    4.2591    4.4412 C   0  0  0  0  0  0  0  0  0  0  0  0
   -0.1283    2.8269    3.9546 C   0  0  1  0  0  0  0  0  0  0  0  0
   -1.3435    2.4377    3.1134 C   0  0  1  0  0  0  0  0  0  0  0  0
   -1.2900    0.9963    2.6405 C   0  0  0  0  0  0  0  0  0  0  0  0
   -1.8014    5.7753    5.6988 N   0  3  0  0  0  0  0  0  0  0  0  0
   -1.8327    0.0690    3.6619 N   0  3  0  0  0  0  0  0  0  0  0  0
   -2.8755    4.7506    3.2147 O   0  0  0  0  0  0  0  0  0  0  0  0
    1.0567    2.6984    3.1825 O   0  0  0  0  0  0  0  0  0  0  0  0
   -2.5532    2.5885    3.8876 O   0  0  0  0  0  0  0  0  0  0  0  0
  1  2  1  0  0  0  0
  1 10  1  0  0  0  0
  1 21  1  6  0  0  0
  2  3  1  0  0  0  0
  2  7  1  6  0  0  0
  3  4  1  0  0  0  0
  3  8  1  1  0  0  0
  4  5  1  0  0  0  0
  4  9  1  6  0  0  0
  5  6  1  1  0  0  0
  5 10  1  0  0  0  0
  6 11  1  0  0  0  0
 12 13  1  0  0  0  0
 12 17  1  0  0  0  0
 12 18  1  1  0  0  0
 13 14  1  0  0  0  0
 14 15  1  0  0  0  0
 14 19  1  1  0  0  0
 15 16  1  0  0  0  0
 15 30  1  6  0  0  0
 16 17  1  0  0  0  0
 16 20  1  1  0  0  0
 17 21  1  6  0  0  0
 22 23  1  0  0  0  0
 22 30  1  6  0  0  0
 22 32  1  0  0  0  0
 23 24  1  0  0  0  0
 23 28  1  6  0  0  0
 24 25  1  0  0  0  0
 25 26  1  0  0  0  0
 25 31  1  6  0  0  0
 26 27  1  1  0  0  0
 26 32  1  0  0  0  0
 27 29  1  0  0  0  0
M  CHG  5   8   1  18   1  19   1  28   1  29   1
M  END
>  <CHROM.1>
-73.76736385,69.48824975,63.29687796,-179.09126591,-172.30983810,176.18842142
-33.05781900,-99.20447303,-110.34823297,178.16442979,138.91706347,-154.83865867
66.44350692,-177.56532626,85.31901054,-161.79639223,-5.00026838,5.96399650
2.35718607,-2.50906908,0.50383201,-2.91799554

>  <Name>
1tob

>  <RI>
0

>  <Rbt.Current_Directory>
/home/itssahil/PROJECTS/Mol_Feturizer/New_Systems/rnas/1tob

>  <Rbt.Executable>
rbdock ($Id: //depot/dev/client3/rdock/2013.1/src/exe/rbdock.cxx#4 $)

>  <Rbt.Library>
libRbt.so (2013.1, Build901 2013/11/27)

>  <Rbt.Parameter_File>
/export/apps/rDock/src/rDock_2013.1_src/data/scripts/dock_solv.prm

>  <Rbt.Receptor>
prm/pocket_docking_2.prm

>  <SCORE>
-36.5426

>  <SCORE.INTER>
-40.2946

>  <SCORE.INTER.CONST>
1

>  <SCORE.INTER.POLAR>
-6.18263

>  <SCORE.INTER.ROT>
6

>  <SCORE.INTER.SOLV>
31.624

>  <SCORE.INTER.VDW>
-24.3956

>  <SCORE.INTER.norm>
-1.25921

>  <SCORE.INTRA>
-0.567216

>  <SCORE.INTRA.DIHEDRAL>
0.972769

>  <SCORE.INTRA.DIHEDRAL.0>
22.9177

>  <SCORE.INTRA.POLAR>
-1.20309

>  <SCORE.INTRA.POLAR.0>
-0.311208

>  <SCORE.INTRA.REPUL>
0

>  <SCORE.INTRA.REPUL.0>
0

>  <SCORE.INTRA.SOLV>
3.70177

>  <SCORE.INTRA.SOLV.lig_0>
-132.657

>  <SCORE.INTRA.VDW>
1.18603

>  <SCORE.INTRA.VDW.0>
-4.68867

>  <SCORE.INTRA.norm>
-0.0177255

>  <SCORE.RESTR>
4.31919

>  <SCORE.RESTR.CAVITY>
4.31919

>  <SCORE.RESTR.norm>
0.134975

>  <SCORE.SYSTEM>
0

>  <SCORE.SYSTEM.CONST>
0

>  <SCORE.SYSTEM.DIHEDRAL>
0

>  <SCORE.SYSTEM.SOLV>
0

>  <SCORE.SYSTEM.norm>
0

>  <SCORE.heavy>
32

>  <SCORE.norm>
-1.14196

>  <RMSD>
8.542

$$$$
1tob
 OpenBabel11021811413D
libRbt.so/2013.1/901 2013/11/27
 32 34  0  0  0  0  0  0  0  0999 V2000
   -5.1690    5.9191    3.7518 C   0  0  2  0  0  0  0  0  0  0  0  0
   -6.4647    6.2115    2.9989 C   0  0  1  0  0  0  0  0  0  0  0  0
   -6.6521    7.7168    2.8665 C   0  0  2  0  0  0  0  0  0  0  0  0
   -6.6107    8.3553    4.2496 C   0  0  1  0  0  0  0  0  0  0  0  0
   -5.3083    7.9839    4.9533 C   0  0  1  0  0  0  0  0  0  0  0  0
   -5.2409    8.5271    6.3671 C   0  0  0  0  0  0  0  0  0  0  0  0
   -6.4132    5.6201    1.7085 O   0  0  0  0  0  0  0  0  0  0  0  0
   -7.9040    8.0375    2.1472 N   0  3  0  0  0  0  0  0  0  0  0  0
   -6.7160    9.7677    4.1305 O   0  0  0  0  0  0  0  0  0  0  0  0
   -5.1848    6.5477    5.0396 O   0  0  0  0  0  0  0  0  0  0  0  0
   -4.0044    8.2056    6.9881 O   0  0  0  0  0  0  0  0  0  0  0  0
   -2.4759    5.7837    1.3450 C   0  0  2  0  0  0  0  0  0  0  0  0
   -1.4330    4.7386    0.9729 C   0  0  0  0  0  0  0  0  0  0  0  0
   -0.3506    4.6568    2.0496 C   0  0  1  0  0  0  0  0  0  0  0  0
   -0.9834    4.2823    3.3879 C   0  0  2  0  0  0  0  0  0  0  0  0
   -2.0406    5.3179    3.7744 C   0  0  1  0  0  0  0  0  0  0  0  0
   -3.1037    5.4166    2.6808 C   0  0  1  0  0  0  0  0  0  0  0  0
   -3.5435    5.8440    0.3228 N   0  3  0  0  0  0  0  0  0  0  0  0
    0.7039    3.6958    1.6341 N   0  3  0  0  0  0  0  0  0  0  0  0
   -2.6467    4.9509    5.0064 O   0  0  0  0  0  0  0  0  0  0  0  0
   -4.0860    6.4040    3.0426 O   0  0  0  0  0  0  0  0  0  0  0  0
   -0.2629    3.3870    5.4958 C   0  0  1  0  0  0  0  0  0  0  0  0
    1.0272    2.8306    6.1007 C   0  0  1  0  0  0  0  0  0  0  0  0
    1.7491    1.9539    5.0885 C   0  0  0  0  0  0  0  0  0  0  0  0
    0.8042    0.8663    4.6039 C   0  0  1  0  0  0  0  0  0  0  0  0
   -0.4650    1.5006    4.0361 C   0  0  1  0  0  0  0  0  0  0  0  0
   -1.4829    0.4689    3.5849 C   0  0  0  0  0  0  0  0  0  0  0  0
    1.8929    3.9214    6.6079 N   0  3  0  0  0  0  0  0  0  0  0  0
   -2.5081    1.0693    2.6982 N   0  3  0  0  0  0  0  0  0  0  0  0
    0.0282    4.2065    4.4133 O   0  0  0  0  0  0  0  0  0  0  0  0
    1.4404    0.0797    3.6073 O   0  0  0  0  0  0  0  0  0  0  0  0
   -1.1033    2.3198    5.0395 O   0  0  0  0  0  0  0  0  0  0  0  0
  1  2  1  0  0  0  0
  1 10  1  0  0  0  0
  1 21  1  6  0  0  0
  2  3  1  0  0  0  0
  2  7  1  6  0  0  0
  3  4  1  0  0  0  0
  3  8  1  1  0  0  0
  4  5  1  0  0  0  0
  4  9  1  6  0  0  0
  5  6  1  1  0  0  0
  5 10  1  0  0  0  0
  6 11  1  0  0  0  0
 12 13  1  0  0  0  0
 12 17  1  0  0  0  0
 12 18  1  6  0  0  0
 13 14  1  0  0  0  0
 14 15  1  0  0  0  0
 14 19  1  6  0  0  0
 15 16  1  0  0  0  0
 15 30  1  1  0  0  0
 16 17  1  0  0  0  0
 16 20  1  1  0  0  0
 17 21  1  1  0  0  0
 22 23  1  0  0  0  0
 22 30  1  6  0  0  0
 22 32  1  0  0  0  0
 23 24  1  0  0  0  0
 23 28  1  6  0  0  0
 24 25  1  0  0  0  0
 25 26  1  0  0  0  0
 25 31  1  6  0  0  0
 26 27  1  1  0  0  0
 26 32  1  0  0  0  0
 27 29  1  0  0  0  0
M  CHG  5   8   1  18   1  19   1  28   1  29   1
M  END
>  <CHROM.1>
-121.22922977,70.34299214,66.32050997,-61.49800428,-178.16787595,150.94743403
130.05381156,-69.60957394,-154.84144533,178.52590616,147.07341594,151.35092315
-69.28502211,-61.20786110,-163.54653900,-47.55755873,-2.65946977,4.90818862
3.76014899,2.87531102,-0.66974162,1.05904329

>  <Name>
1tob

>  <RI>
0

>  <Rbt.Current_Directory>
/home/itssahil/PROJECTS/Mol_Feturizer/New_Systems/rnas/1tob

>  <Rbt.Executable>
rbdock ($Id: //depot/dev/client3/rdock/2013.1/src/exe/rbdock.cxx#4 $)

>  <Rbt.Library>
libRbt.so (2013.1, Build901 2013/11/27)

>  <Rbt.Parameter_File>
/export/apps/rDock/src/rDock_2013.1_src/data/scripts/dock_solv.prm

>  <Rbt.Receptor>
prm/blind_docking_100.prm

>  <SCORE>
-29.4392

>  <SCORE.INTER>
-40.9886

>  <SCORE.INTER.CONST>
1

>  <SCORE.INTER.POLAR>
-6.20493

>  <SCORE.INTER.ROT>
6

>  <SCORE.INTER.SOLV>
35.9811

>  <SCORE.INTER.VDW>
-26.2363

>  <SCORE.INTER.norm>
-1.28089

>  <SCORE.INTRA>
-2.9773

>  <SCORE.INTRA.DIHEDRAL>
3.62164

>  <SCORE.INTRA.DIHEDRAL.0>
22.9177

>  <SCORE.INTRA.POLAR>
-1.62569

>  <SCORE.INTRA.POLAR.0>
-0.311208

>  <SCORE.INTRA.REPUL>
0.00113552

>  <SCORE.INTRA.REPUL.0>
0

>  <SCORE.INTRA.SOLV>
-1.54063

>  <SCORE.INTRA.SOLV.lig_0>
-132.657

>  <SCORE.INTRA.VDW>
1.50388

>  <SCORE.INTRA.VDW.0>
-4.68867

>  <SCORE.INTRA.norm>
-0.0930405

>  <SCORE.RESTR>
14.5267

>  <SCORE.RESTR.CAVITY>
14.5267

>  <SCORE.RESTR.norm>
0.453959

>  <SCORE.SYSTEM>
0

>  <SCORE.SYSTEM.CONST>
0

>  <SCORE.SYSTEM.DIHEDRAL>
0

>  <SCORE.SYSTEM.SOLV>
0

>  <SCORE.SYSTEM.norm>
0

>  <SCORE.heavy>
32

>  <SCORE.norm>
-0.919975

>  <RMSD>
8.551

$$$$
1tob
 OpenBabel11021811413D
libRbt.so/2013.1/901 2013/11/27
 32 34  0  0  0  0  0  0  0  0999 V2000
   -3.0542    5.2461    4.3109 C   0  0  2  0  0  0  0  0  0  0  0  0
   -4.0518    6.3555    3.9866 C   0  0  1  0  0  0  0  0  0  0  0  0
   -4.3549    6.3524    2.4945 C   0  0  2  0  0  0  0  0  0  0  0  0
   -3.0522    6.4768    1.7134 C   0  0  1  0  0  0  0  0  0  0  0  0
   -2.0942    5.3611    2.1219 C   0  0  1  0  0  0  0  0  0  0  0  0
   -0.7480    5.4757    1.4342 C   0  0  0  0  0  0  0  0  0  0  0  0
   -5.2513    6.1507    4.7193 O   0  0  0  0  0  0  0  0  0  0  0  0
   -5.3144    7.4214    2.1425 N   0  3  0  0  0  0  0  0  0  0  0  0
   -3.3189    6.4056    0.3192 O   0  0  0  0  0  0  0  0  0  0  0  0
   -1.8542    5.4115    3.5450 O   0  0  0  0  0  0  0  0  0  0  0  0
    0.0569    4.3302    1.6750 O   0  0  0  0  0  0  0  0  0  0  0  0
   -2.3446    2.5426    2.5499 C   0  0  2  0  0  0  0  0  0  0  0  0
   -1.3466    1.3928    2.5377 C   0  0  0  0  0  0  0  0  0  0  0  0
   -0.0616    1.7928    3.2632 C   0  0  1  0  0  0  0  0  0  0  0  0
   -0.3818    2.1662    4.7088 C   0  0  2  0  0  0  0  0  0  0  0  0
   -1.3903    3.3157    4.7407 C   0  0  1  0  0  0  0  0  0  0  0  0
   -2.6608    2.9210    3.9886 C   0  0  1  0  0  0  0  0  0  0  0  0
   -3.6027    2.1501    1.8779 N   0  3  0  0  0  0  0  0  0  0  0  0
    0.9342    0.6938    3.1704 N   0  3  0  0  0  0  0  0  0  0  0  0
   -1.7070    3.6416    6.0874 O   0  0  0  0  0  0  0  0  0  0  0  0
   -3.5988    4.0122    4.0081 O   0  0  0  0  0  0  0  0  0  0  0  0
    1.2154    3.8737    5.2540 C   0  0  1  0  0  0  0  0  0  0  0  0
    2.7398    3.9843    5.3171 C   0  0  1  0  0  0  0  0  0  0  0  0
    3.2444    3.5444    6.6832 C   0  0  0  0  0  0  0  0  0  0  0  0
    2.5458    4.3575    7.7608 C   0  0  1  0  0  0  0  0  0  0  0  0
    1.0313    4.2123    7.6165 C   0  0  1  0  0  0  0  0  0  0  0  0
    0.2648    5.0465    8.6268 C   0  0  0  0  0  0  0  0  0  0  0  0
    3.3764    3.2211    4.2177 N   0  3  0  0  0  0  0  0  0  0  0  0
   -1.0946    5.3785    8.1373 N   0  3  0  0  0  0  0  0  0  0  0  0
    0.8230    2.5501    5.4027 O   0  0  0  0  0  0  0  0  0  0  0  0
    2.9549    3.9126    9.0459 O   0  0  0  0  0  0  0  0  0  0  0  0
    0.6134    4.6423    6.3028 O   0  0  0  0  0  0  0  0  0  0  0  0
  1  2  1  0  0  0  0
  1 10  1  0  0  0  0
  1 21  1  6  0  0  0
  2  3  1  0  0  0  0
  2  7  1  1  0  0  0
  3  4  1  0  0  0  0
  3  8  1  1  0  0  0
  4  5  1  0  0  0  0
  4  9  1  6  0  0  0
  5  6  1  6  0  0  0
  5 10  1  0  0  0  0
  6 11  1  0  0  0  0
 12 13  1  0  0  0  0
 12 17  1  0  0  0  0
 12 18  1  1  0  0  0
 13 14  1  0  0  0  0
 14 15  1  0  0  0  0
 14 19  1  1  0  0  0
 15 16  1  0  0  0  0
 15 30  1  6  0  0  0
 16 17  1  0  0  0  0
 16 20  1  1  0  0  0
 17 21  1  6  0  0  0
 22 23  1  0  0  0  0
 22 30  1  1  0  0  0
 22 32  1  0  0  0  0
 23 24  1  0  0  0  0
 23 28  1  6  0  0  0
 24 25  1  0  0  0  0
 25 26  1  0  0  0  0
 25 31  1  1  0  0  0
 26 27  1  1  0  0  0
 26 32  1  0  0  0  0
 27 29  1  0  0  0  0
M  CHG  5   8   1  18   1  19   1  28   1  29   1
M  END
>  <CHROM.1>
166.81913487,-63.20141723,-58.96102022,-62.58066786,-171.53032453,156.76414891
51.35073418,-138.05607023,84.63382621,1.17637341,-103.89316883,-148.60441531
-55.32950757,69.45493881,154.88823660,-120.12027106,-0.99931008,4.19886068
4.35799537,2.72389847,0.58089479,-2.05825745

>  <Name>
1tob

>  <RI>
0

>  <Rbt.Current_Directory>
/home/itssahil/PROJECTS/Mol_Feturizer/New_Systems/rnas/1tob

>  <Rbt.Executable>
rbdock ($Id: //depot/dev/client3/rdock/2013.1/src/exe/rbdock.cxx#4 $)

>  <Rbt.Library>
libRbt.so (2013.1, Build901 2013/11/27)

>  <Rbt.Parameter_File>
/export/apps/rDock/src/rDock_2013.1_src/data/scripts/dock_solv.prm

>  <Rbt.Receptor>
prm/blind_docking_40.prm

>  <SCORE>
-26.6198

>  <SCORE.INTER>
-49.2229

>  <SCORE.INTER.CONST>
1

>  <SCORE.INTER.POLAR>
-7.54918

>  <SCORE.INTER.ROT>
6

>  <SCORE.INTER.SOLV>
36.2182

>  <SCORE.INTER.VDW>
-27.3241

>  <SCORE.INTER.norm>
-1.53822

>  <SCORE.INTRA>
13.2727

>  <SCORE.INTRA.DIHEDRAL>
9.28057

>  <SCORE.INTRA.DIHEDRAL.0>
22.9177

>  <SCORE.INTRA.POLAR>
-1.09385

>  <SCORE.INTRA.POLAR.0>
-0.311208

>  <SCORE.INTRA.REPUL>
0.327581

>  <SCORE.INTRA.REPUL.0>
0

>  <SCORE.INTRA.SOLV>
2.08421

>  <SCORE.INTRA.SOLV.lig_0>
-132.657

>  <SCORE.INTRA.VDW>
9.67147

>  <SCORE.INTRA.VDW.0>
-4.68867

>  <SCORE.INTRA.norm>
0.414771

>  <SCORE.RESTR>
9.33043

>  <SCORE.RESTR.CAVITY>
9.33043

>  <SCORE.RESTR.norm>
0.291576

>  <SCORE.SYSTEM>
0

>  <SCORE.SYSTEM.CONST>
0

>  <SCORE.SYSTEM.DIHEDRAL>
0

>  <SCORE.SYSTEM.SOLV>
0

>  <SCORE.SYSTEM.norm>
0

>  <SCORE.heavy>
32

>  <SCORE.norm>
-0.83187

>  <RMSD>
8.551

$$$$
1tob
 OpenBabel11021811413D
libRbt.so/2013.1/901 2013/11/27
 32 34  0  0  0  0  0  0  0  0999 V2000
   -7.1403    8.4812    2.6328 C   0  0  2  0  0  0  0  0  0  0  0  0
   -7.3824    9.3221    3.8840 C   0  0  1  0  0  0  0  0  0  0  0  0
   -8.8759    9.5600    4.0608 C   0  0  2  0  0  0  0  0  0  0  0  0
   -9.4395   10.1982    2.7968 C   0  0  1  0  0  0  0  0  0  0  0  0
   -9.1218    9.3226    1.5879 C   0  0  1  0  0  0  0  0  0  0  0  0
   -9.5906    9.9432    0.2865 C   0  0  0  0  0  0  0  0  0  0  0  0
   -6.8671    8.6469    5.0225 O   0  0  0  0  0  0  0  0  0  0  0  0
   -9.1474   10.3793    5.2617 N   0  3  0  0  0  0  0  0  0  0  0  0
  -10.8455   10.3610    2.9262 O   0  0  0  0  0  0  0  0  0  0  0  0
   -7.6952    9.1269    1.4799 O   0  0  0  0  0  0  0  0  0  0  0  0
   -9.0035   11.2200    0.0794 O   0  0  0  0  0  0  0  0  0  0  0  0
   -6.8587    6.1119    0.8168 C   0  0  2  0  0  0  0  0  0  0  0  0
   -6.0023    4.9361    0.3670 C   0  0  0  0  0  0  0  0  0  0  0  0
   -4.5953    5.0437    0.9555 C   0  0  1  0  0  0  0  0  0  0  0  0
   -4.6749    5.0543    2.4804 C   0  0  2  0  0  0  0  0  0  0  0  0
   -5.5389    6.2254    2.9507 C   0  0  1  0  0  0  0  0  0  0  0  0
   -6.9347    6.1287    2.3358 C   0  0  1  0  0  0  0  0  0  0  0  0
   -8.2312    5.9958    0.2772 N   0  3  0  0  0  0  0  0  0  0  0  0
   -3.7465    3.9378    0.4412 N   0  3  0  0  0  0  0  0  0  0  0  0
   -5.6334    6.2154    4.3688 O   0  0  0  0  0  0  0  0  0  0  0  0
   -7.7373    7.2419    2.7688 O   0  0  0  0  0  0  0  0  0  0  0  0
   -3.0520    4.2610    4.0618 C   0  0  1  0  0  0  0  0  0  0  0  0
   -1.8354    4.7437    4.8536 C   0  0  1  0  0  0  0  0  0  0  0  0
   -0.6083    4.7946    3.9559 C   0  0  0  0  0  0  0  0  0  0  0  0
   -0.3976    3.4313    3.3178 C   0  0  1  0  0  0  0  0  0  0  0  0
   -1.6609    3.0121    2.5668 C   0  0  1  0  0  0  0  0  0  0  0  0
   -1.5437    1.6297    1.9509 C   0  0  0  0  0  0  0  0  0  0  0  0
   -2.1039    6.0491    5.5018 N   0  3  0  0  0  0  0  0  0  0  0  0
   -2.3336    0.6292    2.7076 N   0  3  0  0  0  0  0  0  0  0  0  0
   -3.3528    5.1601    3.0473 O   0  0  0  0  0  0  0  0  0  0  0  0
    0.7043    3.4794    2.4232 O   0  0  0  0  0  0  0  0  0  0  0  0
   -2.7889    2.9837    3.4681 O   0  0  0  0  0  0  0  0  0  0  0  0
  1  2  1  0  0  0  0
  1 10  1  0  0  0  0
  1 21  1  1  0  0  0
  2  3  1  0  0  0  0
  2  7  1  1  0  0  0
  3  4  1  0  0  0  0
  3  8  1  1  0  0  0
  4  5  1  0  0  0  0
  4  9  1  1  0  0  0
  5  6  1  6  0  0  0
  5 10  1  0  0  0  0
  6 11  1  0  0  0  0
 12 13  1  0  0  0  0
 12 17  1  0  0  0  0
 12 18  1  6  0  0  0
 13 14  1  0  0  0  0
 14 15  1  0  0  0  0
 14 19  1  1  0  0  0
 15 16  1  0  0  0  0
 15 30  1  1  0  0  0
 16 17  1  0  0  0  0
 16 20  1  1  0  0  0
 17 21  1  6  0  0  0
 22 23  1  0  0  0  0
 22 30  1  6  0  0  0
 22 32  1  0  0  0  0
 23 24  1  0  0  0  0
 23 28  1  6  0  0  0
 24 25  1  0  0  0  0
 25 26  1  0  0  0  0
 25 31  1  6  0  0  0
 26 27  1  1  0  0  0
 26 32  1  0  0  0  0
 27 29  1  0  0  0  0
M  CHG  5   8   1  18   1  19   1  28   1  29   1
M  END
>  <CHROM.1>
-136.33087616,-164.51668796,38.89649640,72.81374495,58.22582526,-63.51258231
69.93053364,172.04236461,-131.82573493,-171.45570700,-72.78588206,-162.41424689
65.23773290,179.47837425,105.78575994,158.07702111,-5.45880598,6.37937441
2.69388995,-2.81532205,0.65169753,-2.16310606

>  <Name>
1tob

>  <RI>
0

>  <Rbt.Current_Directory>
/home/itssahil/PROJECTS/Mol_Feturizer/New_Systems/rnas/1tob

>  <Rbt.Executable>
rbdock ($Id: //depot/dev/client3/rdock/2013.1/src/exe/rbdock.cxx#4 $)

>  <Rbt.Library>
libRbt.so (2013.1, Build901 2013/11/27)

>  <Rbt.Parameter_File>
/export/apps/rDock/src/rDock_2013.1_src/data/scripts/dock_solv.prm

>  <Rbt.Receptor>
prm/pocket_docking_2.prm

>  <SCORE>
-32.8926

>  <SCORE.INTER>
-35.6362

>  <SCORE.INTER.CONST>
1

>  <SCORE.INTER.POLAR>
-5.8099

>  <SCORE.INTER.ROT>
6

>  <SCORE.INTER.SOLV>
34.2089

>  <SCORE.INTER.VDW>
-23.3941

>  <SCORE.INTER.norm>
-1.11363

>  <SCORE.INTRA>
0.226315

>  <SCORE.INTRA.DIHEDRAL>
1.37979

>  <SCORE.INTRA.DIHEDRAL.0>
22.9177

>  <SCORE.INTRA.POLAR>
-0.831841

>  <SCORE.INTRA.POLAR.0>
-0.311208

>  <SCORE.INTRA.REPUL>
0

>  <SCORE.INTRA.REPUL.0>
0

>  <SCORE.INTRA.SOLV>
0.314851

>  <SCORE.INTRA.SOLV.lig_0>
-132.657

>  <SCORE.INTRA.VDW>
2.20726

>  <SCORE.INTRA.VDW.0>
-4.68867

>  <SCORE.INTRA.norm>
0.00707235

>  <SCORE.RESTR>
2.51731

>  <SCORE.RESTR.CAVITY>
2.51731

>  <SCORE.RESTR.norm>
0.078666

>  <SCORE.SYSTEM>
0

>  <SCORE.SYSTEM.CONST>
0

>  <SCORE.SYSTEM.DIHEDRAL>
0

>  <SCORE.SYSTEM.SOLV>
0

>  <SCORE.SYSTEM.norm>
0

>  <SCORE.heavy>
32

>  <SCORE.norm>
-1.02789

>  <RMSD>
8.553

$$$$
1tob
 OpenBabel11021811413D
libRbt.so/2013.1/901 2013/11/27
 32 34  0  0  0  0  0  0  0  0999 V2000
   -7.9535    7.9531    3.3544 C   0  0  2  0  0  0  0  0  0  0  0  0
   -9.3665    7.5011    2.9934 C   0  0  1  0  0  0  0  0  0  0  0  0
   -9.9245    8.3927    1.8925 C   0  0  2  0  0  0  0  0  0  0  0  0
   -9.8615    9.8483    2.3396 C   0  0  1  0  0  0  0  0  0  0  0  0
   -8.4294   10.2115    2.7223 C   0  0  1  0  0  0  0  0  0  0  0  0
   -8.3146   11.6281    3.2502 C   0  0  0  0  0  0  0  0  0  0  0  0
   -9.3396    6.1521    2.5495 O   0  0  0  0  0  0  0  0  0  0  0  0
  -11.2978    7.9875    1.5220 N   0  3  0  0  0  0  0  0  0  0  0  0
  -10.3164   10.6934    1.2914 O   0  0  0  0  0  0  0  0  0  0  0  0
   -7.9554    9.3274    3.7610 O   0  0  0  0  0  0  0  0  0  0  0  0
   -8.9265   11.7577    4.5257 O   0  0  0  0  0  0  0  0  0  0  0  0
   -6.7151    6.2036    0.5072 C   0  0  2  0  0  0  0  0  0  0  0  0
   -6.2229    4.7878    0.2398 C   0  0  0  0  0  0  0  0  0  0  0  0
   -4.7911    4.6150    0.7475 C   0  0  1  0  0  0  0  0  0  0  0  0
   -4.7407    4.8903    2.2486 C   0  0  2  0  0  0  0  0  0  0  0  0
   -5.2398    6.3070    2.5373 C   0  0  1  0  0  0  0  0  0  0  0  0
   -6.6602    6.4830    2.0013 C   0  0  1  0  0  0  0  0  0  0  0  0
   -8.1117    6.3671    0.0478 N   0  3  0  0  0  0  0  0  0  0  0  0
   -4.2938    3.2573    0.4047 N   0  3  0  0  0  0  0  0  0  0  0  0
   -5.2178    6.5496    3.9375 O   0  0  0  0  0  0  0  0  0  0  0  0
   -7.1177    7.8224    2.2612 O   0  0  0  0  0  0  0  0  0  0  0  0
   -3.2694    4.3054    4.0533 C   0  0  1  0  0  0  0  0  0  0  0  0
   -2.0721    4.9838    4.7214 C   0  0  1  0  0  0  0  0  0  0  0  0
   -0.7815    4.5835    4.0225 C   0  0  0  0  0  0  0  0  0  0  0  0
   -0.6706    3.0677    4.0053 C   0  0  1  0  0  0  0  0  0  0  0  0
   -1.9104    2.4669    3.3439 C   0  0  1  0  0  0  0  0  0  0  0  0
   -1.8959    0.9491    3.3438 C   0  0  0  0  0  0  0  0  0  0  0  0
   -2.2474    6.4548    4.7641 N   0  3  0  0  0  0  0  0  0  0  0  0
   -0.8432    0.4161    2.4463 N   0  3  0  0  0  0  0  0  0  0  0  0
   -3.3931    4.7347    2.7386 O   0  0  0  0  0  0  0  0  0  0  0  0
    0.4954    2.6746    3.2961 O   0  0  0  0  0  0  0  0  0  0  0  0
   -3.1006    2.8825    4.0484 O   0  0  0  0  0  0  0  0  0  0  0  0
  1  2  1  0  0  0  0
  1 10  1  0  0  0  0
  1 21  1  6  0  0  0
  2  3  1  0  0  0  0
  2  7  1  6  0  0  0
  3  4  1  0  0  0  0
  3  8  1  1  0  0  0
  4  5  1  0  0  0  0
  4  9  1  6  0  0  0
  5  6  1  1  0  0  0
  5 10  1  0  0  0  0
  6 11  1  0  0  0  0
 12 13  1  0  0  0  0
 12 17  1  0  0  0  0
 12 18  1  1  0  0  0
 13 14  1  0  0  0  0
 14 15  1  0  0  0  0
 14 19  1  1  0  0  0
 15 16  1  0  0  0  0
 15 30  1  6  0  0  0
 16 17  1  0  0  0  0
 16 20  1  1  0  0  0
 17 21  1  6  0  0  0
 22 23  1  0  0  0  0
 22 30  1  6  0  0  0
 22 32  1  0  0  0  0
 23 24  1  0  0  0  0
 23 28  1  6  0  0  0
 24 25  1  0  0  0  0
 25 26  1  0  0  0  0
 25 31  1  6  0  0  0
 26 27  1  1  0  0  0
 26 32  1  0  0  0  0
 27 29  1  0  0  0  0
M  CHG  5   8   1  18   1  19   1  28   1  29   1
M  END
>  <CHROM.1>
-78.48547994,176.20072663,-59.87102861,-62.62879726,69.86220684,158.59375294
-50.80370488,71.99548893,-149.47610925,-53.25628776,137.58683744,-143.75122514
-89.96541268,64.34009682,-68.55626263,171.70553282,-5.65500339,6.13601563
2.67861899,-2.63207746,0.50999616,-2.54733330

>  <Name>
1tob

>  <RI>
0

>  <Rbt.Current_Directory>
/home/itssahil/PROJECTS/Mol_Feturizer/New_Systems/rnas/1tob

>  <Rbt.Executable>
rbdock ($Id: //depot/dev/client3/rdock/2013.1/src/exe/rbdock.cxx#4 $)

>  <Rbt.Library>
libRbt.so (2013.1, Build901 2013/11/27)

>  <Rbt.Parameter_File>
/export/apps/rDock/src/rDock_2013.1_src/data/scripts/dock_solv.prm

>  <Rbt.Receptor>
prm/pocket_docking_3.prm

>  <SCORE>
-44.4806

>  <SCORE.INTER>
-37.3824

>  <SCORE.INTER.CONST>
1

>  <SCORE.INTER.POLAR>
-5.79762

>  <SCORE.INTER.ROT>
6

>  <SCORE.INTER.SOLV>
31.2292

>  <SCORE.INTER.VDW>
-23.6059

>  <SCORE.INTER.norm>
-1.1682

>  <SCORE.INTRA>
-7.31822

>  <SCORE.INTRA.DIHEDRAL>
-1.38453

>  <SCORE.INTRA.DIHEDRAL.0>
22.9177

>  <SCORE.INTRA.POLAR>
-2.27605

>  <SCORE.INTRA.POLAR.0>
-0.311208

>  <SCORE.INTRA.REPUL>
0

>  <SCORE.INTRA.REPUL.0>
0

>  <SCORE.INTRA.SOLV>
3.03911

>  <SCORE.INTRA.SOLV.lig_0>
-132.657

>  <SCORE.INTRA.VDW>
-0.406949

>  <SCORE.INTRA.VDW.0>
-4.68867

>  <SCORE.INTRA.norm>
-0.228695

>  <SCORE.RESTR>
0.220006

>  <SCORE.RESTR.CAVITY>
0.220006

>  <SCORE.RESTR.norm>
0.00687519

>  <SCORE.SYSTEM>
0

>  <SCORE.SYSTEM.CONST>
0

>  <SCORE.SYSTEM.DIHEDRAL>
0

>  <SCORE.SYSTEM.SOLV>
0

>  <SCORE.SYSTEM.norm>
0

>  <SCORE.heavy>
32

>  <SCORE.norm>
-1.39002

>  <RMSD>
8.559

$$$$
1tob
 OpenBabel11021811413D
libRbt.so/2013.1/901 2013/11/27
 32 34  0  0  0  0  0  0  0  0999 V2000
   -6.8714    9.1383    1.8075 C   0  0  2  0  0  0  0  0  0  0  0  0
   -6.1625   10.2722    2.5443 C   0  0  1  0  0  0  0  0  0  0  0  0
   -7.1185   10.9121    3.5418 C   0  0  2  0  0  0  0  0  0  0  0  0
   -8.3767   11.3705    2.8141 C   0  0  1  0  0  0  0  0  0  0  0  0
   -9.0027   10.1943    2.0699 C   0  0  1  0  0  0  0  0  0  0  0  0
  -10.2182   10.6038    1.2616 C   0  0  0  0  0  0  0  0  0  0  0  0
   -5.0268    9.7630    3.2286 O   0  0  0  0  0  0  0  0  0  0  0  0
   -6.4661   12.0218    4.2699 N   0  3  0  0  0  0  0  0  0  0  0  0
   -9.3039   11.9069    3.7482 O   0  0  0  0  0  0  0  0  0  0  0  0
   -8.0468    9.6265    1.1485 O   0  0  0  0  0  0  0  0  0  0  0  0
  -10.8104    9.4872    0.6131 O   0  0  0  0  0  0  0  0  0  0  0  0
   -7.0813    6.5748    0.8724 C   0  0  2  0  0  0  0  0  0  0  0  0
   -6.6264    5.1677    0.5099 C   0  0  0  0  0  0  0  0  0  0  0  0
   -5.1393    4.9909    0.8177 C   0  0  1  0  0  0  0  0  0  0  0  0
   -4.8892    5.2334    2.3044 C   0  0  2  0  0  0  0  0  0  0  0  0
   -5.3480    6.6409    2.6889 C   0  0  1  0  0  0  0  0  0  0  0  0
   -6.8276    6.8217    2.3516 C   0  0  1  0  0  0  0  0  0  0  0  0
   -8.5271    6.7415    0.6074 N   0  3  0  0  0  0  0  0  0  0  0  0
   -4.6897    3.6435    0.3812 N   0  3  0  0  0  0  0  0  0  0  0  0
   -5.1395    6.8529    4.0787 O   0  0  0  0  0  0  0  0  0  0  0  0
   -7.2489    8.1528    2.7002 O   0  0  0  0  0  0  0  0  0  0  0  0
   -3.1882    4.2654    3.6948 C   0  0  1  0  0  0  0  0  0  0  0  0
   -1.9063    4.7481    4.3758 C   0  0  1  0  0  0  0  0  0  0  0  0
   -0.7262    4.6295    3.4231 C   0  0  0  0  0  0  0  0  0  0  0  0
   -0.6286    3.1976    2.9225 C   0  0  1  0  0  0  0  0  0  0  0  0
   -1.9512    2.7851    2.2775 C   0  0  1  0  0  0  0  0  0  0  0  0
   -1.9468    1.3425    1.8051 C   0  0  0  0  0  0  0  0  0  0  0  0
   -2.0644    6.1271    4.8951 N   0  3  0  0  0  0  0  0  0  0  0  0
   -1.6121    0.4107    2.9085 N   0  3  0  0  0  0  0  0  0  0  0  0
   -3.4879    5.0737    2.6063 O   0  0  0  0  0  0  0  0  0  0  0  0
    0.4267    3.0845    1.9788 O   0  0  0  0  0  0  0  0  0  0  0  0
   -3.0310    2.9202    3.2269 O   0  0  0  0  0  0  0  0  0  0  0  0
  1  2  1  0  0  0  0
  1 10  1  0  0  0  0
  1 21  1  1  0  0  0
  2  3  1  0  0  0  0
  2  7  1  1  0  0  0
  3  4  1  0  0  0  0
  3  8  1  6  0  0  0
  4  5  1  0  0  0  0
  4  9  1  1  0  0  0
  5  6  1  6  0  0  0
  5 10  1  0  0  0  0
  6 11  1  0  0  0  0
 12 13  1  0  0  0  0
 12 17  1  0  0  0  0
 12 18  1  1  0  0  0
 13 14  1  0  0  0  0
 14 15  1  0  0  0  0
 14 19  1  1  0  0  0
 15 16  1  0  0  0  0
 15 30  1  6  0  0  0
 16 17  1  0  0  0  0
 16 20  1  1  0  0  0
 17 21  1  6  0  0  0
 22 23  1  0  0  0  0
 22 30  1  6  0  0  0
 22 32  1  0  0  0  0
 23 24  1  0  0  0  0
 23 28  1  6  0  0  0
 24 25  1  0  0  0  0
 25 26  1  0  0  0  0
 25 31  1  6  0  0  0
 26 27  1  1  0  0  0
 26 32  1  0  0  0  0
 27 29  1  0  0  0  0
M  CHG  5   8   1  18   1  19   1  28   1  29   1
M  END
>  <CHROM.1>
-127.86902444,64.01480637,-54.26400295,66.02225790,-178.07418986,61.26832544
174.34457613,-40.56327067,-131.12105309,-80.65755261,-44.41393619,-148.71943115
45.17792972,-69.46826352,55.92848393,178.18426071,-5.28724300,6.71681743
2.46693121,-2.45233374,0.51404753,-2.65667725

>  <Name>
1tob

>  <RI>
0

>  <Rbt.Current_Directory>
/home/itssahil/PROJECTS/Mol_Feturizer/New_Systems/rnas/1tob

>  <Rbt.Executable>
rbdock ($Id: //depot/dev/client3/rdock/2013.1/src/exe/rbdock.cxx#4 $)

>  <Rbt.Library>
libRbt.so (2013.1, Build901 2013/11/27)

>  <Rbt.Parameter_File>
/export/apps/rDock/src/rDock_2013.1_src/data/scripts/dock_solv.prm

>  <Rbt.Receptor>
prm/pocket_docking_7.prm

>  <SCORE>
-46.2395

>  <SCORE.INTER>
-46.9429

>  <SCORE.INTER.CONST>
1

>  <SCORE.INTER.POLAR>
-6.98963

>  <SCORE.INTER.ROT>
6

>  <SCORE.INTER.SOLV>
28.9937

>  <SCORE.INTER.VDW>
-25.2611

>  <SCORE.INTER.norm>
-1.46697

>  <SCORE.INTRA>
0.703405

>  <SCORE.INTRA.DIHEDRAL>
-0.180993

>  <SCORE.INTRA.DIHEDRAL.0>
22.9177

>  <SCORE.INTRA.POLAR>
-0.175631

>  <SCORE.INTRA.POLAR.0>
-0.311208

>  <SCORE.INTRA.REPUL>
0

>  <SCORE.INTRA.REPUL.0>
0

>  <SCORE.INTRA.SOLV>
1.03541

>  <SCORE.INTRA.SOLV.lig_0>
-132.657

>  <SCORE.INTRA.VDW>
0.873342

>  <SCORE.INTRA.VDW.0>
-4.68867

>  <SCORE.INTRA.norm>
0.0219814

>  <SCORE.RESTR>
0

>  <SCORE.RESTR.CAVITY>
0

>  <SCORE.RESTR.norm>
0

>  <SCORE.SYSTEM>
0

>  <SCORE.SYSTEM.CONST>
0

>  <SCORE.SYSTEM.DIHEDRAL>
0

>  <SCORE.SYSTEM.SOLV>
0

>  <SCORE.SYSTEM.norm>
0

>  <SCORE.heavy>
32

>  <SCORE.norm>
-1.44499

>  <RMSD>
8.559

$$$$
1tob
 OpenBabel11021811413D
libRbt.so/2013.1/901 2013/11/27
 32 34  0  0  0  0  0  0  0  0999 V2000
   -6.5649    8.5865    2.8593 C   0  0  2  0  0  0  0  0  0  0  0  0
   -6.5603    9.5348    4.0559 C   0  0  1  0  0  0  0  0  0  0  0  0
   -7.9822    9.9899    4.3549 C   0  0  2  0  0  0  0  0  0  0  0  0
   -8.5873   10.6143    3.1033 C   0  0  1  0  0  0  0  0  0  0  0  0
   -8.5175    9.6239    1.9442 C   0  0  1  0  0  0  0  0  0  0  0  0
   -9.0354   10.2152    0.6478 C   0  0  0  0  0  0  0  0  0  0  0  0
   -6.0210    8.8721    5.1906 O   0  0  0  0  0  0  0  0  0  0  0  0
   -8.0147   10.9176    5.5062 N   0  3  0  0  0  0  0  0  0  0  0  0
   -9.9379   10.9797    3.3531 O   0  0  0  0  0  0  0  0  0  0  0  0
   -7.1487    9.2244    1.7164 O   0  0  0  0  0  0  0  0  0  0  0  0
   -8.1882   11.2532    0.1760 O   0  0  0  0  0  0  0  0  0  0  0  0
   -6.9320    6.2245    1.0998 C   0  0  2  0  0  0  0  0  0  0  0  0
   -6.3656    4.9282    0.5368 C   0  0  0  0  0  0  0  0  0  0  0  0
   -4.8887    4.7856    0.9055 C   0  0  1  0  0  0  0  0  0  0  0  0
   -4.7356    4.7840    2.4249 C   0  0  2  0  0  0  0  0  0  0  0  0
   -5.3071    6.0767    3.0093 C   0  0  1  0  0  0  0  0  0  0  0  0
   -6.7752    6.2286    2.6126 C   0  0  1  0  0  0  0  0  0  0  0  0
   -8.3694    6.3520    0.7742 N   0  3  0  0  0  0  0  0  0  0  0  0
   -4.3275    3.5605    0.2794 N   0  3  0  0  0  0  0  0  0  0  0  0
   -5.1881    6.0592    4.4254 O   0  0  0  0  0  0  0  0  0  0  0  0
   -7.3024    7.4544    3.1515 O   0  0  0  0  0  0  0  0  0  0  0  0
   -3.0829    3.9672    3.9629 C   0  0  1  0  0  0  0  0  0  0  0  0
   -1.8579    4.5606    4.6609 C   0  0  1  0  0  0  0  0  0  0  0  0
   -0.6220    4.3935    3.7897 C   0  0  0  0  0  0  0  0  0  0  0  0
   -0.4511    2.9244    3.4393 C   0  0  1  0  0  0  0  0  0  0  0  0
   -1.7211    2.4028    2.7680 C   0  0  1  0  0  0  0  0  0  0  0  0
   -1.6444    0.9223    2.4417 C   0  0  0  0  0  0  0  0  0  0  0  0
   -2.0886    5.9768    5.0318 N   0  3  0  0  0  0  0  0  0  0  0  0
   -1.1738    0.1334    3.6052 N   0  3  0  0  0  0  0  0  0  0  0  0
   -3.3449    4.6545    2.7851 O   0  0  0  0  0  0  0  0  0  0  0  0
    0.6595    2.7590    2.5698 O   0  0  0  0  0  0  0  0  0  0  0  0
   -2.8571    2.5896    3.6397 O   0  0  0  0  0  0  0  0  0  0  0  0
  1  2  1  0  0  0  0
  1 10  1  0  0  0  0
  1 21  1  1  0  0  0
  2  3  1  0  0  0  0
  2  7  1  1  0  0  0
  3  4  1  0  0  0  0
  3  8  1  1  0  0  0
  4  5  1  0  0  0  0
  4  9  1  1  0  0  0
  5  6  1  6  0  0  0
  5 10  1  0  0  0  0
  6 11  1  0  0  0  0
 12 13  1  0  0  0  0
 12 17  1  0  0  0  0
 12 18  1  1  0  0  0
 13 14  1  0  0  0  0
 14 15  1  0  0  0  0
 14 19  1  1  0  0  0
 15 16  1  0  0  0  0
 15 30  1  6  0  0  0
 16 17  1  0  0  0  0
 16 20  1  1  0  0  0
 17 21  1  6  0  0  0
 22 23  1  0  0  0  0
 22 30  1  6  0  0  0
 22 32  1  0  0  0  0
 23 24  1  0  0  0  0
 23 28  1  6  0  0  0
 24 25  1  0  0  0  0
 25 26  1  0  0  0  0
 25 31  1  6  0  0  0
 26 27  1  1  0  0  0
 26 32  1  0  0  0  0
 27 29  1  0  0  0  0
M  CHG  5   8   1  18   1  19   1  28   1  29   1
M  END
>  <CHROM.1>
-142.58832995,111.01289096,-57.02923730,69.51176582,67.18746630,-63.28541405
50.57693425,76.61197540,-147.57565752,-163.21810842,-69.72610948,-146.05160121
153.97152009,-176.05108026,48.57003008,-70.83296076,-5.15759052,6.31730429
2.85729508,-2.65394379,0.69897718,-2.31875381

>  <Name>
1tob

>  <RI>
0

>  <Rbt.Current_Directory>
/home/itssahil/PROJECTS/Mol_Feturizer/New_Systems/rnas/1tob

>  <Rbt.Executable>
rbdock ($Id: //depot/dev/client3/rdock/2013.1/src/exe/rbdock.cxx#4 $)

>  <Rbt.Library>
libRbt.so (2013.1, Build901 2013/11/27)

>  <Rbt.Parameter_File>
/export/apps/rDock/src/rDock_2013.1_src/data/scripts/dock_solv.prm

>  <Rbt.Receptor>
prm/pocket_docking_6.prm

>  <SCORE>
-50.1135

>  <SCORE.INTER>
-48.1078

>  <SCORE.INTER.CONST>
1

>  <SCORE.INTER.POLAR>
-7.36225

>  <SCORE.INTER.ROT>
6

>  <SCORE.INTER.SOLV>
35.9793

>  <SCORE.INTER.VDW>
-27.1241

>  <SCORE.INTER.norm>
-1.50337

>  <SCORE.INTRA>
-2.0057

>  <SCORE.INTRA.DIHEDRAL>
2.84129

>  <SCORE.INTRA.DIHEDRAL.0>
22.9177

>  <SCORE.INTRA.POLAR>
-1.26081

>  <SCORE.INTRA.POLAR.0>
-0.311208

>  <SCORE.INTRA.REPUL>
0

>  <SCORE.INTRA.REPUL.0>
0

>  <SCORE.INTRA.SOLV>
-0.000564963

>  <SCORE.INTRA.SOLV.lig_0>
-132.657

>  <SCORE.INTRA.VDW>
0.860697

>  <SCORE.INTRA.VDW.0>
-4.68867

>  <SCORE.INTRA.norm>
-0.0626782

>  <SCORE.RESTR>
0

>  <SCORE.RESTR.CAVITY>
0

>  <SCORE.RESTR.norm>
0

>  <SCORE.SYSTEM>
0

>  <SCORE.SYSTEM.CONST>
0

>  <SCORE.SYSTEM.DIHEDRAL>
0

>  <SCORE.SYSTEM.SOLV>
0

>  <SCORE.SYSTEM.norm>
0

>  <SCORE.heavy>
32

>  <SCORE.norm>
-1.56605

>  <RMSD>
8.562

$$$$
1tob
 OpenBabel11021811413D
libRbt.so/2013.1/901 2013/11/27
 32 34  0  0  0  0  0  0  0  0999 V2000
   -6.8044    8.5965    3.0895 C   0  0  2  0  0  0  0  0  0  0  0  0
   -8.3234    8.7410    3.0366 C   0  0  1  0  0  0  0  0  0  0  0  0
   -8.9130    7.6413    2.1639 C   0  0  2  0  0  0  0  0  0  0  0  0
   -8.2628    7.6856    0.7863 C   0  0  1  0  0  0  0  0  0  0  0  0
   -6.7467    7.5781    0.9248 C   0  0  1  0  0  0  0  0  0  0  0  0
   -6.0356    7.6936   -0.4091 C   0  0  0  0  0  0  0  0  0  0  0  0
   -8.8596    8.6501    4.3488 O   0  0  0  0  0  0  0  0  0  0  0  0
  -10.3854    7.7552    2.0839 N   0  3  0  0  0  0  0  0  0  0  0  0
   -8.7572    6.6195   -0.0131 O   0  0  0  0  0  0  0  0  0  0  0  0
   -6.2505    8.6398    1.7684 O   0  0  0  0  0  0  0  0  0  0  0  0
   -4.7003    7.2158   -0.3284 O   0  0  0  0  0  0  0  0  0  0  0  0
   -4.8578    7.3313    5.4807 C   0  0  2  0  0  0  0  0  0  0  0  0
   -3.3786    7.1632    5.7999 C   0  0  0  0  0  0  0  0  0  0  0  0
   -2.8720    5.8137    5.2902 C   0  0  1  0  0  0  0  0  0  0  0  0
   -3.0741    5.7255    3.7792 C   0  0  2  0  0  0  0  0  0  0  0  0
   -4.5550    5.9004    3.4389 C   0  0  1  0  0  0  0  0  0  0  0  0
   -5.0633    7.2376    3.9766 C   0  0  1  0  0  0  0  0  0  0  0  0
   -5.3459    8.6493    5.9422 N   0  3  0  0  0  0  0  0  0  0  0  0
   -1.4510    5.6266    5.6825 N   0  3  0  0  0  0  0  0  0  0  0  0
   -4.7353    5.8456    2.0301 O   0  0  0  0  0  0  0  0  0  0  0  0
   -6.4606    7.3888    3.6677 O   0  0  0  0  0  0  0  0  0  0  0  0
   -2.3664    4.3801    1.9211 C   0  0  1  0  0  0  0  0  0  0  0  0
   -2.7955    3.0143    1.3822 C   0  0  1  0  0  0  0  0  0  0  0  0
   -1.9616    1.9113    2.0165 C   0  0  0  0  0  0  0  0  0  0  0  0
   -0.4876    2.2029    1.7870 C   0  0  1  0  0  0  0  0  0  0  0  0
   -0.1448    3.5890    2.3316 C   0  0  1  0  0  0  0  0  0  0  0  0
    1.3028    3.9731    2.0840 C   0  0  0  0  0  0  0  0  0  0  0  0
   -4.2480    2.7951    1.5787 N   0  3  0  0  0  0  0  0  0  0  0  0
    2.2341    2.9398    2.5964 N   0  3  0  0  0  0  0  0  0  0  0  0
   -2.6036    4.4539    3.2872 O   0  0  0  0  0  0  0  0  0  0  0  0
    0.3078    1.2187    2.4317 O   0  0  0  0  0  0  0  0  0  0  0  0
   -0.9672    4.5909    1.6950 O   0  0  0  0  0  0  0  0  0  0  0  0
  1  2  1  0  0  0  0
  1 10  1  0  0  0  0
  1 21  1  6  0  0  0
  2  3  1  0  0  0  0
  2  7  1  1  0  0  0
  3  4  1  0  0  0  0
  3  8  1  6  0  0  0
  4  5  1  0  0  0  0
  4  9  1  6  0  0  0
  5  6  1  6  0  0  0
  5 10  1  0  0  0  0
  6 11  1  0  0  0  0
 12 13  1  0  0  0  0
 12 17  1  0  0  0  0
 12 18  1  6  0  0  0
 13 14  1  0  0  0  0
 14 15  1  0  0  0  0
 14 19  1  6  0  0  0
 15 16  1  0  0  0  0
 15 30  1  1  0  0  0
 16 17  1  0  0  0  0
 16 20  1  6  0  0  0
 17 21  1  1  0  0  0
 22 23  1  0  0  0  0
 22 30  1  1  0  0  0
 22 32  1  0  0  0  0
 23 24  1  0  0  0  0
 23 28  1  1  0  0  0
 24 25  1  0  0  0  0
 25 26  1  0  0  0  0
 25 31  1  1  0  0  0
 26 27  1  6  0  0  0
 26 32  1  0  0  0  0
 27 29  1  0  0  0  0
M  CHG  5   8   1  18   1  19   1  28   1  29   1
M  END
>  <CHROM.1>
-169.99684703,64.66842592,68.19758004,-42.08444245,-163.09080797,89.95942507
-153.97598679,-14.57659048,-162.08549433,-59.32359348,107.09995814,-141.95667477
36.38586410,-51.66754751,-53.61949258,46.93087578,-4.30319958,5.88153086
2.67411712,-2.89625331,0.51309087,-2.07255695

>  <Name>
1tob

>  <RI>
0

>  <Rbt.Current_Directory>
/home/itssahil/PROJECTS/Mol_Feturizer/New_Systems/rnas/1tob

>  <Rbt.Executable>
rbdock ($Id: //depot/dev/client3/rdock/2013.1/src/exe/rbdock.cxx#4 $)

>  <Rbt.Library>
libRbt.so (2013.1, Build901 2013/11/27)

>  <Rbt.Parameter_File>
/export/apps/rDock/src/rDock_2013.1_src/data/scripts/dock_solv.prm

>  <Rbt.Receptor>
prm/pocket_docking_3.prm

>  <SCORE>
-54.3467

>  <SCORE.INTER>
-53.7004

>  <SCORE.INTER.CONST>
1

>  <SCORE.INTER.POLAR>
-7.50631

>  <SCORE.INTER.ROT>
6

>  <SCORE.INTER.SOLV>
35.2334

>  <SCORE.INTER.VDW>
-30.1237

>  <SCORE.INTER.norm>
-1.67814

>  <SCORE.INTRA>
-1.97761

>  <SCORE.INTRA.DIHEDRAL>
3.66608

>  <SCORE.INTRA.DIHEDRAL.0>
22.9177

>  <SCORE.INTRA.POLAR>
-1.36182

>  <SCORE.INTRA.POLAR.0>
-0.311208

>  <SCORE.INTRA.REPUL>
0

>  <SCORE.INTRA.REPUL.0>
0

>  <SCORE.INTRA.SOLV>
-0.329917

>  <SCORE.INTRA.SOLV.lig_0>
-132.657

>  <SCORE.INTRA.VDW>
0.98449

>  <SCORE.INTRA.VDW.0>
-4.68867

>  <SCORE.INTRA.norm>
-0.0618003

>  <SCORE.RESTR>
1.33131

>  <SCORE.RESTR.CAVITY>
1.33131

>  <SCORE.RESTR.norm>
0.0416036

>  <SCORE.SYSTEM>
0

>  <SCORE.SYSTEM.CONST>
0

>  <SCORE.SYSTEM.DIHEDRAL>
0

>  <SCORE.SYSTEM.SOLV>
0

>  <SCORE.SYSTEM.norm>
0

>  <SCORE.heavy>
32

>  <SCORE.norm>
-1.69833

>  <RMSD>
8.563

$$$$
1tob
 OpenBabel11021811413D
libRbt.so/2013.1/901 2013/11/27
 32 34  0  0  0  0  0  0  0  0999 V2000
   -7.2160    8.7382    2.5253 C   0  0  2  0  0  0  0  0  0  0  0  0
   -8.7329    8.8678    2.4098 C   0  0  1  0  0  0  0  0  0  0  0  0
   -9.2779    7.7484    1.5332 C   0  0  2  0  0  0  0  0  0  0  0  0
   -8.5738    7.7758    0.1819 C   0  0  1  0  0  0  0  0  0  0  0  0
   -7.0636    7.6846    0.3822 C   0  0  1  0  0  0  0  0  0  0  0  0
   -6.3010    7.7846   -0.9243 C   0  0  0  0  0  0  0  0  0  0  0  0
   -9.3201    8.7937    3.7011 O   0  0  0  0  0  0  0  0  0  0  0  0
  -10.7468    7.8473    1.3930 N   0  3  0  0  0  0  0  0  0  0  0  0
   -9.0268    6.6921   -0.6183 O   0  0  0  0  0  0  0  0  0  0  0  0
   -6.6104    8.7648    1.2267 O   0  0  0  0  0  0  0  0  0  0  0  0
   -4.8971    7.7750   -0.7078 O   0  0  0  0  0  0  0  0  0  0  0  0
   -5.3330    7.5464    4.9944 C   0  0  2  0  0  0  0  0  0  0  0  0
   -3.8631    7.3903    5.3595 C   0  0  0  0  0  0  0  0  0  0  0  0
   -3.3424    6.0255    4.9081 C   0  0  1  0  0  0  0  0  0  0  0  0
   -3.5028    5.8882    3.3957 C   0  0  2  0  0  0  0  0  0  0  0  0
   -4.9737    6.0504    3.0092 C   0  0  1  0  0  0  0  0  0  0  0  0
   -5.4968    7.4039    3.4890 C   0  0  1  0  0  0  0  0  0  0  0  0
   -5.8337    8.8782    5.3994 N   0  3  0  0  0  0  0  0  0  0  0  0
   -1.9327    5.8526    5.3452 N   0  3  0  0  0  0  0  0  0  0  0  0
   -5.1151    5.9499    1.5985 O   0  0  0  0  0  0  0  0  0  0  0  0
   -6.8851    7.5436    3.1370 O   0  0  0  0  0  0  0  0  0  0  0  0
   -2.3044    4.5932    1.7677 C   0  0  1  0  0  0  0  0  0  0  0  0
   -2.7199    3.3970    0.9095 C   0  0  1  0  0  0  0  0  0  0  0  0
   -2.3770    2.0951    1.6180 C   0  0  0  0  0  0  0  0  0  0  0  0
   -0.8975    2.0893    1.9667 C   0  0  1  0  0  0  0  0  0  0  0  0
   -0.5595    3.3230    2.8031 C   0  0  1  0  0  0  0  0  0  0  0  0
    0.9177    3.4144    3.1401 C   0  0  0  0  0  0  0  0  0  0  0  0
   -4.1555    3.4715    0.5490 N   0  3  0  0  0  0  0  0  0  0  0  0
    1.7257    3.7686    1.9487 N   0  3  0  0  0  0  0  0  0  0  0  0
   -3.0188    4.6018    2.9583 O   0  0  0  0  0  0  0  0  0  0  0  0
   -0.5741    0.9105    2.6895 O   0  0  0  0  0  0  0  0  0  0  0  0
   -0.9079    4.5241    2.0810 O   0  0  0  0  0  0  0  0  0  0  0  0
  1  2  1  0  0  0  0
  1 10  1  0  0  0  0
  1 21  1  6  0  0  0
  2  3  1  0  0  0  0
  2  7  1  1  0  0  0
  3  4  1  0  0  0  0
  3  8  1  6  0  0  0
  4  5  1  0  0  0  0
  4  9  1  6  0  0  0
  5  6  1  6  0  0  0
  5 10  1  0  0  0  0
  6 11  1  0  0  0  0
 12 13  1  0  0  0  0
 12 17  1  0  0  0  0
 12 18  1  6  0  0  0
 13 14  1  0  0  0  0
 14 15  1  0  0  0  0
 14 19  1  6  0  0  0
 15 16  1  0  0  0  0
 15 30  1  1  0  0  0
 16 17  1  0  0  0  0
 16 20  1  6  0  0  0
 17 21  1  1  0  0  0
 22 23  1  0  0  0  0
 22 30  1  1  0  0  0
 22 32  1  0  0  0  0
 23 24  1  0  0  0  0
 23 28  1  1  0  0  0
 24 25  1  0  0  0  0
 25 26  1  0  0  0  0
 25 31  1  1  0  0  0
 26 27  1  6  0  0  0
 26 32  1  0  0  0  0
 27 29  1  0  0  0  0
M  CHG  5   8   1  18   1  19   1  28   1  29   1
M  END
>  <CHROM.1>
-170.70979000,-56.91568496,72.60539310,-42.55767917,176.62758844,175.97158709
-105.43091775,-119.24171604,-139.81331666,-68.02707233,106.35365374,-137.79844468
-148.57943428,170.33554650,71.84138569,101.63181106,-4.65638319,6.03448311
2.30089330,-2.96450375,0.54813199,-2.06216170

>  <Name>
1tob

>  <RI>
0

>  <Rbt.Current_Directory>
/home/itssahil/PROJECTS/Mol_Feturizer/New_Systems/rnas/1tob

>  <Rbt.Executable>
rbdock ($Id: //depot/dev/client3/rdock/2013.1/src/exe/rbdock.cxx#4 $)

>  <Rbt.Library>
libRbt.so (2013.1, Build901 2013/11/27)

>  <Rbt.Parameter_File>
/export/apps/rDock/src/rDock_2013.1_src/data/scripts/dock_solv.prm

>  <Rbt.Receptor>
prm/pocket_docking_4.prm

>  <SCORE>
-59.5241

>  <SCORE.INTER>
-62.0057

>  <SCORE.INTER.CONST>
1

>  <SCORE.INTER.POLAR>
-8.86211

>  <SCORE.INTER.ROT>
6

>  <SCORE.INTER.SOLV>
34.3826

>  <SCORE.INTER.VDW>
-30.8576

>  <SCORE.INTER.norm>
-1.93768

>  <SCORE.INTRA>
2.48152

>  <SCORE.INTRA.DIHEDRAL>
9.45411

>  <SCORE.INTRA.DIHEDRAL.0>
22.9177

>  <SCORE.INTRA.POLAR>
-1.16158

>  <SCORE.INTRA.POLAR.0>
-0.311208

>  <SCORE.INTRA.REPUL>
0

>  <SCORE.INTRA.REPUL.0>
0

>  <SCORE.INTRA.SOLV>
-0.43959

>  <SCORE.INTRA.SOLV.lig_0>
-132.657

>  <SCORE.INTRA.VDW>
1.92362

>  <SCORE.INTRA.VDW.0>
-4.68867

>  <SCORE.INTRA.norm>
0.0775474

>  <SCORE.RESTR>
0

>  <SCORE.RESTR.CAVITY>
0

>  <SCORE.RESTR.norm>
0

>  <SCORE.SYSTEM>
0

>  <SCORE.SYSTEM.CONST>
0

>  <SCORE.SYSTEM.DIHEDRAL>
0

>  <SCORE.SYSTEM.SOLV>
0

>  <SCORE.SYSTEM.norm>
0

>  <SCORE.heavy>
32

>  <SCORE.norm>
-1.86013

>  <RMSD>
8.567

$$$$
1tob
 OpenBabel11021811413D
libRbt.so/2013.1/901 2013/11/27
 32 34  0  0  0  0  0  0  0  0999 V2000
   -4.0313    6.3670    0.8871 C   0  0  2  0  0  0  0  0  0  0  0  0
   -3.9496    7.6824    0.1162 C   0  0  1  0  0  0  0  0  0  0  0  0
   -2.9582    8.6155    0.7979 C   0  0  2  0  0  0  0  0  0  0  0  0
   -3.3612    8.8043    2.2554 C   0  0  1  0  0  0  0  0  0  0  0  0
   -3.4621    7.4467    2.9454 C   0  0  1  0  0  0  0  0  0  0  0  0
   -3.9352    7.5627    4.3811 C   0  0  0  0  0  0  0  0  0  0  0  0
   -3.5312    7.4310   -1.2177 O   0  0  0  0  0  0  0  0  0  0  0  0
   -2.8590    9.9051    0.0806 N   0  3  0  0  0  0  0  0  0  0  0  0
   -2.4030    9.6188    2.9176 O   0  0  0  0  0  0  0  0  0  0  0  0
   -4.4080    6.6068    2.2490 O   0  0  0  0  0  0  0  0  0  0  0  0
   -3.9492    6.2974    5.0267 O   0  0  0  0  0  0  0  0  0  0  0  0
   -3.3277    3.3716    0.9658 C   0  0  2  0  0  0  0  0  0  0  0  0
   -3.2298    2.1288    1.8399 C   0  0  0  0  0  0  0  0  0  0  0  0
   -1.7702    1.8316    2.1846 C   0  0  1  0  0  0  0  0  0  0  0  0
   -1.1652    3.0197    2.9292 C   0  0  2  0  0  0  0  0  0  0  0  0
   -1.2621    4.2803    2.0685 C   0  0  1  0  0  0  0  0  0  0  0  0
   -2.7202    4.5556    1.7023 C   0  0  1  0  0  0  0  0  0  0  0  0
   -4.7403    3.6832    0.6562 N   0  3  0  0  0  0  0  0  0  0  0  0
   -1.6822    0.5706    2.9657 N   0  3  0  0  0  0  0  0  0  0  0  0
   -0.7235    5.3892    2.7757 O   0  0  0  0  0  0  0  0  0  0  0  0
   -2.8029    5.7330    0.8791 O   0  0  0  0  0  0  0  0  0  0  0  0
    0.8379    3.6869    4.0721 C   0  0  1  0  0  0  0  0  0  0  0  0
    2.3356    3.3907    4.1671 C   0  0  1  0  0  0  0  0  0  0  0  0
    2.5650    2.0369    4.8219 C   0  0  0  0  0  0  0  0  0  0  0  0
    1.8683    2.0093    6.1725 C   0  0  1  0  0  0  0  0  0  0  0  0
    0.3858    2.3353    5.9953 C   0  0  1  0  0  0  0  0  0  0  0  0
   -0.3643    2.3834    7.3141 C   0  0  0  0  0  0  0  0  0  0  0  0
    2.9832    3.4812    2.8371 N   0  3  0  0  0  0  0  0  0  0  0  0
   -0.0003    3.5849    8.1024 N   0  3  0  0  0  0  0  0  0  0  0  0
    0.2140    2.7526    3.2560 O   0  0  0  0  0  0  0  0  0  0  0  0
    2.0149    0.7283    6.7680 O   0  0  0  0  0  0  0  0  0  0  0  0
    0.2321    3.6275    5.3693 O   0  0  0  0  0  0  0  0  0  0  0  0
  1  2  1  0  0  0  0
  1 10  1  0  0  0  0
  1 21  1  1  0  0  0
  2  3  1  0  0  0  0
  2  7  1  6  0  0  0
  3  4  1  0  0  0  0
  3  8  1  6  0  0  0
  4  5  1  0  0  0  0
  4  9  1  1  0  0  0
  5  6  1  1  0  0  0
  5 10  1  0  0  0  0
  6 11  1  0  0  0  0
 12 13  1  0  0  0  0
 12 17  1  0  0  0  0
 12 18  1  1  0  0  0
 13 14  1  0  0  0  0
 14 15  1  0  0  0  0
 14 19  1  1  0  0  0
 15 16  1  0  0  0  0
 15 30  1  6  0  0  0
 16 17  1  0  0  0  0
 16 20  1  1  0  0  0
 17 21  1  6  0  0  0
 22 23  1  0  0  0  0
 22 30  1  6  0  0  0
 22 32  1  0  0  0  0
 23 24  1  0  0  0  0
 23 28  1  6  0  0  0
 24 25  1  0  0  0  0
 25 26  1  0  0  0  0
 25 31  1  6  0  0  0
 26 27  1  1  0  0  0
 26 32  1  0  0  0  0
 27 29  1  0  0  0  0
M  CHG  5   8   1  18   1  19   1  28   1  29   1
M  END
>  <CHROM.1>
173.33768429,-59.52937812,179.38894343,173.71523633,-176.67296663,179.90193669
-42.60621218,15.16015792,-172.69208927,-175.42113381,80.71179219,-171.70931883
55.23736548,62.49758112,71.80235989,-84.59111984,-1.53222250,4.73866846,3.08481355
2.74001440,-0.92223391,0.40982087

>  <Name>
1tob

>  <RI>
0

>  <Rbt.Current_Directory>
/home/itssahil/PROJECTS/Mol_Feturizer/New_Systems/rnas/1tob

>  <Rbt.Executable>
rbdock ($Id: //depot/dev/client3/rdock/2013.1/src/exe/rbdock.cxx#4 $)

>  <Rbt.Library>
libRbt.so (2013.1, Build901 2013/11/27)

>  <Rbt.Parameter_File>
/export/apps/rDock/src/rDock_2013.1_src/data/scripts/dock_solv.prm

>  <Rbt.Receptor>
prm/pocket_docking_7.prm

>  <SCORE>
-54.0382

>  <SCORE.INTER>
-47.8192

>  <SCORE.INTER.CONST>
1

>  <SCORE.INTER.POLAR>
-6.47582

>  <SCORE.INTER.ROT>
6

>  <SCORE.INTER.SOLV>
26.4694

>  <SCORE.INTER.VDW>
-26.7165

>  <SCORE.INTER.norm>
-1.49435

>  <SCORE.INTRA>
-6.21907

>  <SCORE.INTRA.DIHEDRAL>
-13.983

>  <SCORE.INTRA.DIHEDRAL.0>
22.9177

>  <SCORE.INTRA.POLAR>
0.133587

>  <SCORE.INTRA.POLAR.0>
-0.311208

>  <SCORE.INTRA.REPUL>
0

>  <SCORE.INTRA.REPUL.0>
0

>  <SCORE.INTRA.SOLV>
-4.54572

>  <SCORE.INTRA.SOLV.lig_0>
-132.657

>  <SCORE.INTRA.VDW>
2.59108

>  <SCORE.INTRA.VDW.0>
-4.68867

>  <SCORE.INTRA.norm>
-0.194346

>  <SCORE.RESTR>
0

>  <SCORE.RESTR.CAVITY>
0

>  <SCORE.RESTR.norm>
0

>  <SCORE.SYSTEM>
0

>  <SCORE.SYSTEM.CONST>
0

>  <SCORE.SYSTEM.DIHEDRAL>
0

>  <SCORE.SYSTEM.SOLV>
0

>  <SCORE.SYSTEM.norm>
0

>  <SCORE.heavy>
32

>  <SCORE.norm>
-1.68869

>  <RMSD>
8.570

$$$$
1tob
 OpenBabel11021811413D
libRbt.so/2013.1/901 2013/11/27
 32 34  0  0  0  0  0  0  0  0999 V2000
   -6.9902    8.7389    3.1206 C   0  0  2  0  0  0  0  0  0  0  0  0
   -8.5064    8.8194    2.9597 C   0  0  1  0  0  0  0  0  0  0  0  0
   -8.9809    7.7221    2.0168 C   0  0  2  0  0  0  0  0  0  0  0  0
   -8.2353    7.8356    0.6925 C   0  0  1  0  0  0  0  0  0  0  0  0
   -6.7299    7.7893    0.9396 C   0  0  1  0  0  0  0  0  0  0  0  0
   -5.9299    7.9753   -0.3348 C   0  0  0  0  0  0  0  0  0  0  0  0
   -9.1316    8.6662    4.2259 O   0  0  0  0  0  0  0  0  0  0  0  0
  -10.4473    7.7748    1.8315 N   0  3  0  0  0  0  0  0  0  0  0  0
   -8.6218    6.7737   -0.1694 O   0  0  0  0  0  0  0  0  0  0  0  0
   -6.3445    8.8456    1.8456 O   0  0  0  0  0  0  0  0  0  0  0  0
   -6.1865    6.9332   -1.2654 O   0  0  0  0  0  0  0  0  0  0  0  0
   -4.9346    7.4679    5.4114 C   0  0  2  0  0  0  0  0  0  0  0  0
   -3.4430    7.2771    5.6500 C   0  0  0  0  0  0  0  0  0  0  0  0
   -2.9893    5.9119    5.1325 C   0  0  1  0  0  0  0  0  0  0  0  0
   -3.2773    5.8071    3.6365 C   0  0  2  0  0  0  0  0  0  0  0  0
   -4.7716    6.0044    3.3768 C   0  0  1  0  0  0  0  0  0  0  0  0
   -5.2255    7.3578    3.9226 C   0  0  1  0  0  0  0  0  0  0  0  0
   -5.3729    8.8007    5.8804 N   0  3  0  0  0  0  0  0  0  0  0  0
   -1.5521    5.7041    5.4475 N   0  3  0  0  0  0  0  0  0  0  0  0
   -5.0314    5.9340    1.9812 O   0  0  0  0  0  0  0  0  0  0  0  0
   -6.6351    7.5304    3.6900 O   0  0  0  0  0  0  0  0  0  0  0  0
   -2.2233    4.5246    1.9021 C   0  0  1  0  0  0  0  0  0  0  0  0
   -2.6853    3.3300    1.0659 C   0  0  1  0  0  0  0  0  0  0  0  0
   -2.2862    2.0270    1.7421 C   0  0  0  0  0  0  0  0  0  0  0  0
   -0.7870    2.0312    1.9922 C   0  0  1  0  0  0  0  0  0  0  0  0
   -0.4040    3.2628    2.8120 C   0  0  1  0  0  0  0  0  0  0  0  0
    1.0915    3.3642    3.0513 C   0  0  0  0  0  0  0  0  0  0  0  0
   -4.1421    3.3950    0.8014 N   0  3  0  0  0  0  0  0  0  0  0  0
    1.8057    3.8264    1.8371 N   0  3  0  0  0  0  0  0  0  0  0  0
   -2.8574    4.5206    3.1374 O   0  0  0  0  0  0  0  0  0  0  0  0
   -0.4073    0.8509    2.6847 O   0  0  0  0  0  0  0  0  0  0  0  0
   -0.8086    4.4651    2.1221 O   0  0  0  0  0  0  0  0  0  0  0  0
  1  2  1  0  0  0  0
  1 10  1  0  0  0  0
  1 21  1  6  0  0  0
  2  3  1  0  0  0  0
  2  7  1  1  0  0  0
  3  4  1  0  0  0  0
  3  8  1  6  0  0  0
  4  5  1  0  0  0  0
  4  9  1  6  0  0  0
  5  6  1  6  0  0  0
  5 10  1  0  0  0  0
  6 11  1  0  0  0  0
 12 13  1  0  0  0  0
 12 17  1  0  0  0  0
 12 18  1  6  0  0  0
 13 14  1  0  0  0  0
 14 15  1  0  0  0  0
 14 19  1  6  0  0  0
 15 16  1  0  0  0  0
 15 30  1  1  0  0  0
 16 17  1  0  0  0  0
 16 20  1  6  0  0  0
 17 21  1  1  0  0  0
 22 23  1  0  0  0  0
 22 30  1  1  0  0  0
 22 32  1  0  0  0  0
 23 24  1  0  0  0  0
 23 28  1  1  0  0  0
 24 25  1  0  0  0  0
 25 26  1  0  0  0  0
 25 31  1  1  0  0  0
 26 27  1  6  0  0  0
 26 32  1  0  0  0  0
 27 29  1  0  0  0  0
M  CHG  5   8   1  18   1  19   1  28   1  29   1
M  END
>  <CHROM.1>
-178.42199973,168.19267679,-58.16492023,-169.59708014,-62.23265974,-176.90422261
-36.71120136,2.18238065,-138.71467665,166.45023589,106.79528464,-140.00897781
-158.25687847,178.15711771,75.94061790,-23.96037441,-4.48503662,5.97289655
2.57203212,-2.91634187,0.53723795,-2.07125752

>  <Name>
1tob

>  <RI>
0

>  <Rbt.Current_Directory>
/home/itssahil/PROJECTS/Mol_Feturizer/New_Systems/rnas/1tob

>  <Rbt.Executable>
rbdock ($Id: //depot/dev/client3/rdock/2013.1/src/exe/rbdock.cxx#4 $)

>  <Rbt.Library>
libRbt.so (2013.1, Build901 2013/11/27)

>  <Rbt.Parameter_File>
/export/apps/rDock/src/rDock_2013.1_src/data/scripts/dock_solv.prm

>  <Rbt.Receptor>
prm/pocket_docking_6.prm

>  <SCORE>
-54.0458

>  <SCORE.INTER>
-57.8571

>  <SCORE.INTER.CONST>
1

>  <SCORE.INTER.POLAR>
-8.23352

>  <SCORE.INTER.ROT>
6

>  <SCORE.INTER.SOLV>
37.9304

>  <SCORE.INTER.VDW>
-31.3698

>  <SCORE.INTER.norm>
-1.80803

>  <SCORE.INTRA>
3.66426

>  <SCORE.INTRA.DIHEDRAL>
5.75059

>  <SCORE.INTRA.DIHEDRAL.0>
22.9177

>  <SCORE.INTRA.POLAR>
-0.526459

>  <SCORE.INTRA.POLAR.0>
-0.311208

>  <SCORE.INTRA.REPUL>
0

>  <SCORE.INTRA.REPUL.0>
0

>  <SCORE.INTRA.SOLV>
-0.468813

>  <SCORE.INTRA.SOLV.lig_0>
-132.657

>  <SCORE.INTRA.VDW>
2.81333

>  <SCORE.INTRA.VDW.0>
-4.68867

>  <SCORE.INTRA.norm>
0.114508

>  <SCORE.RESTR>
0.147068

>  <SCORE.RESTR.CAVITY>
0.147068

>  <SCORE.RESTR.norm>
0.00459587

>  <SCORE.SYSTEM>
0

>  <SCORE.SYSTEM.CONST>
0

>  <SCORE.SYSTEM.DIHEDRAL>
0

>  <SCORE.SYSTEM.SOLV>
0

>  <SCORE.SYSTEM.norm>
0

>  <SCORE.heavy>
32

>  <SCORE.norm>
-1.68893

>  <RMSD>
8.571

$$$$
1tob
 OpenBabel11021811413D
libRbt.so/2013.1/901 2013/11/27
 32 34  0  0  0  0  0  0  0  0999 V2000
   -5.9128    7.7562    2.7504 C   0  0  2  0  0  0  0  0  0  0  0  0
   -7.2934    7.6507    2.1070 C   0  0  1  0  0  0  0  0  0  0  0  0
   -7.2947    6.5294    1.0769 C   0  0  2  0  0  0  0  0  0  0  0  0
   -6.1829    6.7723    0.0633 C   0  0  1  0  0  0  0  0  0  0  0  0
   -4.8446    6.9079    0.7842 C   0  0  1  0  0  0  0  0  0  0  0  0
   -3.7072    7.2281   -0.1656 C   0  0  0  0  0  0  0  0  0  0  0  0
   -8.2684    7.3852    3.1051 O   0  0  0  0  0  0  0  0  0  0  0  0
   -8.6172    6.4033    0.4269 N   0  3  0  0  0  0  0  0  0  0  0  0
   -6.1323    5.6948   -0.8622 O   0  0  0  0  0  0  0  0  0  0  0  0
   -4.9097    7.9784    1.7511 O   0  0  0  0  0  0  0  0  0  0  0  0
   -2.4579    7.2524    0.5103 O   0  0  0  0  0  0  0  0  0  0  0  0
   -4.0918    6.7220    5.3021 C   0  0  2  0  0  0  0  0  0  0  0  0
   -2.6329    6.5676    5.7095 C   0  0  0  0  0  0  0  0  0  0  0  0
   -2.1358    5.1570    5.3922 C   0  0  1  0  0  0  0  0  0  0  0  0
   -2.2715    4.8883    3.8951 C   0  0  2  0  0  0  0  0  0  0  0  0
   -3.7309    5.0469    3.4657 C   0  0  1  0  0  0  0  0  0  0  0  0
   -4.2312    6.4488    3.8123 C   0  0  1  0  0  0  0  0  0  0  0  0
   -4.5688    8.0951    5.5765 N   0  3  0  0  0  0  0  0  0  0  0  0
   -0.7388    4.9937    5.8716 N   0  3  0  0  0  0  0  0  0  0  0  0
   -3.8486    4.8235    2.0671 O   0  0  0  0  0  0  0  0  0  0  0  0
   -5.6092    6.5862    3.4210 O   0  0  0  0  0  0  0  0  0  0  0  0
   -1.3694    3.3553    2.2827 C   0  0  1  0  0  0  0  0  0  0  0  0
   -1.9895    2.0812    1.7063 C   0  0  1  0  0  0  0  0  0  0  0  0
   -1.5336    0.8667    2.5010 C   0  0  0  0  0  0  0  0  0  0  0  0
   -0.0144    0.8270    2.5278 C   0  0  1  0  0  0  0  0  0  0  0  0
    0.5262    2.1395    3.0942 C   0  0  1  0  0  0  0  0  0  0  0  0
    2.0431    2.1947    3.0966 C   0  0  0  0  0  0  0  0  0  0  0  0
   -3.4668    2.1850    1.6492 N   0  3  0  0  0  0  0  0  0  0  0  0
    2.5378    3.5148    3.5550 N   0  3  0  0  0  0  0  0  0  0  0  0
   -1.8095    3.5578    3.5840 O   0  0  0  0  0  0  0  0  0  0  0  0
    0.4285   -0.2629    3.3232 O   0  0  0  0  0  0  0  0  0  0  0  0
    0.0597    3.2528    2.3016 O   0  0  0  0  0  0  0  0  0  0  0  0
  1  2  1  0  0  0  0
  1 10  1  0  0  0  0
  1 21  1  6  0  0  0
  2  3  1  0  0  0  0
  2  7  1  1  0  0  0
  3  4  1  0  0  0  0
  3  8  1  6  0  0  0
  4  5  1  0  0  0  0
  4  9  1  6  0  0  0
  5  6  1  6  0  0  0
  5 10  1  0  0  0  0
  6 11  1  0  0  0  0
 12 13  1  0  0  0  0
 12 17  1  0  0  0  0
 12 18  1  6  0  0  0
 13 14  1  0  0  0  0
 14 15  1  0  0  0  0
 14 19  1  6  0  0  0
 15 16  1  0  0  0  0
 15 30  1  1  0  0  0
 16 17  1  0  0  0  0
 16 20  1  6  0  0  0
 17 21  1  1  0  0  0
 22 23  1  0  0  0  0
 22 30  1  1  0  0  0
 22 32  1  0  0  0  0
 23 24  1  0  0  0  0
 23 28  1  1  0  0  0
 24 25  1  0  0  0  0
 25 26  1  0  0  0  0
 25 31  1  1  0  0  0
 26 27  1  6  0  0  0
 26 32  1  0  0  0  0
 27 29  1  0  0  0  0
M  CHG  5   8   1  18   1  19   1  28   1  29   1
M  END
>  <CHROM.1>
166.78569052,-44.91612030,164.98835953,-174.47245380,-175.68218498,-58.36797260
-60.33479243,16.40027175,-155.06576570,171.60040487,103.61021798,-132.34348798
152.71348720,174.40327172,175.73190213,67.02318076,-3.25375352,5.02267084
2.66942448,-2.92231752,0.61898973,-2.22571687

>  <Name>
1tob

>  <RI>
0

>  <Rbt.Current_Directory>
/home/itssahil/PROJECTS/Mol_Feturizer/New_Systems/rnas/1tob

>  <Rbt.Executable>
rbdock ($Id: //depot/dev/client3/rdock/2013.1/src/exe/rbdock.cxx#4 $)

>  <Rbt.Library>
libRbt.so (2013.1, Build901 2013/11/27)

>  <Rbt.Parameter_File>
/export/apps/rDock/src/rDock_2013.1_src/data/scripts/dock_solv.prm

>  <Rbt.Receptor>
prm/blind_docking_60.prm

>  <SCORE>
-43.3968

>  <SCORE.INTER>
-46.4818

>  <SCORE.INTER.CONST>
1

>  <SCORE.INTER.POLAR>
-6.67475

>  <SCORE.INTER.ROT>
6

>  <SCORE.INTER.SOLV>
33.8885

>  <SCORE.INTER.VDW>
-27.6349

>  <SCORE.INTER.norm>
-1.45256

>  <SCORE.INTRA>
-0.963529

>  <SCORE.INTRA.DIHEDRAL>
0.150985

>  <SCORE.INTRA.DIHEDRAL.0>
22.9177

>  <SCORE.INTRA.POLAR>
-0.762859

>  <SCORE.INTRA.POLAR.0>
-0.311208

>  <SCORE.INTRA.REPUL>
0

>  <SCORE.INTRA.REPUL.0>
0

>  <SCORE.INTRA.SOLV>
-1.30004

>  <SCORE.INTRA.SOLV.lig_0>
-132.657

>  <SCORE.INTRA.VDW>
2.20472

>  <SCORE.INTRA.VDW.0>
-4.68867

>  <SCORE.INTRA.norm>
-0.0301103

>  <SCORE.RESTR>
4.04853

>  <SCORE.RESTR.CAVITY>
4.04853

>  <SCORE.RESTR.norm>
0.126517

>  <SCORE.SYSTEM>
0

>  <SCORE.SYSTEM.CONST>
0

>  <SCORE.SYSTEM.DIHEDRAL>
0

>  <SCORE.SYSTEM.SOLV>
0

>  <SCORE.SYSTEM.norm>
0

>  <SCORE.heavy>
32

>  <SCORE.norm>
-1.35615

>  <RMSD>
8.581

$$$$
1tob
 OpenBabel11021811413D
libRbt.so/2013.1/901 2013/11/27
 32 34  0  0  0  0  0  0  0  0999 V2000
   -7.7306    8.4561   -1.4327 C   0  0  2  0  0  0  0  0  0  0  0  0
   -9.1368    7.9646   -1.0978 C   0  0  1  0  0  0  0  0  0  0  0  0
   -9.8361    7.5057   -2.3701 C   0  0  2  0  0  0  0  0  0  0  0  0
   -9.8290    8.6395   -3.3883 C   0  0  1  0  0  0  0  0  0  0  0  0
   -8.3965    9.1029   -3.6382 C   0  0  1  0  0  0  0  0  0  0  0  0
   -8.3290   10.2837   -4.5868 C   0  0  0  0  0  0  0  0  0  0  0  0
   -9.0609    6.8855   -0.1773 O   0  0  0  0  0  0  0  0  0  0  0  0
  -11.2065    7.0288   -2.0836 N   0  3  0  0  0  0  0  0  0  0  0  0
  -10.4187    8.1979   -4.6038 O   0  0  0  0  0  0  0  0  0  0  0  0
   -7.7862    9.5156   -2.3963 O   0  0  0  0  0  0  0  0  0  0  0  0
   -8.9266   11.4405   -4.0187 O   0  0  0  0  0  0  0  0  0  0  0  0
   -4.7991    8.4768   -1.9310 C   0  0  2  0  0  0  0  0  0  0  0  0
   -3.3907    8.3555   -1.3655 C   0  0  0  0  0  0  0  0  0  0  0  0
   -3.4269    8.3535    0.1630 C   0  0  1  0  0  0  0  0  0  0  0  0
   -4.2702    7.1798    0.6561 C   0  0  2  0  0  0  0  0  0  0  0  0
   -5.6878    7.2807    0.0909 C   0  0  1  0  0  0  0  0  0  0  0  0
   -5.6434    7.3123   -1.4365 C   0  0  1  0  0  0  0  0  0  0  0  0
   -4.7733    8.4460   -3.4098 N   0  3  0  0  0  0  0  0  0  0  0  0
   -2.0422    8.3204    0.7011 N   0  3  0  0  0  0  0  0  0  0  0  0
   -6.4614    6.1720    0.5294 O   0  0  0  0  0  0  0  0  0  0  0  0
   -6.9785    7.4239   -1.9616 O   0  0  0  0  0  0  0  0  0  0  0  0
   -5.1542    6.2253    2.6738 C   0  0  1  0  0  0  0  0  0  0  0  0
   -5.0242    6.2609    4.1976 C   0  0  1  0  0  0  0  0  0  0  0  0
   -3.6111    5.8828    4.6153 C   0  0  0  0  0  0  0  0  0  0  0  0
   -3.2587    4.5286    4.0216 C   0  0  1  0  0  0  0  0  0  0  0  0
   -3.4344    4.5690    2.5040 C   0  0  1  0  0  0  0  0  0  0  0  0
   -3.1554    3.2293    1.8471 C   0  0  0  0  0  0  0  0  0  0  0  0
   -5.4286    7.5806    4.7372 N   0  3  0  0  0  0  0  0  0  0  0  0
   -2.7142    3.3950    0.4416 N   0  3  0  0  0  0  0  0  0  0  0  0
   -4.3154    7.1701    2.0977 O   0  0  0  0  0  0  0  0  0  0  0  0
   -1.9178    4.1911    4.3453 O   0  0  0  0  0  0  0  0  0  0  0  0
   -4.7911    4.9340    2.1699 O   0  0  0  0  0  0  0  0  0  0  0  0
  1  2  1  0  0  0  0
  1 10  1  0  0  0  0
  1 21  1  6  0  0  0
  2  3  1  0  0  0  0
  2  7  1  1  0  0  0
  3  4  1  0  0  0  0
  3  8  1  1  0  0  0
  4  5  1  0  0  0  0
  4  9  1  6  0  0  0
  5  6  1  6  0  0  0
  5 10  1  0  0  0  0
  6 11  1  0  0  0  0
 12 13  1  0  0  0  0
 12 17  1  0  0  0  0
 12 18  1  6  0  0  0
 13 14  1  0  0  0  0
 14 15  1  0  0  0  0
 14 19  1  1  0  0  0
 15 16  1  0  0  0  0
 15 30  1  1  0  0  0
 16 17  1  0  0  0  0
 16 20  1  6  0  0  0
 17 21  1  6  0  0  0
 22 23  1  0  0  0  0
 22 30  1  6  0  0  0
 22 32  1  0  0  0  0
 23 24  1  0  0  0  0
 23 28  1  6  0  0  0
 24 25  1  0  0  0  0
 25 26  1  0  0  0  0
 25 31  1  6  0  0  0
 26 27  1  1  0  0  0
 26 32  1  0  0  0  0
 27 29  1  0  0  0  0
M  CHG  5   8   1  18   1  19   1  28   1  29   1
M  END
>  <CHROM.1>
-135.21274634,-179.01652812,48.89113983,177.43873092,65.85622769,62.22786083
173.41223019,-66.63530429,174.17545976,-174.29171536,-70.28294824,175.84958662
86.86775152,66.50586154,-153.59868097,70.58827365,-5.98584767,7.19636868
-0.14260347,2.23342212,-0.09169322,-0.98375752

>  <Name>
1tob

>  <RI>
0

>  <Rbt.Current_Directory>
/home/itssahil/PROJECTS/Mol_Feturizer/New_Systems/rnas/1tob

>  <Rbt.Executable>
rbdock ($Id: //depot/dev/client3/rdock/2013.1/src/exe/rbdock.cxx#4 $)

>  <Rbt.Library>
libRbt.so (2013.1, Build901 2013/11/27)

>  <Rbt.Parameter_File>
/export/apps/rDock/src/rDock_2013.1_src/data/scripts/dock_solv.prm

>  <Rbt.Receptor>
prm/pocket_docking_8.prm

>  <SCORE>
-31.9214

>  <SCORE.INTER>
-25.3872

>  <SCORE.INTER.CONST>
1

>  <SCORE.INTER.POLAR>
-4.44176

>  <SCORE.INTER.ROT>
6

>  <SCORE.INTER.SOLV>
23.1767

>  <SCORE.INTER.VDW>
-17.4445

>  <SCORE.INTER.norm>
-0.793349

>  <SCORE.INTRA>
-6.53422

>  <SCORE.INTRA.DIHEDRAL>
-11.0704

>  <SCORE.INTRA.DIHEDRAL.0>
22.9177

>  <SCORE.INTRA.POLAR>
-0.736208

>  <SCORE.INTRA.POLAR.0>
-0.311208

>  <SCORE.INTRA.REPUL>
0

>  <SCORE.INTRA.REPUL.0>
0

>  <SCORE.INTRA.SOLV>
-5.7579

>  <SCORE.INTRA.SOLV.lig_0>
-132.657

>  <SCORE.INTRA.VDW>
4.38303

>  <SCORE.INTRA.VDW.0>
-4.68867

>  <SCORE.INTRA.norm>
-0.204194

>  <SCORE.RESTR>
0

>  <SCORE.RESTR.CAVITY>
0

>  <SCORE.RESTR.norm>
0

>  <SCORE.SYSTEM>
0

>  <SCORE.SYSTEM.CONST>
0

>  <SCORE.SYSTEM.DIHEDRAL>
0

>  <SCORE.SYSTEM.SOLV>
0

>  <SCORE.SYSTEM.norm>
0

>  <SCORE.heavy>
32

>  <SCORE.norm>
-0.997543

>  <RMSD>
8.583

$$$$
1tob
 OpenBabel11021811413D
libRbt.so/2013.1/901 2013/11/27
 32 34  0  0  0  0  0  0  0  0999 V2000
   -5.5153    5.9973    3.7747 C   0  0  2  0  0  0  0  0  0  0  0  0
   -6.7889    6.6548    3.2486 C   0  0  1  0  0  0  0  0  0  0  0  0
   -6.6114    8.1668    3.2204 C   0  0  2  0  0  0  0  0  0  0  0  0
   -6.2194    8.6561    4.6095 C   0  0  1  0  0  0  0  0  0  0  0  0
   -4.9660    7.9248    5.0821 C   0  0  1  0  0  0  0  0  0  0  0  0
   -4.5686    8.3130    6.4928 C   0  0  0  0  0  0  0  0  0  0  0  0
   -7.0672    6.1810    1.9388 O   0  0  0  0  0  0  0  0  0  0  0  0
   -7.8313    8.8383    2.7220 N   0  3  0  0  0  0  0  0  0  0  0  0
   -5.9845   10.0574    4.5771 O   0  0  0  0  0  0  0  0  0  0  0  0
   -5.1940    6.4989    5.0782 O   0  0  0  0  0  0  0  0  0  0  0  0
   -3.3387    7.7104    6.8699 O   0  0  0  0  0  0  0  0  0  0  0  0
   -3.1864    5.1262    1.2131 C   0  0  2  0  0  0  0  0  0  0  0  0
   -2.2486    3.9532    0.9626 C   0  0  0  0  0  0  0  0  0  0  0  0
   -0.9939    4.0780    1.8273 C   0  0  1  0  0  0  0  0  0  0  0  0
   -1.3863    4.1026    3.3029 C   0  0  2  0  0  0  0  0  0  0  0  0
   -2.3358    5.2711    3.5719 C   0  0  1  0  0  0  0  0  0  0  0  0
   -3.5742    5.1570    2.6835 C   0  0  1  0  0  0  0  0  0  0  0  0
   -4.4174    4.9937    0.4034 N   0  3  0  0  0  0  0  0  0  0  0  0
   -0.0506    2.9741    1.5114 N   0  3  0  0  0  0  0  0  0  0  0  0
   -2.7207    5.2740    4.9400 O   0  0  0  0  0  0  0  0  0  0  0  0
   -4.4555    6.2677    2.9294 O   0  0  0  0  0  0  0  0  0  0  0  0
   -0.2327    3.5232    5.3271 C   0  0  1  0  0  0  0  0  0  0  0  0
    1.1896    3.1513    5.7497 C   0  0  1  0  0  0  0  0  0  0  0  0
    1.8174    2.2185    4.7249 C   0  0  0  0  0  0  0  0  0  0  0  0
    0.9196    1.0069    4.5343 C   0  0  1  0  0  0  0  0  0  0  0  0
   -0.4838    1.4620    4.1360 C   0  0  1  0  0  0  0  0  0  0  0  0
   -1.4534    0.3039    3.9849 C   0  0  0  0  0  0  0  0  0  0  0  0
    2.0131    4.3625    5.9761 N   0  3  0  0  0  0  0  0  0  0  0  0
   -1.0788   -0.5736    2.8503 N   0  3  0  0  0  0  0  0  0  0  0  0
   -0.2103    4.2247    4.1290 O   0  0  0  0  0  0  0  0  0  0  0  0
    1.4569    0.1582    3.5304 O   0  0  0  0  0  0  0  0  0  0  0  0
   -1.0254    2.3437    5.1434 O   0  0  0  0  0  0  0  0  0  0  0  0
  1  2  1  0  0  0  0
  1 10  1  0  0  0  0
  1 21  1  6  0  0  0
  2  3  1  0  0  0  0
  2  7  1  6  0  0  0
  3  4  1  0  0  0  0
  3  8  1  1  0  0  0
  4  5  1  0  0  0  0
  4  9  1  6  0  0  0
  5  6  1  1  0  0  0
  5 10  1  0  0  0  0
  6 11  1  0  0  0  0
 12 13  1  0  0  0  0
 12 17  1  0  0  0  0
 12 18  1  6  0  0  0
 13 14  1  0  0  0  0
 14 15  1  0  0  0  0
 14 19  1  1  0  0  0
 15 16  1  0  0  0  0
 15 30  1  1  0  0  0
 16 17  1  0  0  0  0
 16 20  1  1  0  0  0
 17 21  1  6  0  0  0
 22 23  1  0  0  0  0
 22 30  1  6  0  0  0
 22 32  1  0  0  0  0
 23 24  1  0  0  0  0
 23 28  1  6  0  0  0
 24 25  1  0  0  0  0
 25 26  1  0  0  0  0
 25 31  1  6  0  0  0
 26 27  1  1  0  0  0
 26 32  1  0  0  0  0
 27 29  1  0  0  0  0
M  CHG  5   8   1  18   1  19   1  28   1  29   1
M  END
>  <CHROM.1>
-138.65620813,-60.55394754,-46.24465470,-61.45670202,-174.95070125,40.48329792
-144.84884736,-154.68835197,-143.53782006,75.60229956,138.61545168,151.92835423
-53.95390095,65.49651270,-65.94024068,150.59932534,-2.70412272,4.83011705
3.77060057,2.68841229,-0.63002659,0.84611512

>  <Name>
1tob

>  <RI>
0

>  <Rbt.Current_Directory>
/home/itssahil/PROJECTS/Mol_Feturizer/New_Systems/rnas/1tob

>  <Rbt.Executable>
rbdock ($Id: //depot/dev/client3/rdock/2013.1/src/exe/rbdock.cxx#4 $)

>  <Rbt.Library>
libRbt.so (2013.1, Build901 2013/11/27)

>  <Rbt.Parameter_File>
/export/apps/rDock/src/rDock_2013.1_src/data/scripts/dock_solv.prm

>  <Rbt.Receptor>
prm/blind_docking_80.prm

>  <SCORE>
-7.70041

>  <SCORE.INTER>
-20.1334

>  <SCORE.INTER.CONST>
1

>  <SCORE.INTER.POLAR>
-3.93383

>  <SCORE.INTER.ROT>
6

>  <SCORE.INTER.SOLV>
42.4707

>  <SCORE.INTER.VDW>
-22.0664

>  <SCORE.INTER.norm>
-0.629168

>  <SCORE.INTRA>
3.09746

>  <SCORE.INTRA.DIHEDRAL>
5.63537

>  <SCORE.INTRA.DIHEDRAL.0>
22.9177

>  <SCORE.INTRA.POLAR>
-0.620271

>  <SCORE.INTRA.POLAR.0>
-0.311208

>  <SCORE.INTRA.REPUL>
0

>  <SCORE.INTRA.REPUL.0>
0

>  <SCORE.INTRA.SOLV>
2.06185

>  <SCORE.INTRA.SOLV.lig_0>
-132.657

>  <SCORE.INTRA.VDW>
1.35777

>  <SCORE.INTRA.VDW.0>
-4.68867

>  <SCORE.INTRA.norm>
0.0967955

>  <SCORE.RESTR>
9.33553

>  <SCORE.RESTR.CAVITY>
9.33553

>  <SCORE.RESTR.norm>
0.291735

>  <SCORE.SYSTEM>
0

>  <SCORE.SYSTEM.CONST>
0

>  <SCORE.SYSTEM.DIHEDRAL>
0

>  <SCORE.SYSTEM.SOLV>
0

>  <SCORE.SYSTEM.norm>
0

>  <SCORE.heavy>
32

>  <SCORE.norm>
-0.240638

>  <RMSD>
8.588

$$$$
1tob
 OpenBabel11021811413D
libRbt.so/2013.1/901 2013/11/27
 32 34  0  0  0  0  0  0  0  0999 V2000
   -8.1262    8.1393    3.3089 C   0  0  2  0  0  0  0  0  0  0  0  0
   -9.5395    7.6023    3.0961 C   0  0  1  0  0  0  0  0  0  0  0  0
  -10.2319    8.4009    2.0002 C   0  0  2  0  0  0  0  0  0  0  0  0
  -10.2061    9.8816    2.3600 C   0  0  1  0  0  0  0  0  0  0  0  0
   -8.7674   10.3323    2.5975 C   0  0  1  0  0  0  0  0  0  0  0  0
   -8.6814   11.7812    3.0353 C   0  0  0  0  0  0  0  0  0  0  0  0
   -9.4811    6.2322    2.7260 O   0  0  0  0  0  0  0  0  0  0  0  0
  -11.6089    7.9117    1.7721 N   0  3  0  0  0  0  0  0  0  0  0  0
  -10.7892   10.6418    1.3102 O   0  0  0  0  0  0  0  0  0  0  0  0
   -8.1642    9.5336    3.6384 O   0  0  0  0  0  0  0  0  0  0  0  0
   -9.3359   11.9873    4.2791 O   0  0  0  0  0  0  0  0  0  0  0  0
   -6.8951    6.3253    0.4606 C   0  0  2  0  0  0  0  0  0  0  0  0
   -6.3350    4.9263    0.2431 C   0  0  0  0  0  0  0  0  0  0  0  0
   -4.8978    4.8401    0.7575 C   0  0  1  0  0  0  0  0  0  0  0  0
   -4.8642    5.1698    2.2481 C   0  0  2  0  0  0  0  0  0  0  0  0
   -5.4312    6.5701    2.4867 C   0  0  1  0  0  0  0  0  0  0  0  0
   -6.8571    6.6591    1.9439 C   0  0  1  0  0  0  0  0  0  0  0  0
   -8.2969    6.4056   -0.0052 N   0  3  0  0  0  0  0  0  0  0  0  0
   -4.3353    3.4967    0.4627 N   0  3  0  0  0  0  0  0  0  0  0  0
   -5.4241    6.8623    3.8776 O   0  0  0  0  0  0  0  0  0  0  0  0
   -7.3788    7.9833    2.1565 O   0  0  0  0  0  0  0  0  0  0  0  0
   -3.3054    4.2496    3.8252 C   0  0  1  0  0  0  0  0  0  0  0  0
   -2.1326    4.7478    4.6716 C   0  0  1  0  0  0  0  0  0  0  0  0
   -0.8464    4.7185    3.8598 C   0  0  0  0  0  0  0  0  0  0  0  0
   -0.6303    3.3163    3.3142 C   0  0  1  0  0  0  0  0  0  0  0  0
   -1.8507    2.8849    2.5017 C   0  0  1  0  0  0  0  0  0  0  0  0
   -1.7299    1.4673    1.9728 C   0  0  0  0  0  0  0  0  0  0  0  0
   -2.4086    6.0941    5.2264 N   0  3  0  0  0  0  0  0  0  0  0  0
   -2.0262    0.4674    3.0264 N   0  3  0  0  0  0  0  0  0  0  0  0
   -3.5117    5.0962    2.7441 O   0  0  0  0  0  0  0  0  0  0  0  0
    0.5307    3.2873    2.4969 O   0  0  0  0  0  0  0  0  0  0  0  0
   -3.0377    2.9346    3.3227 O   0  0  0  0  0  0  0  0  0  0  0  0
  1  2  1  0  0  0  0
  1 10  1  0  0  0  0
  1 21  1  6  0  0  0
  2  3  1  0  0  0  0
  2  7  1  6  0  0  0
  3  4  1  0  0  0  0
  3  8  1  1  0  0  0
  4  5  1  0  0  0  0
  4  9  1  6  0  0  0
  5  6  1  1  0  0  0
  5 10  1  0  0  0  0
  6 11  1  0  0  0  0
 12 13  1  0  0  0  0
 12 17  1  0  0  0  0
 12 18  1  1  0  0  0
 13 14  1  0  0  0  0
 14 15  1  0  0  0  0
 14 19  1  1  0  0  0
 15 16  1  0  0  0  0
 15 30  1  6  0  0  0
 16 17  1  0  0  0  0
 16 20  1  1  0  0  0
 17 21  1  6  0  0  0
 22 23  1  0  0  0  0
 22 30  1  6  0  0  0
 22 32  1  0  0  0  0
 23 24  1  0  0  0  0
 23 28  1  6  0  0  0
 24 25  1  0  0  0  0
 25 26  1  0  0  0  0
 25 31  1  6  0  0  0
 26 27  1  1  0  0  0
 26 32  1  0  0  0  0
 27 29  1  0  0  0  0
M  CHG  5   8   1  18   1  19   1  28   1  29   1
M  END
>  <CHROM.1>
-79.53851705,68.34320026,62.63926276,176.84960536,62.73735662,-58.46752785
-44.23260379,-170.49817150,-124.71013908,-58.45124199,143.04851225,-151.45472506
-178.31138837,179.46272196,78.64533211,103.12309820,-5.85897966,6.27676337
2.56184292,-2.62082284,0.46331627,-2.55263336

>  <Name>
1tob

>  <RI>
0

>  <Rbt.Current_Directory>
/home/itssahil/PROJECTS/Mol_Feturizer/New_Systems/rnas/1tob

>  <Rbt.Executable>
rbdock ($Id: //depot/dev/client3/rdock/2013.1/src/exe/rbdock.cxx#4 $)

>  <Rbt.Library>
libRbt.so (2013.1, Build901 2013/11/27)

>  <Rbt.Parameter_File>
/export/apps/rDock/src/rDock_2013.1_src/data/scripts/dock_solv.prm

>  <Rbt.Receptor>
prm/pocket_docking_6.prm

>  <SCORE>
-42.0408

>  <SCORE.INTER>
-41.4897

>  <SCORE.INTER.CONST>
1

>  <SCORE.INTER.POLAR>
-5.83859

>  <SCORE.INTER.ROT>
6

>  <SCORE.INTER.SOLV>
29.5976

>  <SCORE.INTER.VDW>
-25.6637

>  <SCORE.INTER.norm>
-1.29655

>  <SCORE.INTRA>
-0.551122

>  <SCORE.INTRA.DIHEDRAL>
-0.379269

>  <SCORE.INTRA.DIHEDRAL.0>
22.9177

>  <SCORE.INTRA.POLAR>
-0.554457

>  <SCORE.INTRA.POLAR.0>
-0.311208

>  <SCORE.INTRA.REPUL>
0

>  <SCORE.INTRA.REPUL.0>
0

>  <SCORE.INTRA.SOLV>
1.94673

>  <SCORE.INTRA.SOLV.lig_0>
-132.657

>  <SCORE.INTRA.VDW>
0.5503

>  <SCORE.INTRA.VDW.0>
-4.68867

>  <SCORE.INTRA.norm>
-0.0172226

>  <SCORE.RESTR>
0

>  <SCORE.RESTR.CAVITY>
0

>  <SCORE.RESTR.norm>
0

>  <SCORE.SYSTEM>
0

>  <SCORE.SYSTEM.CONST>
0

>  <SCORE.SYSTEM.DIHEDRAL>
0

>  <SCORE.SYSTEM.SOLV>
0

>  <SCORE.SYSTEM.norm>
0

>  <SCORE.heavy>
32

>  <SCORE.norm>
-1.31377

>  <RMSD>
8.591

$$$$
1tob
 OpenBabel11021811413D
libRbt.so/2013.1/901 2013/11/27
 32 34  0  0  0  0  0  0  0  0999 V2000
   -3.5342    5.9954    0.6397 C   0  0  2  0  0  0  0  0  0  0  0  0
   -3.4854    7.3722   -0.0186 C   0  0  1  0  0  0  0  0  0  0  0  0
   -2.3789    8.2045    0.6150 C   0  0  2  0  0  0  0  0  0  0  0  0
   -2.5970    8.2729    2.1217 C   0  0  1  0  0  0  0  0  0  0  0  0
   -2.6764    6.8622    2.6987 C   0  0  1  0  0  0  0  0  0  0  0  0
   -2.9700    6.8626    4.1860 C   0  0  0  0  0  0  0  0  0  0  0  0
   -3.2401    7.2296   -1.4104 O   0  0  0  0  0  0  0  0  0  0  0  0
   -2.3075    9.5501    0.0053 N   0  3  0  0  0  0  0  0  0  0  0  0
   -1.5311    8.9901    2.7297 O   0  0  0  0  0  0  0  0  0  0  0  0
   -3.7352    6.1225    2.0530 O   0  0  0  0  0  0  0  0  0  0  0  0
   -1.8950    6.3031    4.9273 O   0  0  0  0  0  0  0  0  0  0  0  0
   -2.7892    2.9748    0.8109 C   0  0  2  0  0  0  0  0  0  0  0  0
   -2.5150    1.8186    1.7628 C   0  0  0  0  0  0  0  0  0  0  0  0
   -1.0113    1.5681    1.8802 C   0  0  1  0  0  0  0  0  0  0  0  0
   -0.3195    2.8253    2.4026 C   0  0  2  0  0  0  0  0  0  0  0  0
   -0.5910    4.0004    1.4620 C   0  0  1  0  0  0  0  0  0  0  0  0
   -2.0962    4.2271    1.3253 C   0  0  1  0  0  0  0  0  0  0  0  0
   -4.2411    3.2432    0.7188 N   0  3  0  0  0  0  0  0  0  0  0  0
   -0.7620    0.3851    2.7441 N   0  3  0  0  0  0  0  0  0  0  0  0
    0.0311    5.1747    1.9662 O   0  0  0  0  0  0  0  0  0  0  0  0
   -2.3453    5.3231    0.4266 O   0  0  0  0  0  0  0  0  0  0  0  0
    1.8634    3.7043    2.8780 C   0  0  1  0  0  0  0  0  0  0  0  0
    3.3000    3.2768    3.1836 C   0  0  1  0  0  0  0  0  0  0  0  0
    3.3267    2.3309    4.3748 C   0  0  0  0  0  0  0  0  0  0  0  0
    2.6416    2.9957    5.5576 C   0  0  1  0  0  0  0  0  0  0  0  0
    1.2241    3.4115    5.1661 C   0  0  1  0  0  0  0  0  0  0  0  0
    0.4975    4.1368    6.2842 C   0  0  0  0  0  0  0  0  0  0  0  0
    3.9460    2.6837    1.9889 N   0  3  0  0  0  0  0  0  0  0  0  0
   -0.9736    4.0464    6.1242 N   0  3  0  0  0  0  0  0  0  0  0  0
    1.1012    2.6024    2.5133 O   0  0  0  0  0  0  0  0  0  0  0  0
    2.5971    2.0999    6.6587 O   0  0  0  0  0  0  0  0  0  0  0  0
    1.2631    4.3049    4.0322 O   0  0  0  0  0  0  0  0  0  0  0  0
  1  2  1  0  0  0  0
  1 10  1  0  0  0  0
  1 21  1  1  0  0  0
  2  3  1  0  0  0  0
  2  7  1  6  0  0  0
  3  4  1  0  0  0  0
  3  8  1  6  0  0  0
  4  5  1  0  0  0  0
  4  9  1  1  0  0  0
  5  6  1  1  0  0  0
  5 10  1  0  0  0  0
  6 11  1  0  0  0  0
 12 13  1  0  0  0  0
 12 17  1  0  0  0  0
 12 18  1  1  0  0  0
 13 14  1  0  0  0  0
 14 15  1  0  0  0  0
 14 19  1  1  0  0  0
 15 16  1  0  0  0  0
 15 30  1  6  0  0  0
 16 17  1  0  0  0  0
 16 20  1  1  0  0  0
 17 21  1  6  0  0  0
 22 23  1  0  0  0  0
 22 30  1  1  0  0  0
 22 32  1  0  0  0  0
 23 24  1  0  0  0  0
 23 28  1  6  0  0  0
 24 25  1  0  0  0  0
 25 26  1  0  0  0  0
 25 31  1  1  0  0  0
 26 27  1  1  0  0  0
 26 32  1  0  0  0  0
 27 29  1  0  0  0  0
M  CHG  5   8   1  18   1  19   1  28   1  29   1
M  END
>  <CHROM.1>
161.08293216,-174.44809195,175.32252256,-48.93047232,-116.40784692,155.16837663
71.44181631,-173.89695770,175.09519204,-167.59322763,84.49944550,170.56121738
-70.56668132,178.12335546,-156.98202571,42.86577678,-0.82230488,4.67552592
2.59703199,2.73496903,-0.78918477,0.36776258

>  <Name>
1tob

>  <RI>
0

>  <Rbt.Current_Directory>
/home/itssahil/PROJECTS/Mol_Feturizer/New_Systems/rnas/1tob

>  <Rbt.Executable>
rbdock ($Id: //depot/dev/client3/rdock/2013.1/src/exe/rbdock.cxx#4 $)

>  <Rbt.Library>
libRbt.so (2013.1, Build901 2013/11/27)

>  <Rbt.Parameter_File>
/export/apps/rDock/src/rDock_2013.1_src/data/scripts/dock_solv.prm

>  <Rbt.Receptor>
prm/blind_docking_20.prm

>  <SCORE>
-28.9607

>  <SCORE.INTER>
-40.044

>  <SCORE.INTER.CONST>
1

>  <SCORE.INTER.POLAR>
-4.06512

>  <SCORE.INTER.ROT>
6

>  <SCORE.INTER.SOLV>
32.3251

>  <SCORE.INTER.VDW>
-31.5206

>  <SCORE.INTER.norm>
-1.25137

>  <SCORE.INTRA>
0.164121

>  <SCORE.INTRA.DIHEDRAL>
-5.48757

>  <SCORE.INTRA.DIHEDRAL.0>
22.9177

>  <SCORE.INTRA.POLAR>
-0.872879

>  <SCORE.INTRA.POLAR.0>
-0.311208

>  <SCORE.INTRA.REPUL>
0.461905

>  <SCORE.INTRA.REPUL.0>
0

>  <SCORE.INTRA.SOLV>
-1.21674

>  <SCORE.INTRA.SOLV.lig_0>
-132.657

>  <SCORE.INTRA.VDW>
4.17454

>  <SCORE.INTRA.VDW.0>
-4.68867

>  <SCORE.INTRA.norm>
0.00512878

>  <SCORE.RESTR>
10.9191

>  <SCORE.RESTR.CAVITY>
10.9191

>  <SCORE.RESTR.norm>
0.341223

>  <SCORE.SYSTEM>
0

>  <SCORE.SYSTEM.CONST>
0

>  <SCORE.SYSTEM.DIHEDRAL>
0

>  <SCORE.SYSTEM.SOLV>
0

>  <SCORE.SYSTEM.norm>
0

>  <SCORE.heavy>
32

>  <SCORE.norm>
-0.905022

>  <RMSD>
8.593

$$$$
1tob
 OpenBabel11021811413D
libRbt.so/2013.1/901 2013/11/27
 32 34  0  0  0  0  0  0  0  0999 V2000
   -5.7774    6.3866    2.5578 C   0  0  2  0  0  0  0  0  0  0  0  0
   -6.3762    7.2679    1.4641 C   0  0  1  0  0  0  0  0  0  0  0  0
   -5.7527    8.6557    1.5253 C   0  0  2  0  0  0  0  0  0  0  0  0
   -5.9394    9.2330    2.9233 C   0  0  1  0  0  0  0  0  0  0  0  0
   -5.3545    8.2785    3.9607 C   0  0  1  0  0  0  0  0  0  0  0  0
   -5.5781    8.7616    5.3803 C   0  0  0  0  0  0  0  0  0  0  0  0
   -6.1287    6.6875    0.1916 O   0  0  0  0  0  0  0  0  0  0  0  0
   -6.3160    9.5403    0.4825 N   0  3  0  0  0  0  0  0  0  0  0  0
   -5.3005   10.4996    3.0097 O   0  0  0  0  0  0  0  0  0  0  0  0
   -5.9780    6.9811    3.8463 O   0  0  0  0  0  0  0  0  0  0  0  0
   -4.6737    8.1459    6.2864 O   0  0  0  0  0  0  0  0  0  0  0  0
   -3.5987    4.0915    1.5783 C   0  0  2  0  0  0  0  0  0  0  0  0
   -3.0201    2.7623    2.0436 C   0  0  0  0  0  0  0  0  0  0  0  0
   -1.7286    2.9877    2.8303 C   0  0  1  0  0  0  0  0  0  0  0  0
   -2.0136    3.8660    4.0465 C   0  0  2  0  0  0  0  0  0  0  0  0
   -2.6035    5.2040    3.5983 C   0  0  1  0  0  0  0  0  0  0  0  0
   -3.8779    4.9711    2.7874 C   0  0  1  0  0  0  0  0  0  0  0  0
   -4.8661    3.8820    0.8448 N   0  3  0  0  0  0  0  0  0  0  0  0
   -1.1303    1.6801    3.2048 N   0  3  0  0  0  0  0  0  0  0  0  0
   -2.8933    6.0075    4.7343 O   0  0  0  0  0  0  0  0  0  0  0  0
   -4.4188    6.2325    2.3548 O   0  0  0  0  0  0  0  0  0  0  0  0
   -0.4891    3.1304    5.7491 C   0  0  1  0  0  0  0  0  0  0  0  0
    0.2210    3.7786    6.9388 C   0  0  1  0  0  0  0  0  0  0  0  0
    1.5457    4.3822    6.4973 C   0  0  0  0  0  0  0  0  0  0  0  0
    2.3833    3.3103    5.8191 C   0  0  1  0  0  0  0  0  0  0  0  0
    1.5981    2.6987    4.6595 C   0  0  1  0  0  0  0  0  0  0  0  0
    2.3524    1.5764    3.9698 C   0  0  0  0  0  0  0  0  0  0  0  0
   -0.6509    4.7771    7.6015 N   0  3  0  0  0  0  0  0  0  0  0  0
    3.2911    2.1001    2.9488 N   0  3  0  0  0  0  0  0  0  0  0  0
   -0.8008    4.0895    4.7946 O   0  0  0  0  0  0  0  0  0  0  0  0
    3.5958    3.8731    5.3398 O   0  0  0  0  0  0  0  0  0  0  0  0
    0.3534    2.1450    5.1388 O   0  0  0  0  0  0  0  0  0  0  0  0
  1  2  1  0  0  0  0
  1 10  1  0  0  0  0
  1 21  1  6  0  0  0
  2  3  1  0  0  0  0
  2  7  1  6  0  0  0
  3  4  1  0  0  0  0
  3  8  1  6  0  0  0
  4  5  1  0  0  0  0
  4  9  1  6  0  0  0
  5  6  1  1  0  0  0
  5 10  1  0  0  0  0
  6 11  1  0  0  0  0
 12 13  1  0  0  0  0
 12 17  1  0  0  0  0
 12 18  1  1  0  0  0
 13 14  1  0  0  0  0
 14 15  1  0  0  0  0
 14 19  1  1  0  0  0
 15 16  1  0  0  0  0
 15 30  1  6  0  0  0
 16 17  1  0  0  0  0
 16 20  1  1  0  0  0
 17 21  1  6  0  0  0
 22 23  1  0  0  0  0
 22 30  1  6  0  0  0
 22 32  1  0  0  0  0
 23 24  1  0  0  0  0
 23 28  1  6  0  0  0
 24 25  1  0  0  0  0
 25 26  1  0  0  0  0
 25 31  1  6  0  0  0
 26 27  1  1  0  0  0
 26 32  1  0  0  0  0
 27 29  1  0  0  0  0
M  CHG  5   8   1  18   1  19   1  28   1  29   1
M  END
>  <CHROM.1>
-148.19535304,89.34194185,68.59652670,61.46135883,-160.12475746,153.09322151
-93.99554624,171.45098811,-87.07884042,-76.52627458,104.87716112,-147.05507195
174.98641345,67.14266309,-84.29962220,-25.41908579,-2.49730355,5.27460822
3.71436221,2.98736476,-0.66009317,0.86062378

>  <Name>
1tob

>  <RI>
0

>  <Rbt.Current_Directory>
/home/itssahil/PROJECTS/Mol_Feturizer/New_Systems/rnas/1tob

>  <Rbt.Executable>
rbdock ($Id: //depot/dev/client3/rdock/2013.1/src/exe/rbdock.cxx#4 $)

>  <Rbt.Library>
libRbt.so (2013.1, Build901 2013/11/27)

>  <Rbt.Parameter_File>
/export/apps/rDock/src/rDock_2013.1_src/data/scripts/dock_solv.prm

>  <Rbt.Receptor>
prm/pocket_docking_5.prm

>  <SCORE>
-37.8022

>  <SCORE.INTER>
-44.725

>  <SCORE.INTER.CONST>
1

>  <SCORE.INTER.POLAR>
-6.43719

>  <SCORE.INTER.ROT>
6

>  <SCORE.INTER.SOLV>
24.6073

>  <SCORE.INTER.VDW>
-24.1618

>  <SCORE.INTER.norm>
-1.39766

>  <SCORE.INTRA>
6.92284

>  <SCORE.INTRA.DIHEDRAL>
10.2585

>  <SCORE.INTRA.DIHEDRAL.0>
22.9177

>  <SCORE.INTRA.POLAR>
-0.361265

>  <SCORE.INTRA.POLAR.0>
-0.311208

>  <SCORE.INTRA.REPUL>
0.0044937

>  <SCORE.INTRA.REPUL.0>
0

>  <SCORE.INTRA.SOLV>
1.30642

>  <SCORE.INTRA.SOLV.lig_0>
-132.657

>  <SCORE.INTRA.VDW>
2.3462

>  <SCORE.INTRA.VDW.0>
-4.68867

>  <SCORE.INTRA.norm>
0.216339

>  <SCORE.RESTR>
0

>  <SCORE.RESTR.CAVITY>
0

>  <SCORE.RESTR.norm>
0

>  <SCORE.SYSTEM>
0

>  <SCORE.SYSTEM.CONST>
0

>  <SCORE.SYSTEM.DIHEDRAL>
0

>  <SCORE.SYSTEM.SOLV>
0

>  <SCORE.SYSTEM.norm>
0

>  <SCORE.heavy>
32

>  <SCORE.norm>
-1.18132

>  <RMSD>
8.599

$$$$
1tob
 OpenBabel11021811413D
libRbt.so/2013.1/901 2013/11/27
 32 34  0  0  0  0  0  0  0  0999 V2000
   -3.3001    6.4779    5.0480 C   0  0  2  0  0  0  0  0  0  0  0  0
   -4.2325    7.5394    5.6269 C   0  0  1  0  0  0  0  0  0  0  0  0
   -5.0688    8.1508    4.5111 C   0  0  2  0  0  0  0  0  0  0  0  0
   -4.1458    8.6965    3.4280 C   0  0  1  0  0  0  0  0  0  0  0  0
   -3.2193    7.5903    2.9308 C   0  0  1  0  0  0  0  0  0  0  0  0
   -2.2224    8.0905    1.9040 C   0  0  0  0  0  0  0  0  0  0  0  0
   -5.0861    6.9499    6.5971 O   0  0  0  0  0  0  0  0  0  0  0  0
   -5.9802    9.1907    5.0357 N   0  3  0  0  0  0  0  0  0  0  0  0
   -4.9188    9.2075    2.3503 O   0  0  0  0  0  0  0  0  0  0  0  0
   -2.4623    7.0461    4.0335 O   0  0  0  0  0  0  0  0  0  0  0  0
   -1.1238    8.7447    2.5231 O   0  0  0  0  0  0  0  0  0  0  0  0
   -3.0481    4.7354    2.3933 C   0  0  2  0  0  0  0  0  0  0  0  0
   -2.2179    3.6338    1.7487 C   0  0  0  0  0  0  0  0  0  0  0  0
   -0.8654    3.5041    2.4497 C   0  0  1  0  0  0  0  0  0  0  0  0
   -1.0802    3.1746    3.9253 C   0  0  2  0  0  0  0  0  0  0  0  0
   -1.9200    4.2677    4.5881 C   0  0  1  0  0  0  0  0  0  0  0  0
   -3.2584    4.4131    3.8648 C   0  0  1  0  0  0  0  0  0  0  0  0
   -4.3710    4.8434    1.7403 N   0  3  0  0  0  0  0  0  0  0  0  0
   -0.0334    2.4855    1.7582 N   0  3  0  0  0  0  0  0  0  0  0  0
   -2.1412    3.9435    5.9541 O   0  0  0  0  0  0  0  0  0  0  0  0
   -4.0368    5.4539    4.4827 O   0  0  0  0  0  0  0  0  0  0  0  0
    0.7628    4.2418    5.0335 C   0  0  1  0  0  0  0  0  0  0  0  0
    2.2863    4.1106    5.0745 C   0  0  1  0  0  0  0  0  0  0  0  0
    2.6971    3.0484    6.0831 C   0  0  0  0  0  0  0  0  0  0  0  0
    2.0942    3.3838    7.4375 C   0  0  1  0  0  0  0  0  0  0  0  0
    0.5775    3.5192    7.3080 C   0  0  1  0  0  0  0  0  0  0  0  0
   -0.0883    3.9122    8.6143 C   0  0  0  0  0  0  0  0  0  0  0  0
    2.8351    3.8371    3.7253 N   0  3  0  0  0  0  0  0  0  0  0  0
    0.1083    5.3510    8.9126 N   0  3  0  0  0  0  0  0  0  0  0  0
    0.1896    3.0542    4.5986 O   0  0  0  0  0  0  0  0  0  0  0  0
    2.4115    2.3657    8.3754 O   0  0  0  0  0  0  0  0  0  0  0  0
    0.2500    4.5379    6.3383 O   0  0  0  0  0  0  0  0  0  0  0  0
  1  2  1  0  0  0  0
  1 10  1  0  0  0  0
  1 21  1  6  0  0  0
  2  3  1  0  0  0  0
  2  7  1  1  0  0  0
  3  4  1  0  0  0  0
  3  8  1  1  0  0  0
  4  5  1  0  0  0  0
  4  9  1  6  0  0  0
  5  6  1  6  0  0  0
  5 10  1  0  0  0  0
  6 11  1  0  0  0  0
 12 13  1  0  0  0  0
 12 17  1  0  0  0  0
 12 18  1  6  0  0  0
 13 14  1  0  0  0  0
 14 15  1  0  0  0  0
 14 19  1  6  0  0  0
 15 16  1  0  0  0  0
 15 30  1  1  0  0  0
 16 17  1  0  0  0  0
 16 20  1  1  0  0  0
 17 21  1  1  0  0  0
 22 23  1  0  0  0  0
 22 30  1  1  0  0  0
 22 32  1  0  0  0  0
 23 24  1  0  0  0  0
 23 28  1  6  0  0  0
 24 25  1  0  0  0  0
 25 26  1  0  0  0  0
 25 31  1  1  0  0  0
 26 27  1  1  0  0  0
 26 32  1  0  0  0  0
 27 29  1  0  0  0  0
M  CHG  5   8   1  18   1  19   1  28   1  29   1
M  END
>  <CHROM.1>
178.08629107,176.16829809,-56.11914461,95.50621215,80.28012199,-175.97977834
161.25606042,-165.79495330,83.78491597,94.98528935,-91.50447102,-152.03412416
161.69054404,-60.62668233,76.26023077,59.61514491,-1.59192957,5.32366375
4.64514619,2.89914336,0.69745187,-1.74414150

>  <Name>
1tob

>  <RI>
0

>  <Rbt.Current_Directory>
/home/itssahil/PROJECTS/Mol_Feturizer/New_Systems/rnas/1tob

>  <Rbt.Executable>
rbdock ($Id: //depot/dev/client3/rdock/2013.1/src/exe/rbdock.cxx#4 $)

>  <Rbt.Library>
libRbt.so (2013.1, Build901 2013/11/27)

>  <Rbt.Parameter_File>
/export/apps/rDock/src/rDock_2013.1_src/data/scripts/dock_solv.prm

>  <Rbt.Receptor>
prm/blind_docking_40.prm

>  <SCORE>
-10.9841

>  <SCORE.INTER>
-27.1112

>  <SCORE.INTER.CONST>
1

>  <SCORE.INTER.POLAR>
-5.73714

>  <SCORE.INTER.ROT>
6

>  <SCORE.INTER.SOLV>
36.3548

>  <SCORE.INTER.VDW>
-18.6686

>  <SCORE.INTER.norm>
-0.847225

>  <SCORE.INTRA>
6.04934

>  <SCORE.INTRA.DIHEDRAL>
0.262195

>  <SCORE.INTRA.DIHEDRAL.0>
22.9177

>  <SCORE.INTRA.POLAR>
-0.327142

>  <SCORE.INTRA.POLAR.0>
-0.311208

>  <SCORE.INTRA.REPUL>
0.00818568

>  <SCORE.INTRA.REPUL.0>
0

>  <SCORE.INTRA.SOLV>
-0.200612

>  <SCORE.INTRA.SOLV.lig_0>
-132.657

>  <SCORE.INTRA.VDW>
7.0899

>  <SCORE.INTRA.VDW.0>
-4.68867

>  <SCORE.INTRA.norm>
0.189042

>  <SCORE.RESTR>
10.0778

>  <SCORE.RESTR.CAVITY>
10.0778

>  <SCORE.RESTR.norm>
0.314931

>  <SCORE.SYSTEM>
0

>  <SCORE.SYSTEM.CONST>
0

>  <SCORE.SYSTEM.DIHEDRAL>
0

>  <SCORE.SYSTEM.SOLV>
0

>  <SCORE.SYSTEM.norm>
0

>  <SCORE.heavy>
32

>  <SCORE.norm>
-0.343253

>  <RMSD>
8.603

$$$$
1tob
 OpenBabel11021811413D
libRbt.so/2013.1/901 2013/11/27
 32 34  0  0  0  0  0  0  0  0999 V2000
   -4.1647    6.8628    2.9390 C   0  0  2  0  0  0  0  0  0  0  0  0
   -4.4647    7.9293    3.9897 C   0  0  1  0  0  0  0  0  0  0  0  0
   -5.9085    8.3926    3.8523 C   0  0  2  0  0  0  0  0  0  0  0  0
   -6.1512    8.8763    2.4276 C   0  0  1  0  0  0  0  0  0  0  0  0
   -5.7901    7.7729    1.4369 C   0  0  1  0  0  0  0  0  0  0  0  0
   -5.9373    8.2202   -0.0042 C   0  0  0  0  0  0  0  0  0  0  0  0
   -4.2550    7.3946    5.2888 O   0  0  0  0  0  0  0  0  0  0  0  0
   -6.2325    9.4334    4.8518 N   0  3  0  0  0  0  0  0  0  0  0  0
   -7.5145    9.2464    2.2711 O   0  0  0  0  0  0  0  0  0  0  0  0
   -4.4155    7.3715    1.6228 O   0  0  0  0  0  0  0  0  0  0  0  0
   -5.9587    7.1115   -0.8921 O   0  0  0  0  0  0  0  0  0  0  0  0
   -4.1677    4.3198    1.3644 C   0  0  2  0  0  0  0  0  0  0  0  0
   -3.4978    2.9819    1.0827 C   0  0  0  0  0  0  0  0  0  0  0  0
   -2.1363    2.9097    1.7746 C   0  0  1  0  0  0  0  0  0  0  0  0
   -2.3158    3.0753    3.2820 C   0  0  2  0  0  0  0  0  0  0  0  0
   -2.9954    4.4119    3.5837 C   0  0  1  0  0  0  0  0  0  0  0  0
   -4.3422    4.4905    2.8656 C   0  0  1  0  0  0  0  0  0  0  0  0
   -5.5000    4.3825    0.7245 N   0  3  0  0  0  0  0  0  0  0  0  0
   -1.4575    1.6355    1.4227 N   0  3  0  0  0  0  0  0  0  0  0  0
   -3.1860    4.5499    4.9854 O   0  0  0  0  0  0  0  0  0  0  0  0
   -4.9688    5.7565    3.1401 O   0  0  0  0  0  0  0  0  0  0  0  0
   -0.4198    4.2327    4.1927 C   0  0  1  0  0  0  0  0  0  0  0  0
    0.9561    4.2746    3.5256 C   0  0  1  0  0  0  0  0  0  0  0  0
    1.8651    3.2116    4.1241 C   0  0  0  0  0  0  0  0  0  0  0  0
    1.9308    3.3994    5.6310 C   0  0  1  0  0  0  0  0  0  0  0  0
    0.5197    3.3672    6.2171 C   0  0  1  0  0  0  0  0  0  0  0  0
    0.5033    3.6077    7.7158 C   0  0  0  0  0  0  0  0  0  0  0  0
    0.8403    4.1418    2.0541 N   0  3  0  0  0  0  0  0  0  0  0  0
   -0.2214    2.5301    8.4308 N   0  3  0  0  0  0  0  0  0  0  0  0
   -1.0367    3.0135    3.9457 O   0  0  0  0  0  0  0  0  0  0  0  0
    2.7210    2.3734    6.2137 O   0  0  0  0  0  0  0  0  0  0  0  0
   -0.2942    4.3945    5.6109 O   0  0  0  0  0  0  0  0  0  0  0  0
  1  2  1  0  0  0  0
  1 10  1  0  0  0  0
  1 21  1  1  0  0  0
  2  3  1  0  0  0  0
  2  7  1  1  0  0  0
  3  4  1  0  0  0  0
  3  8  1  1  0  0  0
  4  5  1  0  0  0  0
  4  9  1  1  0  0  0
  5  6  1  6  0  0  0
  5 10  1  0  0  0  0
  6 11  1  0  0  0  0
 12 13  1  0  0  0  0
 12 17  1  0  0  0  0
 12 18  1  6  0  0  0
 13 14  1  0  0  0  0
 14 15  1  0  0  0  0
 14 19  1  1  0  0  0
 15 16  1  0  0  0  0
 15 30  1  1  0  0  0
 16 17  1  0  0  0  0
 16 20  1  1  0  0  0
 17 21  1  6  0  0  0
 22 23  1  0  0  0  0
 22 30  1  1  0  0  0
 22 32  1  0  0  0  0
 23 24  1  0  0  0  0
 23 28  1  6  0  0  0
 24 25  1  0  0  0  0
 25 26  1  0  0  0  0
 25 31  1  1  0  0  0
 26 27  1  1  0  0  0
 26 32  1  0  0  0  0
 27 29  1  0  0  0  0
M  CHG  5   8   1  18   1  19   1  28   1  29   1
M  END
>  <CHROM.1>
-143.69655322,80.01160474,-98.78597219,178.71531086,-163.97237793,-61.62470927
162.73076726,-102.11939336,94.57632413,-176.56629693,-72.04051196,-121.78102646
70.51174066,177.92514583,-126.48091410,159.05577722,-2.76710810,5.17887126
3.43883976,3.04619907,0.71175486,-2.05043344

>  <Name>
1tob

>  <RI>
0

>  <Rbt.Current_Directory>
/home/itssahil/PROJECTS/Mol_Feturizer/New_Systems/rnas/1tob

>  <Rbt.Executable>
rbdock ($Id: //depot/dev/client3/rdock/2013.1/src/exe/rbdock.cxx#4 $)

>  <Rbt.Library>
libRbt.so (2013.1, Build901 2013/11/27)

>  <Rbt.Parameter_File>
/export/apps/rDock/src/rDock_2013.1_src/data/scripts/dock_solv.prm

>  <Rbt.Receptor>
prm/pocket_docking_4.prm

>  <SCORE>
-39.7498

>  <SCORE.INTER>
-49.6453

>  <SCORE.INTER.CONST>
1

>  <SCORE.INTER.POLAR>
-7.60728

>  <SCORE.INTER.ROT>
6

>  <SCORE.INTER.SOLV>
33.909

>  <SCORE.INTER.VDW>
-26.6422

>  <SCORE.INTER.norm>
-1.55141

>  <SCORE.INTRA>
9.89546

>  <SCORE.INTRA.DIHEDRAL>
9.43784

>  <SCORE.INTRA.DIHEDRAL.0>
22.9177

>  <SCORE.INTRA.POLAR>
-0.242285

>  <SCORE.INTRA.POLAR.0>
-0.311208

>  <SCORE.INTRA.REPUL>
0

>  <SCORE.INTRA.REPUL.0>
0

>  <SCORE.INTRA.SOLV>
0.446829

>  <SCORE.INTRA.SOLV.lig_0>
-132.657

>  <SCORE.INTRA.VDW>
5.77689

>  <SCORE.INTRA.VDW.0>
-4.68867

>  <SCORE.INTRA.norm>
0.309233

>  <SCORE.RESTR>
0

>  <SCORE.RESTR.CAVITY>
0

>  <SCORE.RESTR.norm>
0

>  <SCORE.SYSTEM>
0

>  <SCORE.SYSTEM.CONST>
0

>  <SCORE.SYSTEM.DIHEDRAL>
0

>  <SCORE.SYSTEM.SOLV>
0

>  <SCORE.SYSTEM.norm>
0

>  <SCORE.heavy>
32

>  <SCORE.norm>
-1.24218

>  <RMSD>
8.608

$$$$
1tob
 OpenBabel11021811413D
libRbt.so/2013.1/901 2013/11/27
 32 34  0  0  0  0  0  0  0  0999 V2000
   -5.1296    6.6511    2.3032 C   0  0  2  0  0  0  0  0  0  0  0  0
   -6.2977    6.2258    1.4168 C   0  0  1  0  0  0  0  0  0  0  0  0
   -6.1104    4.7790    0.9809 C   0  0  2  0  0  0  0  0  0  0  0  0
   -4.7577    4.6283    0.2953 C   0  0  1  0  0  0  0  0  0  0  0  0
   -3.6483    5.1114    1.2255 C   0  0  1  0  0  0  0  0  0  0  0  0
   -2.2821    5.0586    0.5705 C   0  0  0  0  0  0  0  0  0  0  0  0
   -7.5164    6.3556    2.1348 O   0  0  0  0  0  0  0  0  0  0  0  0
   -7.2223    4.3348    0.1129 N   0  3  0  0  0  0  0  0  0  0  0  0
   -4.5445    3.2672   -0.0537 O   0  0  0  0  0  0  0  0  0  0  0  0
   -3.8868    6.4828    1.6095 O   0  0  0  0  0  0  0  0  0  0  0  0
   -1.6036    3.8500    0.8819 O   0  0  0  0  0  0  0  0  0  0  0  0
   -4.0851    6.6713    5.5024 C   0  0  2  0  0  0  0  0  0  0  0  0
   -2.7770    6.7223    6.2798 C   0  0  0  0  0  0  0  0  0  0  0  0
   -2.2630    5.3088    6.5542 C   0  0  1  0  0  0  0  0  0  0  0  0
   -2.0350    4.5786    5.2326 C   0  0  2  0  0  0  0  0  0  0  0  0
   -3.3381    4.5246    4.4337 C   0  0  1  0  0  0  0  0  0  0  0  0
   -3.8627    5.9389    4.1880 C   0  0  1  0  0  0  0  0  0  0  0  0
   -4.5704    8.0368    5.2052 N   0  3  0  0  0  0  0  0  0  0  0  0
   -1.0328    5.3710    7.3854 N   0  3  0  0  0  0  0  0  0  0  0  0
   -3.1154    3.8691    3.1924 O   0  0  0  0  0  0  0  0  0  0  0  0
   -5.0970    5.8807    3.4505 O   0  0  0  0  0  0  0  0  0  0  0  0
   -0.2844    2.9528    4.9962 C   0  0  1  0  0  0  0  0  0  0  0  0
   -0.0848    1.4391    4.9028 C   0  0  1  0  0  0  0  0  0  0  0  0
   -0.1643    0.8103    6.2858 C   0  0  0  0  0  0  0  0  0  0  0  0
    0.8432    1.4858    7.2018 C   0  0  1  0  0  0  0  0  0  0  0  0
    0.5914    2.9930    7.2235 C   0  0  1  0  0  0  0  0  0  0  0  0
    1.6002    3.7423    8.0751 C   0  0  0  0  0  0  0  0  0  0  0  0
   -1.0522    0.8302    3.9595 N   0  3  0  0  0  0  0  0  0  0  0  0
    1.6723    3.1859    9.4473 N   0  3  0  0  0  0  0  0  0  0  0  0
   -1.5539    3.2413    5.4790 O   0  0  0  0  0  0  0  0  0  0  0  0
    0.7349    0.9575    8.5155 O   0  0  0  0  0  0  0  0  0  0  0  0
    0.6781    3.5311    5.8863 O   0  0  0  0  0  0  0  0  0  0  0  0
  1  2  1  0  0  0  0
  1 10  1  0  0  0  0
  1 21  1  1  0  0  0
  2  3  1  0  0  0  0
  2  7  1  1  0  0  0
  3  4  1  0  0  0  0
  3  8  1  6  0  0  0
  4  5  1  0  0  0  0
  4  9  1  1  0  0  0
  5  6  1  6  0  0  0
  5 10  1  0  0  0  0
  6 11  1  0  0  0  0
 12 13  1  0  0  0  0
 12 17  1  0  0  0  0
 12 18  1  6  0  0  0
 13 14  1  0  0  0  0
 14 15  1  0  0  0  0
 14 19  1  6  0  0  0
 15 16  1  0  0  0  0
 15 30  1  1  0  0  0
 16 17  1  0  0  0  0
 16 20  1  6  0  0  0
 17 21  1  1  0  0  0
 22 23  1  0  0  0  0
 22 30  1  1  0  0  0
 22 32  1  0  0  0  0
 23 24  1  0  0  0  0
 23 28  1  6  0  0  0
 24 25  1  0  0  0  0
 25 26  1  0  0  0  0
 25 31  1  1  0  0  0
 26 27  1  1  0  0  0
 26 32  1  0  0  0  0
 27 29  1  0  0  0  0
M  CHG  5   8   1  18   1  19   1  28   1  29   1
M  END
>  <CHROM.1>
164.39962780,64.26934706,154.52310219,-34.52249739,-94.82832250,-166.50417231
-67.60055892,9.65474250,-117.19568788,152.86297996,110.79112730,-161.31557840
90.20678348,-52.48929845,-53.88187728,56.39431716,-2.57871263,4.31875875
4.21166669,2.79945493,0.77924302,-2.22282924

>  <Name>
1tob

>  <RI>
0

>  <Rbt.Current_Directory>
/home/itssahil/PROJECTS/Mol_Feturizer/New_Systems/rnas/1tob

>  <Rbt.Executable>
rbdock ($Id: //depot/dev/client3/rdock/2013.1/src/exe/rbdock.cxx#4 $)

>  <Rbt.Library>
libRbt.so (2013.1, Build901 2013/11/27)

>  <Rbt.Parameter_File>
/export/apps/rDock/src/rDock_2013.1_src/data/scripts/dock_solv.prm

>  <Rbt.Receptor>
prm/blind_docking_40.prm

>  <SCORE>
25.8533

>  <SCORE.INTER>
1.4194

>  <SCORE.INTER.CONST>
1

>  <SCORE.INTER.POLAR>
-4.20571

>  <SCORE.INTER.ROT>
6

>  <SCORE.INTER.SOLV>
34.5614

>  <SCORE.INTER.VDW>
-4.15518

>  <SCORE.INTER.norm>
0.0443564

>  <SCORE.INTRA>
12.12

>  <SCORE.INTRA.DIHEDRAL>
10.9031

>  <SCORE.INTRA.DIHEDRAL.0>
22.9177

>  <SCORE.INTRA.POLAR>
-0.593681

>  <SCORE.INTRA.POLAR.0>
-0.311208

>  <SCORE.INTRA.REPUL>
0

>  <SCORE.INTRA.REPUL.0>
0

>  <SCORE.INTRA.SOLV>
3.0774

>  <SCORE.INTRA.SOLV.lig_0>
-132.657

>  <SCORE.INTRA.VDW>
7.14827

>  <SCORE.INTRA.VDW.0>
-4.68867

>  <SCORE.INTRA.norm>
0.37875

>  <SCORE.RESTR>
12.3139

>  <SCORE.RESTR.CAVITY>
12.3139

>  <SCORE.RESTR.norm>
0.38481

>  <SCORE.SYSTEM>
0

>  <SCORE.SYSTEM.CONST>
0

>  <SCORE.SYSTEM.DIHEDRAL>
0

>  <SCORE.SYSTEM.SOLV>
0

>  <SCORE.SYSTEM.norm>
0

>  <SCORE.heavy>
32

>  <SCORE.norm>
0.807916

>  <RMSD>
8.614

$$$$
1tob
 OpenBabel11021811413D
libRbt.so/2013.1/901 2013/11/27
 32 34  0  0  0  0  0  0  0  0999 V2000
   -7.1593    9.4682    2.8531 C   0  0  2  0  0  0  0  0  0  0  0  0
   -7.3516   10.6941    3.7427 C   0  0  1  0  0  0  0  0  0  0  0  0
   -8.8359   11.0101    3.8664 C   0  0  2  0  0  0  0  0  0  0  0  0
   -9.4335   11.1848    2.4753 C   0  0  1  0  0  0  0  0  0  0  0  0
   -9.1647    9.9392    1.6354 C   0  0  1  0  0  0  0  0  0  0  0  0
   -9.6690   10.0825    0.2128 C   0  0  0  0  0  0  0  0  0  0  0  0
   -6.8068   10.4423    5.0301 O   0  0  0  0  0  0  0  0  0  0  0  0
   -9.0594   12.1991    4.7171 N   0  3  0  0  0  0  0  0  0  0  0  0
  -10.8327   11.4121    2.5783 O   0  0  0  0  0  0  0  0  0  0  0  0
   -7.7446    9.6880    1.5635 O   0  0  0  0  0  0  0  0  0  0  0  0
   -8.9402   11.0727   -0.4988 O   0  0  0  0  0  0  0  0  0  0  0  0
   -7.7617    6.9425    1.4664 C   0  0  2  0  0  0  0  0  0  0  0  0
   -7.2833    5.5997    0.9314 C   0  0  0  0  0  0  0  0  0  0  0  0
   -5.7605    5.4993    1.0243 C   0  0  1  0  0  0  0  0  0  0  0  0
   -5.3230    5.6461    2.4799 C   0  0  2  0  0  0  0  0  0  0  0  0
   -5.8023    6.9874    3.0370 C   0  0  1  0  0  0  0  0  0  0  0  0
   -7.3219    7.0944    2.9144 C   0  0  1  0  0  0  0  0  0  0  0  0
   -9.2372    7.0324    1.4096 N   0  3  0  0  0  0  0  0  0  0  0  0
   -5.3007    4.2211    0.4218 N   0  3  0  0  0  0  0  0  0  0  0  0
   -5.4174    7.1083    4.3999 O   0  0  0  0  0  0  0  0  0  0  0  0
   -7.7648    8.3649    3.4250 O   0  0  0  0  0  0  0  0  0  0  0  0
   -3.3951    4.8393    3.6614 C   0  0  1  0  0  0  0  0  0  0  0  0
   -2.0746    5.4436    4.1421 C   0  0  1  0  0  0  0  0  0  0  0  0
   -1.0194    5.3406    3.0512 C   0  0  0  0  0  0  0  0  0  0  0  0
   -0.8850    3.8893    2.6198 C   0  0  1  0  0  0  0  0  0  0  0  0
   -2.2462    3.3546    2.1763 C   0  0  1  0  0  0  0  0  0  0  0  0
   -2.1996    1.8885    1.7856 C   0  0  0  0  0  0  0  0  0  0  0  0
   -2.2628    6.8396    4.6028 N   0  3  0  0  0  0  0  0  0  0  0  0
   -2.0649    1.0136    2.9747 N   0  3  0  0  0  0  0  0  0  0  0  0
   -3.8868    5.5575    2.5796 O   0  0  0  0  0  0  0  0  0  0  0  0
    0.0475    3.7845    1.5538 O   0  0  0  0  0  0  0  0  0  0  0  0
   -3.2037    3.4801    3.2500 O   0  0  0  0  0  0  0  0  0  0  0  0
  1  2  1  0  0  0  0
  1 10  1  0  0  0  0
  1 21  1  1  0  0  0
  2  3  1  0  0  0  0
  2  7  1  1  0  0  0
  3  4  1  0  0  0  0
  3  8  1  1  0  0  0
  4  5  1  0  0  0  0
  4  9  1  1  0  0  0
  5  6  1  6  0  0  0
  5 10  1  0  0  0  0
  6 11  1  0  0  0  0
 12 13  1  0  0  0  0
 12 17  1  0  0  0  0
 12 18  1  1  0  0  0
 13 14  1  0  0  0  0
 14 15  1  0  0  0  0
 14 19  1  1  0  0  0
 15 16  1  0  0  0  0
 15 30  1  6  0  0  0
 16 17  1  0  0  0  0
 16 20  1  1  0  0  0
 17 21  1  6  0  0  0
 22 23  1  0  0  0  0
 22 30  1  6  0  0  0
 22 32  1  0  0  0  0
 23 24  1  0  0  0  0
 23 28  1  6  0  0  0
 24 25  1  0  0  0  0
 25 26  1  0  0  0  0
 25 31  1  6  0  0  0
 26 27  1  1  0  0  0
 26 32  1  0  0  0  0
 27 29  1  0  0  0  0
M  CHG  5   8   1  18   1  19   1  28   1  29   1
M  END
>  <CHROM.1>
-161.90287195,-62.20303319,-48.49081488,175.16605228,66.59365474,-58.65231814
-96.91453325,-162.11222636,-139.67120757,-81.86638926,-67.23917019,-146.75690049
19.48497186,177.29965478,73.18885125,12.95982909,-5.79897959,7.11070808,2.57623258
-2.57906706,0.58162058,-2.44639260

>  <Name>
1tob

>  <RI>
0

>  <Rbt.Current_Directory>
/home/itssahil/PROJECTS/Mol_Feturizer/New_Systems/rnas/1tob

>  <Rbt.Executable>
rbdock ($Id: //depot/dev/client3/rdock/2013.1/src/exe/rbdock.cxx#4 $)

>  <Rbt.Library>
libRbt.so (2013.1, Build901 2013/11/27)

>  <Rbt.Parameter_File>
/export/apps/rDock/src/rDock_2013.1_src/data/scripts/dock_solv.prm

>  <Rbt.Receptor>
prm/pocket_docking_2.prm

>  <SCORE>
-41.7553

>  <SCORE.INTER>
-43.2666

>  <SCORE.INTER.CONST>
1

>  <SCORE.INTER.POLAR>
-7.17408

>  <SCORE.INTER.ROT>
6

>  <SCORE.INTER.SOLV>
25.9372

>  <SCORE.INTER.VDW>
-21.1765

>  <SCORE.INTER.norm>
-1.35208

>  <SCORE.INTRA>
0.507078

>  <SCORE.INTRA.DIHEDRAL>
0.907695

>  <SCORE.INTRA.DIHEDRAL.0>
22.9177

>  <SCORE.INTRA.POLAR>
-0.945428

>  <SCORE.INTRA.POLAR.0>
-0.311208

>  <SCORE.INTRA.REPUL>
0

>  <SCORE.INTRA.REPUL.0>
0

>  <SCORE.INTRA.SOLV>
0.766074

>  <SCORE.INTRA.SOLV.lig_0>
-132.657

>  <SCORE.INTRA.VDW>
2.88465

>  <SCORE.INTRA.VDW.0>
-4.68867

>  <SCORE.INTRA.norm>
0.0158462

>  <SCORE.RESTR>
1.00425

>  <SCORE.RESTR.CAVITY>
1.00425

>  <SCORE.RESTR.norm>
0.0313827

>  <SCORE.SYSTEM>
0

>  <SCORE.SYSTEM.CONST>
0

>  <SCORE.SYSTEM.DIHEDRAL>
0

>  <SCORE.SYSTEM.SOLV>
0

>  <SCORE.SYSTEM.norm>
0

>  <SCORE.heavy>
32

>  <SCORE.norm>
-1.30485

>  <RMSD>
8.614

$$$$
1tob
 OpenBabel11021811413D
libRbt.so/2013.1/901 2013/11/27
 32 34  0  0  0  0  0  0  0  0999 V2000
   -6.6230    8.6297    3.0244 C   0  0  2  0  0  0  0  0  0  0  0  0
   -8.1347    8.7832    2.8746 C   0  0  1  0  0  0  0  0  0  0  0  0
   -8.6789    7.6656    1.9954 C   0  0  2  0  0  0  0  0  0  0  0  0
   -7.9453    7.6700    0.6596 C   0  0  1  0  0  0  0  0  0  0  0  0
   -6.4415    7.5557    0.8937 C   0  0  1  0  0  0  0  0  0  0  0  0
   -5.6491    7.6321   -0.3966 C   0  0  0  0  0  0  0  0  0  0  0  0
   -8.7509    8.7297    4.1532 O   0  0  0  0  0  0  0  0  0  0  0  0
  -10.1427    7.7875    1.8222 N   0  3  0  0  0  0  0  0  0  0  0  0
   -8.3987    6.5872   -0.1416 O   0  0  0  0  0  0  0  0  0  0  0  0
   -5.9889    8.6353    1.7391 O   0  0  0  0  0  0  0  0  0  0  0  0
   -6.0024    6.5819   -1.2855 O   0  0  0  0  0  0  0  0  0  0  0  0
   -4.8136    7.3990    5.5428 C   0  0  2  0  0  0  0  0  0  0  0  0
   -3.3540    7.2202    5.9375 C   0  0  0  0  0  0  0  0  0  0  0  0
   -2.8411    5.8535    5.4831 C   0  0  1  0  0  0  0  0  0  0  0  0
   -2.9707    5.7335    3.9664 C   0  0  2  0  0  0  0  0  0  0  0  0
   -4.4308    5.9186    3.5503 C   0  0  1  0  0  0  0  0  0  0  0  0
   -4.9469    7.2738    4.0329 C   0  0  1  0  0  0  0  0  0  0  0  0
   -5.3059    8.7330    5.9507 N   0  3  0  0  0  0  0  0  0  0  0  0
   -1.4434    5.6580    5.9484 N   0  3  0  0  0  0  0  0  0  0  0  0
   -4.5432    5.8341    2.1360 O   0  0  0  0  0  0  0  0  0  0  0  0
   -6.3254    7.4349    3.6528 O   0  0  0  0  0  0  0  0  0  0  0  0
   -2.1293    4.3560    2.1892 C   0  0  1  0  0  0  0  0  0  0  0  0
   -2.5590    3.0059    1.6125 C   0  0  1  0  0  0  0  0  0  0  0  0
   -1.8350    1.8735    2.3250 C   0  0  0  0  0  0  0  0  0  0  0  0
   -0.3352    2.1050    2.2383 C   0  0  1  0  0  0  0  0  0  0  0  0
    0.0090    3.4789    2.8124 C   0  0  1  0  0  0  0  0  0  0  0  0
    1.4878    3.8038    2.7052 C   0  0  0  0  0  0  0  0  0  0  0  0
   -4.0313    2.8458    1.6683 N   0  3  0  0  0  0  0  0  0  0  0  0
    2.2988    2.9461    3.6022 N   0  3  0  0  0  0  0  0  0  0  0  0
   -2.4938    4.4454    3.5261 O   0  0  0  0  0  0  0  0  0  0  0  0
    0.3543    1.0928    2.9573 O   0  0  0  0  0  0  0  0  0  0  0  0
   -0.7076    4.5098    2.0989 O   0  0  0  0  0  0  0  0  0  0  0  0
  1  2  1  0  0  0  0
  1 10  1  0  0  0  0
  1 21  1  6  0  0  0
  2  3  1  0  0  0  0
  2  7  1  1  0  0  0
  3  4  1  0  0  0  0
  3  8  1  6  0  0  0
  4  5  1  0  0  0  0
  4  9  1  6  0  0  0
  5  6  1  6  0  0  0
  5 10  1  0  0  0  0
  6 11  1  0  0  0  0
 12 13  1  0  0  0  0
 12 17  1  0  0  0  0
 12 18  1  6  0  0  0
 13 14  1  0  0  0  0
 14 15  1  0  0  0  0
 14 19  1  6  0  0  0
 15 16  1  0  0  0  0
 15 30  1  1  0  0  0
 16 17  1  0  0  0  0
 16 20  1  6  0  0  0
 17 21  1  1  0  0  0
 22 23  1  0  0  0  0
 22 30  1  1  0  0  0
 22 32  1  0  0  0  0
 23 24  1  0  0  0  0
 23 28  1  1  0  0  0
 24 25  1  0  0  0  0
 25 26  1  0  0  0  0
 25 31  1  1  0  0  0
 26 27  1  6  0  0  0
 26 32  1  0  0  0  0
 27 29  1  0  0  0  0
M  CHG  5   8   1  18   1  19   1  28   1  29   1
M  END
>  <CHROM.1>
-170.87794761,57.60751138,-41.68955417,36.25203124,-60.43327450,-72.50720586
87.86539525,-158.10775930,-159.04441198,-57.49681287,107.49485367,-141.35758442
35.49991935,-53.04780256,-68.78112275,176.27500781,-4.19110686,5.85698363
2.78489369,-2.97034135,0.55390435,-2.08662911

>  <Name>
1tob

>  <RI>
0

>  <Rbt.Current_Directory>
/home/itssahil/PROJECTS/Mol_Feturizer/New_Systems/rnas/1tob

>  <Rbt.Executable>
rbdock ($Id: //depot/dev/client3/rdock/2013.1/src/exe/rbdock.cxx#4 $)

>  <Rbt.Library>
libRbt.so (2013.1, Build901 2013/11/27)

>  <Rbt.Parameter_File>
/export/apps/rDock/src/rDock_2013.1_src/data/scripts/dock_solv.prm

>  <Rbt.Receptor>
prm/pocket_docking_4.prm

>  <SCORE>
-57.2591

>  <SCORE.INTER>
-54.1017

>  <SCORE.INTER.CONST>
1

>  <SCORE.INTER.POLAR>
-8.08429

>  <SCORE.INTER.ROT>
6

>  <SCORE.INTER.SOLV>
32.3518

>  <SCORE.INTER.VDW>
-27.5041

>  <SCORE.INTER.norm>
-1.69068

>  <SCORE.INTRA>
-3.29812

>  <SCORE.INTRA.DIHEDRAL>
-0.23667

>  <SCORE.INTRA.DIHEDRAL.0>
22.9177

>  <SCORE.INTRA.POLAR>
-1.18165

>  <SCORE.INTRA.POLAR.0>
-0.311208

>  <SCORE.INTRA.REPUL>
0

>  <SCORE.INTRA.REPUL.0>
0

>  <SCORE.INTRA.SOLV>
-0.775848

>  <SCORE.INTRA.SOLV.lig_0>
-132.657

>  <SCORE.INTRA.VDW>
1.22575

>  <SCORE.INTRA.VDW.0>
-4.68867

>  <SCORE.INTRA.norm>
-0.103066

>  <SCORE.RESTR>
0.140655

>  <SCORE.RESTR.CAVITY>
0.140655

>  <SCORE.RESTR.norm>
0.00439548

>  <SCORE.SYSTEM>
0

>  <SCORE.SYSTEM.CONST>
0

>  <SCORE.SYSTEM.DIHEDRAL>
0

>  <SCORE.SYSTEM.SOLV>
0

>  <SCORE.SYSTEM.norm>
0

>  <SCORE.heavy>
32

>  <SCORE.norm>
-1.78935

>  <RMSD>
8.619

$$$$
1tob
 OpenBabel11021811413D
libRbt.so/2013.1/901 2013/11/27
 32 34  0  0  0  0  0  0  0  0999 V2000
   -3.2567    5.1895    3.9604 C   0  0  2  0  0  0  0  0  0  0  0  0
   -4.4126    6.1774    4.0985 C   0  0  1  0  0  0  0  0  0  0  0  0
   -5.3714    6.0117    2.9274 C   0  0  2  0  0  0  0  0  0  0  0  0
   -4.6052    6.1715    1.6198 C   0  0  1  0  0  0  0  0  0  0  0  0
   -3.4443    5.1818    1.5748 C   0  0  1  0  0  0  0  0  0  0  0  0
   -2.5954    5.3441    0.3293 C   0  0  0  0  0  0  0  0  0  0  0  0
   -5.1013    5.9419    5.3183 O   0  0  0  0  0  0  0  0  0  0  0  0
   -6.5019    6.9602    3.0249 N   0  3  0  0  0  0  0  0  0  0  0  0
   -5.4787    5.9503    0.5206 O   0  0  0  0  0  0  0  0  0  0  0  0
   -2.5784    5.3828    2.7128 O   0  0  0  0  0  0  0  0  0  0  0  0
   -2.6511    6.6740   -0.1671 O   0  0  0  0  0  0  0  0  0  0  0  0
   -2.3805    2.5587    2.5005 C   0  0  2  0  0  0  0  0  0  0  0  0
   -1.3035    1.4835    2.4534 C   0  0  0  0  0  0  0  0  0  0  0  0
   -0.0480    1.9521    3.1893 C   0  0  1  0  0  0  0  0  0  0  0  0
   -0.3897    2.2590    4.6457 C   0  0  2  0  0  0  0  0  0  0  0  0
   -1.4770    3.3326    4.7125 C   0  0  1  0  0  0  0  0  0  0  0  0
   -2.7186    2.8710    3.9501 C   0  0  1  0  0  0  0  0  0  0  0  0
   -3.6096    2.0979    1.8182 N   0  3  0  0  0  0  0  0  0  0  0  0
    1.0229    0.9297    3.0632 N   0  3  0  0  0  0  0  0  0  0  0  0
   -1.8120    3.5953    6.0685 O   0  0  0  0  0  0  0  0  0  0  0  0
   -3.7314    3.8919    4.0027 O   0  0  0  0  0  0  0  0  0  0  0  0
    1.0978    4.0538    5.2200 C   0  0  1  0  0  0  0  0  0  0  0  0
    2.5928    4.2772    5.4548 C   0  0  1  0  0  0  0  0  0  0  0  0
    2.9664    3.8919    6.8783 C   0  0  0  0  0  0  0  0  0  0  0  0
    2.0914    4.6639    7.8522 C   0  0  1  0  0  0  0  0  0  0  0  0
    0.6181    4.4058    7.5386 C   0  0  1  0  0  0  0  0  0  0  0  0
   -0.3179    5.1933    8.4375 C   0  0  0  0  0  0  0  0  0  0  0  0
    3.4054    3.5500    4.4511 N   0  3  0  0  0  0  0  0  0  0  0  0
    0.0275    5.0174    9.8684 N   0  3  0  0  0  0  0  0  0  0  0  0
    0.7870    2.7067    5.3496 O   0  0  0  0  0  0  0  0  0  0  0  0
    2.3801    4.2657    9.1845 O   0  0  0  0  0  0  0  0  0  0  0  0
    0.3250    4.7883    6.1773 O   0  0  0  0  0  0  0  0  0  0  0  0
  1  2  1  0  0  0  0
  1 10  1  0  0  0  0
  1 21  1  6  0  0  0
  2  3  1  0  0  0  0
  2  7  1  1  0  0  0
  3  4  1  0  0  0  0
  3  8  1  1  0  0  0
  4  5  1  0  0  0  0
  4  9  1  6  0  0  0
  5  6  1  6  0  0  0
  5 10  1  0  0  0  0
  6 11  1  0  0  0  0
 12 13  1  0  0  0  0
 12 17  1  0  0  0  0
 12 18  1  6  0  0  0
 13 14  1  0  0  0  0
 14 15  1  0  0  0  0
 14 19  1  1  0  0  0
 15 16  1  0  0  0  0
 15 30  1  1  0  0  0
 16 17  1  0  0  0  0
 16 20  1  1  0  0  0
 17 21  1  6  0  0  0
 22 23  1  0  0  0  0
 22 30  1  1  0  0  0
 22 32  1  0  0  0  0
 23 24  1  0  0  0  0
 23 28  1  6  0  0  0
 24 25  1  0  0  0  0
 25 26  1  0  0  0  0
 25 31  1  1  0  0  0
 26 27  1  1  0  0  0
 26 32  1  0  0  0  0
 27 29  1  0  0  0  0
M  CHG  5   8   1  18   1  19   1  28   1  29   1
M  END
>  <CHROM.1>
-176.95132682,-174.94779641,177.57168063,70.97311076,27.18551535,-158.07697462
173.99675872,-21.54290163,83.50238660,-2.77935817,-86.28749161,-155.24467587
-169.12204086,-61.17758106,-50.69803646,55.40771695,-1.47307668,4.28565235
4.34010364,2.61520359,0.52446465,-1.97782745

>  <Name>
1tob

>  <RI>
0

>  <Rbt.Current_Directory>
/home/itssahil/PROJECTS/Mol_Feturizer/New_Systems/rnas/1tob

>  <Rbt.Executable>
rbdock ($Id: //depot/dev/client3/rdock/2013.1/src/exe/rbdock.cxx#4 $)

>  <Rbt.Library>
libRbt.so (2013.1, Build901 2013/11/27)

>  <Rbt.Parameter_File>
/export/apps/rDock/src/rDock_2013.1_src/data/scripts/dock_solv.prm

>  <Rbt.Receptor>
prm/blind_docking_20.prm

>  <SCORE>
-16.9536

>  <SCORE.INTER>
-38.017

>  <SCORE.INTER.CONST>
1

>  <SCORE.INTER.POLAR>
-5.47944

>  <SCORE.INTER.ROT>
6

>  <SCORE.INTER.SOLV>
40.8024

>  <SCORE.INTER.VDW>
-28.2807

>  <SCORE.INTER.norm>
-1.18803

>  <SCORE.INTRA>
9.10076

>  <SCORE.INTRA.DIHEDRAL>
1.35617

>  <SCORE.INTRA.DIHEDRAL.0>
22.9177

>  <SCORE.INTRA.POLAR>
-0.0889403

>  <SCORE.INTRA.POLAR.0>
-0.311208

>  <SCORE.INTRA.REPUL>
0.0491864

>  <SCORE.INTRA.REPUL.0>
0

>  <SCORE.INTRA.SOLV>
1.58667

>  <SCORE.INTRA.SOLV.lig_0>
-132.657

>  <SCORE.INTRA.VDW>
7.68581

>  <SCORE.INTRA.VDW.0>
-4.68867

>  <SCORE.INTRA.norm>
0.284399

>  <SCORE.RESTR>
11.9627

>  <SCORE.RESTR.CAVITY>
11.9627

>  <SCORE.RESTR.norm>
0.373834

>  <SCORE.SYSTEM>
0

>  <SCORE.SYSTEM.CONST>
0

>  <SCORE.SYSTEM.DIHEDRAL>
0

>  <SCORE.SYSTEM.SOLV>
0

>  <SCORE.SYSTEM.norm>
0

>  <SCORE.heavy>
32

>  <SCORE.norm>
-0.529798

>  <RMSD>
8.632

$$$$
1tob
 OpenBabel11021811413D
libRbt.so/2013.1/901 2013/11/27
 32 34  0  0  0  0  0  0  0  0999 V2000
   -7.6505    7.3635    2.8631 C   0  0  2  0  0  0  0  0  0  0  0  0
   -8.3810    6.8426    1.6277 C   0  0  1  0  0  0  0  0  0  0  0  0
   -8.9835    8.0101    0.8581 C   0  0  2  0  0  0  0  0  0  0  0  0
   -9.8843    8.8166    1.7859 C   0  0  1  0  0  0  0  0  0  0  0  0
   -9.0958    9.2648    3.0133 C   0  0  1  0  0  0  0  0  0  0  0  0
   -9.9588   10.0082    4.0139 C   0  0  0  0  0  0  0  0  0  0  0  0
   -7.4715    6.1383    0.7945 O   0  0  0  0  0  0  0  0  0  0  0  0
   -9.7067    7.5408   -0.3436 N   0  3  0  0  0  0  0  0  0  0  0  0
  -10.3969    9.9477    1.0947 O   0  0  0  0  0  0  0  0  0  0  0  0
   -8.5437    8.1166    3.6932 O   0  0  0  0  0  0  0  0  0  0  0  0
  -10.9438    9.1572    4.5829 O   0  0  0  0  0  0  0  0  0  0  0  0
   -5.5658    7.9953    4.6645 C   0  0  2  0  0  0  0  0  0  0  0  0
   -4.2441    7.7189    5.3681 C   0  0  0  0  0  0  0  0  0  0  0  0
   -3.7072    6.3424    4.9751 C   0  0  1  0  0  0  0  0  0  0  0  0
   -3.4946    6.2853    3.4640 C   0  0  2  0  0  0  0  0  0  0  0  0
   -4.8116    6.5688    2.7398 C   0  0  1  0  0  0  0  0  0  0  0  0
   -5.3586    7.9329    3.1590 C   0  0  1  0  0  0  0  0  0  0  0  0
   -6.0738    9.3396    5.0154 N   0  3  0  0  0  0  0  0  0  0  0  0
   -2.4626    6.0503    5.7325 N   0  3  0  0  0  0  0  0  0  0  0  0
   -4.6038    6.5424    1.3340 O   0  0  0  0  0  0  0  0  0  0  0  0
   -6.6056    8.1865    2.4870 O   0  0  0  0  0  0  0  0  0  0  0  0
   -2.4442    4.9009    1.8075 C   0  0  1  0  0  0  0  0  0  0  0  0
   -3.0501    3.7176    1.0509 C   0  0  1  0  0  0  0  0  0  0  0  0
   -2.7055    2.4117    1.7509 C   0  0  0  0  0  0  0  0  0  0  0  0
   -1.1967    2.3081    1.9033 C   0  0  1  0  0  0  0  0  0  0  0  0
   -0.6677    3.5337    2.6473 C   0  0  1  0  0  0  0  0  0  0  0  0
    0.8439    3.5270    2.7853 C   0  0  0  0  0  0  0  0  0  0  0  0
   -4.5124    3.8863    0.8787 N   0  3  0  0  0  0  0  0  0  0  0  0
    1.4952    4.2382    1.6594 N   0  3  0  0  0  0  0  0  0  0  0  0
   -2.9920    4.9888    3.0804 O   0  0  0  0  0  0  0  0  0  0  0  0
   -0.8611    1.1265    2.6161 O   0  0  0  0  0  0  0  0  0  0  0  0
   -1.0264    4.7393    1.9378 O   0  0  0  0  0  0  0  0  0  0  0  0
  1  2  1  0  0  0  0
  1 10  1  0  0  0  0
  1 21  1  6  0  0  0
  2  3  1  0  0  0  0
  2  7  1  6  0  0  0
  3  4  1  0  0  0  0
  3  8  1  6  0  0  0
  4  5  1  0  0  0  0
  4  9  1  6  0  0  0
  5  6  1  1  0  0  0
  5 10  1  0  0  0  0
  6 11  1  0  0  0  0
 12 13  1  0  0  0  0
 12 17  1  0  0  0  0
 12 18  1  6  0  0  0
 13 14  1  0  0  0  0
 14 15  1  0  0  0  0
 14 19  1  1  0  0  0
 15 16  1  0  0  0  0
 15 30  1  1  0  0  0
 16 17  1  0  0  0  0
 16 20  1  6  0  0  0
 17 21  1  6  0  0  0
 22 23  1  0  0  0  0
 22 30  1  1  0  0  0
 22 32  1  0  0  0  0
 23 24  1  0  0  0  0
 23 28  1  1  0  0  0
 24 25  1  0  0  0  0
 25 26  1  0  0  0  0
 25 31  1  1  0  0  0
 26 27  1  6  0  0  0
 26 32  1  0  0  0  0
 27 29  1  0  0  0  0
M  CHG  5   8   1  18   1  19   1  28   1  29   1
M  END
>  <CHROM.1>
-133.59272728,174.16440587,168.07106803,-56.22404590,65.92837989,-61.85696628
37.30065883,-173.11818264,-164.54597611,171.66132496,-54.90971653,-129.56429728
-149.40395266,174.99986771,91.73289497,-59.63241960,-5.17410246,6.36547078
2.63360320,2.81165285,-0.46039904,0.94481483

>  <Name>
1tob

>  <RI>
0

>  <Rbt.Current_Directory>
/home/itssahil/PROJECTS/Mol_Feturizer/New_Systems/rnas/1tob

>  <Rbt.Executable>
rbdock ($Id: //depot/dev/client3/rdock/2013.1/src/exe/rbdock.cxx#4 $)

>  <Rbt.Library>
libRbt.so (2013.1, Build901 2013/11/27)

>  <Rbt.Parameter_File>
/export/apps/rDock/src/rDock_2013.1_src/data/scripts/dock_solv.prm

>  <Rbt.Receptor>
prm/pocket_docking_3.prm

>  <SCORE>
-49.0898

>  <SCORE.INTER>
-48.8487

>  <SCORE.INTER.CONST>
1

>  <SCORE.INTER.POLAR>
-6.84174

>  <SCORE.INTER.ROT>
6

>  <SCORE.INTER.SOLV>
33.1985

>  <SCORE.INTER.VDW>
-28.4262

>  <SCORE.INTER.norm>
-1.52652

>  <SCORE.INTRA>
-0.736224

>  <SCORE.INTRA.DIHEDRAL>
-1.55362

>  <SCORE.INTRA.DIHEDRAL.0>
22.9177

>  <SCORE.INTRA.POLAR>
-0.648847

>  <SCORE.INTRA.POLAR.0>
-0.311208

>  <SCORE.INTRA.REPUL>
0

>  <SCORE.INTRA.REPUL.0>
0

>  <SCORE.INTRA.SOLV>
0.648468

>  <SCORE.INTRA.SOLV.lig_0>
-132.657

>  <SCORE.INTRA.VDW>
1.92243

>  <SCORE.INTRA.VDW.0>
-4.68867

>  <SCORE.INTRA.norm>
-0.023007

>  <SCORE.RESTR>
0.495219

>  <SCORE.RESTR.CAVITY>
0.495219

>  <SCORE.RESTR.norm>
0.0154756

>  <SCORE.SYSTEM>
0

>  <SCORE.SYSTEM.CONST>
0

>  <SCORE.SYSTEM.DIHEDRAL>
0

>  <SCORE.SYSTEM.SOLV>
0

>  <SCORE.SYSTEM.norm>
0

>  <SCORE.heavy>
32

>  <SCORE.norm>
-1.53405

>  <RMSD>
8.633

$$$$
1tob
 OpenBabel11021811413D
libRbt.so/2013.1/901 2013/11/27
 32 34  0  0  0  0  0  0  0  0999 V2000
   -7.2000    8.6557    2.5907 C   0  0  2  0  0  0  0  0  0  0  0  0
   -8.7109    8.7510    2.3926 C   0  0  1  0  0  0  0  0  0  0  0  0
   -9.1822    7.6183    1.4909 C   0  0  2  0  0  0  0  0  0  0  0  0
   -8.4066    7.6593    0.1797 C   0  0  1  0  0  0  0  0  0  0  0  0
   -6.9078    7.6024    0.4620 C   0  0  1  0  0  0  0  0  0  0  0  0
   -6.0777    7.7173   -0.8014 C   0  0  0  0  0  0  0  0  0  0  0  0
   -9.3656    8.6659    3.6503 O   0  0  0  0  0  0  0  0  0  0  0  0
  -10.6433    7.6839    1.2708 N   0  3  0  0  0  0  0  0  0  0  0  0
   -8.7911    6.5644   -0.6408 O   0  0  0  0  0  0  0  0  0  0  0  0
   -6.5254    8.6937    1.3268 O   0  0  0  0  0  0  0  0  0  0  0  0
   -6.2078    6.5600   -1.6149 O   0  0  0  0  0  0  0  0  0  0  0  0
   -5.2766    7.5542    5.0375 C   0  0  2  0  0  0  0  0  0  0  0  0
   -3.8024    7.3812    5.3767 C   0  0  0  0  0  0  0  0  0  0  0  0
   -3.3305    5.9746    5.0073 C   0  0  1  0  0  0  0  0  0  0  0  0
   -3.5340    5.7398    3.5122 C   0  0  2  0  0  0  0  0  0  0  0  0
   -5.0096    5.9174    3.1513 C   0  0  1  0  0  0  0  0  0  0  0  0
   -5.4835    7.3147    3.5499 C   0  0  1  0  0  0  0  0  0  0  0  0
   -5.7306    8.9242    5.3623 N   0  3  0  0  0  0  0  0  0  0  0  0
   -1.9151    5.7916    5.4209 N   0  3  0  0  0  0  0  0  0  0  0  0
   -5.1905    5.7256    1.7547 O   0  0  0  0  0  0  0  0  0  0  0  0
   -6.8763    7.4698    3.2228 O   0  0  0  0  0  0  0  0  0  0  0  0
   -2.2392    4.3301    2.0631 C   0  0  1  0  0  0  0  0  0  0  0  0
   -2.6603    3.1817    1.1445 C   0  0  1  0  0  0  0  0  0  0  0  0
   -2.5457    1.8525    1.8756 C   0  0  0  0  0  0  0  0  0  0  0  0
   -1.1318    1.6956    2.4110 C   0  0  1  0  0  0  0  0  0  0  0  0
   -0.7806    2.8891    3.2984 C   0  0  1  0  0  0  0  0  0  0  0  0
    0.6425    2.8291    3.8231 C   0  0  0  0  0  0  0  0  0  0  0  0
   -4.0224    3.4025    0.6038 N   0  3  0  0  0  0  0  0  0  0  0  0
    1.6243    2.7134    2.7184 N   0  3  0  0  0  0  0  0  0  0  0  0
   -3.0963    4.4134    3.1523 O   0  0  0  0  0  0  0  0  0  0  0  0
   -1.0258    0.4906    3.1552 O   0  0  0  0  0  0  0  0  0  0  0  0
   -0.9090    4.1187    2.5520 O   0  0  0  0  0  0  0  0  0  0  0  0
  1  2  1  0  0  0  0
  1 10  1  0  0  0  0
  1 21  1  6  0  0  0
  2  3  1  0  0  0  0
  2  7  1  1  0  0  0
  3  4  1  0  0  0  0
  3  8  1  6  0  0  0
  4  5  1  0  0  0  0
  4  9  1  6  0  0  0
  5  6  1  6  0  0  0
  5 10  1  0  0  0  0
  6 11  1  0  0  0  0
 12 13  1  0  0  0  0
 12 17  1  0  0  0  0
 12 18  1  6  0  0  0
 13 14  1  0  0  0  0
 14 15  1  0  0  0  0
 14 19  1  6  0  0  0
 15 16  1  0  0  0  0
 15 30  1  1  0  0  0
 16 17  1  0  0  0  0
 16 20  1  6  0  0  0
 17 21  1  1  0  0  0
 22 23  1  0  0  0  0
 22 30  1  1  0  0  0
 22 32  1  0  0  0  0
 23 24  1  0  0  0  0
 23 28  1  1  0  0  0
 24 25  1  0  0  0  0
 25 26  1  0  0  0  0
 25 31  1  1  0  0  0
 26 27  1  6  0  0  0
 26 32  1  0  0  0  0
 27 29  1  0  0  0  0
M  CHG  5   8   1  18   1  19   1  28   1  29   1
M  END
>  <CHROM.1>
-175.68566544,61.45835805,-38.14576040,20.83056169,-69.28374067,53.03647391
9.12211538,134.93512988,-130.12782104,-59.79336934,103.66241731,-135.84011441
-24.48600452,67.35796526,55.79544875,-71.81417067,-4.71371385,5.79981534
2.43034841,-2.96461840,0.60105206,-2.13536941

>  <Name>
1tob

>  <RI>
0

>  <Rbt.Current_Directory>
/home/itssahil/PROJECTS/Mol_Feturizer/New_Systems/rnas/1tob

>  <Rbt.Executable>
rbdock ($Id: //depot/dev/client3/rdock/2013.1/src/exe/rbdock.cxx#4 $)

>  <Rbt.Library>
libRbt.so (2013.1, Build901 2013/11/27)

>  <Rbt.Parameter_File>
/export/apps/rDock/src/rDock_2013.1_src/data/scripts/dock_solv.prm

>  <Rbt.Receptor>
prm/pocket_docking_4.prm

>  <SCORE>
-48.6111

>  <SCORE.INTER>
-52.6874

>  <SCORE.INTER.CONST>
1

>  <SCORE.INTER.POLAR>
-7.50238

>  <SCORE.INTER.ROT>
6

>  <SCORE.INTER.SOLV>
31.2136

>  <SCORE.INTER.VDW>
-28.1215

>  <SCORE.INTER.norm>
-1.64648

>  <SCORE.INTRA>
4.05207

>  <SCORE.INTRA.DIHEDRAL>
12.0147

>  <SCORE.INTRA.DIHEDRAL.0>
22.9177

>  <SCORE.INTRA.POLAR>
-1.50514

>  <SCORE.INTRA.POLAR.0>
-0.311208

>  <SCORE.INTRA.REPUL>
0

>  <SCORE.INTRA.REPUL.0>
0

>  <SCORE.INTRA.SOLV>
0.706944

>  <SCORE.INTRA.SOLV.lig_0>
-132.657

>  <SCORE.INTRA.VDW>
2.80874

>  <SCORE.INTRA.VDW.0>
-4.68867

>  <SCORE.INTRA.norm>
0.126627

>  <SCORE.RESTR>
0.0242704

>  <SCORE.RESTR.CAVITY>
0.0242704

>  <SCORE.RESTR.norm>
0.00075845

>  <SCORE.SYSTEM>
0

>  <SCORE.SYSTEM.CONST>
0

>  <SCORE.SYSTEM.DIHEDRAL>
0

>  <SCORE.SYSTEM.SOLV>
0

>  <SCORE.SYSTEM.norm>
0

>  <SCORE.heavy>
32

>  <SCORE.norm>
-1.5191

>  <RMSD>
8.644

$$$$
1tob
 OpenBabel11021811413D
libRbt.so/2013.1/901 2013/11/27
 32 34  0  0  0  0  0  0  0  0999 V2000
   -7.5594    7.0400    2.8171 C   0  0  2  0  0  0  0  0  0  0  0  0
   -8.0662    6.2478    1.6143 C   0  0  1  0  0  0  0  0  0  0  0  0
   -8.6393    7.2027    0.5760 C   0  0  2  0  0  0  0  0  0  0  0  0
   -9.7203    8.0618    1.2209 C   0  0  1  0  0  0  0  0  0  0  0  0
   -9.1496    8.7872    2.4364 C   0  0  1  0  0  0  0  0  0  0  0  0
  -10.1989    9.6004    3.1684 C   0  0  0  0  0  0  0  0  0  0  0  0
   -6.9976    5.5057    1.0443 O   0  0  0  0  0  0  0  0  0  0  0  0
   -9.1476    6.4675   -0.6023 N   0  3  0  0  0  0  0  0  0  0  0  0
  -10.2130    9.0033    0.2770 O   0  0  0  0  0  0  0  0  0  0  0  0
   -8.6151    7.8310    3.3773 O   0  0  0  0  0  0  0  0  0  0  0  0
  -10.6125   10.7233    2.4029 O   0  0  0  0  0  0  0  0  0  0  0  0
   -5.4807    7.7092    4.6042 C   0  0  2  0  0  0  0  0  0  0  0  0
   -4.1485    7.4646    5.2995 C   0  0  0  0  0  0  0  0  0  0  0  0
   -3.5756    6.1062    4.8942 C   0  0  1  0  0  0  0  0  0  0  0  0
   -3.3691    6.0655    3.3818 C   0  0  2  0  0  0  0  0  0  0  0  0
   -4.6969    6.3174    2.6659 C   0  0  1  0  0  0  0  0  0  0  0  0
   -5.2794    7.6629    3.0973 C   0  0  1  0  0  0  0  0  0  0  0  0
   -6.0240    9.0364    4.9670 N   0  3  0  0  0  0  0  0  0  0  0  0
   -2.3196    5.8436    5.6437 N   0  3  0  0  0  0  0  0  0  0  0  0
   -4.4955    6.3065    1.2590 O   0  0  0  0  0  0  0  0  0  0  0  0
   -6.5362    7.8866    2.4331 O   0  0  0  0  0  0  0  0  0  0  0  0
   -2.2674    4.7284    1.7197 C   0  0  1  0  0  0  0  0  0  0  0  0
   -2.7487    3.4779    0.9817 C   0  0  1  0  0  0  0  0  0  0  0  0
   -2.2852    2.2249    1.7092 C   0  0  0  0  0  0  0  0  0  0  0  0
   -0.7749    2.2714    1.8744 C   0  0  1  0  0  0  0  0  0  0  0  0
   -0.3743    3.5563    2.5984 C   0  0  1  0  0  0  0  0  0  0  0  0
    1.1296    3.6991    2.7473 C   0  0  0  0  0  0  0  0  0  0  0  0
   -4.2189    3.5004    0.7958 N   0  3  0  0  0  0  0  0  0  0  0  0
    1.7359    4.3329    1.5521 N   0  3  0  0  0  0  0  0  0  0  0  0
   -2.8327    4.7861    2.9867 O   0  0  0  0  0  0  0  0  0  0  0  0
   -0.3326    1.1415    2.6122 O   0  0  0  0  0  0  0  0  0  0  0  0
   -0.8419    4.7079    1.8632 O   0  0  0  0  0  0  0  0  0  0  0  0
  1  2  1  0  0  0  0
  1 10  1  0  0  0  0
  1 21  1  6  0  0  0
  2  3  1  0  0  0  0
  2  7  1  6  0  0  0
  3  4  1  0  0  0  0
  3  8  1  6  0  0  0
  4  5  1  0  0  0  0
  4  9  1  6  0  0  0
  5  6  1  1  0  0  0
  5 10  1  0  0  0  0
  6 11  1  0  0  0  0
 12 13  1  0  0  0  0
 12 17  1  0  0  0  0
 12 18  1  6  0  0  0
 13 14  1  0  0  0  0
 14 15  1  0  0  0  0
 14 19  1  1  0  0  0
 15 16  1  0  0  0  0
 15 30  1  1  0  0  0
 16 17  1  0  0  0  0
 16 20  1  6  0  0  0
 17 21  1  6  0  0  0
 22 23  1  0  0  0  0
 22 30  1  1  0  0  0
 22 32  1  0  0  0  0
 23 24  1  0  0  0  0
 23 28  1  1  0  0  0
 24 25  1  0  0  0  0
 25 26  1  0  0  0  0
 25 31  1  1  0  0  0
 26 27  1  6  0  0  0
 26 32  1  0  0  0  0
 27 29  1  0  0  0  0
M  CHG  5   8   1  18   1  19   1  28   1  29   1
M  END
>  <CHROM.1>
-120.14209780,178.05913816,-68.74186621,-170.69782026,-69.49924384,-67.70759950
-88.28844139,-175.40634108,-163.43662980,-68.24693457,-54.35772381,-134.25741212
-44.78998868,55.97582976,86.23109657,-172.92613631,-4.96886811,6.11519757
2.40824579,-2.84191482,0.45284733,-2.26043396

>  <Name>
1tob

>  <RI>
0

>  <Rbt.Current_Directory>
/home/itssahil/PROJECTS/Mol_Feturizer/New_Systems/rnas/1tob

>  <Rbt.Executable>
rbdock ($Id: //depot/dev/client3/rdock/2013.1/src/exe/rbdock.cxx#4 $)

>  <Rbt.Library>
libRbt.so (2013.1, Build901 2013/11/27)

>  <Rbt.Parameter_File>
/export/apps/rDock/src/rDock_2013.1_src/data/scripts/dock_solv.prm

>  <Rbt.Receptor>
prm/pocket_docking_4.prm

>  <SCORE>
-49.6323

>  <SCORE.INTER>
-50.0325

>  <SCORE.INTER.CONST>
1

>  <SCORE.INTER.POLAR>
-7.04157

>  <SCORE.INTER.ROT>
6

>  <SCORE.INTER.SOLV>
36.8994

>  <SCORE.INTER.VDW>
-29.7829

>  <SCORE.INTER.norm>
-1.56352

>  <SCORE.INTRA>
0.400216

>  <SCORE.INTRA.DIHEDRAL>
-2.03948

>  <SCORE.INTRA.DIHEDRAL.0>
22.9177

>  <SCORE.INTRA.POLAR>
-0.189716

>  <SCORE.INTRA.POLAR.0>
-0.311208

>  <SCORE.INTRA.REPUL>
0.00238913

>  <SCORE.INTRA.REPUL.0>
0

>  <SCORE.INTRA.SOLV>
-0.021301

>  <SCORE.INTRA.SOLV.lig_0>
-132.657

>  <SCORE.INTRA.VDW>
2.06369

>  <SCORE.INTRA.VDW.0>
-4.68867

>  <SCORE.INTRA.norm>
0.0125067

>  <SCORE.RESTR>
0

>  <SCORE.RESTR.CAVITY>
0

>  <SCORE.RESTR.norm>
0

>  <SCORE.SYSTEM>
0

>  <SCORE.SYSTEM.CONST>
0

>  <SCORE.SYSTEM.DIHEDRAL>
0

>  <SCORE.SYSTEM.SOLV>
0

>  <SCORE.SYSTEM.norm>
0

>  <SCORE.heavy>
32

>  <SCORE.norm>
-1.55101

>  <RMSD>
8.647

$$$$
1tob
 OpenBabel11021811413D
libRbt.so/2013.1/901 2013/11/27
 32 34  0  0  0  0  0  0  0  0999 V2000
   -7.2165    9.2030    3.2455 C   0  0  2  0  0  0  0  0  0  0  0  0
   -8.7273    9.4105    3.3192 C   0  0  1  0  0  0  0  0  0  0  0  0
   -9.4295    8.3828    2.4423 C   0  0  2  0  0  0  0  0  0  0  0  0
   -8.8852    8.4736    1.0217 C   0  0  1  0  0  0  0  0  0  0  0  0
   -7.3691    8.2986    1.0352 C   0  0  1  0  0  0  0  0  0  0  0  0
   -6.7576    8.4559   -0.3431 C   0  0  0  0  0  0  0  0  0  0  0  0
   -9.1651    9.2720    4.6634 O   0  0  0  0  0  0  0  0  0  0  0  0
  -10.8973    8.5593    2.4839 N   0  3  0  0  0  0  0  0  0  0  0  0
   -9.4854    7.4717    0.2118 O   0  0  0  0  0  0  0  0  0  0  0  0
   -6.7638    9.2938    1.8887 O   0  0  0  0  0  0  0  0  0  0  0  0
   -5.4030    8.0285   -0.3617 O   0  0  0  0  0  0  0  0  0  0  0  0
   -5.2710    7.8192    5.5352 C   0  0  2  0  0  0  0  0  0  0  0  0
   -3.7933    7.6156    5.8407 C   0  0  0  0  0  0  0  0  0  0  0  0
   -3.3146    6.2710    5.2927 C   0  0  1  0  0  0  0  0  0  0  0  0
   -3.5271    6.2263    3.7812 C   0  0  2  0  0  0  0  0  0  0  0  0
   -5.0063    6.4372    3.4547 C   0  0  1  0  0  0  0  0  0  0  0  0
   -5.4867    7.7689    4.0305 C   0  0  1  0  0  0  0  0  0  0  0  0
   -5.7319    9.1333    6.0342 N   0  3  0  0  0  0  0  0  0  0  0  0
   -1.8951    6.0476    5.6710 N   0  3  0  0  0  0  0  0  0  0  0  0
   -5.1957    6.4229    2.0462 O   0  0  0  0  0  0  0  0  0  0  0  0
   -6.8828    7.9538    3.7344 O   0  0  0  0  0  0  0  0  0  0  0  0
   -1.8537    4.9669    2.6075 C   0  0  1  0  0  0  0  0  0  0  0  0
   -2.0259    4.5846    1.1364 C   0  0  1  0  0  0  0  0  0  0  0  0
   -2.5567    3.1637    1.0194 C   0  0  0  0  0  0  0  0  0  0  0  0
   -1.6333    2.2204    1.7730 C   0  0  1  0  0  0  0  0  0  0  0  0
   -1.4966    2.6816    3.2236 C   0  0  1  0  0  0  0  0  0  0  0  0
   -0.5396    1.8172    4.0244 C   0  0  0  0  0  0  0  0  0  0  0  0
   -2.8887    5.5599    0.4288 N   0  3  0  0  0  0  0  0  0  0  0  0
    0.8300    1.8555    3.4584 N   0  3  0  0  0  0  0  0  0  0  0  0
   -3.0830    4.9597    3.2530 O   0  0  0  0  0  0  0  0  0  0  0  0
   -2.1512    0.8987    1.7316 O   0  0  0  0  0  0  0  0  0  0  0  0
   -0.9916    4.0337    3.2701 O   0  0  0  0  0  0  0  0  0  0  0  0
  1  2  1  0  0  0  0
  1 10  1  0  0  0  0
  1 21  1  6  0  0  0
  2  3  1  0  0  0  0
  2  7  1  1  0  0  0
  3  4  1  0  0  0  0
  3  8  1  6  0  0  0
  4  5  1  0  0  0  0
  4  9  1  6  0  0  0
  5  6  1  6  0  0  0
  5 10  1  0  0  0  0
  6 11  1  0  0  0  0
 12 13  1  0  0  0  0
 12 17  1  0  0  0  0
 12 18  1  6  0  0  0
 13 14  1  0  0  0  0
 14 15  1  0  0  0  0
 14 19  1  6  0  0  0
 15 16  1  0  0  0  0
 15 30  1  1  0  0  0
 16 17  1  0  0  0  0
 16 20  1  6  0  0  0
 17 21  1  1  0  0  0
 22 23  1  0  0  0  0
 22 30  1  1  0  0  0
 22 32  1  0  0  0  0
 23 24  1  0  0  0  0
 23 28  1  1  0  0  0
 24 25  1  0  0  0  0
 25 26  1  0  0  0  0
 25 31  1  1  0  0  0
 26 27  1  1  0  0  0
 26 32  1  0  0  0  0
 27 29  1  0  0  0  0
M  CHG  5   8   1  18   1  19   1  28   1  29   1
M  END
>  <CHROM.1>
-165.02414809,66.46270188,-52.20727003,179.68191225,-168.18915571,-175.87528214
84.93618572,142.84108508,-102.70781381,-75.62585947,104.37237312,-117.18461557
61.33984445,52.25634432,61.24143772,-178.29076527,-4.83672884,6.35352792
2.82155487,-2.91764019,0.63758309,-2.00620236

>  <Name>
1tob

>  <RI>
0

>  <Rbt.Current_Directory>
/home/itssahil/PROJECTS/Mol_Feturizer/New_Systems/rnas/1tob

>  <Rbt.Executable>
rbdock ($Id: //depot/dev/client3/rdock/2013.1/src/exe/rbdock.cxx#4 $)

>  <Rbt.Library>
libRbt.so (2013.1, Build901 2013/11/27)

>  <Rbt.Parameter_File>
/export/apps/rDock/src/rDock_2013.1_src/data/scripts/dock_solv.prm

>  <Rbt.Receptor>
prm/pocket_docking_3.prm

>  <SCORE>
-42.8174

>  <SCORE.INTER>
-41.1002

>  <SCORE.INTER.CONST>
1

>  <SCORE.INTER.POLAR>
-5.54943

>  <SCORE.INTER.ROT>
6

>  <SCORE.INTER.SOLV>
30.3189

>  <SCORE.INTER.VDW>
-26.6083

>  <SCORE.INTER.norm>
-1.28438

>  <SCORE.INTRA>
-2.02974

>  <SCORE.INTRA.DIHEDRAL>
3.51717

>  <SCORE.INTRA.DIHEDRAL.0>
22.9177

>  <SCORE.INTRA.POLAR>
-1.16139

>  <SCORE.INTRA.POLAR.0>
-0.311208

>  <SCORE.INTRA.REPUL>
0

>  <SCORE.INTRA.REPUL.0>
0

>  <SCORE.INTRA.SOLV>
1.13286

>  <SCORE.INTRA.SOLV.lig_0>
-132.657

>  <SCORE.INTRA.VDW>
-0.406039

>  <SCORE.INTRA.VDW.0>
-4.68867

>  <SCORE.INTRA.norm>
-0.0634294

>  <SCORE.RESTR>
0.312568

>  <SCORE.RESTR.CAVITY>
0.312568

>  <SCORE.RESTR.norm>
0.00976775

>  <SCORE.SYSTEM>
0

>  <SCORE.SYSTEM.CONST>
0

>  <SCORE.SYSTEM.DIHEDRAL>
0

>  <SCORE.SYSTEM.SOLV>
0

>  <SCORE.SYSTEM.norm>
0

>  <SCORE.heavy>
32

>  <SCORE.norm>
-1.33804

>  <RMSD>
8.654

$$$$
1tob
 OpenBabel11021811413D
libRbt.so/2013.1/901 2013/11/27
 32 34  0  0  0  0  0  0  0  0999 V2000
   -6.7787    8.6101    3.1112 C   0  0  2  0  0  0  0  0  0  0  0  0
   -8.2977    8.7292    3.0118 C   0  0  1  0  0  0  0  0  0  0  0  0
   -8.8332    7.6735    2.0542 C   0  0  2  0  0  0  0  0  0  0  0  0
   -8.1361    7.8130    0.7062 C   0  0  1  0  0  0  0  0  0  0  0  0
   -6.6239    7.7256    0.8931 C   0  0  1  0  0  0  0  0  0  0  0  0
   -5.8689    7.9348   -0.4049 C   0  0  0  0  0  0  0  0  0  0  0  0
   -8.8776    8.5492    4.2958 O   0  0  0  0  0  0  0  0  0  0  0  0
  -10.3039    7.7645    1.9276 N   0  3  0  0  0  0  0  0  0  0  0  0
   -8.5797    6.7881   -0.1729 O   0  0  0  0  0  0  0  0  0  0  0  0
   -6.1797    8.7435    1.8160 O   0  0  0  0  0  0  0  0  0  0  0  0
   -6.1487    6.9028   -1.3402 O   0  0  0  0  0  0  0  0  0  0  0  0
   -4.8814    7.4108    5.4879 C   0  0  2  0  0  0  0  0  0  0  0  0
   -3.4132    7.2534    5.8591 C   0  0  0  0  0  0  0  0  0  0  0  0
   -2.9006    5.8755    5.4393 C   0  0  1  0  0  0  0  0  0  0  0  0
   -3.0594    5.7053    3.9301 C   0  0  2  0  0  0  0  0  0  0  0  0
   -4.5286    5.8684    3.5374 C   0  0  1  0  0  0  0  0  0  0  0  0
   -5.0437    7.2356    3.9858 C   0  0  1  0  0  0  0  0  0  0  0  0
   -5.3741    8.7546    5.8620 N   0  3  0  0  0  0  0  0  0  0  0  0
   -1.4928    5.7033    5.8827 N   0  3  0  0  0  0  0  0  0  0  0  0
   -4.6683    5.7371    2.1291 O   0  0  0  0  0  0  0  0  0  0  0  0
   -6.4304    7.3763    3.6283 O   0  0  0  0  0  0  0  0  0  0  0  0
   -2.2030    4.2874    2.1923 C   0  0  1  0  0  0  0  0  0  0  0  0
   -2.5711    2.9020    1.6583 C   0  0  1  0  0  0  0  0  0  0  0  0
   -1.8073    1.8253    2.4143 C   0  0  0  0  0  0  0  0  0  0  0  0
   -0.3177    2.1162    2.3314 C   0  0  1  0  0  0  0  0  0  0  0  0
   -0.0360    3.5217    2.8613 C   0  0  1  0  0  0  0  0  0  0  0  0
    1.4291    3.9043    2.7546 C   0  0  0  0  0  0  0  0  0  0  0  0
   -4.0359    2.6825    1.7081 N   0  3  0  0  0  0  0  0  0  0  0  0
    2.2631    3.1308    3.7053 N   0  3  0  0  0  0  0  0  0  0  0  0
   -2.5830    4.4063    3.5225 O   0  0  0  0  0  0  0  0  0  0  0  0
    0.4066    1.1583    3.0896 O   0  0  0  0  0  0  0  0  0  0  0  0
   -0.7881    4.4973    2.1078 O   0  0  0  0  0  0  0  0  0  0  0  0
  1  2  1  0  0  0  0
  1 10  1  0  0  0  0
  1 21  1  6  0  0  0
  2  3  1  0  0  0  0
  2  7  1  1  0  0  0
  3  4  1  0  0  0  0
  3  8  1  6  0  0  0
  4  5  1  0  0  0  0
  4  9  1  6  0  0  0
  5  6  1  6  0  0  0
  5 10  1  0  0  0  0
  6 11  1  0  0  0  0
 12 13  1  0  0  0  0
 12 17  1  0  0  0  0
 12 18  1  6  0  0  0
 13 14  1  0  0  0  0
 14 15  1  0  0  0  0
 14 19  1  6  0  0  0
 15 16  1  0  0  0  0
 15 30  1  1  0  0  0
 16 17  1  0  0  0  0
 16 20  1  6  0  0  0
 17 21  1  1  0  0  0
 22 23  1  0  0  0  0
 22 30  1  1  0  0  0
 22 32  1  0  0  0  0
 23 24  1  0  0  0  0
 23 28  1  1  0  0  0
 24 25  1  0  0  0  0
 25 26  1  0  0  0  0
 25 31  1  1  0  0  0
 26 27  1  6  0  0  0
 26 32  1  0  0  0  0
 27 29  1  0  0  0  0
M  CHG  5   8   1  18   1  19   1  28   1  29   1
M  END
>  <CHROM.1>
-169.63086900,169.46176674,-51.10645812,-18.49390474,-64.29888764,-85.40136024
84.82018118,131.68809159,-157.01020500,175.25038236,100.19270907,-144.10140393
-83.78784470,-50.07522476,-69.90972475,176.00591154,-4.28923988,5.87937819
2.80674030,-2.98344585,0.55166071,-2.07816272

>  <Name>
1tob

>  <RI>
0

>  <Rbt.Current_Directory>
/home/itssahil/PROJECTS/Mol_Feturizer/New_Systems/rnas/1tob

>  <Rbt.Executable>
rbdock ($Id: //depot/dev/client3/rdock/2013.1/src/exe/rbdock.cxx#4 $)

>  <Rbt.Library>
libRbt.so (2013.1, Build901 2013/11/27)

>  <Rbt.Parameter_File>
/export/apps/rDock/src/rDock_2013.1_src/data/scripts/dock_solv.prm

>  <Rbt.Receptor>
prm/pocket_docking_4.prm

>  <SCORE>
-53.0091

>  <SCORE.INTER>
-55.2855

>  <SCORE.INTER.CONST>
1

>  <SCORE.INTER.POLAR>
-8.41413

>  <SCORE.INTER.ROT>
6

>  <SCORE.INTER.SOLV>
32.4665

>  <SCORE.INTER.VDW>
-27.232

>  <SCORE.INTER.norm>
-1.72767

>  <SCORE.INTRA>
2.22398

>  <SCORE.INTRA.DIHEDRAL>
6.2119

>  <SCORE.INTRA.DIHEDRAL.0>
22.9177

>  <SCORE.INTRA.POLAR>
-0.786439

>  <SCORE.INTRA.POLAR.0>
-0.311208

>  <SCORE.INTRA.REPUL>
0

>  <SCORE.INTRA.REPUL.0>
0

>  <SCORE.INTRA.SOLV>
-0.682396

>  <SCORE.INTRA.SOLV.lig_0>
-132.657

>  <SCORE.INTRA.VDW>
2.13312

>  <SCORE.INTRA.VDW.0>
-4.68867

>  <SCORE.INTRA.norm>
0.0694993

>  <SCORE.RESTR>
0.0523978

>  <SCORE.RESTR.CAVITY>
0.0523978

>  <SCORE.RESTR.norm>
0.00163743

>  <SCORE.SYSTEM>
0

>  <SCORE.SYSTEM.CONST>
0

>  <SCORE.SYSTEM.DIHEDRAL>
0

>  <SCORE.SYSTEM.SOLV>
0

>  <SCORE.SYSTEM.norm>
0

>  <SCORE.heavy>
32

>  <SCORE.norm>
-1.65653

>  <RMSD>
8.658

$$$$
1tob
 OpenBabel11021811413D
libRbt.so/2013.1/901 2013/11/27
 32 34  0  0  0  0  0  0  0  0999 V2000
   -3.8743    6.7346    3.6559 C   0  0  2  0  0  0  0  0  0  0  0  0
   -3.9815    7.7924    4.7517 C   0  0  1  0  0  0  0  0  0  0  0  0
   -5.4415    8.1740    4.9549 C   0  0  2  0  0  0  0  0  0  0  0  0
   -6.0345    8.6305    3.6273 C   0  0  1  0  0  0  0  0  0  0  0  0
   -5.8519    7.5397    2.5756 C   0  0  1  0  0  0  0  0  0  0  0  0
   -6.3540    7.9650    1.2097 C   0  0  0  0  0  0  0  0  0  0  0  0
   -3.4468    7.2821    5.9646 O   0  0  0  0  0  0  0  0  0  0  0  0
   -5.5824    9.2045    6.0064 N   0  3  0  0  0  0  0  0  0  0  0  0
   -7.4154    8.9233    3.7929 O   0  0  0  0  0  0  0  0  0  0  0  0
   -4.4515    7.2165    2.4358 O   0  0  0  0  0  0  0  0  0  0  0  0
   -5.3649    8.6943    0.4972 O   0  0  0  0  0  0  0  0  0  0  0  0
   -4.1495    4.2723    2.0409 C   0  0  2  0  0  0  0  0  0  0  0  0
   -3.5357    2.9739    1.5353 C   0  0  0  0  0  0  0  0  0  0  0  0
   -2.0498    2.9115    1.8898 C   0  0  1  0  0  0  0  0  0  0  0  0
   -1.8785    2.9928    3.4051 C   0  0  2  0  0  0  0  0  0  0  0  0
   -2.4970    4.2884    3.9323 C   0  0  1  0  0  0  0  0  0  0  0  0
   -3.9749    4.3590    3.5493 C   0  0  1  0  0  0  0  0  0  0  0  0
   -5.5948    4.3234    1.7296 N   0  3  0  0  0  0  0  0  0  0  0  0
   -1.4449    1.6808    1.3176 N   0  3  0  0  0  0  0  0  0  0  0  0
   -2.3605    4.3472    5.3458 O   0  0  0  0  0  0  0  0  0  0  0  0
   -4.5468    5.5875    4.0338 O   0  0  0  0  0  0  0  0  0  0  0  0
    0.1336    4.1609    3.9970 C   0  0  1  0  0  0  0  0  0  0  0  0
    1.6176    4.0912    3.6323 C   0  0  1  0  0  0  0  0  0  0  0  0
    2.3300    3.0759    4.5131 C   0  0  0  0  0  0  0  0  0  0  0  0
    2.0941    3.4265    5.9732 C   0  0  1  0  0  0  0  0  0  0  0  0
    0.5930    3.4979    6.2508 C   0  0  1  0  0  0  0  0  0  0  0  0
    0.2811    3.9022    7.6802 C   0  0  0  0  0  0  0  0  0  0  0  0
    1.7999    3.8006    2.1905 N   0  3  0  0  0  0  0  0  0  0  0  0
    0.6256    2.8237    8.6372 N   0  3  0  0  0  0  0  0  0  0  0  0
   -0.4795    2.9394    3.7517 O   0  0  0  0  0  0  0  0  0  0  0  0
    2.6956    2.4494    6.8101 O   0  0  0  0  0  0  0  0  0  0  0  0
   -0.0268    4.4744    5.3860 O   0  0  0  0  0  0  0  0  0  0  0  0
  1  2  1  0  0  0  0
  1 10  1  0  0  0  0
  1 21  1  1  0  0  0
  2  3  1  0  0  0  0
  2  7  1  1  0  0  0
  3  4  1  0  0  0  0
  3  8  1  1  0  0  0
  4  5  1  0  0  0  0
  4  9  1  1  0  0  0
  5  6  1  6  0  0  0
  5 10  1  0  0  0  0
  6 11  1  0  0  0  0
 12 13  1  0  0  0  0
 12 17  1  0  0  0  0
 12 18  1  1  0  0  0
 13 14  1  0  0  0  0
 14 15  1  0  0  0  0
 14 19  1  1  0  0  0
 15 16  1  0  0  0  0
 15 30  1  6  0  0  0
 16 17  1  0  0  0  0
 16 20  1  1  0  0  0
 17 21  1  6  0  0  0
 22 23  1  0  0  0  0
 22 30  1  1  0  0  0
 22 32  1  0  0  0  0
 23 24  1  0  0  0  0
 23 28  1  6  0  0  0
 24 25  1  0  0  0  0
 25 26  1  0  0  0  0
 25 31  1  1  0  0  0
 26 27  1  1  0  0  0
 26 32  1  0  0  0  0
 27 29  1  0  0  0  0
M  CHG  5   8   1  18   1  19   1  28   1  29   1
M  END
>  <CHROM.1>
-147.22025673,169.02543992,-157.90238970,174.25575028,84.86244788,-170.02280545
-91.05960196,155.31024048,98.19796782,162.14478316,-68.66088963,-150.46007181
37.75094237,-57.72549951,-70.52619353,64.17818896,-2.45330727,5.15315986
3.98673740,-3.10773797,0.65075287,-2.07397184

>  <Name>
1tob

>  <RI>
0

>  <Rbt.Current_Directory>
/home/itssahil/PROJECTS/Mol_Feturizer/New_Systems/rnas/1tob

>  <Rbt.Executable>
rbdock ($Id: //depot/dev/client3/rdock/2013.1/src/exe/rbdock.cxx#4 $)

>  <Rbt.Library>
libRbt.so (2013.1, Build901 2013/11/27)

>  <Rbt.Parameter_File>
/export/apps/rDock/src/rDock_2013.1_src/data/scripts/dock_solv.prm

>  <Rbt.Receptor>
prm/pocket_docking_8.prm

>  <SCORE>
-41.7199

>  <SCORE.INTER>
-44.6373

>  <SCORE.INTER.CONST>
1

>  <SCORE.INTER.POLAR>
-6.21082

>  <SCORE.INTER.ROT>
6

>  <SCORE.INTER.SOLV>
41.038

>  <SCORE.INTER.VDW>
-30.3348

>  <SCORE.INTER.norm>
-1.39492

>  <SCORE.INTRA>
2.91737

>  <SCORE.INTRA.DIHEDRAL>
0.562692

>  <SCORE.INTRA.DIHEDRAL.0>
22.9177

>  <SCORE.INTRA.POLAR>
-1.08318

>  <SCORE.INTRA.POLAR.0>
-0.311208

>  <SCORE.INTRA.REPUL>
0

>  <SCORE.INTRA.REPUL.0>
0

>  <SCORE.INTRA.SOLV>
-0.367156

>  <SCORE.INTRA.SOLV.lig_0>
-132.657

>  <SCORE.INTRA.VDW>
6.50242

>  <SCORE.INTRA.VDW.0>
-4.68867

>  <SCORE.INTRA.norm>
0.0911679

>  <SCORE.RESTR>
0

>  <SCORE.RESTR.CAVITY>
0

>  <SCORE.RESTR.norm>
0

>  <SCORE.SYSTEM>
0

>  <SCORE.SYSTEM.CONST>
0

>  <SCORE.SYSTEM.DIHEDRAL>
0

>  <SCORE.SYSTEM.SOLV>
0

>  <SCORE.SYSTEM.norm>
0

>  <SCORE.heavy>
32

>  <SCORE.norm>
-1.30375

>  <RMSD>
8.662

$$$$
1tob
 OpenBabel11021811413D
libRbt.so/2013.1/901 2013/11/27
 32 34  0  0  0  0  0  0  0  0999 V2000
   -6.7667    8.8341    2.9517 C   0  0  2  0  0  0  0  0  0  0  0  0
   -7.9660    9.6104    3.4905 C   0  0  1  0  0  0  0  0  0  0  0  0
   -9.2103    8.7346    3.4357 C   0  0  2  0  0  0  0  0  0  0  0  0
   -9.4159    8.2364    2.0102 C   0  0  1  0  0  0  0  0  0  0  0  0
   -8.1629    7.5098    1.5292 C   0  0  1  0  0  0  0  0  0  0  0  0
   -8.2766    7.0560    0.0871 C   0  0  0  0  0  0  0  0  0  0  0  0
   -7.7175   10.0060    4.8318 O   0  0  0  0  0  0  0  0  0  0  0  0
  -10.3954    9.4587    3.9442 N   0  3  0  0  0  0  0  0  0  0  0  0
  -10.5358    7.3625    1.9632 O   0  0  0  0  0  0  0  0  0  0  0  0
   -7.0191    8.3872    1.6135 O   0  0  0  0  0  0  0  0  0  0  0  0
   -8.0601    5.6574   -0.0354 O   0  0  0  0  0  0  0  0  0  0  0  0
   -4.9486    7.5914    5.5775 C   0  0  2  0  0  0  0  0  0  0  0  0
   -3.4839    7.3514    5.9169 C   0  0  0  0  0  0  0  0  0  0  0  0
   -3.0366    5.9788    5.4133 C   0  0  1  0  0  0  0  0  0  0  0  0
   -3.2219    5.9007    3.8996 C   0  0  2  0  0  0  0  0  0  0  0  0
   -4.6876    6.1476    3.5390 C   0  0  1  0  0  0  0  0  0  0  0  0
   -5.1375    7.5081    4.0706 C   0  0  1  0  0  0  0  0  0  0  0  0
   -5.3781    8.9317    6.0333 N   0  3  0  0  0  0  0  0  0  0  0  0
   -1.6320    5.7226    5.8250 N   0  3  0  0  0  0  0  0  0  0  0  0
   -4.8509    6.1019    2.1278 O   0  0  0  0  0  0  0  0  0  0  0  0
   -6.5214    7.7272    3.7426 O   0  0  0  0  0  0  0  0  0  0  0  0
   -2.6054    4.5092    2.0429 C   0  0  1  0  0  0  0  0  0  0  0  0
   -3.4226    3.3503    1.4693 C   0  0  1  0  0  0  0  0  0  0  0  0
   -2.9535    2.0301    2.0620 C   0  0  0  0  0  0  0  0  0  0  0  0
   -1.4600    1.8770    1.8246 C   0  0  1  0  0  0  0  0  0  0  0  0
   -0.7190    3.0809    2.4054 C   0  0  1  0  0  0  0  0  0  0  0  0
    0.7767    3.0246    2.1530 C   0  0  0  0  0  0  0  0  0  0  0  0
   -4.8741    3.5670    1.6755 N   0  3  0  0  0  0  0  0  0  0  0  0
    1.2948    4.3257    1.6668 N   0  3  0  0  0  0  0  0  0  0  0  0
   -2.8072    4.6077    3.4131 O   0  0  0  0  0  0  0  0  0  0  0  0
   -0.9923    0.6813    2.4314 O   0  0  0  0  0  0  0  0  0  0  0  0
   -1.2073    4.3013    1.8075 O   0  0  0  0  0  0  0  0  0  0  0  0
  1  2  1  0  0  0  0
  1 10  1  0  0  0  0
  1 21  1  1  0  0  0
  2  3  1  0  0  0  0
  2  7  1  1  0  0  0
  3  4  1  0  0  0  0
  3  8  1  6  0  0  0
  4  5  1  0  0  0  0
  4  9  1  1  0  0  0
  5  6  1  6  0  0  0
  5 10  1  0  0  0  0
  6 11  1  0  0  0  0
 12 13  1  0  0  0  0
 12 17  1  0  0  0  0
 12 18  1  6  0  0  0
 13 14  1  0  0  0  0
 14 15  1  0  0  0  0
 14 19  1  6  0  0  0
 15 16  1  0  0  0  0
 15 30  1  1  0  0  0
 16 17  1  0  0  0  0
 16 20  1  6  0  0  0
 17 21  1  1  0  0  0
 22 23  1  0  0  0  0
 22 30  1  1  0  0  0
 22 32  1  0  0  0  0
 23 24  1  0  0  0  0
 23 28  1  1  0  0  0
 24 25  1  0  0  0  0
 25 26  1  0  0  0  0
 25 31  1  1  0  0  0
 26 27  1  6  0  0  0
 26 32  1  0  0  0  0
 27 29  1  0  0  0  0
M  CHG  5   8   1  18   1  19   1  28   1  29   1
M  END
>  <CHROM.1>
-135.48784022,171.14088952,176.94283180,-58.53867534,-124.04810182,72.34922475
78.94898386,95.23984688,-164.50332077,-57.50828274,118.14985556,-126.39361358
51.11802382,-54.79971856,133.86082414,140.10110309,-4.87518142,6.10459504
2.96738275,-2.69010820,0.43999556,-2.31777733

>  <Name>
1tob

>  <RI>
0

>  <Rbt.Current_Directory>
/home/itssahil/PROJECTS/Mol_Feturizer/New_Systems/rnas/1tob

>  <Rbt.Executable>
rbdock ($Id: //depot/dev/client3/rdock/2013.1/src/exe/rbdock.cxx#4 $)

>  <Rbt.Library>
libRbt.so (2013.1, Build901 2013/11/27)

>  <Rbt.Parameter_File>
/export/apps/rDock/src/rDock_2013.1_src/data/scripts/dock_solv.prm

>  <Rbt.Receptor>
prm/pocket_docking_8.prm

>  <SCORE>
-47.9692

>  <SCORE.INTER>
-53.1588

>  <SCORE.INTER.CONST>
1

>  <SCORE.INTER.POLAR>
-7.20751

>  <SCORE.INTER.ROT>
6

>  <SCORE.INTER.SOLV>
40.6621

>  <SCORE.INTER.VDW>
-32.5682

>  <SCORE.INTER.norm>
-1.66121

>  <SCORE.INTRA>
5.18962

>  <SCORE.INTRA.DIHEDRAL>
15.7719

>  <SCORE.INTRA.DIHEDRAL.0>
22.9177

>  <SCORE.INTRA.POLAR>
-1.15692

>  <SCORE.INTRA.POLAR.0>
-0.311208

>  <SCORE.INTRA.REPUL>
0

>  <SCORE.INTRA.REPUL.0>
0

>  <SCORE.INTRA.SOLV>
0.338204

>  <SCORE.INTRA.SOLV.lig_0>
-132.657

>  <SCORE.INTRA.VDW>
1.06809

>  <SCORE.INTRA.VDW.0>
-4.68867

>  <SCORE.INTRA.norm>
0.162176

>  <SCORE.RESTR>
0

>  <SCORE.RESTR.CAVITY>
0

>  <SCORE.RESTR.norm>
0

>  <SCORE.SYSTEM>
0

>  <SCORE.SYSTEM.CONST>
0

>  <SCORE.SYSTEM.DIHEDRAL>
0

>  <SCORE.SYSTEM.SOLV>
0

>  <SCORE.SYSTEM.norm>
0

>  <SCORE.heavy>
32

>  <SCORE.norm>
-1.49904

>  <RMSD>
8.678

$$$$
1tob
 OpenBabel11021811413D
libRbt.so/2013.1/901 2013/11/27
 32 34  0  0  0  0  0  0  0  0999 V2000
   -6.5678    8.8626    1.5860 C   0  0  2  0  0  0  0  0  0  0  0  0
   -7.9334    9.5448    1.5585 C   0  0  1  0  0  0  0  0  0  0  0  0
   -9.0050    8.5319    1.1786 C   0  0  2  0  0  0  0  0  0  0  0  0
   -8.6380    7.8815   -0.1498 C   0  0  1  0  0  0  0  0  0  0  0  0
   -7.2472    7.2601   -0.0561 C   0  0  1  0  0  0  0  0  0  0  0  0
   -6.7921    6.6625   -1.3731 C   0  0  0  0  0  0  0  0  0  0  0  0
   -8.2225   10.0907    2.8375 O   0  0  0  0  0  0  0  0  0  0  0  0
  -10.3427    9.1611    1.1349 N   0  3  0  0  0  0  0  0  0  0  0  0
   -9.5970    6.8853   -0.4786 O   0  0  0  0  0  0  0  0  0  0  0  0
   -6.2799    8.2659    0.3151 O   0  0  0  0  0  0  0  0  0  0  0  0
   -7.5868    5.5427   -1.7370 O   0  0  0  0  0  0  0  0  0  0  0  0
   -5.4477    7.6851    4.6952 C   0  0  2  0  0  0  0  0  0  0  0  0
   -4.0974    7.4562    5.3603 C   0  0  0  0  0  0  0  0  0  0  0  0
   -3.5086    6.1137    4.9262 C   0  0  1  0  0  0  0  0  0  0  0  0
   -3.3322    6.0955    3.4095 C   0  0  2  0  0  0  0  0  0  0  0  0
   -4.6787    6.3322    2.7238 C   0  0  1  0  0  0  0  0  0  0  0  0
   -5.2763    7.6614    3.1841 C   0  0  1  0  0  0  0  0  0  0  0  0
   -6.0073    8.9976    5.0858 N   0  3  0  0  0  0  0  0  0  0  0  0
   -2.2331    5.8646    5.6468 N   0  3  0  0  0  0  0  0  0  0  0  0
   -4.5058    6.3425    1.3131 O   0  0  0  0  0  0  0  0  0  0  0  0
   -6.5502    7.8703    2.5482 O   0  0  0  0  0  0  0  0  0  0  0  0
   -2.2268    4.8037    1.7145 C   0  0  1  0  0  0  0  0  0  0  0  0
   -2.6507    3.5309    0.9797 C   0  0  1  0  0  0  0  0  0  0  0  0
   -2.1158    2.3027    1.7007 C   0  0  0  0  0  0  0  0  0  0  0  0
   -0.6083    2.4267    1.8504 C   0  0  1  0  0  0  0  0  0  0  0  0
   -0.2668    3.7299    2.5720 C   0  0  1  0  0  0  0  0  0  0  0  0
    1.2292    3.9498    2.7056 C   0  0  0  0  0  0  0  0  0  0  0  0
   -4.1219    3.4778    0.8090 N   0  3  0  0  0  0  0  0  0  0  0  0
    1.8397    2.9762    3.6421 N   0  3  0  0  0  0  0  0  0  0  0  0
   -2.7811    4.8312    2.9872 O   0  0  0  0  0  0  0  0  0  0  0  0
   -0.1008    1.3204    2.5820 O   0  0  0  0  0  0  0  0  0  0  0  0
   -0.8006    4.8566    1.8433 O   0  0  0  0  0  0  0  0  0  0  0  0
  1  2  1  0  0  0  0
  1 10  1  0  0  0  0
  1 21  1  1  0  0  0
  2  3  1  0  0  0  0
  2  7  1  1  0  0  0
  3  4  1  0  0  0  0
  3  8  1  6  0  0  0
  4  5  1  0  0  0  0
  4  9  1  1  0  0  0
  5  6  1  6  0  0  0
  5 10  1  0  0  0  0
  6 11  1  0  0  0  0
 12 13  1  0  0  0  0
 12 17  1  0  0  0  0
 12 18  1  1  0  0  0
 13 14  1  0  0  0  0
 14 15  1  0  0  0  0
 14 19  1  1  0  0  0
 15 16  1  0  0  0  0
 15 30  1  6  0  0  0
 16 17  1  0  0  0  0
 16 20  1  6  0  0  0
 17 21  1  6  0  0  0
 22 23  1  0  0  0  0
 22 30  1  1  0  0  0
 22 32  1  0  0  0  0
 23 24  1  0  0  0  0
 23 28  1  1  0  0  0
 24 25  1  0  0  0  0
 25 26  1  0  0  0  0
 25 31  1  1  0  0  0
 26 27  1  6  0  0  0
 26 32  1  0  0  0  0
 27 29  1  0  0  0  0
M  CHG  5   8   1  18   1  19   1  28   1  29   1
M  END
>  <CHROM.1>
-147.68506900,66.47816275,-51.20683743,-54.15460529,-66.47166908,-178.29745806
-78.08906630,68.30435175,-162.71198440,-59.42853890,128.95768223,-136.57306389
76.53714914,-52.04492022,-68.77817294,53.90343291,-4.59382882,6.15752413
2.09573860,-2.98708964,0.57807530,-2.18599316

>  <Name>
1tob

>  <RI>
0

>  <Rbt.Current_Directory>
/home/itssahil/PROJECTS/Mol_Feturizer/New_Systems/rnas/1tob

>  <Rbt.Executable>
rbdock ($Id: //depot/dev/client3/rdock/2013.1/src/exe/rbdock.cxx#4 $)

>  <Rbt.Library>
libRbt.so (2013.1, Build901 2013/11/27)

>  <Rbt.Parameter_File>
/export/apps/rDock/src/rDock_2013.1_src/data/scripts/dock_solv.prm

>  <Rbt.Receptor>
prm/pocket_docking_4.prm

>  <SCORE>
-52.5967

>  <SCORE.INTER>
-48.751

>  <SCORE.INTER.CONST>
1

>  <SCORE.INTER.POLAR>
-6.54715

>  <SCORE.INTER.ROT>
6

>  <SCORE.INTER.SOLV>
24.1923

>  <SCORE.INTER.VDW>
-26.3409

>  <SCORE.INTER.norm>
-1.52347

>  <SCORE.INTRA>
-3.84572

>  <SCORE.INTRA.DIHEDRAL>
-1.96856

>  <SCORE.INTRA.DIHEDRAL.0>
22.9177

>  <SCORE.INTRA.POLAR>
-0.511391

>  <SCORE.INTRA.POLAR.0>
-0.311208

>  <SCORE.INTRA.REPUL>
0

>  <SCORE.INTRA.REPUL.0>
0

>  <SCORE.INTRA.SOLV>
-0.951289

>  <SCORE.INTRA.SOLV.lig_0>
-132.657

>  <SCORE.INTRA.VDW>
-0.647063

>  <SCORE.INTRA.VDW.0>
-4.68867

>  <SCORE.INTRA.norm>
-0.120179

>  <SCORE.RESTR>
0

>  <SCORE.RESTR.CAVITY>
0

>  <SCORE.RESTR.norm>
0

>  <SCORE.SYSTEM>
0

>  <SCORE.SYSTEM.CONST>
0

>  <SCORE.SYSTEM.DIHEDRAL>
0

>  <SCORE.SYSTEM.SOLV>
0

>  <SCORE.SYSTEM.norm>
0

>  <SCORE.heavy>
32

>  <SCORE.norm>
-1.64365

>  <RMSD>
8.684

$$$$
1tob
 OpenBabel11021811413D
libRbt.so/2013.1/901 2013/11/27
 32 34  0  0  0  0  0  0  0  0999 V2000
   -6.7133    8.4068    2.4891 C   0  0  2  0  0  0  0  0  0  0  0  0
   -8.2278    8.5964    2.4520 C   0  0  1  0  0  0  0  0  0  0  0  0
   -8.8628    7.4901    1.6206 C   0  0  2  0  0  0  0  0  0  0  0  0
   -8.2312    7.4734    0.2338 C   0  0  1  0  0  0  0  0  0  0  0  0
   -6.7173    7.3234    0.3555 C   0  0  1  0  0  0  0  0  0  0  0  0
   -6.0219    7.3773   -0.9907 C   0  0  0  0  0  0  0  0  0  0  0  0
   -8.7479    8.5611    3.7733 O   0  0  0  0  0  0  0  0  0  0  0  0
  -10.3321    7.6469    1.5567 N   0  3  0  0  0  0  0  0  0  0  0  0
   -8.7690    6.3999   -0.5266 O   0  0  0  0  0  0  0  0  0  0  0  0
   -6.1770    8.3938    1.1601 O   0  0  0  0  0  0  0  0  0  0  0  0
   -6.0807    8.6804   -1.5533 O   0  0  0  0  0  0  0  0  0  0  0  0
   -5.0235    7.3340    5.0869 C   0  0  2  0  0  0  0  0  0  0  0  0
   -3.5921    7.2190    5.5929 C   0  0  0  0  0  0  0  0  0  0  0  0
   -3.0197    5.8389    5.2682 C   0  0  1  0  0  0  0  0  0  0  0  0
   -3.0392    5.6162    3.7576 C   0  0  2  0  0  0  0  0  0  0  0  0
   -4.4697    5.7361    3.2300 C   0  0  1  0  0  0  0  0  0  0  0  0
   -5.0470    7.1064    3.5833 C   0  0  1  0  0  0  0  0  0  0  0  0
   -5.5714    8.6788    5.3690 N   0  3  0  0  0  0  0  0  0  0  0  0
   -1.6547    5.7104    5.8412 N   0  3  0  0  0  0  0  0  0  0  0  0
   -4.4799    5.5560    1.8202 O   0  0  0  0  0  0  0  0  0  0  0  0
   -6.3983    7.2068    3.0987 O   0  0  0  0  0  0  0  0  0  0  0  0
   -1.9773    4.1691    2.1632 C   0  0  1  0  0  0  0  0  0  0  0  0
   -2.2315    2.7532    1.6433 C   0  0  1  0  0  0  0  0  0  0  0  0
   -1.5149    1.7342    2.5165 C   0  0  0  0  0  0  0  0  0  0  0  0
   -0.0374    2.0842    2.5851 C   0  0  1  0  0  0  0  0  0  0  0  0
    0.1307    3.5165    3.0908 C   0  0  1  0  0  0  0  0  0  0  0  0
    1.5830    3.9564    3.1298 C   0  0  0  0  0  0  0  0  0  0  0  0
   -3.6835    2.4744    1.5420 N   0  3  0  0  0  0  0  0  0  0  0  0
    2.2273    3.8209    1.8015 N   0  3  0  0  0  0  0  0  0  0  0  0
   -2.5053    4.3147    3.4392 O   0  0  0  0  0  0  0  0  0  0  0  0
    0.6351    1.1823    3.4518 O   0  0  0  0  0  0  0  0  0  0  0  0
   -0.5706    4.4352    2.2251 O   0  0  0  0  0  0  0  0  0  0  0  0
  1  2  1  0  0  0  0
  1 10  1  0  0  0  0
  1 21  1  6  0  0  0
  2  3  1  0  0  0  0
  2  7  1  1  0  0  0
  3  4  1  0  0  0  0
  3  8  1  6  0  0  0
  4  5  1  0  0  0  0
  4  9  1  6  0  0  0
  5  6  1  6  0  0  0
  5 10  1  0  0  0  0
  6 11  1  0  0  0  0
 12 13  1  0  0  0  0
 12 17  1  0  0  0  0
 12 18  1  6  0  0  0
 13 14  1  0  0  0  0
 14 15  1  0  0  0  0
 14 19  1  6  0  0  0
 15 16  1  0  0  0  0
 15 30  1  1  0  0  0
 16 17  1  0  0  0  0
 16 20  1  6  0  0  0
 17 21  1  1  0  0  0
 22 23  1  0  0  0  0
 22 30  1  1  0  0  0
 22 32  1  0  0  0  0
 23 24  1  0  0  0  0
 23 28  1  1  0  0  0
 24 25  1  0  0  0  0
 25 26  1  0  0  0  0
 25 31  1  1  0  0  0
 26 27  1  6  0  0  0
 26 32  1  0  0  0  0
 27 29  1  0  0  0  0
M  CHG  5   8   1  18   1  19   1  28   1  29   1
M  END
>  <CHROM.1>
-160.64460858,-55.49332800,-176.43893998,-24.73927213,69.46981543,-56.19558971
167.62405846,109.07857812,-155.58278009,173.61259282,101.29212936,-145.75838691
36.56854287,69.46665893,56.37044357,151.12878171,-4.24137364,5.83615814,2.50549638
-3.07835632,0.56059799,-1.98561033

>  <Name>
1tob

>  <RI>
0

>  <Rbt.Current_Directory>
/home/itssahil/PROJECTS/Mol_Feturizer/New_Systems/rnas/1tob

>  <Rbt.Executable>
rbdock ($Id: //depot/dev/client3/rdock/2013.1/src/exe/rbdock.cxx#4 $)

>  <Rbt.Library>
libRbt.so (2013.1, Build901 2013/11/27)

>  <Rbt.Parameter_File>
/export/apps/rDock/src/rDock_2013.1_src/data/scripts/dock_solv.prm

>  <Rbt.Receptor>
prm/pocket_docking_4.prm

>  <SCORE>
-51.7231

>  <SCORE.INTER>
-53.9727

>  <SCORE.INTER.CONST>
1

>  <SCORE.INTER.POLAR>
-8.11267

>  <SCORE.INTER.ROT>
6

>  <SCORE.INTER.SOLV>
37.6924

>  <SCORE.INTER.VDW>
-29.1037

>  <SCORE.INTER.norm>
-1.68665

>  <SCORE.INTRA>
2.12231

>  <SCORE.INTRA.DIHEDRAL>
3.68229

>  <SCORE.INTRA.DIHEDRAL.0>
22.9177

>  <SCORE.INTRA.POLAR>
-0.117611

>  <SCORE.INTRA.POLAR.0>
-0.311208

>  <SCORE.INTRA.REPUL>
0

>  <SCORE.INTRA.REPUL.0>
0

>  <SCORE.INTRA.SOLV>
-1.07677

>  <SCORE.INTRA.SOLV.lig_0>
-132.657

>  <SCORE.INTRA.VDW>
1.21943

>  <SCORE.INTRA.VDW.0>
-4.68867

>  <SCORE.INTRA.norm>
0.0663222

>  <SCORE.RESTR>
0.127303

>  <SCORE.RESTR.CAVITY>
0.127303

>  <SCORE.RESTR.norm>
0.00397822

>  <SCORE.SYSTEM>
0

>  <SCORE.SYSTEM.CONST>
0

>  <SCORE.SYSTEM.DIHEDRAL>
0

>  <SCORE.SYSTEM.SOLV>
0

>  <SCORE.SYSTEM.norm>
0

>  <SCORE.heavy>
32

>  <SCORE.norm>
-1.61635

>  <RMSD>
8.689

$$$$
1tob
 OpenBabel11021811413D
libRbt.so/2013.1/901 2013/11/27
 32 34  0  0  0  0  0  0  0  0999 V2000
   -3.2701    6.6976    3.1595 C   0  0  2  0  0  0  0  0  0  0  0  0
   -3.8974    7.9039    3.8541 C   0  0  1  0  0  0  0  0  0  0  0  0
   -5.1777    8.3025    3.1328 C   0  0  2  0  0  0  0  0  0  0  0  0
   -4.8714    8.5559    1.6615 C   0  0  1  0  0  0  0  0  0  0  0  0
   -4.2101    7.3238    1.0499 C   0  0  1  0  0  0  0  0  0  0  0  0
   -3.8102    7.5414   -0.3962 C   0  0  0  0  0  0  0  0  0  0  0  0
   -4.1903    7.5801    5.2058 O   0  0  0  0  0  0  0  0  0  0  0  0
   -5.8096    9.4750    3.7755 N   0  3  0  0  0  0  0  0  0  0  0  0
   -6.0727    8.8615    0.9661 O   0  0  0  0  0  0  0  0  0  0  0  0
   -3.0100    6.9921    1.7813 O   0  0  0  0  0  0  0  0  0  0  0  0
   -4.9351    7.4757   -1.2612 O   0  0  0  0  0  0  0  0  0  0  0  0
   -3.1272    3.9131    1.8181 C   0  0  2  0  0  0  0  0  0  0  0  0
   -2.4385    2.5555    1.8455 C   0  0  0  0  0  0  0  0  0  0  0  0
   -1.1716    2.6162    2.6992 C   0  0  1  0  0  0  0  0  0  0  0  0
   -1.5312    3.0272    4.1252 C   0  0  2  0  0  0  0  0  0  0  0  0
   -2.2319    4.3867    4.1164 C   0  0  1  0  0  0  0  0  0  0  0  0
   -3.4811    4.3282    3.2378 C   0  0  1  0  0  0  0  0  0  0  0  0
   -4.3716    3.8521    1.0204 N   0  3  0  0  0  0  0  0  0  0  0  0
   -0.4650    1.3099    2.6484 N   0  3  0  0  0  0  0  0  0  0  0  0
   -2.5899    4.7528    5.4422 O   0  0  0  0  0  0  0  0  0  0  0  0
   -4.1265    5.6142    3.2204 O   0  0  0  0  0  0  0  0  0  0  0  0
    0.3742    4.2799    4.8762 C   0  0  1  0  0  0  0  0  0  0  0  0
    1.7838    4.0200    4.3419 C   0  0  1  0  0  0  0  0  0  0  0  0
    2.5499    3.1139    5.2939 C   0  0  0  0  0  0  0  0  0  0  0  0
    2.5468    3.7302    6.6833 C   0  0  1  0  0  0  0  0  0  0  0  0
    1.1079    3.9783    7.1347 C   0  0  1  0  0  0  0  0  0  0  0  0
    1.0287    4.6485    8.4943 C   0  0  0  0  0  0  0  0  0  0  0  0
    1.7403    3.4704    2.9662 N   0  3  0  0  0  0  0  0  0  0  0  0
   -0.3349    5.1612    8.7685 N   0  3  0  0  0  0  0  0  0  0  0  0
   -0.3424    3.0923    4.9395 O   0  0  0  0  0  0  0  0  0  0  0  0
    3.1995    2.8636    7.5999 O   0  0  0  0  0  0  0  0  0  0  0  0
    0.4332    4.8409    6.1934 O   0  0  0  0  0  0  0  0  0  0  0  0
  1  2  1  0  0  0  0
  1 10  1  0  0  0  0
  1 21  1  6  0  0  0
  2  3  1  0  0  0  0
  2  7  1  1  0  0  0
  3  4  1  0  0  0  0
  3  8  1  1  0  0  0
  4  5  1  0  0  0  0
  4  9  1  6  0  0  0
  5  6  1  6  0  0  0
  5 10  1  0  0  0  0
  6 11  1  0  0  0  0
 12 13  1  0  0  0  0
 12 17  1  0  0  0  0
 12 18  1  6  0  0  0
 13 14  1  0  0  0  0
 14 15  1  0  0  0  0
 14 19  1  1  0  0  0
 15 16  1  0  0  0  0
 15 30  1  1  0  0  0
 16 17  1  0  0  0  0
 16 20  1  1  0  0  0
 17 21  1  6  0  0  0
 22 23  1  0  0  0  0
 22 30  1  1  0  0  0
 22 32  1  0  0  0  0
 23 24  1  0  0  0  0
 23 28  1  6  0  0  0
 24 25  1  0  0  0  0
 25 26  1  0  0  0  0
 25 31  1  1  0  0  0
 26 27  1  1  0  0  0
 26 32  1  0  0  0  0
 27 29  1  0  0  0  0
M  CHG  5   8   1  18   1  19   1  28   1  29   1
M  END
>  <CHROM.1>
-150.33000685,-64.50205307,40.57640435,-170.52142595,-76.50597403,-77.41245033
155.18232551,85.84591785,84.20605881,172.10617616,-82.32474713,-118.53820616
162.29436187,65.46409904,166.72019384,-179.03641107,-1.92838689,5.20971093
3.76065232,2.94189955,0.76280445,-2.13700798

>  <Name>
1tob

>  <RI>
0

>  <Rbt.Current_Directory>
/home/itssahil/PROJECTS/Mol_Feturizer/New_Systems/rnas/1tob

>  <Rbt.Executable>
rbdock ($Id: //depot/dev/client3/rdock/2013.1/src/exe/rbdock.cxx#4 $)

>  <Rbt.Library>
libRbt.so (2013.1, Build901 2013/11/27)

>  <Rbt.Parameter_File>
/export/apps/rDock/src/rDock_2013.1_src/data/scripts/dock_solv.prm

>  <Rbt.Receptor>
prm/pocket_docking_8.prm

>  <SCORE>
-44.5063

>  <SCORE.INTER>
-47.8246

>  <SCORE.INTER.CONST>
1

>  <SCORE.INTER.POLAR>
-6.48679

>  <SCORE.INTER.ROT>
6

>  <SCORE.INTER.SOLV>
28.6876

>  <SCORE.INTER.VDW>
-27.423

>  <SCORE.INTER.norm>
-1.49452

>  <SCORE.INTRA>
3.31828

>  <SCORE.INTRA.DIHEDRAL>
0.718341

>  <SCORE.INTRA.DIHEDRAL.0>
22.9177

>  <SCORE.INTRA.POLAR>
-0.609263

>  <SCORE.INTRA.POLAR.0>
-0.311208

>  <SCORE.INTRA.REPUL>
0

>  <SCORE.INTRA.REPUL.0>
0

>  <SCORE.INTRA.SOLV>
1.86346

>  <SCORE.INTRA.SOLV.lig_0>
-132.657

>  <SCORE.INTRA.VDW>
4.09887

>  <SCORE.INTRA.VDW.0>
-4.68867

>  <SCORE.INTRA.norm>
0.103696

>  <SCORE.RESTR>
0

>  <SCORE.RESTR.CAVITY>
0

>  <SCORE.RESTR.norm>
0

>  <SCORE.SYSTEM>
0

>  <SCORE.SYSTEM.CONST>
0

>  <SCORE.SYSTEM.DIHEDRAL>
0

>  <SCORE.SYSTEM.SOLV>
0

>  <SCORE.SYSTEM.norm>
0

>  <SCORE.heavy>
32

>  <SCORE.norm>
-1.39082

>  <RMSD>
8.694

$$$$
1tob
 OpenBabel11021811413D
libRbt.so/2013.1/901 2013/11/27
 32 34  0  0  0  0  0  0  0  0999 V2000
   -4.4001    8.5316    3.2510 C   0  0  2  0  0  0  0  0  0  0  0  0
   -5.3207    8.9959    4.3772 C   0  0  1  0  0  0  0  0  0  0  0  0
   -6.6695    9.4048    3.8011 C   0  0  2  0  0  0  0  0  0  0  0  0
   -6.4603   10.4664    2.7278 C   0  0  1  0  0  0  0  0  0  0  0  0
   -5.4991    9.9449    1.6632 C   0  0  1  0  0  0  0  0  0  0  0  0
   -5.1897   10.9858    0.6052 C   0  0  0  0  0  0  0  0  0  0  0  0
   -5.4995    7.9439    5.3146 O   0  0  0  0  0  0  0  0  0  0  0  0
   -7.5860    9.8682    4.8653 N   0  3  0  0  0  0  0  0  0  0  0  0
   -7.7077   10.8044    2.1364 O   0  0  0  0  0  0  0  0  0  0  0  0
   -4.2453    9.5662    2.2714 O   0  0  0  0  0  0  0  0  0  0  0  0
   -4.4756   12.0853    1.1522 O   0  0  0  0  0  0  0  0  0  0  0  0
   -3.0929    6.7903    1.1865 C   0  0  2  0  0  0  0  0  0  0  0  0
   -2.0919    5.6808    0.8942 C   0  0  0  0  0  0  0  0  0  0  0  0
   -1.2403    5.3902    2.1302 C   0  0  1  0  0  0  0  0  0  0  0  0
   -2.1412    4.9634    3.2870 C   0  0  2  0  0  0  0  0  0  0  0  0
   -3.1595    6.0637    3.5898 C   0  0  1  0  0  0  0  0  0  0  0  0
   -3.9877    6.3707    2.3425 C   0  0  1  0  0  0  0  0  0  0  0  0
   -3.9421    7.0532    0.0040 N   0  3  0  0  0  0  0  0  0  0  0  0
   -0.2127    4.3667    1.8065 N   0  3  0  0  0  0  0  0  0  0  0  0
   -4.0139    5.6514    4.6482 O   0  0  0  0  0  0  0  0  0  0  0  0
   -4.9325    7.4177    2.6292 O   0  0  0  0  0  0  0  0  0  0  0  0
   -1.7561    3.6105    5.2325 C   0  0  1  0  0  0  0  0  0  0  0  0
   -0.7935    3.4030    6.4031 C   0  0  1  0  0  0  0  0  0  0  0  0
    0.5953    3.0555    5.8886 C   0  0  0  0  0  0  0  0  0  0  0  0
    0.5024    1.8439    4.9754 C   0  0  1  0  0  0  0  0  0  0  0  0
   -0.4917    2.1221    3.8485 C   0  0  1  0  0  0  0  0  0  0  0  0
   -0.6801    0.9303    2.9274 C   0  0  0  0  0  0  0  0  0  0  0  0
   -0.7753    4.5862    7.2954 N   0  3  0  0  0  0  0  0  0  0  0  0
   -1.7069   -0.0027    3.4496 N   0  3  0  0  0  0  0  0  0  0  0  0
   -1.3487    4.6906    4.4609 O   0  0  0  0  0  0  0  0  0  0  0  0
    1.7804    1.5471    4.4319 O   0  0  0  0  0  0  0  0  0  0  0  0
   -1.7874    2.4467    4.3972 O   0  0  0  0  0  0  0  0  0  0  0  0
  1  2  1  0  0  0  0
  1 10  1  0  0  0  0
  1 21  1  6  0  0  0
  2  3  1  0  0  0  0
  2  7  1  1  0  0  0
  3  4  1  0  0  0  0
  3  8  1  1  0  0  0
  4  5  1  0  0  0  0
  4  9  1  6  0  0  0
  5  6  1  6  0  0  0
  5 10  1  0  0  0  0
  6 11  1  0  0  0  0
 12 13  1  0  0  0  0
 12 17  1  0  0  0  0
 12 18  1  6  0  0  0
 13 14  1  0  0  0  0
 14 15  1  0  0  0  0
 14 19  1  6  0  0  0
 15 16  1  0  0  0  0
 15 30  1  1  0  0  0
 16 17  1  0  0  0  0
 16 20  1  1  0  0  0
 17 21  1  1  0  0  0
 22 23  1  0  0  0  0
 22 30  1  6  0  0  0
 22 32  1  0  0  0  0
 23 24  1  0  0  0  0
 23 28  1  6  0  0  0
 24 25  1  0  0  0  0
 25 26  1  0  0  0  0
 25 31  1  6  0  0  0
 26 27  1  6  0  0  0
 26 32  1  0  0  0  0
 27 29  1  0  0  0  0
M  CHG  5   8   1  18   1  19   1  28   1  29   1
M  END
>  <CHROM.1>
-136.61689363,40.40218105,-145.74483529,169.98716420,65.60259369,-57.68102311
157.74537843,-76.61500182,-141.49234177,-80.99438412,-72.99515821,177.51455487
79.57997177,176.59728568,85.66297377,-12.56417468,-3.09478422,6.15071231
3.38119567,2.68120195,0.88048811,-1.24651003

>  <Name>
1tob

>  <RI>
0

>  <Rbt.Current_Directory>
/home/itssahil/PROJECTS/Mol_Feturizer/New_Systems/rnas/1tob

>  <Rbt.Executable>
rbdock ($Id: //depot/dev/client3/rdock/2013.1/src/exe/rbdock.cxx#4 $)

>  <Rbt.Library>
libRbt.so (2013.1, Build901 2013/11/27)

>  <Rbt.Parameter_File>
/export/apps/rDock/src/rDock_2013.1_src/data/scripts/dock_solv.prm

>  <Rbt.Receptor>
prm/pocket_docking_4.prm

>  <SCORE>
-42.9756

>  <SCORE.INTER>
-45.0664

>  <SCORE.INTER.CONST>
1

>  <SCORE.INTER.POLAR>
-7.70782

>  <SCORE.INTER.ROT>
6

>  <SCORE.INTER.SOLV>
34.1481

>  <SCORE.INTER.VDW>
-23.3343

>  <SCORE.INTER.norm>
-1.40833

>  <SCORE.INTRA>
2.09079

>  <SCORE.INTRA.DIHEDRAL>
3.2519

>  <SCORE.INTRA.DIHEDRAL.0>
22.9177

>  <SCORE.INTRA.POLAR>
-0.345275

>  <SCORE.INTRA.POLAR.0>
-0.311208

>  <SCORE.INTRA.REPUL>
0

>  <SCORE.INTRA.REPUL.0>
0

>  <SCORE.INTRA.SOLV>
-1.69383

>  <SCORE.INTRA.SOLV.lig_0>
-132.657

>  <SCORE.INTRA.VDW>
2.48568

>  <SCORE.INTRA.VDW.0>
-4.68867

>  <SCORE.INTRA.norm>
0.065337

>  <SCORE.RESTR>
0

>  <SCORE.RESTR.CAVITY>
0

>  <SCORE.RESTR.norm>
0

>  <SCORE.SYSTEM>
0

>  <SCORE.SYSTEM.CONST>
0

>  <SCORE.SYSTEM.DIHEDRAL>
0

>  <SCORE.SYSTEM.SOLV>
0

>  <SCORE.SYSTEM.norm>
0

>  <SCORE.heavy>
32

>  <SCORE.norm>
-1.34299

>  <RMSD>
8.697

$$$$
1tob
 OpenBabel11021811413D
libRbt.so/2013.1/901 2013/11/27
 32 34  0  0  0  0  0  0  0  0999 V2000
   -5.6826    8.1720    3.1096 C   0  0  2  0  0  0  0  0  0  0  0  0
   -7.1679    8.3361    2.7964 C   0  0  1  0  0  0  0  0  0  0  0  0
   -7.6257    7.2106    1.8788 C   0  0  2  0  0  0  0  0  0  0  0  0
   -6.7531    7.1897    0.6296 C   0  0  1  0  0  0  0  0  0  0  0  0
   -5.2842    7.0661    1.0253 C   0  0  1  0  0  0  0  0  0  0  0  0
   -4.3573    7.1173   -0.1733 C   0  0  0  0  0  0  0  0  0  0  0  0
   -7.9182    8.3061    4.0020 O   0  0  0  0  0  0  0  0  0  0  0  0
   -9.0612    7.3423    1.5478 N   0  3  0  0  0  0  0  0  0  0  0  0
   -7.1287    6.0993   -0.2012 O   0  0  0  0  0  0  0  0  0  0  0  0
   -4.9142    8.1538    1.8999 O   0  0  0  0  0  0  0  0  0  0  0  0
   -4.3660    8.4010   -0.7816 O   0  0  0  0  0  0  0  0  0  0  0  0
   -3.8427    6.9294    5.5770 C   0  0  2  0  0  0  0  0  0  0  0  0
   -2.3866    6.6230    5.8995 C   0  0  0  0  0  0  0  0  0  0  0  0
   -2.0509    5.1771    5.5329 C   0  0  1  0  0  0  0  0  0  0  0  0
   -2.2939    4.9546    4.0419 C   0  0  2  0  0  0  0  0  0  0  0  0
   -3.7513    5.2658    3.6976 C   0  0  1  0  0  0  0  0  0  0  0  0
   -4.0894    6.7027    4.0934 C   0  0  1  0  0  0  0  0  0  0  0  0
   -4.1645    8.3370    5.8990 N   0  3  0  0  0  0  0  0  0  0  0  0
   -0.6533    4.8664    5.9306 N   0  3  0  0  0  0  0  0  0  0  0  0
   -3.9666    5.0845    2.3045 O   0  0  0  0  0  0  0  0  0  0  0  0
   -5.4660    6.9839    3.7822 O   0  0  0  0  0  0  0  0  0  0  0  0
   -1.5746    3.3841    2.3746 C   0  0  1  0  0  0  0  0  0  0  0  0
   -2.3116    2.1866    1.7725 C   0  0  1  0  0  0  0  0  0  0  0  0
   -1.9615    0.9157    2.5318 C   0  0  0  0  0  0  0  0  0  0  0  0
   -0.4519    0.7385    2.5427 C   0  0  1  0  0  0  0  0  0  0  0  0
    0.2094    1.9817    3.1366 C   0  0  1  0  0  0  0  0  0  0  0  0
    1.7251    1.8998    3.1256 C   0  0  0  0  0  0  0  0  0  0  0  0
   -3.7738    2.4246    1.7325 N   0  3  0  0  0  0  0  0  0  0  0  0
    2.3417    3.1950    3.4996 N   0  3  0  0  0  0  0  0  0  0  0  0
   -1.9848    3.5918    3.6848 O   0  0  0  0  0  0  0  0  0  0  0  0
   -0.1034   -0.4072    3.3061 O   0  0  0  0  0  0  0  0  0  0  0  0
   -0.1604    3.1528    2.3768 O   0  0  0  0  0  0  0  0  0  0  0  0
  1  2  1  0  0  0  0
  1 10  1  0  0  0  0
  1 21  1  6  0  0  0
  2  3  1  0  0  0  0
  2  7  1  1  0  0  0
  3  4  1  0  0  0  0
  3  8  1  6  0  0  0
  4  5  1  0  0  0  0
  4  9  1  6  0  0  0
  5  6  1  6  0  0  0
  5 10  1  0  0  0  0
  6 11  1  0  0  0  0
 12 13  1  0  0  0  0
 12 17  1  0  0  0  0
 12 18  1  6  0  0  0
 13 14  1  0  0  0  0
 14 15  1  0  0  0  0
 14 19  1  6  0  0  0
 15 16  1  0  0  0  0
 15 30  1  1  0  0  0
 16 17  1  0  0  0  0
 16 20  1  6  0  0  0
 17 21  1  1  0  0  0
 22 23  1  0  0  0  0
 22 30  1  1  0  0  0
 22 32  1  0  0  0  0
 23 24  1  0  0  0  0
 23 28  1  1  0  0  0
 24 25  1  0  0  0  0
 25 26  1  0  0  0  0
 25 31  1  1  0  0  0
 26 27  1  6  0  0  0
 26 32  1  0  0  0  0
 27 29  1  0  0  0  0
M  CHG  5   8   1  18   1  19   1  28   1  29   1
M  END
>  <CHROM.1>
178.13222723,60.84136764,-166.07810025,-60.67206552,67.51483723,-177.54597685
69.49418783,14.28966732,-151.99796116,166.60092208,105.59689714,-133.66221479
37.55831825,48.37201927,170.80387915,-45.43053437,-3.48231574,5.24065609
2.88012463,-2.85030436,0.66778207,-2.23299418

>  <Name>
1tob

>  <RI>
0

>  <Rbt.Current_Directory>
/home/itssahil/PROJECTS/Mol_Feturizer/New_Systems/rnas/1tob

>  <Rbt.Executable>
rbdock ($Id: //depot/dev/client3/rdock/2013.1/src/exe/rbdock.cxx#4 $)

>  <Rbt.Library>
libRbt.so (2013.1, Build901 2013/11/27)

>  <Rbt.Parameter_File>
/export/apps/rDock/src/rDock_2013.1_src/data/scripts/dock_solv.prm

>  <Rbt.Receptor>
prm/blind_docking_60.prm

>  <SCORE>
-36.8144

>  <SCORE.INTER>
-41.799

>  <SCORE.INTER.CONST>
1

>  <SCORE.INTER.POLAR>
-6.7118

>  <SCORE.INTER.ROT>
6

>  <SCORE.INTER.SOLV>
32.2833

>  <SCORE.INTER.VDW>
-23.8544

>  <SCORE.INTER.norm>
-1.30622

>  <SCORE.INTRA>
-0.940057

>  <SCORE.INTRA.DIHEDRAL>
0.432205

>  <SCORE.INTRA.DIHEDRAL.0>
22.9177

>  <SCORE.INTRA.POLAR>
-0.650569

>  <SCORE.INTRA.POLAR.0>
-0.311208

>  <SCORE.INTRA.REPUL>
0

>  <SCORE.INTRA.REPUL.0>
0

>  <SCORE.INTRA.SOLV>
-1.18705

>  <SCORE.INTRA.SOLV.lig_0>
-132.657

>  <SCORE.INTRA.VDW>
1.6493

>  <SCORE.INTRA.VDW.0>
-4.68867

>  <SCORE.INTRA.norm>
-0.0293768

>  <SCORE.RESTR>
5.92468

>  <SCORE.RESTR.CAVITY>
5.92468

>  <SCORE.RESTR.norm>
0.185146

>  <SCORE.SYSTEM>
0

>  <SCORE.SYSTEM.CONST>
0

>  <SCORE.SYSTEM.DIHEDRAL>
0

>  <SCORE.SYSTEM.SOLV>
0

>  <SCORE.SYSTEM.norm>
0

>  <SCORE.heavy>
32

>  <SCORE.norm>
-1.15045

>  <RMSD>
8.708

$$$$
1tob
 OpenBabel11021811413D
libRbt.so/2013.1/901 2013/11/27
 32 34  0  0  0  0  0  0  0  0999 V2000
   -7.6617    6.8343    2.4465 C   0  0  2  0  0  0  0  0  0  0  0  0
   -8.3283    6.4780    1.1199 C   0  0  1  0  0  0  0  0  0  0  0  0
   -9.0924    7.6836    0.5900 C   0  0  2  0  0  0  0  0  0  0  0  0
  -10.0840    8.1580    1.6455 C   0  0  1  0  0  0  0  0  0  0  0  0
   -9.3501    8.4533    2.9507 C   0  0  1  0  0  0  0  0  0  0  0  0
  -10.2950    8.8569    4.0656 C   0  0  0  0  0  0  0  0  0  0  0  0
   -7.3409    6.0849    0.1775 O   0  0  0  0  0  0  0  0  0  0  0  0
   -9.7585    7.3716   -0.6932 N   0  3  0  0  0  0  0  0  0  0  0  0
  -10.7533    9.3248    1.1866 O   0  0  0  0  0  0  0  0  0  0  0  0
   -8.6397    7.2775    3.3957 O   0  0  0  0  0  0  0  0  0  0  0  0
  -11.0212   10.0310    3.7308 O   0  0  0  0  0  0  0  0  0  0  0  0
   -5.6959    7.7369    4.4398 C   0  0  2  0  0  0  0  0  0  0  0  0
   -4.3631    7.5327    5.1469 C   0  0  0  0  0  0  0  0  0  0  0  0
   -3.7613    6.1781    4.7721 C   0  0  1  0  0  0  0  0  0  0  0  0
   -3.5455    6.1111    3.2618 C   0  0  2  0  0  0  0  0  0  0  0  0
   -4.8741    6.3224    2.5341 C   0  0  1  0  0  0  0  0  0  0  0  0
   -5.4853    7.6645    2.9353 C   0  0  1  0  0  0  0  0  0  0  0  0
   -6.2673    9.0602    4.7729 N   0  3  0  0  0  0  0  0  0  0  0  0
   -2.5047    5.9554    5.5332 N   0  3  0  0  0  0  0  0  0  0  0  0
   -4.6646    6.2872    1.1288 O   0  0  0  0  0  0  0  0  0  0  0  0
   -6.7425    7.8498    2.2601 O   0  0  0  0  0  0  0  0  0  0  0  0
   -2.3636    4.7769    1.6535 C   0  0  1  0  0  0  0  0  0  0  0  0
   -2.7920    3.5121    0.9074 C   0  0  1  0  0  0  0  0  0  0  0  0
   -2.3372    2.2735    1.6647 C   0  0  0  0  0  0  0  0  0  0  0  0
   -0.8362    2.3483    1.8918 C   0  0  1  0  0  0  0  0  0  0  0  0
   -0.4884    3.6460    2.6202 C   0  0  1  0  0  0  0  0  0  0  0  0
    1.0053    3.8168    2.8299 C   0  0  0  0  0  0  0  0  0  0  0  0
   -4.2533    3.5069    0.6607 N   0  3  0  0  0  0  0  0  0  0  0  0
    1.4959    2.9786    3.9498 N   0  3  0  0  0  0  0  0  0  0  0  0
   -2.9819    4.8350    2.8954 O   0  0  0  0  0  0  0  0  0  0  0  0
   -0.4051    1.2325    2.6573 O   0  0  0  0  0  0  0  0  0  0  0  0
   -0.9451    4.7830    1.8560 O   0  0  0  0  0  0  0  0  0  0  0  0
  1  2  1  0  0  0  0
  1 10  1  0  0  0  0
  1 21  1  6  0  0  0
  2  3  1  0  0  0  0
  2  7  1  6  0  0  0
  3  4  1  0  0  0  0
  3  8  1  6  0  0  0
  4  5  1  0  0  0  0
  4  9  1  6  0  0  0
  5  6  1  1  0  0  0
  5 10  1  0  0  0  0
  6 11  1  0  0  0  0
 12 13  1  0  0  0  0
 12 17  1  0  0  0  0
 12 18  1  6  0  0  0
 13 14  1  0  0  0  0
 14 15  1  0  0  0  0
 14 19  1  1  0  0  0
 15 16  1  0  0  0  0
 15 30  1  1  0  0  0
 16 17  1  0  0  0  0
 16 20  1  6  0  0  0
 17 21  1  6  0  0  0
 22 23  1  0  0  0  0
 22 30  1  1  0  0  0
 22 32  1  0  0  0  0
 23 24  1  0  0  0  0
 23 28  1  1  0  0  0
 24 25  1  0  0  0  0
 25 26  1  0  0  0  0
 25 31  1  1  0  0  0
 26 27  1  6  0  0  0
 26 32  1  0  0  0  0
 27 29  1  0  0  0  0
M  CHG  5   8   1  18   1  19   1  28   1  29   1
M  END
>  <CHROM.1>
-136.13324234,-86.14091514,53.01907444,-167.06198162,-60.29465766,-174.71982541
-78.64180737,61.85709962,-161.07999450,158.16209518,-67.02379890,-134.81393261
-42.06771100,-60.53212012,-77.49658738,61.05814979,-5.18070376,6.10148816
2.52610479,2.89489897,-0.47005157,0.97191513

>  <Name>
1tob

>  <RI>
0

>  <Rbt.Current_Directory>
/home/itssahil/PROJECTS/Mol_Feturizer/New_Systems/rnas/1tob

>  <Rbt.Executable>
rbdock ($Id: //depot/dev/client3/rdock/2013.1/src/exe/rbdock.cxx#4 $)

>  <Rbt.Library>
libRbt.so (2013.1, Build901 2013/11/27)

>  <Rbt.Parameter_File>
/export/apps/rDock/src/rDock_2013.1_src/data/scripts/dock_solv.prm

>  <Rbt.Receptor>
prm/pocket_docking_3.prm

>  <SCORE>
-44.3941

>  <SCORE.INTER>
-41.0762

>  <SCORE.INTER.CONST>
1

>  <SCORE.INTER.POLAR>
-5.41201

>  <SCORE.INTER.ROT>
6

>  <SCORE.INTER.SOLV>
23.1124

>  <SCORE.INTER.VDW>
-24.6482

>  <SCORE.INTER.norm>
-1.28363

>  <SCORE.INTRA>
-3.43088

>  <SCORE.INTRA.DIHEDRAL>
-0.379742

>  <SCORE.INTRA.DIHEDRAL.0>
22.9177

>  <SCORE.INTRA.POLAR>
-1.43398

>  <SCORE.INTRA.POLAR.0>
-0.311208

>  <SCORE.INTRA.REPUL>
0

>  <SCORE.INTRA.REPUL.0>
0

>  <SCORE.INTRA.SOLV>
-0.0431579

>  <SCORE.INTRA.SOLV.lig_0>
-132.657

>  <SCORE.INTRA.VDW>
1.6561

>  <SCORE.INTRA.VDW.0>
-4.68867

>  <SCORE.INTRA.norm>
-0.107215

>  <SCORE.RESTR>
0.112987

>  <SCORE.RESTR.CAVITY>
0.112987

>  <SCORE.RESTR.norm>
0.00353085

>  <SCORE.SYSTEM>
0

>  <SCORE.SYSTEM.CONST>
0

>  <SCORE.SYSTEM.DIHEDRAL>
0

>  <SCORE.SYSTEM.SOLV>
0

>  <SCORE.SYSTEM.norm>
0

>  <SCORE.heavy>
32

>  <SCORE.norm>
-1.38731

>  <RMSD>
8.708

$$$$
1tob
 OpenBabel11021811413D
libRbt.so/2013.1/901 2013/11/27
 32 34  0  0  0  0  0  0  0  0999 V2000
   -3.7884    4.4622    1.5001 C   0  0  2  0  0  0  0  0  0  0  0  0
   -3.9060    5.6988    2.3879 C   0  0  1  0  0  0  0  0  0  0  0  0
   -5.2890    5.7443    3.0232 C   0  0  2  0  0  0  0  0  0  0  0  0
   -6.3497    5.6937    1.9300 C   0  0  1  0  0  0  0  0  0  0  0  0
   -6.1409    4.4559    1.0620 C   0  0  1  0  0  0  0  0  0  0  0  0
   -7.1204    4.3891   -0.0933 C   0  0  0  0  0  0  0  0  0  0  0  0
   -2.9138    5.6560    3.4035 O   0  0  0  0  0  0  0  0  0  0  0  0
   -5.4412    6.9358    3.8859 N   0  3  0  0  0  0  0  0  0  0  0  0
   -7.6439    5.6662    2.5168 O   0  0  0  0  0  0  0  0  0  0  0  0
   -4.8120    4.4662    0.4970 O   0  0  0  0  0  0  0  0  0  0  0  0
   -6.7425    5.2657   -1.1453 O   0  0  0  0  0  0  0  0  0  0  0  0
   -1.6491    2.8655    1.5726 C   0  0  2  0  0  0  0  0  0  0  0  0
   -0.3419    2.2242    2.0178 C   0  0  0  0  0  0  0  0  0  0  0  0
    0.1607    2.8747    3.3069 C   0  0  1  0  0  0  0  0  0  0  0  0
   -0.8831    2.7070    4.4087 C   0  0  2  0  0  0  0  0  0  0  0  0
   -2.2068    3.3389    3.9754 C   0  0  1  0  0  0  0  0  0  0  0  0
   -2.6892    2.7055    2.6708 C   0  0  1  0  0  0  0  0  0  0  0  0
   -2.1573    2.2178    0.3436 N   0  3  0  0  0  0  0  0  0  0  0  0
    1.4778    2.2987    3.6833 N   0  3  0  0  0  0  0  0  0  0  0  0
   -3.1835    3.1563    4.9916 O   0  0  0  0  0  0  0  0  0  0  0  0
   -3.9260    3.3156    2.2598 O   0  0  0  0  0  0  0  0  0  0  0  0
   -1.3363    3.3619    6.6736 C   0  0  1  0  0  0  0  0  0  0  0  0
   -1.3882    4.7663    7.2775 C   0  0  1  0  0  0  0  0  0  0  0  0
   -0.0403    5.1309    7.8813 C   0  0  0  0  0  0  0  0  0  0  0  0
    0.3613    4.0665    8.8894 C   0  0  1  0  0  0  0  0  0  0  0  0
    0.3681    2.6945    8.2162 C   0  0  1  0  0  0  0  0  0  0  0  0
    0.7045    1.5715    9.1805 C   0  0  0  0  0  0  0  0  0  0  0  0
   -1.8353    5.7623    6.2752 N   0  3  0  0  0  0  0  0  0  0  0  0
    2.0224    1.7855    9.8248 N   0  3  0  0  0  0  0  0  0  0  0  0
   -0.4218    3.3211    5.6295 O   0  0  0  0  0  0  0  0  0  0  0  0
    1.6493    4.3556    9.4131 O   0  0  0  0  0  0  0  0  0  0  0  0
   -0.9339    2.4059    7.6622 O   0  0  0  0  0  0  0  0  0  0  0  0
  1  2  1  0  0  0  0
  1 10  1  0  0  0  0
  1 21  1  1  0  0  0
  2  3  1  0  0  0  0
  2  7  1  1  0  0  0
  3  4  1  0  0  0  0
  3  8  1  6  0  0  0
  4  5  1  0  0  0  0
  4  9  1  1  0  0  0
  5  6  1  6  0  0  0
  5 10  1  0  0  0  0
  6 11  1  0  0  0  0
 12 13  1  0  0  0  0
 12 17  1  0  0  0  0
 12 18  1  6  0  0  0
 13 14  1  0  0  0  0
 14 15  1  0  0  0  0
 14 19  1  1  0  0  0
 15 16  1  0  0  0  0
 15 30  1  1  0  0  0
 16 17  1  0  0  0  0
 16 20  1  1  0  0  0
 17 21  1  6  0  0  0
 22 23  1  0  0  0  0
 22 30  1  6  0  0  0
 22 32  1  0  0  0  0
 23 24  1  0  0  0  0
 23 28  1  6  0  0  0
 24 25  1  0  0  0  0
 25 26  1  0  0  0  0
 25 31  1  6  0  0  0
 26 27  1  1  0  0  0
 26 32  1  0  0  0  0
 27 29  1  0  0  0  0
M  CHG  5   8   1  18   1  19   1  28   1  29   1
M  END
>  <CHROM.1>
-96.59620993,168.12062940,76.47005587,56.95404784,77.79891721,71.05310919
-138.62462683,-174.24027364,173.53869562,-139.97681614,-35.48604365,-131.84312661
6.13393086,-47.05152655,-57.74246754,-72.67071514,-2.38911052,3.93682121
4.22822880,-2.47518311,-0.58758637,1.20450559

>  <Name>
1tob

>  <RI>
0

>  <Rbt.Current_Directory>
/home/itssahil/PROJECTS/Mol_Feturizer/New_Systems/rnas/1tob

>  <Rbt.Executable>
rbdock ($Id: //depot/dev/client3/rdock/2013.1/src/exe/rbdock.cxx#4 $)

>  <Rbt.Library>
libRbt.so (2013.1, Build901 2013/11/27)

>  <Rbt.Parameter_File>
/export/apps/rDock/src/rDock_2013.1_src/data/scripts/dock_solv.prm

>  <Rbt.Receptor>
prm/blind_docking_100.prm

>  <SCORE>
17.1238

>  <SCORE.INTER>
-4.78517

>  <SCORE.INTER.CONST>
1

>  <SCORE.INTER.POLAR>
-4.4758

>  <SCORE.INTER.ROT>
6

>  <SCORE.INTER.SOLV>
35.0825

>  <SCORE.INTER.VDW>
-7.56497

>  <SCORE.INTER.norm>
-0.149537

>  <SCORE.INTRA>
10.0393

>  <SCORE.INTRA.DIHEDRAL>
7.33797

>  <SCORE.INTRA.DIHEDRAL.0>
22.9177

>  <SCORE.INTRA.POLAR>
-1.4157

>  <SCORE.INTRA.POLAR.0>
-0.311208

>  <SCORE.INTRA.REPUL>
0

>  <SCORE.INTRA.REPUL.0>
0

>  <SCORE.INTRA.SOLV>
2.85258

>  <SCORE.INTRA.SOLV.lig_0>
-132.657

>  <SCORE.INTRA.VDW>
9.75739

>  <SCORE.INTRA.VDW.0>
-4.68867

>  <SCORE.INTRA.norm>
0.313728

>  <SCORE.RESTR>
11.8697

>  <SCORE.RESTR.CAVITY>
11.8697

>  <SCORE.RESTR.norm>
0.370927

>  <SCORE.SYSTEM>
0

>  <SCORE.SYSTEM.CONST>
0

>  <SCORE.SYSTEM.DIHEDRAL>
0

>  <SCORE.SYSTEM.SOLV>
0

>  <SCORE.SYSTEM.norm>
0

>  <SCORE.heavy>
32

>  <SCORE.norm>
0.535118

>  <RMSD>
8.717

$$$$
1tob
 OpenBabel11021811413D
libRbt.so/2013.1/901 2013/11/27
 32 34  0  0  0  0  0  0  0  0999 V2000
   -5.4263    6.0077    2.0114 C   0  0  2  0  0  0  0  0  0  0  0  0
   -5.8390    6.8829    0.8303 C   0  0  1  0  0  0  0  0  0  0  0  0
   -5.2747    8.2856    1.0097 C   0  0  2  0  0  0  0  0  0  0  0  0
   -5.7287    8.8457    2.3524 C   0  0  1  0  0  0  0  0  0  0  0  0
   -5.3175    7.8975    3.4754 C   0  0  1  0  0  0  0  0  0  0  0  0
   -5.8091    8.3622    4.8322 C   0  0  0  0  0  0  0  0  0  0  0  0
   -5.3480    6.3201   -0.3779 O   0  0  0  0  0  0  0  0  0  0  0  0
   -5.6619    9.1646   -0.1149 N   0  3  0  0  0  0  0  0  0  0  0  0
   -5.1506   10.1275    2.5590 O   0  0  0  0  0  0  0  0  0  0  0  0
   -5.8745    6.5855    3.2441 O   0  0  0  0  0  0  0  0  0  0  0  0
   -4.7831    8.2816    5.8114 O   0  0  0  0  0  0  0  0  0  0  0  0
   -3.3739    3.6993    1.2838 C   0  0  2  0  0  0  0  0  0  0  0  0
   -2.8519    2.3460    1.7466 C   0  0  0  0  0  0  0  0  0  0  0  0
   -1.5234    2.5099    2.4855 C   0  0  1  0  0  0  0  0  0  0  0  0
   -1.7180    3.4162    3.6990 C   0  0  2  0  0  0  0  0  0  0  0  0
   -2.2502    4.7791    3.2535 C   0  0  1  0  0  0  0  0  0  0  0  0
   -3.5628    4.6065    2.4899 C   0  0  1  0  0  0  0  0  0  0  0  0
   -4.6757    3.5506    0.5970 N   0  3  0  0  0  0  0  0  0  0  0  0
   -0.9838    1.1760    2.8567 N   0  3  0  0  0  0  0  0  0  0  0  0
   -2.4564    5.6101    4.3879 O   0  0  0  0  0  0  0  0  0  0  0  0
   -4.0498    5.8904    2.0593 O   0  0  0  0  0  0  0  0  0  0  0  0
   -0.2976    2.7926    5.5313 C   0  0  1  0  0  0  0  0  0  0  0  0
    0.0963    3.6595    6.7284 C   0  0  1  0  0  0  0  0  0  0  0  0
    1.4370    4.3320    6.4742 C   0  0  0  0  0  0  0  0  0  0  0  0
    2.4745    3.2716    6.1432 C   0  0  1  0  0  0  0  0  0  0  0  0
    1.9983    2.4369    4.9548 C   0  0  1  0  0  0  0  0  0  0  0  0
    2.9608    1.3168    4.6037 C   0  0  0  0  0  0  0  0  0  0  0  0
   -0.9660    4.6421    7.0485 N   0  3  0  0  0  0  0  0  0  0  0  0
    2.3780    0.3947    3.5999 N   0  3  0  0  0  0  0  0  0  0  0  0
   -0.4695    3.5820    4.4020 O   0  0  0  0  0  0  0  0  0  0  0  0
    3.7167    3.8874    5.8361 O   0  0  0  0  0  0  0  0  0  0  0  0
    0.7241    1.8269    5.2542 O   0  0  0  0  0  0  0  0  0  0  0  0
  1  2  1  0  0  0  0
  1 10  1  0  0  0  0
  1 21  1  1  0  0  0
  2  3  1  0  0  0  0
  2  7  1  6  0  0  0
  3  4  1  0  0  0  0
  3  8  1  6  0  0  0
  4  5  1  0  0  0  0
  4  9  1  1  0  0  0
  5  6  1  1  0  0  0
  5 10  1  0  0  0  0
  6 11  1  0  0  0  0
 12 13  1  0  0  0  0
 12 17  1  0  0  0  0
 12 18  1  1  0  0  0
 13 14  1  0  0  0  0
 14 15  1  0  0  0  0
 14 19  1  1  0  0  0
 15 16  1  0  0  0  0
 15 30  1  6  0  0  0
 16 17  1  0  0  0  0
 16 20  1  1  0  0  0
 17 21  1  6  0  0  0
 22 23  1  0  0  0  0
 22 30  1  6  0  0  0
 22 32  1  0  0  0  0
 23 24  1  0  0  0  0
 23 28  1  6  0  0  0
 24 25  1  0  0  0  0
 25 26  1  0  0  0  0
 25 31  1  6  0  0  0
 26 27  1  1  0  0  0
 26 32  1  0  0  0  0
 27 29  1  0  0  0  0
M  CHG  5   8   1  18   1  19   1  28   1  29   1
M  END
>  <CHROM.1>
-144.03904521,173.67858689,53.62315890,-53.87629497,-134.00825251,69.31851170
-33.77758983,-32.84582383,-99.67367831,-65.24054797,90.28731445,-127.88051656
-137.81089095,-177.34808804,170.79818082,90.41913342,-2.30151987,4.90799403
3.45920730,2.97355589,-0.71135480,0.77721020

>  <Name>
1tob

>  <RI>
0

>  <Rbt.Current_Directory>
/home/itssahil/PROJECTS/Mol_Feturizer/New_Systems/rnas/1tob

>  <Rbt.Executable>
rbdock ($Id: //depot/dev/client3/rdock/2013.1/src/exe/rbdock.cxx#4 $)

>  <Rbt.Library>
libRbt.so (2013.1, Build901 2013/11/27)

>  <Rbt.Parameter_File>
/export/apps/rDock/src/rDock_2013.1_src/data/scripts/dock_solv.prm

>  <Rbt.Receptor>
prm/pocket_docking_7.prm

>  <SCORE>
-41.8437

>  <SCORE.INTER>
-43.0059

>  <SCORE.INTER.CONST>
1

>  <SCORE.INTER.POLAR>
-6.20277

>  <SCORE.INTER.ROT>
6

>  <SCORE.INTER.SOLV>
28.4983

>  <SCORE.INTER.VDW>
-25.0941

>  <SCORE.INTER.norm>
-1.34393

>  <SCORE.INTRA>
1.16219

>  <SCORE.INTRA.DIHEDRAL>
11.4327

>  <SCORE.INTRA.DIHEDRAL.0>
22.9177

>  <SCORE.INTRA.POLAR>
-2.21182

>  <SCORE.INTRA.POLAR.0>
-0.311208

>  <SCORE.INTRA.REPUL>
0

>  <SCORE.INTRA.REPUL.0>
0

>  <SCORE.INTRA.SOLV>
3.61606

>  <SCORE.INTRA.SOLV.lig_0>
-132.657

>  <SCORE.INTRA.VDW>
1.15801

>  <SCORE.INTRA.VDW.0>
-4.68867

>  <SCORE.INTRA.norm>
0.0363185

>  <SCORE.RESTR>
0

>  <SCORE.RESTR.CAVITY>
0

>  <SCORE.RESTR.norm>
0

>  <SCORE.SYSTEM>
0

>  <SCORE.SYSTEM.CONST>
0

>  <SCORE.SYSTEM.DIHEDRAL>
0

>  <SCORE.SYSTEM.SOLV>
0

>  <SCORE.SYSTEM.norm>
0

>  <SCORE.heavy>
32

>  <SCORE.norm>
-1.30762

>  <RMSD>
8.721

$$$$
1tob
 OpenBabel11021811413D
libRbt.so/2013.1/901 2013/11/27
 32 34  0  0  0  0  0  0  0  0999 V2000
   -7.7427    7.4560    2.8646 C   0  0  2  0  0  0  0  0  0  0  0  0
   -8.8183    6.8996    1.9348 C   0  0  1  0  0  0  0  0  0  0  0  0
   -9.4196    8.0306    1.1117 C   0  0  2  0  0  0  0  0  0  0  0  0
   -9.9440    9.1135    2.0470 C   0  0  1  0  0  0  0  0  0  0  0  0
   -8.8249    9.5877    2.9701 C   0  0  1  0  0  0  0  0  0  0  0  0
   -9.3042   10.6131    3.9787 C   0  0  0  0  0  0  0  0  0  0  0  0
   -8.2481    5.9283    1.0693 O   0  0  0  0  0  0  0  0  0  0  0  0
  -10.4728    7.5279    0.2030 N   0  3  0  0  0  0  0  0  0  0  0  0
  -10.4451   10.2045    1.2863 O   0  0  0  0  0  0  0  0  0  0  0  0
   -8.2912    8.4714    3.7145 O   0  0  0  0  0  0  0  0  0  0  0  0
   -8.2805   10.9477    4.9050 O   0  0  0  0  0  0  0  0  0  0  0  0
   -5.3654    8.2316    4.1226 C   0  0  2  0  0  0  0  0  0  0  0  0
   -3.9694    8.0021    4.6855 C   0  0  0  0  0  0  0  0  0  0  0  0
   -3.5810    6.5281    4.5670 C   0  0  1  0  0  0  0  0  0  0  0  0
   -3.6079    6.1053    3.0999 C   0  0  2  0  0  0  0  0  0  0  0  0
   -5.0020    6.3365    2.5148 C   0  0  1  0  0  0  0  0  0  0  0  0
   -5.3970    7.8054    2.6629 C   0  0  1  0  0  0  0  0  0  0  0  0
   -5.7336    9.6620    4.2045 N   0  3  0  0  0  0  0  0  0  0  0  0
   -2.2536    6.3032    5.1959 N   0  3  0  0  0  0  0  0  0  0  0  0
   -5.0156    5.9681    1.1422 O   0  0  0  0  0  0  0  0  0  0  0  0
   -6.7158    8.0131    2.1256 O   0  0  0  0  0  0  0  0  0  0  0  0
   -2.1543    4.4391    2.1648 C   0  0  1  0  0  0  0  0  0  0  0  0
   -2.4215    3.1911    1.3215 C   0  0  1  0  0  0  0  0  0  0  0  0
   -2.5988    1.9759    2.2194 C   0  0  0  0  0  0  0  0  0  0  0  0
   -1.3807    1.8349    3.1176 C   0  0  1  0  0  0  0  0  0  0  0  0
   -1.1696    3.1261    3.9074 C   0  0  1  0  0  0  0  0  0  0  0  0
    0.0677    3.0790    4.7855 C   0  0  0  0  0  0  0  0  0  0  0  0
   -3.5832    3.3923    0.4235 N   0  3  0  0  0  0  0  0  0  0  0  0
    1.3064    3.0001    3.9748 N   0  3  0  0  0  0  0  0  0  0  0  0
   -3.2473    4.7143    2.9758 O   0  0  0  0  0  0  0  0  0  0  0  0
   -1.5597    0.7448    4.0102 O   0  0  0  0  0  0  0  0  0  0  0  0
   -1.0097    4.2412    3.0038 O   0  0  0  0  0  0  0  0  0  0  0  0
  1  2  1  0  0  0  0
  1 10  1  0  0  0  0
  1 21  1  6  0  0  0
  2  3  1  0  0  0  0
  2  7  1  6  0  0  0
  3  4  1  0  0  0  0
  3  8  1  1  0  0  0
  4  5  1  0  0  0  0
  4  9  1  6  0  0  0
  5  6  1  1  0  0  0
  5 10  1  0  0  0  0
  6 11  1  0  0  0  0
 12 13  1  0  0  0  0
 12 17  1  0  0  0  0
 12 18  1  6  0  0  0
 13 14  1  0  0  0  0
 14 15  1  0  0  0  0
 14 19  1  6  0  0  0
 15 16  1  0  0  0  0
 15 30  1  1  0  0  0
 16 17  1  0  0  0  0
 16 20  1  6  0  0  0
 17 21  1  1  0  0  0
 22 23  1  0  0  0  0
 22 30  1  1  0  0  0
 22 32  1  0  0  0  0
 23 24  1  0  0  0  0
 23 28  1  1  0  0  0
 24 25  1  0  0  0  0
 25 26  1  0  0  0  0
 25 31  1  1  0  0  0
 26 27  1  6  0  0  0
 26 32  1  0  0  0  0
 27 29  1  0  0  0  0
M  CHG  5   8   1  18   1  19   1  28   1  29   1
M  END
>  <CHROM.1>
-142.47173012,160.21610534,-12.69793770,176.70458634,174.55592707,165.85212227
93.34239064,120.75696601,-122.29941592,168.02715799,-51.82915860,-139.25080849
-158.75255602,60.99465852,65.70620902,55.99637171,-5.14326967,6.30182972
2.87151786,2.69454062,-0.50732710,0.65192772

>  <Name>
1tob

>  <RI>
0

>  <Rbt.Current_Directory>
/home/itssahil/PROJECTS/Mol_Feturizer/New_Systems/rnas/1tob

>  <Rbt.Executable>
rbdock ($Id: //depot/dev/client3/rdock/2013.1/src/exe/rbdock.cxx#4 $)

>  <Rbt.Library>
libRbt.so (2013.1, Build901 2013/11/27)

>  <Rbt.Parameter_File>
/export/apps/rDock/src/rDock_2013.1_src/data/scripts/dock_solv.prm

>  <Rbt.Receptor>
prm/pocket_docking_3.prm

>  <SCORE>
-40.1333

>  <SCORE.INTER>
-38.0135

>  <SCORE.INTER.CONST>
1

>  <SCORE.INTER.POLAR>
-5.62251

>  <SCORE.INTER.ROT>
6

>  <SCORE.INTER.SOLV>
25.4885

>  <SCORE.INTER.VDW>
-22.6968

>  <SCORE.INTER.norm>
-1.18792

>  <SCORE.INTRA>
-2.12866

>  <SCORE.INTRA.DIHEDRAL>
8.80453

>  <SCORE.INTRA.DIHEDRAL.0>
22.9177

>  <SCORE.INTRA.POLAR>
-3.11086

>  <SCORE.INTRA.POLAR.0>
-0.311208

>  <SCORE.INTRA.REPUL>
0

>  <SCORE.INTRA.REPUL.0>
0

>  <SCORE.INTRA.SOLV>
3.10879

>  <SCORE.INTRA.SOLV.lig_0>
-132.657

>  <SCORE.INTRA.VDW>
2.49161

>  <SCORE.INTRA.VDW.0>
-4.68867

>  <SCORE.INTRA.norm>
-0.0665207

>  <SCORE.RESTR>
0.00892337

>  <SCORE.RESTR.CAVITY>
0.00892337

>  <SCORE.RESTR.norm>
0.000278855

>  <SCORE.SYSTEM>
0

>  <SCORE.SYSTEM.CONST>
0

>  <SCORE.SYSTEM.DIHEDRAL>
0

>  <SCORE.SYSTEM.SOLV>
0

>  <SCORE.SYSTEM.norm>
0

>  <SCORE.heavy>
32

>  <SCORE.norm>
-1.25416

>  <RMSD>
8.744

$$$$
1tob
 OpenBabel11021811413D
libRbt.so/2013.1/901 2013/11/27
 32 34  0  0  0  0  0  0  0  0999 V2000
   -5.4210    7.2182    1.9439 C   0  0  2  0  0  0  0  0  0  0  0  0
   -6.8024    7.8356    1.7393 C   0  0  1  0  0  0  0  0  0  0  0  0
   -7.8623    6.7430    1.7723 C   0  0  2  0  0  0  0  0  0  0  0  0
   -7.5259    5.6802    0.7332 C   0  0  1  0  0  0  0  0  0  0  0  0
   -6.1185    5.1429    0.9781 C   0  0  1  0  0  0  0  0  0  0  0  0
   -5.6948    4.1347   -0.0719 C   0  0  0  0  0  0  0  0  0  0  0  0
   -7.0603    8.7840    2.7648 O   0  0  0  0  0  0  0  0  0  0  0  0
   -9.2151    7.3053    1.5695 N   0  3  0  0  0  0  0  0  0  0  0  0
   -8.4720    4.6220    0.8039 O   0  0  0  0  0  0  0  0  0  0  0  0
   -5.1629    6.2248    0.9436 O   0  0  0  0  0  0  0  0  0  0  0  0
   -4.6116    3.3360    0.3828 O   0  0  0  0  0  0  0  0  0  0  0  0
   -4.0533    6.7374    5.2280 C   0  0  2  0  0  0  0  0  0  0  0  0
   -2.6462    6.6014    5.7934 C   0  0  0  0  0  0  0  0  0  0  0  0
   -2.0864    5.2083    5.5045 C   0  0  1  0  0  0  0  0  0  0  0  0
   -2.0480    4.9719    3.9964 C   0  0  2  0  0  0  0  0  0  0  0  0
   -3.4533    5.1125    3.4093 C   0  0  1  0  0  0  0  0  0  0  0  0
   -4.0193    6.4962    3.7267 C   0  0  1  0  0  0  0  0  0  0  0  0
   -4.5875    8.0944    5.4758 N   0  3  0  0  0  0  0  0  0  0  0  0
   -0.7486    5.0607    6.1342 N   0  3  0  0  0  0  0  0  0  0  0  0
   -3.4090    4.9194    2.0019 O   0  0  0  0  0  0  0  0  0  0  0  0
   -5.3475    6.6163    3.1861 O   0  0  0  0  0  0  0  0  0  0  0  0
   -0.9599    3.4875    2.4548 C   0  0  1  0  0  0  0  0  0  0  0  0
   -1.3165    2.1088    1.8963 C   0  0  1  0  0  0  0  0  0  0  0  0
   -0.7295    1.0154    2.7763 C   0  0  0  0  0  0  0  0  0  0  0  0
    0.7690    1.2312    2.9108 C   0  0  1  0  0  0  0  0  0  0  0  0
    1.0419    2.6341    3.4519 C   0  0  1  0  0  0  0  0  0  0  0  0
    2.5245    2.9421    3.5576 C   0  0  0  0  0  0  0  0  0  0  0  0
   -2.7820    1.9622    1.7316 N   0  3  0  0  0  0  0  0  0  0  0  0
    3.0403    3.5626    2.3139 N   0  3  0  0  0  0  0  0  0  0  0  0
   -1.5255    3.6580    3.7114 O   0  0  0  0  0  0  0  0  0  0  0  0
    1.3228    0.2585    3.7849 O   0  0  0  0  0  0  0  0  0  0  0  0
    0.4609    3.6261    2.5779 O   0  0  0  0  0  0  0  0  0  0  0  0
  1  2  1  0  0  0  0
  1 10  1  0  0  0  0
  1 21  1  1  0  0  0
  2  3  1  0  0  0  0
  2  7  1  1  0  0  0
  3  4  1  0  0  0  0
  3  8  1  6  0  0  0
  4  5  1  0  0  0  0
  4  9  1  1  0  0  0
  5  6  1  6  0  0  0
  5 10  1  0  0  0  0
  6 11  1  0  0  0  0
 12 13  1  0  0  0  0
 12 17  1  0  0  0  0
 12 18  1  6  0  0  0
 13 14  1  0  0  0  0
 14 15  1  0  0  0  0
 14 19  1  6  0  0  0
 15 16  1  0  0  0  0
 15 30  1  1  0  0  0
 16 17  1  0  0  0  0
 16 20  1  6  0  0  0
 17 21  1  1  0  0  0
 22 23  1  0  0  0  0
 22 30  1  1  0  0  0
 22 32  1  0  0  0  0
 23 24  1  0  0  0  0
 23 28  1  1  0  0  0
 24 25  1  0  0  0  0
 25 26  1  0  0  0  0
 25 31  1  1  0  0  0
 26 27  1  6  0  0  0
 26 32  1  0  0  0  0
 27 29  1  0  0  0  0
M  CHG  5   8   1  18   1  19   1  28   1  29   1
M  END
>  <CHROM.1>
-155.39152654,-66.51840692,-176.83397931,76.67551057,-160.89254830,88.46260443
172.82601415,11.52446838,-156.18297037,-54.33578883,142.21673303,-141.17835545
154.37605772,179.02862881,90.53747717,151.43628684,-3.27633548,4.79082617
2.77699333,-2.90636394,0.46208938,-2.38808581

>  <Name>
1tob

>  <RI>
0

>  <Rbt.Current_Directory>
/home/itssahil/PROJECTS/Mol_Feturizer/New_Systems/rnas/1tob

>  <Rbt.Executable>
rbdock ($Id: //depot/dev/client3/rdock/2013.1/src/exe/rbdock.cxx#4 $)

>  <Rbt.Library>
libRbt.so (2013.1, Build901 2013/11/27)

>  <Rbt.Parameter_File>
/export/apps/rDock/src/rDock_2013.1_src/data/scripts/dock_solv.prm

>  <Rbt.Receptor>
prm/pocket_docking_8.prm

>  <SCORE>
-46.8025

>  <SCORE.INTER>
-46.9816

>  <SCORE.INTER.CONST>
1

>  <SCORE.INTER.POLAR>
-6.62735

>  <SCORE.INTER.ROT>
6

>  <SCORE.INTER.SOLV>
33.7678

>  <SCORE.INTER.VDW>
-28.0859

>  <SCORE.INTER.norm>
-1.46818

>  <SCORE.INTRA>
0.179164

>  <SCORE.INTRA.DIHEDRAL>
7.81459

>  <SCORE.INTRA.DIHEDRAL.0>
22.9177

>  <SCORE.INTRA.POLAR>
-1.79733

>  <SCORE.INTRA.POLAR.0>
-0.311208

>  <SCORE.INTRA.REPUL>
0

>  <SCORE.INTRA.REPUL.0>
0

>  <SCORE.INTRA.SOLV>
2.21142

>  <SCORE.INTRA.SOLV.lig_0>
-132.657

>  <SCORE.INTRA.VDW>
1.27709

>  <SCORE.INTRA.VDW.0>
-4.68867

>  <SCORE.INTRA.norm>
0.00559887

>  <SCORE.RESTR>
0

>  <SCORE.RESTR.CAVITY>
0

>  <SCORE.RESTR.norm>
0

>  <SCORE.SYSTEM>
0

>  <SCORE.SYSTEM.CONST>
0

>  <SCORE.SYSTEM.DIHEDRAL>
0

>  <SCORE.SYSTEM.SOLV>
0

>  <SCORE.SYSTEM.norm>
0

>  <SCORE.heavy>
32

>  <SCORE.norm>
-1.46258

>  <RMSD>
8.745

$$$$
1tob
 OpenBabel11021811413D
libRbt.so/2013.1/901 2013/11/27
 32 34  0  0  0  0  0  0  0  0999 V2000
   -3.3498    7.1598    3.9387 C   0  0  2  0  0  0  0  0  0  0  0  0
   -3.8465    8.0169    5.1006 C   0  0  1  0  0  0  0  0  0  0  0  0
   -5.2921    8.4267    4.8541 C   0  0  2  0  0  0  0  0  0  0  0  0
   -5.3952    9.1326    3.5074 C   0  0  1  0  0  0  0  0  0  0  0  0
   -4.8426    8.2319    2.4062 C   0  0  1  0  0  0  0  0  0  0  0  0
   -4.8467    8.9095    1.0500 C   0  0  0  0  0  0  0  0  0  0  0  0
   -3.7574    7.2805    6.3119 O   0  0  0  0  0  0  0  0  0  0  0  0
   -5.8046    9.2661    5.9586 N   0  3  0  0  0  0  0  0  0  0  0  0
   -6.7522    9.4577    3.2377 O   0  0  0  0  0  0  0  0  0  0  0  0
   -3.4757    7.8716    2.7011 O   0  0  0  0  0  0  0  0  0  0  0  0
   -4.5389    7.9916    0.0104 O   0  0  0  0  0  0  0  0  0  0  0  0
   -3.0568    5.0267    1.8921 C   0  0  2  0  0  0  0  0  0  0  0  0
   -2.2896    3.8109    1.3906 C   0  0  0  0  0  0  0  0  0  0  0  0
   -0.9935    3.6332    2.1819 C   0  0  1  0  0  0  0  0  0  0  0  0
   -1.3161    3.4492    3.6631 C   0  0  2  0  0  0  0  0  0  0  0  0
   -2.0947    4.6587    4.1827 C   0  0  1  0  0  0  0  0  0  0  0  0
   -3.3742    4.8491    3.3689 C   0  0  1  0  0  0  0  0  0  0  0  0
   -4.3280    5.1845    1.1521 N   0  3  0  0  0  0  0  0  0  0  0  0
   -0.2147    2.4957    1.6273 N   0  3  0  0  0  0  0  0  0  0  0  0
   -2.4173    4.4711    5.5541 O   0  0  0  0  0  0  0  0  0  0  0  0
   -4.0937    5.9980    3.8518 O   0  0  0  0  0  0  0  0  0  0  0  0
    0.6695    4.4280    4.5920 C   0  0  1  0  0  0  0  0  0  0  0  0
    2.1247    4.1483    4.2126 C   0  0  1  0  0  0  0  0  0  0  0  0
    2.7182    3.0966    5.1377 C   0  0  0  0  0  0  0  0  0  0  0  0
    2.5581    3.5501    6.5796 C   0  0  1  0  0  0  0  0  0  0  0  0
    1.0843    3.8292    6.8722 C   0  0  1  0  0  0  0  0  0  0  0  0
    0.8552    4.3442    8.2816 C   0  0  0  0  0  0  0  0  0  0  0  0
    2.2398    3.7620    2.7864 N   0  3  0  0  0  0  0  0  0  0  0  0
   -0.4647    5.0069    8.4098 N   0  3  0  0  0  0  0  0  0  0  0  0
   -0.1000    3.2849    4.4210 O   0  0  0  0  0  0  0  0  0  0  0  0
    3.0457    2.5483    7.4603 O   0  0  0  0  0  0  0  0  0  0  0  0
    0.5780    4.8313    5.9639 O   0  0  0  0  0  0  0  0  0  0  0  0
  1  2  1  0  0  0  0
  1 10  1  0  0  0  0
  1 21  1  6  0  0  0
  2  3  1  0  0  0  0
  2  7  1  1  0  0  0
  3  4  1  0  0  0  0
  3  8  1  1  0  0  0
  4  5  1  0  0  0  0
  4  9  1  6  0  0  0
  5  6  1  6  0  0  0
  5 10  1  0  0  0  0
  6 11  1  0  0  0  0
 12 13  1  0  0  0  0
 12 17  1  0  0  0  0
 12 18  1  6  0  0  0
 13 14  1  0  0  0  0
 14 15  1  0  0  0  0
 14 19  1  6  0  0  0
 15 16  1  0  0  0  0
 15 30  1  1  0  0  0
 16 17  1  0  0  0  0
 16 20  1  1  0  0  0
 17 21  1  1  0  0  0
 22 23  1  0  0  0  0
 22 30  1  1  0  0  0
 22 32  1  0  0  0  0
 23 24  1  0  0  0  0
 23 28  1  6  0  0  0
 24 25  1  0  0  0  0
 25 26  1  0  0  0  0
 25 31  1  1  0  0  0
 26 27  1  1  0  0  0
 26 32  1  0  0  0  0
 27 29  1  0  0  0  0
M  CHG  5   8   1  18   1  19   1  28   1  29   1
M  END
>  <CHROM.1>
-147.87769922,-12.48376997,0.43970520,179.05695815,-170.40182767,-176.71087571
-151.70418687,-29.69167593,72.88953068,66.39663017,-69.98917087,-129.89686192
156.92586702,-59.50117594,161.79220771,71.75504063,-1.92334521,5.57434475
4.14955145,2.99637302,0.67499176,-1.85827458

>  <Name>
1tob

>  <RI>
0

>  <Rbt.Current_Directory>
/home/itssahil/PROJECTS/Mol_Feturizer/New_Systems/rnas/1tob

>  <Rbt.Executable>
rbdock ($Id: //depot/dev/client3/rdock/2013.1/src/exe/rbdock.cxx#4 $)

>  <Rbt.Library>
libRbt.so (2013.1, Build901 2013/11/27)

>  <Rbt.Parameter_File>
/export/apps/rDock/src/rDock_2013.1_src/data/scripts/dock_solv.prm

>  <Rbt.Receptor>
prm/pocket_docking_5.prm

>  <SCORE>
-44.8049

>  <SCORE.INTER>
-46.4653

>  <SCORE.INTER.CONST>
1

>  <SCORE.INTER.POLAR>
-7.30911

>  <SCORE.INTER.ROT>
6

>  <SCORE.INTER.SOLV>
37.9967

>  <SCORE.INTER.VDW>
-26.8788

>  <SCORE.INTER.norm>
-1.45204

>  <SCORE.INTRA>
1.66039

>  <SCORE.INTRA.DIHEDRAL>
6.00596

>  <SCORE.INTRA.DIHEDRAL.0>
22.9177

>  <SCORE.INTRA.POLAR>
-2.28048

>  <SCORE.INTRA.POLAR.0>
-0.311208

>  <SCORE.INTRA.REPUL>
0

>  <SCORE.INTRA.REPUL.0>
0

>  <SCORE.INTRA.SOLV>
5.37146

>  <SCORE.INTRA.SOLV.lig_0>
-132.657

>  <SCORE.INTRA.VDW>
3.7253

>  <SCORE.INTRA.VDW.0>
-4.68867

>  <SCORE.INTRA.norm>
0.0518872

>  <SCORE.RESTR>
0

>  <SCORE.RESTR.CAVITY>
0

>  <SCORE.RESTR.norm>
0

>  <SCORE.SYSTEM>
0

>  <SCORE.SYSTEM.CONST>
0

>  <SCORE.SYSTEM.DIHEDRAL>
0

>  <SCORE.SYSTEM.SOLV>
0

>  <SCORE.SYSTEM.norm>
0

>  <SCORE.heavy>
32

>  <SCORE.norm>
-1.40015

>  <RMSD>
8.748

$$$$
1tob
 OpenBabel11021811413D
libRbt.so/2013.1/901 2013/11/27
 32 34  0  0  0  0  0  0  0  0999 V2000
   -5.7293    5.9652    3.5700 C   0  0  2  0  0  0  0  0  0  0  0  0
   -6.8288    6.7400    2.8476 C   0  0  1  0  0  0  0  0  0  0  0  0
   -6.4635    8.2171    2.7919 C   0  0  2  0  0  0  0  0  0  0  0  0
   -6.2053    8.7279    4.2044 C   0  0  1  0  0  0  0  0  0  0  0  0
   -5.1275    7.8796    4.8736 C   0  0  1  0  0  0  0  0  0  0  0  0
   -4.8796    8.2907    6.3117 C   0  0  0  0  0  0  0  0  0  0  0  0
   -6.9840    6.2351    1.5290 O   0  0  0  0  0  0  0  0  0  0  0  0
   -7.5122    9.0008    2.1040 N   0  3  0  0  0  0  0  0  0  0  0  0
   -5.7966   10.0883    4.1564 O   0  0  0  0  0  0  0  0  0  0  0  0
   -5.5275    6.4921    4.8874 O   0  0  0  0  0  0  0  0  0  0  0  0
   -3.5180    8.1118    6.6751 O   0  0  0  0  0  0  0  0  0  0  0  0
   -3.8493    4.4827    1.1762 C   0  0  2  0  0  0  0  0  0  0  0  0
   -3.1148    3.1670    0.9579 C   0  0  0  0  0  0  0  0  0  0  0  0
   -1.6778    3.2658    1.4707 C   0  0  1  0  0  0  0  0  0  0  0  0
   -1.6851    3.5970    2.9614 C   0  0  2  0  0  0  0  0  0  0  0  0
   -2.4266    4.9131    3.2008 C   0  0  1  0  0  0  0  0  0  0  0  0
   -3.8528    4.8186    2.6596 C   0  0  1  0  0  0  0  0  0  0  0  0
   -5.2503    4.3827    0.7120 N   0  3  0  0  0  0  0  0  0  0  0  0
   -0.9481    2.0055    1.1751 N   0  3  0  0  0  0  0  0  0  0  0  0
   -2.4555    5.2037    4.5918 O   0  0  0  0  0  0  0  0  0  0  0  0
   -4.5397    6.0650    2.8730 O   0  0  0  0  0  0  0  0  0  0  0  0
    0.1731    2.5627    4.0755 C   0  0  1  0  0  0  0  0  0  0  0  0
    0.6188    2.8924    5.5012 C   0  0  1  0  0  0  0  0  0  0  0  0
    1.7541    3.9047    5.4780 C   0  0  0  0  0  0  0  0  0  0  0  0
    2.8836    3.3709    4.6122 C   0  0  1  0  0  0  0  0  0  0  0  0
    2.3542    3.0460    3.2158 C   0  0  1  0  0  0  0  0  0  0  0  0
    3.4178    2.4513    2.3108 C   0  0  0  0  0  0  0  0  0  0  0  0
   -0.5232    3.3573    6.3235 N   0  3  0  0  0  0  0  0  0  0  0  0
    3.7867    1.0795    2.7349 N   0  3  0  0  0  0  0  0  0  0  0  0
   -0.3338    3.6972    3.4559 O   0  0  0  0  0  0  0  0  0  0  0  0
    3.9240    4.3336    4.5241 O   0  0  0  0  0  0  0  0  0  0  0  0
    1.2806    2.0842    3.3023 O   0  0  0  0  0  0  0  0  0  0  0  0
  1  2  1  0  0  0  0
  1 10  1  0  0  0  0
  1 21  1  6  0  0  0
  2  3  1  0  0  0  0
  2  7  1  6  0  0  0
  3  4  1  0  0  0  0
  3  8  1  1  0  0  0
  4  5  1  0  0  0  0
  4  9  1  6  0  0  0
  5  6  1  1  0  0  0
  5 10  1  0  0  0  0
  6 11  1  0  0  0  0
 12 13  1  0  0  0  0
 12 17  1  0  0  0  0
 12 18  1  1  0  0  0
 13 14  1  0  0  0  0
 14 15  1  0  0  0  0
 14 19  1  1  0  0  0
 15 16  1  0  0  0  0
 15 30  1  6  0  0  0
 16 17  1  0  0  0  0
 16 20  1  1  0  0  0
 17 21  1  6  0  0  0
 22 23  1  0  0  0  0
 22 30  1  6  0  0  0
 22 32  1  0  0  0  0
 23 24  1  0  0  0  0
 23 28  1  1  0  0  0
 24 25  1  0  0  0  0
 25 26  1  0  0  0  0
 25 31  1  6  0  0  0
 26 27  1  6  0  0  0
 26 32  1  0  0  0  0
 27 29  1  0  0  0  0
M  CHG  5   8   1  18   1  19   1  28   1  29   1
M  END
>  <CHROM.1>
-131.83326356,171.84834133,60.24998452,70.39578242,-146.76620614,159.66055818
36.22717125,38.73863109,-97.17251913,-173.26640711,113.13814123,-122.71613173
87.61713579,-76.79025198,70.11186567,89.89555420,-2.35347821,5.03355583,3.47985511
2.82183218,-0.46064270,0.89176923

>  <Name>
1tob

>  <RI>
0

>  <Rbt.Current_Directory>
/home/itssahil/PROJECTS/Mol_Feturizer/New_Systems/rnas/1tob

>  <Rbt.Executable>
rbdock ($Id: //depot/dev/client3/rdock/2013.1/src/exe/rbdock.cxx#4 $)

>  <Rbt.Library>
libRbt.so (2013.1, Build901 2013/11/27)

>  <Rbt.Parameter_File>
/export/apps/rDock/src/rDock_2013.1_src/data/scripts/dock_solv.prm

>  <Rbt.Receptor>
prm/blind_docking_100.prm

>  <SCORE>
-7.61769

>  <SCORE.INTER>
-24.9353

>  <SCORE.INTER.CONST>
1

>  <SCORE.INTER.POLAR>
-4.13363

>  <SCORE.INTER.ROT>
6

>  <SCORE.INTER.SOLV>
30.4278

>  <SCORE.INTER.VDW>
-20.5873

>  <SCORE.INTER.norm>
-0.779227

>  <SCORE.INTRA>
1.52765

>  <SCORE.INTRA.DIHEDRAL>
15.756

>  <SCORE.INTRA.DIHEDRAL.0>
22.9177

>  <SCORE.INTRA.POLAR>
-2.05647

>  <SCORE.INTRA.POLAR.0>
-0.311208

>  <SCORE.INTRA.REPUL>
0

>  <SCORE.INTRA.REPUL.0>
0

>  <SCORE.INTRA.SOLV>
1.55468

>  <SCORE.INTRA.SOLV.lig_0>
-132.657

>  <SCORE.INTRA.VDW>
-0.135716

>  <SCORE.INTRA.VDW.0>
-4.68867

>  <SCORE.INTRA.norm>
0.047739

>  <SCORE.RESTR>
15.7899

>  <SCORE.RESTR.CAVITY>
15.7899

>  <SCORE.RESTR.norm>
0.493436

>  <SCORE.SYSTEM>
0

>  <SCORE.SYSTEM.CONST>
0

>  <SCORE.SYSTEM.DIHEDRAL>
0

>  <SCORE.SYSTEM.SOLV>
0

>  <SCORE.SYSTEM.norm>
0

>  <SCORE.heavy>
32

>  <SCORE.norm>
-0.238053

>  <RMSD>
8.749

$$$$
1tob
 OpenBabel11021811413D
libRbt.so/2013.1/901 2013/11/27
 32 34  0  0  0  0  0  0  0  0999 V2000
   -6.4810    5.9575    2.3308 C   0  0  2  0  0  0  0  0  0  0  0  0
   -6.8336    5.1876    1.0603 C   0  0  1  0  0  0  0  0  0  0  0  0
   -7.4088    6.1438    0.0243 C   0  0  2  0  0  0  0  0  0  0  0  0
   -8.6005    6.8812    0.6231 C   0  0  1  0  0  0  0  0  0  0  0  0
   -8.1799    7.5890    1.9081 C   0  0  1  0  0  0  0  0  0  0  0  0
   -9.3425    8.2790    2.5942 C   0  0  0  0  0  0  0  0  0  0  0  0
   -5.6693    4.5620    0.5402 O   0  0  0  0  0  0  0  0  0  0  0  0
   -7.7693    5.4293   -1.2194 N   0  3  0  0  0  0  0  0  0  0  0  0
   -9.1015    7.8257   -0.3134 O   0  0  0  0  0  0  0  0  0  0  0  0
   -7.6360    6.6333    2.8441 O   0  0  0  0  0  0  0  0  0  0  0  0
   -9.8891    9.3072    1.7805 O   0  0  0  0  0  0  0  0  0  0  0  0
   -4.6265    7.0825    4.3087 C   0  0  2  0  0  0  0  0  0  0  0  0
   -3.3572    6.9485    5.1389 C   0  0  0  0  0  0  0  0  0  0  0  0
   -2.7825    5.5374    5.0126 C   0  0  1  0  0  0  0  0  0  0  0  0
   -2.4605    5.2421    3.5494 C   0  0  2  0  0  0  0  0  0  0  0  0
   -3.7236    5.3799    2.6981 C   0  0  1  0  0  0  0  0  0  0  0  0
   -4.3102    6.7828    2.8515 C   0  0  1  0  0  0  0  0  0  0  0  0
   -5.1691    8.4556    4.4009 N   0  3  0  0  0  0  0  0  0  0  0  0
   -1.5938    5.3952    5.8929 N   0  3  0  0  0  0  0  0  0  0  0  0
   -3.4142    5.1317    1.3332 O   0  0  0  0  0  0  0  0  0  0  0  0
   -5.5071    6.9008    2.0614 O   0  0  0  0  0  0  0  0  0  0  0  0
   -1.5176    3.5421    2.1406 C   0  0  1  0  0  0  0  0  0  0  0  0
   -2.3013    2.3152    1.6711 C   0  0  1  0  0  0  0  0  0  0  0  0
   -2.0041    1.1240    2.5695 C   0  0  0  0  0  0  0  0  0  0  0  0
   -0.5029    0.8890    2.6094 C   0  0  1  0  0  0  0  0  0  0  0  0
    0.2070    2.1633    3.0652 C   0  0  1  0  0  0  0  0  0  0  0  0
    1.7181    2.0202    3.0728 C   0  0  0  0  0  0  0  0  0  0  0  0
   -3.7527    2.6056    1.5957 N   0  3  0  0  0  0  0  0  0  0  0  0
    2.3658    3.1373    3.8010 N   0  3  0  0  0  0  0  0  0  0  0  0
   -1.9213    3.9109    3.4169 O   0  0  0  0  0  0  0  0  0  0  0  0
   -0.2023   -0.1773    3.4979 O   0  0  0  0  0  0  0  0  0  0  0  0
   -0.1140    3.2561    2.1774 O   0  0  0  0  0  0  0  0  0  0  0  0
  1  2  1  0  0  0  0
  1 10  1  0  0  0  0
  1 21  1  6  0  0  0
  2  3  1  0  0  0  0
  2  7  1  6  0  0  0
  3  4  1  0  0  0  0
  3  8  1  6  0  0  0
  4  5  1  0  0  0  0
  4  9  1  6  0  0  0
  5  6  1  1  0  0  0
  5 10  1  0  0  0  0
  6 11  1  0  0  0  0
 12 13  1  0  0  0  0
 12 17  1  0  0  0  0
 12 18  1  6  0  0  0
 13 14  1  0  0  0  0
 14 15  1  0  0  0  0
 14 19  1  1  0  0  0
 15 16  1  0  0  0  0
 15 30  1  1  0  0  0
 16 17  1  0  0  0  0
 16 20  1  6  0  0  0
 17 21  1  6  0  0  0
 22 23  1  0  0  0  0
 22 30  1  1  0  0  0
 22 32  1  0  0  0  0
 23 24  1  0  0  0  0
 23 28  1  1  0  0  0
 24 25  1  0  0  0  0
 25 26  1  0  0  0  0
 25 31  1  1  0  0  0
 26 27  1  6  0  0  0
 26 32  1  0  0  0  0
 27 29  1  0  0  0  0
M  CHG  5   8   1  18   1  19   1  28   1  29   1
M  END
>  <CHROM.1>
-122.88400715,174.67994222,-58.68360926,71.44708412,-62.93173342,-55.21320724
37.19739706,-42.62351456,-176.63278591,-166.96293662,-66.41552940,-120.28229892
160.99214706,52.67305912,-166.99505504,-42.44141476,-4.13431683,5.05531003
2.44733027,2.88567128,-0.53909023,0.74610663

>  <Name>
1tob

>  <RI>
0

>  <Rbt.Current_Directory>
/home/itssahil/PROJECTS/Mol_Feturizer/New_Systems/rnas/1tob

>  <Rbt.Executable>
rbdock ($Id: //depot/dev/client3/rdock/2013.1/src/exe/rbdock.cxx#4 $)

>  <Rbt.Library>
libRbt.so (2013.1, Build901 2013/11/27)

>  <Rbt.Parameter_File>
/export/apps/rDock/src/rDock_2013.1_src/data/scripts/dock_solv.prm

>  <Rbt.Receptor>
prm/pocket_docking_4.prm

>  <SCORE>
-47.7576

>  <SCORE.INTER>
-46.8884

>  <SCORE.INTER.CONST>
1

>  <SCORE.INTER.POLAR>
-5.82573

>  <SCORE.INTER.ROT>
6

>  <SCORE.INTER.SOLV>
26.7588

>  <SCORE.INTER.VDW>
-28.3594

>  <SCORE.INTER.norm>
-1.46526

>  <SCORE.INTRA>
-0.961198

>  <SCORE.INTRA.DIHEDRAL>
-2.40409

>  <SCORE.INTRA.DIHEDRAL.0>
22.9177

>  <SCORE.INTRA.POLAR>
-1.41566

>  <SCORE.INTRA.POLAR.0>
-0.311208

>  <SCORE.INTRA.REPUL>
0

>  <SCORE.INTRA.REPUL.0>
0

>  <SCORE.INTRA.SOLV>
1.09529

>  <SCORE.INTRA.SOLV.lig_0>
-132.657

>  <SCORE.INTRA.VDW>
4.50646

>  <SCORE.INTRA.VDW.0>
-4.68867

>  <SCORE.INTRA.norm>
-0.0300374

>  <SCORE.RESTR>
0.0920324

>  <SCORE.RESTR.CAVITY>
0.0920324

>  <SCORE.RESTR.norm>
0.00287601

>  <SCORE.SYSTEM>
0

>  <SCORE.SYSTEM.CONST>
0

>  <SCORE.SYSTEM.DIHEDRAL>
0

>  <SCORE.SYSTEM.SOLV>
0

>  <SCORE.SYSTEM.norm>
0

>  <SCORE.heavy>
32

>  <SCORE.norm>
-1.49242

>  <RMSD>
8.751

$$$$
1tob
 OpenBabel11021811413D
libRbt.so/2013.1/901 2013/11/27
 32 34  0  0  0  0  0  0  0  0999 V2000
   -7.0162    9.1027    3.1506 C   0  0  2  0  0  0  0  0  0  0  0  0
   -8.2950    9.6991    3.7339 C   0  0  1  0  0  0  0  0  0  0  0  0
   -9.4726    8.7825    3.4313 C   0  0  2  0  0  0  0  0  0  0  0  0
   -9.5575    8.5475    1.9279 C   0  0  1  0  0  0  0  0  0  0  0  0
   -8.2320    7.9922    1.4143 C   0  0  1  0  0  0  0  0  0  0  0  0
   -8.2274    7.8090   -0.0907 C   0  0  0  0  0  0  0  0  0  0  0  0
   -8.1554    9.8512    5.1392 O   0  0  0  0  0  0  0  0  0  0  0  0
  -10.7320    9.3339    3.9764 N   0  3  0  0  0  0  0  0  0  0  0  0
  -10.6118    7.6381    1.6423 O   0  0  0  0  0  0  0  0  0  0  0  0
   -7.1565    8.8994    1.7388 O   0  0  0  0  0  0  0  0  0  0  0  0
   -7.0124    7.2250   -0.5387 O   0  0  0  0  0  0  0  0  0  0  0  0
   -5.0645    7.6690    5.4704 C   0  0  2  0  0  0  0  0  0  0  0  0
   -3.5895    7.3783    5.7114 C   0  0  0  0  0  0  0  0  0  0  0  0
   -3.2192    6.0010    5.1606 C   0  0  1  0  0  0  0  0  0  0  0  0
   -3.5032    5.9533    3.6610 C   0  0  2  0  0  0  0  0  0  0  0  0
   -4.9804    6.2512    3.3989 C   0  0  1  0  0  0  0  0  0  0  0  0
   -5.3518    7.6160    3.9778 C   0  0  1  0  0  0  0  0  0  0  0  0
   -5.4211    9.0143    5.9719 N   0  3  0  0  0  0  0  0  0  0  0  0
   -1.8001    5.6949    5.4773 N   0  3  0  0  0  0  0  0  0  0  0  0
   -5.2348    6.2334    2.0007 O   0  0  0  0  0  0  0  0  0  0  0  0
   -6.7461    7.8831    3.7426 O   0  0  0  0  0  0  0  0  0  0  0  0
   -2.5673    4.6492    1.8757 C   0  0  1  0  0  0  0  0  0  0  0  0
   -3.1142    3.4927    1.0370 C   0  0  1  0  0  0  0  0  0  0  0  0
   -2.7595    2.1607    1.6806 C   0  0  0  0  0  0  0  0  0  0  0  0
   -1.2547    2.0869    1.8826 C   0  0  1  0  0  0  0  0  0  0  0  0
   -0.7855    3.2845    2.7079 C   0  0  1  0  0  0  0  0  0  0  0  0
    0.7200    3.3082    2.9006 C   0  0  0  0  0  0  0  0  0  0  0  0
   -4.5735    3.6337    0.8204 N   0  3  0  0  0  0  0  0  0  0  0  0
    1.4016    3.9828    1.7701 N   0  3  0  0  0  0  0  0  0  0  0  0
   -3.1619    4.6562    3.1304 O   0  0  0  0  0  0  0  0  0  0  0  0
   -0.9128    0.8781    2.5449 O   0  0  0  0  0  0  0  0  0  0  0  0
   -1.1511    4.5165    2.0492 O   0  0  0  0  0  0  0  0  0  0  0  0
  1  2  1  0  0  0  0
  1 10  1  0  0  0  0
  1 21  1  1  0  0  0
  2  3  1  0  0  0  0
  2  7  1  1  0  0  0
  3  4  1  0  0  0  0
  3  8  1  6  0  0  0
  4  5  1  0  0  0  0
  4  9  1  1  0  0  0
  5  6  1  6  0  0  0
  5 10  1  0  0  0  0
  6 11  1  0  0  0  0
 12 13  1  0  0  0  0
 12 17  1  0  0  0  0
 12 18  1  6  0  0  0
 13 14  1  0  0  0  0
 14 15  1  0  0  0  0
 14 19  1  6  0  0  0
 15 16  1  0  0  0  0
 15 30  1  1  0  0  0
 16 17  1  0  0  0  0
 16 20  1  6  0  0  0
 17 21  1  1  0  0  0
 22 23  1  0  0  0  0
 22 30  1  1  0  0  0
 22 32  1  0  0  0  0
 23 24  1  0  0  0  0
 23 28  1  1  0  0  0
 24 25  1  0  0  0  0
 25 26  1  0  0  0  0
 25 31  1  1  0  0  0
 26 27  1  6  0  0  0
 26 32  1  0  0  0  0
 27 29  1  0  0  0  0
M  CHG  5   8   1  18   1  19   1  28   1  29   1
M  END
>  <CHROM.1>
-142.61108219,176.30710238,-66.32893881,175.55805422,-176.86183303,172.18663526
-42.56922086,18.16352518,-141.11560479,-174.95436308,109.43799571,-139.91939936
-14.81398837,-58.55716084,86.30762651,-161.39309290,-4.94069497,6.29321183
2.87931425,-2.75786398,0.50333474,-2.17653025

>  <Name>
1tob

>  <RI>
0

>  <Rbt.Current_Directory>
/home/itssahil/PROJECTS/Mol_Feturizer/New_Systems/rnas/1tob

>  <Rbt.Executable>
rbdock ($Id: //depot/dev/client3/rdock/2013.1/src/exe/rbdock.cxx#4 $)

>  <Rbt.Library>
libRbt.so (2013.1, Build901 2013/11/27)

>  <Rbt.Parameter_File>
/export/apps/rDock/src/rDock_2013.1_src/data/scripts/dock_solv.prm

>  <Rbt.Receptor>
prm/pocket_docking_3.prm

>  <SCORE>
-52.551

>  <SCORE.INTER>
-52.2397

>  <SCORE.INTER.CONST>
1

>  <SCORE.INTER.POLAR>
-7.22588

>  <SCORE.INTER.ROT>
6

>  <SCORE.INTER.SOLV>
35.7965

>  <SCORE.INTER.VDW>
-30.2723

>  <SCORE.INTER.norm>
-1.63249

>  <SCORE.INTRA>
-0.612953

>  <SCORE.INTRA.DIHEDRAL>
9.70293

>  <SCORE.INTRA.DIHEDRAL.0>
22.9177

>  <SCORE.INTRA.POLAR>
-1.75504

>  <SCORE.INTRA.POLAR.0>
-0.311208

>  <SCORE.INTRA.REPUL>
0

>  <SCORE.INTRA.REPUL.0>
0

>  <SCORE.INTRA.SOLV>
0.157892

>  <SCORE.INTRA.SOLV.lig_0>
-132.657

>  <SCORE.INTRA.VDW>
0.423773

>  <SCORE.INTRA.VDW.0>
-4.68867

>  <SCORE.INTRA.norm>
-0.0191548

>  <SCORE.RESTR>
0.301633

>  <SCORE.RESTR.CAVITY>
0.301633

>  <SCORE.RESTR.norm>
0.00942603

>  <SCORE.SYSTEM>
0

>  <SCORE.SYSTEM.CONST>
0

>  <SCORE.SYSTEM.DIHEDRAL>
0

>  <SCORE.SYSTEM.SOLV>
0

>  <SCORE.SYSTEM.norm>
0

>  <SCORE.heavy>
32

>  <SCORE.norm>
-1.64222

>  <RMSD>
8.753

$$$$
1tob
 OpenBabel11021811413D
libRbt.so/2013.1/901 2013/11/27
 32 34  0  0  0  0  0  0  0  0999 V2000
   -3.8662    5.2674    1.1679 C   0  0  2  0  0  0  0  0  0  0  0  0
   -4.0716    6.7317    0.7874 C   0  0  1  0  0  0  0  0  0  0  0  0
   -3.0528    7.5983    1.5150 C   0  0  2  0  0  0  0  0  0  0  0  0
   -3.1595    7.3529    3.0153 C   0  0  1  0  0  0  0  0  0  0  0  0
   -2.9856    5.8657    3.3110 C   0  0  1  0  0  0  0  0  0  0  0  0
   -3.1583    5.5459    4.7829 C   0  0  0  0  0  0  0  0  0  0  0  0
   -3.9182    6.8884   -0.6160 O   0  0  0  0  0  0  0  0  0  0  0  0
   -3.2275    9.0270    1.1751 N   0  3  0  0  0  0  0  0  0  0  0  0
   -2.1659    8.1060    3.6976 O   0  0  0  0  0  0  0  0  0  0  0  0
   -3.9720    5.0988    2.5872 O   0  0  0  0  0  0  0  0  0  0  0  0
   -2.1308    6.1362    5.5663 O   0  0  0  0  0  0  0  0  0  0  0  0
   -2.5473    2.5109    1.4144 C   0  0  2  0  0  0  0  0  0  0  0  0
   -1.8677    1.5191    2.3486 C   0  0  0  0  0  0  0  0  0  0  0  0
   -0.3574    1.5102    2.1115 C   0  0  1  0  0  0  0  0  0  0  0  0
    0.2106    2.9058    2.3596 C   0  0  2  0  0  0  0  0  0  0  0  0
   -0.4669    3.9180    1.4344 C   0  0  1  0  0  0  0  0  0  0  0  0
   -1.9791    3.9011    1.6548 C   0  0  1  0  0  0  0  0  0  0  0  0
   -4.0053    2.5479    1.6620 N   0  3  0  0  0  0  0  0  0  0  0  0
    0.2826    0.4788    2.9686 N   0  3  0  0  0  0  0  0  0  0  0  0
    0.0443    5.2197    1.6877 O   0  0  0  0  0  0  0  0  0  0  0  0
   -2.6121    4.8433    0.7702 O   0  0  0  0  0  0  0  0  0  0  0  0
    2.3002    4.0827    2.4707 C   0  0  1  0  0  0  0  0  0  0  0  0
    3.8051    3.8274    2.5710 C   0  0  1  0  0  0  0  0  0  0  0  0
    4.0989    2.8385    3.6891 C   0  0  0  0  0  0  0  0  0  0  0  0
    3.4974    3.3555    4.9858 C   0  0  1  0  0  0  0  0  0  0  0  0
    2.0016    3.6055    4.7973 C   0  0  1  0  0  0  0  0  0  0  0  0
    1.3436    4.1802    6.0387 C   0  0  0  0  0  0  0  0  0  0  0  0
    4.3580    3.3771    1.2718 N   0  3  0  0  0  0  0  0  0  0  0  0
   -0.0398    4.6338    5.7595 N   0  3  0  0  0  0  0  0  0  0  0  0
    1.6353    2.9110    2.1345 O   0  0  0  0  0  0  0  0  0  0  0  0
    3.7035    2.4113    6.0265 O   0  0  0  0  0  0  0  0  0  0  0  0
    1.7862    4.5481    3.7247 O   0  0  0  0  0  0  0  0  0  0  0  0
  1  2  1  0  0  0  0
  1 10  1  0  0  0  0
  1 21  1  1  0  0  0
  2  3  1  0  0  0  0
  2  7  1  6  0  0  0
  3  4  1  0  0  0  0
  3  8  1  1  0  0  0
  4  5  1  0  0  0  0
  4  9  1  1  0  0  0
  5  6  1  1  0  0  0
  5 10  1  0  0  0  0
  6 11  1  0  0  0  0
 12 13  1  0  0  0  0
 12 17  1  0  0  0  0
 12 18  1  1  0  0  0
 13 14  1  0  0  0  0
 14 15  1  0  0  0  0
 14 19  1  1  0  0  0
 15 16  1  0  0  0  0
 15 30  1  6  0  0  0
 16 17  1  0  0  0  0
 16 20  1  1  0  0  0
 17 21  1  6  0  0  0
 22 23  1  0  0  0  0
 22 30  1  1  0  0  0
 22 32  1  0  0  0  0
 23 24  1  0  0  0  0
 23 28  1  6  0  0  0
 24 25  1  0  0  0  0
 25 26  1  0  0  0  0
 25 31  1  1  0  0  0
 26 27  1  1  0  0  0
 26 32  1  0  0  0  0
 27 29  1  0  0  0  0
M  CHG  5   8   1  18   1  19   1  28   1  29   1
M  END
>  <CHROM.1>
144.73076688,178.44204541,173.44797873,66.26243711,-65.65834800,47.00281151
139.01021228,172.51013465,-173.02400654,89.69816875,79.49734684,163.65153954
38.92913378,-173.16518806,169.98906041,96.03167548,-0.64688978,4.49426258
2.78770365,2.90303193,-0.52768036,0.58083052

>  <Name>
1tob

>  <RI>
0

>  <Rbt.Current_Directory>
/home/itssahil/PROJECTS/Mol_Feturizer/New_Systems/rnas/1tob

>  <Rbt.Executable>
rbdock ($Id: //depot/dev/client3/rdock/2013.1/src/exe/rbdock.cxx#4 $)

>  <Rbt.Library>
libRbt.so (2013.1, Build901 2013/11/27)

>  <Rbt.Parameter_File>
/export/apps/rDock/src/rDock_2013.1_src/data/scripts/dock_solv.prm

>  <Rbt.Receptor>
prm/blind_docking_20.prm

>  <SCORE>
-24.0201

>  <SCORE.INTER>
-43.2937

>  <SCORE.INTER.CONST>
1

>  <SCORE.INTER.POLAR>
-5.44666

>  <SCORE.INTER.ROT>
6

>  <SCORE.INTER.SOLV>
38.2804

>  <SCORE.INTER.VDW>
-31.0671

>  <SCORE.INTER.norm>
-1.35293

>  <SCORE.INTRA>
10.5828

>  <SCORE.INTRA.DIHEDRAL>
-3.52768

>  <SCORE.INTRA.DIHEDRAL.0>
22.9177

>  <SCORE.INTRA.POLAR>
-1.34977

>  <SCORE.INTRA.POLAR.0>
-0.311208

>  <SCORE.INTRA.REPUL>
0

>  <SCORE.INTRA.REPUL.0>
0

>  <SCORE.INTRA.SOLV>
2.96531

>  <SCORE.INTRA.SOLV.lig_0>
-132.657

>  <SCORE.INTRA.VDW>
15.4532

>  <SCORE.INTRA.VDW.0>
-4.68867

>  <SCORE.INTRA.norm>
0.330714

>  <SCORE.RESTR>
8.69068

>  <SCORE.RESTR.CAVITY>
8.69068

>  <SCORE.RESTR.norm>
0.271584

>  <SCORE.SYSTEM>
0

>  <SCORE.SYSTEM.CONST>
0

>  <SCORE.SYSTEM.DIHEDRAL>
0

>  <SCORE.SYSTEM.SOLV>
0

>  <SCORE.SYSTEM.norm>
0

>  <SCORE.heavy>
32

>  <SCORE.norm>
-0.75063

>  <RMSD>
8.756

$$$$
1tob
 OpenBabel11021811413D
libRbt.so/2013.1/901 2013/11/27
 32 34  0  0  0  0  0  0  0  0999 V2000
   -3.5665    6.9418    1.6171 C   0  0  2  0  0  0  0  0  0  0  0  0
   -4.5268    7.6624    0.6739 C   0  0  1  0  0  0  0  0  0  0  0  0
   -5.9201    7.0623    0.8041 C   0  0  2  0  0  0  0  0  0  0  0  0
   -5.8503    5.5614    0.5493 C   0  0  1  0  0  0  0  0  0  0  0  0
   -4.8421    4.9206    1.4992 C   0  0  1  0  0  0  0  0  0  0  0  0
   -4.6702    3.4363    1.2427 C   0  0  0  0  0  0  0  0  0  0  0  0
   -4.5689    9.0450    0.9971 O   0  0  0  0  0  0  0  0  0  0  0  0
   -6.8769    7.7328   -0.1027 N   0  3  0  0  0  0  0  0  0  0  0  0
   -7.1345    4.9817    0.7363 O   0  0  0  0  0  0  0  0  0  0  0  0
   -3.5466    5.5368    1.3347 O   0  0  0  0  0  0  0  0  0  0  0  0
   -3.7685    3.1957    0.1717 O   0  0  0  0  0  0  0  0  0  0  0  0
   -3.6185    6.5930    5.2663 C   0  0  2  0  0  0  0  0  0  0  0  0
   -2.5488    6.2772    6.3027 C   0  0  0  0  0  0  0  0  0  0  0  0
   -1.7566    5.0357    5.8918 C   0  0  1  0  0  0  0  0  0  0  0  0
   -1.0912    5.2747    4.5383 C   0  0  2  0  0  0  0  0  0  0  0  0
   -2.1512    5.6016    3.4852 C   0  0  1  0  0  0  0  0  0  0  0  0
   -2.9593    6.8254    3.9155 C   0  0  1  0  0  0  0  0  0  0  0  0
   -4.3667    7.8126    5.6420 N   0  3  0  0  0  0  0  0  0  0  0  0
   -0.7742    4.6896    6.9515 N   0  3  0  0  0  0  0  0  0  0  0  0
   -1.5259    5.8507    2.2334 O   0  0  0  0  0  0  0  0  0  0  0  0
   -3.9652    7.1178    2.9289 O   0  0  0  0  0  0  0  0  0  0  0  0
    0.0533    4.0665    2.8079 C   0  0  1  0  0  0  0  0  0  0  0  0
   -0.1873    2.6724    2.2263 C   0  0  1  0  0  0  0  0  0  0  0  0
    0.6641    1.6431    2.9543 C   0  0  0  0  0  0  0  0  0  0  0  0
    2.1226    2.0669    2.8944 C   0  0  1  0  0  0  0  0  0  0  0  0
    2.2754    3.4736    3.4717 C   0  0  1  0  0  0  0  0  0  0  0  0
    3.7015    3.9874    3.3908 C   0  0  0  0  0  0  0  0  0  0  0  0
   -1.6272    2.3229    2.2556 N   0  3  0  0  0  0  0  0  0  0  0  0
    4.6167    2.9636    2.8321 N   0  3  0  0  0  0  0  0  0  0  0  0
   -0.3441    4.1077    4.1377 O   0  0  0  0  0  0  0  0  0  0  0  0
    2.9241    1.1524    3.6280 O   0  0  0  0  0  0  0  0  0  0  0  0
    1.4446    4.4032    2.7431 O   0  0  0  0  0  0  0  0  0  0  0  0
  1  2  1  0  0  0  0
  1 10  1  0  0  0  0
  1 21  1  1  0  0  0
  2  3  1  0  0  0  0
  2  7  1  1  0  0  0
  3  4  1  0  0  0  0
  3  8  1  6  0  0  0
  4  5  1  0  0  0  0
  4  9  1  1  0  0  0
  5  6  1  6  0  0  0
  5 10  1  0  0  0  0
  6 11  1  0  0  0  0
 12 13  1  0  0  0  0
 12 17  1  0  0  0  0
 12 18  1  1  0  0  0
 13 14  1  0  0  0  0
 14 15  1  0  0  0  0
 14 19  1  1  0  0  0
 15 16  1  0  0  0  0
 15 30  1  6  0  0  0
 16 17  1  0  0  0  0
 16 20  1  6  0  0  0
 17 21  1  6  0  0  0
 22 23  1  0  0  0  0
 22 30  1  1  0  0  0
 22 32  1  0  0  0  0
 23 24  1  0  0  0  0
 23 28  1  1  0  0  0
 24 25  1  0  0  0  0
 25 26  1  0  0  0  0
 25 31  1  1  0  0  0
 26 27  1  6  0  0  0
 26 32  1  0  0  0  0
 27 29  1  0  0  0  0
M  CHG  5   8   1  18   1  19   1  28   1  29   1
M  END
>  <CHROM.1>
-162.97774854,172.03743229,178.42954205,174.00264706,82.12616301,-55.26557688
63.91017796,-164.48996460,165.75332905,-68.45828342,-160.83913054,-136.31145764
71.66036792,58.30015307,-3.00014624,-169.82262057,-2.01866705,4.99595859
2.78988972,3.10620353,-0.52495006,0.99485308

>  <Name>
1tob

>  <RI>
0

>  <Rbt.Current_Directory>
/home/itssahil/PROJECTS/Mol_Feturizer/New_Systems/rnas/1tob

>  <Rbt.Executable>
rbdock ($Id: //depot/dev/client3/rdock/2013.1/src/exe/rbdock.cxx#4 $)

>  <Rbt.Library>
libRbt.so (2013.1, Build901 2013/11/27)

>  <Rbt.Parameter_File>
/export/apps/rDock/src/rDock_2013.1_src/data/scripts/dock_solv.prm

>  <Rbt.Receptor>
prm/blind_docking_60.prm

>  <SCORE>
-13.6615

>  <SCORE.INTER>
-25.745

>  <SCORE.INTER.CONST>
1

>  <SCORE.INTER.POLAR>
-3.46491

>  <SCORE.INTER.ROT>
6

>  <SCORE.INTER.SOLV>
22.6609

>  <SCORE.INTER.VDW>
-20.7673

>  <SCORE.INTER.norm>
-0.804533

>  <SCORE.INTRA>
9.40869

>  <SCORE.INTRA.DIHEDRAL>
-3.97126

>  <SCORE.INTRA.DIHEDRAL.0>
22.9177

>  <SCORE.INTRA.POLAR>
-1.45344

>  <SCORE.INTRA.POLAR.0>
-0.311208

>  <SCORE.INTRA.REPUL>
0

>  <SCORE.INTRA.REPUL.0>
0

>  <SCORE.INTRA.SOLV>
0.830842

>  <SCORE.INTRA.SOLV.lig_0>
-132.657

>  <SCORE.INTRA.VDW>
15.9206

>  <SCORE.INTRA.VDW.0>
-4.68867

>  <SCORE.INTRA.norm>
0.294022

>  <SCORE.RESTR>
2.67484

>  <SCORE.RESTR.CAVITY>
2.67484

>  <SCORE.RESTR.norm>
0.0835886

>  <SCORE.SYSTEM>
0

>  <SCORE.SYSTEM.CONST>
0

>  <SCORE.SYSTEM.DIHEDRAL>
0

>  <SCORE.SYSTEM.SOLV>
0

>  <SCORE.SYSTEM.norm>
0

>  <SCORE.heavy>
32

>  <SCORE.norm>
-0.426922

>  <RMSD>
8.756

$$$$
1tob
 OpenBabel11021811413D
libRbt.so/2013.1/901 2013/11/27
 32 34  0  0  0  0  0  0  0  0999 V2000
   -6.5507    8.7663    2.4016 C   0  0  2  0  0  0  0  0  0  0  0  0
   -7.7687    9.5930    2.8070 C   0  0  1  0  0  0  0  0  0  0  0  0
   -9.0264    8.7424    2.6937 C   0  0  2  0  0  0  0  0  0  0  0  0
   -9.1319    8.1811    1.2807 C   0  0  1  0  0  0  0  0  0  0  0  0
   -7.8636    7.4058    0.9348 C   0  0  1  0  0  0  0  0  0  0  0  0
   -7.8751    6.8862   -0.4894 C   0  0  0  0  0  0  0  0  0  0  0  0
   -7.6164   10.0467    4.1444 O   0  0  0  0  0  0  0  0  0  0  0  0
  -10.2293    9.5150    3.0725 N   0  3  0  0  0  0  0  0  0  0  0  0
  -10.2662    7.3301    1.1848 O   0  0  0  0  0  0  0  0  0  0  0  0
   -6.7083    8.2616    1.0695 O   0  0  0  0  0  0  0  0  0  0  0  0
   -8.5856    5.6601   -0.5888 O   0  0  0  0  0  0  0  0  0  0  0  0
   -4.9581    7.4188    5.1872 C   0  0  2  0  0  0  0  0  0  0  0  0
   -3.5240    7.1338    5.6119 C   0  0  0  0  0  0  0  0  0  0  0  0
   -3.0594    5.7876    5.0557 C   0  0  1  0  0  0  0  0  0  0  0  0
   -3.1386    5.8059    3.5309 C   0  0  2  0  0  0  0  0  0  0  0  0
   -4.5721    6.0991    3.0854 C   0  0  1  0  0  0  0  0  0  0  0  0
   -5.0415    7.4315    3.6686 C   0  0  1  0  0  0  0  0  0  0  0  0
   -5.4020    8.7354    5.6950 N   0  3  0  0  0  0  0  0  0  0  0  0
   -1.6905    5.4831    5.5472 N   0  3  0  0  0  0  0  0  0  0  0  0
   -4.6362    6.1430    1.6663 O   0  0  0  0  0  0  0  0  0  0  0  0
   -6.3960    7.6935    3.2595 O   0  0  0  0  0  0  0  0  0  0  0  0
   -2.1679    4.5712    1.7152 C   0  0  1  0  0  0  0  0  0  0  0  0
   -2.6738    3.3818    0.8970 C   0  0  1  0  0  0  0  0  0  0  0  0
   -2.2053    2.0755    1.5202 C   0  0  0  0  0  0  0  0  0  0  0  0
   -0.6917    2.1003    1.6568 C   0  0  1  0  0  0  0  0  0  0  0  0
   -0.2663    3.3255    2.4651 C   0  0  1  0  0  0  0  0  0  0  0  0
    1.2413    3.4476    2.5926 C   0  0  0  0  0  0  0  0  0  0  0  0
   -4.1473    3.4272    0.7441 N   0  3  0  0  0  0  0  0  0  0  0  0
    1.8177    4.2428    1.4822 N   0  3  0  0  0  0  0  0  0  0  0  0
   -2.7067    4.5386    2.9945 O   0  0  0  0  0  0  0  0  0  0  0  0
   -0.2431    0.9161    2.2997 O   0  0  0  0  0  0  0  0  0  0  0  0
   -0.7399    4.5313    1.8269 O   0  0  0  0  0  0  0  0  0  0  0  0
  1  2  1  0  0  0  0
  1 10  1  0  0  0  0
  1 21  1  1  0  0  0
  2  3  1  0  0  0  0
  2  7  1  1  0  0  0
  3  4  1  0  0  0  0
  3  8  1  6  0  0  0
  4  5  1  0  0  0  0
  4  9  1  1  0  0  0
  5  6  1  6  0  0  0
  5 10  1  0  0  0  0
  6 11  1  0  0  0  0
 12 13  1  0  0  0  0
 12 17  1  0  0  0  0
 12 18  1  6  0  0  0
 13 14  1  0  0  0  0
 14 15  1  0  0  0  0
 14 19  1  6  0  0  0
 15 16  1  0  0  0  0
 15 30  1  6  0  0  0
 16 17  1  0  0  0  0
 16 20  1  6  0  0  0
 17 21  1  1  0  0  0
 22 23  1  0  0  0  0
 22 30  1  1  0  0  0
 22 32  1  0  0  0  0
 23 24  1  0  0  0  0
 23 28  1  1  0  0  0
 24 25  1  0  0  0  0
 25 26  1  0  0  0  0
 25 31  1  1  0  0  0
 26 27  1  6  0  0  0
 26 32  1  0  0  0  0
 27 29  1  0  0  0  0
M  CHG  5   8   1  18   1  19   1  28   1  29   1
M  END
>  <CHROM.1>
-137.60736001,76.18687351,-171.98518661,68.33049016,-83.30262786,50.28155929
55.62712711,124.51372850,-152.58753867,-169.17388912,125.03348232,-138.47377962
-37.18602638,-176.78502249,90.06281323,-54.71702944,-4.61114754,6.09172677
2.52433238,-2.79445674,0.47051789,-2.25105517

>  <Name>
1tob

>  <RI>
0

>  <Rbt.Current_Directory>
/home/itssahil/PROJECTS/Mol_Feturizer/New_Systems/rnas/1tob

>  <Rbt.Executable>
rbdock ($Id: //depot/dev/client3/rdock/2013.1/src/exe/rbdock.cxx#4 $)

>  <Rbt.Library>
libRbt.so (2013.1, Build901 2013/11/27)

>  <Rbt.Parameter_File>
/export/apps/rDock/src/rDock_2013.1_src/data/scripts/dock_solv.prm

>  <Rbt.Receptor>
prm/pocket_docking_4.prm

>  <SCORE>
-49.9285

>  <SCORE.INTER>
-49.9176

>  <SCORE.INTER.CONST>
1

>  <SCORE.INTER.POLAR>
-6.64698

>  <SCORE.INTER.ROT>
6

>  <SCORE.INTER.SOLV>
38.2264

>  <SCORE.INTER.VDW>
-31.4639

>  <SCORE.INTER.norm>
-1.55992

>  <SCORE.INTRA>
-0.010908

>  <SCORE.INTRA.DIHEDRAL>
10.5609

>  <SCORE.INTRA.DIHEDRAL.0>
22.9177

>  <SCORE.INTRA.POLAR>
-1.66934

>  <SCORE.INTRA.POLAR.0>
-0.311208

>  <SCORE.INTRA.REPUL>
0

>  <SCORE.INTRA.REPUL.0>
0

>  <SCORE.INTRA.SOLV>
-0.445118

>  <SCORE.INTRA.SOLV.lig_0>
-132.657

>  <SCORE.INTRA.VDW>
0.606986

>  <SCORE.INTRA.VDW.0>
-4.68867

>  <SCORE.INTRA.norm>
-0.000340876

>  <SCORE.RESTR>
0

>  <SCORE.RESTR.CAVITY>
0

>  <SCORE.RESTR.norm>
0

>  <SCORE.SYSTEM>
0

>  <SCORE.SYSTEM.CONST>
0

>  <SCORE.SYSTEM.DIHEDRAL>
0

>  <SCORE.SYSTEM.SOLV>
0

>  <SCORE.SYSTEM.norm>
0

>  <SCORE.heavy>
32

>  <SCORE.norm>
-1.56026

>  <RMSD>
8.761

$$$$
1tob
 OpenBabel11021811413D
libRbt.so/2013.1/901 2013/11/27
 32 34  0  0  0  0  0  0  0  0999 V2000
   -5.0267    6.9160    0.6510 C   0  0  2  0  0  0  0  0  0  0  0  0
   -5.5256    8.0993   -0.1749 C   0  0  1  0  0  0  0  0  0  0  0  0
   -7.0456    8.1636   -0.1126 C   0  0  2  0  0  0  0  0  0  0  0  0
   -7.6274    6.8314   -0.5700 C   0  0  1  0  0  0  0  0  0  0  0  0
   -7.0510    5.6972    0.2730 C   0  0  1  0  0  0  0  0  0  0  0  0
   -7.5338    4.3349   -0.1849 C   0  0  0  0  0  0  0  0  0  0  0  0
   -4.9741    9.3054    0.3337 O   0  0  0  0  0  0  0  0  0  0  0  0
   -7.5650    9.2961   -0.9094 N   0  3  0  0  0  0  0  0  0  0  0  0
   -9.0433    6.8585   -0.4498 O   0  0  0  0  0  0  0  0  0  0  0  0
   -5.6100    5.6946    0.1799 O   0  0  0  0  0  0  0  0  0  0  0  0
   -7.0245    4.0088   -1.4703 O   0  0  0  0  0  0  0  0  0  0  0  0
   -4.7807    7.2873    4.3166 C   0  0  2  0  0  0  0  0  0  0  0  0
   -3.6155    7.2098    5.2936 C   0  0  0  0  0  0  0  0  0  0  0  0
   -2.9585    5.8306    5.2335 C   0  0  1  0  0  0  0  0  0  0  0  0
   -2.4479    5.5652    3.8191 C   0  0  2  0  0  0  0  0  0  0  0  0
   -3.6046    5.6469    2.8218 C   0  0  1  0  0  0  0  0  0  0  0  0
   -4.2762    7.0171    2.9074 C   0  0  1  0  0  0  0  0  0  0  0  0
   -5.3998    8.6305    4.3465 N   0  3  0  0  0  0  0  0  0  0  0  0
   -1.8789    5.7404    6.2506 N   0  3  0  0  0  0  0  0  0  0  0  0
   -3.1208    5.4270    1.5037 O   0  0  0  0  0  0  0  0  0  0  0  0
   -5.3736    7.0819    1.9788 O   0  0  0  0  0  0  0  0  0  0  0  0
   -0.4683    4.2511    3.4747 C   0  0  1  0  0  0  0  0  0  0  0  0
   -0.1371    3.1284    2.4900 C   0  0  1  0  0  0  0  0  0  0  0  0
   -0.4573    1.7749    3.1062 C   0  0  0  0  0  0  0  0  0  0  0  0
    0.2794    1.6399    4.4289 C   0  0  1  0  0  0  0  0  0  0  0  0
   -0.0871    2.8068    5.3452 C   0  0  1  0  0  0  0  0  0  0  0  0
    0.6586    2.7693    6.6668 C   0  0  0  0  0  0  0  0  0  0  0  0
   -0.8340    3.3291    1.1975 N   0  3  0  0  0  0  0  0  0  0  0  0
    0.2731    1.5875    7.4746 N   0  3  0  0  0  0  0  0  0  0  0  0
   -1.8295    4.2640    3.7489 O   0  0  0  0  0  0  0  0  0  0  0  0
   -0.0620    0.4097    5.0509 O   0  0  0  0  0  0  0  0  0  0  0  0
    0.2374    4.0610    4.7072 O   0  0  0  0  0  0  0  0  0  0  0  0
  1  2  1  0  0  0  0
  1 10  1  0  0  0  0
  1 21  1  1  0  0  0
  2  3  1  0  0  0  0
  2  7  1  1  0  0  0
  3  4  1  0  0  0  0
  3  8  1  6  0  0  0
  4  5  1  0  0  0  0
  4  9  1  1  0  0  0
  5  6  1  6  0  0  0
  5 10  1  0  0  0  0
  6 11  1  0  0  0  0
 12 13  1  0  0  0  0
 12 17  1  0  0  0  0
 12 18  1  6  0  0  0
 13 14  1  0  0  0  0
 14 15  1  0  0  0  0
 14 19  1  1  0  0  0
 15 16  1  0  0  0  0
 15 30  1  1  0  0  0
 16 17  1  0  0  0  0
 16 20  1  6  0  0  0
 17 21  1  6  0  0  0
 22 23  1  0  0  0  0
 22 30  1  1  0  0  0
 22 32  1  0  0  0  0
 23 24  1  0  0  0  0
 23 28  1  6  0  0  0
 24 25  1  0  0  0  0
 25 26  1  0  0  0  0
 25 31  1  1  0  0  0
 26 27  1  1  0  0  0
 26 32  1  0  0  0  0
 27 29  1  0  0  0  0
M  CHG  5   8   1  18   1  19   1  28   1  29   1
M  END
>  <CHROM.1>
-124.95540685,-54.43024673,75.91278339,-163.31123574,67.25481578,56.77106485
43.89734691,71.54368248,-115.33415380,-62.51900602,177.00410101,-138.80874506
-145.07494822,-45.59581728,-65.15638520,-65.93730353,-3.57765423,5.33294157
2.60441915,3.14088996,-0.79481826,0.72363271

>  <Name>
1tob

>  <RI>
0

>  <Rbt.Current_Directory>
/home/itssahil/PROJECTS/Mol_Feturizer/New_Systems/rnas/1tob

>  <Rbt.Executable>
rbdock ($Id: //depot/dev/client3/rdock/2013.1/src/exe/rbdock.cxx#4 $)

>  <Rbt.Library>
libRbt.so (2013.1, Build901 2013/11/27)

>  <Rbt.Parameter_File>
/export/apps/rDock/src/rDock_2013.1_src/data/scripts/dock_solv.prm

>  <Rbt.Receptor>
prm/pocket_docking_6.prm

>  <SCORE>
-34.9223

>  <SCORE.INTER>
-33.4449

>  <SCORE.INTER.CONST>
1

>  <SCORE.INTER.POLAR>
-4.50992

>  <SCORE.INTER.ROT>
6

>  <SCORE.INTER.SOLV>
28.0238

>  <SCORE.INTER.VDW>
-24.2048

>  <SCORE.INTER.norm>
-1.04515

>  <SCORE.INTRA>
-1.47739

>  <SCORE.INTRA.DIHEDRAL>
3.35406

>  <SCORE.INTRA.DIHEDRAL.0>
22.9177

>  <SCORE.INTRA.POLAR>
-1.60432

>  <SCORE.INTRA.POLAR.0>
-0.311208

>  <SCORE.INTRA.REPUL>
0.0184055

>  <SCORE.INTRA.REPUL.0>
0

>  <SCORE.INTRA.SOLV>
-0.903873

>  <SCORE.INTRA.SOLV.lig_0>
-132.657

>  <SCORE.INTRA.VDW>
2.66017

>  <SCORE.INTRA.VDW.0>
-4.68867

>  <SCORE.INTRA.norm>
-0.0461683

>  <SCORE.RESTR>
0

>  <SCORE.RESTR.CAVITY>
0

>  <SCORE.RESTR.norm>
0

>  <SCORE.SYSTEM>
0

>  <SCORE.SYSTEM.CONST>
0

>  <SCORE.SYSTEM.DIHEDRAL>
0

>  <SCORE.SYSTEM.SOLV>
0

>  <SCORE.SYSTEM.norm>
0

>  <SCORE.heavy>
32

>  <SCORE.norm>
-1.09132

>  <RMSD>
8.763

$$$$
1tob
 OpenBabel11021811413D
libRbt.so/2013.1/901 2013/11/27
 32 34  0  0  0  0  0  0  0  0999 V2000
   -6.4440    5.5150    1.4207 C   0  0  2  0  0  0  0  0  0  0  0  0
   -7.1202    4.9180    0.1888 C   0  0  1  0  0  0  0  0  0  0  0  0
   -7.6862    6.0350   -0.6773 C   0  0  2  0  0  0  0  0  0  0  0  0
   -8.6256    6.8964    0.1582 C   0  0  1  0  0  0  0  0  0  0  0  0
   -7.8913    7.4205    1.3892 C   0  0  1  0  0  0  0  0  0  0  0  0
   -8.7963    8.2234    2.3029 C   0  0  0  0  0  0  0  0  0  0  0  0
   -6.1760    4.1644   -0.5583 O   0  0  0  0  0  0  0  0  0  0  0  0
   -8.3565    5.4916   -1.8784 N   0  3  0  0  0  0  0  0  0  0  0  0
   -9.1054    7.9821   -0.6235 O   0  0  0  0  0  0  0  0  0  0  0  0
   -7.3717    6.3171    2.1624 O   0  0  0  0  0  0  0  0  0  0  0  0
   -8.1867    8.4542    3.5651 O   0  0  0  0  0  0  0  0  0  0  0  0
   -4.8096    6.9102    3.3161 C   0  0  2  0  0  0  0  0  0  0  0  0
   -3.6598    6.9670    4.3125 C   0  0  0  0  0  0  0  0  0  0  0  0
   -3.0539    5.5771    4.5091 C   0  0  1  0  0  0  0  0  0  0  0  0
   -2.5368    5.0477    3.1733 C   0  0  2  0  0  0  0  0  0  0  0  0
   -3.6778    4.9913    2.1564 C   0  0  1  0  0  0  0  0  0  0  0  0
   -4.2989    6.3773    1.9862 C   0  0  1  0  0  0  0  0  0  0  0  0
   -5.3786    8.2581    3.0969 N   0  3  0  0  0  0  0  0  0  0  0  0
   -1.9905    5.6314    5.5456 N   0  3  0  0  0  0  0  0  0  0  0  0
   -3.1869    4.5247    0.9068 O   0  0  0  0  0  0  0  0  0  0  0  0
   -5.3821    6.3143    1.0409 O   0  0  0  0  0  0  0  0  0  0  0  0
   -1.2738    3.2239    2.2555 C   0  0  1  0  0  0  0  0  0  0  0  0
   -1.5233    1.7203    2.1260 C   0  0  1  0  0  0  0  0  0  0  0  0
   -0.9870    0.9896    3.3478 C   0  0  0  0  0  0  0  0  0  0  0  0
    0.4822    1.3331    3.5320 C   0  0  1  0  0  0  0  0  0  0  0  0
    0.6493    2.8490    3.6306 C   0  0  1  0  0  0  0  0  0  0  0  0
    2.1021    3.2702    3.7575 C   0  0  0  0  0  0  0  0  0  0  0  0
   -2.9592    1.4354    1.8944 N   0  3  0  0  0  0  0  0  0  0  0  0
    2.5219    3.3521    5.1769 N   0  3  0  0  0  0  0  0  0  0  0  0
   -1.9665    3.7341    3.3454 O   0  0  0  0  0  0  0  0  0  0  0  0
    0.9816    0.7130    4.7080 O   0  0  0  0  0  0  0  0  0  0  0  0
    0.1220    3.4856    2.4465 O   0  0  0  0  0  0  0  0  0  0  0  0
  1  2  1  0  0  0  0
  1 10  1  0  0  0  0
  1 21  1  6  0  0  0
  2  3  1  0  0  0  0
  2  7  1  6  0  0  0
  3  4  1  0  0  0  0
  3  8  1  6  0  0  0
  4  5  1  0  0  0  0
  4  9  1  6  0  0  0
  5  6  1  1  0  0  0
  5 10  1  0  0  0  0
  6 11  1  0  0  0  0
 12 13  1  0  0  0  0
 12 17  1  0  0  0  0
 12 18  1  6  0  0  0
 13 14  1  0  0  0  0
 14 15  1  0  0  0  0
 14 19  1  1  0  0  0
 15 16  1  0  0  0  0
 15 30  1  1  0  0  0
 16 17  1  0  0  0  0
 16 20  1  6  0  0  0
 17 21  1  6  0  0  0
 22 23  1  0  0  0  0
 22 30  1  1  0  0  0
 22 32  1  0  0  0  0
 23 24  1  0  0  0  0
 23 28  1  1  0  0  0
 24 25  1  0  0  0  0
 25 26  1  0  0  0  0
 25 31  1  1  0  0  0
 26 27  1  6  0  0  0
 26 32  1  0  0  0  0
 27 29  1  0  0  0  0
M  CHG  5   8   1  18   1  19   1  28   1  29   1
M  END
>  <CHROM.1>
-149.73546539,-58.73584944,61.64349392,166.91801096,167.33802387,-77.89427637
20.12798842,74.23023821,-170.33156909,-54.91292522,-59.10005689,-142.48751097
78.33029932,163.64638973,-90.42541070,-172.02181411,-3.92788957,4.94895520
2.30391278,3.02603740,-0.56811703,0.75588448

>  <Name>
1tob

>  <RI>
0

>  <Rbt.Current_Directory>
/home/itssahil/PROJECTS/Mol_Feturizer/New_Systems/rnas/1tob

>  <Rbt.Executable>
rbdock ($Id: //depot/dev/client3/rdock/2013.1/src/exe/rbdock.cxx#4 $)

>  <Rbt.Library>
libRbt.so (2013.1, Build901 2013/11/27)

>  <Rbt.Parameter_File>
/export/apps/rDock/src/rDock_2013.1_src/data/scripts/dock_solv.prm

>  <Rbt.Receptor>
prm/pocket_docking_8.prm

>  <SCORE>
-45.7659

>  <SCORE.INTER>
-44.3829

>  <SCORE.INTER.CONST>
1

>  <SCORE.INTER.POLAR>
-6.0113

>  <SCORE.INTER.ROT>
6

>  <SCORE.INTER.SOLV>
28.3349

>  <SCORE.INTER.VDW>
-26.5959

>  <SCORE.INTER.norm>
-1.38696

>  <SCORE.INTRA>
-1.38304

>  <SCORE.INTRA.DIHEDRAL>
-2.97586

>  <SCORE.INTRA.DIHEDRAL.0>
22.9177

>  <SCORE.INTRA.POLAR>
-0.614802

>  <SCORE.INTRA.POLAR.0>
-0.311208

>  <SCORE.INTRA.REPUL>
0

>  <SCORE.INTRA.REPUL.0>
0

>  <SCORE.INTRA.SOLV>
0.405645

>  <SCORE.INTRA.SOLV.lig_0>
-132.657

>  <SCORE.INTRA.VDW>
1.99239

>  <SCORE.INTRA.VDW.0>
-4.68867

>  <SCORE.INTRA.norm>
-0.04322

>  <SCORE.RESTR>
0

>  <SCORE.RESTR.CAVITY>
0

>  <SCORE.RESTR.norm>
0

>  <SCORE.SYSTEM>
0

>  <SCORE.SYSTEM.CONST>
0

>  <SCORE.SYSTEM.DIHEDRAL>
0

>  <SCORE.SYSTEM.SOLV>
0

>  <SCORE.SYSTEM.norm>
0

>  <SCORE.heavy>
32

>  <SCORE.norm>
-1.43018

>  <RMSD>
8.770

$$$$
1tob
 OpenBabel11021811413D
libRbt.so/2013.1/901 2013/11/27
 32 34  0  0  0  0  0  0  0  0999 V2000
   -3.9153    6.2064    1.3049 C   0  0  2  0  0  0  0  0  0  0  0  0
   -3.8298    7.5189    0.5294 C   0  0  1  0  0  0  0  0  0  0  0  0
   -2.8720    8.4695    1.2345 C   0  0  2  0  0  0  0  0  0  0  0  0
   -3.3198    8.6599    2.6787 C   0  0  1  0  0  0  0  0  0  0  0  0
   -3.4216    7.3045    3.3729 C   0  0  1  0  0  0  0  0  0  0  0  0
   -3.9380    7.4209    4.7936 C   0  0  0  0  0  0  0  0  0  0  0  0
   -3.3692    7.2668   -0.7904 O   0  0  0  0  0  0  0  0  0  0  0  0
   -2.7702    9.7567    0.5134 N   0  3  0  0  0  0  0  0  0  0  0  0
   -2.3929    9.4913    3.3639 O   0  0  0  0  0  0  0  0  0  0  0  0
   -4.3348    6.4477    2.6539 O   0  0  0  0  0  0  0  0  0  0  0  0
   -5.1603    8.1430    4.8439 O   0  0  0  0  0  0  0  0  0  0  0  0
   -3.1440    3.2196    1.1831 C   0  0  2  0  0  0  0  0  0  0  0  0
   -3.0875    1.9101    1.9580 C   0  0  0  0  0  0  0  0  0  0  0  0
   -1.6554    1.6145    2.4041 C   0  0  1  0  0  0  0  0  0  0  0  0
   -1.1492    2.7480    3.2934 C   0  0  2  0  0  0  0  0  0  0  0  0
   -1.2063    4.0740    2.5334 C   0  0  1  0  0  0  0  0  0  0  0  0
   -2.6344    4.3497    2.0643 C   0  0  1  0  0  0  0  0  0  0  0  0
   -4.5328    3.5275    0.7771 N   0  3  0  0  0  0  0  0  0  0  0  0
   -1.6003    0.2945    3.0843 N   0  3  0  0  0  0  0  0  0  0  0  0
   -0.7608    5.1304    3.3735 O   0  0  0  0  0  0  0  0  0  0  0  0
   -2.6784    5.5900    1.3360 O   0  0  0  0  0  0  0  0  0  0  0  0
    0.7488    3.3890    4.6166 C   0  0  1  0  0  0  0  0  0  0  0  0
    2.2708    3.2426    4.6591 C   0  0  1  0  0  0  0  0  0  0  0  0
    2.6538    1.8607    5.1670 C   0  0  0  0  0  0  0  0  0  0  0  0
    1.9974    1.6238    6.5174 C   0  0  1  0  0  0  0  0  0  0  0  0
    0.4854    1.8095    6.3959 C   0  0  1  0  0  0  0  0  0  0  0  0
   -0.2326    1.6451    7.7232 C   0  0  0  0  0  0  0  0  0  0  0  0
    2.8724    3.5346    3.3365 N   0  3  0  0  0  0  0  0  0  0  0  0
   -0.0544    2.8358    8.5882 N   0  3  0  0  0  0  0  0  0  0  0  0
    0.2037    2.4823    3.7173 O   0  0  0  0  0  0  0  0  0  0  0  0
    2.2892    0.3114    6.9749 O   0  0  0  0  0  0  0  0  0  0  0  0
    0.1847    3.1354    5.9092 O   0  0  0  0  0  0  0  0  0  0  0  0
  1  2  1  0  0  0  0
  1 10  1  0  0  0  0
  1 21  1  1  0  0  0
  2  3  1  0  0  0  0
  2  7  1  6  0  0  0
  3  4  1  0  0  0  0
  3  8  1  6  0  0  0
  4  5  1  0  0  0  0
  4  9  1  1  0  0  0
  5  6  1  1  0  0  0
  5 10  1  0  0  0  0
  6 11  1  0  0  0  0
 12 13  1  0  0  0  0
 12 17  1  0  0  0  0
 12 18  1  1  0  0  0
 13 14  1  0  0  0  0
 14 15  1  0  0  0  0
 14 19  1  1  0  0  0
 15 16  1  0  0  0  0
 15 30  1  6  0  0  0
 16 17  1  0  0  0  0
 16 20  1  1  0  0  0
 17 21  1  6  0  0  0
 22 23  1  0  0  0  0
 22 30  1  6  0  0  0
 22 32  1  0  0  0  0
 23 24  1  0  0  0  0
 23 28  1  6  0  0  0
 24 25  1  0  0  0  0
 25 26  1  0  0  0  0
 25 31  1  6  0  0  0
 26 27  1  1  0  0  0
 26 32  1  0  0  0  0
 27 29  1  0  0  0  0
M  CHG  5   8   1  18   1  19   1  28   1  29   1
M  END
>  <CHROM.1>
178.95683082,49.66654932,64.26574895,164.25877965,53.08791984,-78.31435543
-159.35600079,-83.14727684,-175.26337306,-169.83743156,81.63996802,-163.21548894
-58.05809510,60.33535133,75.92496760,-129.40985297,-1.51532113,4.56534643
3.44838519,2.80574755,-0.94761090,0.55172495

>  <Name>
1tob

>  <RI>
0

>  <Rbt.Current_Directory>
/home/itssahil/PROJECTS/Mol_Feturizer/New_Systems/rnas/1tob

>  <Rbt.Executable>
rbdock ($Id: //depot/dev/client3/rdock/2013.1/src/exe/rbdock.cxx#4 $)

>  <Rbt.Library>
libRbt.so (2013.1, Build901 2013/11/27)

>  <Rbt.Parameter_File>
/export/apps/rDock/src/rDock_2013.1_src/data/scripts/dock_solv.prm

>  <Rbt.Receptor>
prm/pocket_docking_5.prm

>  <SCORE>
-51.5365

>  <SCORE.INTER>
-49.0792

>  <SCORE.INTER.CONST>
1

>  <SCORE.INTER.POLAR>
-7.27615

>  <SCORE.INTER.ROT>
6

>  <SCORE.INTER.SOLV>
28.3338

>  <SCORE.INTER.VDW>
-25.5102

>  <SCORE.INTER.norm>
-1.53372

>  <SCORE.INTRA>
-2.47547

>  <SCORE.INTRA.DIHEDRAL>
-8.91823

>  <SCORE.INTRA.DIHEDRAL.0>
22.9177

>  <SCORE.INTRA.POLAR>
0.29786

>  <SCORE.INTRA.POLAR.0>
-0.311208

>  <SCORE.INTRA.REPUL>
0.014839

>  <SCORE.INTRA.REPUL.0>
0

>  <SCORE.INTRA.SOLV>
-4.03484

>  <SCORE.INTRA.SOLV.lig_0>
-132.657

>  <SCORE.INTRA.VDW>
2.91414

>  <SCORE.INTRA.VDW.0>
-4.68867

>  <SCORE.INTRA.norm>
-0.0773585

>  <SCORE.RESTR>
0.0181268

>  <SCORE.RESTR.CAVITY>
0.0181268

>  <SCORE.RESTR.norm>
0.000566463

>  <SCORE.SYSTEM>
0

>  <SCORE.SYSTEM.CONST>
0

>  <SCORE.SYSTEM.DIHEDRAL>
0

>  <SCORE.SYSTEM.SOLV>
0

>  <SCORE.SYSTEM.norm>
0

>  <SCORE.heavy>
32

>  <SCORE.norm>
-1.61052

>  <RMSD>
8.772

$$$$
1tob
 OpenBabel11021811413D
libRbt.so/2013.1/901 2013/11/27
 32 34  0  0  0  0  0  0  0  0999 V2000
   -5.6425    5.4706    2.6774 C   0  0  2  0  0  0  0  0  0  0  0  0
   -6.4249    6.0585    1.5054 C   0  0  1  0  0  0  0  0  0  0  0  0
   -6.0106    7.5074    1.2877 C   0  0  2  0  0  0  0  0  0  0  0  0
   -6.2019    8.2883    2.5823 C   0  0  1  0  0  0  0  0  0  0  0  0
   -5.4256    7.6174    3.7121 C   0  0  1  0  0  0  0  0  0  0  0  0
   -5.6382    8.3051    5.0463 C   0  0  0  0  0  0  0  0  0  0  0  0
   -6.1660    5.3046    0.3298 O   0  0  0  0  0  0  0  0  0  0  0  0
   -6.7556    8.1122    0.1623 N   0  3  0  0  0  0  0  0  0  0  0  0
   -5.7530    9.6256    2.4080 O   0  0  0  0  0  0  0  0  0  0  0  0
   -5.8562    6.2473    3.8627 O   0  0  0  0  0  0  0  0  0  0  0  0
   -4.5347    8.1006    5.9173 O   0  0  0  0  0  0  0  0  0  0  0  0
   -2.9023    3.6316    1.6480 C   0  0  2  0  0  0  0  0  0  0  0  0
   -2.1438    2.4005    2.1247 C   0  0  0  0  0  0  0  0  0  0  0  0
   -1.0932    2.7898    3.1650 C   0  0  1  0  0  0  0  0  0  0  0  0
   -1.7735    3.4556    4.3591 C   0  0  2  0  0  0  0  0  0  0  0  0
   -2.5478    4.6911    3.8974 C   0  0  1  0  0  0  0  0  0  0  0  0
   -3.5760    4.3007    2.8362 C   0  0  1  0  0  0  0  0  0  0  0  0
   -3.9427    3.2568    0.6654 N   0  3  0  0  0  0  0  0  0  0  0  0
   -0.3042    1.5936    3.5585 N   0  3  0  0  0  0  0  0  0  0  0  0
   -3.2023    5.2919    5.0068 O   0  0  0  0  0  0  0  0  0  0  0  0
   -4.2895    5.4695    2.3942 O   0  0  0  0  0  0  0  0  0  0  0  0
   -0.8036    3.1002    6.5263 C   0  0  1  0  0  0  0  0  0  0  0  0
   -0.1838    3.9167    7.6617 C   0  0  1  0  0  0  0  0  0  0  0  0
    1.2782    4.2117    7.3621 C   0  0  0  0  0  0  0  0  0  0  0  0
    2.0100    2.9047    7.1037 C   0  0  1  0  0  0  0  0  0  0  0  0
    1.3190    2.1407    5.9749 C   0  0  1  0  0  0  0  0  0  0  0  0
    1.9629    0.7938    5.7005 C   0  0  0  0  0  0  0  0  0  0  0  0
   -0.9595    5.1540    7.9145 N   0  3  0  0  0  0  0  0  0  0  0  0
    2.0646   -0.0211    6.9347 N   0  3  0  0  0  0  0  0  0  0  0  0
   -0.7912    3.8316    5.3460 O   0  0  0  0  0  0  0  0  0  0  0  0
    3.3617    3.1663    6.7552 O   0  0  0  0  0  0  0  0  0  0  0  0
   -0.0622    1.8923    6.3152 O   0  0  0  0  0  0  0  0  0  0  0  0
  1  2  1  0  0  0  0
  1 10  1  0  0  0  0
  1 21  1  6  0  0  0
  2  3  1  0  0  0  0
  2  7  1  6  0  0  0
  3  4  1  0  0  0  0
  3  8  1  6  0  0  0
  4  5  1  0  0  0  0
  4  9  1  6  0  0  0
  5  6  1  1  0  0  0
  5 10  1  0  0  0  0
  6 11  1  0  0  0  0
 12 13  1  0  0  0  0
 12 17  1  0  0  0  0
 12 18  1  6  0  0  0
 13 14  1  0  0  0  0
 14 15  1  0  0  0  0
 14 19  1  1  0  0  0
 15 16  1  0  0  0  0
 15 30  1  1  0  0  0
 16 17  1  0  0  0  0
 16 20  1  1  0  0  0
 17 21  1  6  0  0  0
 22 23  1  0  0  0  0
 22 30  1  6  0  0  0
 22 32  1  0  0  0  0
 23 24  1  0  0  0  0
 23 28  1  6  0  0  0
 24 25  1  0  0  0  0
 25 26  1  0  0  0  0
 25 31  1  6  0  0  0
 26 27  1  1  0  0  0
 26 32  1  0  0  0  0
 27 29  1  0  0  0  0
M  CHG  5   8   1  18   1  19   1  28   1  29   1
M  END
>  <CHROM.1>
-140.55363617,72.16210837,81.35701804,73.04044006,-153.92877219,79.25929071
78.47246228,-98.78577864,-109.93650490,74.57959825,121.94455116,-156.14817484
176.20040206,-177.33977230,53.36312719,-179.63561152,-2.53250684,4.65590479
4.14737483,3.13629142,-0.74377769,0.84307634

>  <Name>
1tob

>  <RI>
0

>  <Rbt.Current_Directory>
/home/itssahil/PROJECTS/Mol_Feturizer/New_Systems/rnas/1tob

>  <Rbt.Executable>
rbdock ($Id: //depot/dev/client3/rdock/2013.1/src/exe/rbdock.cxx#4 $)

>  <Rbt.Library>
libRbt.so (2013.1, Build901 2013/11/27)

>  <Rbt.Parameter_File>
/export/apps/rDock/src/rDock_2013.1_src/data/scripts/dock_solv.prm

>  <Rbt.Receptor>
prm/pocket_docking_5.prm

>  <SCORE>
-33.0286

>  <SCORE.INTER>
-37.6617

>  <SCORE.INTER.CONST>
1

>  <SCORE.INTER.POLAR>
-4.97711

>  <SCORE.INTER.ROT>
6

>  <SCORE.INTER.SOLV>
27.4302

>  <SCORE.INTER.VDW>
-25.2609

>  <SCORE.INTER.norm>
-1.17693

>  <SCORE.INTRA>
4.63314

>  <SCORE.INTRA.DIHEDRAL>
9.79682

>  <SCORE.INTRA.DIHEDRAL.0>
22.9177

>  <SCORE.INTRA.POLAR>
-0.41814

>  <SCORE.INTRA.POLAR.0>
-0.311208

>  <SCORE.INTRA.REPUL>
0.0089156

>  <SCORE.INTRA.REPUL.0>
0

>  <SCORE.INTRA.SOLV>
2.85424

>  <SCORE.INTRA.SOLV.lig_0>
-132.657

>  <SCORE.INTRA.VDW>
-0.315292

>  <SCORE.INTRA.VDW.0>
-4.68867

>  <SCORE.INTRA.norm>
0.144786

>  <SCORE.RESTR>
0

>  <SCORE.RESTR.CAVITY>
0

>  <SCORE.RESTR.norm>
0

>  <SCORE.SYSTEM>
0

>  <SCORE.SYSTEM.CONST>
0

>  <SCORE.SYSTEM.DIHEDRAL>
0

>  <SCORE.SYSTEM.SOLV>
0

>  <SCORE.SYSTEM.norm>
0

>  <SCORE.heavy>
32

>  <SCORE.norm>
-1.03214

>  <RMSD>
8.773

$$$$
1tob
 OpenBabel11021811413D
libRbt.so/2013.1/901 2013/11/27
 32 34  0  0  0  0  0  0  0  0999 V2000
   -6.9786    8.8792    3.0637 C   0  0  2  0  0  0  0  0  0  0  0  0
   -8.2407    9.5559    3.5932 C   0  0  1  0  0  0  0  0  0  0  0  0
   -9.4299    8.6182    3.4356 C   0  0  2  0  0  0  0  0  0  0  0  0
   -9.5498    8.1939    1.9768 C   0  0  1  0  0  0  0  0  0  0  0  0
   -8.2392    7.5664    1.5100 C   0  0  1  0  0  0  0  0  0  0  0  0
   -8.2693    7.1925    0.0411 C   0  0  0  0  0  0  0  0  0  0  0  0
   -8.0689    9.8850    4.9642 O   0  0  0  0  0  0  0  0  0  0  0  0
  -10.6737    9.2453    3.9327 N   0  3  0  0  0  0  0  0  0  0  0  0
  -10.6152    7.2645    1.8324 O   0  0  0  0  0  0  0  0  0  0  0  0
   -7.1516    8.4985    1.6928 O   0  0  0  0  0  0  0  0  0  0  0  0
   -6.9711    6.8747   -0.4402 O   0  0  0  0  0  0  0  0  0  0  0  0
   -4.9803    7.5483    5.4907 C   0  0  2  0  0  0  0  0  0  0  0  0
   -3.5006    7.2575    5.7005 C   0  0  0  0  0  0  0  0  0  0  0  0
   -3.1463    5.8720    5.1597 C   0  0  1  0  0  0  0  0  0  0  0  0
   -3.4661    5.8047    3.6680 C   0  0  2  0  0  0  0  0  0  0  0  0
   -4.9484    6.1024    3.4373 C   0  0  1  0  0  0  0  0  0  0  0  0
   -5.3033    7.4758    4.0062 C   0  0  1  0  0  0  0  0  0  0  0  0
   -5.3222    8.9010    5.9823 N   0  3  0  0  0  0  0  0  0  0  0  0
   -1.7206    5.5669    5.4466 N   0  3  0  0  0  0  0  0  0  0  0  0
   -5.2362    6.0663    2.0459 O   0  0  0  0  0  0  0  0  0  0  0  0
   -6.7023    7.7429    3.8008 O   0  0  0  0  0  0  0  0  0  0  0  0
   -2.3219    4.4793    2.0254 C   0  0  1  0  0  0  0  0  0  0  0  0
   -2.7591    3.3664    1.0714 C   0  0  1  0  0  0  0  0  0  0  0  0
   -2.5984    2.0079    1.7369 C   0  0  0  0  0  0  0  0  0  0  0  0
   -1.1639    1.8504    2.2139 C   0  0  1  0  0  0  0  0  0  0  0  0
   -0.7983    3.0087    3.1414 C   0  0  1  0  0  0  0  0  0  0  0  0
    0.6437    2.9486    3.6118 C   0  0  0  0  0  0  0  0  0  0  0  0
   -4.1431    3.5889    0.5901 N   0  3  0  0  0  0  0  0  0  0  0  0
    0.8512    3.7638    4.8325 N   0  3  0  0  0  0  0  0  0  0  0  0
   -3.1400    4.4997    3.1472 O   0  0  0  0  0  0  0  0  0  0  0  0
   -1.0131    0.6153    2.8985 O   0  0  0  0  0  0  0  0  0  0  0  0
   -0.9718    4.2681    2.4565 O   0  0  0  0  0  0  0  0  0  0  0  0
  1  2  1  0  0  0  0
  1 10  1  0  0  0  0
  1 21  1  1  0  0  0
  2  3  1  0  0  0  0
  2  7  1  1  0  0  0
  3  4  1  0  0  0  0
  3  8  1  6  0  0  0
  4  5  1  0  0  0  0
  4  9  1  1  0  0  0
  5  6  1  6  0  0  0
  5 10  1  0  0  0  0
  6 11  1  0  0  0  0
 12 13  1  0  0  0  0
 12 17  1  0  0  0  0
 12 18  1  6  0  0  0
 13 14  1  0  0  0  0
 14 15  1  0  0  0  0
 14 19  1  6  0  0  0
 15 16  1  0  0  0  0
 15 30  1  1  0  0  0
 16 17  1  0  0  0  0
 16 20  1  6  0  0  0
 17 21  1  1  0  0  0
 22 23  1  0  0  0  0
 22 30  1  1  0  0  0
 22 32  1  0  0  0  0
 23 24  1  0  0  0  0
 23 28  1  1  0  0  0
 24 25  1  0  0  0  0
 25 26  1  0  0  0  0
 25 31  1  1  0  0  0
 26 27  1  6  0  0  0
 26 32  1  0  0  0  0
 27 29  1  0  0  0  0
M  CHG  5   8   1  18   1  19   1  28   1  29   1
M  END
>  <CHROM.1>
-144.27754856,70.22363640,-171.25521089,-53.50224499,167.78397439,43.76516612
76.72668963,-101.03288749,-127.63394930,-69.90678619,116.53798229,-142.28905166
-144.06556344,-62.45341792,-160.39496778,177.37936124,-4.88548881,6.08521711
3.07445045,-2.79071914,0.52295400,-2.24260410

>  <Name>
1tob

>  <RI>
0

>  <Rbt.Current_Directory>
/home/itssahil/PROJECTS/Mol_Feturizer/New_Systems/rnas/1tob

>  <Rbt.Executable>
rbdock ($Id: //depot/dev/client3/rdock/2013.1/src/exe/rbdock.cxx#4 $)

>  <Rbt.Library>
libRbt.so (2013.1, Build901 2013/11/27)

>  <Rbt.Parameter_File>
/export/apps/rDock/src/rDock_2013.1_src/data/scripts/dock_solv.prm

>  <Rbt.Receptor>
prm/pocket_docking_3.prm

>  <SCORE>
-47.8711

>  <SCORE.INTER>
-46.9665

>  <SCORE.INTER.CONST>
1

>  <SCORE.INTER.POLAR>
-6.31308

>  <SCORE.INTER.ROT>
6

>  <SCORE.INTER.SOLV>
29.1132

>  <SCORE.INTER.VDW>
-27.5718

>  <SCORE.INTER.norm>
-1.4677

>  <SCORE.INTRA>
-0.919889

>  <SCORE.INTRA.DIHEDRAL>
11.0784

>  <SCORE.INTRA.DIHEDRAL.0>
22.9177

>  <SCORE.INTRA.POLAR>
-2.2174

>  <SCORE.INTRA.POLAR.0>
-0.311208

>  <SCORE.INTRA.REPUL>
0

>  <SCORE.INTRA.REPUL.0>
0

>  <SCORE.INTRA.SOLV>
4.22379

>  <SCORE.INTRA.SOLV.lig_0>
-132.657

>  <SCORE.INTRA.VDW>
-1.03182

>  <SCORE.INTRA.VDW.0>
-4.68867

>  <SCORE.INTRA.norm>
-0.0287465

>  <SCORE.RESTR>
0.015236

>  <SCORE.RESTR.CAVITY>
0.015236

>  <SCORE.RESTR.norm>
0.000476125

>  <SCORE.SYSTEM>
0

>  <SCORE.SYSTEM.CONST>
0

>  <SCORE.SYSTEM.DIHEDRAL>
0

>  <SCORE.SYSTEM.SOLV>
0

>  <SCORE.SYSTEM.norm>
0

>  <SCORE.heavy>
32

>  <SCORE.norm>
-1.49597

>  <RMSD>
8.774

$$$$
1tob
 OpenBabel11021811413D
libRbt.so/2013.1/901 2013/11/27
 32 34  0  0  0  0  0  0  0  0999 V2000
   -7.5051    8.7445    2.6964 C   0  0  2  0  0  0  0  0  0  0  0  0
   -9.0312    8.7796    2.6694 C   0  0  1  0  0  0  0  0  0  0  0  0
   -9.5500    7.7562    1.6684 C   0  0  2  0  0  0  0  0  0  0  0  0
   -8.9246    8.0210    0.3041 C   0  0  1  0  0  0  0  0  0  0  0  0
   -7.4029    8.0117    0.4207 C   0  0  1  0  0  0  0  0  0  0  0  0
   -6.7214    8.3462   -0.8916 C   0  0  0  0  0  0  0  0  0  0  0  0
   -9.5404    8.4853    3.9624 O   0  0  0  0  0  0  0  0  0  0  0  0
  -11.0278    7.7678    1.6105 N   0  3  0  0  0  0  0  0  0  0  0  0
   -9.3499    7.0289   -0.6205 O   0  0  0  0  0  0  0  0  0  0  0  0
   -6.9748    8.9941    1.3885 O   0  0  0  0  0  0  0  0  0  0  0  0
   -7.0183    9.6717   -1.3074 O   0  0  0  0  0  0  0  0  0  0  0  0
   -5.3525    7.6694    4.8199 C   0  0  2  0  0  0  0  0  0  0  0  0
   -3.8532    7.5592    5.0611 C   0  0  0  0  0  0  0  0  0  0  0  0
   -3.3499    6.1694    4.6705 C   0  0  1  0  0  0  0  0  0  0  0  0
   -3.6424    5.9124    3.1939 C   0  0  2  0  0  0  0  0  0  0  0  0
   -5.1448    6.0271    2.9311 C   0  0  1  0  0  0  0  0  0  0  0  0
   -5.6478    7.4078    3.3510 C   0  0  1  0  0  0  0  0  0  0  0  0
   -5.8396    9.0230    5.1651 N   0  3  0  0  0  0  0  0  0  0  0  0
   -1.9038    6.0475    4.9899 N   0  3  0  0  0  0  0  0  0  0  0  0
   -5.4100    5.8149    1.5509 O   0  0  0  0  0  0  0  0  0  0  0  0
   -7.0644    7.5035    3.1166 O   0  0  0  0  0  0  0  0  0  0  0  0
   -2.3673    4.5461    1.6870 C   0  0  1  0  0  0  0  0  0  0  0  0
   -2.7196    3.3202    0.8426 C   0  0  1  0  0  0  0  0  0  0  0  0
   -2.4436    2.0445    1.6240 C   0  0  0  0  0  0  0  0  0  0  0  0
   -0.9974    2.0465    2.0917 C   0  0  1  0  0  0  0  0  0  0  0  0
   -0.7204    3.3092    2.9068 C   0  0  1  0  0  0  0  0  0  0  0  0
    0.7253    3.4080    3.3592 C   0  0  0  0  0  0  0  0  0  0  0  0
   -4.1206    3.3863    0.3640 N   0  3  0  0  0  0  0  0  0  0  0  0
    1.0677    2.3339    4.3219 N   0  3  0  0  0  0  0  0  0  0  0  0
   -3.1757    4.6014    2.8146 O   0  0  0  0  0  0  0  0  0  0  0  0
   -0.7412    0.8942    2.8813 O   0  0  0  0  0  0  0  0  0  0  0  0
   -1.0012    4.4838    2.1151 O   0  0  0  0  0  0  0  0  0  0  0  0
  1  2  1  0  0  0  0
  1 10  1  0  0  0  0
  1 21  1  6  0  0  0
  2  3  1  0  0  0  0
  2  7  1  1  0  0  0
  3  4  1  0  0  0  0
  3  8  1  6  0  0  0
  4  5  1  0  0  0  0
  4  9  1  6  0  0  0
  5  6  1  6  0  0  0
  5 10  1  0  0  0  0
  6 11  1  0  0  0  0
 12 13  1  0  0  0  0
 12 17  1  0  0  0  0
 12 18  1  6  0  0  0
 13 14  1  0  0  0  0
 14 15  1  0  0  0  0
 14 19  1  6  0  0  0
 15 16  1  0  0  0  0
 15 30  1  1  0  0  0
 16 17  1  0  0  0  0
 16 20  1  6  0  0  0
 17 21  1  1  0  0  0
 22 23  1  0  0  0  0
 22 30  1  1  0  0  0
 22 32  1  0  0  0  0
 23 24  1  0  0  0  0
 23 28  1  1  0  0  0
 24 25  1  0  0  0  0
 25 26  1  0  0  0  0
 25 31  1  1  0  0  0
 26 27  1  6  0  0  0
 26 32  1  0  0  0  0
 27 29  1  0  0  0  0
M  CHG  5   8   1  18   1  19   1  28   1  29   1
M  END
>  <CHROM.1>
-172.13648116,-55.09645898,-164.80171229,-32.35279879,64.13606276,177.90027674
-135.01580315,147.17138545,-128.83842741,172.48735751,93.92980254,-140.14575725
-24.67507432,-51.75356632,-65.82924384,-70.50456568,-4.92012914,6.09043501
2.36299625,-2.98753073,0.60425038,-2.10649806

>  <Name>
1tob

>  <RI>
0

>  <Rbt.Current_Directory>
/home/itssahil/PROJECTS/Mol_Feturizer/New_Systems/rnas/1tob

>  <Rbt.Executable>
rbdock ($Id: //depot/dev/client3/rdock/2013.1/src/exe/rbdock.cxx#4 $)

>  <Rbt.Library>
libRbt.so (2013.1, Build901 2013/11/27)

>  <Rbt.Parameter_File>
/export/apps/rDock/src/rDock_2013.1_src/data/scripts/dock_solv.prm

>  <Rbt.Receptor>
prm/pocket_docking_7.prm

>  <SCORE>
-52.1136

>  <SCORE.INTER>
-52.6526

>  <SCORE.INTER.CONST>
1

>  <SCORE.INTER.POLAR>
-7.55842

>  <SCORE.INTER.ROT>
6

>  <SCORE.INTER.SOLV>
25.6481

>  <SCORE.INTER.VDW>
-26.0564

>  <SCORE.INTER.norm>
-1.64539

>  <SCORE.INTRA>
0.539019

>  <SCORE.INTRA.DIHEDRAL>
6.27382

>  <SCORE.INTRA.DIHEDRAL.0>
22.9177

>  <SCORE.INTRA.POLAR>
-1.43679

>  <SCORE.INTRA.POLAR.0>
-0.311208

>  <SCORE.INTRA.REPUL>
0

>  <SCORE.INTRA.REPUL.0>
0

>  <SCORE.INTRA.SOLV>
0.749818

>  <SCORE.INTRA.SOLV.lig_0>
-132.657

>  <SCORE.INTRA.VDW>
1.91228

>  <SCORE.INTRA.VDW.0>
-4.68867

>  <SCORE.INTRA.norm>
0.0168444

>  <SCORE.RESTR>
0

>  <SCORE.RESTR.CAVITY>
0

>  <SCORE.RESTR.norm>
0

>  <SCORE.SYSTEM>
0

>  <SCORE.SYSTEM.CONST>
0

>  <SCORE.SYSTEM.DIHEDRAL>
0

>  <SCORE.SYSTEM.SOLV>
0

>  <SCORE.SYSTEM.norm>
0

>  <SCORE.heavy>
32

>  <SCORE.norm>
-1.62855

>  <RMSD>
8.774

$$$$
1tob
 OpenBabel11021811413D
libRbt.so/2013.1/901 2013/11/27
 32 34  0  0  0  0  0  0  0  0999 V2000
   -5.7282    7.2180    2.5024 C   0  0  2  0  0  0  0  0  0  0  0  0
   -7.1876    7.6669    2.5029 C   0  0  1  0  0  0  0  0  0  0  0  0
   -8.0984    6.4498    2.4169 C   0  0  2  0  0  0  0  0  0  0  0  0
   -7.7294    5.6276    1.1879 C   0  0  1  0  0  0  0  0  0  0  0  0
   -6.2506    5.2539    1.2392 C   0  0  1  0  0  0  0  0  0  0  0  0
   -5.8030    4.4986    0.0032 C   0  0  0  0  0  0  0  0  0  0  0  0
   -7.4661    8.3903    3.6932 O   0  0  0  0  0  0  0  0  0  0  0  0
   -9.5226    6.8486    2.4076 N   0  3  0  0  0  0  0  0  0  0  0  0
   -8.5286    4.4535    1.1372 O   0  0  0  0  0  0  0  0  0  0  0  0
   -5.4416    6.4466    1.3290 O   0  0  0  0  0  0  0  0  0  0  0  0
   -4.7734    3.5684    0.3078 O   0  0  0  0  0  0  0  0  0  0  0  0
   -3.8735    6.5535    5.4284 C   0  0  2  0  0  0  0  0  0  0  0  0
   -2.3992    6.3906    5.7724 C   0  0  0  0  0  0  0  0  0  0  0  0
   -1.9221    4.9802    5.4252 C   0  0  1  0  0  0  0  0  0  0  0  0
   -2.1224    4.7220    3.9335 C   0  0  2  0  0  0  0  0  0  0  0  0
   -3.5980    4.8892    3.5676 C   0  0  1  0  0  0  0  0  0  0  0  0
   -4.0772    6.2907    3.9442 C   0  0  1  0  0  0  0  0  0  0  0  0
   -4.3326    7.9267    5.7316 N   0  3  0  0  0  0  0  0  0  0  0  0
   -0.5067    4.8083    5.8437 N   0  3  0  0  0  0  0  0  0  0  0  0
   -3.7760    4.6755    2.1738 O   0  0  0  0  0  0  0  0  0  0  0  0
   -5.4699    6.4361    3.6127 O   0  0  0  0  0  0  0  0  0  0  0  0
   -1.2989    3.1953    2.2738 C   0  0  1  0  0  0  0  0  0  0  0  0
   -1.2746    1.7013    1.9463 C   0  0  1  0  0  0  0  0  0  0  0  0
   -0.2320    0.9918    2.7972 C   0  0  0  0  0  0  0  0  0  0  0  0
    1.1170    1.6639    2.6002 C   0  0  1  0  0  0  0  0  0  0  0  0
    1.0041    3.1529    2.9254 C   0  0  1  0  0  0  0  0  0  0  0  0
    2.3037    3.9023    2.6940 C   0  0  0  0  0  0  0  0  0  0  0  0
   -2.6201    1.0992    2.0999 N   0  3  0  0  0  0  0  0  0  0  0  0
    3.3590    3.4639    3.6385 N   0  3  0  0  0  0  0  0  0  0  0  0
   -1.6796    3.3918    3.5945 O   0  0  0  0  0  0  0  0  0  0  0  0
    2.0886    1.0570    3.4396 O   0  0  0  0  0  0  0  0  0  0  0  0
    0.0009    3.7698    2.0897 O   0  0  0  0  0  0  0  0  0  0  0  0
  1  2  1  0  0  0  0
  1 10  1  0  0  0  0
  1 21  1  1  0  0  0
  2  3  1  0  0  0  0
  2  7  1  1  0  0  0
  3  4  1  0  0  0  0
  3  8  1  6  0  0  0
  4  5  1  0  0  0  0
  4  9  1  1  0  0  0
  5  6  1  6  0  0  0
  5 10  1  0  0  0  0
  6 11  1  0  0  0  0
 12 13  1  0  0  0  0
 12 17  1  0  0  0  0
 12 18  1  6  0  0  0
 13 14  1  0  0  0  0
 14 15  1  0  0  0  0
 14 19  1  6  0  0  0
 15 16  1  0  0  0  0
 15 30  1  1  0  0  0
 16 17  1  0  0  0  0
 16 20  1  6  0  0  0
 17 21  1  1  0  0  0
 22 23  1  0  0  0  0
 22 30  1  1  0  0  0
 22 32  1  0  0  0  0
 23 24  1  0  0  0  0
 23 28  1  1  0  0  0
 24 25  1  0  0  0  0
 25 26  1  0  0  0  0
 25 31  1  1  0  0  0
 26 27  1  6  0  0  0
 26 32  1  0  0  0  0
 27 29  1  0  0  0  0
M  CHG  5   8   1  18   1  19   1  28   1  29   1
M  END
>  <CHROM.1>
-161.98522181,-61.23184945,-70.96437128,-179.63481448,-148.09550305,72.68759459
172.29544862,137.48793323,-155.20209285,-60.44975749,131.79356635,-162.49394948
-158.47344971,62.66340264,-66.21365524,53.77724825,-3.31317847,4.72116447
2.94795741,-2.89706497,0.38047099,-2.38003935

>  <Name>
1tob

>  <RI>
0

>  <Rbt.Current_Directory>
/home/itssahil/PROJECTS/Mol_Feturizer/New_Systems/rnas/1tob

>  <Rbt.Executable>
rbdock ($Id: //depot/dev/client3/rdock/2013.1/src/exe/rbdock.cxx#4 $)

>  <Rbt.Library>
libRbt.so (2013.1, Build901 2013/11/27)

>  <Rbt.Parameter_File>
/export/apps/rDock/src/rDock_2013.1_src/data/scripts/dock_solv.prm

>  <Rbt.Receptor>
prm/blind_docking_60.prm

>  <SCORE>
-41.2664

>  <SCORE.INTER>
-43.7321

>  <SCORE.INTER.CONST>
1

>  <SCORE.INTER.POLAR>
-5.4413

>  <SCORE.INTER.ROT>
6

>  <SCORE.INTER.SOLV>
34.9676

>  <SCORE.INTER.VDW>
-30.2729

>  <SCORE.INTER.norm>
-1.36663

>  <SCORE.INTRA>
-1.07805

>  <SCORE.INTRA.DIHEDRAL>
-2.59171

>  <SCORE.INTRA.DIHEDRAL.0>
22.9177

>  <SCORE.INTRA.POLAR>
-0.411165

>  <SCORE.INTRA.POLAR.0>
-0.311208

>  <SCORE.INTRA.REPUL>
0

>  <SCORE.INTRA.REPUL.0>
0

>  <SCORE.INTRA.SOLV>
-0.539233

>  <SCORE.INTRA.SOLV.lig_0>
-132.657

>  <SCORE.INTRA.VDW>
1.88538

>  <SCORE.INTRA.VDW.0>
-4.68867

>  <SCORE.INTRA.norm>
-0.0336891

>  <SCORE.RESTR>
3.54371

>  <SCORE.RESTR.CAVITY>
3.54371

>  <SCORE.RESTR.norm>
0.110741

>  <SCORE.SYSTEM>
0

>  <SCORE.SYSTEM.CONST>
0

>  <SCORE.SYSTEM.DIHEDRAL>
0

>  <SCORE.SYSTEM.SOLV>
0

>  <SCORE.SYSTEM.norm>
0

>  <SCORE.heavy>
32

>  <SCORE.norm>
-1.28958

>  <RMSD>
8.784

$$$$
1tob
 OpenBabel11021811413D
libRbt.so/2013.1/901 2013/11/27
 32 34  0  0  0  0  0  0  0  0999 V2000
   -6.7870    9.1386    3.0656 C   0  0  2  0  0  0  0  0  0  0  0  0
   -8.0229    9.8567    3.6021 C   0  0  1  0  0  0  0  0  0  0  0  0
   -9.2532    8.9836    3.3958 C   0  0  2  0  0  0  0  0  0  0  0  0
   -9.3715    8.6167    1.9213 C   0  0  1  0  0  0  0  0  0  0  0  0
   -8.0857    7.9431    1.4499 C   0  0  1  0  0  0  0  0  0  0  0  0
   -8.1118    7.6225   -0.0317 C   0  0  0  0  0  0  0  0  0  0  0  0
   -7.8559   10.1292    4.9861 O   0  0  0  0  0  0  0  0  0  0  0  0
  -10.4728    9.6525    3.8983 N   0  3  0  0  0  0  0  0  0  0  0  0
  -10.4780    7.7454    1.7300 O   0  0  0  0  0  0  0  0  0  0  0  0
   -6.9576    8.8146    1.6799 O   0  0  0  0  0  0  0  0  0  0  0  0
   -9.3825    7.1312   -0.4340 O   0  0  0  0  0  0  0  0  0  0  0  0
   -5.0576    7.7390    5.6367 C   0  0  2  0  0  0  0  0  0  0  0  0
   -3.6078    7.4583    6.0075 C   0  0  0  0  0  0  0  0  0  0  0  0
   -3.1739    6.0935    5.4720 C   0  0  1  0  0  0  0  0  0  0  0  0
   -3.3190    6.0673    3.9521 C   0  0  2  0  0  0  0  0  0  0  0  0
   -4.7690    6.3556    3.5603 C   0  0  1  0  0  0  0  0  0  0  0  0
   -5.2066    7.7074    4.1234 C   0  0  1  0  0  0  0  0  0  0  0  0
   -5.4731    9.0727    6.1238 N   0  3  0  0  0  0  0  0  0  0  0  0
   -1.7865    5.7956    5.9128 N   0  3  0  0  0  0  0  0  0  0  0  0
   -4.8943    6.3581    2.1446 O   0  0  0  0  0  0  0  0  0  0  0  0
   -6.5763    7.9653    3.7655 O   0  0  0  0  0  0  0  0  0  0  0  0
   -2.7674    4.7000    2.0574 C   0  0  1  0  0  0  0  0  0  0  0  0
   -3.6976    3.6279    1.4872 C   0  0  1  0  0  0  0  0  0  0  0  0
   -3.3234    2.2591    2.0356 C   0  0  0  0  0  0  0  0  0  0  0  0
   -1.8565    1.9869    1.7449 C   0  0  1  0  0  0  0  0  0  0  0  0
   -0.9982    3.1100    2.3259 C   0  0  1  0  0  0  0  0  0  0  0  0
    0.4786    2.9344    2.0222 C   0  0  0  0  0  0  0  0  0  0  0  0
   -5.1182    3.9608    1.7467 N   0  3  0  0  0  0  0  0  0  0  0  0
    1.0702    1.8342    2.8207 N   0  3  0  0  0  0  0  0  0  0  0  0
   -2.9165    4.7822    3.4355 O   0  0  0  0  0  0  0  0  0  0  0  0
   -1.4728    0.7419    2.3102 O   0  0  0  0  0  0  0  0  0  0  0  0
   -1.4001    4.3811    1.7708 O   0  0  0  0  0  0  0  0  0  0  0  0
  1  2  1  0  0  0  0
  1 10  1  0  0  0  0
  1 21  1  1  0  0  0
  2  3  1  0  0  0  0
  2  7  1  1  0  0  0
  3  4  1  0  0  0  0
  3  8  1  6  0  0  0
  4  5  1  0  0  0  0
  4  9  1  1  0  0  0
  5  6  1  6  0  0  0
  5 10  1  0  0  0  0
  6 11  1  0  0  0  0
 12 13  1  0  0  0  0
 12 17  1  0  0  0  0
 12 18  1  6  0  0  0
 13 14  1  0  0  0  0
 14 15  1  0  0  0  0
 14 19  1  6  0  0  0
 15 16  1  0  0  0  0
 15 30  1  1  0  0  0
 16 17  1  0  0  0  0
 16 20  1  6  0  0  0
 17 21  1  1  0  0  0
 22 23  1  0  0  0  0
 22 30  1  1  0  0  0
 22 32  1  0  0  0  0
 23 24  1  0  0  0  0
 23 28  1  1  0  0  0
 24 25  1  0  0  0  0
 25 26  1  0  0  0  0
 25 31  1  1  0  0  0
 26 27  1  6  0  0  0
 26 32  1  0  0  0  0
 27 29  1  0  0  0  0
M  CHG  5   8   1  18   1  19   1  28   1  29   1
M  END
>  <CHROM.1>
-136.95222861,70.37364145,-177.60415872,68.80875696,-40.70442938,-60.88859856
-156.88100213,89.33763507,-168.72839414,-169.23016412,114.84960299,-121.18326003
55.61560011,51.31180073,-72.53782025,154.66062255,-5.04814877,6.26218586
2.99429391,-2.70452766,0.53080633,-2.27892983

>  <Name>
1tob

>  <RI>
0

>  <Rbt.Current_Directory>
/home/itssahil/PROJECTS/Mol_Feturizer/New_Systems/rnas/1tob

>  <Rbt.Executable>
rbdock ($Id: //depot/dev/client3/rdock/2013.1/src/exe/rbdock.cxx#4 $)

>  <Rbt.Library>
libRbt.so (2013.1, Build901 2013/11/27)

>  <Rbt.Parameter_File>
/export/apps/rDock/src/rDock_2013.1_src/data/scripts/dock_solv.prm

>  <Rbt.Receptor>
prm/pocket_docking_3.prm

>  <SCORE>
-49.5128

>  <SCORE.INTER>
-50.7999

>  <SCORE.INTER.CONST>
1

>  <SCORE.INTER.POLAR>
-7.26969

>  <SCORE.INTER.ROT>
6

>  <SCORE.INTER.SOLV>
32.952

>  <SCORE.INTER.VDW>
-28.2183

>  <SCORE.INTER.norm>
-1.5875

>  <SCORE.INTRA>
1.28711

>  <SCORE.INTRA.DIHEDRAL>
5.94952

>  <SCORE.INTRA.DIHEDRAL.0>
22.9177

>  <SCORE.INTRA.POLAR>
-1.63667

>  <SCORE.INTRA.POLAR.0>
-0.311208

>  <SCORE.INTRA.REPUL>
0

>  <SCORE.INTRA.REPUL.0>
0

>  <SCORE.INTRA.SOLV>
2.65725

>  <SCORE.INTRA.SOLV.lig_0>
-132.657

>  <SCORE.INTRA.VDW>
2.54841

>  <SCORE.INTRA.VDW.0>
-4.68867

>  <SCORE.INTRA.norm>
0.0402222

>  <SCORE.RESTR>
0

>  <SCORE.RESTR.CAVITY>
0

>  <SCORE.RESTR.norm>
0

>  <SCORE.SYSTEM>
0

>  <SCORE.SYSTEM.CONST>
0

>  <SCORE.SYSTEM.DIHEDRAL>
0

>  <SCORE.SYSTEM.SOLV>
0

>  <SCORE.SYSTEM.norm>
0

>  <SCORE.heavy>
32

>  <SCORE.norm>
-1.54727

>  <RMSD>
8.792

$$$$
1tob
 OpenBabel11021811413D
libRbt.so/2013.1/901 2013/11/27
 32 34  0  0  0  0  0  0  0  0999 V2000
   -6.0715    8.0032    1.4245 C   0  0  2  0  0  0  0  0  0  0  0  0
   -6.8580    9.3083    1.5215 C   0  0  1  0  0  0  0  0  0  0  0  0
   -8.3217    9.0045    1.8105 C   0  0  2  0  0  0  0  0  0  0  0  0
   -8.8631    8.0616    0.7426 C   0  0  1  0  0  0  0  0  0  0  0  0
   -8.0023    6.8031    0.6776 C   0  0  1  0  0  0  0  0  0  0  0  0
   -8.4450    5.8571   -0.4213 C   0  0  0  0  0  0  0  0  0  0  0  0
   -6.3221   10.1148    2.5607 O   0  0  0  0  0  0  0  0  0  0  0  0
   -9.1166   10.2482    1.9038 N   0  3  0  0  0  0  0  0  0  0  0  0
  -10.2092    7.7179    1.0423 O   0  0  0  0  0  0  0  0  0  0  0  0
   -6.6280    7.1568    0.4106 O   0  0  0  0  0  0  0  0  0  0  0  0
   -7.6464    4.6825   -0.4479 O   0  0  0  0  0  0  0  0  0  0  0  0
   -5.0692    7.2769    4.8113 C   0  0  2  0  0  0  0  0  0  0  0  0
   -3.7290    7.1383    5.5205 C   0  0  0  0  0  0  0  0  0  0  0  0
   -3.0655    5.8104    5.1545 C   0  0  1  0  0  0  0  0  0  0  0  0
   -2.8454    5.7441    3.6449 C   0  0  2  0  0  0  0  0  0  0  0  0
   -4.1815    5.8899    2.9149 C   0  0  1  0  0  0  0  0  0  0  0  0
   -4.8539    7.2051    3.3073 C   0  0  1  0  0  0  0  0  0  0  0  0
   -5.7008    8.5747    5.1358 N   0  3  0  0  0  0  0  0  0  0  0  0
   -1.8008    5.6501    5.9179 N   0  3  0  0  0  0  0  0  0  0  0  0
   -3.9691    5.8558    1.5099 O   0  0  0  0  0  0  0  0  0  0  0  0
   -6.1176    7.3286    2.6301 O   0  0  0  0  0  0  0  0  0  0  0  0
   -1.9481    4.3146    1.9375 C   0  0  1  0  0  0  0  0  0  0  0  0
   -2.4766    2.9596    1.4637 C   0  0  1  0  0  0  0  0  0  0  0  0
   -1.7640    1.8310    2.1937 C   0  0  0  0  0  0  0  0  0  0  0  0
   -0.2633    1.9812    2.0046 C   0  0  1  0  0  0  0  0  0  0  0  0
    0.1809    3.3642    2.4795 C   0  0  1  0  0  0  0  0  0  0  0  0
    1.6639    3.6075    2.2660 C   0  0  0  0  0  0  0  0  0  0  0  0
   -3.9485    2.8776    1.6164 N   0  3  0  0  0  0  0  0  0  0  0  0
    2.4814    2.5056    2.8274 N   0  3  0  0  0  0  0  0  0  0  0  0
   -2.2236    4.4929    3.2867 O   0  0  0  0  0  0  0  0  0  0  0  0
    0.4210    0.9747    2.7364 O   0  0  0  0  0  0  0  0  0  0  0  0
   -0.5291    4.3911    1.7537 O   0  0  0  0  0  0  0  0  0  0  0  0
  1  2  1  0  0  0  0
  1 10  1  0  0  0  0
  1 21  1  1  0  0  0
  2  3  1  0  0  0  0
  2  7  1  1  0  0  0
  3  4  1  0  0  0  0
  3  8  1  6  0  0  0
  4  5  1  0  0  0  0
  4  9  1  1  0  0  0
  5  6  1  6  0  0  0
  5 10  1  0  0  0  0
  6 11  1  0  0  0  0
 12 13  1  0  0  0  0
 12 17  1  0  0  0  0
 12 18  1  6  0  0  0
 13 14  1  0  0  0  0
 14 15  1  0  0  0  0
 14 19  1  1  0  0  0
 15 16  1  0  0  0  0
 15 30  1  1  0  0  0
 16 17  1  0  0  0  0
 16 20  1  6  0  0  0
 17 21  1  6  0  0  0
 22 23  1  0  0  0  0
 22 30  1  1  0  0  0
 22 32  1  0  0  0  0
 23 24  1  0  0  0  0
 23 28  1  1  0  0  0
 24 25  1  0  0  0  0
 25 26  1  0  0  0  0
 25 31  1  1  0  0  0
 26 27  1  6  0  0  0
 26 32  1  0  0  0  0
 27 29  1  0  0  0  0
M  CHG  5   8   1  18   1  19   1  28   1  29   1
M  END
>  <CHROM.1>
-114.29984268,67.25264921,-157.50129672,59.39278543,-178.92779514,-54.14113802
141.09359056,-164.18109573,-179.01481419,-56.36631657,145.31366267,-130.23630445
31.20667359,-58.89124230,-51.38940598,-177.22777496,-4.26153371,5.83937077
2.38839725,2.82399029,-0.52211142,0.77284937

>  <Name>
1tob

>  <RI>
0

>  <Rbt.Current_Directory>
/home/itssahil/PROJECTS/Mol_Feturizer/New_Systems/rnas/1tob

>  <Rbt.Executable>
rbdock ($Id: //depot/dev/client3/rdock/2013.1/src/exe/rbdock.cxx#4 $)

>  <Rbt.Library>
libRbt.so (2013.1, Build901 2013/11/27)

>  <Rbt.Parameter_File>
/export/apps/rDock/src/rDock_2013.1_src/data/scripts/dock_solv.prm

>  <Rbt.Receptor>
prm/pocket_docking_5.prm

>  <SCORE>
-49.3331

>  <SCORE.INTER>
-45.5512

>  <SCORE.INTER.CONST>
1

>  <SCORE.INTER.POLAR>
-6.26595

>  <SCORE.INTER.ROT>
6

>  <SCORE.INTER.SOLV>
28.5235

>  <SCORE.INTER.VDW>
-26.5888

>  <SCORE.INTER.norm>
-1.42347

>  <SCORE.INTRA>
-3.78188

>  <SCORE.INTRA.DIHEDRAL>
1.98008

>  <SCORE.INTRA.DIHEDRAL.0>
22.9177

>  <SCORE.INTRA.POLAR>
-2.20973

>  <SCORE.INTRA.POLAR.0>
-0.311208

>  <SCORE.INTRA.REPUL>
0

>  <SCORE.INTRA.REPUL.0>
0

>  <SCORE.INTRA.SOLV>
-0.297265

>  <SCORE.INTRA.SOLV.lig_0>
-132.657

>  <SCORE.INTRA.VDW>
2.88978

>  <SCORE.INTRA.VDW.0>
-4.68867

>  <SCORE.INTRA.norm>
-0.118184

>  <SCORE.RESTR>
0

>  <SCORE.RESTR.CAVITY>
0

>  <SCORE.RESTR.norm>
0

>  <SCORE.SYSTEM>
0

>  <SCORE.SYSTEM.CONST>
0

>  <SCORE.SYSTEM.DIHEDRAL>
0

>  <SCORE.SYSTEM.SOLV>
0

>  <SCORE.SYSTEM.norm>
0

>  <SCORE.heavy>
32

>  <SCORE.norm>
-1.54166

>  <RMSD>
8.793

$$$$
1tob
 OpenBabel11021811413D
libRbt.so/2013.1/901 2013/11/27
 32 34  0  0  0  0  0  0  0  0999 V2000
   -6.0811    7.9554    1.5520 C   0  0  2  0  0  0  0  0  0  0  0  0
   -6.9304    9.2215    1.6331 C   0  0  1  0  0  0  0  0  0  0  0  0
   -8.3802    8.8494    1.9126 C   0  0  2  0  0  0  0  0  0  0  0  0
   -8.8665    7.8740    0.8474 C   0  0  1  0  0  0  0  0  0  0  0  0
   -7.9454    6.6581    0.7986 C   0  0  1  0  0  0  0  0  0  0  0  0
   -8.3328    5.6842   -0.2968 C   0  0  0  0  0  0  0  0  0  0  0  0
   -6.4428   10.0603    2.6705 O   0  0  0  0  0  0  0  0  0  0  0  0
   -9.2349   10.0539    1.9904 N   0  3  0  0  0  0  0  0  0  0  0  0
  -10.1969    7.4678    1.1389 O   0  0  0  0  0  0  0  0  0  0  0  0
   -6.5876    7.0760    0.5400 O   0  0  0  0  0  0  0  0  0  0  0  0
   -7.6383    4.4520   -0.1652 O   0  0  0  0  0  0  0  0  0  0  0  0
   -5.0072    7.2402    4.9192 C   0  0  2  0  0  0  0  0  0  0  0  0
   -3.6523    7.0955    5.5985 C   0  0  0  0  0  0  0  0  0  0  0  0
   -3.0070    5.7608    5.2250 C   0  0  1  0  0  0  0  0  0  0  0  0
   -2.8218    5.6846    3.7112 C   0  0  2  0  0  0  0  0  0  0  0  0
   -4.1730    5.8363    3.0109 C   0  0  1  0  0  0  0  0  0  0  0  0
   -4.8267    7.1585    3.4112 C   0  0  1  0  0  0  0  0  0  0  0  0
   -5.6217    8.5444    5.2507 N   0  3  0  0  0  0  0  0  0  0  0  0
   -1.7264    5.5953    5.9604 N   0  3  0  0  0  0  0  0  0  0  0  0
   -3.9930    5.7929    1.6018 O   0  0  0  0  0  0  0  0  0  0  0  0
   -6.1046    7.2877    2.7622 O   0  0  0  0  0  0  0  0  0  0  0  0
   -1.8944    4.2738    2.0043 C   0  0  1  0  0  0  0  0  0  0  0  0
   -2.4599    2.9566    1.4704 C   0  0  1  0  0  0  0  0  0  0  0  0
   -1.8264    1.7785    2.1951 C   0  0  0  0  0  0  0  0  0  0  0  0
   -0.3142    1.8683    2.0706 C   0  0  1  0  0  0  0  0  0  0  0  0
    0.1683    3.2171    2.6031 C   0  0  1  0  0  0  0  0  0  0  0  0
    1.6678    3.4014    2.4563 C   0  0  0  0  0  0  0  0  0  0  0  0
   -3.9389    2.9346    1.5616 N   0  3  0  0  0  0  0  0  0  0  0  0
    2.4144    2.2545    3.0263 N   0  3  0  0  0  0  0  0  0  0  0  0
   -2.2174    4.4269    3.3460 O   0  0  0  0  0  0  0  0  0  0  0  0
    0.2961    0.8133    2.7996 O   0  0  0  0  0  0  0  0  0  0  0  0
   -0.4670    4.2935    1.8798 O   0  0  0  0  0  0  0  0  0  0  0  0
  1  2  1  0  0  0  0
  1 10  1  0  0  0  0
  1 21  1  1  0  0  0
  2  3  1  0  0  0  0
  2  7  1  1  0  0  0
  3  4  1  0  0  0  0
  3  8  1  6  0  0  0
  4  5  1  0  0  0  0
  4  9  1  1  0  0  0
  5  6  1  6  0  0  0
  5 10  1  0  0  0  0
  6 11  1  0  0  0  0
 12 13  1  0  0  0  0
 12 17  1  0  0  0  0
 12 18  1  6  0  0  0
 13 14  1  0  0  0  0
 14 15  1  0  0  0  0
 14 19  1  1  0  0  0
 15 16  1  0  0  0  0
 15 30  1  1  0  0  0
 16 17  1  0  0  0  0
 16 20  1  6  0  0  0
 17 21  1  6  0  0  0
 22 23  1  0  0  0  0
 22 30  1  1  0  0  0
 22 32  1  0  0  0  0
 23 24  1  0  0  0  0
 23 28  1  1  0  0  0
 24 25  1  0  0  0  0
 25 26  1  0  0  0  0
 25 31  1  1  0  0  0
 26 27  1  6  0  0  0
 26 32  1  0  0  0  0
 27 29  1  0  0  0  0
M  CHG  5   8   1  18   1  19   1  28   1  29   1
M  END
>  <CHROM.1>
-117.94984437,176.24561332,177.34339343,-60.72425206,-168.69590869,-172.09155676
22.14533083,80.98342141,-174.98314393,-54.08456363,145.31452778,-129.17293110
38.09744303,-46.23553854,-51.79785697,-144.88065818,-4.26598782,5.73466871
2.48814441,-2.81032962,0.51304187,-2.38995231

>  <Name>
1tob

>  <RI>
0

>  <Rbt.Current_Directory>
/home/itssahil/PROJECTS/Mol_Feturizer/New_Systems/rnas/1tob

>  <Rbt.Executable>
rbdock ($Id: //depot/dev/client3/rdock/2013.1/src/exe/rbdock.cxx#4 $)

>  <Rbt.Library>
libRbt.so (2013.1, Build901 2013/11/27)

>  <Rbt.Parameter_File>
/export/apps/rDock/src/rDock_2013.1_src/data/scripts/dock_solv.prm

>  <Rbt.Receptor>
prm/pocket_docking_5.prm

>  <SCORE>
-48.499

>  <SCORE.INTER>
-46.5792

>  <SCORE.INTER.CONST>
1

>  <SCORE.INTER.POLAR>
-6.42258

>  <SCORE.INTER.ROT>
6

>  <SCORE.INTER.SOLV>
28.8313

>  <SCORE.INTER.VDW>
-26.8546

>  <SCORE.INTER.norm>
-1.4556

>  <SCORE.INTRA>
-1.91984

>  <SCORE.INTRA.DIHEDRAL>
4.59005

>  <SCORE.INTRA.DIHEDRAL.0>
22.9177

>  <SCORE.INTRA.POLAR>
-2.01327

>  <SCORE.INTRA.POLAR.0>
-0.311208

>  <SCORE.INTRA.REPUL>
0.0499158

>  <SCORE.INTRA.REPUL.0>
0

>  <SCORE.INTRA.SOLV>
-0.0782216

>  <SCORE.INTRA.SOLV.lig_0>
-132.657

>  <SCORE.INTRA.VDW>
2.41978

>  <SCORE.INTRA.VDW.0>
-4.68867

>  <SCORE.INTRA.norm>
-0.0599949

>  <SCORE.RESTR>
0

>  <SCORE.RESTR.CAVITY>
0

>  <SCORE.RESTR.norm>
0

>  <SCORE.SYSTEM>
0

>  <SCORE.SYSTEM.CONST>
0

>  <SCORE.SYSTEM.DIHEDRAL>
0

>  <SCORE.SYSTEM.SOLV>
0

>  <SCORE.SYSTEM.norm>
0

>  <SCORE.heavy>
32

>  <SCORE.norm>
-1.51559

>  <RMSD>
8.794

$$$$
1tob
 OpenBabel11021811413D
libRbt.so/2013.1/901 2013/11/27
 32 34  0  0  0  0  0  0  0  0999 V2000
   -6.8714    9.0374    3.0791 C   0  0  2  0  0  0  0  0  0  0  0  0
   -8.1350    9.7122    3.6077 C   0  0  1  0  0  0  0  0  0  0  0  0
   -9.3315    8.7936    3.4010 C   0  0  2  0  0  0  0  0  0  0  0  0
   -9.4307    8.4157    1.9279 C   0  0  1  0  0  0  0  0  0  0  0  0
   -8.1193    7.7876    1.4644 C   0  0  1  0  0  0  0  0  0  0  0  0
   -8.1279    7.4594   -0.0157 C   0  0  0  0  0  0  0  0  0  0  0  0
   -7.9834    9.9971    4.9910 O   0  0  0  0  0  0  0  0  0  0  0  0
  -10.5768    9.4196    3.8959 N   0  3  0  0  0  0  0  0  0  0  0  0
  -10.5037    7.5035    1.7368 O   0  0  0  0  0  0  0  0  0  0  0  0
   -7.0247    8.7010    1.6944 O   0  0  0  0  0  0  0  0  0  0  0  0
   -9.2607    6.6775   -0.3672 O   0  0  0  0  0  0  0  0  0  0  0  0
   -4.9988    7.6883    5.5725 C   0  0  2  0  0  0  0  0  0  0  0  0
   -3.5303    7.4145    5.8670 C   0  0  0  0  0  0  0  0  0  0  0  0
   -3.1265    6.0384    5.3369 C   0  0  1  0  0  0  0  0  0  0  0  0
   -3.3569    5.9802    3.8285 C   0  0  2  0  0  0  0  0  0  0  0  0
   -4.8269    6.2611    3.5130 C   0  0  1  0  0  0  0  0  0  0  0  0
   -5.2327    7.6248    4.0710 C   0  0  1  0  0  0  0  0  0  0  0  0
   -5.3869    9.0322    6.0539 N   0  3  0  0  0  0  0  0  0  0  0  0
   -1.7163    5.7490    5.7051 N   0  3  0  0  0  0  0  0  0  0  0  0
   -5.0316    6.2336    2.1068 O   0  0  0  0  0  0  0  0  0  0  0  0
   -6.6206    7.8759    3.7854 O   0  0  0  0  0  0  0  0  0  0  0  0
   -2.7691    4.6089    1.9475 C   0  0  1  0  0  0  0  0  0  0  0  0
   -3.6560    3.5255    1.3314 C   0  0  1  0  0  0  0  0  0  0  0  0
   -3.2879    2.1604    1.8928 C   0  0  0  0  0  0  0  0  0  0  0  0
   -1.8052    1.9104    1.6701 C   0  0  1  0  0  0  0  0  0  0  0  0
   -0.9914    3.0437    2.2937 C   0  0  1  0  0  0  0  0  0  0  0  0
    0.5004    2.8905    2.0588 C   0  0  0  0  0  0  0  0  0  0  0  0
   -5.0919    3.8369    1.5253 N   0  3  0  0  0  0  0  0  0  0  0  0
    1.0522    1.7355    2.8065 N   0  3  0  0  0  0  0  0  0  0  0  0
   -2.9835    4.6841    3.3174 O   0  0  0  0  0  0  0  0  0  0  0  0
   -1.4301    0.6691    2.2491 O   0  0  0  0  0  0  0  0  0  0  0  0
   -1.3855    4.3109    1.7241 O   0  0  0  0  0  0  0  0  0  0  0  0
  1  2  1  0  0  0  0
  1 10  1  0  0  0  0
  1 21  1  1  0  0  0
  2  3  1  0  0  0  0
  2  7  1  1  0  0  0
  3  4  1  0  0  0  0
  3  8  1  6  0  0  0
  4  5  1  0  0  0  0
  4  9  1  1  0  0  0
  5  6  1  6  0  0  0
  5 10  1  0  0  0  0
  6 11  1  0  0  0  0
 12 13  1  0  0  0  0
 12 17  1  0  0  0  0
 12 18  1  6  0  0  0
 13 14  1  0  0  0  0
 14 15  1  0  0  0  0
 14 19  1  6  0  0  0
 15 16  1  0  0  0  0
 15 30  1  1  0  0  0
 16 17  1  0  0  0  0
 16 20  1  6  0  0  0
 17 21  1  1  0  0  0
 22 23  1  0  0  0  0
 22 30  1  1  0  0  0
 22 32  1  0  0  0  0
 23 24  1  0  0  0  0
 23 28  1  1  0  0  0
 24 25  1  0  0  0  0
 25 26  1  0  0  0  0
 25 31  1  1  0  0  0
 26 27  1  6  0  0  0
 26 32  1  0  0  0  0
 27 29  1  0  0  0  0
M  CHG  5   8   1  18   1  19   1  28   1  29   1
M  END
>  <CHROM.1>
-140.96835619,74.22883520,-51.67170131,-170.47542422,-52.62152117,-63.26231295
78.68598201,130.54725431,-161.92612559,-57.85553605,114.56543618,-124.47684151
178.10314161,46.46120543,-68.48181661,159.14503423,-5.05431696,6.14025688
2.94011376,-2.68835353,0.50406257,-2.30237665

>  <Name>
1tob

>  <RI>
0

>  <Rbt.Current_Directory>
/home/itssahil/PROJECTS/Mol_Feturizer/New_Systems/rnas/1tob

>  <Rbt.Executable>
rbdock ($Id: //depot/dev/client3/rdock/2013.1/src/exe/rbdock.cxx#4 $)

>  <Rbt.Library>
libRbt.so (2013.1, Build901 2013/11/27)

>  <Rbt.Parameter_File>
/export/apps/rDock/src/rDock_2013.1_src/data/scripts/dock_solv.prm

>  <Rbt.Receptor>
prm/pocket_docking_3.prm

>  <SCORE>
-48.6813

>  <SCORE.INTER>
-48.0582

>  <SCORE.INTER.CONST>
1

>  <SCORE.INTER.POLAR>
-6.44047

>  <SCORE.INTER.ROT>
6

>  <SCORE.INTER.SOLV>
32.9906

>  <SCORE.INTER.VDW>
-29.1674

>  <SCORE.INTER.norm>
-1.50182

>  <SCORE.INTRA>
-0.623168

>  <SCORE.INTRA.DIHEDRAL>
6.19962

>  <SCORE.INTRA.DIHEDRAL.0>
22.9177

>  <SCORE.INTRA.POLAR>
-1.98378

>  <SCORE.INTRA.POLAR.0>
-0.311208

>  <SCORE.INTRA.REPUL>
0

>  <SCORE.INTRA.REPUL.0>
0

>  <SCORE.INTRA.SOLV>
1.35654

>  <SCORE.INTRA.SOLV.lig_0>
-132.657

>  <SCORE.INTRA.VDW>
2.3436

>  <SCORE.INTRA.VDW.0>
-4.68867

>  <SCORE.INTRA.norm>
-0.019474

>  <SCORE.RESTR>
0

>  <SCORE.RESTR.CAVITY>
0

>  <SCORE.RESTR.norm>
0

>  <SCORE.SYSTEM>
0

>  <SCORE.SYSTEM.CONST>
0

>  <SCORE.SYSTEM.DIHEDRAL>
0

>  <SCORE.SYSTEM.SOLV>
0

>  <SCORE.SYSTEM.norm>
0

>  <SCORE.heavy>
32

>  <SCORE.norm>
-1.52129

>  <RMSD>
8.795

$$$$
1tob
 OpenBabel11021811413D
libRbt.so/2013.1/901 2013/11/27
 32 34  0  0  0  0  0  0  0  0999 V2000
   -5.6656    8.2246    3.0956 C   0  0  2  0  0  0  0  0  0  0  0  0
   -6.9327    8.9696    3.5086 C   0  0  1  0  0  0  0  0  0  0  0  0
   -8.1420    8.0616    3.3314 C   0  0  2  0  0  0  0  0  0  0  0  0
   -8.1900    7.5577    1.8940 C   0  0  1  0  0  0  0  0  0  0  0  0
   -6.8765    6.8639    1.5437 C   0  0  1  0  0  0  0  0  0  0  0  0
   -6.8326    6.4068    0.0988 C   0  0  0  0  0  0  0  0  0  0  0  0
   -6.8309    9.3720    4.8670 O   0  0  0  0  0  0  0  0  0  0  0  0
   -9.3907    8.7547    3.7159 N   0  3  0  0  0  0  0  0  0  0  0  0
   -9.2764    6.6549    1.7370 O   0  0  0  0  0  0  0  0  0  0  0  0
   -5.7702    7.7708    1.7401 O   0  0  0  0  0  0  0  0  0  0  0  0
   -5.5256    5.9950   -0.2757 O   0  0  0  0  0  0  0  0  0  0  0  0
   -3.8059    6.9357    5.6557 C   0  0  2  0  0  0  0  0  0  0  0  0
   -2.3507    6.5761    5.9226 C   0  0  0  0  0  0  0  0  0  0  0  0
   -2.0631    5.1434    5.4731 C   0  0  1  0  0  0  0  0  0  0  0  0
   -2.3499    5.0054    3.9796 C   0  0  2  0  0  0  0  0  0  0  0  0
   -3.8068    5.3708    3.6912 C   0  0  1  0  0  0  0  0  0  0  0  0
   -4.0964    6.7931    4.1695 C   0  0  1  0  0  0  0  0  0  0  0  0
   -4.0819    8.3321    6.0584 N   0  3  0  0  0  0  0  0  0  0  0  0
   -0.6645    4.7772    5.8164 N   0  3  0  0  0  0  0  0  0  0  0  0
   -4.0624    5.2681    2.2968 O   0  0  0  0  0  0  0  0  0  0  0  0
   -5.4725    7.1248    3.9105 O   0  0  0  0  0  0  0  0  0  0  0  0
   -1.7511    3.5025    2.2057 C   0  0  1  0  0  0  0  0  0  0  0  0
   -1.9606    2.0512    1.7701 C   0  0  1  0  0  0  0  0  0  0  0  0
   -1.0333    1.1285    2.5467 C   0  0  0  0  0  0  0  0  0  0  0  0
    0.4017    1.5985    2.3728 C   0  0  1  0  0  0  0  0  0  0  0  0
    0.5228    3.0586    2.8075 C   0  0  1  0  0  0  0  0  0  0  0  0
    1.9207    3.6148    2.6058 C   0  0  0  0  0  0  0  0  0  0  0  0
   -3.3817    1.6529    1.9058 N   0  3  0  0  0  0  0  0  0  0  0  0
    2.0314    4.3548    1.3260 N   0  3  0  0  0  0  0  0  0  0  0  0
   -2.0863    3.6557    3.5444 O   0  0  0  0  0  0  0  0  0  0  0  0
    1.2746    0.7886    3.1467 O   0  0  0  0  0  0  0  0  0  0  0  0
   -0.3798    3.8829    2.0385 O   0  0  0  0  0  0  0  0  0  0  0  0
  1  2  1  0  0  0  0
  1 10  1  0  0  0  0
  1 21  1  1  0  0  0
  2  3  1  0  0  0  0
  2  7  1  1  0  0  0
  3  4  1  0  0  0  0
  3  8  1  6  0  0  0
  4  5  1  0  0  0  0
  4  9  1  1  0  0  0
  5  6  1  6  0  0  0
  5 10  1  0  0  0  0
  6 11  1  0  0  0  0
 12 13  1  0  0  0  0
 12 17  1  0  0  0  0
 12 18  1  6  0  0  0
 13 14  1  0  0  0  0
 14 15  1  0  0  0  0
 14 19  1  6  0  0  0
 15 16  1  0  0  0  0
 15 30  1  1  0  0  0
 16 17  1  0  0  0  0
 16 20  1  6  0  0  0
 17 21  1  1  0  0  0
 22 23  1  0  0  0  0
 22 30  1  1  0  0  0
 22 32  1  0  0  0  0
 23 24  1  0  0  0  0
 23 28  1  1  0  0  0
 24 25  1  0  0  0  0
 25 26  1  0  0  0  0
 25 31  1  1  0  0  0
 26 27  1  6  0  0  0
 26 32  1  0  0  0  0
 27 29  1  0  0  0  0
M  CHG  5   8   1  18   1  19   1  28   1  29   1
M  END
>  <CHROM.1>
-146.78036263,177.16424407,173.37925343,-54.12504752,169.01308922,46.10308727
65.90596099,126.25958876,-153.70100604,73.65382071,116.86852129,-160.92147895
-26.76527265,162.15097593,96.42518993,-45.41021944,-3.65579467,5.48029221
3.06989868,-2.75208288,0.47844642,-2.25293190

>  <Name>
1tob

>  <RI>
0

>  <Rbt.Current_Directory>
/home/itssahil/PROJECTS/Mol_Feturizer/New_Systems/rnas/1tob

>  <Rbt.Executable>
rbdock ($Id: //depot/dev/client3/rdock/2013.1/src/exe/rbdock.cxx#4 $)

>  <Rbt.Library>
libRbt.so (2013.1, Build901 2013/11/27)

>  <Rbt.Parameter_File>
/export/apps/rDock/src/rDock_2013.1_src/data/scripts/dock_solv.prm

>  <Rbt.Receptor>
prm/blind_docking_60.prm

>  <SCORE>
-27.3535

>  <SCORE.INTER>
-31.3412

>  <SCORE.INTER.CONST>
1

>  <SCORE.INTER.POLAR>
-5.0901

>  <SCORE.INTER.ROT>
6

>  <SCORE.INTER.SOLV>
46.1108

>  <SCORE.INTER.VDW>
-26.8974

>  <SCORE.INTER.norm>
-0.979411

>  <SCORE.INTRA>
-1.7647

>  <SCORE.INTRA.DIHEDRAL>
6.69771

>  <SCORE.INTRA.DIHEDRAL.0>
22.9177

>  <SCORE.INTRA.POLAR>
-1.49312

>  <SCORE.INTRA.POLAR.0>
-0.311208

>  <SCORE.INTRA.REPUL>
0

>  <SCORE.INTRA.REPUL.0>
0

>  <SCORE.INTRA.SOLV>
-1.3041

>  <SCORE.INTRA.SOLV.lig_0>
-132.657

>  <SCORE.INTRA.VDW>
0.615124

>  <SCORE.INTRA.VDW.0>
-4.68867

>  <SCORE.INTRA.norm>
-0.0551467

>  <SCORE.RESTR>
5.75235

>  <SCORE.RESTR.CAVITY>
5.75235

>  <SCORE.RESTR.norm>
0.179761

>  <SCORE.SYSTEM>
0

>  <SCORE.SYSTEM.CONST>
0

>  <SCORE.SYSTEM.DIHEDRAL>
0

>  <SCORE.SYSTEM.SOLV>
0

>  <SCORE.SYSTEM.norm>
0

>  <SCORE.heavy>
32

>  <SCORE.norm>
-0.854797

>  <RMSD>
8.797

$$$$
1tob
 OpenBabel11021811413D
libRbt.so/2013.1/901 2013/11/27
 32 34  0  0  0  0  0  0  0  0999 V2000
   -5.6503    4.7264    1.8863 C   0  0  2  0  0  0  0  0  0  0  0  0
   -5.6633    3.8045    0.6694 C   0  0  1  0  0  0  0  0  0  0  0  0
   -6.2028    4.5578   -0.5388 C   0  0  2  0  0  0  0  0  0  0  0  0
   -7.5777    5.1259   -0.2082 C   0  0  1  0  0  0  0  0  0  0  0  0
   -7.4910    5.9999    1.0400 C   0  0  1  0  0  0  0  0  0  0  0  0
   -8.8446    6.5338    1.4659 C   0  0  0  0  0  0  0  0  0  0  0  0
   -4.3456    3.3479    0.3997 O   0  0  0  0  0  0  0  0  0  0  0  0
   -6.2366    3.6911   -1.7368 N   0  3  0  0  0  0  0  0  0  0  0  0
   -8.0595    5.8889   -1.3063 O   0  0  0  0  0  0  0  0  0  0  0  0
   -6.9656    5.2333    2.1452 O   0  0  0  0  0  0  0  0  0  0  0  0
   -8.7752    7.1724    2.7330 O   0  0  0  0  0  0  0  0  0  0  0  0
   -4.3549    6.1094    4.0211 C   0  0  2  0  0  0  0  0  0  0  0  0
   -3.2359    6.2685    5.0412 C   0  0  0  0  0  0  0  0  0  0  0  0
   -2.3074    5.0543    5.0097 C   0  0  1  0  0  0  0  0  0  0  0  0
   -1.7009    4.9064    3.6162 C   0  0  2  0  0  0  0  0  0  0  0  0
   -2.8118    4.7533    2.5761 C   0  0  1  0  0  0  0  0  0  0  0  0
   -3.7537    5.9556    2.6325 C   0  0  1  0  0  0  0  0  0  0  0  0
   -5.2378    7.2964    4.0239 N   0  3  0  0  0  0  0  0  0  0  0  0
   -1.2710    5.1832    6.0667 N   0  3  0  0  0  0  0  0  0  0  0  0
   -2.2444    4.6440    1.2776 O   0  0  0  0  0  0  0  0  0  0  0  0
   -4.8056    5.7977    1.6634 O   0  0  0  0  0  0  0  0  0  0  0  0
   -0.5670    3.2399    2.3119 C   0  0  1  0  0  0  0  0  0  0  0  0
   -1.1396    1.8263    2.1950 C   0  0  1  0  0  0  0  0  0  0  0  0
   -0.4551    0.8964    3.1853 C   0  0  0  0  0  0  0  0  0  0  0  0
    1.0478    0.9475    2.9638 C   0  0  1  0  0  0  0  0  0  0  0  0
    1.5371    2.3910    3.0749 C   0  0  1  0  0  0  0  0  0  0  0  0
    3.0249    2.5266    2.8063 C   0  0  0  0  0  0  0  0  0  0  0  0
   -2.6120    1.8311    2.3641 N   0  3  0  0  0  0  0  0  0  0  0  0
    3.4087    3.9400    2.5766 N   0  3  0  0  0  0  0  0  0  0  0  0
   -0.8259    3.7606    3.5729 O   0  0  0  0  0  0  0  0  0  0  0  0
    1.7078    0.1369    3.9252 O   0  0  0  0  0  0  0  0  0  0  0  0
    0.8521    3.2236    2.1142 O   0  0  0  0  0  0  0  0  0  0  0  0
  1  2  1  0  0  0  0
  1 10  1  0  0  0  0
  1 21  1  6  0  0  0
  2  3  1  0  0  0  0
  2  7  1  6  0  0  0
  3  4  1  0  0  0  0
  3  8  1  6  0  0  0
  4  5  1  0  0  0  0
  4  9  1  6  0  0  0
  5  6  1  1  0  0  0
  5 10  1  0  0  0  0
  6 11  1  0  0  0  0
 12 13  1  0  0  0  0
 12 17  1  0  0  0  0
 12 18  1  6  0  0  0
 13 14  1  0  0  0  0
 14 15  1  0  0  0  0
 14 19  1  1  0  0  0
 15 16  1  0  0  0  0
 15 30  1  1  0  0  0
 16 17  1  0  0  0  0
 16 20  1  6  0  0  0
 17 21  1  6  0  0  0
 22 23  1  0  0  0  0
 22 30  1  1  0  0  0
 22 32  1  0  0  0  0
 23 24  1  0  0  0  0
 23 28  1  1  0  0  0
 24 25  1  0  0  0  0
 25 26  1  0  0  0  0
 25 31  1  1  0  0  0
 26 27  1  6  0  0  0
 26 32  1  0  0  0  0
 27 29  1  0  0  0  0
M  CHG  5   8   1  18   1  19   1  28   1  29   1
M  END
>  <CHROM.1>
-123.01631548,162.12436843,173.77232376,-175.66415123,171.16455382,-171.65535648
-86.91079977,-34.23194664,159.04577602,179.01261831,-57.92799710,-115.09078618
62.39626519,-178.15906513,165.43032142,86.01447090,-3.18218900,4.28349179
2.28295388,3.12207619,-0.44432859,0.92625440

>  <Name>
1tob

>  <RI>
0

>  <Rbt.Current_Directory>
/home/itssahil/PROJECTS/Mol_Feturizer/New_Systems/rnas/1tob

>  <Rbt.Executable>
rbdock ($Id: //depot/dev/client3/rdock/2013.1/src/exe/rbdock.cxx#4 $)

>  <Rbt.Library>
libRbt.so (2013.1, Build901 2013/11/27)

>  <Rbt.Parameter_File>
/export/apps/rDock/src/rDock_2013.1_src/data/scripts/dock_solv.prm

>  <Rbt.Receptor>
prm/blind_docking_100.prm

>  <SCORE>
-34.6966

>  <SCORE.INTER>
-42.9935

>  <SCORE.INTER.CONST>
1

>  <SCORE.INTER.POLAR>
-6.50283

>  <SCORE.INTER.ROT>
6

>  <SCORE.INTER.SOLV>
40.0376

>  <SCORE.INTER.VDW>
-27.9321

>  <SCORE.INTER.norm>
-1.34355

>  <SCORE.INTRA>
1.17188

>  <SCORE.INTRA.DIHEDRAL>
0.570523

>  <SCORE.INTRA.DIHEDRAL.0>
22.9177

>  <SCORE.INTRA.POLAR>
-1.77466

>  <SCORE.INTRA.POLAR.0>
-0.311208

>  <SCORE.INTRA.REPUL>
0

>  <SCORE.INTRA.REPUL.0>
0

>  <SCORE.INTRA.SOLV>
1.06034

>  <SCORE.INTRA.SOLV.lig_0>
-132.657

>  <SCORE.INTRA.VDW>
6.39028

>  <SCORE.INTRA.VDW.0>
-4.68867

>  <SCORE.INTRA.norm>
0.0366212

>  <SCORE.RESTR>
7.12508

>  <SCORE.RESTR.CAVITY>
7.12508

>  <SCORE.RESTR.norm>
0.222659

>  <SCORE.SYSTEM>
0

>  <SCORE.SYSTEM.CONST>
0

>  <SCORE.SYSTEM.DIHEDRAL>
0

>  <SCORE.SYSTEM.SOLV>
0

>  <SCORE.SYSTEM.norm>
0

>  <SCORE.heavy>
32

>  <SCORE.norm>
-1.08427

>  <RMSD>
8.803

$$$$
1tob
 OpenBabel11021811413D
libRbt.so/2013.1/901 2013/11/27
 32 34  0  0  0  0  0  0  0  0999 V2000
   -5.9534    7.8545    2.2350 C   0  0  2  0  0  0  0  0  0  0  0  0
   -6.9444    9.0147    2.1798 C   0  0  1  0  0  0  0  0  0  0  0  0
   -8.3274    8.5277    2.5900 C   0  0  2  0  0  0  0  0  0  0  0  0
   -8.7340    7.3555    1.7051 C   0  0  1  0  0  0  0  0  0  0  0  0
   -7.6767    6.2575    1.7809 C   0  0  1  0  0  0  0  0  0  0  0  0
   -7.9865    5.0933    0.8604 C   0  0  0  0  0  0  0  0  0  0  0  0
   -6.5212   10.0487    3.0570 O   0  0  0  0  0  0  0  0  0  0  0  0
   -9.3165    9.6262    2.5408 N   0  3  0  0  0  0  0  0  0  0  0  0
   -9.9942    6.8501    2.1254 O   0  0  0  0  0  0  0  0  0  0  0  0
   -6.3895    6.7823    1.3899 O   0  0  0  0  0  0  0  0  0  0  0  0
   -7.9516    5.4871   -0.5041 O   0  0  0  0  0  0  0  0  0  0  0  0
   -4.4360    7.3110    5.4912 C   0  0  2  0  0  0  0  0  0  0  0  0
   -3.0135    7.0452    5.9647 C   0  0  0  0  0  0  0  0  0  0  0  0
   -2.5810    5.6279    5.5880 C   0  0  1  0  0  0  0  0  0  0  0  0
   -2.6476    5.4554    4.0722 C   0  0  2  0  0  0  0  0  0  0  0  0
   -4.0690    5.7267    3.5772 C   0  0  1  0  0  0  0  0  0  0  0  0
   -4.5069    7.1338    3.9823 C   0  0  1  0  0  0  0  0  0  0  0  0
   -4.8482    8.6923    5.8238 N   0  3  0  0  0  0  0  0  0  0  0  0
   -1.2248    5.3528    6.1294 N   0  3  0  0  0  0  0  0  0  0  0  0
   -4.1206    5.5926    2.1632 O   0  0  0  0  0  0  0  0  0  0  0  0
   -5.8506    7.3769    3.5281 O   0  0  0  0  0  0  0  0  0  0  0  0
   -1.5978    3.9936    2.4833 C   0  0  1  0  0  0  0  0  0  0  0  0
   -1.9953    2.6808    1.8061 C   0  0  1  0  0  0  0  0  0  0  0  0
   -1.5458    1.4960    2.6478 C   0  0  0  0  0  0  0  0  0  0  0  0
   -0.0514    1.6020    2.9042 C   0  0  1  0  0  0  0  0  0  0  0  0
    0.2657    2.9456    3.5599 C   0  0  1  0  0  0  0  0  0  0  0  0
    1.7522    3.1464    3.7929 C   0  0  0  0  0  0  0  0  0  0  0  0
   -3.4503    2.6434    1.5268 N   0  3  0  0  0  0  0  0  0  0  0  0
    2.4457    3.5602    2.5497 N   0  3  0  0  0  0  0  0  0  0  0  0
   -2.2458    4.1197    3.7049 O   0  0  0  0  0  0  0  0  0  0  0  0
    0.3730    0.5399    3.7461 O   0  0  0  0  0  0  0  0  0  0  0  0
   -0.1846    4.0287    2.7175 O   0  0  0  0  0  0  0  0  0  0  0  0
  1  2  1  0  0  0  0
  1 10  1  0  0  0  0
  1 21  1  1  0  0  0
  2  3  1  0  0  0  0
  2  7  1  1  0  0  0
  3  4  1  0  0  0  0
  3  8  1  6  0  0  0
  4  5  1  0  0  0  0
  4  9  1  1  0  0  0
  5  6  1  6  0  0  0
  5 10  1  0  0  0  0
  6 11  1  0  0  0  0
 12 13  1  0  0  0  0
 12 17  1  0  0  0  0
 12 18  1  6  0  0  0
 13 14  1  0  0  0  0
 14 15  1  0  0  0  0
 14 19  1  6  0  0  0
 15 16  1  0  0  0  0
 15 30  1  1  0  0  0
 16 17  1  0  0  0  0
 16 20  1  6  0  0  0
 17 21  1  1  0  0  0
 22 23  1  0  0  0  0
 22 30  1  1  0  0  0
 22 32  1  0  0  0  0
 23 24  1  0  0  0  0
 23 28  1  1  0  0  0
 24 25  1  0  0  0  0
 25 26  1  0  0  0  0
 25 31  1  1  0  0  0
 26 27  1  6  0  0  0
 26 32  1  0  0  0  0
 27 29  1  0  0  0  0
M  CHG  5   8   1  18   1  19   1  28   1  29   1
M  END
>  <CHROM.1>
-134.85916029,56.27265328,-65.47172630,-60.25789100,64.59923938,-172.48117303
-160.13796610,-153.41399843,-147.55296759,-58.10297661,151.36203497,-144.13101908
-89.97507517,-62.29480481,79.36408389,36.66773724,-4.05512941,5.60525396
3.03926846,-2.79917842,0.47503354,-2.44617334

>  <Name>
1tob

>  <RI>
0

>  <Rbt.Current_Directory>
/home/itssahil/PROJECTS/Mol_Feturizer/New_Systems/rnas/1tob

>  <Rbt.Executable>
rbdock ($Id: //depot/dev/client3/rdock/2013.1/src/exe/rbdock.cxx#4 $)

>  <Rbt.Library>
libRbt.so (2013.1, Build901 2013/11/27)

>  <Rbt.Parameter_File>
/export/apps/rDock/src/rDock_2013.1_src/data/scripts/dock_solv.prm

>  <Rbt.Receptor>
prm/pocket_docking_4.prm

>  <SCORE>
-40.7992

>  <SCORE.INTER>
-37.954

>  <SCORE.INTER.CONST>
1

>  <SCORE.INTER.POLAR>
-5.98386

>  <SCORE.INTER.ROT>
6

>  <SCORE.INTER.SOLV>
33.1504

>  <SCORE.INTER.VDW>
-24.0066

>  <SCORE.INTER.norm>
-1.18606

>  <SCORE.INTRA>
-3.19569

>  <SCORE.INTRA.DIHEDRAL>
2.71512

>  <SCORE.INTRA.DIHEDRAL.0>
22.9177

>  <SCORE.INTRA.POLAR>
-1.08744

>  <SCORE.INTRA.POLAR.0>
-0.311208

>  <SCORE.INTRA.REPUL>
0

>  <SCORE.INTRA.REPUL.0>
0

>  <SCORE.INTRA.SOLV>
-2.07627

>  <SCORE.INTRA.SOLV.lig_0>
-132.657

>  <SCORE.INTRA.VDW>
0.18218

>  <SCORE.INTRA.VDW.0>
-4.68867

>  <SCORE.INTRA.norm>
-0.0998654

>  <SCORE.RESTR>
0.350492

>  <SCORE.RESTR.CAVITY>
0.350492

>  <SCORE.RESTR.norm>
0.0109529

>  <SCORE.SYSTEM>
0

>  <SCORE.SYSTEM.CONST>
0

>  <SCORE.SYSTEM.DIHEDRAL>
0

>  <SCORE.SYSTEM.SOLV>
0

>  <SCORE.SYSTEM.norm>
0

>  <SCORE.heavy>
32

>  <SCORE.norm>
-1.27498

>  <RMSD>
8.813

$$$$
1tob
 OpenBabel11021811413D
libRbt.so/2013.1/901 2013/11/27
 32 34  0  0  0  0  0  0  0  0999 V2000
   -6.0355    8.2251    1.5446 C   0  0  2  0  0  0  0  0  0  0  0  0
   -7.4262    8.8493    1.6310 C   0  0  1  0  0  0  0  0  0  0  0  0
   -8.4741    7.8266    1.2135 C   0  0  2  0  0  0  0  0  0  0  0  0
   -8.1428    7.3024   -0.1786 C   0  0  1  0  0  0  0  0  0  0  0  0
   -6.7264    6.7343   -0.1951 C   0  0  1  0  0  0  0  0  0  0  0  0
   -6.3086    6.2655   -1.5750 C   0  0  0  0  0  0  0  0  0  0  0  0
   -7.6779    9.2768    2.9620 O   0  0  0  0  0  0  0  0  0  0  0  0
   -9.8356    8.4006    1.2782 N   0  3  0  0  0  0  0  0  0  0  0  0
   -9.0767    6.2969   -0.5485 O   0  0  0  0  0  0  0  0  0  0  0  0
   -5.7826    7.7463    0.2176 O   0  0  0  0  0  0  0  0  0  0  0  0
   -5.9605    7.3596   -2.4115 O   0  0  0  0  0  0  0  0  0  0  0  0
   -4.7805    7.2507    4.5442 C   0  0  2  0  0  0  0  0  0  0  0  0
   -3.4188    7.0792    5.2035 C   0  0  0  0  0  0  0  0  0  0  0  0
   -2.8775    5.6714    4.9534 C   0  0  1  0  0  0  0  0  0  0  0  0
   -2.7434    5.4311    3.4514 C   0  0  2  0  0  0  0  0  0  0  0  0
   -4.1016    5.6072    2.7705 C   0  0  1  0  0  0  0  0  0  0  0  0
   -4.6514    7.0058    3.0487 C   0  0  1  0  0  0  0  0  0  0  0  0
   -5.2945    8.6218    4.7550 N   0  3  0  0  0  0  0  0  0  0  0  0
   -1.5896    5.4901    5.6722 N   0  3  0  0  0  0  0  0  0  0  0  0
   -3.9674    5.4102    1.3694 O   0  0  0  0  0  0  0  0  0  0  0  0
   -5.9364    7.1594    2.4195 O   0  0  0  0  0  0  0  0  0  0  0  0
   -1.8457    3.8362    1.8976 C   0  0  1  0  0  0  0  0  0  0  0  0
   -2.0998    2.3662    1.5590 C   0  0  1  0  0  0  0  0  0  0  0  0
   -1.2538    1.4665    2.4473 C   0  0  0  0  0  0  0  0  0  0  0  0
    0.2078    1.8617    2.3134 C   0  0  1  0  0  0  0  0  0  0  0  0
    0.3742    3.3440    2.6459 C   0  0  1  0  0  0  0  0  0  0  0  0
    1.8040    3.8246    2.4762 C   0  0  0  0  0  0  0  0  0  0  0  0
   -3.5424    2.0391    1.6503 N   0  3  0  0  0  0  0  0  0  0  0  0
    2.6978    3.2448    3.5071 N   0  3  0  0  0  0  0  0  0  0  0  0
   -2.2374    4.1034    3.2026 O   0  0  0  0  0  0  0  0  0  0  0  0
    1.0047    1.0764    3.1881 O   0  0  0  0  0  0  0  0  0  0  0  0
   -0.4520    4.1452    1.7736 O   0  0  0  0  0  0  0  0  0  0  0  0
  1  2  1  0  0  0  0
  1 10  1  0  0  0  0
  1 21  1  1  0  0  0
  2  3  1  0  0  0  0
  2  7  1  1  0  0  0
  3  4  1  0  0  0  0
  3  8  1  6  0  0  0
  4  5  1  0  0  0  0
  4  9  1  1  0  0  0
  5  6  1  6  0  0  0
  5 10  1  0  0  0  0
  6 11  1  0  0  0  0
 12 13  1  0  0  0  0
 12 17  1  0  0  0  0
 12 18  1  6  0  0  0
 13 14  1  0  0  0  0
 14 15  1  0  0  0  0
 14 19  1  1  0  0  0
 15 16  1  0  0  0  0
 15 30  1  1  0  0  0
 16 17  1  0  0  0  0
 16 20  1  6  0  0  0
 17 21  1  6  0  0  0
 22 23  1  0  0  0  0
 22 30  1  1  0  0  0
 22 32  1  0  0  0  0
 23 24  1  0  0  0  0
 23 28  1  1  0  0  0
 24 25  1  0  0  0  0
 25 26  1  0  0  0  0
 25 31  1  1  0  0  0
 26 27  1  6  0  0  0
 26 32  1  0  0  0  0
 27 29  1  0  0  0  0
M  CHG  5   8   1  18   1  19   1  28   1  29   1
M  END
>  <CHROM.1>
-143.80791354,176.30236100,53.57728565,-178.36246400,77.11682138,169.96246041
-81.41890779,8.68327887,-169.05072558,178.51081841,114.18703676,-147.68384073
113.09809823,65.27763426,-69.29782440,162.14554501,-3.95633568,5.63637716
2.14031493,-3.05467409,0.59819776,-2.12951687

>  <Name>
1tob

>  <RI>
0

>  <Rbt.Current_Directory>
/home/itssahil/PROJECTS/Mol_Feturizer/New_Systems/rnas/1tob

>  <Rbt.Executable>
rbdock ($Id: //depot/dev/client3/rdock/2013.1/src/exe/rbdock.cxx#4 $)

>  <Rbt.Library>
libRbt.so (2013.1, Build901 2013/11/27)

>  <Rbt.Parameter_File>
/export/apps/rDock/src/rDock_2013.1_src/data/scripts/dock_solv.prm

>  <Rbt.Receptor>
prm/pocket_docking_7.prm

>  <SCORE>
-40.3594

>  <SCORE.INTER>
-38.4219

>  <SCORE.INTER.CONST>
1

>  <SCORE.INTER.POLAR>
-4.84853

>  <SCORE.INTER.ROT>
6

>  <SCORE.INTER.SOLV>
27.8144

>  <SCORE.INTER.VDW>
-26.3243

>  <SCORE.INTER.norm>
-1.20068

>  <SCORE.INTRA>
-1.93751

>  <SCORE.INTRA.DIHEDRAL>
4.10272

>  <SCORE.INTRA.DIHEDRAL.0>
22.9177

>  <SCORE.INTRA.POLAR>
-1.70261

>  <SCORE.INTRA.POLAR.0>
-0.311208

>  <SCORE.INTRA.REPUL>
0

>  <SCORE.INTRA.REPUL.0>
0

>  <SCORE.INTRA.SOLV>
-1.41937

>  <SCORE.INTRA.SOLV.lig_0>
-132.657

>  <SCORE.INTRA.VDW>
2.5097

>  <SCORE.INTRA.VDW.0>
-4.68867

>  <SCORE.INTRA.norm>
-0.0605472

>  <SCORE.RESTR>
0

>  <SCORE.RESTR.CAVITY>
0

>  <SCORE.RESTR.norm>
0

>  <SCORE.SYSTEM>
0

>  <SCORE.SYSTEM.CONST>
0

>  <SCORE.SYSTEM.DIHEDRAL>
0

>  <SCORE.SYSTEM.SOLV>
0

>  <SCORE.SYSTEM.norm>
0

>  <SCORE.heavy>
32

>  <SCORE.norm>
-1.26123

>  <RMSD>
8.813

$$$$
1tob
 OpenBabel11021811413D
libRbt.so/2013.1/901 2013/11/27
 32 34  0  0  0  0  0  0  0  0999 V2000
   -6.2884    5.4478    1.5327 C   0  0  2  0  0  0  0  0  0  0  0  0
   -6.9406    4.8476    0.2895 C   0  0  1  0  0  0  0  0  0  0  0  0
   -7.5927    5.9520   -0.5312 C   0  0  2  0  0  0  0  0  0  0  0  0
   -8.5756    6.7199    0.3444 C   0  0  1  0  0  0  0  0  0  0  0  0
   -7.8604    7.2512    1.5836 C   0  0  1  0  0  0  0  0  0  0  0  0
   -8.8039    7.9606    2.5349 C   0  0  0  0  0  0  0  0  0  0  0  0
   -5.9590    4.1846   -0.4943 O   0  0  0  0  0  0  0  0  0  0  0  0
   -8.2422    5.4047   -1.7419 N   0  3  0  0  0  0  0  0  0  0  0  0
   -9.1382    7.7961   -0.3940 O   0  0  0  0  0  0  0  0  0  0  0  0
   -7.2569    6.1604    2.3124 O   0  0  0  0  0  0  0  0  0  0  0  0
   -9.6927    7.0467    3.1618 O   0  0  0  0  0  0  0  0  0  0  0  0
   -4.5110    6.8748    3.3940 C   0  0  2  0  0  0  0  0  0  0  0  0
   -3.2860    6.8643    4.2981 C   0  0  0  0  0  0  0  0  0  0  0  0
   -2.7386    5.4437    4.4399 C   0  0  1  0  0  0  0  0  0  0  0  0
   -2.3545    4.9007    3.0654 C   0  0  2  0  0  0  0  0  0  0  0  0
   -3.5723    4.9114    2.1401 C   0  0  1  0  0  0  0  0  0  0  0  0
   -4.1329    6.3286    2.0258 C   0  0  1  0  0  0  0  0  0  0  0  0
   -5.0254    8.2516    3.2265 N   0  3  0  0  0  0  0  0  0  0  0  0
   -1.5967    5.4348    5.3907 N   0  3  0  0  0  0  0  0  0  0  0  0
   -3.2044    4.4316    0.8539 O   0  0  0  0  0  0  0  0  0  0  0  0
   -5.2880    6.3290    1.1674 O   0  0  0  0  0  0  0  0  0  0  0  0
   -1.1482    3.0708    2.0856 C   0  0  1  0  0  0  0  0  0  0  0  0
   -1.2003    1.5422    2.0620 C   0  0  1  0  0  0  0  0  0  0  0  0
   -0.5026    0.9718    3.2876 C   0  0  0  0  0  0  0  0  0  0  0  0
    0.9151    1.5157    3.3555 C   0  0  1  0  0  0  0  0  0  0  0  0
    0.8823    3.0436    3.3531 C   0  0  1  0  0  0  0  0  0  0  0  0
    2.2701    3.6584    3.3603 C   0  0  0  0  0  0  0  0  0  0  0  0
   -2.5955    1.0574    1.9412 N   0  3  0  0  0  0  0  0  0  0  0  0
    2.8462    3.7151    1.9956 N   0  3  0  0  0  0  0  0  0  0  0  0
   -1.8406    3.5584    3.1860 O   0  0  0  0  0  0  0  0  0  0  0  0
    1.5588    1.0468    4.5313 O   0  0  0  0  0  0  0  0  0  0  0  0
    0.2083    3.5247    2.1700 O   0  0  0  0  0  0  0  0  0  0  0  0
  1  2  1  0  0  0  0
  1 10  1  0  0  0  0
  1 21  1  6  0  0  0
  2  3  1  0  0  0  0
  2  7  1  6  0  0  0
  3  4  1  0  0  0  0
  3  8  1  6  0  0  0
  4  5  1  0  0  0  0
  4  9  1  6  0  0  0
  5  6  1  1  0  0  0
  5 10  1  0  0  0  0
  6 11  1  0  0  0  0
 12 13  1  0  0  0  0
 12 17  1  0  0  0  0
 12 18  1  6  0  0  0
 13 14  1  0  0  0  0
 14 15  1  0  0  0  0
 14 19  1  1  0  0  0
 15 16  1  0  0  0  0
 15 30  1  1  0  0  0
 16 17  1  0  0  0  0
 16 20  1  6  0  0  0
 17 21  1  6  0  0  0
 22 23  1  0  0  0  0
 22 30  1  1  0  0  0
 22 32  1  0  0  0  0
 23 24  1  0  0  0  0
 23 28  1  1  0  0  0
 24 25  1  0  0  0  0
 25 26  1  0  0  0  0
 25 31  1  1  0  0  0
 26 27  1  6  0  0  0
 26 32  1  0  0  0  0
 27 29  1  0  0  0  0
M  CHG  5   8   1  18   1  19   1  28   1  29   1
M  END
>  <CHROM.1>
-143.37412357,76.47039158,-170.00803932,-56.06556585,69.74924682,-178.19167979
67.71819814,11.89895940,-164.35674744,-169.88903901,-67.16018175,-155.09303805
66.54375510,179.81463147,82.65166391,-80.26508806,-3.78294381,4.85370075
2.16457935,3.00819814,-0.48050201,0.79138869

>  <Name>
1tob

>  <RI>
0

>  <Rbt.Current_Directory>
/home/itssahil/PROJECTS/Mol_Feturizer/New_Systems/rnas/1tob

>  <Rbt.Executable>
rbdock ($Id: //depot/dev/client3/rdock/2013.1/src/exe/rbdock.cxx#4 $)

>  <Rbt.Library>
libRbt.so (2013.1, Build901 2013/11/27)

>  <Rbt.Parameter_File>
/export/apps/rDock/src/rDock_2013.1_src/data/scripts/dock_solv.prm

>  <Rbt.Receptor>
prm/pocket_docking_8.prm

>  <SCORE>
-48.4985

>  <SCORE.INTER>
-44.8671

>  <SCORE.INTER.CONST>
1

>  <SCORE.INTER.POLAR>
-5.73104

>  <SCORE.INTER.ROT>
6

>  <SCORE.INTER.SOLV>
33.8878

>  <SCORE.INTER.VDW>
-29.7039

>  <SCORE.INTER.norm>
-1.4021

>  <SCORE.INTRA>
-3.63142

>  <SCORE.INTRA.DIHEDRAL>
-5.43427

>  <SCORE.INTRA.DIHEDRAL.0>
22.9177

>  <SCORE.INTRA.POLAR>
-0.498336

>  <SCORE.INTRA.POLAR.0>
-0.311208

>  <SCORE.INTRA.REPUL>
0

>  <SCORE.INTRA.REPUL.0>
0

>  <SCORE.INTRA.SOLV>
-2.61948

>  <SCORE.INTRA.SOLV.lig_0>
-132.657

>  <SCORE.INTRA.VDW>
2.0898

>  <SCORE.INTRA.VDW.0>
-4.68867

>  <SCORE.INTRA.norm>
-0.113482

>  <SCORE.RESTR>
0

>  <SCORE.RESTR.CAVITY>
0

>  <SCORE.RESTR.norm>
0

>  <SCORE.SYSTEM>
0

>  <SCORE.SYSTEM.CONST>
0

>  <SCORE.SYSTEM.DIHEDRAL>
0

>  <SCORE.SYSTEM.SOLV>
0

>  <SCORE.SYSTEM.norm>
0

>  <SCORE.heavy>
32

>  <SCORE.norm>
-1.51558

>  <RMSD>
8.821

$$$$
1tob
 OpenBabel11021811413D
libRbt.so/2013.1/901 2013/11/27
 32 34  0  0  0  0  0  0  0  0999 V2000
   -6.3921    5.8154    2.3063 C   0  0  2  0  0  0  0  0  0  0  0  0
   -6.7241    4.9807    1.0717 C   0  0  1  0  0  0  0  0  0  0  0  0
   -7.3269    5.8739   -0.0041 C   0  0  2  0  0  0  0  0  0  0  0  0
   -8.5383    6.6033    0.5643 C   0  0  1  0  0  0  0  0  0  0  0  0
   -8.1365    7.3785    1.8161 C   0  0  1  0  0  0  0  0  0  0  0  0
   -9.3174    8.0652    2.4736 C   0  0  0  0  0  0  0  0  0  0  0  0
   -5.5432    4.3658    0.5770 O   0  0  0  0  0  0  0  0  0  0  0  0
   -7.6684    5.0956   -1.2144 N   0  3  0  0  0  0  0  0  0  0  0  0
   -9.0665    7.4913   -0.4117 O   0  0  0  0  0  0  0  0  0  0  0  0
   -7.5651    6.4805    2.7919 O   0  0  0  0  0  0  0  0  0  0  0  0
   -9.8342    9.1053    1.6557 O   0  0  0  0  0  0  0  0  0  0  0  0
   -4.5518    6.9998    4.2317 C   0  0  2  0  0  0  0  0  0  0  0  0
   -3.2698    6.9252    5.0497 C   0  0  0  0  0  0  0  0  0  0  0  0
   -2.6335    5.5410    4.9208 C   0  0  1  0  0  0  0  0  0  0  0  0
   -2.3128    5.2566    3.4551 C   0  0  2  0  0  0  0  0  0  0  0  0
   -3.5892    5.3352    2.6160 C   0  0  1  0  0  0  0  0  0  0  0  0
   -4.2367    6.7108    2.7721 C   0  0  1  0  0  0  0  0  0  0  0  0
   -5.1546    8.3475    4.3262 N   0  3  0  0  0  0  0  0  0  0  0  0
   -1.4311    5.4547    5.7896 N   0  3  0  0  0  0  0  0  0  0  0  0
   -3.2823    5.0976    1.2488 O   0  0  0  0  0  0  0  0  0  0  0  0
   -5.4453    6.7728    1.9936 O   0  0  0  0  0  0  0  0  0  0  0  0
   -1.2736    3.6120    2.0483 C   0  0  1  0  0  0  0  0  0  0  0  0
   -1.9024    2.2903    1.6035 C   0  0  1  0  0  0  0  0  0  0  0  0
   -1.4587    1.1603    2.5203 C   0  0  0  0  0  0  0  0  0  0  0  0
    0.0601    1.1118    2.5566 C   0  0  1  0  0  0  0  0  0  0  0  0
    0.6097    2.4712    2.9873 C   0  0  1  0  0  0  0  0  0  0  0  0
    2.1270    2.5145    2.9896 C   0  0  0  0  0  0  0  0  0  0  0  0
   -3.3786    2.3993    1.5306 N   0  3  0  0  0  0  0  0  0  0  0  0
    2.6786    2.1539    4.3176 N   0  3  0  0  0  0  0  0  0  0  0  0
   -1.7158    3.9505    3.3203 O   0  0  0  0  0  0  0  0  0  0  0  0
    0.4918    0.1059    3.4614 O   0  0  0  0  0  0  0  0  0  0  0  0
    0.1546    3.5008    2.0828 O   0  0  0  0  0  0  0  0  0  0  0  0
  1  2  1  0  0  0  0
  1 10  1  0  0  0  0
  1 21  1  6  0  0  0
  2  3  1  0  0  0  0
  2  7  1  6  0  0  0
  3  4  1  0  0  0  0
  3  8  1  6  0  0  0
  4  5  1  0  0  0  0
  4  9  1  6  0  0  0
  5  6  1  1  0  0  0
  5 10  1  0  0  0  0
  6 11  1  0  0  0  0
 12 13  1  0  0  0  0
 12 17  1  0  0  0  0
 12 18  1  6  0  0  0
 13 14  1  0  0  0  0
 14 15  1  0  0  0  0
 14 19  1  1  0  0  0
 15 16  1  0  0  0  0
 15 30  1  1  0  0  0
 16 17  1  0  0  0  0
 16 20  1  6  0  0  0
 17 21  1  6  0  0  0
 22 23  1  0  0  0  0
 22 30  1  1  0  0  0
 22 32  1  0  0  0  0
 23 24  1  0  0  0  0
 23 28  1  1  0  0  0
 24 25  1  0  0  0  0
 25 26  1  0  0  0  0
 25 31  1  1  0  0  0
 26 27  1  6  0  0  0
 26 32  1  0  0  0  0
 27 29  1  0  0  0  0
M  CHG  5   8   1  18   1  19   1  28   1  29   1
M  END
>  <CHROM.1>
-122.00173528,-83.69368776,-165.53410825,-61.74314007,-67.08391507,175.85942360
147.18044732,-136.89518833,-174.85981438,-64.66543191,-64.30191405,-125.32971030
154.47174841,165.29301846,-91.91742800,61.20768903,-3.93157751,4.97556665
2.40530701,2.93148195,-0.51787357,0.78423825

>  <Name>
1tob

>  <RI>
0

>  <Rbt.Current_Directory>
/home/itssahil/PROJECTS/Mol_Feturizer/New_Systems/rnas/1tob

>  <Rbt.Executable>
rbdock ($Id: //depot/dev/client3/rdock/2013.1/src/exe/rbdock.cxx#4 $)

>  <Rbt.Library>
libRbt.so (2013.1, Build901 2013/11/27)

>  <Rbt.Parameter_File>
/export/apps/rDock/src/rDock_2013.1_src/data/scripts/dock_solv.prm

>  <Rbt.Receptor>
prm/pocket_docking_6.prm

>  <SCORE>
-46.4659

>  <SCORE.INTER>
-48.7886

>  <SCORE.INTER.CONST>
1

>  <SCORE.INTER.POLAR>
-5.89055

>  <SCORE.INTER.ROT>
6

>  <SCORE.INTER.SOLV>
25.9986

>  <SCORE.INTER.VDW>
-29.1568

>  <SCORE.INTER.norm>
-1.52464

>  <SCORE.INTRA>
2.32272

>  <SCORE.INTRA.DIHEDRAL>
5.06426

>  <SCORE.INTRA.DIHEDRAL.0>
22.9177

>  <SCORE.INTRA.POLAR>
-1.45673

>  <SCORE.INTRA.POLAR.0>
-0.311208

>  <SCORE.INTRA.REPUL>
0

>  <SCORE.INTRA.REPUL.0>
0

>  <SCORE.INTRA.SOLV>
0.699777

>  <SCORE.INTRA.SOLV.lig_0>
-132.657

>  <SCORE.INTRA.VDW>
4.3936

>  <SCORE.INTRA.VDW.0>
-4.68867

>  <SCORE.INTRA.norm>
0.0725851

>  <SCORE.RESTR>
0

>  <SCORE.RESTR.CAVITY>
0

>  <SCORE.RESTR.norm>
0

>  <SCORE.SYSTEM>
0

>  <SCORE.SYSTEM.CONST>
0

>  <SCORE.SYSTEM.DIHEDRAL>
0

>  <SCORE.SYSTEM.SOLV>
0

>  <SCORE.SYSTEM.norm>
0

>  <SCORE.heavy>
32

>  <SCORE.norm>
-1.45206

>  <RMSD>
8.831

$$$$
1tob
 OpenBabel11021811413D
libRbt.so/2013.1/901 2013/11/27
 32 34  0  0  0  0  0  0  0  0999 V2000
   -8.4984    8.9592    3.0150 C   0  0  2  0  0  0  0  0  0  0  0  0
   -9.3844    8.6340    1.8149 C   0  0  1  0  0  0  0  0  0  0  0  0
   -9.7023    9.9122    1.0509 C   0  0  2  0  0  0  0  0  0  0  0  0
  -10.3333   10.9247    1.9992 C   0  0  1  0  0  0  0  0  0  0  0  0
   -9.4099   11.1649    3.1904 C   0  0  1  0  0  0  0  0  0  0  0  0
  -10.0174   12.1071    4.2109 C   0  0  0  0  0  0  0  0  0  0  0  0
   -8.7155    7.7186    0.9593 O   0  0  0  0  0  0  0  0  0  0  0  0
  -10.5669    9.6352   -0.1166 N   0  3  0  0  0  0  0  0  0  0  0  0
  -10.5704   12.1453    1.3108 O   0  0  0  0  0  0  0  0  0  0  0  0
   -9.1394    9.9178    3.8661 O   0  0  0  0  0  0  0  0  0  0  0  0
  -11.2382   11.5959    4.7270 O   0  0  0  0  0  0  0  0  0  0  0  0
   -6.3476    8.8183    4.7129 C   0  0  2  0  0  0  0  0  0  0  0  0
   -5.1105    8.2144    5.3634 C   0  0  0  0  0  0  0  0  0  0  0  0
   -4.8222    6.8304    4.7813 C   0  0  1  0  0  0  0  0  0  0  0  0
   -4.5951    6.9427    3.2754 C   0  0  2  0  0  0  0  0  0  0  0  0
   -5.8259    7.5555    2.6054 C   0  0  1  0  0  0  0  0  0  0  0  0
   -6.1267    8.9257    3.2119 C   0  0  1  0  0  0  0  0  0  0  0  0
   -6.6124   10.1715    5.2487 N   0  3  0  0  0  0  0  0  0  0  0  0
   -3.6648    6.2179    5.4836 N   0  3  0  0  0  0  0  0  0  0  0  0
   -5.5999    7.6842    1.2081 O   0  0  0  0  0  0  0  0  0  0  0  0
   -7.2951    9.4895    2.5890 O   0  0  0  0  0  0  0  0  0  0  0  0
   -3.8931    5.6259    1.3947 C   0  0  1  0  0  0  0  0  0  0  0  0
   -4.4183    4.3798    0.6797 C   0  0  1  0  0  0  0  0  0  0  0  0
   -3.8533    3.1236    1.3256 C   0  0  0  0  0  0  0  0  0  0  0  0
   -2.3355    3.2054    1.3366 C   0  0  1  0  0  0  0  0  0  0  0  0
   -1.8928    4.4842    2.0468 C   0  0  1  0  0  0  0  0  0  0  0  0
   -0.3853    4.6625    2.0446 C   0  0  0  0  0  0  0  0  0  0  0  0
   -5.8999    4.3684    0.6457 N   0  3  0  0  0  0  0  0  0  0  0  0
    0.2872    3.6097    2.8427 N   0  3  0  0  0  0  0  0  0  0  0  0
   -4.3264    5.6416    2.7138 O   0  0  0  0  0  0  0  0  0  0  0  0
   -1.7934    2.0715    1.9978 O   0  0  0  0  0  0  0  0  0  0  0  0
   -2.4603    5.6391    1.3913 O   0  0  0  0  0  0  0  0  0  0  0  0
  1  2  1  0  0  0  0
  1 10  1  0  0  0  0
  1 21  1  6  0  0  0
  2  3  1  0  0  0  0
  2  7  1  6  0  0  0
  3  4  1  0  0  0  0
  3  8  1  6  0  0  0
  4  5  1  0  0  0  0
  4  9  1  6  0  0  0
  5  6  1  1  0  0  0
  5 10  1  0  0  0  0
  6 11  1  0  0  0  0
 12 13  1  0  0  0  0
 12 17  1  0  0  0  0
 12 18  1  1  0  0  0
 13 14  1  0  0  0  0
 14 15  1  0  0  0  0
 14 19  1  1  0  0  0
 15 16  1  0  0  0  0
 15 30  1  6  0  0  0
 16 17  1  0  0  0  0
 16 20  1  6  0  0  0
 17 21  1  6  0  0  0
 22 23  1  0  0  0  0
 22 30  1  1  0  0  0
 22 32  1  0  0  0  0
 23 24  1  0  0  0  0
 23 28  1  1  0  0  0
 24 25  1  0  0  0  0
 25 26  1  0  0  0  0
 25 31  1  1  0  0  0
 26 27  1  6  0  0  0
 26 32  1  0  0  0  0
 27 29  1  0  0  0  0
M  CHG  5   8   1  18   1  19   1  28   1  29   1
M  END
>  <CHROM.1>
-133.18405391,-44.68488956,-171.20715694,175.54964458,59.86951528,-178.77505713
169.72991123,-60.54539837,-170.12988746,-60.13825217,-45.28935836,-146.25349932
-41.47316295,-48.61696543,-65.66612223,169.22081386,-6.09233635,7.51641797
2.59003176,2.70550316,-0.59396110,0.96894728

>  <Name>
1tob

>  <RI>
0

>  <Rbt.Current_Directory>
/home/itssahil/PROJECTS/Mol_Feturizer/New_Systems/rnas/1tob

>  <Rbt.Executable>
rbdock ($Id: //depot/dev/client3/rdock/2013.1/src/exe/rbdock.cxx#4 $)

>  <Rbt.Library>
libRbt.so (2013.1, Build901 2013/11/27)

>  <Rbt.Parameter_File>
/export/apps/rDock/src/rDock_2013.1_src/data/scripts/dock_solv.prm

>  <Rbt.Receptor>
prm/pocket_docking_7.prm

>  <SCORE>
-42.0576

>  <SCORE.INTER>
-34.8029

>  <SCORE.INTER.CONST>
1

>  <SCORE.INTER.POLAR>
-4.91816

>  <SCORE.INTER.ROT>
6

>  <SCORE.INTER.SOLV>
21.9783

>  <SCORE.INTER.VDW>
-21.7342

>  <SCORE.INTER.norm>
-1.08759

>  <SCORE.INTRA>
-7.25464

>  <SCORE.INTRA.DIHEDRAL>
-7.38243

>  <SCORE.INTRA.DIHEDRAL.0>
22.9177

>  <SCORE.INTRA.POLAR>
-1.60286

>  <SCORE.INTRA.POLAR.0>
-0.311208

>  <SCORE.INTRA.REPUL>
0

>  <SCORE.INTRA.REPUL.0>
0

>  <SCORE.INTRA.SOLV>
-1.37616

>  <SCORE.INTRA.SOLV.lig_0>
-132.657

>  <SCORE.INTRA.VDW>
2.57437

>  <SCORE.INTRA.VDW.0>
-4.68867

>  <SCORE.INTRA.norm>
-0.226708

>  <SCORE.RESTR>
0

>  <SCORE.RESTR.CAVITY>
0

>  <SCORE.RESTR.norm>
0

>  <SCORE.SYSTEM>
0

>  <SCORE.SYSTEM.CONST>
0

>  <SCORE.SYSTEM.DIHEDRAL>
0

>  <SCORE.SYSTEM.SOLV>
0

>  <SCORE.SYSTEM.norm>
0

>  <SCORE.heavy>
32

>  <SCORE.norm>
-1.3143

>  <RMSD>
8.840

$$$$
1tob
 OpenBabel11021811413D
libRbt.so/2013.1/901 2013/11/27
 32 34  0  0  0  0  0  0  0  0999 V2000
   -7.6254    9.3070    3.1787 C   0  0  2  0  0  0  0  0  0  0  0  0
   -8.8744    9.9236    3.8039 C   0  0  1  0  0  0  0  0  0  0  0  0
  -10.0505    8.9692    3.6478 C   0  0  2  0  0  0  0  0  0  0  0  0
  -10.2307    8.6252    2.1741 C   0  0  1  0  0  0  0  0  0  0  0  0
   -8.9312    8.0553    1.6121 C   0  0  1  0  0  0  0  0  0  0  0  0
   -9.0232    7.7642    0.1271 C   0  0  0  0  0  0  0  0  0  0  0  0
   -8.6446   10.1789    5.1821 O   0  0  0  0  0  0  0  0  0  0  0  0
  -11.2818    9.5386    4.2368 N   0  3  0  0  0  0  0  0  0  0  0  0
  -11.2827    7.6812    2.0259 O   0  0  0  0  0  0  0  0  0  0  0  0
   -7.8553    9.0003    1.7977 O   0  0  0  0  0  0  0  0  0  0  0  0
   -8.3823    6.5400   -0.2025 O   0  0  0  0  0  0  0  0  0  0  0  0
   -5.4916    8.0128    5.4496 C   0  0  2  0  0  0  0  0  0  0  0  0
   -3.9980    7.7572    5.5977 C   0  0  0  0  0  0  0  0  0  0  0  0
   -3.6383    6.3688    5.0679 C   0  0  1  0  0  0  0  0  0  0  0  0
   -4.0231    6.2651    3.5938 C   0  0  2  0  0  0  0  0  0  0  0  0
   -5.5204    6.5272    3.4247 C   0  0  1  0  0  0  0  0  0  0  0  0
   -5.8792    7.9039    3.9829 C   0  0  1  0  0  0  0  0  0  0  0  0
   -5.8405    9.3676    5.9304 N   0  3  0  0  0  0  0  0  0  0  0  0
   -2.1949    6.0994    5.2958 N   0  3  0  0  0  0  0  0  0  0  0  0
   -5.8694    6.4573    2.0487 O   0  0  0  0  0  0  0  0  0  0  0  0
   -7.2915    8.1376    3.8359 O   0  0  0  0  0  0  0  0  0  0  0  0
   -3.0006    4.9305    1.8800 C   0  0  1  0  0  0  0  0  0  0  0  0
   -3.5722    3.8463    0.9646 C   0  0  1  0  0  0  0  0  0  0  0  0
   -3.3833    2.4732    1.5916 C   0  0  0  0  0  0  0  0  0  0  0  0
   -1.9113    2.2658    1.9090 C   0  0  1  0  0  0  0  0  0  0  0  0
   -1.4123    3.3977    2.8063 C   0  0  1  0  0  0  0  0  0  0  0  0
    0.0693    3.2875    3.1175 C   0  0  0  0  0  0  0  0  0  0  0  0
   -4.9923    4.1173    0.6384 N   0  3  0  0  0  0  0  0  0  0  0  0
    0.3633    2.0918    3.9430 N   0  3  0  0  0  0  0  0  0  0  0  0
   -3.6924    4.9571    3.0836 O   0  0  0  0  0  0  0  0  0  0  0  0
   -1.7264    1.0160    2.5575 O   0  0  0  0  0  0  0  0  0  0  0  0
   -1.6192    4.6726    2.1602 O   0  0  0  0  0  0  0  0  0  0  0  0
  1  2  1  0  0  0  0
  1 10  1  0  0  0  0
  1 21  1  1  0  0  0
  2  3  1  0  0  0  0
  2  7  1  1  0  0  0
  3  4  1  0  0  0  0
  3  8  1  6  0  0  0
  4  5  1  0  0  0  0
  4  9  1  1  0  0  0
  5  6  1  6  0  0  0
  5 10  1  0  0  0  0
  6 11  1  0  0  0  0
 12 13  1  0  0  0  0
 12 17  1  0  0  0  0
 12 18  1  6  0  0  0
 13 14  1  0  0  0  0
 14 15  1  0  0  0  0
 14 19  1  6  0  0  0
 15 16  1  0  0  0  0
 15 30  1  1  0  0  0
 16 17  1  0  0  0  0
 16 20  1  6  0  0  0
 17 21  1  1  0  0  0
 22 23  1  0  0  0  0
 22 30  1  1  0  0  0
 22 32  1  0  0  0  0
 23 24  1  0  0  0  0
 23 28  1  1  0  0  0
 24 25  1  0  0  0  0
 25 26  1  0  0  0  0
 25 31  1  1  0  0  0
 26 27  1  6  0  0  0
 26 32  1  0  0  0  0
 27 29  1  0  0  0  0
M  CHG  5   8   1  18   1  19   1  28   1  29   1
M  END
>  <CHROM.1>
-143.16961136,79.47489243,74.29756386,-90.90546451,-139.27414314,72.91730088
75.04927192,-93.78182538,-131.70899211,-60.27411226,111.80687565,-137.02252523
-13.34817400,42.58509927,-66.17425276,-73.94871073,-5.54240669,6.40990351
3.01810174,-2.71365275,0.49212919,-2.28532138

>  <Name>
1tob

>  <RI>
0

>  <Rbt.Current_Directory>
/home/itssahil/PROJECTS/Mol_Feturizer/New_Systems/rnas/1tob

>  <Rbt.Executable>
rbdock ($Id: //depot/dev/client3/rdock/2013.1/src/exe/rbdock.cxx#4 $)

>  <Rbt.Library>
libRbt.so (2013.1, Build901 2013/11/27)

>  <Rbt.Parameter_File>
/export/apps/rDock/src/rDock_2013.1_src/data/scripts/dock_solv.prm

>  <Rbt.Receptor>
prm/pocket_docking_7.prm

>  <SCORE>
-51.4013

>  <SCORE.INTER>
-54.1266

>  <SCORE.INTER.CONST>
1

>  <SCORE.INTER.POLAR>
-7.62835

>  <SCORE.INTER.ROT>
6

>  <SCORE.INTER.SOLV>
25.7293

>  <SCORE.INTER.VDW>
-26.833

>  <SCORE.INTER.norm>
-1.69146

>  <SCORE.INTRA>
2.67167

>  <SCORE.INTRA.DIHEDRAL>
19.9234

>  <SCORE.INTRA.DIHEDRAL.0>
22.9177

>  <SCORE.INTRA.POLAR>
-2.38307

>  <SCORE.INTRA.POLAR.0>
-0.311208

>  <SCORE.INTRA.REPUL>
0

>  <SCORE.INTRA.REPUL.0>
0

>  <SCORE.INTRA.SOLV>
1.14331

>  <SCORE.INTRA.SOLV.lig_0>
-132.657

>  <SCORE.INTRA.VDW>
0.240752

>  <SCORE.INTRA.VDW.0>
-4.68867

>  <SCORE.INTRA.norm>
0.0834895

>  <SCORE.RESTR>
0.0536151

>  <SCORE.RESTR.CAVITY>
0.0536151

>  <SCORE.RESTR.norm>
0.00167547

>  <SCORE.SYSTEM>
0

>  <SCORE.SYSTEM.CONST>
0

>  <SCORE.SYSTEM.DIHEDRAL>
0

>  <SCORE.SYSTEM.SOLV>
0

>  <SCORE.SYSTEM.norm>
0

>  <SCORE.heavy>
32

>  <SCORE.norm>
-1.60629

>  <RMSD>
8.842

$$$$
1tob
 OpenBabel11021811413D
libRbt.so/2013.1/901 2013/11/27
 32 34  0  0  0  0  0  0  0  0999 V2000
   -5.5584    4.6949    1.7916 C   0  0  2  0  0  0  0  0  0  0  0  0
   -6.0550    4.0268    0.5117 C   0  0  1  0  0  0  0  0  0  0  0  0
   -6.7063    5.0666   -0.3900 C   0  0  2  0  0  0  0  0  0  0  0  0
   -7.8135    5.7793    0.3773 C   0  0  1  0  0  0  0  0  0  0  0  0
   -7.2492    6.3832    1.6604 C   0  0  1  0  0  0  0  0  0  0  0  0
   -8.3200    7.0416    2.5079 C   0  0  0  0  0  0  0  0  0  0  0  0
   -4.9644    3.4204   -0.1668 O   0  0  0  0  0  0  0  0  0  0  0  0
   -7.2068    4.4520   -1.6386 N   0  3  0  0  0  0  0  0  0  0  0  0
   -8.3813    6.7988   -0.4339 O   0  0  0  0  0  0  0  0  0  0  0  0
   -6.6390    5.3517    2.4660 O   0  0  0  0  0  0  0  0  0  0  0  0
   -7.7584    7.9715    3.4233 O   0  0  0  0  0  0  0  0  0  0  0  0
   -3.8565    6.2329    3.7208 C   0  0  2  0  0  0  0  0  0  0  0  0
   -2.6513    6.2315    4.6512 C   0  0  0  0  0  0  0  0  0  0  0  0
   -2.1251    4.8087    4.8420 C   0  0  1  0  0  0  0  0  0  0  0  0
   -1.7186    4.2250    3.4907 C   0  0  2  0  0  0  0  0  0  0  0  0
   -2.9162    4.2258    2.5394 C   0  0  1  0  0  0  0  0  0  0  0  0
   -3.4563    5.6462    2.3759 C   0  0  1  0  0  0  0  0  0  0  0  0
   -4.3499    7.6109    3.5062 N   0  3  0  0  0  0  0  0  0  0  0  0
   -1.0039    4.8112    5.8172 N   0  3  0  0  0  0  0  0  0  0  0  0
   -2.5270    3.7079    1.2744 O   0  0  0  0  0  0  0  0  0  0  0  0
   -4.5927    5.6378    1.4930 O   0  0  0  0  0  0  0  0  0  0  0  0
   -0.8110    2.2359    2.4991 C   0  0  1  0  0  0  0  0  0  0  0  0
   -0.4689    0.7754    2.7989 C   0  0  1  0  0  0  0  0  0  0  0  0
    0.7012    0.6959    3.7678 C   0  0  0  0  0  0  0  0  0  0  0  0
    1.8759    1.4754    3.1993 C   0  0  1  0  0  0  0  0  0  0  0  0
    1.4483    2.9132    2.9073 C   0  0  1  0  0  0  0  0  0  0  0  0
    2.5583    3.7377    2.2808 C   0  0  0  0  0  0  0  0  0  0  0  0
   -1.6551    0.0412    3.2993 N   0  3  0  0  0  0  0  0  0  0  0  0
    2.0660    4.5193    1.1213 N   0  3  0  0  0  0  0  0  0  0  0  0
   -1.2244    2.8803    3.6575 O   0  0  0  0  0  0  0  0  0  0  0  0
    2.9549    1.4688    4.1227 O   0  0  0  0  0  0  0  0  0  0  0  0
    0.3363    2.9241    1.9860 O   0  0  0  0  0  0  0  0  0  0  0  0
  1  2  1  0  0  0  0
  1 10  1  0  0  0  0
  1 21  1  6  0  0  0
  2  3  1  0  0  0  0
  2  7  1  6  0  0  0
  3  4  1  0  0  0  0
  3  8  1  6  0  0  0
  4  5  1  0  0  0  0
  4  9  1  6  0  0  0
  5  6  1  1  0  0  0
  5 10  1  0  0  0  0
  6 11  1  0  0  0  0
 12 13  1  0  0  0  0
 12 17  1  0  0  0  0
 12 18  1  6  0  0  0
 13 14  1  0  0  0  0
 14 15  1  0  0  0  0
 14 19  1  1  0  0  0
 15 16  1  0  0  0  0
 15 30  1  1  0  0  0
 16 17  1  0  0  0  0
 16 20  1  6  0  0  0
 17 21  1  6  0  0  0
 22 23  1  0  0  0  0
 22 30  1  1  0  0  0
 22 32  1  0  0  0  0
 23 24  1  0  0  0  0
 23 28  1  1  0  0  0
 24 25  1  0  0  0  0
 25 26  1  0  0  0  0
 25 31  1  1  0  0  0
 26 27  1  6  0  0  0
 26 32  1  0  0  0  0
 27 29  1  0  0  0  0
M  CHG  5   8   1  18   1  19   1  28   1  29   1
M  END
>  <CHROM.1>
-137.57657924,97.03422324,-108.95706936,-57.21251179,-159.79303701,-62.74789032
-60.27595539,137.44119750,-179.59314504,-176.75140138,-72.65867581,-173.41833719
57.71820207,178.76300680,134.07236663,76.07962820,-3.07149014,4.31958076
2.33675211,3.03123448,-0.47451627,0.82754385

>  <Name>
1tob

>  <RI>
0

>  <Rbt.Current_Directory>
/home/itssahil/PROJECTS/Mol_Feturizer/New_Systems/rnas/1tob

>  <Rbt.Executable>
rbdock ($Id: //depot/dev/client3/rdock/2013.1/src/exe/rbdock.cxx#4 $)

>  <Rbt.Library>
libRbt.so (2013.1, Build901 2013/11/27)

>  <Rbt.Parameter_File>
/export/apps/rDock/src/rDock_2013.1_src/data/scripts/dock_solv.prm

>  <Rbt.Receptor>
prm/blind_docking_80.prm

>  <SCORE>
-36.6888

>  <SCORE.INTER>
-43.8694

>  <SCORE.INTER.CONST>
1

>  <SCORE.INTER.POLAR>
-6.52816

>  <SCORE.INTER.ROT>
6

>  <SCORE.INTER.SOLV>
44.5924

>  <SCORE.INTER.VDW>
-29.9498

>  <SCORE.INTER.norm>
-1.37092

>  <SCORE.INTRA>
0.813065

>  <SCORE.INTRA.DIHEDRAL>
1.71248

>  <SCORE.INTRA.DIHEDRAL.0>
22.9177

>  <SCORE.INTRA.POLAR>
-0.613273

>  <SCORE.INTRA.POLAR.0>
-0.311208

>  <SCORE.INTRA.REPUL>
0

>  <SCORE.INTRA.REPUL.0>
0

>  <SCORE.INTRA.SOLV>
-4.01704

>  <SCORE.INTRA.SOLV.lig_0>
-132.657

>  <SCORE.INTRA.VDW>
4.05047

>  <SCORE.INTRA.VDW.0>
-4.68867

>  <SCORE.INTRA.norm>
0.0254083

>  <SCORE.RESTR>
6.36755

>  <SCORE.RESTR.CAVITY>
6.36755

>  <SCORE.RESTR.norm>
0.198986

>  <SCORE.SYSTEM>
0

>  <SCORE.SYSTEM.CONST>
0

>  <SCORE.SYSTEM.DIHEDRAL>
0

>  <SCORE.SYSTEM.SOLV>
0

>  <SCORE.SYSTEM.norm>
0

>  <SCORE.heavy>
32

>  <SCORE.norm>
-1.14652

>  <RMSD>
8.843

$$$$
1tob
 OpenBabel11021811413D
libRbt.so/2013.1/901 2013/11/27
 32 34  0  0  0  0  0  0  0  0999 V2000
   -7.2875    8.8295    2.5821 C   0  0  2  0  0  0  0  0  0  0  0  0
   -7.1897   10.3344    2.8206 C   0  0  1  0  0  0  0  0  0  0  0  0
   -8.2465   10.7633    3.8294 C   0  0  2  0  0  0  0  0  0  0  0  0
   -9.6215   10.3270    3.3381 C   0  0  1  0  0  0  0  0  0  0  0  0
   -9.6275    8.8223    3.0830 C   0  0  1  0  0  0  0  0  0  0  0  0
  -10.9483    8.3379    2.5178 C   0  0  0  0  0  0  0  0  0  0  0  0
   -5.8977   10.6586    3.3136 O   0  0  0  0  0  0  0  0  0  0  0  0
   -8.1856   12.2197    4.0795 N   0  3  0  0  0  0  0  0  0  0  0  0
  -10.6067   10.6623    4.3060 O   0  0  0  0  0  0  0  0  0  0  0  0
   -8.6007    8.4783    2.1278 O   0  0  0  0  0  0  0  0  0  0  0  0
  -11.0576    6.9235    2.5933 O   0  0  0  0  0  0  0  0  0  0  0  0
   -5.4218    7.9615    5.5519 C   0  0  2  0  0  0  0  0  0  0  0  0
   -3.9474    7.7294    5.8527 C   0  0  0  0  0  0  0  0  0  0  0  0
   -3.4925    6.3829    5.2891 C   0  0  1  0  0  0  0  0  0  0  0  0
   -3.7078    6.3587    3.7775 C   0  0  2  0  0  0  0  0  0  0  0  0
   -5.1837    6.5985    3.4558 C   0  0  1  0  0  0  0  0  0  0  0  0
   -5.6405    7.9317    4.0470 C   0  0  1  0  0  0  0  0  0  0  0  0
   -5.8595    9.2778    6.0661 N   0  3  0  0  0  0  0  0  0  0  0  0
   -2.0765    6.1311    5.6627 N   0  3  0  0  0  0  0  0  0  0  0  0
   -5.3753    6.6030    2.0475 O   0  0  0  0  0  0  0  0  0  0  0  0
   -7.0336    8.1437    3.7552 O   0  0  0  0  0  0  0  0  0  0  0  0
   -3.0739    5.0563    1.8629 C   0  0  1  0  0  0  0  0  0  0  0  0
   -3.7339    3.8171    1.2558 C   0  0  1  0  0  0  0  0  0  0  0  0
   -3.0971    2.5534    1.8141 C   0  0  0  0  0  0  0  0  0  0  0  0
   -1.5965    2.6020    1.5773 C   0  0  1  0  0  0  0  0  0  0  0  0
   -1.0179    3.8756    2.1927 C   0  0  1  0  0  0  0  0  0  0  0  0
    0.4724    4.0208    1.9435 C   0  0  0  0  0  0  0  0  0  0  0  0
   -5.2012    3.8380    1.4633 N   0  3  0  0  0  0  0  0  0  0  0  0
    1.2491    2.9985    2.6847 N   0  3  0  0  0  0  0  0  0  0  0  0
   -3.2862    5.0906    3.2347 O   0  0  0  0  0  0  0  0  0  0  0  0
   -0.9773    1.4610    2.1532 O   0  0  0  0  0  0  0  0  0  0  0  0
   -1.6608    5.0381    1.6263 O   0  0  0  0  0  0  0  0  0  0  0  0
  1  2  1  0  0  0  0
  1 10  1  0  0  0  0
  1 21  1  1  0  0  0
  2  3  1  0  0  0  0
  2  7  1  1  0  0  0
  3  4  1  0  0  0  0
  3  8  1  6  0  0  0
  4  5  1  0  0  0  0
  4  9  1  1  0  0  0
  5  6  1  6  0  0  0
  5 10  1  0  0  0  0
  6 11  1  0  0  0  0
 12 13  1  0  0  0  0
 12 17  1  0  0  0  0
 12 18  1  6  0  0  0
 13 14  1  0  0  0  0
 14 15  1  0  0  0  0
 14 19  1  6  0  0  0
 15 16  1  0  0  0  0
 15 30  1  1  0  0  0
 16 17  1  0  0  0  0
 16 20  1  6  0  0  0
 17 21  1  1  0  0  0
 22 23  1  0  0  0  0
 22 30  1  1  0  0  0
 22 32  1  0  0  0  0
 23 24  1  0  0  0  0
 23 28  1  1  0  0  0
 24 25  1  0  0  0  0
 25 26  1  0  0  0  0
 25 31  1  1  0  0  0
 26 27  1  6  0  0  0
 26 32  1  0  0  0  0
 27 29  1  0  0  0  0
M  CHG  5   8   1  18   1  19   1  28   1  29   1
M  END
>  <CHROM.1>
-83.63417262,173.01173004,-98.33830166,-179.14965821,-165.65616533,-177.50631289
86.46265121,-101.65161954,-162.71075196,-55.66753403,146.78891293,-133.80839465
-64.07017312,66.11328151,-68.39302826,-67.61352983,-5.22529246,6.87533106
3.19170285,2.51326898,-0.32347104,0.59741832

>  <Name>
1tob

>  <RI>
0

>  <Rbt.Current_Directory>
/home/itssahil/PROJECTS/Mol_Feturizer/New_Systems/rnas/1tob

>  <Rbt.Executable>
rbdock ($Id: //depot/dev/client3/rdock/2013.1/src/exe/rbdock.cxx#4 $)

>  <Rbt.Library>
libRbt.so (2013.1, Build901 2013/11/27)

>  <Rbt.Parameter_File>
/export/apps/rDock/src/rDock_2013.1_src/data/scripts/dock_solv.prm

>  <Rbt.Receptor>
prm/pocket_docking_4.prm

>  <SCORE>
-51.6792

>  <SCORE.INTER>
-46.1451

>  <SCORE.INTER.CONST>
1

>  <SCORE.INTER.POLAR>
-5.59848

>  <SCORE.INTER.ROT>
6

>  <SCORE.INTER.SOLV>
32.5932

>  <SCORE.INTER.VDW>
-30.5662

>  <SCORE.INTER.norm>
-1.44204

>  <SCORE.INTRA>
-5.62641

>  <SCORE.INTRA.DIHEDRAL>
0.188903

>  <SCORE.INTRA.DIHEDRAL.0>
22.9177

>  <SCORE.INTRA.POLAR>
-2.12118

>  <SCORE.INTRA.POLAR.0>
-0.311208

>  <SCORE.INTRA.REPUL>
0

>  <SCORE.INTRA.REPUL.0>
0

>  <SCORE.INTRA.SOLV>
0.291464

>  <SCORE.INTRA.SOLV.lig_0>
-132.657

>  <SCORE.INTRA.VDW>
1.34542

>  <SCORE.INTRA.VDW.0>
-4.68867

>  <SCORE.INTRA.norm>
-0.175825

>  <SCORE.RESTR>
0.0923281

>  <SCORE.RESTR.CAVITY>
0.0923281

>  <SCORE.RESTR.norm>
0.00288525

>  <SCORE.SYSTEM>
0

>  <SCORE.SYSTEM.CONST>
0

>  <SCORE.SYSTEM.DIHEDRAL>
0

>  <SCORE.SYSTEM.SOLV>
0

>  <SCORE.SYSTEM.norm>
0

>  <SCORE.heavy>
32

>  <SCORE.norm>
-1.61498

>  <RMSD>
8.843

$$$$
1tob
 OpenBabel11021811413D
libRbt.so/2013.1/901 2013/11/27
 32 34  0  0  0  0  0  0  0  0999 V2000
   -6.0042    5.0817    1.9414 C   0  0  2  0  0  0  0  0  0  0  0  0
   -5.9683    4.0614    0.8061 C   0  0  1  0  0  0  0  0  0  0  0  0
   -6.4170    4.7214   -0.4906 C   0  0  2  0  0  0  0  0  0  0  0  0
   -7.7945    5.3422   -0.2920 C   0  0  1  0  0  0  0  0  0  0  0  0
   -7.7599    6.3158    0.8828 C   0  0  1  0  0  0  0  0  0  0  0  0
   -9.1225    6.9101    1.1803 C   0  0  0  0  0  0  0  0  0  0  0  0
   -4.6487    3.5580    0.6555 O   0  0  0  0  0  0  0  0  0  0  0  0
   -6.4017    3.7582   -1.6128 N   0  3  0  0  0  0  0  0  0  0  0  0
   -8.1919    6.0198   -1.4765 O   0  0  0  0  0  0  0  0  0  0  0  0
   -7.3195    5.6344    2.0773 O   0  0  0  0  0  0  0  0  0  0  0  0
   -9.8405    7.1856   -0.0141 O   0  0  0  0  0  0  0  0  0  0  0  0
   -4.6048    6.4298    4.0261 C   0  0  2  0  0  0  0  0  0  0  0  0
   -3.4572    6.5581    5.0184 C   0  0  0  0  0  0  0  0  0  0  0  0
   -2.5731    5.3115    4.9770 C   0  0  1  0  0  0  0  0  0  0  0  0
   -2.0051    5.1299    3.5712 C   0  0  2  0  0  0  0  0  0  0  0  0
   -3.1449    5.0072    2.5588 C   0  0  1  0  0  0  0  0  0  0  0  0
   -4.0422    6.2426    2.6255 C   0  0  1  0  0  0  0  0  0  0  0  0
   -5.4450    7.6474    4.0380 N   0  3  0  0  0  0  0  0  0  0  0  0
   -1.5081    5.4128    6.0084 N   0  3  0  0  0  0  0  0  0  0  0  0
   -2.6125    4.8665    1.2485 O   0  0  0  0  0  0  0  0  0  0  0  0
   -5.1216    6.1137    1.6826 O   0  0  0  0  0  0  0  0  0  0  0  0
   -0.8263    3.5092    2.2494 C   0  0  1  0  0  0  0  0  0  0  0  0
   -1.1726    2.0273    2.0945 C   0  0  1  0  0  0  0  0  0  0  0  0
   -0.3603    1.1908    3.0716 C   0  0  0  0  0  0  0  0  0  0  0  0
    1.1184    1.4785    2.8683 C   0  0  1  0  0  0  0  0  0  0  0  0
    1.3778    2.9772    3.0171 C   0  0  1  0  0  0  0  0  0  0  0  0
    2.8288    3.3472    2.7685 C   0  0  0  0  0  0  0  0  0  0  0  0
   -2.6293    1.8007    2.2469 N   0  3  0  0  0  0  0  0  0  0  0  0
    3.7036    2.8868    3.8732 N   0  3  0  0  0  0  0  0  0  0  0  0
   -1.1723    3.9535    3.5186 O   0  0  0  0  0  0  0  0  0  0  0  0
    1.8881    0.7569    3.8188 O   0  0  0  0  0  0  0  0  0  0  0  0
    0.5798    3.7168    2.0675 O   0  0  0  0  0  0  0  0  0  0  0  0
  1  2  1  0  0  0  0
  1 10  1  0  0  0  0
  1 21  1  6  0  0  0
  2  3  1  0  0  0  0
  2  7  1  6  0  0  0
  3  4  1  0  0  0  0
  3  8  1  6  0  0  0
  4  5  1  0  0  0  0
  4  9  1  6  0  0  0
  5  6  1  1  0  0  0
  5 10  1  0  0  0  0
  6 11  1  0  0  0  0
 12 13  1  0  0  0  0
 12 17  1  0  0  0  0
 12 18  1  6  0  0  0
 13 14  1  0  0  0  0
 14 15  1  0  0  0  0
 14 19  1  1  0  0  0
 15 16  1  0  0  0  0
 15 30  1  1  0  0  0
 16 17  1  0  0  0  0
 16 20  1  6  0  0  0
 17 21  1  6  0  0  0
 22 23  1  0  0  0  0
 22 30  1  1  0  0  0
 22 32  1  0  0  0  0
 23 24  1  0  0  0  0
 23 28  1  1  0  0  0
 24 25  1  0  0  0  0
 25 26  1  0  0  0  0
 25 31  1  1  0  0  0
 26 27  1  6  0  0  0
 26 32  1  0  0  0  0
 27 29  1  0  0  0  0
M  CHG  5   8   1  18   1  19   1  28   1  29   1
M  END
>  <CHROM.1>
-116.81397059,157.17071207,61.13731665,79.98293420,-38.45614484,80.86691472
24.32287694,-166.02093919,166.68535230,-66.68274785,-57.42830089,-127.33218614
63.55396923,72.99228241,-71.46128440,65.00495033,-3.40014134,4.51943241,2.19722036
3.12537570,0.46235507,-2.25609722

>  <Name>
1tob

>  <RI>
0

>  <Rbt.Current_Directory>
/home/itssahil/PROJECTS/Mol_Feturizer/New_Systems/rnas/1tob

>  <Rbt.Executable>
rbdock ($Id: //depot/dev/client3/rdock/2013.1/src/exe/rbdock.cxx#4 $)

>  <Rbt.Library>
libRbt.so (2013.1, Build901 2013/11/27)

>  <Rbt.Parameter_File>
/export/apps/rDock/src/rDock_2013.1_src/data/scripts/dock_solv.prm

>  <Rbt.Receptor>
prm/blind_docking_80.prm

>  <SCORE>
-39.6282

>  <SCORE.INTER>
-47.9412

>  <SCORE.INTER.CONST>
1

>  <SCORE.INTER.POLAR>
-6.11358

>  <SCORE.INTER.ROT>
6

>  <SCORE.INTER.SOLV>
32.5253

>  <SCORE.INTER.VDW>
-30.024

>  <SCORE.INTER.norm>
-1.49816

>  <SCORE.INTRA>
4.22304

>  <SCORE.INTRA.DIHEDRAL>
3.83899

>  <SCORE.INTRA.DIHEDRAL.0>
22.9177

>  <SCORE.INTRA.POLAR>
-1.36092

>  <SCORE.INTRA.POLAR.0>
-0.311208

>  <SCORE.INTRA.REPUL>
0.0786429

>  <SCORE.INTRA.REPUL.0>
0

>  <SCORE.INTRA.SOLV>
1.24527

>  <SCORE.INTRA.SOLV.lig_0>
-132.657

>  <SCORE.INTRA.VDW>
5.91482

>  <SCORE.INTRA.VDW.0>
-4.68867

>  <SCORE.INTRA.norm>
0.13197

>  <SCORE.RESTR>
4.08991

>  <SCORE.RESTR.CAVITY>
4.08991

>  <SCORE.RESTR.norm>
0.12781

>  <SCORE.SYSTEM>
0

>  <SCORE.SYSTEM.CONST>
0

>  <SCORE.SYSTEM.DIHEDRAL>
0

>  <SCORE.SYSTEM.SOLV>
0

>  <SCORE.SYSTEM.norm>
0

>  <SCORE.heavy>
32

>  <SCORE.norm>
-1.23838

>  <RMSD>
8.845

$$$$
1tob
 OpenBabel11021811413D
libRbt.so/2013.1/901 2013/11/27
 32 34  0  0  0  0  0  0  0  0999 V2000
   -5.8766    4.8381    1.7131 C   0  0  2  0  0  0  0  0  0  0  0  0
   -5.8910    3.9023    0.5067 C   0  0  1  0  0  0  0  0  0  0  0  0
   -6.3749    4.6586   -0.7230 C   0  0  2  0  0  0  0  0  0  0  0  0
   -7.7375    5.2766   -0.4332 C   0  0  1  0  0  0  0  0  0  0  0  0
   -7.6519    6.1623    0.8068 C   0  0  1  0  0  0  0  0  0  0  0  0
   -8.9966    6.7465    1.1928 C   0  0  0  0  0  0  0  0  0  0  0  0
   -4.5833    3.3985    0.2752 O   0  0  0  0  0  0  0  0  0  0  0  0
   -6.4087    3.7790   -1.9115 N   0  3  0  0  0  0  0  0  0  0  0  0
   -8.1661    6.0419   -1.5515 O   0  0  0  0  0  0  0  0  0  0  0  0
   -7.1799    5.3920    1.9333 O   0  0  0  0  0  0  0  0  0  0  0  0
   -9.3919    7.7754    0.2966 O   0  0  0  0  0  0  0  0  0  0  0  0
   -4.5708    6.2041    3.8604 C   0  0  2  0  0  0  0  0  0  0  0  0
   -3.4650    6.3300    4.8994 C   0  0  0  0  0  0  0  0  0  0  0  0
   -2.5891    5.0769    4.9023 C   0  0  1  0  0  0  0  0  0  0  0  0
   -1.9639    4.8829    3.5227 C   0  0  2  0  0  0  0  0  0  0  0  0
   -3.0611    4.7623    2.4639 C   0  0  1  0  0  0  0  0  0  0  0  0
   -3.9512    6.0045    2.4858 C   0  0  1  0  0  0  0  0  0  0  0  0
   -5.4017    7.4276    3.8301 N   0  3  0  0  0  0  0  0  0  0  0  0
   -1.5677    5.1767    5.9770 N   0  3  0  0  0  0  0  0  0  0  0  0
   -2.4750    4.6099    1.1781 O   0  0  0  0  0  0  0  0  0  0  0  0
   -4.9909    5.8776    1.4991 O   0  0  0  0  0  0  0  0  0  0  0  0
   -0.7420    3.2463    2.2609 C   0  0  1  0  0  0  0  0  0  0  0  0
   -1.2879    1.8394    2.0108 C   0  0  1  0  0  0  0  0  0  0  0  0
   -0.7060    0.8608    3.0198 C   0  0  0  0  0  0  0  0  0  0  0  0
    0.8115    0.9266    2.9637 C   0  0  1  0  0  0  0  0  0  0  0  0
    1.2749    2.3635    3.2006 C   0  0  1  0  0  0  0  0  0  0  0  0
    2.7818    2.5162    3.1005 C   0  0  0  0  0  0  0  0  0  0  0  0
   -2.7698    1.8321    2.0209 N   0  3  0  0  0  0  0  0  0  0  0  0
    3.1981    3.9273    3.2830 N   0  3  0  0  0  0  0  0  0  0  0  0
   -1.1383    3.7002    3.5119 O   0  0  0  0  0  0  0  0  0  0  0  0
    1.3710    0.0687    3.9475 O   0  0  0  0  0  0  0  0  0  0  0  0
    0.6902    3.2434    2.2160 O   0  0  0  0  0  0  0  0  0  0  0  0
  1  2  1  0  0  0  0
  1 10  1  0  0  0  0
  1 21  1  6  0  0  0
  2  3  1  0  0  0  0
  2  7  1  6  0  0  0
  3  4  1  0  0  0  0
  3  8  1  6  0  0  0
  4  5  1  0  0  0  0
  4  9  1  6  0  0  0
  5  6  1  1  0  0  0
  5 10  1  0  0  0  0
  6 11  1  0  0  0  0
 12 13  1  0  0  0  0
 12 17  1  0  0  0  0
 12 18  1  6  0  0  0
 13 14  1  0  0  0  0
 14 15  1  0  0  0  0
 14 19  1  1  0  0  0
 15 16  1  0  0  0  0
 15 30  1  1  0  0  0
 16 17  1  0  0  0  0
 16 20  1  6  0  0  0
 17 21  1  6  0  0  0
 22 23  1  0  0  0  0
 22 30  1  1  0  0  0
 22 32  1  0  0  0  0
 23 24  1  0  0  0  0
 23 28  1  1  0  0  0
 24 25  1  0  0  0  0
 25 26  1  0  0  0  0
 25 31  1  1  0  0  0
 26 27  1  6  0  0  0
 26 32  1  0  0  0  0
 27 29  1  0  0  0  0
M  CHG  5   8   1  18   1  19   1  28   1  29   1
M  END
>  <CHROM.1>
-122.48515917,159.48819502,-72.54641039,-53.78014362,-73.33086576,-157.02743171
150.92049646,-67.16861679,166.71877110,168.74110794,-58.57554807,-118.26985481
-33.56364750,139.57732118,177.82598434,54.96487915,-3.40664399,4.35006886
2.10804917,3.13325778,-0.50226931,0.85851034

>  <Name>
1tob

>  <RI>
0

>  <Rbt.Current_Directory>
/home/itssahil/PROJECTS/Mol_Feturizer/New_Systems/rnas/1tob

>  <Rbt.Executable>
rbdock ($Id: //depot/dev/client3/rdock/2013.1/src/exe/rbdock.cxx#4 $)

>  <Rbt.Library>
libRbt.so (2013.1, Build901 2013/11/27)

>  <Rbt.Parameter_File>
/export/apps/rDock/src/rDock_2013.1_src/data/scripts/dock_solv.prm

>  <Rbt.Receptor>
prm/blind_docking_80.prm

>  <SCORE>
-36.8211

>  <SCORE.INTER>
-45.9404

>  <SCORE.INTER.CONST>
1

>  <SCORE.INTER.POLAR>
-6.91452

>  <SCORE.INTER.ROT>
6

>  <SCORE.INTER.SOLV>
39.3135

>  <SCORE.INTER.VDW>
-28.283

>  <SCORE.INTER.norm>
-1.43564

>  <SCORE.INTRA>
5.11353

>  <SCORE.INTRA.DIHEDRAL>
6.98351

>  <SCORE.INTRA.DIHEDRAL.0>
22.9177

>  <SCORE.INTRA.POLAR>
-1.36917

>  <SCORE.INTRA.POLAR.0>
-0.311208

>  <SCORE.INTRA.REPUL>
0

>  <SCORE.INTRA.REPUL.0>
0

>  <SCORE.INTRA.SOLV>
0.629424

>  <SCORE.INTRA.SOLV.lig_0>
-132.657

>  <SCORE.INTRA.VDW>
5.96225

>  <SCORE.INTRA.VDW.0>
-4.68867

>  <SCORE.INTRA.norm>
0.159798

>  <SCORE.RESTR>
4.00576

>  <SCORE.RESTR.CAVITY>
4.00576

>  <SCORE.RESTR.norm>
0.12518

>  <SCORE.SYSTEM>
0

>  <SCORE.SYSTEM.CONST>
0

>  <SCORE.SYSTEM.DIHEDRAL>
0

>  <SCORE.SYSTEM.SOLV>
0

>  <SCORE.SYSTEM.norm>
0

>  <SCORE.heavy>
32

>  <SCORE.norm>
-1.15066

>  <RMSD>
8.848

$$$$
1tob
 OpenBabel11021811413D
libRbt.so/2013.1/901 2013/11/27
 32 34  0  0  0  0  0  0  0  0999 V2000
   -5.8239    7.7172    2.8583 C   0  0  2  0  0  0  0  0  0  0  0  0
   -7.3109    8.0633    2.8500 C   0  0  1  0  0  0  0  0  0  0  0  0
   -8.1279    6.8084    2.5740 C   0  0  2  0  0  0  0  0  0  0  0  0
   -7.6572    6.1750    1.2703 C   0  0  1  0  0  0  0  0  0  0  0  0
   -6.1580    5.8980    1.3401 C   0  0  1  0  0  0  0  0  0  0  0  0
   -5.6137    5.3369    0.0411 C   0  0  0  0  0  0  0  0  0  0  0  0
   -7.6828    8.6100    4.1072 O   0  0  0  0  0  0  0  0  0  0  0  0
   -9.5759    7.1085    2.5514 N   0  3  0  0  0  0  0  0  0  0  0  0
   -8.3673    4.9656    1.0396 O   0  0  0  0  0  0  0  0  0  0  0  0
   -5.4410    7.1215    1.6123 O   0  0  0  0  0  0  0  0  0  0  0  0
   -6.3183    4.1689   -0.3554 O   0  0  0  0  0  0  0  0  0  0  0  0
   -3.8434    6.7982    5.5910 C   0  0  2  0  0  0  0  0  0  0  0  0
   -2.3637    6.5409    5.8411 C   0  0  0  0  0  0  0  0  0  0  0  0
   -1.9932    5.1143    5.4347 C   0  0  1  0  0  0  0  0  0  0  0  0
   -2.2968    4.9062    3.9527 C   0  0  2  0  0  0  0  0  0  0  0  0
   -3.7790    5.1685    3.6810 C   0  0  1  0  0  0  0  0  0  0  0  0
   -4.1503    6.5856    4.1166 C   0  0  1  0  0  0  0  0  0  0  0  0
   -4.2008    8.1876    5.9516 N   0  3  0  0  0  0  0  0  0  0  0  0
   -0.5682    4.8495    5.7625 N   0  3  0  0  0  0  0  0  0  0  0  0
   -4.0519    5.0011    2.2962 O   0  0  0  0  0  0  0  0  0  0  0  0
   -5.5491    6.8204    3.8737 O   0  0  0  0  0  0  0  0  0  0  0  0
   -1.0335    3.4456    2.5264 C   0  0  1  0  0  0  0  0  0  0  0  0
   -1.5926    2.5562    1.4145 C   0  0  1  0  0  0  0  0  0  0  0  0
   -1.8254    1.1456    1.9343 C   0  0  0  0  0  0  0  0  0  0  0  0
   -0.5323    0.6106    2.5276 C   0  0  1  0  0  0  0  0  0  0  0  0
   -0.0289    1.5632    3.6115 C   0  0  1  0  0  0  0  0  0  0  0  0
    1.2942    1.1213    4.2100 C   0  0  0  0  0  0  0  0  0  0  0  0
   -2.8216    3.1423    0.8292 N   0  3  0  0  0  0  0  0  0  0  0  0
    2.4335    1.4749    3.3298 N   0  3  0  0  0  0  0  0  0  0  0  0
   -1.9553    3.5615    3.5584 O   0  0  0  0  0  0  0  0  0  0  0  0
   -0.7490   -0.6799    3.0792 O   0  0  0  0  0  0  0  0  0  0  0  0
    0.1713    2.8828    3.0601 O   0  0  0  0  0  0  0  0  0  0  0  0
  1  2  1  0  0  0  0
  1 10  1  0  0  0  0
  1 21  1  1  0  0  0
  2  3  1  0  0  0  0
  2  7  1  1  0  0  0
  3  4  1  0  0  0  0
  3  8  1  6  0  0  0
  4  5  1  0  0  0  0
  4  9  1  1  0  0  0
  5  6  1  6  0  0  0
  5 10  1  0  0  0  0
  6 11  1  0  0  0  0
 12 13  1  0  0  0  0
 12 17  1  0  0  0  0
 12 18  1  6  0  0  0
 13 14  1  0  0  0  0
 14 15  1  0  0  0  0
 14 19  1  6  0  0  0
 15 16  1  0  0  0  0
 15 30  1  1  0  0  0
 16 17  1  0  0  0  0
 16 20  1  6  0  0  0
 17 21  1  1  0  0  0
 22 23  1  0  0  0  0
 22 30  1  1  0  0  0
 22 32  1  0  0  0  0
 23 24  1  0  0  0  0
 23 28  1  1  0  0  0
 24 25  1  0  0  0  0
 25 26  1  0  0  0  0
 25 31  1  1  0  0  0
 26 27  1  6  0  0  0
 26 32  1  0  0  0  0
 27 29  1  0  0  0  0
M  CHG  5   8   1  18   1  19   1  28   1  29   1
M  END
>  <CHROM.1>
-170.46196002,-177.72460265,170.01341798,78.07499714,-55.31376360,-62.07746416
-168.73122270,-106.30883698,-122.18339403,-59.60903906,127.46565595,-126.57734855
-40.61930868,59.91197983,79.22762699,-78.09409894,-3.69501926,4.76684800
2.99859197,-2.77550041,0.52138675,-2.36886932

>  <Name>
1tob

>  <RI>
0

>  <Rbt.Current_Directory>
/home/itssahil/PROJECTS/Mol_Feturizer/New_Systems/rnas/1tob

>  <Rbt.Executable>
rbdock ($Id: //depot/dev/client3/rdock/2013.1/src/exe/rbdock.cxx#4 $)

>  <Rbt.Library>
libRbt.so (2013.1, Build901 2013/11/27)

>  <Rbt.Parameter_File>
/export/apps/rDock/src/rDock_2013.1_src/data/scripts/dock_solv.prm

>  <Rbt.Receptor>
prm/blind_docking_60.prm

>  <SCORE>
-40.1383

>  <SCORE.INTER>
-49.4539

>  <SCORE.INTER.CONST>
1

>  <SCORE.INTER.POLAR>
-7.04695

>  <SCORE.INTER.ROT>
6

>  <SCORE.INTER.SOLV>
35.1113

>  <SCORE.INTER.VDW>
-28.7832

>  <SCORE.INTER.norm>
-1.54544

>  <SCORE.INTRA>
4.73754

>  <SCORE.INTRA.DIHEDRAL>
6.86504

>  <SCORE.INTRA.DIHEDRAL.0>
22.9177

>  <SCORE.INTRA.POLAR>
-0.924878

>  <SCORE.INTRA.POLAR.0>
-0.311208

>  <SCORE.INTRA.REPUL>
0

>  <SCORE.INTRA.REPUL.0>
0

>  <SCORE.INTRA.SOLV>
2.64863

>  <SCORE.INTRA.SOLV.lig_0>
-132.657

>  <SCORE.INTRA.VDW>
3.12529

>  <SCORE.INTRA.VDW.0>
-4.68867

>  <SCORE.INTRA.norm>
0.148048

>  <SCORE.RESTR>
4.57806

>  <SCORE.RESTR.CAVITY>
4.57806

>  <SCORE.RESTR.norm>
0.143064

>  <SCORE.SYSTEM>
0

>  <SCORE.SYSTEM.CONST>
0

>  <SCORE.SYSTEM.DIHEDRAL>
0

>  <SCORE.SYSTEM.SOLV>
0

>  <SCORE.SYSTEM.norm>
0

>  <SCORE.heavy>
32

>  <SCORE.norm>
-1.25432

>  <RMSD>
8.849

$$$$
1tob
 OpenBabel11021811413D
libRbt.so/2013.1/901 2013/11/27
 32 34  0  0  0  0  0  0  0  0999 V2000
   -6.8481    8.2441    2.3882 C   0  0  2  0  0  0  0  0  0  0  0  0
   -6.6030    9.7479    2.2900 C   0  0  1  0  0  0  0  0  0  0  0  0
   -7.5480   10.4839    3.2300 C   0  0  2  0  0  0  0  0  0  0  0  0
   -8.9859   10.0934    2.9096 C   0  0  1  0  0  0  0  0  0  0  0  0
   -9.1408    8.5771    2.9874 C   0  0  1  0  0  0  0  0  0  0  0  0
  -10.5339    8.1188    2.6029 C   0  0  0  0  0  0  0  0  0  0  0  0
   -5.2573   10.0381    2.6400 O   0  0  0  0  0  0  0  0  0  0  0  0
   -7.3431   11.9467    3.1553 N   0  3  0  0  0  0  0  0  0  0  0  0
   -9.8707   10.7226    3.8268 O   0  0  0  0  0  0  0  0  0  0  0  0
   -8.2145    7.9380    2.0826 O   0  0  0  0  0  0  0  0  0  0  0  0
  -10.6690    7.9943    1.1943 O   0  0  0  0  0  0  0  0  0  0  0  0
   -4.9479    7.5200    5.4370 C   0  0  2  0  0  0  0  0  0  0  0  0
   -3.4814    7.2163    5.7112 C   0  0  0  0  0  0  0  0  0  0  0  0
   -3.0981    5.8578    5.1236 C   0  0  1  0  0  0  0  0  0  0  0  0
   -3.3376    5.8635    3.6155 C   0  0  2  0  0  0  0  0  0  0  0  0
   -4.8056    6.1752    3.3205 C   0  0  1  0  0  0  0  0  0  0  0  0
   -5.1910    7.5202    3.9356 C   0  0  1  0  0  0  0  0  0  0  0  0
   -5.3163    8.8481    5.9746 N   0  3  0  0  0  0  0  0  0  0  0  0
   -1.6896    5.5362    5.4712 N   0  3  0  0  0  0  0  0  0  0  0  0
   -5.0185    6.2072    1.9157 O   0  0  0  0  0  0  0  0  0  0  0  0
   -6.5771    7.7999    3.6688 O   0  0  0  0  0  0  0  0  0  0  0  0
   -2.3474    4.6198    1.8165 C   0  0  1  0  0  0  0  0  0  0  0  0
   -2.7910    3.4340    0.9579 C   0  0  1  0  0  0  0  0  0  0  0  0
   -2.3746    2.1248    1.6114 C   0  0  0  0  0  0  0  0  0  0  0  0
   -0.8760    2.1458    1.8645 C   0  0  1  0  0  0  0  0  0  0  0  0
   -0.5120    3.3677    2.7071 C   0  0  1  0  0  0  0  0  0  0  0  0
    0.9816    3.4860    2.9511 C   0  0  0  0  0  0  0  0  0  0  0  0
   -4.2481    3.4831    0.6918 N   0  3  0  0  0  0  0  0  0  0  0  0
    1.6771    4.0800    1.7845 N   0  3  0  0  0  0  0  0  0  0  0  0
   -2.9835    4.5846    3.0502 O   0  0  0  0  0  0  0  0  0  0  0  0
   -0.4809    0.9587    2.5364 O   0  0  0  0  0  0  0  0  0  0  0  0
   -0.9324    4.5764    2.0381 O   0  0  0  0  0  0  0  0  0  0  0  0
  1  2  1  0  0  0  0
  1 10  1  0  0  0  0
  1 21  1  1  0  0  0
  2  3  1  0  0  0  0
  2  7  1  1  0  0  0
  3  4  1  0  0  0  0
  3  8  1  6  0  0  0
  4  5  1  0  0  0  0
  4  9  1  1  0  0  0
  5  6  1  6  0  0  0
  5 10  1  0  0  0  0
  6 11  1  0  0  0  0
 12 13  1  0  0  0  0
 12 17  1  0  0  0  0
 12 18  1  6  0  0  0
 13 14  1  0  0  0  0
 14 15  1  0  0  0  0
 14 19  1  6  0  0  0
 15 16  1  0  0  0  0
 15 30  1  1  0  0  0
 16 17  1  0  0  0  0
 16 20  1  6  0  0  0
 17 21  1  1  0  0  0
 22 23  1  0  0  0  0
 22 30  1  1  0  0  0
 22 32  1  0  0  0  0
 23 24  1  0  0  0  0
 23 28  1  1  0  0  0
 24 25  1  0  0  0  0
 25 26  1  0  0  0  0
 25 31  1  1  0  0  0
 26 27  1  6  0  0  0
 26 32  1  0  0  0  0
 27 29  1  0  0  0  0
M  CHG  5   8   1  18   1  19   1  28   1  29   1
M  END
>  <CHROM.1>
-83.44725749,54.07122927,-50.86074999,-61.64220864,83.80424965,88.20745709
-155.99785588,-144.41657788,-140.87652542,-54.88127730,160.33288403,-144.24981918
-38.48074628,-60.17049415,80.41710077,79.06829784,-4.66996399,6.56120095
2.97403929,2.57465587,-0.41468420,0.65795563

>  <Name>
1tob

>  <RI>
0

>  <Rbt.Current_Directory>
/home/itssahil/PROJECTS/Mol_Feturizer/New_Systems/rnas/1tob

>  <Rbt.Executable>
rbdock ($Id: //depot/dev/client3/rdock/2013.1/src/exe/rbdock.cxx#4 $)

>  <Rbt.Library>
libRbt.so (2013.1, Build901 2013/11/27)

>  <Rbt.Parameter_File>
/export/apps/rDock/src/rDock_2013.1_src/data/scripts/dock_solv.prm

>  <Rbt.Receptor>
prm/pocket_docking_3.prm

>  <SCORE>
-55.8258

>  <SCORE.INTER>
-59.0214

>  <SCORE.INTER.CONST>
1

>  <SCORE.INTER.POLAR>
-8.49548

>  <SCORE.INTER.ROT>
6

>  <SCORE.INTER.SOLV>
36.3864

>  <SCORE.INTER.VDW>
-30.7581

>  <SCORE.INTER.norm>
-1.84442

>  <SCORE.INTRA>
2.55359

>  <SCORE.INTRA.DIHEDRAL>
3.59321

>  <SCORE.INTRA.DIHEDRAL.0>
22.9177

>  <SCORE.INTRA.POLAR>
0.210273

>  <SCORE.INTRA.POLAR.0>
-0.311208

>  <SCORE.INTRA.REPUL>
0

>  <SCORE.INTRA.REPUL.0>
0

>  <SCORE.INTRA.SOLV>
-1.60265

>  <SCORE.INTRA.SOLV.lig_0>
-132.657

>  <SCORE.INTRA.VDW>
0.843377

>  <SCORE.INTRA.VDW.0>
-4.68867

>  <SCORE.INTRA.norm>
0.0797996

>  <SCORE.RESTR>
0.641993

>  <SCORE.RESTR.CAVITY>
0.641993

>  <SCORE.RESTR.norm>
0.0200623

>  <SCORE.SYSTEM>
0

>  <SCORE.SYSTEM.CONST>
0

>  <SCORE.SYSTEM.DIHEDRAL>
0

>  <SCORE.SYSTEM.SOLV>
0

>  <SCORE.SYSTEM.norm>
0

>  <SCORE.heavy>
32

>  <SCORE.norm>
-1.74456

>  <RMSD>
8.856

$$$$
1tob
 OpenBabel11021811413D
libRbt.so/2013.1/901 2013/11/27
 32 34  0  0  0  0  0  0  0  0999 V2000
   -5.9520    5.6381    2.2175 C   0  0  2  0  0  0  0  0  0  0  0  0
   -6.2172    4.8301    0.9495 C   0  0  1  0  0  0  0  0  0  0  0  0
   -6.7435    5.7499   -0.1438 C   0  0  2  0  0  0  0  0  0  0  0  0
   -7.9793    6.4833    0.3636 C   0  0  1  0  0  0  0  0  0  0  0  0
   -7.6461    7.2307    1.6518 C   0  0  1  0  0  0  0  0  0  0  0  0
   -8.8574    7.9194    2.2493 C   0  0  0  0  0  0  0  0  0  0  0  0
   -5.0150    4.2101    0.5160 O   0  0  0  0  0  0  0  0  0  0  0  0
   -7.0190    4.9978   -1.3872 N   0  3  0  0  0  0  0  0  0  0  0  0
   -8.4373    7.3952   -0.6258 O   0  0  0  0  0  0  0  0  0  0  0  0
   -7.1451    6.3083    2.6435 O   0  0  0  0  0  0  0  0  0  0  0  0
   -8.5521    8.5094    3.5050 O   0  0  0  0  0  0  0  0  0  0  0  0
   -4.1552    6.8954    4.2371 C   0  0  2  0  0  0  0  0  0  0  0  0
   -2.9161    6.7744    5.1135 C   0  0  0  0  0  0  0  0  0  0  0  0
   -2.3914    5.3384    5.1018 C   0  0  1  0  0  0  0  0  0  0  0  0
   -2.0391    4.9311    3.6729 C   0  0  2  0  0  0  0  0  0  0  0  0
   -3.2713    5.0542    2.7753 C   0  0  1  0  0  0  0  0  0  0  0  0
   -3.8090    6.4843    2.8142 C   0  0  1  0  0  0  0  0  0  0  0  0
   -4.6483    8.2901    4.2183 N   0  3  0  0  0  0  0  0  0  0  0  0
   -1.2346    5.2156    6.0263 N   0  3  0  0  0  0  0  0  0  0  0  0
   -2.9327    4.7011    1.4409 O   0  0  0  0  0  0  0  0  0  0  0  0
   -4.9775    6.5896    1.9811 O   0  0  0  0  0  0  0  0  0  0  0  0
   -0.9689    3.1594    2.4564 C   0  0  1  0  0  0  0  0  0  0  0  0
   -1.3191    1.6961    2.1807 C   0  0  1  0  0  0  0  0  0  0  0  0
   -0.7399    0.8016    3.2665 C   0  0  0  0  0  0  0  0  0  0  0  0
    0.7571    1.0439    3.3692 C   0  0  1  0  0  0  0  0  0  0  0  0
    1.0238    2.5272    3.6224 C   0  0  1  0  0  0  0  0  0  0  0  0
    2.5051    2.8540    3.6783 C   0  0  0  0  0  0  0  0  0  0  0  0
   -2.7829    1.5157    2.0349 N   0  3  0  0  0  0  0  0  0  0  0  0
    3.0763    2.5589    5.0141 N   0  3  0  0  0  0  0  0  0  0  0  0
   -1.5468    3.5755    3.6485 O   0  0  0  0  0  0  0  0  0  0  0  0
    1.3031    0.2664    4.4249 O   0  0  0  0  0  0  0  0  0  0  0  0
    0.4506    3.3235    2.5627 O   0  0  0  0  0  0  0  0  0  0  0  0
  1  2  1  0  0  0  0
  1 10  1  0  0  0  0
  1 21  1  6  0  0  0
  2  3  1  0  0  0  0
  2  7  1  6  0  0  0
  3  4  1  0  0  0  0
  3  8  1  6  0  0  0
  4  5  1  0  0  0  0
  4  9  1  6  0  0  0
  5  6  1  1  0  0  0
  5 10  1  0  0  0  0
  6 11  1  0  0  0  0
 12 13  1  0  0  0  0
 12 17  1  0  0  0  0
 12 18  1  6  0  0  0
 13 14  1  0  0  0  0
 14 15  1  0  0  0  0
 14 19  1  1  0  0  0
 15 16  1  0  0  0  0
 15 30  1  1  0  0  0
 16 17  1  0  0  0  0
 16 20  1  6  0  0  0
 17 21  1  6  0  0  0
 22 23  1  0  0  0  0
 22 30  1  1  0  0  0
 22 32  1  0  0  0  0
 23 24  1  0  0  0  0
 23 28  1  1  0  0  0
 24 25  1  0  0  0  0
 25 26  1  0  0  0  0
 25 31  1  1  0  0  0
 26 27  1  6  0  0  0
 26 32  1  0  0  0  0
 27 29  1  0  0  0  0
M  CHG  5   8   1  18   1  19   1  28   1  29   1
M  END
>  <CHROM.1>
-120.94448130,-159.83385241,48.76220809,-178.72292152,174.88423284,-62.62208619
-91.12661955,9.67576359,-168.96026045,-74.05639355,-71.05164764,-142.86079001
-161.24061579,-68.74831184,-82.10456779,-50.89348353,-3.44856992,4.78024030
2.67197137,2.99385147,-0.55822602,0.80156444

>  <Name>
1tob

>  <RI>
0

>  <Rbt.Current_Directory>
/home/itssahil/PROJECTS/Mol_Feturizer/New_Systems/rnas/1tob

>  <Rbt.Executable>
rbdock ($Id: //depot/dev/client3/rdock/2013.1/src/exe/rbdock.cxx#4 $)

>  <Rbt.Library>
libRbt.so (2013.1, Build901 2013/11/27)

>  <Rbt.Parameter_File>
/export/apps/rDock/src/rDock_2013.1_src/data/scripts/dock_solv.prm

>  <Rbt.Receptor>
prm/pocket_docking_4.prm

>  <SCORE>
-44.8895

>  <SCORE.INTER>
-51.7697

>  <SCORE.INTER.CONST>
1

>  <SCORE.INTER.POLAR>
-6.64048

>  <SCORE.INTER.ROT>
6

>  <SCORE.INTER.SOLV>
26.9041

>  <SCORE.INTER.VDW>
-28.9463

>  <SCORE.INTER.norm>
-1.6178

>  <SCORE.INTRA>
6.74872

>  <SCORE.INTRA.DIHEDRAL>
1.65275

>  <SCORE.INTRA.DIHEDRAL.0>
22.9177

>  <SCORE.INTRA.POLAR>
0.14363

>  <SCORE.INTRA.POLAR.0>
-0.311208

>  <SCORE.INTRA.REPUL>
0.124072

>  <SCORE.INTRA.REPUL.0>
0

>  <SCORE.INTRA.SOLV>
-1.4241

>  <SCORE.INTRA.SOLV.lig_0>
-132.657

>  <SCORE.INTRA.VDW>
5.5257

>  <SCORE.INTRA.VDW.0>
-4.68867

>  <SCORE.INTRA.norm>
0.210897

>  <SCORE.RESTR>
0.131469

>  <SCORE.RESTR.CAVITY>
0.131469

>  <SCORE.RESTR.norm>
0.00410839

>  <SCORE.SYSTEM>
0

>  <SCORE.SYSTEM.CONST>
0

>  <SCORE.SYSTEM.DIHEDRAL>
0

>  <SCORE.SYSTEM.SOLV>
0

>  <SCORE.SYSTEM.norm>
0

>  <SCORE.heavy>
32

>  <SCORE.norm>
-1.4028

>  <RMSD>
8.867

$$$$
1tob
 OpenBabel11021811413D
libRbt.so/2013.1/901 2013/11/27
 32 34  0  0  0  0  0  0  0  0999 V2000
   -5.5729    4.7669    1.7960 C   0  0  2  0  0  0  0  0  0  0  0  0
   -5.7820    3.9697    0.5108 C   0  0  1  0  0  0  0  0  0  0  0  0
   -6.3570    4.8776   -0.5678 C   0  0  2  0  0  0  0  0  0  0  0  0
   -7.6376    5.5250   -0.0543 C   0  0  1  0  0  0  0  0  0  0  0  0
   -7.3570    6.2654    1.2505 C   0  0  1  0  0  0  0  0  0  0  0  0
   -8.6108    6.8679    1.8533 C   0  0  0  0  0  0  0  0  0  0  0  0
   -4.5423    3.4320    0.0731 O   0  0  0  0  0  0  0  0  0  0  0  0
   -6.5799    4.1352   -1.8274 N   0  3  0  0  0  0  0  0  0  0  0  0
   -8.1444    6.4271   -1.0286 O   0  0  0  0  0  0  0  0  0  0  0  0
   -6.8065    5.3554    2.2272 O   0  0  0  0  0  0  0  0  0  0  0  0
   -8.3150    7.6210    3.0209 O   0  0  0  0  0  0  0  0  0  0  0  0
   -3.9335    6.2960    3.8363 C   0  0  2  0  0  0  0  0  0  0  0  0
   -2.7304    6.2748    4.7691 C   0  0  0  0  0  0  0  0  0  0  0  0
   -2.1840    4.8533    4.9043 C   0  0  1  0  0  0  0  0  0  0  0  0
   -1.7663    4.3299    3.5320 C   0  0  2  0  0  0  0  0  0  0  0  0
   -2.9618    4.3514    2.5782 C   0  0  1  0  0  0  0  0  0  0  0  0
   -3.5221    5.7692    2.4701 C   0  0  1  0  0  0  0  0  0  0  0  0
   -4.4463    7.6743    3.6755 N   0  3  0  0  0  0  0  0  0  0  0  0
   -1.0650    4.8329    5.8818 N   0  3  0  0  0  0  0  0  0  0  0  0
   -2.5625    3.8900    1.2946 O   0  0  0  0  0  0  0  0  0  0  0  0
   -4.6564    5.7798    1.5846 O   0  0  0  0  0  0  0  0  0  0  0  0
   -0.9486    2.3480    2.4516 C   0  0  1  0  0  0  0  0  0  0  0  0
   -0.5513    0.8944    2.7146 C   0  0  1  0  0  0  0  0  0  0  0  0
    0.7130    0.8377    3.5588 C   0  0  0  0  0  0  0  0  0  0  0  0
    1.8091    1.6371    2.8734 C   0  0  1  0  0  0  0  0  0  0  0  0
    1.3280    3.0666    2.6268 C   0  0  1  0  0  0  0  0  0  0  0  0
    2.3530    3.9098    1.8903 C   0  0  0  0  0  0  0  0  0  0  0  0
   -1.6666    0.1397    3.3336 N   0  3  0  0  0  0  0  0  0  0  0  0
    3.6517    3.9329    2.6048 N   0  3  0  0  0  0  0  0  0  0  0  0
   -1.2530    2.9868    3.6463 O   0  0  0  0  0  0  0  0  0  0  0  0
    2.9767    1.6516    3.6816 O   0  0  0  0  0  0  0  0  0  0  0  0
    0.1277    3.0558    1.8240 O   0  0  0  0  0  0  0  0  0  0  0  0
  1  2  1  0  0  0  0
  1 10  1  0  0  0  0
  1 21  1  6  0  0  0
  2  3  1  0  0  0  0
  2  7  1  6  0  0  0
  3  4  1  0  0  0  0
  3  8  1  6  0  0  0
  4  5  1  0  0  0  0
  4  9  1  6  0  0  0
  5  6  1  1  0  0  0
  5 10  1  0  0  0  0
  6 11  1  0  0  0  0
 12 13  1  0  0  0  0
 12 17  1  0  0  0  0
 12 18  1  6  0  0  0
 13 14  1  0  0  0  0
 14 15  1  0  0  0  0
 14 19  1  1  0  0  0
 15 16  1  0  0  0  0
 15 30  1  1  0  0  0
 16 17  1  0  0  0  0
 16 20  1  6  0  0  0
 17 21  1  6  0  0  0
 22 23  1  0  0  0  0
 22 30  1  1  0  0  0
 22 32  1  0  0  0  0
 23 24  1  0  0  0  0
 23 28  1  1  0  0  0
 24 25  1  0  0  0  0
 25 26  1  0  0  0  0
 25 31  1  1  0  0  0
 26 27  1  6  0  0  0
 26 32  1  0  0  0  0
 27 29  1  0  0  0  0
M  CHG  5   8   1  18   1  19   1  28   1  29   1
M  END
>  <CHROM.1>
-124.05530836,98.29893979,-74.46746333,-56.36136833,-176.37828288,-70.82861576
-50.53880473,94.89781502,174.42853339,-59.51240067,-76.05793237,-174.35246780
59.71225573,-52.94696240,-55.99929819,51.82491010,-3.02442022,4.31152470
2.27478534,3.08270220,-0.45816512,0.86748056

>  <Name>
1tob

>  <RI>
0

>  <Rbt.Current_Directory>
/home/itssahil/PROJECTS/Mol_Feturizer/New_Systems/rnas/1tob

>  <Rbt.Executable>
rbdock ($Id: //depot/dev/client3/rdock/2013.1/src/exe/rbdock.cxx#4 $)

>  <Rbt.Library>
libRbt.so (2013.1, Build901 2013/11/27)

>  <Rbt.Parameter_File>
/export/apps/rDock/src/rDock_2013.1_src/data/scripts/dock_solv.prm

>  <Rbt.Receptor>
prm/blind_docking_20.prm

>  <SCORE>
-37.7486

>  <SCORE.INTER>
-45.7112

>  <SCORE.INTER.CONST>
1

>  <SCORE.INTER.POLAR>
-5.77769

>  <SCORE.INTER.ROT>
6

>  <SCORE.INTER.SOLV>
37.2714

>  <SCORE.INTER.VDW>
-31.239

>  <SCORE.INTER.norm>
-1.42848

>  <SCORE.INTRA>
0.836318

>  <SCORE.INTRA.DIHEDRAL>
-4.90159

>  <SCORE.INTRA.DIHEDRAL.0>
22.9177

>  <SCORE.INTRA.POLAR>
-0.297891

>  <SCORE.INTRA.POLAR.0>
-0.311208

>  <SCORE.INTRA.REPUL>
0

>  <SCORE.INTRA.REPUL.0>
0

>  <SCORE.INTRA.SOLV>
-3.37772

>  <SCORE.INTRA.SOLV.lig_0>
-132.657

>  <SCORE.INTRA.VDW>
5.9888

>  <SCORE.INTRA.VDW.0>
-4.68867

>  <SCORE.INTRA.norm>
0.0261349

>  <SCORE.RESTR>
7.12634

>  <SCORE.RESTR.CAVITY>
7.12634

>  <SCORE.RESTR.norm>
0.222698

>  <SCORE.SYSTEM>
0

>  <SCORE.SYSTEM.CONST>
0

>  <SCORE.SYSTEM.DIHEDRAL>
0

>  <SCORE.SYSTEM.SOLV>
0

>  <SCORE.SYSTEM.norm>
0

>  <SCORE.heavy>
32

>  <SCORE.norm>
-1.17964

>  <RMSD>
8.869

$$$$
1tob
 OpenBabel11021811413D
libRbt.so/2013.1/901 2013/11/27
 32 34  0  0  0  0  0  0  0  0999 V2000
   -5.5871    4.8489    2.0540 C   0  0  2  0  0  0  0  0  0  0  0  0
   -5.8696    4.0304    0.7965 C   0  0  1  0  0  0  0  0  0  0  0  0
   -6.4560    4.9321   -0.2812 C   0  0  2  0  0  0  0  0  0  0  0  0
   -7.6951    5.6320    0.2639 C   0  0  1  0  0  0  0  0  0  0  0  0
   -7.3423    6.3919    1.5396 C   0  0  1  0  0  0  0  0  0  0  0  0
   -8.5528    7.0482    2.1740 C   0  0  0  0  0  0  0  0  0  0  0  0
   -4.6649    3.4430    0.3261 O   0  0  0  0  0  0  0  0  0  0  0  0
   -6.7496    4.1692   -1.5138 N   0  3  0  0  0  0  0  0  0  0  0  0
   -8.2096    6.5280   -0.7120 O   0  0  0  0  0  0  0  0  0  0  0  0
   -6.7843    5.4867    2.5165 O   0  0  0  0  0  0  0  0  0  0  0  0
   -8.1798    7.8867    3.2583 O   0  0  0  0  0  0  0  0  0  0  0  0
   -3.8317    6.3075    4.0125 C   0  0  2  0  0  0  0  0  0  0  0  0
   -2.5926    6.2649    4.8963 C   0  0  0  0  0  0  0  0  0  0  0  0
   -2.0529    4.8375    4.9914 C   0  0  1  0  0  0  0  0  0  0  0  0
   -1.6944    4.3291    3.5968 C   0  0  2  0  0  0  0  0  0  0  0  0
   -2.9266    4.3723    2.6919 C   0  0  1  0  0  0  0  0  0  0  0  0
   -3.4792    5.7957    2.6243 C   0  0  1  0  0  0  0  0  0  0  0  0
   -4.3392    7.6917    3.8901 N   0  3  0  0  0  0  0  0  0  0  0  0
   -0.8962    4.7957    5.9231 N   0  3  0  0  0  0  0  0  0  0  0  0
   -2.5824    3.9248    1.3875 O   0  0  0  0  0  0  0  0  0  0  0  0
   -4.6476    5.8266    1.7849 O   0  0  0  0  0  0  0  0  0  0  0  0
   -0.8984    2.3697    2.4605 C   0  0  1  0  0  0  0  0  0  0  0  0
   -0.4679    0.9196    2.6876 C   0  0  1  0  0  0  0  0  0  0  0  0
    0.8159    0.8720    3.5024 C   0  0  0  0  0  0  0  0  0  0  0  0
    1.8810    1.7048    2.8080 C   0  0  1  0  0  0  0  0  0  0  0  0
    1.3676    3.1289    2.5987 C   0  0  1  0  0  0  0  0  0  0  0  0
    2.3596    4.0051    1.8556 C   0  0  0  0  0  0  0  0  0  0  0  0
   -1.5545    0.1324    3.3168 N   0  3  0  0  0  0  0  0  0  0  0  0
    3.6545    4.0880    2.5726 N   0  3  0  0  0  0  0  0  0  0  0  0
   -1.1879    2.9807    3.6733 O   0  0  0  0  0  0  0  0  0  0  0  0
    3.0660    1.7271    3.5904 O   0  0  0  0  0  0  0  0  0  0  0  0
    0.1499    3.1096    1.8226 O   0  0  0  0  0  0  0  0  0  0  0  0
  1  2  1  0  0  0  0
  1 10  1  0  0  0  0
  1 21  1  6  0  0  0
  2  3  1  0  0  0  0
  2  7  1  6  0  0  0
  3  4  1  0  0  0  0
  3  8  1  6  0  0  0
  4  5  1  0  0  0  0
  4  9  1  6  0  0  0
  5  6  1  1  0  0  0
  5 10  1  0  0  0  0
  6 11  1  0  0  0  0
 12 13  1  0  0  0  0
 12 17  1  0  0  0  0
 12 18  1  6  0  0  0
 13 14  1  0  0  0  0
 14 15  1  0  0  0  0
 14 19  1  1  0  0  0
 15 16  1  0  0  0  0
 15 30  1  1  0  0  0
 16 17  1  0  0  0  0
 16 20  1  6  0  0  0
 17 21  1  6  0  0  0
 22 23  1  0  0  0  0
 22 30  1  1  0  0  0
 22 32  1  0  0  0  0
 23 24  1  0  0  0  0
 23 28  1  1  0  0  0
 24 25  1  0  0  0  0
 25 26  1  0  0  0  0
 25 31  1  1  0  0  0
 26 27  1  6  0  0  0
 26 32  1  0  0  0  0
 27 29  1  0  0  0  0
M  CHG  5   8   1  18   1  19   1  28   1  29   1
M  END
>  <CHROM.1>
-123.81431756,136.04767993,-68.41555522,-56.98702764,-172.55921753,63.48785059
-64.60807008,-104.37317255,176.29866133,-168.75236379,-73.68060363,-175.99675065
60.47843283,-51.09543707,-58.49034065,168.60393633,-2.99554331,4.37156692
2.39929035,3.03225798,-0.43708072,0.81847268

>  <Name>
1tob

>  <RI>
0

>  <Rbt.Current_Directory>
/home/itssahil/PROJECTS/Mol_Feturizer/New_Systems/rnas/1tob

>  <Rbt.Executable>
rbdock ($Id: //depot/dev/client3/rdock/2013.1/src/exe/rbdock.cxx#4 $)

>  <Rbt.Library>
libRbt.so (2013.1, Build901 2013/11/27)

>  <Rbt.Parameter_File>
/export/apps/rDock/src/rDock_2013.1_src/data/scripts/dock_solv.prm

>  <Rbt.Receptor>
prm/blind_docking_100.prm

>  <SCORE>
-34.6778

>  <SCORE.INTER>
-43.3392

>  <SCORE.INTER.CONST>
1

>  <SCORE.INTER.POLAR>
-4.96709

>  <SCORE.INTER.ROT>
6

>  <SCORE.INTER.SOLV>
36.3637

>  <SCORE.INTER.VDW>
-32.057

>  <SCORE.INTER.norm>
-1.35435

>  <SCORE.INTRA>
-0.0463175

>  <SCORE.INTRA.DIHEDRAL>
-3.81069

>  <SCORE.INTRA.DIHEDRAL.0>
22.9177

>  <SCORE.INTRA.POLAR>
-0.685276

>  <SCORE.INTRA.POLAR.0>
-0.311208

>  <SCORE.INTRA.REPUL>
0

>  <SCORE.INTRA.REPUL.0>
0

>  <SCORE.INTRA.SOLV>
-3.36833

>  <SCORE.INTRA.SOLV.lig_0>
-132.657

>  <SCORE.INTRA.VDW>
5.87313

>  <SCORE.INTRA.VDW.0>
-4.68867

>  <SCORE.INTRA.norm>
-0.00144742

>  <SCORE.RESTR>
8.70768

>  <SCORE.RESTR.CAVITY>
8.70768

>  <SCORE.RESTR.norm>
0.272115

>  <SCORE.SYSTEM>
0

>  <SCORE.SYSTEM.CONST>
0

>  <SCORE.SYSTEM.DIHEDRAL>
0

>  <SCORE.SYSTEM.SOLV>
0

>  <SCORE.SYSTEM.norm>
0

>  <SCORE.heavy>
32

>  <SCORE.norm>
-1.08368

>  <RMSD>
8.870

$$$$
1tob
 OpenBabel11021811413D
libRbt.so/2013.1/901 2013/11/27
 32 34  0  0  0  0  0  0  0  0999 V2000
   -5.6786    4.9714    2.1753 C   0  0  2  0  0  0  0  0  0  0  0  0
   -5.5243    3.8060    1.2011 C   0  0  1  0  0  0  0  0  0  0  0  0
   -5.8354    4.2756   -0.2135 C   0  0  2  0  0  0  0  0  0  0  0  0
   -7.2262    4.8978   -0.2456 C   0  0  1  0  0  0  0  0  0  0  0  0
   -7.3144    6.0234    0.7812 C   0  0  1  0  0  0  0  0  0  0  0  0
   -8.7008    6.6330    0.8517 C   0  0  0  0  0  0  0  0  0  0  0  0
   -4.1961    3.3058    1.2583 O   0  0  0  0  0  0  0  0  0  0  0  0
   -5.7029    3.1682   -1.1848 N   0  3  0  0  0  0  0  0  0  0  0  0
   -7.4979    5.4011   -1.5468 O   0  0  0  0  0  0  0  0  0  0  0  0
   -7.0010    5.5183    2.0972 O   0  0  0  0  0  0  0  0  0  0  0  0
   -9.1577    7.0331   -0.4325 O   0  0  0  0  0  0  0  0  0  0  0  0
   -4.2189    6.1962    4.2147 C   0  0  2  0  0  0  0  0  0  0  0  0
   -3.0561    6.3321    5.1882 C   0  0  0  0  0  0  0  0  0  0  0  0
   -2.1137    5.1344    5.0656 C   0  0  1  0  0  0  0  0  0  0  0  0
   -1.5704    5.0510    3.6409 C   0  0  2  0  0  0  0  0  0  0  0  0
   -2.7261    4.9220    2.6474 C   0  0  1  0  0  0  0  0  0  0  0  0
   -3.6805    6.1065    2.7950 C   0  0  1  0  0  0  0  0  0  0  0  0
   -5.1167    7.3684    4.3055 N   0  3  0  0  0  0  0  0  0  0  0  0
   -1.0313    5.2374    6.0784 N   0  3  0  0  0  0  0  0  0  0  0  0
   -2.2180    4.8728    1.3210 O   0  0  0  0  0  0  0  0  0  0  0  0
   -4.7740    5.9709    1.8694 O   0  0  0  0  0  0  0  0  0  0  0  0
   -0.2410    3.6386    2.2260 C   0  0  1  0  0  0  0  0  0  0  0  0
   -0.3442    2.1378    1.9488 C   0  0  1  0  0  0  0  0  0  0  0  0
    0.5673    1.3639    2.8892 C   0  0  0  0  0  0  0  0  0  0  0  0
    1.9860    1.8943    2.7609 C   0  0  1  0  0  0  0  0  0  0  0  0
    2.0008    3.3986    3.0301 C   0  0  1  0  0  0  0  0  0  0  0  0
    3.3802    4.0094    2.8618 C   0  0  0  0  0  0  0  0  0  0  0  0
   -1.7497    1.6750    2.0318 N   0  3  0  0  0  0  0  0  0  0  0  0
    3.9158    3.7740    1.4996 N   0  3  0  0  0  0  0  0  0  0  0  0
   -0.6829    3.9214    3.5117 O   0  0  0  0  0  0  0  0  0  0  0  0
    2.8379    1.2288    3.6818 O   0  0  0  0  0  0  0  0  0  0  0  0
    1.1182    4.0772    2.1104 O   0  0  0  0  0  0  0  0  0  0  0  0
  1  2  1  0  0  0  0
  1 10  1  0  0  0  0
  1 21  1  6  0  0  0
  2  3  1  0  0  0  0
  2  7  1  6  0  0  0
  3  4  1  0  0  0  0
  3  8  1  6  0  0  0
  4  5  1  0  0  0  0
  4  9  1  6  0  0  0
  5  6  1  1  0  0  0
  5 10  1  0  0  0  0
  6 11  1  0  0  0  0
 12 13  1  0  0  0  0
 12 17  1  0  0  0  0
 12 18  1  6  0  0  0
 13 14  1  0  0  0  0
 14 15  1  0  0  0  0
 14 19  1  1  0  0  0
 15 16  1  0  0  0  0
 15 30  1  1  0  0  0
 16 17  1  0  0  0  0
 16 20  1  6  0  0  0
 17 21  1  6  0  0  0
 22 23  1  0  0  0  0
 22 30  1  1  0  0  0
 22 32  1  0  0  0  0
 23 24  1  0  0  0  0
 23 28  1  1  0  0  0
 24 25  1  0  0  0  0
 25 26  1  0  0  0  0
 25 31  1  1  0  0  0
 26 27  1  6  0  0  0
 26 32  1  0  0  0  0
 27 29  1  0  0  0  0
M  CHG  5   8   1  18   1  19   1  28   1  29   1
M  END
>  <CHROM.1>
-107.78536472,172.36872445,-5.12874303,-179.15649700,-52.74907577,-70.06271881
131.52223838,-151.17171833,172.75801653,174.13600109,-50.89362034,-134.53182179
167.34133503,-60.20047527,57.93662129,-53.14871254,-2.86735955,4.47577793
2.16673885,3.08709406,0.38359710,-2.16323701

>  <Name>
1tob

>  <RI>
0

>  <Rbt.Current_Directory>
/home/itssahil/PROJECTS/Mol_Feturizer/New_Systems/rnas/1tob

>  <Rbt.Executable>
rbdock ($Id: //depot/dev/client3/rdock/2013.1/src/exe/rbdock.cxx#4 $)

>  <Rbt.Library>
libRbt.so (2013.1, Build901 2013/11/27)

>  <Rbt.Parameter_File>
/export/apps/rDock/src/rDock_2013.1_src/data/scripts/dock_solv.prm

>  <Rbt.Receptor>
prm/blind_docking_100.prm

>  <SCORE>
-32.2465

>  <SCORE.INTER>
-42.257

>  <SCORE.INTER.CONST>
1

>  <SCORE.INTER.POLAR>
-6.2891

>  <SCORE.INTER.ROT>
6

>  <SCORE.INTER.SOLV>
40.7974

>  <SCORE.INTER.VDW>
-28.4068

>  <SCORE.INTER.norm>
-1.32053

>  <SCORE.INTRA>
3.87296

>  <SCORE.INTRA.DIHEDRAL>
0.546475

>  <SCORE.INTRA.DIHEDRAL.0>
22.9177

>  <SCORE.INTRA.POLAR>
-1.51669

>  <SCORE.INTRA.POLAR.0>
-0.311208

>  <SCORE.INTRA.REPUL>
0

>  <SCORE.INTRA.REPUL.0>
0

>  <SCORE.INTRA.SOLV>
0.873375

>  <SCORE.INTRA.SOLV.lig_0>
-132.657

>  <SCORE.INTRA.VDW>
8.31978

>  <SCORE.INTRA.VDW.0>
-4.68867

>  <SCORE.INTRA.norm>
0.12103

>  <SCORE.RESTR>
6.1376

>  <SCORE.RESTR.CAVITY>
6.1376

>  <SCORE.RESTR.norm>
0.1918

>  <SCORE.SYSTEM>
0

>  <SCORE.SYSTEM.CONST>
0

>  <SCORE.SYSTEM.DIHEDRAL>
0

>  <SCORE.SYSTEM.SOLV>
0

>  <SCORE.SYSTEM.norm>
0

>  <SCORE.heavy>
32

>  <SCORE.norm>
-1.0077

>  <RMSD>
8.870

$$$$
1tob
 OpenBabel11021811413D
libRbt.so/2013.1/901 2013/11/27
 32 34  0  0  0  0  0  0  0  0999 V2000
   -4.4527    6.7766    2.2421 C   0  0  2  0  0  0  0  0  0  0  0  0
   -5.7083    7.0181    1.4076 C   0  0  1  0  0  0  0  0  0  0  0  0
   -5.3406    7.7639    0.1321 C   0  0  2  0  0  0  0  0  0  0  0  0
   -4.6086    9.0513    0.4920 C   0  0  1  0  0  0  0  0  0  0  0  0
   -3.3935    8.7320    1.3584 C   0  0  1  0  0  0  0  0  0  0  0  0
   -2.6654    9.9811    1.8144 C   0  0  0  0  0  0  0  0  0  0  0  0
   -6.3116    5.7751    1.0784 O   0  0  0  0  0  0  0  0  0  0  0  0
   -6.5365    8.0221   -0.6989 N   0  3  0  0  0  0  0  0  0  0  0  0
   -4.2009    9.7202   -0.6939 O   0  0  0  0  0  0  0  0  0  0  0  0
   -3.8053    8.0189    2.5446 O   0  0  0  0  0  0  0  0  0  0  0  0
   -3.5513   10.8993    2.4390 O   0  0  0  0  0  0  0  0  0  0  0  0
   -3.0310    3.6550    1.1299 C   0  0  2  0  0  0  0  0  0  0  0  0
   -2.6766    2.3411    1.8126 C   0  0  0  0  0  0  0  0  0  0  0  0
   -1.4049    2.4982    2.6466 C   0  0  1  0  0  0  0  0  0  0  0  0
   -1.6153    3.5761    3.7076 C   0  0  2  0  0  0  0  0  0  0  0  0
   -1.9804    4.9027    3.0398 C   0  0  1  0  0  0  0  0  0  0  0  0
   -3.2351    4.7323    2.1840 C   0  0  1  0  0  0  0  0  0  0  0  0
   -4.2792    3.5179    0.3477 N   0  3  0  0  0  0  0  0  0  0  0  0
   -1.0235    1.1894    3.2381 N   0  3  0  0  0  0  0  0  0  0  0  0
   -2.2027    5.8963    4.0315 O   0  0  0  0  0  0  0  0  0  0  0  0
   -3.5638    5.9794    1.5455 O   0  0  0  0  0  0  0  0  0  0  0  0
   -0.2830    2.8728    5.5769 C   0  0  1  0  0  0  0  0  0  0  0  0
    0.1099    3.6522    6.8331 C   0  0  1  0  0  0  0  0  0  0  0  0
    1.4686    4.3093    6.6426 C   0  0  0  0  0  0  0  0  0  0  0  0
    2.4884    3.2493    6.2593 C   0  0  1  0  0  0  0  0  0  0  0  0
    2.0138    2.5035    5.0127 C   0  0  1  0  0  0  0  0  0  0  0  0
    2.9576    1.3869    4.6044 C   0  0  0  0  0  0  0  0  0  0  0  0
   -0.9362    4.6357    7.2001 N   0  3  0  0  0  0  0  0  0  0  0  0
    2.9539    0.2835    5.5943 N   0  3  0  0  0  0  0  0  0  0  0  0
   -0.4198    3.7366    4.4984 O   0  0  0  0  0  0  0  0  0  0  0  0
    3.7484    3.8556    6.0108 O   0  0  0  0  0  0  0  0  0  0  0  0
    0.7221    1.9042    5.2533 O   0  0  0  0  0  0  0  0  0  0  0  0
  1  2  1  0  0  0  0
  1 10  1  0  0  0  0
  1 21  1  6  0  0  0
  2  3  1  0  0  0  0
  2  7  1  6  0  0  0
  3  4  1  0  0  0  0
  3  8  1  1  0  0  0
  4  5  1  0  0  0  0
  4  9  1  6  0  0  0
  5  6  1  1  0  0  0
  5 10  1  0  0  0  0
  6 11  1  0  0  0  0
 12 13  1  0  0  0  0
 12 17  1  0  0  0  0
 12 18  1  1  0  0  0
 13 14  1  0  0  0  0
 14 15  1  0  0  0  0
 14 19  1  1  0  0  0
 15 16  1  0  0  0  0
 15 30  1  6  0  0  0
 16 17  1  0  0  0  0
 16 20  1  1  0  0  0
 17 21  1  6  0  0  0
 22 23  1  0  0  0  0
 22 30  1  6  0  0  0
 22 32  1  0  0  0  0
 23 24  1  0  0  0  0
 23 28  1  6  0  0  0
 24 25  1  0  0  0  0
 25 26  1  0  0  0  0
 25 31  1  6  0  0  0
 26 27  1  1  0  0  0
 26 32  1  0  0  0  0
 27 29  1  0  0  0  0
M  CHG  5   8   1  18   1  19   1  28   1  29   1
M  END
>  <CHROM.1>
-119.71656501,75.50495828,74.33805013,-50.48822093,52.73121189,76.95337162
112.84141248,57.85147100,-85.62329847,62.33425209,145.30937058,-132.35837394
-131.88657660,61.25512631,67.98742337,-172.97519165,-1.91205305,5.08877204
3.10236104,2.60926504,-0.71588935,0.14114775

>  <Name>
1tob

>  <RI>
0

>  <Rbt.Current_Directory>
/home/itssahil/PROJECTS/Mol_Feturizer/New_Systems/rnas/1tob

>  <Rbt.Executable>
rbdock ($Id: //depot/dev/client3/rdock/2013.1/src/exe/rbdock.cxx#4 $)

>  <Rbt.Library>
libRbt.so (2013.1, Build901 2013/11/27)

>  <Rbt.Parameter_File>
/export/apps/rDock/src/rDock_2013.1_src/data/scripts/dock_solv.prm

>  <Rbt.Receptor>
prm/pocket_docking_6.prm

>  <SCORE>
-39.4714

>  <SCORE.INTER>
-38.807

>  <SCORE.INTER.CONST>
1

>  <SCORE.INTER.POLAR>
-5.82725

>  <SCORE.INTER.ROT>
6

>  <SCORE.INTER.SOLV>
22.1584

>  <SCORE.INTER.VDW>
-21.4333

>  <SCORE.INTER.norm>
-1.21272

>  <SCORE.INTRA>
-0.664364

>  <SCORE.INTRA.DIHEDRAL>
8.68774

>  <SCORE.INTRA.DIHEDRAL.0>
22.9177

>  <SCORE.INTRA.POLAR>
-1.91995

>  <SCORE.INTRA.POLAR.0>
-0.311208

>  <SCORE.INTRA.REPUL>
0

>  <SCORE.INTRA.REPUL.0>
0

>  <SCORE.INTRA.SOLV>
0.392774

>  <SCORE.INTRA.SOLV.lig_0>
-132.657

>  <SCORE.INTRA.VDW>
1.32322

>  <SCORE.INTRA.VDW.0>
-4.68867

>  <SCORE.INTRA.norm>
-0.0207614

>  <SCORE.RESTR>
0

>  <SCORE.RESTR.CAVITY>
0

>  <SCORE.RESTR.norm>
0

>  <SCORE.SYSTEM>
0

>  <SCORE.SYSTEM.CONST>
0

>  <SCORE.SYSTEM.DIHEDRAL>
0

>  <SCORE.SYSTEM.SOLV>
0

>  <SCORE.SYSTEM.norm>
0

>  <SCORE.heavy>
32

>  <SCORE.norm>
-1.23348

>  <RMSD>
8.876

$$$$
1tob
 OpenBabel11021811413D
libRbt.so/2013.1/901 2013/11/27
 32 34  0  0  0  0  0  0  0  0999 V2000
   -6.1561    8.0008    2.1534 C   0  0  2  0  0  0  0  0  0  0  0  0
   -7.6473    8.2974    2.2936 C   0  0  1  0  0  0  0  0  0  0  0  0
   -8.4535    7.2203    1.5808 C   0  0  2  0  0  0  0  0  0  0  0  0
   -7.9995    7.1262    0.1290 C   0  0  1  0  0  0  0  0  0  0  0  0
   -6.4959    6.8711    0.0715 C   0  0  1  0  0  0  0  0  0  0  0  0
   -5.9690    6.8438   -1.3498 C   0  0  0  0  0  0  0  0  0  0  0  0
   -8.0024    8.3301    3.6685 O   0  0  0  0  0  0  0  0  0  0  0  0
   -9.9053    7.4802    1.6899 N   0  3  0  0  0  0  0  0  0  0  0  0
   -8.6986    6.0764   -0.5263 O   0  0  0  0  0  0  0  0  0  0  0  0
   -5.7893    7.9186    0.7704 O   0  0  0  0  0  0  0  0  0  0  0  0
   -6.1499    8.0967   -1.9944 O   0  0  0  0  0  0  0  0  0  0  0  0
   -4.6662    7.0269    4.8564 C   0  0  2  0  0  0  0  0  0  0  0  0
   -3.2865    6.9517    5.4959 C   0  0  0  0  0  0  0  0  0  0  0  0
   -2.6756    5.5658    5.2872 C   0  0  1  0  0  0  0  0  0  0  0  0
   -2.5542    5.2767    3.7927 C   0  0  2  0  0  0  0  0  0  0  0  0
   -3.9310    5.3559    3.1314 C   0  0  1  0  0  0  0  0  0  0  0  0
   -4.5494    6.7333    3.3686 C   0  0  1  0  0  0  0  0  0  0  0  0
   -5.2486    8.3761    5.0266 N   0  3  0  0  0  0  0  0  0  0  0  0
   -1.3681    5.4791    5.9879 N   0  3  0  0  0  0  0  0  0  0  0  0
   -3.8101    5.1140    1.7361 O   0  0  0  0  0  0  0  0  0  0  0  0
   -5.8511    6.7959    2.7584 O   0  0  0  0  0  0  0  0  0  0  0  0
   -1.3164    3.7820    2.3794 C   0  0  1  0  0  0  0  0  0  0  0  0
   -1.6153    2.3903    1.8194 C   0  0  1  0  0  0  0  0  0  0  0  0
   -1.0922    1.3183    2.7636 C   0  0  0  0  0  0  0  0  0  0  0  0
    0.3888    1.5509    3.0143 C   0  0  1  0  0  0  0  0  0  0  0  0
    0.6055    2.9657    3.5500 C   0  0  1  0  0  0  0  0  0  0  0  0
    2.0722    3.2899    3.7689 C   0  0  0  0  0  0  0  0  0  0  0  0
   -3.0615    2.2266    1.5400 N   0  3  0  0  0  0  0  0  0  0  0  0
    2.7810    3.4947    2.4831 N   0  3  0  0  0  0  0  0  0  0  0  0
   -1.9828    3.9690    3.5831 O   0  0  0  0  0  0  0  0  0  0  0  0
    0.8782    0.5991    3.9478 O   0  0  0  0  0  0  0  0  0  0  0  0
    0.0887    3.9365    2.6140 O   0  0  0  0  0  0  0  0  0  0  0  0
  1  2  1  0  0  0  0
  1 10  1  0  0  0  0
  1 21  1  1  0  0  0
  2  3  1  0  0  0  0
  2  7  1  1  0  0  0
  3  4  1  0  0  0  0
  3  8  1  6  0  0  0
  4  5  1  0  0  0  0
  4  9  1  1  0  0  0
  5  6  1  6  0  0  0
  5 10  1  0  0  0  0
  6 11  1  0  0  0  0
 12 13  1  0  0  0  0
 12 17  1  0  0  0  0
 12 18  1  6  0  0  0
 13 14  1  0  0  0  0
 14 15  1  0  0  0  0
 14 19  1  6  0  0  0
 15 16  1  0  0  0  0
 15 30  1  1  0  0  0
 16 17  1  0  0  0  0
 16 20  1  6  0  0  0
 17 21  1  1  0  0  0
 22 23  1  0  0  0  0
 22 30  1  1  0  0  0
 22 32  1  0  0  0  0
 23 24  1  0  0  0  0
 23 28  1  1  0  0  0
 24 25  1  0  0  0  0
 25 26  1  0  0  0  0
 25 31  1  1  0  0  0
 26 27  1  6  0  0  0
 26 32  1  0  0  0  0
 27 29  1  0  0  0  0
M  CHG  5   8   1  18   1  19   1  28   1  29   1
M  END
>  <CHROM.1>
-146.24186583,171.81245898,60.64774772,59.75132495,62.69915929,177.93375585
170.73377902,125.62054007,-154.39857231,-175.31953804,96.75111787,-140.31198886
31.17963836,-64.10492410,73.10568668,-72.85694870,-3.81842005,5.46024247
2.52406353,-3.13249236,0.58635488,-2.01543360

>  <Name>
1tob

>  <RI>
0

>  <Rbt.Current_Directory>
/home/itssahil/PROJECTS/Mol_Feturizer/New_Systems/rnas/1tob

>  <Rbt.Executable>
rbdock ($Id: //depot/dev/client3/rdock/2013.1/src/exe/rbdock.cxx#4 $)

>  <Rbt.Library>
libRbt.so (2013.1, Build901 2013/11/27)

>  <Rbt.Parameter_File>
/export/apps/rDock/src/rDock_2013.1_src/data/scripts/dock_solv.prm

>  <Rbt.Receptor>
prm/pocket_docking_7.prm

>  <SCORE>
-46.8274

>  <SCORE.INTER>
-42.2309

>  <SCORE.INTER.CONST>
1

>  <SCORE.INTER.POLAR>
-6.05176

>  <SCORE.INTER.ROT>
6

>  <SCORE.INTER.SOLV>
31.3138

>  <SCORE.INTER.VDW>
-26.0193

>  <SCORE.INTER.norm>
-1.31972

>  <SCORE.INTRA>
-4.59653

>  <SCORE.INTRA.DIHEDRAL>
1.37333

>  <SCORE.INTRA.DIHEDRAL.0>
22.9177

>  <SCORE.INTRA.POLAR>
-2.08618

>  <SCORE.INTRA.POLAR.0>
-0.311208

>  <SCORE.INTRA.REPUL>
0

>  <SCORE.INTRA.REPUL.0>
0

>  <SCORE.INTRA.SOLV>
0.402738

>  <SCORE.INTRA.SOLV.lig_0>
-132.657

>  <SCORE.INTRA.VDW>
1.60844

>  <SCORE.INTRA.VDW.0>
-4.68867

>  <SCORE.INTRA.norm>
-0.143642

>  <SCORE.RESTR>
0

>  <SCORE.RESTR.CAVITY>
0

>  <SCORE.RESTR.norm>
0

>  <SCORE.SYSTEM>
0

>  <SCORE.SYSTEM.CONST>
0

>  <SCORE.SYSTEM.DIHEDRAL>
0

>  <SCORE.SYSTEM.SOLV>
0

>  <SCORE.SYSTEM.norm>
0

>  <SCORE.heavy>
32

>  <SCORE.norm>
-1.46336

>  <RMSD>
8.877

$$$$
1tob
 OpenBabel11021811413D
libRbt.so/2013.1/901 2013/11/27
 32 34  0  0  0  0  0  0  0  0999 V2000
   -5.5934    4.5789    1.6340 C   0  0  2  0  0  0  0  0  0  0  0  0
   -5.7244    3.7108    0.3848 C   0  0  1  0  0  0  0  0  0  0  0  0
   -6.2885    4.5414   -0.7598 C   0  0  2  0  0  0  0  0  0  0  0  0
   -7.6098    5.1661   -0.3283 C   0  0  1  0  0  0  0  0  0  0  0  0
   -7.4062    5.9811    0.9459 C   0  0  1  0  0  0  0  0  0  0  0  0
   -8.7028    6.5666    1.4699 C   0  0  0  0  0  0  0  0  0  0  0  0
   -4.4506    3.1978    0.0218 O   0  0  0  0  0  0  0  0  0  0  0  0
   -6.4362    3.7287   -1.9867 N   0  3  0  0  0  0  0  0  0  0  0  0
   -8.1097    5.9986   -1.3661 O   0  0  0  0  0  0  0  0  0  0  0  0
   -6.8626    5.1424    1.9881 O   0  0  0  0  0  0  0  0  0  0  0  0
   -8.4735    7.4291    2.5752 O   0  0  0  0  0  0  0  0  0  0  0  0
   -4.0347    6.2001    3.6550 C   0  0  2  0  0  0  0  0  0  0  0  0
   -2.8448    6.2438    4.6039 C   0  0  0  0  0  0  0  0  0  0  0  0
   -2.2455    4.8476    4.7743 C   0  0  1  0  0  0  0  0  0  0  0  0
   -1.7886    4.3148    3.4181 C   0  0  2  0  0  0  0  0  0  0  0  0
   -2.9706    4.2713    2.4484 C   0  0  1  0  0  0  0  0  0  0  0  0
   -3.5840    5.6638    2.3049 C   0  0  1  0  0  0  0  0  0  0  0  0
   -4.5984    7.5539    3.4604 N   0  3  0  0  0  0  0  0  0  0  0  0
   -1.1404    4.8897    5.7667 N   0  3  0  0  0  0  0  0  0  0  0  0
   -2.5357    3.8014    1.1795 O   0  0  0  0  0  0  0  0  0  0  0  0
   -4.7053    5.6131    1.4044 O   0  0  0  0  0  0  0  0  0  0  0  0
   -0.8876    2.3426    2.3874 C   0  0  1  0  0  0  0  0  0  0  0  0
   -0.4840    0.8964    2.6801 C   0  0  1  0  0  0  0  0  0  0  0  0
    0.7608    0.8628    3.5539 C   0  0  0  0  0  0  0  0  0  0  0  0
    1.8656    1.6624    2.8828 C   0  0  1  0  0  0  0  0  0  0  0  0
    1.3780    3.0839    2.6050 C   0  0  1  0  0  0  0  0  0  0  0  0
    2.4125    3.9260    1.8805 C   0  0  0  0  0  0  0  0  0  0  0  0
   -1.6069    0.1406    3.2837 N   0  3  0  0  0  0  0  0  0  0  0  0
    3.6785    4.0095    2.6473 N   0  3  0  0  0  0  0  0  0  0  0  0
   -1.2252    2.9953    3.5656 O   0  0  0  0  0  0  0  0  0  0  0  0
    3.0140    1.6986    3.7175 O   0  0  0  0  0  0  0  0  0  0  0  0
    0.1968    3.0512    1.7749 O   0  0  0  0  0  0  0  0  0  0  0  0
  1  2  1  0  0  0  0
  1 10  1  0  0  0  0
  1 21  1  6  0  0  0
  2  3  1  0  0  0  0
  2  7  1  6  0  0  0
  3  4  1  0  0  0  0
  3  8  1  6  0  0  0
  4  5  1  0  0  0  0
  4  9  1  6  0  0  0
  5  6  1  1  0  0  0
  5 10  1  0  0  0  0
  6 11  1  0  0  0  0
 12 13  1  0  0  0  0
 12 17  1  0  0  0  0
 12 18  1  6  0  0  0
 13 14  1  0  0  0  0
 14 15  1  0  0  0  0
 14 19  1  1  0  0  0
 15 16  1  0  0  0  0
 15 30  1  1  0  0  0
 16 17  1  0  0  0  0
 16 20  1  6  0  0  0
 17 21  1  6  0  0  0
 22 23  1  0  0  0  0
 22 30  1  1  0  0  0
 22 32  1  0  0  0  0
 23 24  1  0  0  0  0
 23 28  1  1  0  0  0
 24 25  1  0  0  0  0
 25 26  1  0  0  0  0
 25 31  1  1  0  0  0
 26 27  1  6  0  0  0
 26 32  1  0  0  0  0
 27 29  1  0  0  0  0
M  CHG  5   8   1  18   1  19   1  28   1  29   1
M  END
>  <CHROM.1>
-122.18607938,-79.49887241,50.95753393,-59.10765324,-174.11058110,-66.60451324
57.03096936,-108.81435446,174.02085740,-55.98327205,-75.29583124,-172.36865639
60.75821346,64.48384370,-57.98000381,40.57075981,-3.02206006,4.19865369,2.13335097
3.11600078,-0.44655319,0.85136676

>  <Name>
1tob

>  <RI>
0

>  <Rbt.Current_Directory>
/home/itssahil/PROJECTS/Mol_Feturizer/New_Systems/rnas/1tob

>  <Rbt.Executable>
rbdock ($Id: //depot/dev/client3/rdock/2013.1/src/exe/rbdock.cxx#4 $)

>  <Rbt.Library>
libRbt.so (2013.1, Build901 2013/11/27)

>  <Rbt.Parameter_File>
/export/apps/rDock/src/rDock_2013.1_src/data/scripts/dock_solv.prm

>  <Rbt.Receptor>
prm/blind_docking_100.prm

>  <SCORE>
-35.3077

>  <SCORE.INTER>
-42.5565

>  <SCORE.INTER.CONST>
1

>  <SCORE.INTER.POLAR>
-6.14772

>  <SCORE.INTER.ROT>
6

>  <SCORE.INTER.SOLV>
40.1643

>  <SCORE.INTER.VDW>
-28.8667

>  <SCORE.INTER.norm>
-1.32989

>  <SCORE.INTRA>
-0.437973

>  <SCORE.INTRA.DIHEDRAL>
-7.47022

>  <SCORE.INTRA.DIHEDRAL.0>
22.9177

>  <SCORE.INTRA.POLAR>
-0.57662

>  <SCORE.INTRA.POLAR.0>
-0.311208

>  <SCORE.INTRA.REPUL>
0

>  <SCORE.INTRA.REPUL.0>
0

>  <SCORE.INTRA.SOLV>
-3.67811

>  <SCORE.INTRA.SOLV.lig_0>
-132.657

>  <SCORE.INTRA.VDW>
7.0967

>  <SCORE.INTRA.VDW.0>
-4.68867

>  <SCORE.INTRA.norm>
-0.0136866

>  <SCORE.RESTR>
7.68677

>  <SCORE.RESTR.CAVITY>
7.68677

>  <SCORE.RESTR.norm>
0.240212

>  <SCORE.SYSTEM>
0

>  <SCORE.SYSTEM.CONST>
0

>  <SCORE.SYSTEM.DIHEDRAL>
0

>  <SCORE.SYSTEM.SOLV>
0

>  <SCORE.SYSTEM.norm>
0

>  <SCORE.heavy>
32

>  <SCORE.norm>
-1.10337

>  <RMSD>
8.882

$$$$
1tob
 OpenBabel11021811413D
libRbt.so/2013.1/901 2013/11/27
 32 34  0  0  0  0  0  0  0  0999 V2000
   -5.5774    4.8898    1.9917 C   0  0  2  0  0  0  0  0  0  0  0  0
   -5.6832    3.9363    0.8039 C   0  0  1  0  0  0  0  0  0  0  0  0
   -6.2160    4.6860   -0.4095 C   0  0  2  0  0  0  0  0  0  0  0  0
   -7.5440    5.3440   -0.0547 C   0  0  1  0  0  0  0  0  0  0  0  0
   -7.3665    6.2461    1.1635 C   0  0  1  0  0  0  0  0  0  0  0  0
   -8.6721    6.8713    1.6139 C   0  0  0  0  0  0  0  0  0  0  0  0
   -4.4038    3.3948    0.5084 O   0  0  0  0  0  0  0  0  0  0  0  0
   -6.3388    3.7894   -1.5793 N   0  3  0  0  0  0  0  0  0  0  0  0
   -8.0151    6.1030   -1.1601 O   0  0  0  0  0  0  0  0  0  0  0  0
   -6.8518    5.4811    2.2749 O   0  0  0  0  0  0  0  0  0  0  0  0
   -9.2474    6.1502    2.6942 O   0  0  0  0  0  0  0  0  0  0  0  0
   -4.1066    6.2805    4.0325 C   0  0  2  0  0  0  0  0  0  0  0  0
   -2.9371    6.3879    5.0014 C   0  0  0  0  0  0  0  0  0  0  0  0
   -2.1175    5.0972    4.9949 C   0  0  1  0  0  0  0  0  0  0  0  0
   -1.5837    4.8339    3.5886 C   0  0  2  0  0  0  0  0  0  0  0  0
   -2.7455    4.7309    2.5993 C   0  0  1  0  0  0  0  0  0  0  0  0
   -3.5784    6.0119    2.6318 C   0  0  1  0  0  0  0  0  0  0  0  0
   -4.8843    7.5387    4.0101 N   0  3  0  0  0  0  0  0  0  0  0  0
   -1.0311    5.1834    6.0051 N   0  3  0  0  0  0  0  0  0  0  0  0
   -2.2435    4.5137    1.2875 O   0  0  0  0  0  0  0  0  0  0  0  0
   -4.6790    5.9023    1.7112 O   0  0  0  0  0  0  0  0  0  0  0  0
   -0.4880    3.1206    2.3127 C   0  0  1  0  0  0  0  0  0  0  0  0
   -1.0606    1.7134    2.1341 C   0  0  1  0  0  0  0  0  0  0  0  0
   -0.4351    0.7581    3.1393 C   0  0  0  0  0  0  0  0  0  0  0  0
    1.0778    0.8047    3.0002 C   0  0  1  0  0  0  0  0  0  0  0  0
    1.5676    2.2424    3.1690 C   0  0  1  0  0  0  0  0  0  0  0  0
    3.0684    2.3746    2.9839 C   0  0  0  0  0  0  0  0  0  0  0  0
   -2.5399    1.7236    2.2238 N   0  3  0  0  0  0  0  0  0  0  0  0
    3.4585    3.7751    2.6938 N   0  3  0  0  0  0  0  0  0  0  0  0
   -0.8120    3.6155    3.5689 O   0  0  0  0  0  0  0  0  0  0  0  0
    1.6808   -0.0306    3.9777 O   0  0  0  0  0  0  0  0  0  0  0  0
    0.9396    3.0998    2.1913 O   0  0  0  0  0  0  0  0  0  0  0  0
  1  2  1  0  0  0  0
  1 10  1  0  0  0  0
  1 21  1  6  0  0  0
  2  3  1  0  0  0  0
  2  7  1  6  0  0  0
  3  4  1  0  0  0  0
  3  8  1  6  0  0  0
  4  5  1  0  0  0  0
  4  9  1  6  0  0  0
  5  6  1  1  0  0  0
  5 10  1  0  0  0  0
  6 11  1  0  0  0  0
 12 13  1  0  0  0  0
 12 17  1  0  0  0  0
 12 18  1  6  0  0  0
 13 14  1  0  0  0  0
 14 15  1  0  0  0  0
 14 19  1  1  0  0  0
 15 16  1  0  0  0  0
 15 30  1  1  0  0  0
 16 17  1  0  0  0  0
 16 20  1  6  0  0  0
 17 21  1  6  0  0  0
 22 23  1  0  0  0  0
 22 30  1  1  0  0  0
 22 32  1  0  0  0  0
 23 24  1  0  0  0  0
 23 28  1  1  0  0  0
 24 25  1  0  0  0  0
 25 26  1  0  0  0  0
 25 31  1  1  0  0  0
 26 27  1  6  0  0  0
 26 32  1  0  0  0  0
 27 29  1  0  0  0  0
M  CHG  5   8   1  18   1  19   1  28   1  29   1
M  END
>  <CHROM.1>
-122.13480905,156.33404662,-176.61891316,-49.75402130,98.06137901,73.49639398
67.79166013,113.98136033,167.91297769,176.06092190,-60.05863627,-120.39876727
-175.92343939,-178.78682803,160.68874164,-39.37853038,-3.11040795,4.27079278
2.33047255,3.08192089,-0.45122886,0.85962379

>  <Name>
1tob

>  <RI>
0

>  <Rbt.Current_Directory>
/home/itssahil/PROJECTS/Mol_Feturizer/New_Systems/rnas/1tob

>  <Rbt.Executable>
rbdock ($Id: //depot/dev/client3/rdock/2013.1/src/exe/rbdock.cxx#4 $)

>  <Rbt.Library>
libRbt.so (2013.1, Build901 2013/11/27)

>  <Rbt.Parameter_File>
/export/apps/rDock/src/rDock_2013.1_src/data/scripts/dock_solv.prm

>  <Rbt.Receptor>
prm/blind_docking_20.prm

>  <SCORE>
-40.929

>  <SCORE.INTER>
-49.6612

>  <SCORE.INTER.CONST>
1

>  <SCORE.INTER.POLAR>
-6.06276

>  <SCORE.INTER.ROT>
6

>  <SCORE.INTER.SOLV>
37.3328

>  <SCORE.INTER.VDW>
-32.9425

>  <SCORE.INTER.norm>
-1.55191

>  <SCORE.INTRA>
2.68624

>  <SCORE.INTRA.DIHEDRAL>
5.75895

>  <SCORE.INTRA.DIHEDRAL.0>
22.9177

>  <SCORE.INTRA.POLAR>
-1.76941

>  <SCORE.INTRA.POLAR.0>
-0.311208

>  <SCORE.INTRA.REPUL>
0

>  <SCORE.INTRA.REPUL.0>
0

>  <SCORE.INTRA.SOLV>
0.502929

>  <SCORE.INTRA.SOLV.lig_0>
-132.657

>  <SCORE.INTRA.VDW>
5.57129

>  <SCORE.INTRA.VDW.0>
-4.68867

>  <SCORE.INTRA.norm>
0.0839449

>  <SCORE.RESTR>
6.04597

>  <SCORE.RESTR.CAVITY>
6.04597

>  <SCORE.RESTR.norm>
0.188936

>  <SCORE.SYSTEM>
0

>  <SCORE.SYSTEM.CONST>
0

>  <SCORE.SYSTEM.DIHEDRAL>
0

>  <SCORE.SYSTEM.SOLV>
0

>  <SCORE.SYSTEM.norm>
0

>  <SCORE.heavy>
32

>  <SCORE.norm>
-1.27903

>  <RMSD>
8.882

$$$$
1tob
 OpenBabel11021811413D
libRbt.so/2013.1/901 2013/11/27
 32 34  0  0  0  0  0  0  0  0999 V2000
   -5.5424    4.7769    2.0393 C   0  0  2  0  0  0  0  0  0  0  0  0
   -5.6819    3.9101    0.7902 C   0  0  1  0  0  0  0  0  0  0  0  0
   -6.3162    4.7232   -0.3300 C   0  0  2  0  0  0  0  0  0  0  0  0
   -7.6454    5.2941    0.1495 C   0  0  1  0  0  0  0  0  0  0  0  0
   -7.4305    6.1106    1.4208 C   0  0  1  0  0  0  0  0  0  0  0  0
   -8.7304    6.6428    1.9916 C   0  0  0  0  0  0  0  0  0  0  0  0
   -4.4022    3.4487    0.3815 O   0  0  0  0  0  0  0  0  0  0  0  0
   -6.4738    3.9109   -1.5558 N   0  3  0  0  0  0  0  0  0  0  0  0
   -8.2121    6.1112   -0.8660 O   0  0  0  0  0  0  0  0  0  0  0  0
   -6.8198    5.2890    2.4393 O   0  0  0  0  0  0  0  0  0  0  0  0
   -9.4599    5.6230    2.6593 O   0  0  0  0  0  0  0  0  0  0  0  0
   -4.1853    6.1022    4.1366 C   0  0  2  0  0  0  0  0  0  0  0  0
   -3.0389    6.2680    5.1247 C   0  0  0  0  0  0  0  0  0  0  0  0
   -2.0732    5.0869    5.0261 C   0  0  1  0  0  0  0  0  0  0  0  0
   -1.5086    5.0008    3.6098 C   0  0  2  0  0  0  0  0  0  0  0  0
   -2.6478    4.8418    2.6017 C   0  0  1  0  0  0  0  0  0  0  0  0
   -3.6256    6.0098    2.7253 C   0  0  1  0  0  0  0  0  0  0  0  0
   -5.1055    7.2585    4.2043 N   0  3  0  0  0  0  0  0  0  0  0  0
   -1.0070    5.2187    6.0527 N   0  3  0  0  0  0  0  0  0  0  0  0
   -2.1204    4.7901    1.2829 O   0  0  0  0  0  0  0  0  0  0  0  0
   -4.7034    5.8459    1.7860 O   0  0  0  0  0  0  0  0  0  0  0  0
   -0.1275    3.6058    2.2277 C   0  0  1  0  0  0  0  0  0  0  0  0
   -0.1803    2.1001    1.9632 C   0  0  1  0  0  0  0  0  0  0  0  0
    0.7389    1.3630    2.9256 C   0  0  0  0  0  0  0  0  0  0  0  0
    2.1426    1.9356    2.8152 C   0  0  1  0  0  0  0  0  0  0  0  0
    2.1070    3.4420    3.0702 C   0  0  1  0  0  0  0  0  0  0  0  0
    3.4698    4.0932    2.9184 C   0  0  0  0  0  0  0  0  0  0  0  0
   -1.5721    1.5951    2.0279 N   0  3  0  0  0  0  0  0  0  0  0  0
    4.0274    3.8759    1.5621 N   0  3  0  0  0  0  0  0  0  0  0  0
   -0.5989    3.8865    3.5032 O   0  0  0  0  0  0  0  0  0  0  0  0
    2.9991    1.3049    3.7562 O   0  0  0  0  0  0  0  0  0  0  0  0
    1.2194    4.0848    2.1299 O   0  0  0  0  0  0  0  0  0  0  0  0
  1  2  1  0  0  0  0
  1 10  1  0  0  0  0
  1 21  1  6  0  0  0
  2  3  1  0  0  0  0
  2  7  1  6  0  0  0
  3  4  1  0  0  0  0
  3  8  1  6  0  0  0
  4  5  1  0  0  0  0
  4  9  1  6  0  0  0
  5  6  1  1  0  0  0
  5 10  1  0  0  0  0
  6 11  1  0  0  0  0
 12 13  1  0  0  0  0
 12 17  1  0  0  0  0
 12 18  1  6  0  0  0
 13 14  1  0  0  0  0
 14 15  1  0  0  0  0
 14 19  1  1  0  0  0
 15 16  1  0  0  0  0
 15 30  1  1  0  0  0
 16 17  1  0  0  0  0
 16 20  1  6  0  0  0
 17 21  1  6  0  0  0
 22 23  1  0  0  0  0
 22 30  1  1  0  0  0
 22 32  1  0  0  0  0
 23 24  1  0  0  0  0
 23 28  1  1  0  0  0
 24 25  1  0  0  0  0
 25 26  1  0  0  0  0
 25 31  1  1  0  0  0
 26 27  1  6  0  0  0
 26 32  1  0  0  0  0
 27 29  1  0  0  0  0
M  CHG  5   8   1  18   1  19   1  28   1  29   1
M  END
>  <CHROM.1>
-127.79796073,144.23276197,-177.40338148,72.17568234,76.29576438,178.67992254
26.67547933,-150.86568884,173.14801194,-67.57084229,-55.02953100,-135.33050838
61.71229083,67.25157353,58.62149330,-168.13368931,-2.90132880,4.47653703
2.30437092,-3.11793028,-0.32573941,1.03461981

>  <Name>
1tob

>  <RI>
0

>  <Rbt.Current_Directory>
/home/itssahil/PROJECTS/Mol_Feturizer/New_Systems/rnas/1tob

>  <Rbt.Executable>
rbdock ($Id: //depot/dev/client3/rdock/2013.1/src/exe/rbdock.cxx#4 $)

>  <Rbt.Library>
libRbt.so (2013.1, Build901 2013/11/27)

>  <Rbt.Parameter_File>
/export/apps/rDock/src/rDock_2013.1_src/data/scripts/dock_solv.prm

>  <Rbt.Receptor>
prm/blind_docking_80.prm

>  <SCORE>
-33.4546

>  <SCORE.INTER>
-42.6684

>  <SCORE.INTER.CONST>
1

>  <SCORE.INTER.POLAR>
-5.1263

>  <SCORE.INTER.ROT>
6

>  <SCORE.INTER.SOLV>
41.1772

>  <SCORE.INTER.VDW>
-32.6836

>  <SCORE.INTER.norm>
-1.33339

>  <SCORE.INTRA>
5.43398

>  <SCORE.INTRA.DIHEDRAL>
1.35382

>  <SCORE.INTRA.DIHEDRAL.0>
22.9177

>  <SCORE.INTRA.POLAR>
0.276076

>  <SCORE.INTRA.POLAR.0>
-0.311208

>  <SCORE.INTRA.REPUL>
0.028497

>  <SCORE.INTRA.REPUL.0>
0

>  <SCORE.INTRA.SOLV>
-0.543407

>  <SCORE.INTRA.SOLV.lig_0>
-132.657

>  <SCORE.INTRA.VDW>
3.94763

>  <SCORE.INTRA.VDW.0>
-4.68867

>  <SCORE.INTRA.norm>
0.169812

>  <SCORE.RESTR>
3.77985

>  <SCORE.RESTR.CAVITY>
3.77985

>  <SCORE.RESTR.norm>
0.11812

>  <SCORE.SYSTEM>
0

>  <SCORE.SYSTEM.CONST>
0

>  <SCORE.SYSTEM.DIHEDRAL>
0

>  <SCORE.SYSTEM.SOLV>
0

>  <SCORE.SYSTEM.norm>
0

>  <SCORE.heavy>
32

>  <SCORE.norm>
-1.04546

>  <RMSD>
8.885

$$$$
1tob
 OpenBabel11021811413D
libRbt.so/2013.1/901 2013/11/27
 32 34  0  0  0  0  0  0  0  0999 V2000
   -6.6416    8.2192    2.6790 C   0  0  2  0  0  0  0  0  0  0  0  0
   -6.2333    9.6558    2.9961 C   0  0  1  0  0  0  0  0  0  0  0  0
   -7.0686   10.1824    4.1551 C   0  0  2  0  0  0  0  0  0  0  0  0
   -8.5480   10.0455    3.8157 C   0  0  1  0  0  0  0  0  0  0  0  0
   -8.8686    8.5938    3.4706 C   0  0  1  0  0  0  0  0  0  0  0  0
  -10.3125    8.4062    3.0482 C   0  0  0  0  0  0  0  0  0  0  0  0
   -4.8559    9.6978    3.3407 O   0  0  0  0  0  0  0  0  0  0  0  0
   -6.7043   11.5772    4.4853 N   0  3  0  0  0  0  0  0  0  0  0  0
   -9.3359   10.4708    4.9194 O   0  0  0  0  0  0  0  0  0  0  0  0
   -8.0402    8.1514    2.3737 O   0  0  0  0  0  0  0  0  0  0  0  0
  -10.6078    7.0386    2.8023 O   0  0  0  0  0  0  0  0  0  0  0  0
   -4.8178    7.3616    5.6041 C   0  0  2  0  0  0  0  0  0  0  0  0
   -3.3458    7.1822    5.9495 C   0  0  0  0  0  0  0  0  0  0  0  0
   -2.8480    5.8170    5.4744 C   0  0  1  0  0  0  0  0  0  0  0  0
   -3.0281    5.7012    3.9625 C   0  0  2  0  0  0  0  0  0  0  0  0
   -4.5013    5.8869    3.5958 C   0  0  1  0  0  0  0  0  0  0  0  0
   -5.0014    7.2405    4.0992 C   0  0  1  0  0  0  0  0  0  0  0  0
   -5.2967    8.6942    6.0320 N   0  3  0  0  0  0  0  0  0  0  0  0
   -1.4355    5.6208    5.8922 N   0  3  0  0  0  0  0  0  0  0  0  0
   -4.6608    5.8063    2.1858 O   0  0  0  0  0  0  0  0  0  0  0  0
   -6.3919    7.4021    3.7657 O   0  0  0  0  0  0  0  0  0  0  0  0
   -2.2266    4.3343    2.1588 C   0  0  1  0  0  0  0  0  0  0  0  0
   -2.5870    2.9554    1.6032 C   0  0  1  0  0  0  0  0  0  0  0  0
   -1.7802    1.8754    2.3082 C   0  0  0  0  0  0  0  0  0  0  0  0
   -0.2995    2.1958    2.1851 C   0  0  1  0  0  0  0  0  0  0  0  0
   -0.0259    3.5933    2.7399 C   0  0  1  0  0  0  0  0  0  0  0  0
    1.4279    4.0054    2.5960 C   0  0  0  0  0  0  0  0  0  0  0  0
   -4.0454    2.7077    1.6941 N   0  3  0  0  0  0  0  0  0  0  0  0
    2.3005    3.2532    3.5290 N   0  3  0  0  0  0  0  0  0  0  0  0
   -2.5657    4.4145    3.5029 O   0  0  0  0  0  0  0  0  0  0  0  0
    0.4657    1.2338    2.8964 O   0  0  0  0  0  0  0  0  0  0  0  0
   -0.8191    4.5724    2.0345 O   0  0  0  0  0  0  0  0  0  0  0  0
  1  2  1  0  0  0  0
  1 10  1  0  0  0  0
  1 21  1  1  0  0  0
  2  3  1  0  0  0  0
  2  7  1  1  0  0  0
  3  4  1  0  0  0  0
  3  8  1  6  0  0  0
  4  5  1  0  0  0  0
  4  9  1  1  0  0  0
  5  6  1  6  0  0  0
  5 10  1  0  0  0  0
  6 11  1  0  0  0  0
 12 13  1  0  0  0  0
 12 17  1  0  0  0  0
 12 18  1  6  0  0  0
 13 14  1  0  0  0  0
 14 15  1  0  0  0  0
 14 19  1  6  0  0  0
 15 16  1  0  0  0  0
 15 30  1  1  0  0  0
 16 17  1  0  0  0  0
 16 20  1  6  0  0  0
 17 21  1  1  0  0  0
 22 23  1  0  0  0  0
 22 30  1  1  0  0  0
 22 32  1  0  0  0  0
 23 24  1  0  0  0  0
 23 28  1  1  0  0  0
 24 25  1  0  0  0  0
 25 26  1  0  0  0  0
 25 31  1  1  0  0  0
 26 27  1  6  0  0  0
 26 32  1  0  0  0  0
 27 29  1  0  0  0  0
M  CHG  5   8   1  18   1  19   1  28   1  29   1
M  END
>  <CHROM.1>
-65.95145535,64.06612653,56.00709571,-67.31945581,-176.80966087,61.85123254
-155.72758777,13.87218217,-158.09767685,-60.66618678,135.65265896,-145.21647403
-85.39176442,-49.99149003,-71.57438564,49.35337851,-4.33377244,6.37777303
3.51208982,2.53238477,-0.31006024,0.56570171

>  <Name>
1tob

>  <RI>
0

>  <Rbt.Current_Directory>
/home/itssahil/PROJECTS/Mol_Feturizer/New_Systems/rnas/1tob

>  <Rbt.Executable>
rbdock ($Id: //depot/dev/client3/rdock/2013.1/src/exe/rbdock.cxx#4 $)

>  <Rbt.Library>
libRbt.so (2013.1, Build901 2013/11/27)

>  <Rbt.Parameter_File>
/export/apps/rDock/src/rDock_2013.1_src/data/scripts/dock_solv.prm

>  <Rbt.Receptor>
prm/pocket_docking_4.prm

>  <SCORE>
-64.4398

>  <SCORE.INTER>
-60.0058

>  <SCORE.INTER.CONST>
1

>  <SCORE.INTER.POLAR>
-8.79478

>  <SCORE.INTER.ROT>
6

>  <SCORE.INTER.SOLV>
35.236

>  <SCORE.INTER.VDW>
-30.0332

>  <SCORE.INTER.norm>
-1.87518

>  <SCORE.INTRA>
-4.49416

>  <SCORE.INTRA.DIHEDRAL>
-2.37264

>  <SCORE.INTRA.DIHEDRAL.0>
22.9177

>  <SCORE.INTRA.POLAR>
-1.99175

>  <SCORE.INTRA.POLAR.0>
-0.311208

>  <SCORE.INTRA.REPUL>
0

>  <SCORE.INTRA.REPUL.0>
0

>  <SCORE.INTRA.SOLV>
2.60055

>  <SCORE.INTRA.SOLV.lig_0>
-132.657

>  <SCORE.INTRA.VDW>
2.16385

>  <SCORE.INTRA.VDW.0>
-4.68867

>  <SCORE.INTRA.norm>
-0.140443

>  <SCORE.RESTR>
0.0600953

>  <SCORE.RESTR.CAVITY>
0.0600953

>  <SCORE.RESTR.norm>
0.00187798

>  <SCORE.SYSTEM>
0

>  <SCORE.SYSTEM.CONST>
0

>  <SCORE.SYSTEM.DIHEDRAL>
0

>  <SCORE.SYSTEM.SOLV>
0

>  <SCORE.SYSTEM.norm>
0

>  <SCORE.heavy>
32

>  <SCORE.norm>
-2.01374

>  <RMSD>
8.886

$$$$
1tob
 OpenBabel11021811413D
libRbt.so/2013.1/901 2013/11/27
 32 34  0  0  0  0  0  0  0  0999 V2000
   -7.5203    7.7654    1.8514 C   0  0  2  0  0  0  0  0  0  0  0  0
   -7.3898    9.2338    1.4538 C   0  0  1  0  0  0  0  0  0  0  0  0
   -8.3619   10.0744    2.2704 C   0  0  2  0  0  0  0  0  0  0  0  0
   -9.7747    9.5325    2.0897 C   0  0  1  0  0  0  0  0  0  0  0  0
   -9.8149    8.0539    2.4660 C   0  0  1  0  0  0  0  0  0  0  0  0
  -11.1798    7.4361    2.2338 C   0  0  0  0  0  0  0  0  0  0  0  0
   -6.0606    9.6772    1.6868 O   0  0  0  0  0  0  0  0  0  0  0  0
   -8.2678   11.5045    1.9054 N   0  3  0  0  0  0  0  0  0  0  0  0
  -10.6795   10.2682    2.9022 O   0  0  0  0  0  0  0  0  0  0  0  0
   -8.8678    7.3138    1.6659 O   0  0  0  0  0  0  0  0  0  0  0  0
  -12.1505    7.9736    3.1210 O   0  0  0  0  0  0  0  0  0  0  0  0
   -5.5150    7.6763    4.9336 C   0  0  2  0  0  0  0  0  0  0  0  0
   -4.0212    7.5612    5.2048 C   0  0  0  0  0  0  0  0  0  0  0  0
   -3.4980    6.2000    4.7458 C   0  0  1  0  0  0  0  0  0  0  0  0
   -3.7528    6.0286    3.2499 C   0  0  2  0  0  0  0  0  0  0  0  0
   -5.2492    6.1492    2.9574 C   0  0  1  0  0  0  0  0  0  0  0  0
   -5.7727    7.4997    3.4451 C   0  0  1  0  0  0  0  0  0  0  0  0
   -6.0205    9.0041    5.3456 N   0  3  0  0  0  0  0  0  0  0  0  0
   -2.0592    6.0683    5.0930 N   0  3  0  0  0  0  0  0  0  0  0  0
   -5.4793    6.0171    1.5611 O   0  0  0  0  0  0  0  0  0  0  0  0
   -7.1839    7.6004    3.1819 O   0  0  0  0  0  0  0  0  0  0  0  0
   -2.5034    4.7515    1.6463 C   0  0  1  0  0  0  0  0  0  0  0  0
   -2.8002    3.5056    0.8098 C   0  0  1  0  0  0  0  0  0  0  0  0
   -2.4012    2.2511    1.5723 C   0  0  0  0  0  0  0  0  0  0  0  0
   -0.9411    2.3567    1.9812 C   0  0  1  0  0  0  0  0  0  0  0  0
   -0.7231    3.6339    2.7916 C   0  0  1  0  0  0  0  0  0  0  0  0
    0.7288    3.8359    3.1857 C   0  0  0  0  0  0  0  0  0  0  0  0
   -4.2207    3.4713    0.3887 N   0  3  0  0  0  0  0  0  0  0  0  0
    1.6323    3.7012    2.0181 N   0  3  0  0  0  0  0  0  0  0  0  0
   -3.2672    4.7451    2.8059 O   0  0  0  0  0  0  0  0  0  0  0  0
   -0.5704    1.2238    2.7533 O   0  0  0  0  0  0  0  0  0  0  0  0
   -1.1201    4.7872    2.0185 O   0  0  0  0  0  0  0  0  0  0  0  0
  1  2  1  0  0  0  0
  1 10  1  0  0  0  0
  1 21  1  1  0  0  0
  2  3  1  0  0  0  0
  2  7  1  1  0  0  0
  3  4  1  0  0  0  0
  3  8  1  6  0  0  0
  4  5  1  0  0  0  0
  4  9  1  1  0  0  0
  5  6  1  6  0  0  0
  5 10  1  0  0  0  0
  6 11  1  0  0  0  0
 12 13  1  0  0  0  0
 12 17  1  0  0  0  0
 12 18  1  6  0  0  0
 13 14  1  0  0  0  0
 14 15  1  0  0  0  0
 14 19  1  6  0  0  0
 15 16  1  0  0  0  0
 15 30  1  1  0  0  0
 16 17  1  0  0  0  0
 16 20  1  6  0  0  0
 17 21  1  1  0  0  0
 22 23  1  0  0  0  0
 22 30  1  1  0  0  0
 22 32  1  0  0  0  0
 23 24  1  0  0  0  0
 23 28  1  1  0  0  0
 24 25  1  0  0  0  0
 25 26  1  0  0  0  0
 25 31  1  1  0  0  0
 26 27  1  6  0  0  0
 26 32  1  0  0  0  0
 27 29  1  0  0  0  0
M  CHG  5   8   1  18   1  19   1  28   1  29   1
M  END
>  <CHROM.1>
-82.24940400,64.04119531,69.35086781,-173.05645767,-67.19525425,-65.21054445
-102.20868457,22.47178879,-132.91713199,-56.59105064,165.74956380,-143.29314452
-140.46002901,64.16206086,50.35719099,27.93455784,-5.15935040,6.48311968
2.66113898,2.65084006,-0.33895488,0.58096654

>  <Name>
1tob

>  <RI>
0

>  <Rbt.Current_Directory>
/home/itssahil/PROJECTS/Mol_Feturizer/New_Systems/rnas/1tob

>  <Rbt.Executable>
rbdock ($Id: //depot/dev/client3/rdock/2013.1/src/exe/rbdock.cxx#4 $)

>  <Rbt.Library>
libRbt.so (2013.1, Build901 2013/11/27)

>  <Rbt.Parameter_File>
/export/apps/rDock/src/rDock_2013.1_src/data/scripts/dock_solv.prm

>  <Rbt.Receptor>
prm/pocket_docking_5.prm

>  <SCORE>
-50.6361

>  <SCORE.INTER>
-49.3542

>  <SCORE.INTER.CONST>
1

>  <SCORE.INTER.POLAR>
-6.91344

>  <SCORE.INTER.ROT>
6

>  <SCORE.INTER.SOLV>
30.783

>  <SCORE.INTER.VDW>
-27.719

>  <SCORE.INTER.norm>
-1.54232

>  <SCORE.INTRA>
-1.28198

>  <SCORE.INTRA.DIHEDRAL>
2.63844

>  <SCORE.INTRA.DIHEDRAL.0>
22.9177

>  <SCORE.INTRA.POLAR>
-1.33037

>  <SCORE.INTRA.POLAR.0>
-0.311208

>  <SCORE.INTRA.REPUL>
0.0125101

>  <SCORE.INTRA.REPUL.0>
0

>  <SCORE.INTRA.SOLV>
-0.275696

>  <SCORE.INTRA.SOLV.lig_0>
-132.657

>  <SCORE.INTRA.VDW>
1.99736

>  <SCORE.INTRA.VDW.0>
-4.68867

>  <SCORE.INTRA.norm>
-0.0400618

>  <SCORE.RESTR>
0

>  <SCORE.RESTR.CAVITY>
0

>  <SCORE.RESTR.norm>
0

>  <SCORE.SYSTEM>
0

>  <SCORE.SYSTEM.CONST>
0

>  <SCORE.SYSTEM.DIHEDRAL>
0

>  <SCORE.SYSTEM.SOLV>
0

>  <SCORE.SYSTEM.norm>
0

>  <SCORE.heavy>
32

>  <SCORE.norm>
-1.58238

>  <RMSD>
8.887

$$$$
1tob
 OpenBabel11021811413D
libRbt.so/2013.1/901 2013/11/27
 32 34  0  0  0  0  0  0  0  0999 V2000
   -5.2251    4.3710    1.6731 C   0  0  2  0  0  0  0  0  0  0  0  0
   -5.3470    3.5694    0.3793 C   0  0  1  0  0  0  0  0  0  0  0  0
   -6.0795    4.3958   -0.6688 C   0  0  2  0  0  0  0  0  0  0  0  0
   -7.4282    4.8371   -0.1132 C   0  0  1  0  0  0  0  0  0  0  0  0
   -7.2268    5.5930    1.1973 C   0  0  1  0  0  0  0  0  0  0  0  0
   -8.5400    5.9927    1.8408 C   0  0  0  0  0  0  0  0  0  0  0  0
   -4.0529    3.2293   -0.0976 O   0  0  0  0  0  0  0  0  0  0  0  0
   -6.2224    3.6459   -1.9356 N   0  3  0  0  0  0  0  0  0  0  0  0
   -8.0897    5.6666   -1.0589 O   0  0  0  0  0  0  0  0  0  0  0  0
   -6.5209    4.7622    2.1442 O   0  0  0  0  0  0  0  0  0  0  0  0
   -8.3353    6.8855    2.9266 O   0  0  0  0  0  0  0  0  0  0  0  0
   -4.0512    6.0260    3.7845 C   0  0  2  0  0  0  0  0  0  0  0  0
   -2.9433    6.2673    4.8006 C   0  0  0  0  0  0  0  0  0  0  0  0
   -2.0223    5.0500    4.8864 C   0  0  1  0  0  0  0  0  0  0  0  0
   -1.4003    4.7780    3.5185 C   0  0  2  0  0  0  0  0  0  0  0  0
   -2.4999    4.5409    2.4821 C   0  0  1  0  0  0  0  0  0  0  0  0
   -3.4346    5.7485    2.4221 C   0  0  1  0  0  0  0  0  0  0  0  0
   -4.9264    7.2134    3.6731 N   0  3  0  0  0  0  0  0  0  0  0  0
   -0.9976    5.2649    5.9408 N   0  3  0  0  0  0  0  0  0  0  0  0
   -1.9179    4.3158    1.2051 O   0  0  0  0  0  0  0  0  0  0  0  0
   -4.4760    5.5125    1.4574 O   0  0  0  0  0  0  0  0  0  0  0  0
   -0.2693    2.9926    2.3796 C   0  0  1  0  0  0  0  0  0  0  0  0
   -0.0712    1.4925    2.6036 C   0  0  1  0  0  0  0  0  0  0  0  0
    1.1442    1.2468    3.4849 C   0  0  0  0  0  0  0  0  0  0  0  0
    2.3576    1.9188    2.8633 C   0  0  1  0  0  0  0  0  0  0  0  0
    2.0727    3.4053    2.6522 C   0  0  1  0  0  0  0  0  0  0  0  0
    3.2231    4.1315    1.9788 C   0  0  0  0  0  0  0  0  0  0  0  0
   -1.2956    0.8694    3.1598 N   0  3  0  0  0  0  0  0  0  0  0  0
    4.4093    4.2090    2.8646 N   0  3  0  0  0  0  0  0  0  0  0  0
   -0.5322    3.6281    3.5859 O   0  0  0  0  0  0  0  0  0  0  0  0
    3.4876    1.7572    3.7081 O   0  0  0  0  0  0  0  0  0  0  0  0
    0.9106    3.5746    1.8119 O   0  0  0  0  0  0  0  0  0  0  0  0
  1  2  1  0  0  0  0
  1 10  1  0  0  0  0
  1 21  1  6  0  0  0
  2  3  1  0  0  0  0
  2  7  1  6  0  0  0
  3  4  1  0  0  0  0
  3  8  1  6  0  0  0
  4  5  1  0  0  0  0
  4  9  1  6  0  0  0
  5  6  1  1  0  0  0
  5 10  1  0  0  0  0
  6 11  1  0  0  0  0
 12 13  1  0  0  0  0
 12 17  1  0  0  0  0
 12 18  1  6  0  0  0
 13 14  1  0  0  0  0
 14 15  1  0  0  0  0
 14 19  1  1  0  0  0
 15 16  1  0  0  0  0
 15 30  1  1  0  0  0
 16 17  1  0  0  0  0
 16 20  1  6  0  0  0
 17 21  1  6  0  0  0
 22 23  1  0  0  0  0
 22 30  1  1  0  0  0
 22 32  1  0  0  0  0
 23 24  1  0  0  0  0
 23 28  1  1  0  0  0
 24 25  1  0  0  0  0
 25 26  1  0  0  0  0
 25 31  1  1  0  0  0
 26 27  1  6  0  0  0
 26 32  1  0  0  0  0
 27 29  1  0  0  0  0
M  CHG  5   8   1  18   1  19   1  28   1  29   1
M  END
>  <CHROM.1>
-131.71997135,-43.36944724,-177.67791968,70.82764243,-169.93195582,-172.26832399
-178.40965594,101.16463379,158.61132733,44.51111119,-65.67665167,-147.97279708
68.58849544,69.91904791,-67.97690049,36.51474192,-2.69476347,4.28109416,2.22743520
-3.09138651,-0.35344895,0.97268006

>  <Name>
1tob

>  <RI>
0

>  <Rbt.Current_Directory>
/home/itssahil/PROJECTS/Mol_Feturizer/New_Systems/rnas/1tob

>  <Rbt.Executable>
rbdock ($Id: //depot/dev/client3/rdock/2013.1/src/exe/rbdock.cxx#4 $)

>  <Rbt.Library>
libRbt.so (2013.1, Build901 2013/11/27)

>  <Rbt.Parameter_File>
/export/apps/rDock/src/rDock_2013.1_src/data/scripts/dock_solv.prm

>  <Rbt.Receptor>
prm/blind_docking_100.prm

>  <SCORE>
-10.6835

>  <SCORE.INTER>
-25.4226

>  <SCORE.INTER.CONST>
1

>  <SCORE.INTER.POLAR>
-3.48986

>  <SCORE.INTER.ROT>
6

>  <SCORE.INTER.SOLV>
39.3448

>  <SCORE.INTER.VDW>
-26.0305

>  <SCORE.INTER.norm>
-0.794457

>  <SCORE.INTRA>
8.71855

>  <SCORE.INTRA.DIHEDRAL>
-1.65447

>  <SCORE.INTRA.DIHEDRAL.0>
22.9177

>  <SCORE.INTRA.POLAR>
-1.66448

>  <SCORE.INTRA.POLAR.0>
-0.311208

>  <SCORE.INTRA.REPUL>
0

>  <SCORE.INTRA.REPUL.0>
0

>  <SCORE.INTRA.SOLV>
-2.26599

>  <SCORE.INTRA.SOLV.lig_0>
-132.657

>  <SCORE.INTRA.VDW>
16.338

>  <SCORE.INTRA.VDW.0>
-4.68867

>  <SCORE.INTRA.norm>
0.272455

>  <SCORE.RESTR>
6.02062

>  <SCORE.RESTR.CAVITY>
6.02062

>  <SCORE.RESTR.norm>
0.188144

>  <SCORE.SYSTEM>
0

>  <SCORE.SYSTEM.CONST>
0

>  <SCORE.SYSTEM.DIHEDRAL>
0

>  <SCORE.SYSTEM.SOLV>
0

>  <SCORE.SYSTEM.norm>
0

>  <SCORE.heavy>
32

>  <SCORE.norm>
-0.333858

>  <RMSD>
8.890

$$$$
1tob
 OpenBabel11021811413D
libRbt.so/2013.1/901 2013/11/27
 32 34  0  0  0  0  0  0  0  0999 V2000
   -5.3134    5.6402    2.8179 C   0  0  2  0  0  0  0  0  0  0  0  0
   -6.1599    5.1769    1.6346 C   0  0  1  0  0  0  0  0  0  0  0  0
   -6.5279    6.3735    0.7679 C   0  0  2  0  0  0  0  0  0  0  0  0
   -7.2264    7.4228    1.6244 C   0  0  1  0  0  0  0  0  0  0  0  0
   -6.3381    7.8026    2.8059 C   0  0  1  0  0  0  0  0  0  0  0  0
   -7.0110    8.7888    3.7403 C   0  0  0  0  0  0  0  0  0  0  0  0
   -5.4301    4.2335    0.8634 O   0  0  0  0  0  0  0  0  0  0  0  0
   -7.3560    5.9619   -0.3863 N   0  3  0  0  0  0  0  0  0  0  0  0
   -7.5123    8.5721    0.8387 O   0  0  0  0  0  0  0  0  0  0  0  0
   -6.0174    6.6276    3.5816 O   0  0  0  0  0  0  0  0  0  0  0  0
   -6.2239    9.0260    4.8988 O   0  0  0  0  0  0  0  0  0  0  0  0
   -3.1704    6.2520    4.5897 C   0  0  2  0  0  0  0  0  0  0  0  0
   -1.9355    5.8765    5.3973 C   0  0  0  0  0  0  0  0  0  0  0  0
   -1.6741    4.3729    5.3059 C   0  0  1  0  0  0  0  0  0  0  0  0
   -1.4617    3.9753    3.8470 C   0  0  2  0  0  0  0  0  0  0  0  0
   -2.6904    4.3526    3.0181 C   0  0  1  0  0  0  0  0  0  0  0  0
   -2.9643    5.8515    3.1370 C   0  0  1  0  0  0  0  0  0  0  0  0
   -3.4093    7.7108    4.6475 N   0  3  0  0  0  0  0  0  0  0  0  0
   -0.5183    4.0077    6.1655 N   0  3  0  0  0  0  0  0  0  0  0  0
   -2.4777    4.0065    1.6561 O   0  0  0  0  0  0  0  0  0  0  0  0
   -4.1308    6.1973    2.3685 O   0  0  0  0  0  0  0  0  0  0  0  0
   -0.8093    2.0955    2.5036 C   0  0  1  0  0  0  0  0  0  0  0  0
   -0.3423    0.6424    2.6053 C   0  0  1  0  0  0  0  0  0  0  0  0
    0.8731    0.5415    3.5146 C   0  0  0  0  0  0  0  0  0  0  0  0
    1.9572    1.4786    3.0077 C   0  0  1  0  0  0  0  0  0  0  0  0
    1.4071    2.9013    2.9139 C   0  0  1  0  0  0  0  0  0  0  0  0
    2.4206    3.8847    2.3573 C   0  0  0  0  0  0  0  0  0  0  0  0
   -1.4444   -0.2426    3.0509 N   0  3  0  0  0  0  0  0  0  0  0  0
    1.9331    4.5191    1.1093 N   0  3  0  0  0  0  0  0  0  0  0  0
   -1.2185    2.5570    3.7476 O   0  0  0  0  0  0  0  0  0  0  0  0
    3.0740    1.4477    3.8844 O   0  0  0  0  0  0  0  0  0  0  0  0
    0.2571    2.9333    2.0410 O   0  0  0  0  0  0  0  0  0  0  0  0
  1  2  1  0  0  0  0
  1 10  1  0  0  0  0
  1 21  1  6  0  0  0
  2  3  1  0  0  0  0
  2  7  1  6  0  0  0
  3  4  1  0  0  0  0
  3  8  1  6  0  0  0
  4  5  1  0  0  0  0
  4  9  1  6  0  0  0
  5  6  1  1  0  0  0
  5 10  1  0  0  0  0
  6 11  1  0  0  0  0
 12 13  1  0  0  0  0
 12 17  1  0  0  0  0
 12 18  1  6  0  0  0
 13 14  1  0  0  0  0
 14 15  1  0  0  0  0
 14 19  1  1  0  0  0
 15 16  1  0  0  0  0
 15 30  1  1  0  0  0
 16 17  1  0  0  0  0
 16 20  1  6  0  0  0
 17 21  1  6  0  0  0
 22 23  1  0  0  0  0
 22 30  1  1  0  0  0
 22 32  1  0  0  0  0
 23 24  1  0  0  0  0
 23 28  1  1  0  0  0
 24 25  1  0  0  0  0
 25 26  1  0  0  0  0
 25 31  1  1  0  0  0
 26 27  1  6  0  0  0
 26 32  1  0  0  0  0
 27 29  1  0  0  0  0
M  CHG  5   8   1  18   1  19   1  28   1  29   1
M  END
>  <CHROM.1>
-139.26805087,-34.58751644,75.52055452,-52.35832196,174.16351569,86.70703028
-154.42781824,-56.79849875,-170.58680539,-40.05538393,-57.14330311,169.52697799
-179.30240989,68.77595875,119.84190819,85.14345375,-2.73284392,4.73475459
2.91957032,2.80188602,-0.53422665,0.80152861

>  <Name>
1tob

>  <RI>
0

>  <Rbt.Current_Directory>
/home/itssahil/PROJECTS/Mol_Feturizer/New_Systems/rnas/1tob

>  <Rbt.Executable>
rbdock ($Id: //depot/dev/client3/rdock/2013.1/src/exe/rbdock.cxx#4 $)

>  <Rbt.Library>
libRbt.so (2013.1, Build901 2013/11/27)

>  <Rbt.Parameter_File>
/export/apps/rDock/src/rDock_2013.1_src/data/scripts/dock_solv.prm

>  <Rbt.Receptor>
prm/blind_docking_60.prm

>  <SCORE>
-30.3886

>  <SCORE.INTER>
-30.623

>  <SCORE.INTER.CONST>
1

>  <SCORE.INTER.POLAR>
-3.95141

>  <SCORE.INTER.ROT>
6

>  <SCORE.INTER.SOLV>
39.0175

>  <SCORE.INTER.VDW>
-27.8498

>  <SCORE.INTER.norm>
-0.956968

>  <SCORE.INTRA>
-3.41549

>  <SCORE.INTRA.DIHEDRAL>
0.666326

>  <SCORE.INTRA.DIHEDRAL.0>
22.9177

>  <SCORE.INTRA.POLAR>
-1.60364

>  <SCORE.INTRA.POLAR.0>
-0.311208

>  <SCORE.INTRA.REPUL>
0

>  <SCORE.INTRA.REPUL.0>
0

>  <SCORE.INTRA.SOLV>
-2.07663

>  <SCORE.INTRA.SOLV.lig_0>
-132.657

>  <SCORE.INTRA.VDW>
2.74202

>  <SCORE.INTRA.VDW.0>
-4.68867

>  <SCORE.INTRA.norm>
-0.106734

>  <SCORE.RESTR>
3.64985

>  <SCORE.RESTR.CAVITY>
3.64985

>  <SCORE.RESTR.norm>
0.114058

>  <SCORE.SYSTEM>
0

>  <SCORE.SYSTEM.CONST>
0

>  <SCORE.SYSTEM.DIHEDRAL>
0

>  <SCORE.SYSTEM.SOLV>
0

>  <SCORE.SYSTEM.norm>
0

>  <SCORE.heavy>
32

>  <SCORE.norm>
-0.949644

>  <RMSD>
8.894

$$$$
1tob
 OpenBabel11021811413D
libRbt.so/2013.1/901 2013/11/27
 32 34  0  0  0  0  0  0  0  0999 V2000
   -5.5798    6.6292    2.1039 C   0  0  2  0  0  0  0  0  0  0  0  0
   -6.9983    7.1795    2.2309 C   0  0  1  0  0  0  0  0  0  0  0  0
   -7.9997    6.0340    2.1724 C   0  0  2  0  0  0  0  0  0  0  0  0
   -7.7830    5.2376    0.8912 C   0  0  1  0  0  0  0  0  0  0  0  0
   -6.3358    4.7587    0.8170 C   0  0  1  0  0  0  0  0  0  0  0  0
   -6.0365    4.0238   -0.4748 C   0  0  0  0  0  0  0  0  0  0  0  0
   -7.1351    7.8726    3.4631 O   0  0  0  0  0  0  0  0  0  0  0  0
   -9.3877    6.5322    2.2851 N   0  3  0  0  0  0  0  0  0  0  0  0
   -8.6677    4.1256    0.8609 O   0  0  0  0  0  0  0  0  0  0  0  0
   -5.4372    5.8870    0.8862 O   0  0  0  0  0  0  0  0  0  0  0  0
   -6.4936    4.7533   -1.6048 O   0  0  0  0  0  0  0  0  0  0  0  0
   -3.7580    6.3119    4.9555 C   0  0  2  0  0  0  0  0  0  0  0  0
   -2.2925    6.2531    5.3640 C   0  0  0  0  0  0  0  0  0  0  0  0
   -1.7861    4.8109    5.3317 C   0  0  1  0  0  0  0  0  0  0  0  0
   -1.9389    4.2434    3.9223 C   0  0  2  0  0  0  0  0  0  0  0  0
   -3.4053    4.3018    3.4914 C   0  0  1  0  0  0  0  0  0  0  0  0
   -3.9144    5.7415    3.5542 C   0  0  1  0  0  0  0  0  0  0  0  0
   -4.2446    7.7089    4.9531 N   0  3  0  0  0  0  0  0  0  0  0  0
   -0.3814    4.7576    5.8134 N   0  3  0  0  0  0  0  0  0  0  0  0
   -3.5393    3.7987    2.1689 O   0  0  0  0  0  0  0  0  0  0  0  0
   -5.2987    5.7874    3.1638 O   0  0  0  0  0  0  0  0  0  0  0  0
   -1.3172    2.3277    2.6156 C   0  0  1  0  0  0  0  0  0  0  0  0
   -0.7524    0.9101    2.7216 C   0  0  1  0  0  0  0  0  0  0  0  0
    0.6378    0.9410    3.3386 C   0  0  0  0  0  0  0  0  0  0  0  0
    1.5243    1.8735    2.5293 C   0  0  1  0  0  0  0  0  0  0  0  0
    0.8822    3.2582    2.4521 C   0  0  1  0  0  0  0  0  0  0  0  0
    1.6862    4.2295    1.6070 C   0  0  0  0  0  0  0  0  0  0  0  0
   -1.6731    0.0231    3.4713 N   0  3  0  0  0  0  0  0  0  0  0  0
    3.1432    3.9948    1.7480 N   0  3  0  0  0  0  0  0  0  0  0  0
   -1.4683    2.8806    3.8803 O   0  0  0  0  0  0  0  0  0  0  0  0
    2.8071    1.9672    3.1314 O   0  0  0  0  0  0  0  0  0  0  0  0
   -0.4321    3.1646    1.8611 O   0  0  0  0  0  0  0  0  0  0  0  0
  1  2  1  0  0  0  0
  1 10  1  0  0  0  0
  1 21  1  1  0  0  0
  2  3  1  0  0  0  0
  2  7  1  1  0  0  0
  3  4  1  0  0  0  0
  3  8  1  6  0  0  0
  4  5  1  0  0  0  0
  4  9  1  1  0  0  0
  5  6  1  6  0  0  0
  5 10  1  0  0  0  0
  6 11  1  0  0  0  0
 12 13  1  0  0  0  0
 12 17  1  0  0  0  0
 12 18  1  6  0  0  0
 13 14  1  0  0  0  0
 14 15  1  0  0  0  0
 14 19  1  6  0  0  0
 15 16  1  0  0  0  0
 15 30  1  1  0  0  0
 16 17  1  0  0  0  0
 16 20  1  6  0  0  0
 17 21  1  1  0  0  0
 22 23  1  0  0  0  0
 22 30  1  1  0  0  0
 22 32  1  0  0  0  0
 23 24  1  0  0  0  0
 23 28  1  1  0  0  0
 24 25  1  0  0  0  0
 25 26  1  0  0  0  0
 25 31  1  1  0  0  0
 26 27  1  6  0  0  0
 26 32  1  0  0  0  0
 27 29  1  0  0  0  0
M  CHG  5   8   1  18   1  19   1  28   1  29   1
M  END
>  <CHROM.1>
-150.03164764,-68.69417763,59.32629427,59.89839332,48.83230700,-162.99469372
-174.80212724,148.75675317,-168.42838570,79.48072257,114.68690682,177.34128330
55.76462273,-52.13517905,-35.11796157,161.87840760,-3.24379473,4.44815408
2.67088505,-2.99866768,0.39033325,-2.30871010

>  <Name>
1tob

>  <RI>
0

>  <Rbt.Current_Directory>
/home/itssahil/PROJECTS/Mol_Feturizer/New_Systems/rnas/1tob

>  <Rbt.Executable>
rbdock ($Id: //depot/dev/client3/rdock/2013.1/src/exe/rbdock.cxx#4 $)

>  <Rbt.Library>
libRbt.so (2013.1, Build901 2013/11/27)

>  <Rbt.Parameter_File>
/export/apps/rDock/src/rDock_2013.1_src/data/scripts/dock_solv.prm

>  <Rbt.Receptor>
prm/blind_docking_60.prm

>  <SCORE>
-33.5536

>  <SCORE.INTER>
-38.0009

>  <SCORE.INTER.CONST>
1

>  <SCORE.INTER.POLAR>
-5.25476

>  <SCORE.INTER.ROT>
6

>  <SCORE.INTER.SOLV>
41.7157

>  <SCORE.INTER.VDW>
-29.3233

>  <SCORE.INTER.norm>
-1.18753

>  <SCORE.INTRA>
1.56448

>  <SCORE.INTRA.DIHEDRAL>
-2.56774

>  <SCORE.INTRA.DIHEDRAL.0>
22.9177

>  <SCORE.INTRA.POLAR>
-0.281474

>  <SCORE.INTRA.POLAR.0>
-0.311208

>  <SCORE.INTRA.REPUL>
0

>  <SCORE.INTRA.REPUL.0>
0

>  <SCORE.INTRA.SOLV>
-1.04461

>  <SCORE.INTRA.SOLV.lig_0>
-132.657

>  <SCORE.INTRA.VDW>
4.32766

>  <SCORE.INTRA.VDW.0>
-4.68867

>  <SCORE.INTRA.norm>
0.0488899

>  <SCORE.RESTR>
2.88284

>  <SCORE.RESTR.CAVITY>
2.88284

>  <SCORE.RESTR.norm>
0.0900889

>  <SCORE.SYSTEM>
0

>  <SCORE.SYSTEM.CONST>
0

>  <SCORE.SYSTEM.DIHEDRAL>
0

>  <SCORE.SYSTEM.SOLV>
0

>  <SCORE.SYSTEM.norm>
0

>  <SCORE.heavy>
32

>  <SCORE.norm>
-1.04855

>  <RMSD>
8.898

$$$$
1tob
 OpenBabel11021811413D
libRbt.so/2013.1/901 2013/11/27
 32 34  0  0  0  0  0  0  0  0999 V2000
   -7.1032    8.8592    2.6450 C   0  0  2  0  0  0  0  0  0  0  0  0
   -7.3273   10.2983    3.1032 C   0  0  1  0  0  0  0  0  0  0  0  0
   -8.5570   10.3658    3.9985 C   0  0  2  0  0  0  0  0  0  0  0  0
   -9.7549    9.7841    3.2574 C   0  0  1  0  0  0  0  0  0  0  0  0
   -9.4395    8.3638    2.7963 C   0  0  1  0  0  0  0  0  0  0  0  0
  -10.5666    7.7570    1.9840 C   0  0  0  0  0  0  0  0  0  0  0  0
   -6.1887   10.7566    3.8182 O   0  0  0  0  0  0  0  0  0  0  0  0
   -8.8090   11.7496    4.4558 N   0  3  0  0  0  0  0  0  0  0  0  0
  -10.8920    9.7798    4.1100 O   0  0  0  0  0  0  0  0  0  0  0  0
   -8.2616    8.3649    1.9610 O   0  0  0  0  0  0  0  0  0  0  0  0
  -10.7495    8.4454    0.7550 O   0  0  0  0  0  0  0  0  0  0  0  0
   -5.2456    7.7844    5.5204 C   0  0  2  0  0  0  0  0  0  0  0  0
   -3.7738    7.5223    5.8094 C   0  0  0  0  0  0  0  0  0  0  0  0
   -3.3396    6.1876    5.2031 C   0  0  1  0  0  0  0  0  0  0  0  0
   -3.5591    6.2132    3.6922 C   0  0  2  0  0  0  0  0  0  0  0  0
   -5.0322    6.4837    3.3824 C   0  0  1  0  0  0  0  0  0  0  0  0
   -5.4685    7.8043    4.0160 C   0  0  1  0  0  0  0  0  0  0  0  0
   -5.6632    9.0901    6.0764 N   0  3  0  0  0  0  0  0  0  0  0  0
   -1.9263    5.9044    5.5645 N   0  3  0  0  0  0  0  0  0  0  0  0
   -5.2273    6.5345    1.9755 O   0  0  0  0  0  0  0  0  0  0  0  0
   -6.8592    8.0448    3.7350 O   0  0  0  0  0  0  0  0  0  0  0  0
   -2.5724    5.0289    1.8516 C   0  0  1  0  0  0  0  0  0  0  0  0
   -3.0866    3.8949    0.9629 C   0  0  1  0  0  0  0  0  0  0  0  0
   -2.6820    2.5471    1.5408 C   0  0  0  0  0  0  0  0  0  0  0  0
   -1.1741    2.5153    1.7295 C   0  0  1  0  0  0  0  0  0  0  0  0
   -0.7390    3.6882    2.6073 C   0  0  1  0  0  0  0  0  0  0  0  0
    0.7663    3.7542    2.7912 C   0  0  0  0  0  0  0  0  0  0  0  0
   -4.5516    3.9961    0.7626 N   0  3  0  0  0  0  0  0  0  0  0  0
    1.4361    4.3120    1.5920 N   0  3  0  0  0  0  0  0  0  0  0  0
   -3.1569    4.9568    3.1091 O   0  0  0  0  0  0  0  0  0  0  0  0
   -0.7863    1.2892    2.3320 O   0  0  0  0  0  0  0  0  0  0  0  0
   -1.1513    4.9365    2.0096 O   0  0  0  0  0  0  0  0  0  0  0  0
  1  2  1  0  0  0  0
  1 10  1  0  0  0  0
  1 21  1  1  0  0  0
  2  3  1  0  0  0  0
  2  7  1  1  0  0  0
  3  4  1  0  0  0  0
  3  8  1  6  0  0  0
  4  5  1  0  0  0  0
  4  9  1  1  0  0  0
  5  6  1  6  0  0  0
  5 10  1  0  0  0  0
  6 11  1  0  0  0  0
 12 13  1  0  0  0  0
 12 17  1  0  0  0  0
 12 18  1  6  0  0  0
 13 14  1  0  0  0  0
 14 15  1  0  0  0  0
 14 19  1  6  0  0  0
 15 16  1  0  0  0  0
 15 30  1  1  0  0  0
 16 17  1  0  0  0  0
 16 20  1  6  0  0  0
 17 21  1  1  0  0  0
 22 23  1  0  0  0  0
 22 30  1  1  0  0  0
 22 32  1  0  0  0  0
 23 24  1  0  0  0  0
 23 28  1  1  0  0  0
 24 25  1  0  0  0  0
 25 26  1  0  0  0  0
 25 31  1  1  0  0  0
 26 27  1  6  0  0  0
 26 32  1  0  0  0  0
 27 29  1  0  0  0  0
M  CHG  5   8   1  18   1  19   1  28   1  29   1
M  END
>  <CHROM.1>
-96.41077681,176.30423887,-76.87007603,-58.60712680,65.61876325,-58.82902613
88.95310289,-21.70021875,-144.31195143,-60.22626011,141.85649713,-138.86810707
-132.55828691,175.03673561,77.32171738,67.84756429,-5.05286326,6.80832805
3.09409009,2.62266591,-0.41024670,0.77753749

>  <Name>
1tob

>  <RI>
0

>  <Rbt.Current_Directory>
/home/itssahil/PROJECTS/Mol_Feturizer/New_Systems/rnas/1tob

>  <Rbt.Executable>
rbdock ($Id: //depot/dev/client3/rdock/2013.1/src/exe/rbdock.cxx#4 $)

>  <Rbt.Library>
libRbt.so (2013.1, Build901 2013/11/27)

>  <Rbt.Parameter_File>
/export/apps/rDock/src/rDock_2013.1_src/data/scripts/dock_solv.prm

>  <Rbt.Receptor>
prm/pocket_docking_4.prm

>  <SCORE>
-59.886

>  <SCORE.INTER>
-58.3661

>  <SCORE.INTER.CONST>
1

>  <SCORE.INTER.POLAR>
-8.02012

>  <SCORE.INTER.ROT>
6

>  <SCORE.INTER.SOLV>
38.3031

>  <SCORE.INTER.VDW>
-32.5447

>  <SCORE.INTER.norm>
-1.82394

>  <SCORE.INTRA>
-1.78543

>  <SCORE.INTRA.DIHEDRAL>
6.93917

>  <SCORE.INTRA.DIHEDRAL.0>
22.9177

>  <SCORE.INTRA.POLAR>
-1.91238

>  <SCORE.INTRA.POLAR.0>
-0.311208

>  <SCORE.INTRA.REPUL>
0

>  <SCORE.INTRA.REPUL.0>
0

>  <SCORE.INTRA.SOLV>
0.971724

>  <SCORE.INTRA.SOLV.lig_0>
-132.657

>  <SCORE.INTRA.VDW>
0.761229

>  <SCORE.INTRA.VDW.0>
-4.68867

>  <SCORE.INTRA.norm>
-0.0557946

>  <SCORE.RESTR>
0.26557

>  <SCORE.RESTR.CAVITY>
0.26557

>  <SCORE.RESTR.norm>
0.00829907

>  <SCORE.SYSTEM>
0

>  <SCORE.SYSTEM.CONST>
0

>  <SCORE.SYSTEM.DIHEDRAL>
0

>  <SCORE.SYSTEM.SOLV>
0

>  <SCORE.SYSTEM.norm>
0

>  <SCORE.heavy>
32

>  <SCORE.norm>
-1.87144

>  <RMSD>
8.898

$$$$
1tob
 OpenBabel11021811413D
libRbt.so/2013.1/901 2013/11/27
 32 34  0  0  0  0  0  0  0  0999 V2000
   -6.2002    5.7098    2.3325 C   0  0  2  0  0  0  0  0  0  0  0  0
   -6.9317    5.0548    1.1633 C   0  0  1  0  0  0  0  0  0  0  0  0
   -7.5295    6.1297    0.2657 C   0  0  2  0  0  0  0  0  0  0  0  0
   -8.4280    7.0392    1.0952 C   0  0  1  0  0  0  0  0  0  0  0  0
   -7.6387    7.6209    2.2649 C   0  0  1  0  0  0  0  0  0  0  0  0
   -8.4998    8.4758    3.1739 C   0  0  0  0  0  0  0  0  0  0  0  0
   -6.0241    4.2575    0.4162 O   0  0  0  0  0  0  0  0  0  0  0  0
   -8.2536    5.5298   -0.8759 N   0  3  0  0  0  0  0  0  0  0  0  0
   -8.9362    8.0865    0.2798 O   0  0  0  0  0  0  0  0  0  0  0  0
   -7.0912    6.5552    3.0709 O   0  0  0  0  0  0  0  0  0  0  0  0
   -9.0130    9.6088    2.4876 O   0  0  0  0  0  0  0  0  0  0  0  0
   -4.2424    6.8551    4.0785 C   0  0  2  0  0  0  0  0  0  0  0  0
   -2.9668    6.7726    4.9057 C   0  0  0  0  0  0  0  0  0  0  0  0
   -2.4228    5.3438    4.9080 C   0  0  1  0  0  0  0  0  0  0  0  0
   -2.1236    4.9049    3.4763 C   0  0  2  0  0  0  0  0  0  0  0  0
   -3.3932    4.9891    2.6276 C   0  0  1  0  0  0  0  0  0  0  0  0
   -3.9489    6.4125    2.6532 C   0  0  1  0  0  0  0  0  0  0  0  0
   -4.7554    8.2422    4.0455 N   0  3  0  0  0  0  0  0  0  0  0  0
   -1.2274    5.2596    5.7866 N   0  3  0  0  0  0  0  0  0  0  0  0
   -3.1046    4.6066    1.2895 O   0  0  0  0  0  0  0  0  0  0  0  0
   -5.1520    6.4813    1.8667 O   0  0  0  0  0  0  0  0  0  0  0  0
   -1.0948    3.1112    2.2564 C   0  0  1  0  0  0  0  0  0  0  0  0
   -1.4529    1.6406    2.0353 C   0  0  1  0  0  0  0  0  0  0  0  0
   -0.8167    0.7751    3.1125 C   0  0  0  0  0  0  0  0  0  0  0  0
    0.6827    1.0235    3.1338 C   0  0  1  0  0  0  0  0  0  0  0  0
    0.9562    2.5134    3.3362 C   0  0  1  0  0  0  0  0  0  0  0  0
    2.4373    2.8451    3.3095 C   0  0  0  0  0  0  0  0  0  0  0  0
   -2.9214    1.4531    1.9676 N   0  3  0  0  0  0  0  0  0  0  0  0
    2.7747    3.9027    4.2920 N   0  3  0  0  0  0  0  0  0  0  0  0
   -1.6136    3.5557    3.4652 O   0  0  0  0  0  0  0  0  0  0  0  0
    1.2838    0.2741    4.1798 O   0  0  0  0  0  0  0  0  0  0  0  0
    0.3277    3.2814    2.2872 O   0  0  0  0  0  0  0  0  0  0  0  0
  1  2  1  0  0  0  0
  1 10  1  0  0  0  0
  1 21  1  6  0  0  0
  2  3  1  0  0  0  0
  2  7  1  6  0  0  0
  3  4  1  0  0  0  0
  3  8  1  6  0  0  0
  4  5  1  0  0  0  0
  4  9  1  6  0  0  0
  5  6  1  1  0  0  0
  5 10  1  0  0  0  0
  6 11  1  0  0  0  0
 12 13  1  0  0  0  0
 12 17  1  0  0  0  0
 12 18  1  6  0  0  0
 13 14  1  0  0  0  0
 14 15  1  0  0  0  0
 14 19  1  1  0  0  0
 15 16  1  0  0  0  0
 15 30  1  1  0  0  0
 16 17  1  0  0  0  0
 16 20  1  6  0  0  0
 17 21  1  6  0  0  0
 22 23  1  0  0  0  0
 22 30  1  1  0  0  0
 22 32  1  0  0  0  0
 23 24  1  0  0  0  0
 23 28  1  1  0  0  0
 24 25  1  0  0  0  0
 25 26  1  0  0  0  0
 25 31  1  1  0  0  0
 26 27  1  6  0  0  0
 26 32  1  0  0  0  0
 27 29  1  0  0  0  0
M  CHG  5   8   1  18   1  19   1  28   1  29   1
M  END
>  <CHROM.1>
-140.12809483,-73.84139041,-162.90834287,-62.56066658,-62.89643916,176.70532693
-116.15252123,132.64679183,-169.74759728,-60.23290437,-58.77897078,-142.15223810
-42.66208379,179.14200837,-142.67976384,-173.10585881,-3.67444012,4.96872641
2.63272854,2.85492765,-0.49434702,0.65078486

>  <Name>
1tob

>  <RI>
0

>  <Rbt.Current_Directory>
/home/itssahil/PROJECTS/Mol_Feturizer/New_Systems/rnas/1tob

>  <Rbt.Executable>
rbdock ($Id: //depot/dev/client3/rdock/2013.1/src/exe/rbdock.cxx#4 $)

>  <Rbt.Library>
libRbt.so (2013.1, Build901 2013/11/27)

>  <Rbt.Parameter_File>
/export/apps/rDock/src/rDock_2013.1_src/data/scripts/dock_solv.prm

>  <Rbt.Receptor>
prm/pocket_docking_5.prm

>  <SCORE>
-46.7103

>  <SCORE.INTER>
-50.2363

>  <SCORE.INTER.CONST>
1

>  <SCORE.INTER.POLAR>
-6.62651

>  <SCORE.INTER.ROT>
6

>  <SCORE.INTER.SOLV>
31.5905

>  <SCORE.INTER.VDW>
-29.5326

>  <SCORE.INTER.norm>
-1.56988

>  <SCORE.INTRA>
3.52595

>  <SCORE.INTRA.DIHEDRAL>
0.864649

>  <SCORE.INTRA.DIHEDRAL.0>
22.9177

>  <SCORE.INTRA.POLAR>
0.291565

>  <SCORE.INTRA.POLAR.0>
-0.311208

>  <SCORE.INTRA.REPUL>
0

>  <SCORE.INTRA.REPUL.0>
0

>  <SCORE.INTRA.SOLV>
-2.15516

>  <SCORE.INTRA.SOLV.lig_0>
-132.657

>  <SCORE.INTRA.VDW>
3.17989

>  <SCORE.INTRA.VDW.0>
-4.68867

>  <SCORE.INTRA.norm>
0.110186

>  <SCORE.RESTR>
0

>  <SCORE.RESTR.CAVITY>
0

>  <SCORE.RESTR.norm>
0

>  <SCORE.SYSTEM>
0

>  <SCORE.SYSTEM.CONST>
0

>  <SCORE.SYSTEM.DIHEDRAL>
0

>  <SCORE.SYSTEM.SOLV>
0

>  <SCORE.SYSTEM.norm>
0

>  <SCORE.heavy>
32

>  <SCORE.norm>
-1.4597

>  <RMSD>
8.898

$$$$
1tob
 OpenBabel11021811413D
libRbt.so/2013.1/901 2013/11/27
 32 34  0  0  0  0  0  0  0  0999 V2000
   -6.2857    6.1429    2.5426 C   0  0  2  0  0  0  0  0  0  0  0  0
   -6.9748    5.2675    1.4986 C   0  0  1  0  0  0  0  0  0  0  0  0
   -7.4699    6.1343    0.3488 C   0  0  2  0  0  0  0  0  0  0  0  0
   -8.3748    7.2317    0.8959 C   0  0  1  0  0  0  0  0  0  0  0  0
   -7.6314    8.0341    1.9602 C   0  0  1  0  0  0  0  0  0  0  0  0
   -8.5061    9.0948    2.5992 C   0  0  0  0  0  0  0  0  0  0  0  0
   -6.0608    4.2974    1.0077 O   0  0  0  0  0  0  0  0  0  0  0  0
   -8.1508    5.3184   -0.6798 N   0  3  0  0  0  0  0  0  0  0  0  0
   -8.7866    8.0871   -0.1618 O   0  0  0  0  0  0  0  0  0  0  0  0
   -7.1806    7.1575    3.0156 O   0  0  0  0  0  0  0  0  0  0  0  0
   -9.6160    8.5165    3.2713 O   0  0  0  0  0  0  0  0  0  0  0  0
   -4.2720    7.0679    4.2142 C   0  0  2  0  0  0  0  0  0  0  0  0
   -2.9973    6.9619    5.0402 C   0  0  0  0  0  0  0  0  0  0  0  0
   -2.4516    5.5343    5.0000 C   0  0  1  0  0  0  0  0  0  0  0  0
   -2.1502    5.1392    3.5561 C   0  0  2  0  0  0  0  0  0  0  0  0
   -3.4189    5.2475    2.7088 C   0  0  1  0  0  0  0  0  0  0  0  0
   -3.9763    6.6689    2.7766 C   0  0  1  0  0  0  0  0  0  0  0  0
   -4.7866    8.4548    4.2224 N   0  3  0  0  0  0  0  0  0  0  0  0
   -1.2573    5.4250    5.8773 N   0  3  0  0  0  0  0  0  0  0  0  0
   -3.1281    4.9059    1.3601 O   0  0  0  0  0  0  0  0  0  0  0  0
   -5.1785    6.7600    1.9910 O   0  0  0  0  0  0  0  0  0  0  0  0
   -0.9914    3.4305    2.3307 C   0  0  1  0  0  0  0  0  0  0  0  0
   -1.4147    2.0239    1.9038 C   0  0  1  0  0  0  0  0  0  0  0  0
   -0.9909    1.0050    2.9509 C   0  0  0  0  0  0  0  0  0  0  0  0
    0.5050    1.1266    3.1914 C   0  0  1  0  0  0  0  0  0  0  0  0
    0.8485    2.5611    3.5911 C   0  0  1  0  0  0  0  0  0  0  0  0
    2.3384    2.7717    3.7912 C   0  0  0  0  0  0  0  0  0  0  0  0
   -2.8698    1.9648    1.6284 N   0  3  0  0  0  0  0  0  0  0  0  0
    3.0750    2.6954    2.5069 N   0  3  0  0  0  0  0  0  0  0  0  0
   -1.6386    3.7915    3.5050 O   0  0  0  0  0  0  0  0  0  0  0  0
    0.9062    0.2288    4.2161 O   0  0  0  0  0  0  0  0  0  0  0  0
    0.4218    3.4799    2.5620 O   0  0  0  0  0  0  0  0  0  0  0  0
  1  2  1  0  0  0  0
  1 10  1  0  0  0  0
  1 21  1  6  0  0  0
  2  3  1  0  0  0  0
  2  7  1  6  0  0  0
  3  4  1  0  0  0  0
  3  8  1  6  0  0  0
  4  5  1  0  0  0  0
  4  9  1  6  0  0  0
  5  6  1  1  0  0  0
  5 10  1  0  0  0  0
  6 11  1  0  0  0  0
 12 13  1  0  0  0  0
 12 17  1  0  0  0  0
 12 18  1  6  0  0  0
 13 14  1  0  0  0  0
 14 15  1  0  0  0  0
 14 19  1  1  0  0  0
 15 16  1  0  0  0  0
 15 30  1  1  0  0  0
 16 17  1  0  0  0  0
 16 20  1  6  0  0  0
 17 21  1  6  0  0  0
 22 23  1  0  0  0  0
 22 30  1  1  0  0  0
 22 32  1  0  0  0  0
 23 24  1  0  0  0  0
 23 28  1  1  0  0  0
 24 25  1  0  0  0  0
 25 26  1  0  0  0  0
 25 31  1  1  0  0  0
 26 27  1  6  0  0  0
 26 32  1  0  0  0  0
 27 29  1  0  0  0  0
M  CHG  5   8   1  18   1  19   1  28   1  29   1
M  END
>  <CHROM.1>
-131.91727794,163.89840071,-177.10588504,-52.39013420,62.02793310,-179.94346964
-156.34217509,127.76112677,-163.20724084,-64.31110308,-49.12514804,-137.24285064
-91.69998751,-70.33537890,69.23504093,-63.77338753,-3.71599346,5.07948121
2.64219287,2.86440590,-0.49619878,0.72276681

>  <Name>
1tob

>  <RI>
0

>  <Rbt.Current_Directory>
/home/itssahil/PROJECTS/Mol_Feturizer/New_Systems/rnas/1tob

>  <Rbt.Executable>
rbdock ($Id: //depot/dev/client3/rdock/2013.1/src/exe/rbdock.cxx#4 $)

>  <Rbt.Library>
libRbt.so (2013.1, Build901 2013/11/27)

>  <Rbt.Parameter_File>
/export/apps/rDock/src/rDock_2013.1_src/data/scripts/dock_solv.prm

>  <Rbt.Receptor>
prm/pocket_docking_5.prm

>  <SCORE>
-53.3651

>  <SCORE.INTER>
-50.8537

>  <SCORE.INTER.CONST>
1

>  <SCORE.INTER.POLAR>
-7.45298

>  <SCORE.INTER.ROT>
6

>  <SCORE.INTER.SOLV>
29.4166

>  <SCORE.INTER.VDW>
-26.4647

>  <SCORE.INTER.norm>
-1.58918

>  <SCORE.INTRA>
-2.51142

>  <SCORE.INTRA.DIHEDRAL>
0.64671

>  <SCORE.INTRA.DIHEDRAL.0>
22.9177

>  <SCORE.INTRA.POLAR>
-1.50601

>  <SCORE.INTRA.POLAR.0>
-0.311208

>  <SCORE.INTRA.REPUL>
0

>  <SCORE.INTRA.REPUL.0>
0

>  <SCORE.INTRA.SOLV>
0.0109676

>  <SCORE.INTRA.SOLV.lig_0>
-132.657

>  <SCORE.INTRA.VDW>
2.28019

>  <SCORE.INTRA.VDW.0>
-4.68867

>  <SCORE.INTRA.norm>
-0.0784819

>  <SCORE.RESTR>
0

>  <SCORE.RESTR.CAVITY>
0

>  <SCORE.RESTR.norm>
0

>  <SCORE.SYSTEM>
0

>  <SCORE.SYSTEM.CONST>
0

>  <SCORE.SYSTEM.DIHEDRAL>
0

>  <SCORE.SYSTEM.SOLV>
0

>  <SCORE.SYSTEM.norm>
0

>  <SCORE.heavy>
32

>  <SCORE.norm>
-1.66766

>  <RMSD>
8.901

$$$$
1tob
 OpenBabel11021811413D
libRbt.so/2013.1/901 2013/11/27
 32 34  0  0  0  0  0  0  0  0999 V2000
   -6.7605    8.9587    3.0207 C   0  0  2  0  0  0  0  0  0  0  0  0
   -7.9220    9.7679    3.5927 C   0  0  1  0  0  0  0  0  0  0  0  0
   -9.1880    8.9220    3.5873 C   0  0  2  0  0  0  0  0  0  0  0  0
   -9.4534    8.4178    2.1739 C   0  0  1  0  0  0  0  0  0  0  0  0
   -8.2351    7.6574    1.6574 C   0  0  1  0  0  0  0  0  0  0  0  0
   -8.4082    7.1953    0.2238 C   0  0  0  0  0  0  0  0  0  0  0  0
   -7.6191   10.1679    4.9216 O   0  0  0  0  0  0  0  0  0  0  0  0
  -10.3377    9.6784    4.1291 N   0  3  0  0  0  0  0  0  0  0  0  0
  -10.5948    7.5708    2.1720 O   0  0  0  0  0  0  0  0  0  0  0  0
   -7.0685    8.5076    1.6956 O   0  0  0  0  0  0  0  0  0  0  0  0
   -8.5804    8.2951   -0.6587 O   0  0  0  0  0  0  0  0  0  0  0  0
   -4.9256    7.6048    5.6211 C   0  0  2  0  0  0  0  0  0  0  0  0
   -3.4577    7.3460    5.9317 C   0  0  0  0  0  0  0  0  0  0  0  0
   -3.0140    6.0081    5.3397 C   0  0  1  0  0  0  0  0  0  0  0  0
   -3.2130    6.0240    3.8257 C   0  0  2  0  0  0  0  0  0  0  0  0
   -4.6820    6.2910    3.4944 C   0  0  1  0  0  0  0  0  0  0  0  0
   -5.1281    7.6151    4.1137 C   0  0  1  0  0  0  0  0  0  0  0  0
   -5.3519    8.9136    6.1632 N   0  3  0  0  0  0  0  0  0  0  0  0
   -1.6055    5.7286    5.7219 N   0  3  0  0  0  0  0  0  0  0  0  0
   -4.8581    6.3329    2.0847 O   0  0  0  0  0  0  0  0  0  0  0  0
   -6.5151    7.8525    3.8124 O   0  0  0  0  0  0  0  0  0  0  0  0
   -1.5938    4.7717    2.5712 C   0  0  1  0  0  0  0  0  0  0  0  0
   -1.8049    4.3345    1.1206 C   0  0  1  0  0  0  0  0  0  0  0  0
   -2.3111    2.9008    1.0702 C   0  0  0  0  0  0  0  0  0  0  0  0
   -1.3460    2.0020    1.8259 C   0  0  1  0  0  0  0  0  0  0  0  0
   -1.1725    2.5165    3.2544 C   0  0  1  0  0  0  0  0  0  0  0  0
   -0.1738    1.6989    4.0534 C   0  0  0  0  0  0  0  0  0  0  0  0
   -2.7088    5.2680    0.4078 N   0  3  0  0  0  0  0  0  0  0  0  0
    1.1710    1.7242    3.4301 N   0  3  0  0  0  0  0  0  0  0  0  0
   -2.8017    4.7644    3.2560 O   0  0  0  0  0  0  0  0  0  0  0  0
   -1.8387    0.6702    1.8471 O   0  0  0  0  0  0  0  0  0  0  0  0
   -0.6930    3.8786    3.2377 O   0  0  0  0  0  0  0  0  0  0  0  0
  1  2  1  0  0  0  0
  1 10  1  0  0  0  0
  1 21  1  1  0  0  0
  2  3  1  0  0  0  0
  2  7  1  1  0  0  0
  3  4  1  0  0  0  0
  3  8  1  6  0  0  0
  4  5  1  0  0  0  0
  4  9  1  1  0  0  0
  5  6  1  6  0  0  0
  5 10  1  0  0  0  0
  6 11  1  0  0  0  0
 12 13  1  0  0  0  0
 12 17  1  0  0  0  0
 12 18  1  6  0  0  0
 13 14  1  0  0  0  0
 14 15  1  0  0  0  0
 14 19  1  6  0  0  0
 15 16  1  0  0  0  0
 15 30  1  1  0  0  0
 16 17  1  0  0  0  0
 16 20  1  6  0  0  0
 17 21  1  1  0  0  0
 22 23  1  0  0  0  0
 22 30  1  1  0  0  0
 22 32  1  0  0  0  0
 23 24  1  0  0  0  0
 23 28  1  1  0  0  0
 24 25  1  0  0  0  0
 25 26  1  0  0  0  0
 25 31  1  1  0  0  0
 26 27  1  1  0  0  0
 26 32  1  0  0  0  0
 27 29  1  0  0  0  0
M  CHG  5   8   1  18   1  19   1  28   1  29   1
M  END
>  <CHROM.1>
-134.51946806,66.45085252,63.35808870,-58.53199716,61.45950936,62.39226597
75.26158283,-146.87585793,-105.42271493,-172.80004226,122.16454419,-120.90392049
-41.39350164,-48.98888853,60.29380119,57.51354339,-4.77366653,6.24220401
3.07683447,-2.79699486,0.57508717,-2.15583581

>  <Name>
1tob

>  <RI>
0

>  <Rbt.Current_Directory>
/home/itssahil/PROJECTS/Mol_Feturizer/New_Systems/rnas/1tob

>  <Rbt.Executable>
rbdock ($Id: //depot/dev/client3/rdock/2013.1/src/exe/rbdock.cxx#4 $)

>  <Rbt.Library>
libRbt.so (2013.1, Build901 2013/11/27)

>  <Rbt.Parameter_File>
/export/apps/rDock/src/rDock_2013.1_src/data/scripts/dock_solv.prm

>  <Rbt.Receptor>
prm/pocket_docking_3.prm

>  <SCORE>
-45.5939

>  <SCORE.INTER>
-42.2824

>  <SCORE.INTER.CONST>
1

>  <SCORE.INTER.POLAR>
-5.36694

>  <SCORE.INTER.ROT>
6

>  <SCORE.INTER.SOLV>
31.7967

>  <SCORE.INTER.VDW>
-28.4974

>  <SCORE.INTER.norm>
-1.32133

>  <SCORE.INTRA>
-3.31147

>  <SCORE.INTRA.DIHEDRAL>
8.47467

>  <SCORE.INTRA.DIHEDRAL.0>
22.9177

>  <SCORE.INTRA.POLAR>
-2.27279

>  <SCORE.INTRA.POLAR.0>
-0.311208

>  <SCORE.INTRA.REPUL>
0

>  <SCORE.INTRA.REPUL.0>
0

>  <SCORE.INTRA.SOLV>
1.04978

>  <SCORE.INTRA.SOLV.lig_0>
-132.657

>  <SCORE.INTRA.VDW>
-0.346202

>  <SCORE.INTRA.VDW.0>
-4.68867

>  <SCORE.INTRA.norm>
-0.103483

>  <SCORE.RESTR>
0

>  <SCORE.RESTR.CAVITY>
0

>  <SCORE.RESTR.norm>
0

>  <SCORE.SYSTEM>
0

>  <SCORE.SYSTEM.CONST>
0

>  <SCORE.SYSTEM.DIHEDRAL>
0

>  <SCORE.SYSTEM.SOLV>
0

>  <SCORE.SYSTEM.norm>
0

>  <SCORE.heavy>
32

>  <SCORE.norm>
-1.42481

>  <RMSD>
8.906

$$$$
1tob
 OpenBabel11021811413D
libRbt.so/2013.1/901 2013/11/27
 32 34  0  0  0  0  0  0  0  0999 V2000
   -7.1025    8.8789    2.5287 C   0  0  2  0  0  0  0  0  0  0  0  0
   -7.0572   10.3681    2.8624 C   0  0  1  0  0  0  0  0  0  0  0  0
   -8.1616   10.7050    3.8549 C   0  0  2  0  0  0  0  0  0  0  0  0
   -9.5048   10.2634    3.2864 C   0  0  1  0  0  0  0  0  0  0  0  0
   -9.4578    8.7778    2.9398 C   0  0  1  0  0  0  0  0  0  0  0  0
  -10.7427    8.2942    2.2967 C   0  0  0  0  0  0  0  0  0  0  0  0
   -5.7937   10.6957    3.4225 O   0  0  0  0  0  0  0  0  0  0  0  0
   -8.1522   12.1442    4.1957 N   0  3  0  0  0  0  0  0  0  0  0  0
  -10.5335   10.5113    4.2352 O   0  0  0  0  0  0  0  0  0  0  0  0
   -8.3877    8.5215    2.0046 O   0  0  0  0  0  0  0  0  0  0  0  0
  -10.4920    7.6552    1.0529 O   0  0  0  0  0  0  0  0  0  0  0  0
   -5.2242    7.7679    5.4034 C   0  0  2  0  0  0  0  0  0  0  0  0
   -3.7651    7.4088    5.6491 C   0  0  0  0  0  0  0  0  0  0  0  0
   -3.4400    6.0455    5.0381 C   0  0  1  0  0  0  0  0  0  0  0  0
   -3.7037    6.0796    3.5344 C   0  0  2  0  0  0  0  0  0  0  0  0
   -5.1643    6.4470    3.2680 C   0  0  1  0  0  0  0  0  0  0  0  0
   -5.4915    7.7965    3.9064 C   0  0  1  0  0  0  0  0  0  0  0  0
   -5.5362    9.1009    5.9638 N   0  3  0  0  0  0  0  0  0  0  0  0
   -2.0385    5.6697    5.3580 N   0  3  0  0  0  0  0  0  0  0  0  0
   -5.3988    6.5050    1.8674 O   0  0  0  0  0  0  0  0  0  0  0  0
   -6.8710    8.1286    3.6664 O   0  0  0  0  0  0  0  0  0  0  0  0
   -2.6845    4.8236    1.7603 C   0  0  1  0  0  0  0  0  0  0  0  0
   -2.9740    3.5677    0.9365 C   0  0  1  0  0  0  0  0  0  0  0  0
   -2.5095    2.3273    1.6850 C   0  0  0  0  0  0  0  0  0  0  0  0
   -1.0392    2.4778    2.0399 C   0  0  1  0  0  0  0  0  0  0  0  0
   -0.8304    3.7627    2.8405 C   0  0  1  0  0  0  0  0  0  0  0  0
    0.6282    4.0092    3.1809 C   0  0  0  0  0  0  0  0  0  0  0  0
   -4.4073    3.4897    0.5678 N   0  3  0  0  0  0  0  0  0  0  0  0
    1.5123    3.7144    2.0280 N   0  3  0  0  0  0  0  0  0  0  0  0
   -3.4047    4.7966    2.9471 O   0  0  0  0  0  0  0  0  0  0  0  0
   -0.6064    1.3582    2.7990 O   0  0  0  0  0  0  0  0  0  0  0  0
   -1.2902    4.9019    2.0814 O   0  0  0  0  0  0  0  0  0  0  0  0
  1  2  1  0  0  0  0
  1 10  1  0  0  0  0
  1 21  1  1  0  0  0
  2  3  1  0  0  0  0
  2  7  1  1  0  0  0
  3  4  1  0  0  0  0
  3  8  1  6  0  0  0
  4  5  1  0  0  0  0
  4  9  1  1  0  0  0
  5  6  1  6  0  0  0
  5 10  1  0  0  0  0
  6 11  1  0  0  0  0
 12 13  1  0  0  0  0
 12 17  1  0  0  0  0
 12 18  1  6  0  0  0
 13 14  1  0  0  0  0
 14 15  1  0  0  0  0
 14 19  1  6  0  0  0
 15 16  1  0  0  0  0
 15 30  1  1  0  0  0
 16 17  1  0  0  0  0
 16 20  1  6  0  0  0
 17 21  1  1  0  0  0
 22 23  1  0  0  0  0
 22 30  1  1  0  0  0
 22 32  1  0  0  0  0
 23 24  1  0  0  0  0
 23 28  1  1  0  0  0
 24 25  1  0  0  0  0
 25 26  1  0  0  0  0
 25 31  1  1  0  0  0
 26 27  1  6  0  0  0
 26 32  1  0  0  0  0
 27 29  1  0  0  0  0
M  CHG  5   8   1  18   1  19   1  28   1  29   1
M  END
>  <CHROM.1>
-90.97179720,179.11846035,149.54406043,173.42061592,125.76136942,91.81413191
-35.17803619,137.23640941,-135.45589666,89.32335931,145.98466743,-154.11562226
77.63327821,66.04686374,42.37868976,-82.74022101,-4.99531853,6.78959497,3.09185264
2.56297090,-0.40617191,0.67820997

>  <Name>
1tob

>  <RI>
0

>  <Rbt.Current_Directory>
/home/itssahil/PROJECTS/Mol_Feturizer/New_Systems/rnas/1tob

>  <Rbt.Executable>
rbdock ($Id: //depot/dev/client3/rdock/2013.1/src/exe/rbdock.cxx#4 $)

>  <Rbt.Library>
libRbt.so (2013.1, Build901 2013/11/27)

>  <Rbt.Parameter_File>
/export/apps/rDock/src/rDock_2013.1_src/data/scripts/dock_solv.prm

>  <Rbt.Receptor>
prm/pocket_docking_3.prm

>  <SCORE>
-54.767

>  <SCORE.INTER>
-62.4785

>  <SCORE.INTER.CONST>
1

>  <SCORE.INTER.POLAR>
-9.0511

>  <SCORE.INTER.ROT>
6

>  <SCORE.INTER.SOLV>
34.7569

>  <SCORE.INTER.VDW>
-30.6676

>  <SCORE.INTER.norm>
-1.95245

>  <SCORE.INTRA>
7.16052

>  <SCORE.INTRA.DIHEDRAL>
16.2302

>  <SCORE.INTRA.DIHEDRAL.0>
22.9177

>  <SCORE.INTRA.POLAR>
-0.780744

>  <SCORE.INTRA.POLAR.0>
-0.311208

>  <SCORE.INTRA.REPUL>
0

>  <SCORE.INTRA.REPUL.0>
0

>  <SCORE.INTRA.SOLV>
1.51932

>  <SCORE.INTRA.SOLV.lig_0>
-132.657

>  <SCORE.INTRA.VDW>
0.940287

>  <SCORE.INTRA.VDW.0>
-4.68867

>  <SCORE.INTRA.norm>
0.223766

>  <SCORE.RESTR>
0.55098

>  <SCORE.RESTR.CAVITY>
0.55098

>  <SCORE.RESTR.norm>
0.0172181

>  <SCORE.SYSTEM>
0

>  <SCORE.SYSTEM.CONST>
0

>  <SCORE.SYSTEM.DIHEDRAL>
0

>  <SCORE.SYSTEM.SOLV>
0

>  <SCORE.SYSTEM.norm>
0

>  <SCORE.heavy>
32

>  <SCORE.norm>
-1.71147

>  <RMSD>
8.908

$$$$
1tob
 OpenBabel11021811413D
libRbt.so/2013.1/901 2013/11/27
 32 34  0  0  0  0  0  0  0  0999 V2000
   -4.1326    6.7799    3.3538 C   0  0  2  0  0  0  0  0  0  0  0  0
   -3.6345    7.5068    4.6006 C   0  0  1  0  0  0  0  0  0  0  0  0
   -4.8156    7.8603    5.4942 C   0  0  2  0  0  0  0  0  0  0  0  0
   -5.8282    8.6731    4.6963 C   0  0  1  0  0  0  0  0  0  0  0  0
   -6.2449    7.9005    3.4478 C   0  0  1  0  0  0  0  0  0  0  0  0
   -7.1953    8.6910    2.5703 C   0  0  0  0  0  0  0  0  0  0  0  0
   -2.7288    6.6746    5.3111 O   0  0  0  0  0  0  0  0  0  0  0  0
   -4.3699    8.5737    6.7106 N   0  3  0  0  0  0  0  0  0  0  0  0
   -6.9657    8.9490    5.5025 O   0  0  0  0  0  0  0  0  0  0  0  0
   -5.0835    7.5879    2.6488 O   0  0  0  0  0  0  0  0  0  0  0  0
   -6.5546    9.8233    1.9998 O   0  0  0  0  0  0  0  0  0  0  0  0
   -4.2471    4.2823    1.7344 C   0  0  2  0  0  0  0  0  0  0  0  0
   -3.5380    3.0257    1.2484 C   0  0  0  0  0  0  0  0  0  0  0  0
   -2.0525    3.0780    1.6065 C   0  0  1  0  0  0  0  0  0  0  0  0
   -1.8920    3.1930    3.1207 C   0  0  2  0  0  0  0  0  0  0  0  0
   -2.6057    4.4468    3.6283 C   0  0  1  0  0  0  0  0  0  0  0  0
   -4.0837    4.4029    3.2417 C   0  0  1  0  0  0  0  0  0  0  0  0
   -5.6914    4.2225    1.4199 N   0  3  0  0  0  0  0  0  0  0  0  0
   -1.3570    1.8872    1.0529 N   0  3  0  0  0  0  0  0  0  0  0  0
   -2.4778    4.5354    5.0411 O   0  0  0  0  0  0  0  0  0  0  0  0
   -4.7458    5.5926    3.7076 O   0  0  0  0  0  0  0  0  0  0  0  0
    0.2442    2.1009    3.2095 C   0  0  1  0  0  0  0  0  0  0  0  0
    0.8487    1.5541    4.5039 C   0  0  1  0  0  0  0  0  0  0  0  0
    1.8248    2.5595    5.0960 C   0  0  0  0  0  0  0  0  0  0  0  0
    2.8740    2.9122    4.0544 C   0  0  1  0  0  0  0  0  0  0  0  0
    2.1912    3.4281    2.7882 C   0  0  1  0  0  0  0  0  0  0  0  0
    3.1782    3.7459    1.6795 C   0  0  0  0  0  0  0  0  0  0  0  0
   -0.2102    1.1736    5.4685 N   0  3  0  0  0  0  0  0  0  0  0  0
    4.2142    2.6927    1.5563 N   0  3  0  0  0  0  0  0  0  0  0  0
   -0.4937    3.2477    3.4705 O   0  0  0  0  0  0  0  0  0  0  0  0
    3.7540    3.9016    4.5678 O   0  0  0  0  0  0  0  0  0  0  0  0
    1.2783    2.4338    2.2751 O   0  0  0  0  0  0  0  0  0  0  0  0
  1  2  1  0  0  0  0
  1 10  1  0  0  0  0
  1 21  1  1  0  0  0
  2  3  1  0  0  0  0
  2  7  1  1  0  0  0
  3  4  1  0  0  0  0
  3  8  1  1  0  0  0
  4  5  1  0  0  0  0
  4  9  1  1  0  0  0
  5  6  1  6  0  0  0
  5 10  1  0  0  0  0
  6 11  1  0  0  0  0
 12 13  1  0  0  0  0
 12 17  1  0  0  0  0
 12 18  1  1  0  0  0
 13 14  1  0  0  0  0
 14 15  1  0  0  0  0
 14 19  1  1  0  0  0
 15 16  1  0  0  0  0
 15 30  1  6  0  0  0
 16 17  1  0  0  0  0
 16 20  1  1  0  0  0
 17 21  1  6  0  0  0
 22 23  1  0  0  0  0
 22 30  1  1  0  0  0
 22 32  1  0  0  0  0
 23 24  1  0  0  0  0
 23 28  1  1  0  0  0
 24 25  1  0  0  0  0
 25 26  1  0  0  0  0
 25 31  1  1  0  0  0
 26 27  1  6  0  0  0
 26 32  1  0  0  0  0
 27 29  1  0  0  0  0
M  CHG  5   8   1  18   1  19   1  28   1  29   1
M  END
>  <CHROM.1>
-115.19467384,162.89483373,14.83565623,71.11263413,66.93132308,54.04294759
40.38384948,33.43756593,-65.93017106,47.36657414,-70.80864019,-120.11092556
172.60023641,-176.06603556,43.35426511,49.30613602,-2.19486911,4.93783194
3.48124466,2.67496458,-0.41934686,0.80887573

>  <Name>
1tob

>  <RI>
0

>  <Rbt.Current_Directory>
/home/itssahil/PROJECTS/Mol_Feturizer/New_Systems/rnas/1tob

>  <Rbt.Executable>
rbdock ($Id: //depot/dev/client3/rdock/2013.1/src/exe/rbdock.cxx#4 $)

>  <Rbt.Library>
libRbt.so (2013.1, Build901 2013/11/27)

>  <Rbt.Parameter_File>
/export/apps/rDock/src/rDock_2013.1_src/data/scripts/dock_solv.prm

>  <Rbt.Receptor>
prm/blind_docking_80.prm

>  <SCORE>
-16.0448

>  <SCORE.INTER>
-34.3736

>  <SCORE.INTER.CONST>
1

>  <SCORE.INTER.POLAR>
-5.81398

>  <SCORE.INTER.ROT>
6

>  <SCORE.INTER.SOLV>
47.6649

>  <SCORE.INTER.VDW>
-27.0241

>  <SCORE.INTER.norm>
-1.07417

>  <SCORE.INTRA>
9.08437

>  <SCORE.INTRA.DIHEDRAL>
2.00387

>  <SCORE.INTRA.DIHEDRAL.0>
22.9177

>  <SCORE.INTRA.POLAR>
-0.486033

>  <SCORE.INTRA.POLAR.0>
-0.311208

>  <SCORE.INTRA.REPUL>
0

>  <SCORE.INTRA.REPUL.0>
0

>  <SCORE.INTRA.SOLV>
0.737065

>  <SCORE.INTRA.SOLV.lig_0>
-132.657

>  <SCORE.INTRA.VDW>
9.36641

>  <SCORE.INTRA.VDW.0>
-4.68867

>  <SCORE.INTRA.norm>
0.283886

>  <SCORE.RESTR>
9.24436

>  <SCORE.RESTR.CAVITY>
9.24436

>  <SCORE.RESTR.norm>
0.288886

>  <SCORE.SYSTEM>
0

>  <SCORE.SYSTEM.CONST>
0

>  <SCORE.SYSTEM.DIHEDRAL>
0

>  <SCORE.SYSTEM.SOLV>
0

>  <SCORE.SYSTEM.norm>
0

>  <SCORE.heavy>
32

>  <SCORE.norm>
-0.501401

>  <RMSD>
8.911

$$$$
1tob
 OpenBabel11021811413D
libRbt.so/2013.1/901 2013/11/27
 32 34  0  0  0  0  0  0  0  0999 V2000
   -6.7844    8.5715    2.5787 C   0  0  2  0  0  0  0  0  0  0  0  0
   -6.4772   10.0382    2.8710 C   0  0  1  0  0  0  0  0  0  0  0  0
   -7.3983   10.5454    3.9722 C   0  0  2  0  0  0  0  0  0  0  0  0
   -8.8485   10.3106    3.5669 C   0  0  1  0  0  0  0  0  0  0  0  0
   -9.0660    8.8333    3.2513 C   0  0  1  0  0  0  0  0  0  0  0  0
  -10.4737    8.5479    2.7663 C   0  0  0  0  0  0  0  0  0  0  0  0
   -5.1235   10.1723    3.2795 O   0  0  0  0  0  0  0  0  0  0  0  0
   -7.1331   11.9681    4.2768 N   0  3  0  0  0  0  0  0  0  0  0  0
   -9.7136   10.7181    4.6183 O   0  0  0  0  0  0  0  0  0  0  0  0
   -8.1599    8.4115    2.2091 O   0  0  0  0  0  0  0  0  0  0  0  0
  -11.4376    8.8467    3.7662 O   0  0  0  0  0  0  0  0  0  0  0  0
   -4.9174    7.5096    5.4715 C   0  0  2  0  0  0  0  0  0  0  0  0
   -3.4476    7.2239    5.7476 C   0  0  0  0  0  0  0  0  0  0  0  0
   -3.0388    5.8849    5.1331 C   0  0  1  0  0  0  0  0  0  0  0  0
   -3.2702    5.9193    3.6241 C   0  0  2  0  0  0  0  0  0  0  0  0
   -4.7415    6.2134    3.3274 C   0  0  1  0  0  0  0  0  0  0  0  0
   -5.1523    7.5383    3.9691 C   0  0  1  0  0  0  0  0  0  0  0  0
   -5.3104    8.8195    6.0355 N   0  3  0  0  0  0  0  0  0  0  0  0
   -1.6272    5.5788    5.4818 N   0  3  0  0  0  0  0  0  0  0  0  0
   -4.9473    6.2723    1.9223 O   0  0  0  0  0  0  0  0  0  0  0  0
   -6.5413    7.8011    3.7004 O   0  0  0  0  0  0  0  0  0  0  0  0
   -2.3249    4.7259    1.7677 C   0  0  1  0  0  0  0  0  0  0  0  0
   -2.7005    3.4870    0.9529 C   0  0  1  0  0  0  0  0  0  0  0  0
   -2.1334    2.2350    1.6050 C   0  0  0  0  0  0  0  0  0  0  0  0
   -0.6322    2.3973    1.7793 C   0  0  1  0  0  0  0  0  0  0  0  0
   -0.3398    3.6646    2.5819 C   0  0  1  0  0  0  0  0  0  0  0  0
    1.1470    3.9231    2.7458 C   0  0  0  0  0  0  0  0  0  0  0  0
   -4.1675    3.3980    0.7623 N   0  3  0  0  0  0  0  0  0  0  0  0
    1.6783    3.2795    3.9710 N   0  3  0  0  0  0  0  0  0  0  0  0
   -2.8921    4.6590    3.0334 O   0  0  0  0  0  0  0  0  0  0  0  0
   -0.0964    1.2653    2.4490 O   0  0  0  0  0  0  0  0  0  0  0  0
   -0.9025    4.8158    1.9160 O   0  0  0  0  0  0  0  0  0  0  0  0
  1  2  1  0  0  0  0
  1 10  1  0  0  0  0
  1 21  1  1  0  0  0
  2  3  1  0  0  0  0
  2  7  1  1  0  0  0
  3  4  1  0  0  0  0
  3  8  1  6  0  0  0
  4  5  1  0  0  0  0
  4  9  1  1  0  0  0
  5  6  1  6  0  0  0
  5 10  1  0  0  0  0
  6 11  1  0  0  0  0
 12 13  1  0  0  0  0
 12 17  1  0  0  0  0
 12 18  1  6  0  0  0
 13 14  1  0  0  0  0
 14 15  1  0  0  0  0
 14 19  1  6  0  0  0
 15 16  1  0  0  0  0
 15 30  1  1  0  0  0
 16 17  1  0  0  0  0
 16 20  1  6  0  0  0
 17 21  1  1  0  0  0
 22 23  1  0  0  0  0
 22 30  1  1  0  0  0
 22 32  1  0  0  0  0
 23 24  1  0  0  0  0
 23 28  1  1  0  0  0
 24 25  1  0  0  0  0
 25 26  1  0  0  0  0
 25 31  1  1  0  0  0
 26 27  1  6  0  0  0
 26 32  1  0  0  0  0
 27 29  1  0  0  0  0
M  CHG  5   8   1  18   1  19   1  28   1  29   1
M  END
>  <CHROM.1>
-76.38020887,162.46624519,-49.78300402,-177.04217768,-62.94253262,-177.31039753
-155.36791344,-144.98170367,-144.71313098,-63.32322051,144.75536459,-147.32221931
-157.50816884,167.81453539,-90.09501684,-173.55581892,-4.60209896,6.69364359
3.30266890,2.54707148,-0.37944873,0.67303682

>  <Name>
1tob

>  <RI>
0

>  <Rbt.Current_Directory>
/home/itssahil/PROJECTS/Mol_Feturizer/New_Systems/rnas/1tob

>  <Rbt.Executable>
rbdock ($Id: //depot/dev/client3/rdock/2013.1/src/exe/rbdock.cxx#4 $)

>  <Rbt.Library>
libRbt.so (2013.1, Build901 2013/11/27)

>  <Rbt.Parameter_File>
/export/apps/rDock/src/rDock_2013.1_src/data/scripts/dock_solv.prm

>  <Rbt.Receptor>
prm/pocket_docking_4.prm

>  <SCORE>
-57.7933

>  <SCORE.INTER>
-55.8937

>  <SCORE.INTER.CONST>
1

>  <SCORE.INTER.POLAR>
-7.379

>  <SCORE.INTER.ROT>
6

>  <SCORE.INTER.SOLV>
30.3624

>  <SCORE.INTER.VDW>
-30.3866

>  <SCORE.INTER.norm>
-1.74668

>  <SCORE.INTRA>
-2.00658

>  <SCORE.INTRA.DIHEDRAL>
1.62107

>  <SCORE.INTRA.DIHEDRAL.0>
22.9177

>  <SCORE.INTRA.POLAR>
-1.35262

>  <SCORE.INTRA.POLAR.0>
-0.311208

>  <SCORE.INTRA.REPUL>
0

>  <SCORE.INTRA.REPUL.0>
0

>  <SCORE.INTRA.SOLV>
1.70867

>  <SCORE.INTRA.SOLV.lig_0>
-132.657

>  <SCORE.INTRA.VDW>
0.927449

>  <SCORE.INTRA.VDW.0>
-4.68867

>  <SCORE.INTRA.norm>
-0.0627057

>  <SCORE.RESTR>
0.106931

>  <SCORE.RESTR.CAVITY>
0.106931

>  <SCORE.RESTR.norm>
0.00334158

>  <SCORE.SYSTEM>
0

>  <SCORE.SYSTEM.CONST>
0

>  <SCORE.SYSTEM.DIHEDRAL>
0

>  <SCORE.SYSTEM.SOLV>
0

>  <SCORE.SYSTEM.norm>
0

>  <SCORE.heavy>
32

>  <SCORE.norm>
-1.80604

>  <RMSD>
8.918

$$$$
1tob
 OpenBabel11021811413D
libRbt.so/2013.1/901 2013/11/27
 32 34  0  0  0  0  0  0  0  0999 V2000
   -5.2799    7.2927    0.8112 C   0  0  2  0  0  0  0  0  0  0  0  0
   -5.9059    8.6819    0.7144 C   0  0  1  0  0  0  0  0  0  0  0  0
   -7.4066    8.5858    0.9531 C   0  0  2  0  0  0  0  0  0  0  0  0
   -8.0123    7.5906   -0.0293 C   0  0  1  0  0  0  0  0  0  0  0  0
   -7.3084    6.2424    0.0982 C   0  0  1  0  0  0  0  0  0  0  0  0
   -7.8154    5.2291   -0.9091 C   0  0  0  0  0  0  0  0  0  0  0  0
   -5.3209    9.5399    1.6836 O   0  0  0  0  0  0  0  0  0  0  0  0
   -8.0482    9.9151    0.8592 N   0  3  0  0  0  0  0  0  0  0  0  0
   -9.4017    7.4428    0.2312 O   0  0  0  0  0  0  0  0  0  0  0  0
   -5.8912    6.4008   -0.1294 O   0  0  0  0  0  0  0  0  0  0  0  0
   -7.5945    5.6673   -2.2422 O   0  0  0  0  0  0  0  0  0  0  0  0
   -4.6236    7.0216    4.3401 C   0  0  2  0  0  0  0  0  0  0  0  0
   -3.3623    6.9591    5.1907 C   0  0  0  0  0  0  0  0  0  0  0  0
   -2.7148    5.5780    5.0857 C   0  0  1  0  0  0  0  0  0  0  0  0
   -2.3554    5.2877    3.6302 C   0  0  2  0  0  0  0  0  0  0  0  0
   -3.6104    5.3541    2.7586 C   0  0  1  0  0  0  0  0  0  0  0  0
   -4.2697    6.7266    2.8906 C   0  0  1  0  0  0  0  0  0  0  0  0
   -5.2365    8.3660    4.4118 N   0  3  0  0  0  0  0  0  0  0  0  0
   -1.5344    5.5036    5.9853 N   0  3  0  0  0  0  0  0  0  0  0  0
   -3.2675    5.1110    1.4009 O   0  0  0  0  0  0  0  0  0  0  0  0
   -5.4586    6.7771    2.0813 O   0  0  0  0  0  0  0  0  0  0  0  0
   -1.2028    3.6720    2.2794 C   0  0  1  0  0  0  0  0  0  0  0  0
   -1.7486    2.3316    1.7840 C   0  0  1  0  0  0  0  0  0  0  0  0
   -1.3303    1.2117    2.7249 C   0  0  0  0  0  0  0  0  0  0  0  0
    0.1827    1.2185    2.8703 C   0  0  1  0  0  0  0  0  0  0  0  0
    0.6492    2.5939    3.3460 C   0  0  1  0  0  0  0  0  0  0  0  0
    2.1598    2.6927    3.4578 C   0  0  0  0  0  0  0  0  0  0  0  0
   -3.2188    2.3869    1.6055 N   0  3  0  0  0  0  0  0  0  0  0  0
    2.5668    3.8030    4.3519 N   0  3  0  0  0  0  0  0  0  0  0  0
   -1.7474    3.9846    3.5178 O   0  0  0  0  0  0  0  0  0  0  0  0
    0.5853    0.2224    3.7989 O   0  0  0  0  0  0  0  0  0  0  0  0
    0.2223    3.6130    2.4161 O   0  0  0  0  0  0  0  0  0  0  0  0
  1  2  1  0  0  0  0
  1 10  1  0  0  0  0
  1 21  1  1  0  0  0
  2  3  1  0  0  0  0
  2  7  1  1  0  0  0
  3  4  1  0  0  0  0
  3  8  1  6  0  0  0
  4  5  1  0  0  0  0
  4  9  1  1  0  0  0
  5  6  1  6  0  0  0
  5 10  1  0  0  0  0
  6 11  1  0  0  0  0
 12 13  1  0  0  0  0
 12 17  1  0  0  0  0
 12 18  1  6  0  0  0
 13 14  1  0  0  0  0
 14 15  1  0  0  0  0
 14 19  1  1  0  0  0
 15 16  1  0  0  0  0
 15 30  1  1  0  0  0
 16 17  1  0  0  0  0
 16 20  1  6  0  0  0
 17 21  1  6  0  0  0
 22 23  1  0  0  0  0
 22 30  1  1  0  0  0
 22 32  1  0  0  0  0
 23 24  1  0  0  0  0
 23 28  1  1  0  0  0
 24 25  1  0  0  0  0
 25 26  1  0  0  0  0
 25 31  1  1  0  0  0
 26 27  1  6  0  0  0
 26 32  1  0  0  0  0
 27 29  1  0  0  0  0
M  CHG  5   8   1  18   1  19   1  28   1  29   1
M  END
>  <CHROM.1>
-107.83627366,176.06845320,58.36029463,-87.95927603,60.93089761,170.86226911
19.16114829,-35.89277414,-171.31430529,-58.30732235,144.07284180,-127.62425645
32.82831022,-72.56499460,-159.52478103,-172.69032121,-3.67969164,5.42886714
2.24575711,2.93150943,-0.63849496,0.68735215

>  <Name>
1tob

>  <RI>
0

>  <Rbt.Current_Directory>
/home/itssahil/PROJECTS/Mol_Feturizer/New_Systems/rnas/1tob

>  <Rbt.Executable>
rbdock ($Id: //depot/dev/client3/rdock/2013.1/src/exe/rbdock.cxx#4 $)

>  <Rbt.Library>
libRbt.so (2013.1, Build901 2013/11/27)

>  <Rbt.Parameter_File>
/export/apps/rDock/src/rDock_2013.1_src/data/scripts/dock_solv.prm

>  <Rbt.Receptor>
prm/pocket_docking_4.prm

>  <SCORE>
-48.7774

>  <SCORE.INTER>
-46.4627

>  <SCORE.INTER.CONST>
1

>  <SCORE.INTER.POLAR>
-6.6164

>  <SCORE.INTER.ROT>
6

>  <SCORE.INTER.SOLV>
27.4141

>  <SCORE.INTER.VDW>
-25.6585

>  <SCORE.INTER.norm>
-1.45196

>  <SCORE.INTRA>
-2.3155

>  <SCORE.INTRA.DIHEDRAL>
7.04985

>  <SCORE.INTRA.DIHEDRAL.0>
22.9177

>  <SCORE.INTRA.POLAR>
-2.03609

>  <SCORE.INTRA.POLAR.0>
-0.311208

>  <SCORE.INTRA.REPUL>
0

>  <SCORE.INTRA.REPUL.0>
0

>  <SCORE.INTRA.SOLV>
-1.70991

>  <SCORE.INTRA.SOLV.lig_0>
-132.657

>  <SCORE.INTRA.VDW>
1.93724

>  <SCORE.INTRA.VDW.0>
-4.68867

>  <SCORE.INTRA.norm>
-0.0723594

>  <SCORE.RESTR>
0.000759386

>  <SCORE.RESTR.CAVITY>
0.000759386

>  <SCORE.RESTR.norm>
2.37308e-05

>  <SCORE.SYSTEM>
0

>  <SCORE.SYSTEM.CONST>
0

>  <SCORE.SYSTEM.DIHEDRAL>
0

>  <SCORE.SYSTEM.SOLV>
0

>  <SCORE.SYSTEM.norm>
0

>  <SCORE.heavy>
32

>  <SCORE.norm>
-1.52429

>  <RMSD>
8.921

$$$$
1tob
 OpenBabel11021811413D
libRbt.so/2013.1/901 2013/11/27
 32 34  0  0  0  0  0  0  0  0999 V2000
   -5.6944    4.7759    2.0865 C   0  0  2  0  0  0  0  0  0  0  0  0
   -5.7567    3.9350    0.8136 C   0  0  1  0  0  0  0  0  0  0  0  0
   -6.4134    4.7390   -0.3003 C   0  0  2  0  0  0  0  0  0  0  0  0
   -7.7835    5.2197    0.1628 C   0  0  1  0  0  0  0  0  0  0  0  0
   -7.6434    6.0141    1.4584 C   0  0  1  0  0  0  0  0  0  0  0  0
   -8.9838    6.4555    2.0126 C   0  0  0  0  0  0  0  0  0  0  0  0
   -4.4440    3.5590    0.4228 O   0  0  0  0  0  0  0  0  0  0  0  0
   -6.4974    3.9510   -1.5490 N   0  3  0  0  0  0  0  0  0  0  0  0
   -8.3750    6.0288   -0.8448 O   0  0  0  0  0  0  0  0  0  0  0  0
   -7.0077    5.2030    2.4699 O   0  0  0  0  0  0  0  0  0  0  0  0
   -9.3869    7.7024    1.4642 O   0  0  0  0  0  0  0  0  0  0  0  0
   -4.3243    6.2553    4.1989 C   0  0  2  0  0  0  0  0  0  0  0  0
   -3.1464    6.4026    5.1523 C   0  0  0  0  0  0  0  0  0  0  0  0
   -2.2614    5.1568    5.1047 C   0  0  1  0  0  0  0  0  0  0  0  0
   -1.7375    4.9517    3.6851 C   0  0  2  0  0  0  0  0  0  0  0  0
   -2.9083    4.8097    2.7113 C   0  0  1  0  0  0  0  0  0  0  0  0
   -3.8056    6.0446    2.7848 C   0  0  1  0  0  0  0  0  0  0  0  0
   -5.1663    7.4716    4.2162 N   0  3  0  0  0  0  0  0  0  0  0  0
   -1.1648    5.2776    6.1002 N   0  3  0  0  0  0  0  0  0  0  0  0
   -2.4170    4.6470    1.3876 O   0  0  0  0  0  0  0  0  0  0  0  0
   -4.9139    5.8977    1.8787 O   0  0  0  0  0  0  0  0  0  0  0  0
   -0.3135    3.5090    2.3988 C   0  0  1  0  0  0  0  0  0  0  0  0
   -0.7739    2.1478    1.8743 C   0  0  1  0  0  0  0  0  0  0  0  0
   -0.3190    1.0398    2.8123 C   0  0  0  0  0  0  0  0  0  0  0  0
    1.1874    1.1259    2.9957 C   0  0  1  0  0  0  0  0  0  0  0  0
    1.5673    2.5180    3.4990 C   0  0  1  0  0  0  0  0  0  0  0  0
    3.0672    2.6962    3.6500 C   0  0  0  0  0  0  0  0  0  0  0  0
   -2.2401    2.1266    1.6595 N   0  3  0  0  0  0  0  0  0  0  0  0
    3.7684    2.5167    2.3562 N   0  3  0  0  0  0  0  0  0  0  0  0
   -0.9043    3.7758    3.6268 O   0  0  0  0  0  0  0  0  0  0  0  0
    1.6204    0.1408    3.9225 O   0  0  0  0  0  0  0  0  0  0  0  0
    1.1090    3.5247    2.5707 O   0  0  0  0  0  0  0  0  0  0  0  0
  1  2  1  0  0  0  0
  1 10  1  0  0  0  0
  1 21  1  6  0  0  0
  2  3  1  0  0  0  0
  2  7  1  6  0  0  0
  3  4  1  0  0  0  0
  3  8  1  6  0  0  0
  4  5  1  0  0  0  0
  4  9  1  6  0  0  0
  5  6  1  1  0  0  0
  5 10  1  0  0  0  0
  6 11  1  0  0  0  0
 12 13  1  0  0  0  0
 12 17  1  0  0  0  0
 12 18  1  6  0  0  0
 13 14  1  0  0  0  0
 14 15  1  0  0  0  0
 14 19  1  1  0  0  0
 15 16  1  0  0  0  0
 15 30  1  1  0  0  0
 16 17  1  0  0  0  0
 16 20  1  6  0  0  0
 17 21  1  6  0  0  0
 22 23  1  0  0  0  0
 22 30  1  1  0  0  0
 22 32  1  0  0  0  0
 23 24  1  0  0  0  0
 23 28  1  1  0  0  0
 24 25  1  0  0  0  0
 25 26  1  0  0  0  0
 25 31  1  1  0  0  0
 26 27  1  6  0  0  0
 26 32  1  0  0  0  0
 27 29  1  0  0  0  0
M  CHG  5   8   1  18   1  19   1  28   1  29   1
M  END
>  <CHROM.1>
-123.28718687,154.72477384,60.63239580,161.15631638,-87.60718113,67.33844568
-102.46324957,-145.89417508,-177.22035457,-167.87261865,-64.85365295,-119.38378793
-75.44612785,176.07044760,60.61702224,68.18456612,-3.19909934,4.36420759
2.36567861,3.10260889,-0.44266491,0.91600657

>  <Name>
1tob

>  <RI>
0

>  <Rbt.Current_Directory>
/home/itssahil/PROJECTS/Mol_Feturizer/New_Systems/rnas/1tob

>  <Rbt.Executable>
rbdock ($Id: //depot/dev/client3/rdock/2013.1/src/exe/rbdock.cxx#4 $)

>  <Rbt.Library>
libRbt.so (2013.1, Build901 2013/11/27)

>  <Rbt.Parameter_File>
/export/apps/rDock/src/rDock_2013.1_src/data/scripts/dock_solv.prm

>  <Rbt.Receptor>
prm/blind_docking_100.prm

>  <SCORE>
-38.6461

>  <SCORE.INTER>
-51.55

>  <SCORE.INTER.CONST>
1

>  <SCORE.INTER.POLAR>
-7.3134

>  <SCORE.INTER.ROT>
6

>  <SCORE.INTER.SOLV>
33.4591

>  <SCORE.INTER.VDW>
-28.7417

>  <SCORE.INTER.norm>
-1.61094

>  <SCORE.INTRA>
4.61088

>  <SCORE.INTRA.DIHEDRAL>
5.01706

>  <SCORE.INTRA.DIHEDRAL.0>
22.9177

>  <SCORE.INTRA.POLAR>
-1.351

>  <SCORE.INTRA.POLAR.0>
-0.311208

>  <SCORE.INTRA.REPUL>
0

>  <SCORE.INTRA.REPUL.0>
0

>  <SCORE.INTRA.SOLV>
3.21006

>  <SCORE.INTRA.SOLV.lig_0>
-132.657

>  <SCORE.INTRA.VDW>
5.09071

>  <SCORE.INTRA.VDW.0>
-4.68867

>  <SCORE.INTRA.norm>
0.14409

>  <SCORE.RESTR>
8.29299

>  <SCORE.RESTR.CAVITY>
8.29299

>  <SCORE.RESTR.norm>
0.259156

>  <SCORE.SYSTEM>
0

>  <SCORE.SYSTEM.CONST>
0

>  <SCORE.SYSTEM.DIHEDRAL>
0

>  <SCORE.SYSTEM.SOLV>
0

>  <SCORE.SYSTEM.norm>
0

>  <SCORE.heavy>
32

>  <SCORE.norm>
-1.20769

>  <RMSD>
8.922

$$$$
1tob
 OpenBabel11021811413D
libRbt.so/2013.1/901 2013/11/27
 32 34  0  0  0  0  0  0  0  0999 V2000
   -6.9184    8.7117    2.4905 C   0  0  2  0  0  0  0  0  0  0  0  0
   -6.6408   10.1875    2.7668 C   0  0  1  0  0  0  0  0  0  0  0  0
   -7.6096   10.7026    3.8223 C   0  0  2  0  0  0  0  0  0  0  0  0
   -9.0402   10.4415    3.3664 C   0  0  1  0  0  0  0  0  0  0  0  0
   -9.2271    8.9560    3.0704 C   0  0  1  0  0  0  0  0  0  0  0  0
  -10.6116    8.6434    2.5375 C   0  0  0  0  0  0  0  0  0  0  0  0
   -5.3054   10.3466    3.2241 O   0  0  0  0  0  0  0  0  0  0  0  0
   -7.3739   12.1340    4.1101 N   0  3  0  0  0  0  0  0  0  0  0  0
   -9.9501   10.8568    4.3762 O   0  0  0  0  0  0  0  0  0  0  0  0
   -8.2765    8.5271    2.0717 O   0  0  0  0  0  0  0  0  0  0  0  0
  -10.8764    9.3505    1.3342 O   0  0  0  0  0  0  0  0  0  0  0  0
   -5.0966    7.6330    5.4094 C   0  0  2  0  0  0  0  0  0  0  0  0
   -3.6418    7.2819    5.6893 C   0  0  0  0  0  0  0  0  0  0  0  0
   -3.3005    5.9116    5.1034 C   0  0  1  0  0  0  0  0  0  0  0  0
   -3.5339    5.9247    3.5944 C   0  0  2  0  0  0  0  0  0  0  0  0
   -4.9899    6.2838    3.2937 C   0  0  1  0  0  0  0  0  0  0  0  0
   -5.3338    7.6407    3.9071 C   0  0  1  0  0  0  0  0  0  0  0  0
   -5.4237    8.9725    5.9454 N   0  3  0  0  0  0  0  0  0  0  0  0
   -1.9046    5.5445    5.4565 N   0  3  0  0  0  0  0  0  0  0  0  0
   -5.1962    6.3223    1.8880 O   0  0  0  0  0  0  0  0  0  0  0  0
   -6.7091    7.9652    3.6349 O   0  0  0  0  0  0  0  0  0  0  0  0
   -2.5165    4.6492    1.8331 C   0  0  1  0  0  0  0  0  0  0  0  0
   -2.8139    3.3821    1.0294 C   0  0  1  0  0  0  0  0  0  0  0  0
   -2.3346    2.1527    1.7865 C   0  0  0  0  0  0  0  0  0  0  0  0
   -0.8598    2.3121    2.1181 C   0  0  1  0  0  0  0  0  0  0  0  0
   -0.6435    3.6076    2.8994 C   0  0  1  0  0  0  0  0  0  0  0  0
    0.8191    3.8629    3.2154 C   0  0  0  0  0  0  0  0  0  0  0  0
   -4.2521    3.2951    0.6827 N   0  3  0  0  0  0  0  0  0  0  0  0
    1.6664    3.7346    2.0057 N   0  3  0  0  0  0  0  0  0  0  0  0
   -3.2193    4.6349    3.0306 O   0  0  0  0  0  0  0  0  0  0  0  0
   -0.4123    1.2035    2.8847 O   0  0  0  0  0  0  0  0  0  0  0  0
   -1.1180    4.7358    2.1329 O   0  0  0  0  0  0  0  0  0  0  0  0
  1  2  1  0  0  0  0
  1 10  1  0  0  0  0
  1 21  1  1  0  0  0
  2  3  1  0  0  0  0
  2  7  1  1  0  0  0
  3  4  1  0  0  0  0
  3  8  1  6  0  0  0
  4  5  1  0  0  0  0
  4  9  1  1  0  0  0
  5  6  1  6  0  0  0
  5 10  1  0  0  0  0
  6 11  1  0  0  0  0
 12 13  1  0  0  0  0
 12 17  1  0  0  0  0
 12 18  1  6  0  0  0
 13 14  1  0  0  0  0
 14 15  1  0  0  0  0
 14 19  1  6  0  0  0
 15 16  1  0  0  0  0
 15 30  1  1  0  0  0
 16 17  1  0  0  0  0
 16 20  1  6  0  0  0
 17 21  1  1  0  0  0
 22 23  1  0  0  0  0
 22 30  1  1  0  0  0
 22 32  1  0  0  0  0
 23 24  1  0  0  0  0
 23 28  1  1  0  0  0
 24 25  1  0  0  0  0
 25 26  1  0  0  0  0
 25 31  1  1  0  0  0
 26 27  1  6  0  0  0
 26 32  1  0  0  0  0
 27 29  1  0  0  0  0
M  CHG  5   8   1  18   1  19   1  28   1  29   1
M  END
>  <CHROM.1>
-80.81129537,64.58994445,-151.15905543,-58.09079318,59.52674227,-176.34136516
-31.81622022,136.03479974,-137.67003101,69.43860733,145.32149369,-153.09598262
74.29829032,174.87627378,50.09827663,-94.03697106,-4.77229953,6.76469442
3.14012125,2.55753828,-0.44178860,0.68952847

>  <Name>
1tob

>  <RI>
0

>  <Rbt.Current_Directory>
/home/itssahil/PROJECTS/Mol_Feturizer/New_Systems/rnas/1tob

>  <Rbt.Executable>
rbdock ($Id: //depot/dev/client3/rdock/2013.1/src/exe/rbdock.cxx#4 $)

>  <Rbt.Library>
libRbt.so (2013.1, Build901 2013/11/27)

>  <Rbt.Parameter_File>
/export/apps/rDock/src/rDock_2013.1_src/data/scripts/dock_solv.prm

>  <Rbt.Receptor>
prm/pocket_docking_3.prm

>  <SCORE>
-57.5604

>  <SCORE.INTER>
-58.4432

>  <SCORE.INTER.CONST>
1

>  <SCORE.INTER.POLAR>
-8.40379

>  <SCORE.INTER.ROT>
6

>  <SCORE.INTER.SOLV>
34.9394

>  <SCORE.INTER.VDW>
-30.196

>  <SCORE.INTER.norm>
-1.82635

>  <SCORE.INTRA>
0.288547

>  <SCORE.INTRA.DIHEDRAL>
2.45347

>  <SCORE.INTRA.DIHEDRAL.0>
22.9177

>  <SCORE.INTRA.POLAR>
-0.833664

>  <SCORE.INTRA.POLAR.0>
-0.311208

>  <SCORE.INTRA.REPUL>
0

>  <SCORE.INTRA.REPUL.0>
0

>  <SCORE.INTRA.SOLV>
1.87744

>  <SCORE.INTRA.SOLV.lig_0>
-132.657

>  <SCORE.INTRA.VDW>
0.95755

>  <SCORE.INTRA.VDW.0>
-4.68867

>  <SCORE.INTRA.norm>
0.00901709

>  <SCORE.RESTR>
0.59419

>  <SCORE.RESTR.CAVITY>
0.59419

>  <SCORE.RESTR.norm>
0.0185685

>  <SCORE.SYSTEM>
0

>  <SCORE.SYSTEM.CONST>
0

>  <SCORE.SYSTEM.DIHEDRAL>
0

>  <SCORE.SYSTEM.SOLV>
0

>  <SCORE.SYSTEM.norm>
0

>  <SCORE.heavy>
32

>  <SCORE.norm>
-1.79876

>  <RMSD>
8.929

$$$$
1tob
 OpenBabel11021811413D
libRbt.so/2013.1/901 2013/11/27
 32 34  0  0  0  0  0  0  0  0999 V2000
   -5.7537    5.7426    2.5656 C   0  0  2  0  0  0  0  0  0  0  0  0
   -6.6381    5.2457    1.4245 C   0  0  1  0  0  0  0  0  0  0  0  0
   -7.2124    6.4344    0.6659 C   0  0  2  0  0  0  0  0  0  0  0  0
   -7.9519    7.3456    1.6382 C   0  0  1  0  0  0  0  0  0  0  0  0
   -7.0167    7.7649    2.7691 C   0  0  1  0  0  0  0  0  0  0  0  0
   -7.7170    8.6125    3.8130 C   0  0  0  0  0  0  0  0  0  0  0  0
   -5.8726    4.4386    0.5412 O   0  0  0  0  0  0  0  0  0  0  0  0
   -8.0821    5.9894   -0.4445 N   0  3  0  0  0  0  0  0  0  0  0  0
   -8.4325    8.4931    0.9510 O   0  0  0  0  0  0  0  0  0  0  0  0
   -6.4994    6.5968    3.4422 O   0  0  0  0  0  0  0  0  0  0  0  0
   -6.8015    9.1046    4.7813 O   0  0  0  0  0  0  0  0  0  0  0  0
   -3.7282    6.7589    4.2655 C   0  0  2  0  0  0  0  0  0  0  0  0
   -2.4383    6.6368    5.0651 C   0  0  0  0  0  0  0  0  0  0  0  0
   -1.9132    5.2017    5.0164 C   0  0  1  0  0  0  0  0  0  0  0  0
   -1.6472    4.8001    3.5673 C   0  0  2  0  0  0  0  0  0  0  0  0
   -2.9316    4.9244    2.7462 C   0  0  1  0  0  0  0  0  0  0  0  0
   -3.4678    6.3535    2.8229 C   0  0  1  0  0  0  0  0  0  0  0  0
   -4.2234    8.1528    4.2817 N   0  3  0  0  0  0  0  0  0  0  0  0
   -0.7025    5.0774    5.8689 N   0  3  0  0  0  0  0  0  0  0  0  0
   -2.6735    4.5767    1.3925 O   0  0  0  0  0  0  0  0  0  0  0  0
   -4.6847    6.4599    2.0621 O   0  0  0  0  0  0  0  0  0  0  0  0
   -0.6586    3.0315    2.2794 C   0  0  1  0  0  0  0  0  0  0  0  0
   -1.1930    1.6405    1.9336 C   0  0  1  0  0  0  0  0  0  0  0  0
   -0.7064    0.6205    2.9520 C   0  0  0  0  0  0  0  0  0  0  0  0
    0.8110    0.6712    3.0259 C   0  0  1  0  0  0  0  0  0  0  0  0
    1.2645    2.0936    3.3527 C   0  0  1  0  0  0  0  0  0  0  0  0
    2.7757    2.2327    3.3851 C   0  0  0  0  0  0  0  0  0  0  0  0
   -2.6706    1.6496    1.8191 N   0  3  0  0  0  0  0  0  0  0  0  0
    3.1866    3.6306    3.6583 N   0  3  0  0  0  0  0  0  0  0  0  0
   -1.1553    3.4454    3.5082 O   0  0  0  0  0  0  0  0  0  0  0  0
    1.2784   -0.2271    4.0216 O   0  0  0  0  0  0  0  0  0  0  0  0
    0.7722    3.0141    2.3548 O   0  0  0  0  0  0  0  0  0  0  0  0
  1  2  1  0  0  0  0
  1 10  1  0  0  0  0
  1 21  1  6  0  0  0
  2  3  1  0  0  0  0
  2  7  1  6  0  0  0
  3  4  1  0  0  0  0
  3  8  1  6  0  0  0
  4  5  1  0  0  0  0
  4  9  1  6  0  0  0
  5  6  1  1  0  0  0
  5 10  1  0  0  0  0
  6 11  1  0  0  0  0
 12 13  1  0  0  0  0
 12 17  1  0  0  0  0
 12 18  1  6  0  0  0
 13 14  1  0  0  0  0
 14 15  1  0  0  0  0
 14 19  1  1  0  0  0
 15 16  1  0  0  0  0
 15 30  1  1  0  0  0
 16 17  1  0  0  0  0
 16 20  1  6  0  0  0
 17 21  1  6  0  0  0
 22 23  1  0  0  0  0
 22 30  1  1  0  0  0
 22 32  1  0  0  0  0
 23 24  1  0  0  0  0
 23 28  1  1  0  0  0
 24 25  1  0  0  0  0
 25 26  1  0  0  0  0
 25 31  1  1  0  0  0
 26 27  1  6  0  0  0
 26 32  1  0  0  0  0
 27 29  1  0  0  0  0
M  CHG  5   8   1  18   1  19   1  28   1  29   1
M  END
>  <CHROM.1>
-147.20836687,-72.98920751,-168.04928531,-177.36508269,-174.01195371,-140.77788011
-14.14208345,138.88917623,-169.39863819,-157.32560968,-55.59487729,-134.63139218
-99.27912270,-178.17167698,178.06419070,79.97487972,-3.21684350,4.91159847
2.85416293,2.78637159,-0.49169710,0.69361922

>  <Name>
1tob

>  <RI>
0

>  <Rbt.Current_Directory>
/home/itssahil/PROJECTS/Mol_Feturizer/New_Systems/rnas/1tob

>  <Rbt.Executable>
rbdock ($Id: //depot/dev/client3/rdock/2013.1/src/exe/rbdock.cxx#4 $)

>  <Rbt.Library>
libRbt.so (2013.1, Build901 2013/11/27)

>  <Rbt.Parameter_File>
/export/apps/rDock/src/rDock_2013.1_src/data/scripts/dock_solv.prm

>  <Rbt.Receptor>
prm/blind_docking_60.prm

>  <SCORE>
-40.081

>  <SCORE.INTER>
-46.333

>  <SCORE.INTER.CONST>
1

>  <SCORE.INTER.POLAR>
-6.56411

>  <SCORE.INTER.ROT>
6

>  <SCORE.INTER.SOLV>
29.4512

>  <SCORE.INTER.VDW>
-26.4253

>  <SCORE.INTER.norm>
-1.44791

>  <SCORE.INTRA>
1.53948

>  <SCORE.INTRA.DIHEDRAL>
6.51032

>  <SCORE.INTRA.DIHEDRAL.0>
22.9177

>  <SCORE.INTRA.POLAR>
-1.95621

>  <SCORE.INTRA.POLAR.0>
-0.311208

>  <SCORE.INTRA.REPUL>
0

>  <SCORE.INTRA.REPUL.0>
0

>  <SCORE.INTRA.SOLV>
0.695609

>  <SCORE.INTRA.SOLV.lig_0>
-132.657

>  <SCORE.INTRA.VDW>
4.58764

>  <SCORE.INTRA.VDW.0>
-4.68867

>  <SCORE.INTRA.norm>
0.0481089

>  <SCORE.RESTR>
4.71245

>  <SCORE.RESTR.CAVITY>
4.71245

>  <SCORE.RESTR.norm>
0.147264

>  <SCORE.SYSTEM>
0

>  <SCORE.SYSTEM.CONST>
0

>  <SCORE.SYSTEM.DIHEDRAL>
0

>  <SCORE.SYSTEM.SOLV>
0

>  <SCORE.SYSTEM.norm>
0

>  <SCORE.heavy>
32

>  <SCORE.norm>
-1.25253

>  <RMSD>
8.930

$$$$
1tob
 OpenBabel11021811413D
libRbt.so/2013.1/901 2013/11/27
 32 34  0  0  0  0  0  0  0  0999 V2000
   -5.7665    6.9972    2.3957 C   0  0  2  0  0  0  0  0  0  0  0  0
   -7.2245    7.4504    2.4019 C   0  0  1  0  0  0  0  0  0  0  0  0
   -8.1395    6.2350    2.3401 C   0  0  2  0  0  0  0  0  0  0  0  0
   -7.7829    5.3949    1.1196 C   0  0  1  0  0  0  0  0  0  0  0  0
   -6.3048    5.0174    1.1639 C   0  0  1  0  0  0  0  0  0  0  0  0
   -5.8695    4.2439   -0.0652 C   0  0  0  0  0  0  0  0  0  0  0  0
   -7.4912    8.1909    3.5843 O   0  0  0  0  0  0  0  0  0  0  0  0
   -9.5625    6.6379    2.3369 N   0  3  0  0  0  0  0  0  0  0  0  0
   -8.5859    4.2225    1.0916 O   0  0  0  0  0  0  0  0  0  0  0  0
   -5.4916    6.2089    1.2307 O   0  0  0  0  0  0  0  0  0  0  0  0
   -4.7422    3.4244    0.2097 O   0  0  0  0  0  0  0  0  0  0  0  0
   -3.9750    6.4425    5.3811 C   0  0  2  0  0  0  0  0  0  0  0  0
   -2.5063    6.3633    5.7744 C   0  0  0  0  0  0  0  0  0  0  0  0
   -1.9402    4.9804    5.4508 C   0  0  1  0  0  0  0  0  0  0  0  0
   -2.0762    4.7060    3.9548 C   0  0  2  0  0  0  0  0  0  0  0  0
   -3.5459    4.7894    3.5396 C   0  0  1  0  0  0  0  0  0  0  0  0
   -4.1144    6.1635    3.8925 C   0  0  1  0  0  0  0  0  0  0  0  0
   -4.5195    7.7891    5.6616 N   0  3  0  0  0  0  0  0  0  0  0  0
   -0.5321    4.8891    5.9166 N   0  3  0  0  0  0  0  0  0  0  0  0
   -3.6654    4.5612    2.1418 O   0  0  0  0  0  0  0  0  0  0  0  0
   -5.5014    6.2299    3.5145 O   0  0  0  0  0  0  0  0  0  0  0  0
   -0.5855    3.3606    2.6390 C   0  0  1  0  0  0  0  0  0  0  0  0
   -1.0385    2.4415    1.5033 C   0  0  1  0  0  0  0  0  0  0  0  0
   -1.1861    1.0137    2.0072 C   0  0  0  0  0  0  0  0  0  0  0  0
    0.1208    0.5697    2.6439 C   0  0  1  0  0  0  0  0  0  0  0  0
    0.5146    1.5480    3.7499 C   0  0  1  0  0  0  0  0  0  0  0  0
    1.8444    1.1989    4.3933 C   0  0  0  0  0  0  0  0  0  0  0  0
   -2.2854    2.9412    0.8772 N   0  3  0  0  0  0  0  0  0  0  0  0
    2.9746    1.4231    3.4605 N   0  3  0  0  0  0  0  0  0  0  0  0
   -1.5492    3.4013    3.6378 O   0  0  0  0  0  0  0  0  0  0  0  0
   -0.0207   -0.7374    3.1809 O   0  0  0  0  0  0  0  0  0  0  0  0
    0.6376    2.8828    3.2127 O   0  0  0  0  0  0  0  0  0  0  0  0
  1  2  1  0  0  0  0
  1 10  1  0  0  0  0
  1 21  1  1  0  0  0
  2  3  1  0  0  0  0
  2  7  1  1  0  0  0
  3  4  1  0  0  0  0
  3  8  1  6  0  0  0
  4  5  1  0  0  0  0
  4  9  1  1  0  0  0
  5  6  1  6  0  0  0
  5 10  1  0  0  0  0
  6 11  1  0  0  0  0
 12 13  1  0  0  0  0
 12 17  1  0  0  0  0
 12 18  1  6  0  0  0
 13 14  1  0  0  0  0
 14 15  1  0  0  0  0
 14 19  1  6  0  0  0
 15 16  1  0  0  0  0
 15 30  1  1  0  0  0
 16 17  1  0  0  0  0
 16 20  1  6  0  0  0
 17 21  1  1  0  0  0
 22 23  1  0  0  0  0
 22 30  1  1  0  0  0
 22 32  1  0  0  0  0
 23 24  1  0  0  0  0
 23 28  1  1  0  0  0
 24 25  1  0  0  0  0
 25 26  1  0  0  0  0
 25 31  1  1  0  0  0
 26 27  1  6  0  0  0
 26 32  1  0  0  0  0
 27 29  1  0  0  0  0
M  CHG  5   8   1  18   1  19   1  28   1  29   1
M  END
>  <CHROM.1>
-157.73198348,65.50518645,163.54229581,179.17618845,-154.63286369,76.70085495
-75.87137641,14.98733810,-126.08003291,-63.38195809,131.50707288,-121.99226083
69.09433046,-24.31992937,69.31646742,60.05214060,-3.44593341,4.39984674,2.93651902
-2.85727608,0.47642911,-2.36244097

>  <Name>
1tob

>  <RI>
0

>  <Rbt.Current_Directory>
/home/itssahil/PROJECTS/Mol_Feturizer/New_Systems/rnas/1tob

>  <Rbt.Executable>
rbdock ($Id: //depot/dev/client3/rdock/2013.1/src/exe/rbdock.cxx#4 $)

>  <Rbt.Library>
libRbt.so (2013.1, Build901 2013/11/27)

>  <Rbt.Parameter_File>
/export/apps/rDock/src/rDock_2013.1_src/data/scripts/dock_solv.prm

>  <Rbt.Receptor>
prm/blind_docking_80.prm

>  <SCORE>
-31.4905

>  <SCORE.INTER>
-48.0243

>  <SCORE.INTER.CONST>
1

>  <SCORE.INTER.POLAR>
-6.93608

>  <SCORE.INTER.ROT>
6

>  <SCORE.INTER.SOLV>
35.1935

>  <SCORE.INTER.VDW>
-28.2271

>  <SCORE.INTER.norm>
-1.50076

>  <SCORE.INTRA>
8.10129

>  <SCORE.INTRA.DIHEDRAL>
12.9263

>  <SCORE.INTRA.DIHEDRAL.0>
22.9177

>  <SCORE.INTRA.POLAR>
-0.41937

>  <SCORE.INTRA.POLAR.0>
-0.311208

>  <SCORE.INTRA.REPUL>
0

>  <SCORE.INTRA.REPUL.0>
0

>  <SCORE.INTRA.SOLV>
3.92725

>  <SCORE.INTRA.SOLV.lig_0>
-132.657

>  <SCORE.INTRA.VDW>
1.10035

>  <SCORE.INTRA.VDW.0>
-4.68867

>  <SCORE.INTRA.norm>
0.253165

>  <SCORE.RESTR>
8.43249

>  <SCORE.RESTR.CAVITY>
8.43249

>  <SCORE.RESTR.norm>
0.263515

>  <SCORE.SYSTEM>
0

>  <SCORE.SYSTEM.CONST>
0

>  <SCORE.SYSTEM.DIHEDRAL>
0

>  <SCORE.SYSTEM.SOLV>
0

>  <SCORE.SYSTEM.norm>
0

>  <SCORE.heavy>
32

>  <SCORE.norm>
-0.984078

>  <RMSD>
8.937

$$$$
1tob
 OpenBabel11021811413D
libRbt.so/2013.1/901 2013/11/27
 32 34  0  0  0  0  0  0  0  0999 V2000
   -5.4134    8.0603    3.0906 C   0  0  2  0  0  0  0  0  0  0  0  0
   -6.8498    8.5682    3.1900 C   0  0  1  0  0  0  0  0  0  0  0  0
   -7.8115    7.4790    2.7348 C   0  0  2  0  0  0  0  0  0  0  0  0
   -7.4359    7.0280    1.3284 C   0  0  1  0  0  0  0  0  0  0  0  0
   -5.9785    6.5758    1.3008 C   0  0  1  0  0  0  0  0  0  0  0  0
   -5.5211    6.1865   -0.0913 C   0  0  0  0  0  0  0  0  0  0  0  0
   -7.1381    8.9311    4.5326 O   0  0  0  0  0  0  0  0  0  0  0  0
   -9.2147    7.9400    2.8109 N   0  3  0  0  0  0  0  0  0  0  0  0
   -8.2854    5.9635    0.9219 O   0  0  0  0  0  0  0  0  0  0  0  0
   -5.1198    7.6462    1.7503 O   0  0  0  0  0  0  0  0  0  0  0  0
   -6.2336    5.0565   -0.5745 O   0  0  0  0  0  0  0  0  0  0  0  0
   -3.6952    6.7360    5.7863 C   0  0  2  0  0  0  0  0  0  0  0  0
   -2.2465    6.4311    6.1420 C   0  0  0  0  0  0  0  0  0  0  0  0
   -1.8439    5.0553    5.6103 C   0  0  1  0  0  0  0  0  0  0  0  0
   -2.0073    5.0222    4.0924 C   0  0  2  0  0  0  0  0  0  0  0  0
   -3.4564    5.3346    3.7158 C   0  0  1  0  0  0  0  0  0  0  0  0
   -3.8625    6.6977    4.2751 C   0  0  1  0  0  0  0  0  0  0  0  0
   -4.0805    8.0801    6.2696 N   0  3  0  0  0  0  0  0  0  0  0  0
   -0.4570    4.7348    6.0368 N   0  3  0  0  0  0  0  0  0  0  0  0
   -3.5983    5.3304    2.3016 O   0  0  0  0  0  0  0  0  0  0  0  0
   -5.2315    6.9783    3.9315 O   0  0  0  0  0  0  0  0  0  0  0  0
   -0.8975    3.7273    2.4027 C   0  0  1  0  0  0  0  0  0  0  0  0
   -1.2622    2.5116    1.5489 C   0  0  1  0  0  0  0  0  0  0  0  0
   -0.8959    1.2269    2.2768 C   0  0  0  0  0  0  0  0  0  0  0  0
    0.5761    1.2669    2.6534 C   0  0  1  0  0  0  0  0  0  0  0  0
    0.8627    2.5176    3.4836 C   0  0  1  0  0  0  0  0  0  0  0  0
    2.3300    2.6545    3.8475 C   0  0  0  0  0  0  0  0  0  0  0  0
   -2.6921    2.5415    1.1606 N   0  3  0  0  0  0  0  0  0  0  0  0
    3.1979    2.5591    2.6495 N   0  3  0  0  0  0  0  0  0  0  0  0
   -1.6345    3.7267    3.5795 O   0  0  0  0  0  0  0  0  0  0  0  0
    0.9191    0.1047    3.3940 O   0  0  0  0  0  0  0  0  0  0  0  0
    0.4942    3.7013    2.7430 O   0  0  0  0  0  0  0  0  0  0  0  0
  1  2  1  0  0  0  0
  1 10  1  0  0  0  0
  1 21  1  1  0  0  0
  2  3  1  0  0  0  0
  2  7  1  1  0  0  0
  3  4  1  0  0  0  0
  3  8  1  6  0  0  0
  4  5  1  0  0  0  0
  4  9  1  1  0  0  0
  5  6  1  6  0  0  0
  5 10  1  0  0  0  0
  6 11  1  0  0  0  0
 12 13  1  0  0  0  0
 12 17  1  0  0  0  0
 12 18  1  6  0  0  0
 13 14  1  0  0  0  0
 14 15  1  0  0  0  0
 14 19  1  6  0  0  0
 15 16  1  0  0  0  0
 15 30  1  1  0  0  0
 16 17  1  0  0  0  0
 16 20  1  6  0  0  0
 17 21  1  1  0  0  0
 22 23  1  0  0  0  0
 22 30  1  1  0  0  0
 22 32  1  0  0  0  0
 23 24  1  0  0  0  0
 23 28  1  1  0  0  0
 24 25  1  0  0  0  0
 25 26  1  0  0  0  0
 25 31  1  1  0  0  0
 26 27  1  6  0  0  0
 26 32  1  0  0  0  0
 27 29  1  0  0  0  0
M  CHG  5   8   1  18   1  19   1  28   1  29   1
M  END
>  <CHROM.1>
-159.84772355,-58.29884797,69.28895757,-54.63845035,-64.08626058,-167.02983442
83.91207775,121.67028023,-138.75718632,112.53404603,122.36167609,-145.98596494
-59.72631055,177.52652513,52.46808889,-176.03214909,-3.28128348,5.18768791
3.07607899,-2.87111885,0.52851548,-2.19727802

>  <Name>
1tob

>  <RI>
0

>  <Rbt.Current_Directory>
/home/itssahil/PROJECTS/Mol_Feturizer/New_Systems/rnas/1tob

>  <Rbt.Executable>
rbdock ($Id: //depot/dev/client3/rdock/2013.1/src/exe/rbdock.cxx#4 $)

>  <Rbt.Library>
libRbt.so (2013.1, Build901 2013/11/27)

>  <Rbt.Parameter_File>
/export/apps/rDock/src/rDock_2013.1_src/data/scripts/dock_solv.prm

>  <Rbt.Receptor>
prm/blind_docking_60.prm

>  <SCORE>
-23.5035

>  <SCORE.INTER>
-33.8849

>  <SCORE.INTER.CONST>
1

>  <SCORE.INTER.POLAR>
-5.49476

>  <SCORE.INTER.ROT>
6

>  <SCORE.INTER.SOLV>
31.9738

>  <SCORE.INTER.VDW>
-22.532

>  <SCORE.INTER.norm>
-1.0589

>  <SCORE.INTRA>
6.03734

>  <SCORE.INTRA.DIHEDRAL>
9.41712

>  <SCORE.INTRA.DIHEDRAL.0>
22.9177

>  <SCORE.INTRA.POLAR>
0.31082

>  <SCORE.INTRA.POLAR.0>
-0.311208

>  <SCORE.INTRA.REPUL>
0

>  <SCORE.INTRA.REPUL.0>
0

>  <SCORE.INTRA.SOLV>
0.519331

>  <SCORE.INTRA.SOLV.lig_0>
-132.657

>  <SCORE.INTRA.VDW>
0.0123251

>  <SCORE.INTRA.VDW.0>
-4.68867

>  <SCORE.INTRA.norm>
0.188667

>  <SCORE.RESTR>
4.34414

>  <SCORE.RESTR.CAVITY>
4.34414

>  <SCORE.RESTR.norm>
0.135754

>  <SCORE.SYSTEM>
0

>  <SCORE.SYSTEM.CONST>
0

>  <SCORE.SYSTEM.DIHEDRAL>
0

>  <SCORE.SYSTEM.SOLV>
0

>  <SCORE.SYSTEM.norm>
0

>  <SCORE.heavy>
32

>  <SCORE.norm>
-0.734483

>  <RMSD>
8.940

$$$$
1tob
 OpenBabel11021811413D
libRbt.so/2013.1/901 2013/11/27
 32 34  0  0  0  0  0  0  0  0999 V2000
   -5.8739    5.9781    2.1473 C   0  0  2  0  0  0  0  0  0  0  0  0
   -6.2203    5.0527    0.9833 C   0  0  1  0  0  0  0  0  0  0  0  0
   -6.6191    5.8820   -0.2298 C   0  0  2  0  0  0  0  0  0  0  0  0
   -7.7628    6.8152    0.1491 C   0  0  1  0  0  0  0  0  0  0  0  0
   -7.3564    7.6754    1.3425 C   0  0  1  0  0  0  0  0  0  0  0  0
   -8.4821    8.5732    1.8169 C   0  0  0  0  0  0  0  0  0  0  0  0
   -5.0971    4.2446    0.6627 O   0  0  0  0  0  0  0  0  0  0  0  0
   -6.9692    5.0161   -1.3765 N   0  3  0  0  0  0  0  0  0  0  0  0
   -8.0958    7.6418   -0.9581 O   0  0  0  0  0  0  0  0  0  0  0  0
   -6.9819    6.8336    2.4544 O   0  0  0  0  0  0  0  0  0  0  0  0
   -9.6083    7.8157    2.2364 O   0  0  0  0  0  0  0  0  0  0  0  0
   -3.9262    7.0143    4.0683 C   0  0  2  0  0  0  0  0  0  0  0  0
   -2.6922    6.8006    4.9343 C   0  0  0  0  0  0  0  0  0  0  0  0
   -2.2777    5.3290    4.9202 C   0  0  1  0  0  0  0  0  0  0  0  0
   -1.9697    4.8949    3.4890 C   0  0  2  0  0  0  0  0  0  0  0  0
   -3.1968    5.1101    2.6018 C   0  0  1  0  0  0  0  0  0  0  0  0
   -3.6244    6.5769    2.6432 C   0  0  1  0  0  0  0  0  0  0  0  0
   -4.3124    8.4422    4.0517 N   0  3  0  0  0  0  0  0  0  0  0  0
   -1.1255    5.1198    5.8349 N   0  3  0  0  0  0  0  0  0  0  0  0
   -2.8975    4.7313    1.2651 O   0  0  0  0  0  0  0  0  0  0  0  0
   -4.7888    6.7695    1.8200 O   0  0  0  0  0  0  0  0  0  0  0  0
   -1.0313    3.0506    2.2717 C   0  0  1  0  0  0  0  0  0  0  0  0
   -1.3366    1.5638    2.0817 C   0  0  1  0  0  0  0  0  0  0  0  0
   -0.6867    0.7464    3.1879 C   0  0  0  0  0  0  0  0  0  0  0  0
    0.8031    1.0461    3.2228 C   0  0  1  0  0  0  0  0  0  0  0  0
    1.0235    2.5488    3.3924 C   0  0  1  0  0  0  0  0  0  0  0  0
    2.4927    2.9299    3.3771 C   0  0  0  0  0  0  0  0  0  0  0  0
   -2.7969    1.3250    1.9994 N   0  3  0  0  0  0  0  0  0  0  0  0
    3.1973    2.4252    4.5798 N   0  3  0  0  0  0  0  0  0  0  0  0
   -1.5815    3.5060    3.4624 O   0  0  0  0  0  0  0  0  0  0  0  0
    1.4144    0.3427    4.2945 O   0  0  0  0  0  0  0  0  0  0  0  0
    0.3841    3.2697    2.3169 O   0  0  0  0  0  0  0  0  0  0  0  0
  1  2  1  0  0  0  0
  1 10  1  0  0  0  0
  1 21  1  6  0  0  0
  2  3  1  0  0  0  0
  2  7  1  6  0  0  0
  3  4  1  0  0  0  0
  3  8  1  6  0  0  0
  4  5  1  0  0  0  0
  4  9  1  6  0  0  0
  5  6  1  1  0  0  0
  5 10  1  0  0  0  0
  6 11  1  0  0  0  0
 12 13  1  0  0  0  0
 12 17  1  0  0  0  0
 12 18  1  6  0  0  0
 13 14  1  0  0  0  0
 14 15  1  0  0  0  0
 14 19  1  1  0  0  0
 15 16  1  0  0  0  0
 15 30  1  1  0  0  0
 16 17  1  0  0  0  0
 16 20  1  6  0  0  0
 17 21  1  6  0  0  0
 22 23  1  0  0  0  0
 22 30  1  1  0  0  0
 22 32  1  0  0  0  0
 23 24  1  0  0  0  0
 23 28  1  1  0  0  0
 24 25  1  0  0  0  0
 25 26  1  0  0  0  0
 25 31  1  1  0  0  0
 26 27  1  6  0  0  0
 26 32  1  0  0  0  0
 27 29  1  0  0  0  0
M  CHG  5   8   1  18   1  19   1  28   1  29   1
M  END
>  <CHROM.1>
-117.50404681,141.88804958,167.75899871,175.39473209,60.81255552,-174.13369008
83.49250403,16.12218143,-168.15846782,91.08024059,-65.37308860,-150.34480361
-41.41607653,-70.83315692,-68.30894739,64.64993658,-3.38989321,4.83879829
2.46415203,-2.94153243,0.56501548,-2.42334624

>  <Name>
1tob

>  <RI>
0

>  <Rbt.Current_Directory>
/home/itssahil/PROJECTS/Mol_Feturizer/New_Systems/rnas/1tob

>  <Rbt.Executable>
rbdock ($Id: //depot/dev/client3/rdock/2013.1/src/exe/rbdock.cxx#4 $)

>  <Rbt.Library>
libRbt.so (2013.1, Build901 2013/11/27)

>  <Rbt.Parameter_File>
/export/apps/rDock/src/rDock_2013.1_src/data/scripts/dock_solv.prm

>  <Rbt.Receptor>
prm/pocket_docking_5.prm

>  <SCORE>
-44.1381

>  <SCORE.INTER>
-50.2836

>  <SCORE.INTER.CONST>
1

>  <SCORE.INTER.POLAR>
-6.58503

>  <SCORE.INTER.ROT>
6

>  <SCORE.INTER.SOLV>
26.3917

>  <SCORE.INTER.VDW>
-27.9695

>  <SCORE.INTER.norm>
-1.57136

>  <SCORE.INTRA>
6.14548

>  <SCORE.INTRA.DIHEDRAL>
4.12966

>  <SCORE.INTRA.DIHEDRAL.0>
22.9177

>  <SCORE.INTRA.POLAR>
0.0684899

>  <SCORE.INTRA.POLAR.0>
-0.311208

>  <SCORE.INTRA.REPUL>
0

>  <SCORE.INTRA.REPUL.0>
0

>  <SCORE.INTRA.SOLV>
-0.782159

>  <SCORE.INTRA.SOLV.lig_0>
-132.657

>  <SCORE.INTRA.VDW>
4.23886

>  <SCORE.INTRA.VDW.0>
-4.68867

>  <SCORE.INTRA.norm>
0.192046

>  <SCORE.RESTR>
0

>  <SCORE.RESTR.CAVITY>
0

>  <SCORE.RESTR.norm>
0

>  <SCORE.SYSTEM>
0

>  <SCORE.SYSTEM.CONST>
0

>  <SCORE.SYSTEM.DIHEDRAL>
0

>  <SCORE.SYSTEM.SOLV>
0

>  <SCORE.SYSTEM.norm>
0

>  <SCORE.heavy>
32

>  <SCORE.norm>
-1.37932

>  <RMSD>
8.940

$$$$
1tob
 OpenBabel11021811413D
libRbt.so/2013.1/901 2013/11/27
 32 34  0  0  0  0  0  0  0  0999 V2000
   -4.5893    6.5713    0.3885 C   0  0  2  0  0  0  0  0  0  0  0  0
   -3.7458    7.6017   -0.3584 C   0  0  1  0  0  0  0  0  0  0  0  0
   -4.4609    8.9459   -0.3597 C   0  0  2  0  0  0  0  0  0  0  0  0
   -5.8551    8.7766   -0.9515 C   0  0  1  0  0  0  0  0  0  0  0  0
   -6.6190    7.7040   -0.1800 C   0  0  1  0  0  0  0  0  0  0  0  0
   -7.9892    7.4342   -0.7703 C   0  0  0  0  0  0  0  0  0  0  0  0
   -2.4800    7.7333    0.2726 O   0  0  0  0  0  0  0  0  0  0  0  0
   -3.6741    9.9684   -1.0828 N   0  3  0  0  0  0  0  0  0  0  0  0
   -6.5552   10.0121   -0.8936 O   0  0  0  0  0  0  0  0  0  0  0  0
   -5.8877    6.4592   -0.2078 O   0  0  0  0  0  0  0  0  0  0  0  0
   -8.6422    6.3660   -0.0990 O   0  0  0  0  0  0  0  0  0  0  0  0
   -3.9382    7.0927    3.9857 C   0  0  2  0  0  0  0  0  0  0  0  0
   -2.7347    6.8131    4.8755 C   0  0  0  0  0  0  0  0  0  0  0  0
   -2.3624    5.3313    4.8207 C   0  0  1  0  0  0  0  0  0  0  0  0
   -2.0283    4.9375    3.3837 C   0  0  2  0  0  0  0  0  0  0  0  0
   -3.2243    5.2192    2.4730 C   0  0  1  0  0  0  0  0  0  0  0  0
   -3.6106    6.6957    2.5545 C   0  0  1  0  0  0  0  0  0  0  0  0
   -4.2828    8.5312    4.0090 N   0  3  0  0  0  0  0  0  0  0  0  0
   -1.2419    5.0568    5.7573 N   0  3  0  0  0  0  0  0  0  0  0  0
   -2.8999    4.8776    1.1320 O   0  0  0  0  0  0  0  0  0  0  0  0
   -4.7463    6.9508    1.7084 O   0  0  0  0  0  0  0  0  0  0  0  0
   -1.1370    3.1029    2.1174 C   0  0  1  0  0  0  0  0  0  0  0  0
   -1.1953    1.5766    2.0337 C   0  0  1  0  0  0  0  0  0  0  0  0
   -0.3457    0.9554    3.1321 C   0  0  0  0  0  0  0  0  0  0  0  0
    1.0701    1.5006    3.0392 C   0  0  1  0  0  0  0  0  0  0  0  0
    1.0408    3.0271    3.1081 C   0  0  1  0  0  0  0  0  0  0  0  0
    2.4192    3.6457    2.9622 C   0  0  0  0  0  0  0  0  0  0  0  0
   -2.5955    1.0928    2.0738 N   0  3  0  0  0  0  0  0  0  0  0  0
    3.2608    3.3843    4.1542 N   0  3  0  0  0  0  0  0  0  0  0  0
   -1.6796    3.5394    3.3186 O   0  0  0  0  0  0  0  0  0  0  0  0
    1.8599    0.9828    4.0998 O   0  0  0  0  0  0  0  0  0  0  0  0
    0.2200    3.5573    2.0448 O   0  0  0  0  0  0  0  0  0  0  0  0
  1  2  1  0  0  0  0
  1 10  1  0  0  0  0
  1 21  1  1  0  0  0
  2  3  1  0  0  0  0
  2  7  1  1  0  0  0
  3  4  1  0  0  0  0
  3  8  1  6  0  0  0
  4  5  1  0  0  0  0
  4  9  1  1  0  0  0
  5  6  1  6  0  0  0
  5 10  1  0  0  0  0
  6 11  1  0  0  0  0
 12 13  1  0  0  0  0
 12 17  1  0  0  0  0
 12 18  1  6  0  0  0
 13 14  1  0  0  0  0
 14 15  1  0  0  0  0
 14 19  1  1  0  0  0
 15 16  1  0  0  0  0
 15 30  1  1  0  0  0
 16 17  1  0  0  0  0
 16 20  1  6  0  0  0
 17 21  1  6  0  0  0
 22 23  1  0  0  0  0
 22 30  1  1  0  0  0
 22 32  1  0  0  0  0
 23 24  1  0  0  0  0
 23 28  1  1  0  0  0
 24 25  1  0  0  0  0
 25 26  1  0  0  0  0
 25 31  1  1  0  0  0
 26 27  1  6  0  0  0
 26 32  1  0  0  0  0
 27 29  1  0  0  0  0
M  CHG  5   8   1  18   1  19   1  28   1  29   1
M  END
>  <CHROM.1>
-78.15995922,49.32363791,62.90341323,-58.02300848,175.67747926,178.21085301
-162.65943237,-26.51708548,-169.48621724,82.60058378,-177.17970615,-163.53012298
70.56616061,67.77657875,-70.12375091,-66.24627602,-2.76723636,5.48982151
1.95563188,2.62947973,-0.63689802,0.25083667

>  <Name>
1tob

>  <RI>
0

>  <Rbt.Current_Directory>
/home/itssahil/PROJECTS/Mol_Feturizer/New_Systems/rnas/1tob

>  <Rbt.Executable>
rbdock ($Id: //depot/dev/client3/rdock/2013.1/src/exe/rbdock.cxx#4 $)

>  <Rbt.Library>
libRbt.so (2013.1, Build901 2013/11/27)

>  <Rbt.Parameter_File>
/export/apps/rDock/src/rDock_2013.1_src/data/scripts/dock_solv.prm

>  <Rbt.Receptor>
prm/pocket_docking_8.prm

>  <SCORE>
-41.7179

>  <SCORE.INTER>
-34.6916

>  <SCORE.INTER.CONST>
1

>  <SCORE.INTER.POLAR>
-4.14475

>  <SCORE.INTER.ROT>
6

>  <SCORE.INTER.SOLV>
24.0949

>  <SCORE.INTER.VDW>
-24.9435

>  <SCORE.INTER.norm>
-1.08411

>  <SCORE.INTRA>
-7.02637

>  <SCORE.INTRA.DIHEDRAL>
-12.6953

>  <SCORE.INTRA.DIHEDRAL.0>
22.9177

>  <SCORE.INTRA.POLAR>
-1.05418

>  <SCORE.INTRA.POLAR.0>
-0.311208

>  <SCORE.INTRA.REPUL>
0

>  <SCORE.INTRA.REPUL.0>
0

>  <SCORE.INTRA.SOLV>
-4.45198

>  <SCORE.INTRA.SOLV.lig_0>
-132.657

>  <SCORE.INTRA.VDW>
5.13152

>  <SCORE.INTRA.VDW.0>
-4.68867

>  <SCORE.INTRA.norm>
-0.219574

>  <SCORE.RESTR>
0

>  <SCORE.RESTR.CAVITY>
0

>  <SCORE.RESTR.norm>
0

>  <SCORE.SYSTEM>
0

>  <SCORE.SYSTEM.CONST>
0

>  <SCORE.SYSTEM.DIHEDRAL>
0

>  <SCORE.SYSTEM.SOLV>
0

>  <SCORE.SYSTEM.norm>
0

>  <SCORE.heavy>
32

>  <SCORE.norm>
-1.30369

>  <RMSD>
8.947

$$$$
1tob
 OpenBabel11021811413D
libRbt.so/2013.1/901 2013/11/27
 32 34  0  0  0  0  0  0  0  0999 V2000
   -4.9272    7.1001    0.6655 C   0  0  2  0  0  0  0  0  0  0  0  0
   -4.7641    8.5456    0.2017 C   0  0  1  0  0  0  0  0  0  0  0  0
   -6.0761    9.2952    0.3887 C   0  0  2  0  0  0  0  0  0  0  0  0
   -7.1895    8.5571   -0.3448 C   0  0  1  0  0  0  0  0  0  0  0  0
   -7.2621    7.1125    0.1421 C   0  0  1  0  0  0  0  0  0  0  0  0
   -8.3024    6.3027   -0.6066 C   0  0  0  0  0  0  0  0  0  0  0  0
   -3.7396    9.1782    0.9552 O   0  0  0  0  0  0  0  0  0  0  0  0
   -5.9566   10.6999   -0.0583 N   0  3  0  0  0  0  0  0  0  0  0  0
   -8.4305    9.2118   -0.1189 O   0  0  0  0  0  0  0  0  0  0  0  0
   -5.9889    6.4598   -0.0533 O   0  0  0  0  0  0  0  0  0  0  0  0
   -9.5831    6.9137   -0.5389 O   0  0  0  0  0  0  0  0  0  0  0  0
   -4.5174    7.2109    4.3230 C   0  0  2  0  0  0  0  0  0  0  0  0
   -3.3127    7.0655    5.2427 C   0  0  0  0  0  0  0  0  0  0  0  0
   -2.7266    5.6574    5.1370 C   0  0  1  0  0  0  0  0  0  0  0  0
   -2.2965    5.3858    3.6972 C   0  0  2  0  0  0  0  0  0  0  0  0
   -3.4935    5.5353    2.7570 C   0  0  1  0  0  0  0  0  0  0  0  0
   -4.0934    6.9348    2.8887 C   0  0  1  0  0  0  0  0  0  0  0  0
   -5.0688    8.5817    4.3963 N   0  3  0  0  0  0  0  0  0  0  0  0
   -1.6060    5.5028    6.1006 N   0  3  0  0  0  0  0  0  0  0  0  0
   -3.0834    5.3093    1.4151 O   0  0  0  0  0  0  0  0  0  0  0  0
   -5.2289    7.0637    2.0141 O   0  0  0  0  0  0  0  0  0  0  0  0
   -1.1259    3.7564    2.3785 C   0  0  1  0  0  0  0  0  0  0  0  0
   -1.5853    2.3872    1.8745 C   0  0  1  0  0  0  0  0  0  0  0  0
   -1.1650    1.2980    2.8499 C   0  0  0  0  0  0  0  0  0  0  0  0
    0.3370    1.3754    3.0703 C   0  0  1  0  0  0  0  0  0  0  0  0
    0.7167    2.7757    3.5503 C   0  0  1  0  0  0  0  0  0  0  0  0
    2.2138    2.9445    3.7358 C   0  0  0  0  0  0  0  0  0  0  0  0
   -3.0456    2.3735    1.6224 N   0  3  0  0  0  0  0  0  0  0  0  0
    2.9400    2.7988    2.4517 N   0  3  0  0  0  0  0  0  0  0  0  0
   -1.7456    4.0575    3.5841 O   0  0  0  0  0  0  0  0  0  0  0  0
    0.7368    0.4089    4.0310 O   0  0  0  0  0  0  0  0  0  0  0  0
    0.2917    3.7639    2.5868 O   0  0  0  0  0  0  0  0  0  0  0  0
  1  2  1  0  0  0  0
  1 10  1  0  0  0  0
  1 21  1  1  0  0  0
  2  3  1  0  0  0  0
  2  7  1  1  0  0  0
  3  4  1  0  0  0  0
  3  8  1  6  0  0  0
  4  5  1  0  0  0  0
  4  9  1  1  0  0  0
  5  6  1  6  0  0  0
  5 10  1  0  0  0  0
  6 11  1  0  0  0  0
 12 13  1  0  0  0  0
 12 17  1  0  0  0  0
 12 18  1  6  0  0  0
 13 14  1  0  0  0  0
 14 15  1  0  0  0  0
 14 19  1  1  0  0  0
 15 16  1  0  0  0  0
 15 30  1  1  0  0  0
 16 17  1  0  0  0  0
 16 20  1  6  0  0  0
 17 21  1  6  0  0  0
 22 23  1  0  0  0  0
 22 30  1  1  0  0  0
 22 32  1  0  0  0  0
 23 24  1  0  0  0  0
 23 28  1  1  0  0  0
 24 25  1  0  0  0  0
 25 26  1  0  0  0  0
 25 31  1  1  0  0  0
 26 27  1  6  0  0  0
 26 32  1  0  0  0  0
 27 29  1  0  0  0  0
M  CHG  5   8   1  18   1  19   1  28   1  29   1
M  END
>  <CHROM.1>
-92.65224357,-68.18805047,-63.20429120,-58.85074386,-55.45987859,63.90078222
158.05747118,-45.39017569,-170.32541784,-58.83870210,167.68635745,-133.80835246
149.41860414,-64.61346038,63.61849079,-65.28118936,-3.41946292,5.69858455
2.18816309,2.84272234,-0.67792687,0.62734712

>  <Name>
1tob

>  <RI>
0

>  <Rbt.Current_Directory>
/home/itssahil/PROJECTS/Mol_Feturizer/New_Systems/rnas/1tob

>  <Rbt.Executable>
rbdock ($Id: //depot/dev/client3/rdock/2013.1/src/exe/rbdock.cxx#4 $)

>  <Rbt.Library>
libRbt.so (2013.1, Build901 2013/11/27)

>  <Rbt.Parameter_File>
/export/apps/rDock/src/rDock_2013.1_src/data/scripts/dock_solv.prm

>  <Rbt.Receptor>
prm/pocket_docking_4.prm

>  <SCORE>
-44.4525

>  <SCORE.INTER>
-39.4696

>  <SCORE.INTER.CONST>
1

>  <SCORE.INTER.POLAR>
-6.18767

>  <SCORE.INTER.ROT>
6

>  <SCORE.INTER.SOLV>
25.3134

>  <SCORE.INTER.VDW>
-21.7253

>  <SCORE.INTER.norm>
-1.23342

>  <SCORE.INTRA>
-5.99233

>  <SCORE.INTRA.DIHEDRAL>
-7.20138

>  <SCORE.INTRA.DIHEDRAL.0>
22.9177

>  <SCORE.INTRA.POLAR>
-1.19938

>  <SCORE.INTRA.POLAR.0>
-0.311208

>  <SCORE.INTRA.REPUL>
0

>  <SCORE.INTRA.REPUL.0>
0

>  <SCORE.INTRA.SOLV>
-1.50625

>  <SCORE.INTRA.SOLV.lig_0>
-132.657

>  <SCORE.INTRA.VDW>
2.43937

>  <SCORE.INTRA.VDW.0>
-4.68867

>  <SCORE.INTRA.norm>
-0.18726

>  <SCORE.RESTR>
1.0094

>  <SCORE.RESTR.CAVITY>
1.0094

>  <SCORE.RESTR.norm>
0.0315437

>  <SCORE.SYSTEM>
0

>  <SCORE.SYSTEM.CONST>
0

>  <SCORE.SYSTEM.DIHEDRAL>
0

>  <SCORE.SYSTEM.SOLV>
0

>  <SCORE.SYSTEM.norm>
0

>  <SCORE.heavy>
32

>  <SCORE.norm>
-1.38914

>  <RMSD>
8.948

$$$$
1tob
 OpenBabel11021811413D
libRbt.so/2013.1/901 2013/11/27
 32 34  0  0  0  0  0  0  0  0999 V2000
   -5.4459    4.4948    1.7916 C   0  0  2  0  0  0  0  0  0  0  0  0
   -5.5510    3.7474    0.4644 C   0  0  1  0  0  0  0  0  0  0  0  0
   -6.3133    4.5969   -0.5434 C   0  0  2  0  0  0  0  0  0  0  0  0
   -7.6715    4.9730    0.0367 C   0  0  1  0  0  0  0  0  0  0  0  0
   -7.4853    5.6764    1.3784 C   0  0  1  0  0  0  0  0  0  0  0  0
   -8.8063    6.0082    2.0443 C   0  0  0  0  0  0  0  0  0  0  0  0
   -4.2501    3.4673   -0.0324 O   0  0  0  0  0  0  0  0  0  0  0  0
   -6.4410    3.8993   -1.8413 N   0  3  0  0  0  0  0  0  0  0  0  0
   -8.3624    5.8231   -0.8688 O   0  0  0  0  0  0  0  0  0  0  0  0
   -6.7500    4.8262    2.2849 O   0  0  0  0  0  0  0  0  0  0  0  0
   -9.4957    7.0355    1.3462 O   0  0  0  0  0  0  0  0  0  0  0  0
   -4.2632    6.0495    3.9669 C   0  0  2  0  0  0  0  0  0  0  0  0
   -3.1374    6.2642    4.9693 C   0  0  0  0  0  0  0  0  0  0  0  0
   -2.1768    5.0748    4.9569 C   0  0  1  0  0  0  0  0  0  0  0  0
   -1.5824    4.9080    3.5602 C   0  0  2  0  0  0  0  0  0  0  0  0
   -2.7005    4.6991    2.5377 C   0  0  1  0  0  0  0  0  0  0  0  0
   -3.6738    5.8769    2.5755 C   0  0  1  0  0  0  0  0  0  0  0  0
   -5.1777    7.2122    3.9508 N   0  3  0  0  0  0  0  0  0  0  0  0
   -1.1323    5.2580    5.9978 N   0  3  0  0  0  0  0  0  0  0  0  0
   -2.1451    4.5723    1.2356 O   0  0  0  0  0  0  0  0  0  0  0  0
   -4.7320    5.6665    1.6233 O   0  0  0  0  0  0  0  0  0  0  0  0
   -0.4617    3.2053    2.2919 C   0  0  1  0  0  0  0  0  0  0  0  0
   -0.8338    1.7220    2.3281 C   0  0  1  0  0  0  0  0  0  0  0  0
    0.0640    0.9766    3.3041 C   0  0  0  0  0  0  0  0  0  0  0  0
    1.5177    1.2143    2.9290 C   0  0  1  0  0  0  0  0  0  0  0  0
    1.8028    2.7153    2.8934 C   0  0  1  0  0  0  0  0  0  0  0  0
    3.2252    3.0305    2.4675 C   0  0  0  0  0  0  0  0  0  0  0  0
   -2.2702    1.5395    2.6443 N   0  3  0  0  0  0  0  0  0  0  0  0
    4.1952    2.7278    3.5469 N   0  3  0  0  0  0  0  0  0  0  0  0
   -0.6772    3.7853    3.5350 O   0  0  0  0  0  0  0  0  0  0  0  0
    2.3715    0.5811    3.8708 O   0  0  0  0  0  0  0  0  0  0  0  0
    0.9212    3.3668    1.9534 O   0  0  0  0  0  0  0  0  0  0  0  0
  1  2  1  0  0  0  0
  1 10  1  0  0  0  0
  1 21  1  6  0  0  0
  2  3  1  0  0  0  0
  2  7  1  6  0  0  0
  3  4  1  0  0  0  0
  3  8  1  6  0  0  0
  4  5  1  0  0  0  0
  4  9  1  6  0  0  0
  5  6  1  1  0  0  0
  5 10  1  0  0  0  0
  6 11  1  0  0  0  0
 12 13  1  0  0  0  0
 12 17  1  0  0  0  0
 12 18  1  6  0  0  0
 13 14  1  0  0  0  0
 14 15  1  0  0  0  0
 14 19  1  1  0  0  0
 15 16  1  0  0  0  0
 15 30  1  1  0  0  0
 16 17  1  0  0  0  0
 16 20  1  6  0  0  0
 17 21  1  6  0  0  0
 22 23  1  0  0  0  0
 22 30  1  1  0  0  0
 22 32  1  0  0  0  0
 23 24  1  0  0  0  0
 23 28  1  1  0  0  0
 24 25  1  0  0  0  0
 25 26  1  0  0  0  0
 25 31  1  1  0  0  0
 26 27  1  6  0  0  0
 26 32  1  0  0  0  0
 27 29  1  0  0  0  0
M  CHG  5   8   1  18   1  19   1  28   1  29   1
M  END
>  <CHROM.1>
-130.42664125,100.73988650,-60.73585863,172.18676239,-69.82016052,-62.66567418
145.91613815,-152.75845772,156.48141380,-58.03197215,-65.19934215,-122.25151335
159.50955065,64.47325276,-74.00607654,56.27302157,-3.05033333,4.22156002
2.27351138,-3.13141727,-0.42044684,0.93455665

>  <Name>
1tob

>  <RI>
0

>  <Rbt.Current_Directory>
/home/itssahil/PROJECTS/Mol_Feturizer/New_Systems/rnas/1tob

>  <Rbt.Executable>
rbdock ($Id: //depot/dev/client3/rdock/2013.1/src/exe/rbdock.cxx#4 $)

>  <Rbt.Library>
libRbt.so (2013.1, Build901 2013/11/27)

>  <Rbt.Parameter_File>
/export/apps/rDock/src/rDock_2013.1_src/data/scripts/dock_solv.prm

>  <Rbt.Receptor>
prm/blind_docking_100.prm

>  <SCORE>
-22.2131

>  <SCORE.INTER>
-36.0285

>  <SCORE.INTER.CONST>
1

>  <SCORE.INTER.POLAR>
-5.28901

>  <SCORE.INTER.ROT>
6

>  <SCORE.INTER.SOLV>
33.5977

>  <SCORE.INTER.VDW>
-25.1882

>  <SCORE.INTER.norm>
-1.12589

>  <SCORE.INTRA>
7.45625

>  <SCORE.INTRA.DIHEDRAL>
5.10026

>  <SCORE.INTRA.DIHEDRAL.0>
22.9177

>  <SCORE.INTRA.POLAR>
-0.608385

>  <SCORE.INTRA.POLAR.0>
-0.311208

>  <SCORE.INTRA.REPUL>
0.0269153

>  <SCORE.INTRA.REPUL.0>
0

>  <SCORE.INTRA.SOLV>
-0.487759

>  <SCORE.INTRA.SOLV.lig_0>
-132.657

>  <SCORE.INTRA.VDW>
7.08393

>  <SCORE.INTRA.VDW.0>
-4.68867

>  <SCORE.INTRA.norm>
0.233008

>  <SCORE.RESTR>
6.35912

>  <SCORE.RESTR.CAVITY>
6.35912

>  <SCORE.RESTR.norm>
0.198723

>  <SCORE.SYSTEM>
0

>  <SCORE.SYSTEM.CONST>
0

>  <SCORE.SYSTEM.DIHEDRAL>
0

>  <SCORE.SYSTEM.SOLV>
0

>  <SCORE.SYSTEM.norm>
0

>  <SCORE.heavy>
32

>  <SCORE.norm>
-0.694159

>  <RMSD>
8.953

$$$$
1tob
 OpenBabel11021811413D
libRbt.so/2013.1/901 2013/11/27
 32 34  0  0  0  0  0  0  0  0999 V2000
   -5.1963    7.1618    0.7588 C   0  0  2  0  0  0  0  0  0  0  0  0
   -5.8158    8.5474    0.5930 C   0  0  1  0  0  0  0  0  0  0  0  0
   -7.3125    8.4756    0.8634 C   0  0  2  0  0  0  0  0  0  0  0  0
   -7.9417    7.4295   -0.0489 C   0  0  1  0  0  0  0  0  0  0  0  0
   -7.2435    6.0861    0.1438 C   0  0  1  0  0  0  0  0  0  0  0  0
   -7.7745    5.0199   -0.7941 C   0  0  0  0  0  0  0  0  0  0  0  0
   -5.2084    9.4558    1.5004 O   0  0  0  0  0  0  0  0  0  0  0  0
   -7.9479    9.8016    0.7042 N   0  3  0  0  0  0  0  0  0  0  0  0
   -9.3270    7.3066    0.2443 O   0  0  0  0  0  0  0  0  0  0  0  0
   -5.8298    6.2214   -0.1177 O   0  0  0  0  0  0  0  0  0  0  0  0
   -6.8850    3.9157   -0.8812 O   0  0  0  0  0  0  0  0  0  0  0  0
   -4.3777    6.8977    4.2671 C   0  0  2  0  0  0  0  0  0  0  0  0
   -3.0822    6.7239    5.0480 C   0  0  0  0  0  0  0  0  0  0  0  0
   -2.5692    5.2894    4.9198 C   0  0  1  0  0  0  0  0  0  0  0  0
   -2.3186    4.9620    3.4494 C   0  0  2  0  0  0  0  0  0  0  0  0
   -3.6087    5.1390    2.6472 C   0  0  1  0  0  0  0  0  0  0  0  0
   -4.1327    6.5662    2.8031 C   0  0  1  0  0  0  0  0  0  0  0  0
   -4.8614    8.2925    4.3604 N   0  3  0  0  0  0  0  0  0  0  0  0
   -1.3526    5.1113    5.7541 N   0  3  0  0  0  0  0  0  0  0  0  0
   -3.3648    4.8606    1.2750 O   0  0  0  0  0  0  0  0  0  0  0  0
   -5.3549    6.7216    2.0596 O   0  0  0  0  0  0  0  0  0  0  0  0
   -1.3045    3.2721    2.0785 C   0  0  1  0  0  0  0  0  0  0  0  0
   -1.3355    1.7552    1.8834 C   0  0  1  0  0  0  0  0  0  0  0  0
   -0.4593    1.0718    2.9224 C   0  0  0  0  0  0  0  0  0  0  0  0
    0.9446    1.6500    2.8521 C   0  0  1  0  0  0  0  0  0  0  0  0
    0.8880    3.1664    3.0335 C   0  0  1  0  0  0  0  0  0  0  0  0
    2.2525    3.8209    2.9162 C   0  0  0  0  0  0  0  0  0  0  0  0
   -2.7258    1.2425    1.9054 N   0  3  0  0  0  0  0  0  0  0  0  0
    3.3441    2.8498    3.1674 N   0  3  0  0  0  0  0  0  0  0  0  0
   -1.8383    3.6086    3.3154 O   0  0  0  0  0  0  0  0  0  0  0  0
    1.7587    1.0713    3.8617 O   0  0  0  0  0  0  0  0  0  0  0  0
    0.0427    3.7570    2.0225 O   0  0  0  0  0  0  0  0  0  0  0  0
  1  2  1  0  0  0  0
  1 10  1  0  0  0  0
  1 21  1  1  0  0  0
  2  3  1  0  0  0  0
  2  7  1  1  0  0  0
  3  4  1  0  0  0  0
  3  8  1  6  0  0  0
  4  5  1  0  0  0  0
  4  9  1  1  0  0  0
  5  6  1  6  0  0  0
  5 10  1  0  0  0  0
  6 11  1  0  0  0  0
 12 13  1  0  0  0  0
 12 17  1  0  0  0  0
 12 18  1  6  0  0  0
 13 14  1  0  0  0  0
 14 15  1  0  0  0  0
 14 19  1  1  0  0  0
 15 16  1  0  0  0  0
 15 30  1  1  0  0  0
 16 17  1  0  0  0  0
 16 20  1  6  0  0  0
 17 21  1  6  0  0  0
 22 23  1  0  0  0  0
 22 30  1  1  0  0  0
 22 32  1  0  0  0  0
 23 24  1  0  0  0  0
 23 28  1  1  0  0  0
 24 25  1  0  0  0  0
 25 26  1  0  0  0  0
 25 31  1  1  0  0  0
 26 27  1  6  0  0  0
 26 32  1  0  0  0  0
 27 29  1  0  0  0  0
M  CHG  5   8   1  18   1  19   1  28   1  29   1
M  END
>  <CHROM.1>
-114.51529449,67.69755618,-179.00707061,-160.84835285,163.14603749,-69.75799017
20.92620236,-150.15847076,-166.84182481,-60.66152483,146.61198768,-158.36309502
-41.25255039,62.23403632,-21.59679427,-163.39313562,-3.43457102,5.22758865
2.16582192,-2.85474624,0.56357177,-2.54542555

>  <Name>
1tob

>  <RI>
0

>  <Rbt.Current_Directory>
/home/itssahil/PROJECTS/Mol_Feturizer/New_Systems/rnas/1tob

>  <Rbt.Executable>
rbdock ($Id: //depot/dev/client3/rdock/2013.1/src/exe/rbdock.cxx#4 $)

>  <Rbt.Library>
libRbt.so (2013.1, Build901 2013/11/27)

>  <Rbt.Parameter_File>
/export/apps/rDock/src/rDock_2013.1_src/data/scripts/dock_solv.prm

>  <Rbt.Receptor>
prm/pocket_docking_5.prm

>  <SCORE>
-44.4916

>  <SCORE.INTER>
-44.488

>  <SCORE.INTER.CONST>
1

>  <SCORE.INTER.POLAR>
-5.59786

>  <SCORE.INTER.ROT>
6

>  <SCORE.INTER.SOLV>
24.6525

>  <SCORE.INTER.VDW>
-26.8166

>  <SCORE.INTER.norm>
-1.39025

>  <SCORE.INTRA>
-0.00359334

>  <SCORE.INTRA.DIHEDRAL>
4.10182

>  <SCORE.INTRA.DIHEDRAL.0>
22.9177

>  <SCORE.INTRA.POLAR>
-1.35695

>  <SCORE.INTRA.POLAR.0>
-0.311208

>  <SCORE.INTRA.REPUL>
0

>  <SCORE.INTRA.REPUL.0>
0

>  <SCORE.INTRA.SOLV>
-1.82373

>  <SCORE.INTRA.SOLV.lig_0>
-132.657

>  <SCORE.INTRA.VDW>
3.47098

>  <SCORE.INTRA.VDW.0>
-4.68867

>  <SCORE.INTRA.norm>
-0.000112292

>  <SCORE.RESTR>
0

>  <SCORE.RESTR.CAVITY>
0

>  <SCORE.RESTR.norm>
0

>  <SCORE.SYSTEM>
0

>  <SCORE.SYSTEM.CONST>
0

>  <SCORE.SYSTEM.DIHEDRAL>
0

>  <SCORE.SYSTEM.SOLV>
0

>  <SCORE.SYSTEM.norm>
0

>  <SCORE.heavy>
32

>  <SCORE.norm>
-1.39036

>  <RMSD>
8.955

$$$$
1tob
 OpenBabel11021811413D
libRbt.so/2013.1/901 2013/11/27
 32 34  0  0  0  0  0  0  0  0999 V2000
   -5.3679    4.4137    1.8316 C   0  0  2  0  0  0  0  0  0  0  0  0
   -5.6215    3.7483    0.4810 C   0  0  1  0  0  0  0  0  0  0  0  0
   -6.3729    4.7088   -0.4307 C   0  0  2  0  0  0  0  0  0  0  0  0
   -7.6540    5.1629    0.2587 C   0  0  1  0  0  0  0  0  0  0  0  0
   -7.3226    5.7771    1.6160 C   0  0  1  0  0  0  0  0  0  0  0  0
   -8.5649    6.1794    2.3862 C   0  0  0  0  0  0  0  0  0  0  0  0
   -4.3838    3.3902   -0.1169 O   0  0  0  0  0  0  0  0  0  0  0  0
   -6.6428    4.0934   -1.7482 N   0  3  0  0  0  0  0  0  0  0  0  0
   -8.3277    6.1128   -0.5560 O   0  0  0  0  0  0  0  0  0  0  0  0
   -6.6047    4.8234    2.4286 O   0  0  0  0  0  0  0  0  0  0  0  0
   -9.0209    7.4679    1.9991 O   0  0  0  0  0  0  0  0  0  0  0  0
   -3.8971    6.0712    3.9315 C   0  0  2  0  0  0  0  0  0  0  0  0
   -2.6975    6.1404    4.8665 C   0  0  0  0  0  0  0  0  0  0  0  0
   -2.0282    4.7705    4.9796 C   0  0  1  0  0  0  0  0  0  0  0  0
   -1.5650    4.3087    3.5997 C   0  0  2  0  0  0  0  0  0  0  0  0
   -2.7570    4.2408    2.6438 C   0  0  1  0  0  0  0  0  0  0  0  0
   -3.4398    5.6054    2.5577 C   0  0  1  0  0  0  0  0  0  0  0  0
   -4.5291    7.4014    3.7923 N   0  3  0  0  0  0  0  0  0  0  0  0
   -0.9126    4.8324    5.9591 N   0  3  0  0  0  0  0  0  0  0  0  0
   -2.3176    3.8377    1.3537 O   0  0  0  0  0  0  0  0  0  0  0  0
   -4.5699    5.5308    1.6700 O   0  0  0  0  0  0  0  0  0  0  0  0
   -0.4665    2.4784    2.5011 C   0  0  1  0  0  0  0  0  0  0  0  0
   -0.1540    0.9912    2.6759 C   0  0  1  0  0  0  0  0  0  0  0  0
    0.9618    0.8026    3.6926 C   0  0  0  0  0  0  0  0  0  0  0  0
    2.1721    1.6164    3.2646 C   0  0  1  0  0  0  0  0  0  0  0  0
    1.7737    3.0816    3.0909 C   0  0  1  0  0  0  0  0  0  0  0  0
    2.9229    3.9467    2.6061 C   0  0  0  0  0  0  0  0  0  0  0  0
   -1.3718    0.2290    3.0401 N   0  3  0  0  0  0  0  0  0  0  0  0
    3.0665    3.8829    1.1320 N   0  3  0  0  0  0  0  0  0  0  0  0
   -0.9356    3.0143    3.6931 O   0  0  0  0  0  0  0  0  0  0  0  0
    3.2000    1.5060    4.2383 O   0  0  0  0  0  0  0  0  0  0  0  0
    0.7128    3.1965    2.1179 O   0  0  0  0  0  0  0  0  0  0  0  0
  1  2  1  0  0  0  0
  1 10  1  0  0  0  0
  1 21  1  6  0  0  0
  2  3  1  0  0  0  0
  2  7  1  6  0  0  0
  3  4  1  0  0  0  0
  3  8  1  6  0  0  0
  4  5  1  0  0  0  0
  4  9  1  6  0  0  0
  5  6  1  1  0  0  0
  5 10  1  0  0  0  0
  6 11  1  0  0  0  0
 12 13  1  0  0  0  0
 12 17  1  0  0  0  0
 12 18  1  6  0  0  0
 13 14  1  0  0  0  0
 14 15  1  0  0  0  0
 14 19  1  1  0  0  0
 15 16  1  0  0  0  0
 15 30  1  1  0  0  0
 16 17  1  0  0  0  0
 16 20  1  6  0  0  0
 17 21  1  6  0  0  0
 22 23  1  0  0  0  0
 22 30  1  1  0  0  0
 22 32  1  0  0  0  0
 23 24  1  0  0  0  0
 23 28  1  1  0  0  0
 24 25  1  0  0  0  0
 25 26  1  0  0  0  0
 25 31  1  1  0  0  0
 26 27  1  6  0  0  0
 26 32  1  0  0  0  0
 27 29  1  0  0  0  0
M  CHG  5   8   1  18   1  19   1  28   1  29   1
M  END
>  <CHROM.1>
-130.54707230,-154.61984190,-74.30155084,149.64234671,-84.25813657,54.34130140
61.62603848,-110.21409954,-179.97425104,-168.43494855,-78.21573609,-165.74746664
68.01965171,-177.92671393,83.66883402,155.08689368,-2.91005613,4.17828704
2.32578574,3.13556348,-0.42222168,0.94449019

>  <Name>
1tob

>  <RI>
0

>  <Rbt.Current_Directory>
/home/itssahil/PROJECTS/Mol_Feturizer/New_Systems/rnas/1tob

>  <Rbt.Executable>
rbdock ($Id: //depot/dev/client3/rdock/2013.1/src/exe/rbdock.cxx#4 $)

>  <Rbt.Library>
libRbt.so (2013.1, Build901 2013/11/27)

>  <Rbt.Parameter_File>
/export/apps/rDock/src/rDock_2013.1_src/data/scripts/dock_solv.prm

>  <Rbt.Receptor>
prm/blind_docking_100.prm

>  <SCORE>
-21.6248

>  <SCORE.INTER>
-32.727

>  <SCORE.INTER.CONST>
1

>  <SCORE.INTER.POLAR>
-4.60898

>  <SCORE.INTER.ROT>
6

>  <SCORE.INTER.SOLV>
42.7841

>  <SCORE.INTER.VDW>
-28.3161

>  <SCORE.INTER.norm>
-1.02272

>  <SCORE.INTRA>
3.02888

>  <SCORE.INTRA.DIHEDRAL>
2.51678

>  <SCORE.INTRA.DIHEDRAL.0>
22.9177

>  <SCORE.INTRA.POLAR>
-0.732202

>  <SCORE.INTRA.POLAR.0>
-0.311208

>  <SCORE.INTRA.REPUL>
0

>  <SCORE.INTRA.REPUL.0>
0

>  <SCORE.INTRA.SOLV>
-4.1626

>  <SCORE.INTRA.SOLV.lig_0>
-132.657

>  <SCORE.INTRA.VDW>
6.34128

>  <SCORE.INTRA.VDW.0>
-4.68867

>  <SCORE.INTRA.norm>
0.0946525

>  <SCORE.RESTR>
8.07335

>  <SCORE.RESTR.CAVITY>
8.07335

>  <SCORE.RESTR.norm>
0.252292

>  <SCORE.SYSTEM>
0

>  <SCORE.SYSTEM.CONST>
0

>  <SCORE.SYSTEM.DIHEDRAL>
0

>  <SCORE.SYSTEM.SOLV>
0

>  <SCORE.SYSTEM.norm>
0

>  <SCORE.heavy>
32

>  <SCORE.norm>
-0.675774

>  <RMSD>
8.957

$$$$
1tob
 OpenBabel11021811413D
libRbt.so/2013.1/901 2013/11/27
 32 34  0  0  0  0  0  0  0  0999 V2000
   -4.3587    6.9839    2.9424 C   0  0  2  0  0  0  0  0  0  0  0  0
   -4.6742    8.1024    3.9326 C   0  0  1  0  0  0  0  0  0  0  0  0
   -6.1628    8.4198    3.8903 C   0  0  2  0  0  0  0  0  0  0  0  0
   -6.5672    8.7593    2.4607 C   0  0  1  0  0  0  0  0  0  0  0  0
   -6.1825    7.6146    1.5274 C   0  0  1  0  0  0  0  0  0  0  0  0
   -6.4900    7.9253    0.0757 C   0  0  0  0  0  0  0  0  0  0  0  0
   -4.3078    7.6989    5.2443 O   0  0  0  0  0  0  0  0  0  0  0  0
   -6.5039    9.5064    4.8338 N   0  3  0  0  0  0  0  0  0  0  0  0
   -7.9683    8.9899    2.3992 O   0  0  0  0  0  0  0  0  0  0  0  0
   -4.7647    7.3564    1.6194 O   0  0  0  0  0  0  0  0  0  0  0  0
   -7.8896    8.0111   -0.1514 O   0  0  0  0  0  0  0  0  0  0  0  0
   -4.3586    4.4311    1.4396 C   0  0  2  0  0  0  0  0  0  0  0  0
   -3.6427    3.1360    1.0811 C   0  0  0  0  0  0  0  0  0  0  0  0
   -2.2063    3.1570    1.6044 C   0  0  1  0  0  0  0  0  0  0  0  0
   -2.2141    3.3244    3.1222 C   0  0  2  0  0  0  0  0  0  0  0  0
   -2.9371    4.6176    3.5018 C   0  0  1  0  0  0  0  0  0  0  0  0
   -4.3625    4.6038    2.9507 C   0  0  1  0  0  0  0  0  0  0  0  0
   -5.7593    4.4030    0.9645 N   0  3  0  0  0  0  0  0  0  0  0  0
   -1.4940    1.9256    1.1751 N   0  3  0  0  0  0  0  0  0  0  0  0
   -2.9667    4.7558    4.9160 O   0  0  0  0  0  0  0  0  0  0  0  0
   -5.0319    5.8298    3.2969 O   0  0  0  0  0  0  0  0  0  0  0  0
   -0.6662    2.7583    4.8679 C   0  0  1  0  0  0  0  0  0  0  0  0
    0.0578    3.7250    5.8067 C   0  0  1  0  0  0  0  0  0  0  0  0
    1.4432    4.0465    5.2665 C   0  0  0  0  0  0  0  0  0  0  0  0
    2.2073    2.7515    5.0446 C   0  0  1  0  0  0  0  0  0  0  0  0
    1.4106    1.8346    4.1171 C   0  0  1  0  0  0  0  0  0  0  0  0
    2.0880    0.4942    3.8966 C   0  0  0  0  0  0  0  0  0  0  0  0
   -0.7462    4.9484    6.0370 N   0  3  0  0  0  0  0  0  0  0  0  0
    3.3948    0.6517    3.2146 N   0  3  0  0  0  0  0  0  0  0  0  0
   -0.8633    3.3501    3.6274 O   0  0  0  0  0  0  0  0  0  0  0  0
    3.4786    3.0296    4.4760 O   0  0  0  0  0  0  0  0  0  0  0  0
    0.1082    1.5673    4.6807 O   0  0  0  0  0  0  0  0  0  0  0  0
  1  2  1  0  0  0  0
  1 10  1  0  0  0  0
  1 21  1  1  0  0  0
  2  3  1  0  0  0  0
  2  7  1  1  0  0  0
  3  4  1  0  0  0  0
  3  8  1  1  0  0  0
  4  5  1  0  0  0  0
  4  9  1  1  0  0  0
  5  6  1  6  0  0  0
  5 10  1  0  0  0  0
  6 11  1  0  0  0  0
 12 13  1  0  0  0  0
 12 17  1  0  0  0  0
 12 18  1  1  0  0  0
 13 14  1  0  0  0  0
 14 15  1  0  0  0  0
 14 19  1  1  0  0  0
 15 16  1  0  0  0  0
 15 30  1  6  0  0  0
 16 17  1  0  0  0  0
 16 20  1  1  0  0  0
 17 21  1  6  0  0  0
 22 23  1  0  0  0  0
 22 30  1  6  0  0  0
 22 32  1  0  0  0  0
 23 24  1  0  0  0  0
 23 28  1  6  0  0  0
 24 25  1  0  0  0  0
 25 26  1  0  0  0  0
 25 31  1  6  0  0  0
 26 27  1  1  0  0  0
 26 32  1  0  0  0  0
 27 29  1  0  0  0  0
M  CHG  5   8   1  18   1  19   1  28   1  29   1
M  END
>  <CHROM.1>
-149.17754522,71.32135299,152.59880210,-56.00709369,-67.09990031,57.57096603
161.62495687,148.52518513,-144.79088904,-177.41438557,-69.13847234,-127.87806061
50.99572758,-48.66293840,-63.33942962,165.07313155,-2.79300285,4.98088511
3.24783729,-2.90873654,0.61953317,-2.28231512

>  <Name>
1tob

>  <RI>
0

>  <Rbt.Current_Directory>
/home/itssahil/PROJECTS/Mol_Feturizer/New_Systems/rnas/1tob

>  <Rbt.Executable>
rbdock ($Id: //depot/dev/client3/rdock/2013.1/src/exe/rbdock.cxx#4 $)

>  <Rbt.Library>
libRbt.so (2013.1, Build901 2013/11/27)

>  <Rbt.Parameter_File>
/export/apps/rDock/src/rDock_2013.1_src/data/scripts/dock_solv.prm

>  <Rbt.Receptor>
prm/pocket_docking_6.prm

>  <SCORE>
-46.232

>  <SCORE.INTER>
-44.1079

>  <SCORE.INTER.CONST>
1

>  <SCORE.INTER.POLAR>
-6.68921

>  <SCORE.INTER.ROT>
6

>  <SCORE.INTER.SOLV>
31.398

>  <SCORE.INTER.VDW>
-25.1739

>  <SCORE.INTER.norm>
-1.37837

>  <SCORE.INTRA>
-2.12412

>  <SCORE.INTRA.DIHEDRAL>
-0.683996

>  <SCORE.INTRA.DIHEDRAL.0>
22.9177

>  <SCORE.INTRA.POLAR>
-1.38725

>  <SCORE.INTRA.POLAR.0>
-0.311208

>  <SCORE.INTRA.REPUL>
0

>  <SCORE.INTRA.REPUL.0>
0

>  <SCORE.INTRA.SOLV>
1.88585

>  <SCORE.INTRA.SOLV.lig_0>
-132.657

>  <SCORE.INTRA.VDW>
1.99159

>  <SCORE.INTRA.VDW.0>
-4.68867

>  <SCORE.INTRA.norm>
-0.0663786

>  <SCORE.RESTR>
0

>  <SCORE.RESTR.CAVITY>
0

>  <SCORE.RESTR.norm>
0

>  <SCORE.SYSTEM>
0

>  <SCORE.SYSTEM.CONST>
0

>  <SCORE.SYSTEM.DIHEDRAL>
0

>  <SCORE.SYSTEM.SOLV>
0

>  <SCORE.SYSTEM.norm>
0

>  <SCORE.heavy>
32

>  <SCORE.norm>
-1.44475

>  <RMSD>
8.960

$$$$
1tob
 OpenBabel11021811413D
libRbt.so/2013.1/901 2013/11/27
 32 34  0  0  0  0  0  0  0  0999 V2000
   -5.8558    7.9028    2.3185 C   0  0  2  0  0  0  0  0  0  0  0  0
   -5.6077    9.3863    2.5805 C   0  0  1  0  0  0  0  0  0  0  0  0
   -6.6523    9.9169    3.5530 C   0  0  2  0  0  0  0  0  0  0  0  0
   -8.0452    9.6347    3.0029 C   0  0  1  0  0  0  0  0  0  0  0  0
   -8.2013    8.1416    2.7279 C   0  0  1  0  0  0  0  0  0  0  0  0
   -9.5425    7.8065    2.1054 C   0  0  0  0  0  0  0  0  0  0  0  0
   -4.3092    9.5659    3.1275 O   0  0  0  0  0  0  0  0  0  0  0  0
   -6.4466   11.3561    3.8245 N   0  3  0  0  0  0  0  0  0  0  0  0
   -9.0270   10.0649    3.9361 O   0  0  0  0  0  0  0  0  0  0  0  0
   -7.1796    7.6983    1.8088 O   0  0  0  0  0  0  0  0  0  0  0  0
   -9.6408    8.3117    0.7814 O   0  0  0  0  0  0  0  0  0  0  0  0
   -4.2651    7.1561    5.4230 C   0  0  2  0  0  0  0  0  0  0  0  0
   -2.8299    6.9100    5.8679 C   0  0  0  0  0  0  0  0  0  0  0  0
   -2.3920    5.4922    5.4996 C   0  0  1  0  0  0  0  0  0  0  0  0
   -2.4905    5.2997    3.9879 C   0  0  2  0  0  0  0  0  0  0  0  0
   -3.9252    5.5510    3.5214 C   0  0  1  0  0  0  0  0  0  0  0  0
   -4.3678    6.9589    3.9184 C   0  0  1  0  0  0  0  0  0  0  0  0
   -4.6835    8.5375    5.7473 N   0  3  0  0  0  0  0  0  0  0  0  0
   -1.0214    5.2371    6.0139 N   0  3  0  0  0  0  0  0  0  0  0  0
   -4.0069    5.3982    2.1107 O   0  0  0  0  0  0  0  0  0  0  0  0
   -5.7236    7.1832    3.4913 O   0  0  0  0  0  0  0  0  0  0  0  0
   -1.7157    3.7750    2.3030 C   0  0  1  0  0  0  0  0  0  0  0  0
   -2.4000    2.5304    1.7351 C   0  0  1  0  0  0  0  0  0  0  0  0
   -1.9396    1.2880    2.4825 C   0  0  0  0  0  0  0  0  0  0  0  0
   -0.4227    1.2060    2.4313 C   0  0  1  0  0  0  0  0  0  0  0  0
    0.1829    2.4913    2.9940 C   0  0  1  0  0  0  0  0  0  0  0  0
    1.6990    2.5047    2.9203 C   0  0  0  0  0  0  0  0  0  0  0  0
   -3.8748    2.6760    1.7552 N   0  3  0  0  0  0  0  0  0  0  0  0
    2.2652    3.6953    3.5982 N   0  3  0  0  0  0  0  0  0  0  0  0
   -2.0838    3.9633    3.6286 O   0  0  0  0  0  0  0  0  0  0  0  0
    0.0284    0.0884    3.1826 O   0  0  0  0  0  0  0  0  0  0  0  0
   -0.2909    3.6329    2.2472 O   0  0  0  0  0  0  0  0  0  0  0  0
  1  2  1  0  0  0  0
  1 10  1  0  0  0  0
  1 21  1  1  0  0  0
  2  3  1  0  0  0  0
  2  7  1  1  0  0  0
  3  4  1  0  0  0  0
  3  8  1  6  0  0  0
  4  5  1  0  0  0  0
  4  9  1  1  0  0  0
  5  6  1  6  0  0  0
  5 10  1  0  0  0  0
  6 11  1  0  0  0  0
 12 13  1  0  0  0  0
 12 17  1  0  0  0  0
 12 18  1  6  0  0  0
 13 14  1  0  0  0  0
 14 15  1  0  0  0  0
 14 19  1  6  0  0  0
 15 16  1  0  0  0  0
 15 30  1  1  0  0  0
 16 17  1  0  0  0  0
 16 20  1  6  0  0  0
 17 21  1  1  0  0  0
 22 23  1  0  0  0  0
 22 30  1  1  0  0  0
 22 32  1  0  0  0  0
 23 24  1  0  0  0  0
 23 28  1  1  0  0  0
 24 25  1  0  0  0  0
 25 26  1  0  0  0  0
 25 31  1  1  0  0  0
 26 27  1  6  0  0  0
 26 32  1  0  0  0  0
 27 29  1  0  0  0  0
M  CHG  5   8   1  18   1  19   1  28   1  29   1
M  END
>  <CHROM.1>
-76.51764525,173.73323800,174.35792764,73.26221128,68.75338146,61.94295323
-157.89193676,10.01799910,-160.19659311,-56.34488505,138.17998079,-132.38845596
154.45918625,175.66254006,-174.08362197,-167.00633896,-3.89875023,6.01347926
3.27029538,2.54239029,-0.46943049,0.56981978

>  <Name>
1tob

>  <RI>
0

>  <Rbt.Current_Directory>
/home/itssahil/PROJECTS/Mol_Feturizer/New_Systems/rnas/1tob

>  <Rbt.Executable>
rbdock ($Id: //depot/dev/client3/rdock/2013.1/src/exe/rbdock.cxx#4 $)

>  <Rbt.Library>
libRbt.so (2013.1, Build901 2013/11/27)

>  <Rbt.Parameter_File>
/export/apps/rDock/src/rDock_2013.1_src/data/scripts/dock_solv.prm

>  <Rbt.Receptor>
prm/pocket_docking_5.prm

>  <SCORE>
-50.4136

>  <SCORE.INTER>
-46.6275

>  <SCORE.INTER.CONST>
1

>  <SCORE.INTER.POLAR>
-6.87196

>  <SCORE.INTER.ROT>
6

>  <SCORE.INTER.SOLV>
33.2003

>  <SCORE.INTER.VDW>
-26.8453

>  <SCORE.INTER.norm>
-1.45711

>  <SCORE.INTRA>
-3.85462

>  <SCORE.INTRA.DIHEDRAL>
0.416654

>  <SCORE.INTRA.DIHEDRAL.0>
22.9177

>  <SCORE.INTRA.POLAR>
-1.82436

>  <SCORE.INTRA.POLAR.0>
-0.311208

>  <SCORE.INTRA.REPUL>
0

>  <SCORE.INTRA.REPUL.0>
0

>  <SCORE.INTRA.SOLV>
2.60625

>  <SCORE.INTRA.SOLV.lig_0>
-132.657

>  <SCORE.INTRA.VDW>
0.836738

>  <SCORE.INTRA.VDW.0>
-4.68867

>  <SCORE.INTRA.norm>
-0.120457

>  <SCORE.RESTR>
0.0685406

>  <SCORE.RESTR.CAVITY>
0.0685406

>  <SCORE.RESTR.norm>
0.00214189

>  <SCORE.SYSTEM>
0

>  <SCORE.SYSTEM.CONST>
0

>  <SCORE.SYSTEM.DIHEDRAL>
0

>  <SCORE.SYSTEM.SOLV>
0

>  <SCORE.SYSTEM.norm>
0

>  <SCORE.heavy>
32

>  <SCORE.norm>
-1.57543

>  <RMSD>
8.965

$$$$
1tob
 OpenBabel11021811413D
libRbt.so/2013.1/901 2013/11/27
 32 34  0  0  0  0  0  0  0  0999 V2000
   -5.5211    4.6504    1.4435 C   0  0  2  0  0  0  0  0  0  0  0  0
   -6.2677    4.1386    0.2139 C   0  0  1  0  0  0  0  0  0  0  0  0
   -6.9417    5.3035   -0.4983 C   0  0  2  0  0  0  0  0  0  0  0  0
   -7.8455    6.0413    0.4822 C   0  0  1  0  0  0  0  0  0  0  0  0
   -7.0382    6.4831    1.6997 C   0  0  1  0  0  0  0  0  0  0  0  0
   -7.8995    7.1571    2.7496 C   0  0  0  0  0  0  0  0  0  0  0  0
   -5.3564    3.5002   -0.6690 O   0  0  0  0  0  0  0  0  0  0  0  0
   -7.6821    4.8425   -1.6927 N   0  3  0  0  0  0  0  0  0  0  0  0
   -8.4258    7.1711   -0.1556 O   0  0  0  0  0  0  0  0  0  0  0  0
   -6.4183    5.3383    2.3243 O   0  0  0  0  0  0  0  0  0  0  0  0
   -8.9778    6.3234    3.1497 O   0  0  0  0  0  0  0  0  0  0  0  0
   -3.8058    6.2587    3.2571 C   0  0  2  0  0  0  0  0  0  0  0  0
   -2.6088    6.3131    4.1966 C   0  0  0  0  0  0  0  0  0  0  0  0
   -2.0870    4.9041    4.4793 C   0  0  1  0  0  0  0  0  0  0  0  0
   -1.6696    4.2377    3.1703 C   0  0  2  0  0  0  0  0  0  0  0  0
   -2.8588    4.1814    2.2101 C   0  0  1  0  0  0  0  0  0  0  0  0
   -3.3948    5.5897    1.9545 C   0  0  1  0  0  0  0  0  0  0  0  0
   -4.2947    7.6215    2.9536 N   0  3  0  0  0  0  0  0  0  0  0  0
   -0.9744    4.9652    5.4625 N   0  3  0  0  0  0  0  0  0  0  0  0
   -2.4593    3.5860    0.9829 O   0  0  0  0  0  0  0  0  0  0  0  0
   -4.5233    5.5284    1.0637 O   0  0  0  0  0  0  0  0  0  0  0  0
   -0.7522    2.1919    2.3119 C   0  0  1  0  0  0  0  0  0  0  0  0
   -0.3994    0.7568    2.7067 C   0  0  1  0  0  0  0  0  0  0  0  0
    0.7646    0.7502    3.6862 C   0  0  0  0  0  0  0  0  0  0  0  0
    1.9363    1.5025    3.0766 C   0  0  1  0  0  0  0  0  0  0  0  0
    1.4981    2.9148    2.6905 C   0  0  1  0  0  0  0  0  0  0  0  0
    2.6051    3.7078    2.0198 C   0  0  0  0  0  0  0  0  0  0  0  0
   -1.5825    0.0451    3.2454 N   0  3  0  0  0  0  0  0  0  0  0  0
    3.6520    4.1071    2.9905 N   0  3  0  0  0  0  0  0  0  0  0  0
   -1.1794    2.9051    3.4241 O   0  0  0  0  0  0  0  0  0  0  0  0
    3.0088    1.5649    4.0055 O   0  0  0  0  0  0  0  0  0  0  0  0
    0.3926    2.8565    1.7633 O   0  0  0  0  0  0  0  0  0  0  0  0
  1  2  1  0  0  0  0
  1 10  1  0  0  0  0
  1 21  1  6  0  0  0
  2  3  1  0  0  0  0
  2  7  1  6  0  0  0
  3  4  1  0  0  0  0
  3  8  1  6  0  0  0
  4  5  1  0  0  0  0
  4  9  1  6  0  0  0
  5  6  1  1  0  0  0
  5 10  1  0  0  0  0
  6 11  1  0  0  0  0
 12 13  1  0  0  0  0
 12 17  1  0  0  0  0
 12 18  1  6  0  0  0
 13 14  1  0  0  0  0
 14 15  1  0  0  0  0
 14 19  1  1  0  0  0
 15 16  1  0  0  0  0
 15 30  1  1  0  0  0
 16 17  1  0  0  0  0
 16 20  1  6  0  0  0
 17 21  1  6  0  0  0
 22 23  1  0  0  0  0
 22 30  1  1  0  0  0
 22 32  1  0  0  0  0
 23 24  1  0  0  0  0
 23 28  1  1  0  0  0
 24 25  1  0  0  0  0
 25 26  1  0  0  0  0
 25 31  1  1  0  0  0
 26 27  1  6  0  0  0
 26 32  1  0  0  0  0
 27 29  1  0  0  0  0
M  CHG  5   8   1  18   1  19   1  28   1  29   1
M  END
>  <CHROM.1>
-151.91842790,70.93810583,-43.01927477,66.93552828,55.63607310,177.02449509
170.92331226,25.92211047,-179.35693590,-53.53199283,-69.87891882,-174.11900100
-60.94445609,133.53664458,-72.36293461,-57.54997587,-3.04276502,4.29944169
2.20075215,3.01637936,-0.43870354,0.72415262

>  <Name>
1tob

>  <RI>
0

>  <Rbt.Current_Directory>
/home/itssahil/PROJECTS/Mol_Feturizer/New_Systems/rnas/1tob

>  <Rbt.Executable>
rbdock ($Id: //depot/dev/client3/rdock/2013.1/src/exe/rbdock.cxx#4 $)

>  <Rbt.Library>
libRbt.so (2013.1, Build901 2013/11/27)

>  <Rbt.Parameter_File>
/export/apps/rDock/src/rDock_2013.1_src/data/scripts/dock_solv.prm

>  <Rbt.Receptor>
prm/blind_docking_60.prm

>  <SCORE>
-34.5482

>  <SCORE.INTER>
-37.4361

>  <SCORE.INTER.CONST>
1

>  <SCORE.INTER.POLAR>
-4.65909

>  <SCORE.INTER.ROT>
6

>  <SCORE.INTER.SOLV>
35.2022

>  <SCORE.INTER.VDW>
-28.7612

>  <SCORE.INTER.norm>
-1.16988

>  <SCORE.INTRA>
-1.31369

>  <SCORE.INTRA.DIHEDRAL>
-7.994

>  <SCORE.INTRA.DIHEDRAL.0>
22.9177

>  <SCORE.INTRA.POLAR>
0.187562

>  <SCORE.INTRA.POLAR.0>
-0.311208

>  <SCORE.INTRA.REPUL>
0

>  <SCORE.INTRA.REPUL.0>
0

>  <SCORE.INTRA.SOLV>
-2.83579

>  <SCORE.INTRA.SOLV.lig_0>
-132.657

>  <SCORE.INTRA.VDW>
3.46349

>  <SCORE.INTRA.VDW.0>
-4.68867

>  <SCORE.INTRA.norm>
-0.0410529

>  <SCORE.RESTR>
4.20163

>  <SCORE.RESTR.CAVITY>
4.20163

>  <SCORE.RESTR.norm>
0.131301

>  <SCORE.SYSTEM>
0

>  <SCORE.SYSTEM.CONST>
0

>  <SCORE.SYSTEM.DIHEDRAL>
0

>  <SCORE.SYSTEM.SOLV>
0

>  <SCORE.SYSTEM.norm>
0

>  <SCORE.heavy>
32

>  <SCORE.norm>
-1.07963

>  <RMSD>
8.970

$$$$
1tob
 OpenBabel11021811413D
libRbt.so/2013.1/901 2013/11/27
 32 34  0  0  0  0  0  0  0  0999 V2000
   -3.7340    6.1389    1.0329 C   0  0  2  0  0  0  0  0  0  0  0  0
   -3.5035    7.5862    0.6047 C   0  0  1  0  0  0  0  0  0  0  0  0
   -2.3326    8.1708    1.3828 C   0  0  2  0  0  0  0  0  0  0  0  0
   -2.5959    8.0272    2.8769 C   0  0  1  0  0  0  0  0  0  0  0  0
   -2.8577    6.5630    3.2188 C   0  0  1  0  0  0  0  0  0  0  0  0
   -3.2031    6.3647    4.6817 C   0  0  0  0  0  0  0  0  0  0  0  0
   -3.2259    7.6359   -0.7874 O   0  0  0  0  0  0  0  0  0  0  0  0
   -2.0850    9.5772    0.9980 N   0  3  0  0  0  0  0  0  0  0  0  0
   -1.4776    8.5078    3.6107 O   0  0  0  0  0  0  0  0  0  0  0  0
   -3.9704    6.0654    2.4445 O   0  0  0  0  0  0  0  0  0  0  0  0
   -4.4201    7.0147    5.0203 O   0  0  0  0  0  0  0  0  0  0  0  0
   -3.3166    3.0760    1.0656 C   0  0  2  0  0  0  0  0  0  0  0  0
   -3.1141    1.8527    1.9492 C   0  0  0  0  0  0  0  0  0  0  0  0
   -1.6469    1.4230    1.9389 C   0  0  1  0  0  0  0  0  0  0  0  0
   -0.7727    2.5651    2.4521 C   0  0  2  0  0  0  0  0  0  0  0  0
   -0.9693    3.8063    1.5803 C   0  0  1  0  0  0  0  0  0  0  0  0
   -2.4423    4.2135    1.5705 C   0  0  1  0  0  0  0  0  0  0  0  0
   -4.7286    3.5163    1.0976 N   0  3  0  0  0  0  0  0  0  0  0  0
   -1.4787    0.1802    2.7359 N   0  3  0  0  0  0  0  0  0  0  0  0
   -0.1754    4.8751    2.0777 O   0  0  0  0  0  0  0  0  0  0  0  0
   -2.6233    5.3716    0.7357 O   0  0  0  0  0  0  0  0  0  0  0  0
    1.1760    1.8898    3.6812 C   0  0  1  0  0  0  0  0  0  0  0  0
    1.3018    3.1691    4.5102 C   0  0  1  0  0  0  0  0  0  0  0  0
    2.2485    4.1470    3.8307 C   0  0  0  0  0  0  0  0  0  0  0  0
    3.5845    3.4640    3.5880 C   0  0  1  0  0  0  0  0  0  0  0  0
    3.3715    2.1876    2.7750 C   0  0  1  0  0  0  0  0  0  0  0  0
    4.6602    1.4196    2.5435 C   0  0  0  0  0  0  0  0  0  0  0  0
   -0.0277    3.7713    4.7678 N   0  3  0  0  0  0  0  0  0  0  0  0
    5.4559    2.0132    1.4426 N   0  3  0  0  0  0  0  0  0  0  0  0
    0.6153    2.1728    2.4428 O   0  0  0  0  0  0  0  0  0  0  0  0
    4.4585    4.3412    2.8925 O   0  0  0  0  0  0  0  0  0  0  0  0
    2.4653    1.3021    3.4679 O   0  0  0  0  0  0  0  0  0  0  0  0
  1  2  1  0  0  0  0
  1 10  1  0  0  0  0
  1 21  1  1  0  0  0
  2  3  1  0  0  0  0
  2  7  1  6  0  0  0
  3  4  1  0  0  0  0
  3  8  1  1  0  0  0
  4  5  1  0  0  0  0
  4  9  1  1  0  0  0
  5  6  1  1  0  0  0
  5 10  1  0  0  0  0
  6 11  1  0  0  0  0
 12 13  1  0  0  0  0
 12 17  1  0  0  0  0
 12 18  1  1  0  0  0
 13 14  1  0  0  0  0
 14 15  1  0  0  0  0
 14 19  1  1  0  0  0
 15 16  1  0  0  0  0
 15 30  1  6  0  0  0
 16 17  1  0  0  0  0
 16 20  1  1  0  0  0
 17 21  1  6  0  0  0
 22 23  1  0  0  0  0
 22 30  1  6  0  0  0
 22 32  1  0  0  0  0
 23 24  1  0  0  0  0
 23 28  1  6  0  0  0
 24 25  1  0  0  0  0
 25 26  1  0  0  0  0
 25 31  1  6  0  0  0
 26 27  1  1  0  0  0
 26 32  1  0  0  0  0
 27 29  1  0  0  0  0
M  CHG  5   8   1  18   1  19   1  28   1  29   1
M  END
>  <CHROM.1>
153.42778093,-51.41135134,64.47059330,68.44650845,63.97505168,173.98223253
89.81416547,-76.69851343,-105.62083386,90.86038479,82.05894284,-68.90300769
155.74485647,53.18405159,-79.57489307,175.15182437,-0.78357988,4.48687119
2.44320440,2.50223769,-0.15872150,0.00575084

>  <Name>
1tob

>  <RI>
0

>  <Rbt.Current_Directory>
/home/itssahil/PROJECTS/Mol_Feturizer/New_Systems/rnas/1tob

>  <Rbt.Executable>
rbdock ($Id: //depot/dev/client3/rdock/2013.1/src/exe/rbdock.cxx#4 $)

>  <Rbt.Library>
libRbt.so (2013.1, Build901 2013/11/27)

>  <Rbt.Parameter_File>
/export/apps/rDock/src/rDock_2013.1_src/data/scripts/dock_solv.prm

>  <Rbt.Receptor>
prm/blind_docking_40.prm

>  <SCORE>
-38.0913

>  <SCORE.INTER>
-40.0235

>  <SCORE.INTER.CONST>
1

>  <SCORE.INTER.POLAR>
-3.95283

>  <SCORE.INTER.ROT>
6

>  <SCORE.INTER.SOLV>
34.6199

>  <SCORE.INTER.VDW>
-32.6462

>  <SCORE.INTER.norm>
-1.25073

>  <SCORE.INTRA>
-3.33701

>  <SCORE.INTRA.DIHEDRAL>
-0.949508

>  <SCORE.INTRA.DIHEDRAL.0>
22.9177

>  <SCORE.INTRA.POLAR>
-2.28466

>  <SCORE.INTRA.POLAR.0>
-0.311208

>  <SCORE.INTRA.REPUL>
0

>  <SCORE.INTRA.REPUL.0>
0

>  <SCORE.INTRA.SOLV>
2.67526

>  <SCORE.INTRA.SOLV.lig_0>
-132.657

>  <SCORE.INTRA.VDW>
3.56797

>  <SCORE.INTRA.VDW.0>
-4.68867

>  <SCORE.INTRA.norm>
-0.104282

>  <SCORE.RESTR>
5.26919

>  <SCORE.RESTR.CAVITY>
5.26919

>  <SCORE.RESTR.norm>
0.164662

>  <SCORE.SYSTEM>
0

>  <SCORE.SYSTEM.CONST>
0

>  <SCORE.SYSTEM.DIHEDRAL>
0

>  <SCORE.SYSTEM.SOLV>
0

>  <SCORE.SYSTEM.norm>
0

>  <SCORE.heavy>
32

>  <SCORE.norm>
-1.19035

>  <RMSD>
8.972

$$$$
1tob
 OpenBabel11021811413D
libRbt.so/2013.1/901 2013/11/27
 32 34  0  0  0  0  0  0  0  0999 V2000
   -5.3946    4.6649    1.9090 C   0  0  2  0  0  0  0  0  0  0  0  0
   -5.7300    3.9348    0.6107 C   0  0  1  0  0  0  0  0  0  0  0  0
   -6.3681    4.9058   -0.3734 C   0  0  2  0  0  0  0  0  0  0  0  0
   -7.5844    5.5564    0.2745 C   0  0  1  0  0  0  0  0  0  0  0  0
   -7.1778    6.2272    1.5837 C   0  0  1  0  0  0  0  0  0  0  0  0
   -8.3613    6.8282    2.3162 C   0  0  0  0  0  0  0  0  0  0  0  0
   -4.5451    3.3910    0.0467 O   0  0  0  0  0  0  0  0  0  0  0  0
   -6.7136    4.2294   -1.6425 N   0  3  0  0  0  0  0  0  0  0  0  0
   -8.1462    6.5150   -0.6118 O   0  0  0  0  0  0  0  0  0  0  0  0
   -6.5726    5.2596    2.4683 O   0  0  0  0  0  0  0  0  0  0  0  0
   -9.3183    5.8356    2.6583 O   0  0  0  0  0  0  0  0  0  0  0  0
   -3.7683    6.1704    3.9284 C   0  0  2  0  0  0  0  0  0  0  0  0
   -2.5662    6.1717    4.8628 C   0  0  0  0  0  0  0  0  0  0  0  0
   -1.9773    4.7655    4.9779 C   0  0  1  0  0  0  0  0  0  0  0  0
   -1.5423    4.2753    3.5986 C   0  0  2  0  0  0  0  0  0  0  0  0
   -2.7367    4.2749    2.6433 C   0  0  1  0  0  0  0  0  0  0  0  0
   -3.3395    5.6766    2.5552 C   0  0  1  0  0  0  0  0  0  0  0  0
   -4.3223    7.5348    3.7872 N   0  3  0  0  0  0  0  0  0  0  0  0
   -0.8594    4.7644    5.9568 N   0  3  0  0  0  0  0  0  0  0  0  0
   -2.3221    3.8449    1.3537 O   0  0  0  0  0  0  0  0  0  0  0  0
   -4.4725    5.6661    1.6681 O   0  0  0  0  0  0  0  0  0  0  0  0
   -0.6792    2.3287    2.4897 C   0  0  1  0  0  0  0  0  0  0  0  0
   -0.3098    0.8633    2.7262 C   0  0  1  0  0  0  0  0  0  0  0  0
    0.9421    0.7671    3.5851 C   0  0  0  0  0  0  0  0  0  0  0  0
    2.0604    1.5624    2.9315 C   0  0  1  0  0  0  0  0  0  0  0  0
    1.6065    3.0048    2.7098 C   0  0  1  0  0  0  0  0  0  0  0  0
    2.6550    3.8462    2.0051 C   0  0  0  0  0  0  0  0  0  0  0  0
   -1.4456    0.1145    3.3141 N   0  3  0  0  0  0  0  0  0  0  0  0
    3.8691    4.0118    2.8395 N   0  3  0  0  0  0  0  0  0  0  0  0
   -0.9888    2.9468    3.6939 O   0  0  0  0  0  0  0  0  0  0  0  0
    3.2173    1.5397    3.7549 O   0  0  0  0  0  0  0  0  0  0  0  0
    0.4169    3.0316    1.8915 O   0  0  0  0  0  0  0  0  0  0  0  0
  1  2  1  0  0  0  0
  1 10  1  0  0  0  0
  1 21  1  6  0  0  0
  2  3  1  0  0  0  0
  2  7  1  6  0  0  0
  3  4  1  0  0  0  0
  3  8  1  6  0  0  0
  4  5  1  0  0  0  0
  4  9  1  6  0  0  0
  5  6  1  1  0  0  0
  5 10  1  0  0  0  0
  6 11  1  0  0  0  0
 12 13  1  0  0  0  0
 12 17  1  0  0  0  0
 12 18  1  6  0  0  0
 13 14  1  0  0  0  0
 14 15  1  0  0  0  0
 14 19  1  1  0  0  0
 15 16  1  0  0  0  0
 15 30  1  1  0  0  0
 16 17  1  0  0  0  0
 16 20  1  6  0  0  0
 17 21  1  6  0  0  0
 22 23  1  0  0  0  0
 22 30  1  1  0  0  0
 22 32  1  0  0  0  0
 23 24  1  0  0  0  0
 23 28  1  1  0  0  0
 24 25  1  0  0  0  0
 25 26  1  0  0  0  0
 25 31  1  1  0  0  0
 26 27  1  6  0  0  0
 26 32  1  0  0  0  0
 27 29  1  0  0  0  0
M  CHG  5   8   1  18   1  19   1  28   1  29   1
M  END
>  <CHROM.1>
-130.71625832,108.06911072,175.92239391,-57.87991277,60.86112696,-173.72476423
176.29108193,12.85099742,173.65781301,-175.69621482,-72.75640134,-171.30073532
59.25599269,64.54858578,-65.16565420,-83.17930986,-2.89598778,4.20193816
2.37865102,3.09214021,-0.41965343,0.86518822

>  <Name>
1tob

>  <RI>
0

>  <Rbt.Current_Directory>
/home/itssahil/PROJECTS/Mol_Feturizer/New_Systems/rnas/1tob

>  <Rbt.Executable>
rbdock ($Id: //depot/dev/client3/rdock/2013.1/src/exe/rbdock.cxx#4 $)

>  <Rbt.Library>
libRbt.so (2013.1, Build901 2013/11/27)

>  <Rbt.Parameter_File>
/export/apps/rDock/src/rDock_2013.1_src/data/scripts/dock_solv.prm

>  <Rbt.Receptor>
prm/blind_docking_20.prm

>  <SCORE>
-38.6698

>  <SCORE.INTER>
-40.9753

>  <SCORE.INTER.CONST>
1

>  <SCORE.INTER.POLAR>
-4.67271

>  <SCORE.INTER.ROT>
6

>  <SCORE.INTER.SOLV>
36.7759

>  <SCORE.INTER.VDW>
-31.5998

>  <SCORE.INTER.norm>
-1.28048

>  <SCORE.INTRA>
-3.99188

>  <SCORE.INTRA.DIHEDRAL>
-3.37374

>  <SCORE.INTRA.DIHEDRAL.0>
22.9177

>  <SCORE.INTRA.POLAR>
-1.4807

>  <SCORE.INTRA.POLAR.0>
-0.311208

>  <SCORE.INTRA.REPUL>
0

>  <SCORE.INTRA.REPUL.0>
0

>  <SCORE.INTRA.SOLV>
-4.07589

>  <SCORE.INTRA.SOLV.lig_0>
-132.657

>  <SCORE.INTRA.VDW>
4.76733

>  <SCORE.INTRA.VDW.0>
-4.68867

>  <SCORE.INTRA.norm>
-0.124746

>  <SCORE.RESTR>
6.29743

>  <SCORE.RESTR.CAVITY>
6.29743

>  <SCORE.RESTR.norm>
0.196795

>  <SCORE.SYSTEM>
0

>  <SCORE.SYSTEM.CONST>
0

>  <SCORE.SYSTEM.DIHEDRAL>
0

>  <SCORE.SYSTEM.SOLV>
0

>  <SCORE.SYSTEM.norm>
0

>  <SCORE.heavy>
32

>  <SCORE.norm>
-1.20843

>  <RMSD>
8.975

$$$$
1tob
 OpenBabel11021811413D
libRbt.so/2013.1/901 2013/11/27
 32 34  0  0  0  0  0  0  0  0999 V2000
   -5.7864    4.8298    2.0706 C   0  0  2  0  0  0  0  0  0  0  0  0
   -5.9773    4.1217    0.7315 C   0  0  1  0  0  0  0  0  0  0  0  0
   -6.6418    5.0681   -0.2589 C   0  0  2  0  0  0  0  0  0  0  0  0
   -7.9481    5.5840    0.3328 C   0  0  1  0  0  0  0  0  0  0  0  0
   -7.6816    6.2391    1.6852 C   0  0  1  0  0  0  0  0  0  0  0  0
   -8.9557    6.7053    2.3618 C   0  0  0  0  0  0  0  0  0  0  0  0
   -4.7170    3.7062    0.2250 O   0  0  0  0  0  0  0  0  0  0  0  0
   -6.8494    4.4115   -1.5678 N   0  3  0  0  0  0  0  0  0  0  0  0
   -8.5413    6.5214   -0.5557 O   0  0  0  0  0  0  0  0  0  0  0  0
   -7.0443    5.2967    2.5745 O   0  0  0  0  0  0  0  0  0  0  0  0
   -9.7048    5.6099    2.8687 O   0  0  0  0  0  0  0  0  0  0  0  0
   -4.2956    6.1700    4.2368 C   0  0  2  0  0  0  0  0  0  0  0  0
   -3.0965    6.1889    5.1749 C   0  0  0  0  0  0  0  0  0  0  0  0
   -2.3301    4.8687    5.0891 C   0  0  1  0  0  0  0  0  0  0  0  0
   -1.8461    4.6468    3.6579 C   0  0  2  0  0  0  0  0  0  0  0  0
   -3.0379    4.6330    2.6993 C   0  0  1  0  0  0  0  0  0  0  0  0
   -3.8172    5.9429    2.8110 C   0  0  1  0  0  0  0  0  0  0  0  0
   -5.0223    7.4575    4.2910 N   0  3  0  0  0  0  0  0  0  0  0  0
   -1.2139    4.8678    6.0700 N   0  3  0  0  0  0  0  0  0  0  0  0
   -2.5812    4.4542    1.3653 O   0  0  0  0  0  0  0  0  0  0  0  0
   -4.9462    5.9170    1.9190 O   0  0  0  0  0  0  0  0  0  0  0  0
   -0.4934    3.1541    2.3518 C   0  0  1  0  0  0  0  0  0  0  0  0
   -0.8100    1.7376    1.8690 C   0  0  1  0  0  0  0  0  0  0  0  0
   -0.2615    0.7114    2.8490 C   0  0  0  0  0  0  0  0  0  0  0  0
    1.2264    0.9521    3.0457 C   0  0  1  0  0  0  0  0  0  0  0  0
    1.4601    2.3907    3.5055 C   0  0  1  0  0  0  0  0  0  0  0  0
    2.9328    2.7214    3.6666 C   0  0  0  0  0  0  0  0  0  0  0  0
   -2.2638    1.5643    1.6391 N   0  3  0  0  0  0  0  0  0  0  0  0
    3.6692    2.5565    2.3905 N   0  3  0  0  0  0  0  0  0  0  0  0
   -1.1250    3.4012    3.5635 O   0  0  0  0  0  0  0  0  0  0  0  0
    1.7411    0.0456    4.0102 O   0  0  0  0  0  0  0  0  0  0  0  0
    0.9180    3.3162    2.5385 O   0  0  0  0  0  0  0  0  0  0  0  0
  1  2  1  0  0  0  0
  1 10  1  0  0  0  0
  1 21  1  6  0  0  0
  2  3  1  0  0  0  0
  2  7  1  6  0  0  0
  3  4  1  0  0  0  0
  3  8  1  6  0  0  0
  4  5  1  0  0  0  0
  4  9  1  6  0  0  0
  5  6  1  1  0  0  0
  5 10  1  0  0  0  0
  6 11  1  0  0  0  0
 12 13  1  0  0  0  0
 12 17  1  0  0  0  0
 12 18  1  6  0  0  0
 13 14  1  0  0  0  0
 14 15  1  0  0  0  0
 14 19  1  1  0  0  0
 15 16  1  0  0  0  0
 15 30  1  1  0  0  0
 16 17  1  0  0  0  0
 16 20  1  6  0  0  0
 17 21  1  6  0  0  0
 22 23  1  0  0  0  0
 22 30  1  1  0  0  0
 22 32  1  0  0  0  0
 23 24  1  0  0  0  0
 23 28  1  1  0  0  0
 24 25  1  0  0  0  0
 25 26  1  0  0  0  0
 25 31  1  1  0  0  0
 26 27  1  6  0  0  0
 26 32  1  0  0  0  0
 27 29  1  0  0  0  0
M  CHG  5   8   1  18   1  19   1  28   1  29   1
M  END
>  <CHROM.1>
-126.35776037,117.44664623,46.69674355,-65.81302197,73.40019873,-177.91311419
6.25658461,-164.45816560,-172.59847056,-67.06160373,-68.03766881,-132.08401522
-123.86985310,86.35747534,60.03706058,71.36074913,-3.29054767,4.23838305
2.45099514,3.09900658,-0.43800475,0.97467478

>  <Name>
1tob

>  <RI>
0

>  <Rbt.Current_Directory>
/home/itssahil/PROJECTS/Mol_Feturizer/New_Systems/rnas/1tob

>  <Rbt.Executable>
rbdock ($Id: //depot/dev/client3/rdock/2013.1/src/exe/rbdock.cxx#4 $)

>  <Rbt.Library>
libRbt.so (2013.1, Build901 2013/11/27)

>  <Rbt.Parameter_File>
/export/apps/rDock/src/rDock_2013.1_src/data/scripts/dock_solv.prm

>  <Rbt.Receptor>
prm/blind_docking_80.prm

>  <SCORE>
-38.9919

>  <SCORE.INTER>
-51.9482

>  <SCORE.INTER.CONST>
1

>  <SCORE.INTER.POLAR>
-7.33983

>  <SCORE.INTER.ROT>
6

>  <SCORE.INTER.SOLV>
34.463

>  <SCORE.INTER.VDW>
-29.2537

>  <SCORE.INTER.norm>
-1.62338

>  <SCORE.INTRA>
8.35192

>  <SCORE.INTRA.DIHEDRAL>
10.6325

>  <SCORE.INTRA.DIHEDRAL.0>
22.9177

>  <SCORE.INTRA.POLAR>
-0.468277

>  <SCORE.INTRA.POLAR.0>
-0.311208

>  <SCORE.INTRA.REPUL>
0.10518

>  <SCORE.INTRA.REPUL.0>
0

>  <SCORE.INTRA.SOLV>
0.0274169

>  <SCORE.INTRA.SOLV.lig_0>
-132.657

>  <SCORE.INTRA.VDW>
4.08819

>  <SCORE.INTRA.VDW.0>
-4.68867

>  <SCORE.INTRA.norm>
0.260997

>  <SCORE.RESTR>
4.6044

>  <SCORE.RESTR.CAVITY>
4.6044

>  <SCORE.RESTR.norm>
0.143888

>  <SCORE.SYSTEM>
0

>  <SCORE.SYSTEM.CONST>
0

>  <SCORE.SYSTEM.DIHEDRAL>
0

>  <SCORE.SYSTEM.SOLV>
0

>  <SCORE.SYSTEM.norm>
0

>  <SCORE.heavy>
32

>  <SCORE.norm>
-1.2185

>  <RMSD>
8.981

$$$$
1tob
 OpenBabel11021811413D
libRbt.so/2013.1/901 2013/11/27
 32 34  0  0  0  0  0  0  0  0999 V2000
   -5.8035    5.0071    2.0128 C   0  0  2  0  0  0  0  0  0  0  0  0
   -5.8674    4.0253    0.8452 C   0  0  1  0  0  0  0  0  0  0  0  0
   -6.3609    4.7443   -0.4029 C   0  0  2  0  0  0  0  0  0  0  0  0
   -7.7016    5.4065   -0.1084 C   0  0  1  0  0  0  0  0  0  0  0  0
   -7.5670    6.3378    1.0932 C   0  0  1  0  0  0  0  0  0  0  0  0
   -8.8884    6.9695    1.4847 C   0  0  0  0  0  0  0  0  0  0  0  0
   -4.5775    3.4809    0.6056 O   0  0  0  0  0  0  0  0  0  0  0  0
   -6.4424    3.8198   -1.5544 N   0  3  0  0  0  0  0  0  0  0  0  0
   -8.1371    6.1375   -1.2468 O   0  0  0  0  0  0  0  0  0  0  0  0
   -7.0881    5.6010    2.2390 O   0  0  0  0  0  0  0  0  0  0  0  0
   -9.4274    6.3644    2.6515 O   0  0  0  0  0  0  0  0  0  0  0  0
   -4.1873    6.4265    4.0153 C   0  0  2  0  0  0  0  0  0  0  0  0
   -2.9693    6.4606    4.9283 C   0  0  0  0  0  0  0  0  0  0  0  0
   -2.2732    5.0995    4.9416 C   0  0  1  0  0  0  0  0  0  0  0  0
   -1.8314    4.7336    3.5264 C   0  0  2  0  0  0  0  0  0  0  0  0
   -3.0422    4.7024    2.5925 C   0  0  1  0  0  0  0  0  0  0  0  0
   -3.7512    6.0563    2.6060 C   0  0  1  0  0  0  0  0  0  0  0  0
   -4.8460    7.7504    3.9727 N   0  3  0  0  0  0  0  0  0  0  0  0
   -1.1380    5.1218    5.9003 N   0  3  0  0  0  0  0  0  0  0  0  0
   -2.6234    4.3891    1.2709 O   0  0  0  0  0  0  0  0  0  0  0  0
   -4.8986    6.0153    1.7384 O   0  0  0  0  0  0  0  0  0  0  0  0
   -0.6261    3.0467    2.3159 C   0  0  1  0  0  0  0  0  0  0  0  0
   -1.0012    1.5936    2.0197 C   0  0  1  0  0  0  0  0  0  0  0  0
   -0.4151    0.6715    3.0782 C   0  0  0  0  0  0  0  0  0  0  0  0
    1.0867    0.8916    3.1584 C   0  0  1  0  0  0  0  0  0  0  0  0
    1.3782    2.3663    3.4339 C   0  0  1  0  0  0  0  0  0  0  0  0
    2.8646    2.6721    3.4691 C   0  0  0  0  0  0  0  0  0  0  0  0
   -2.4696    1.4357    1.8970 N   0  3  0  0  0  0  0  0  0  0  0  0
    3.6691    1.5082    3.0268 N   0  3  0  0  0  0  0  0  0  0  0  0
   -1.1768    3.4483    3.5256 O   0  0  0  0  0  0  0  0  0  0  0  0
    1.6406    0.0874    4.1895 O   0  0  0  0  0  0  0  0  0  0  0  0
    0.7972    3.1898    2.3995 O   0  0  0  0  0  0  0  0  0  0  0  0
  1  2  1  0  0  0  0
  1 10  1  0  0  0  0
  1 21  1  6  0  0  0
  2  3  1  0  0  0  0
  2  7  1  6  0  0  0
  3  4  1  0  0  0  0
  3  8  1  6  0  0  0
  4  5  1  0  0  0  0
  4  9  1  6  0  0  0
  5  6  1  1  0  0  0
  5 10  1  0  0  0  0
  6 11  1  0  0  0  0
 12 13  1  0  0  0  0
 12 17  1  0  0  0  0
 12 18  1  6  0  0  0
 13 14  1  0  0  0  0
 14 15  1  0  0  0  0
 14 19  1  1  0  0  0
 15 16  1  0  0  0  0
 15 30  1  1  0  0  0
 16 17  1  0  0  0  0
 16 20  1  6  0  0  0
 17 21  1  6  0  0  0
 22 23  1  0  0  0  0
 22 30  1  1  0  0  0
 22 32  1  0  0  0  0
 23 24  1  0  0  0  0
 23 28  1  1  0  0  0
 24 25  1  0  0  0  0
 25 26  1  0  0  0  0
 25 31  1  1  0  0  0
 26 27  1  6  0  0  0
 26 32  1  0  0  0  0
 27 29  1  0  0  0  0
M  CHG  5   8   1  18   1  19   1  28   1  29   1
M  END
>  <CHROM.1>
-115.55078239,-95.78057125,-171.84573289,-43.57202256,104.41106667,69.56565104
-40.25420039,8.27859964,-174.82975294,108.52477019,-66.76463043,-133.79607149
-26.61979356,-65.31456503,8.55519739,66.40429089,-3.24258902,4.22511348,2.34844729
-3.06216922,0.48810209,-2.28704460

>  <Name>
1tob

>  <RI>
0

>  <Rbt.Current_Directory>
/home/itssahil/PROJECTS/Mol_Feturizer/New_Systems/rnas/1tob

>  <Rbt.Executable>
rbdock ($Id: //depot/dev/client3/rdock/2013.1/src/exe/rbdock.cxx#4 $)

>  <Rbt.Library>
libRbt.so (2013.1, Build901 2013/11/27)

>  <Rbt.Parameter_File>
/export/apps/rDock/src/rDock_2013.1_src/data/scripts/dock_solv.prm

>  <Rbt.Receptor>
prm/blind_docking_80.prm

>  <SCORE>
-30.1358

>  <SCORE.INTER>
-55.9314

>  <SCORE.INTER.CONST>
1

>  <SCORE.INTER.POLAR>
-7.25733

>  <SCORE.INTER.ROT>
6

>  <SCORE.INTER.SOLV>
33.7361

>  <SCORE.INTER.VDW>
-31.9419

>  <SCORE.INTER.norm>
-1.74786

>  <SCORE.INTRA>
20.6429

>  <SCORE.INTRA.DIHEDRAL>
20.1346

>  <SCORE.INTRA.DIHEDRAL.0>
22.9177

>  <SCORE.INTRA.POLAR>
-0.315974

>  <SCORE.INTRA.POLAR.0>
-0.311208

>  <SCORE.INTRA.REPUL>
0

>  <SCORE.INTRA.REPUL.0>
0

>  <SCORE.INTRA.SOLV>
2.00008

>  <SCORE.INTRA.SOLV.lig_0>
-132.657

>  <SCORE.INTRA.VDW>
10.6498

>  <SCORE.INTRA.VDW.0>
-4.68867

>  <SCORE.INTRA.norm>
0.64509

>  <SCORE.RESTR>
5.15275

>  <SCORE.RESTR.CAVITY>
5.15275

>  <SCORE.RESTR.norm>
0.161024

>  <SCORE.SYSTEM>
0

>  <SCORE.SYSTEM.CONST>
0

>  <SCORE.SYSTEM.DIHEDRAL>
0

>  <SCORE.SYSTEM.SOLV>
0

>  <SCORE.SYSTEM.norm>
0

>  <SCORE.heavy>
32

>  <SCORE.norm>
-0.941744

>  <RMSD>
8.986

$$$$
1tob
 OpenBabel11021811413D
libRbt.so/2013.1/901 2013/11/27
 32 34  0  0  0  0  0  0  0  0999 V2000
   -5.8386    6.4402    1.4271 C   0  0  2  0  0  0  0  0  0  0  0  0
   -6.3034    5.1018    0.8581 C   0  0  1  0  0  0  0  0  0  0  0  0
   -6.4151    5.1999   -0.6573 C   0  0  2  0  0  0  0  0  0  0  0  0
   -7.3398    6.3549   -1.0226 C   0  0  1  0  0  0  0  0  0  0  0  0
   -6.8338    7.6458   -0.3847 C   0  0  1  0  0  0  0  0  0  0  0  0
   -7.7559    8.8199   -0.6484 C   0  0  0  0  0  0  0  0  0  0  0  0
   -5.3742    4.0849    1.2048 O   0  0  0  0  0  0  0  0  0  0  0  0
   -6.8712    3.9206   -1.2428 N   0  3  0  0  0  0  0  0  0  0  0  0
   -7.3959    6.4975   -2.4356 O   0  0  0  0  0  0  0  0  0  0  0  0
   -6.7413    7.4868    1.0475 O   0  0  0  0  0  0  0  0  0  0  0  0
   -7.6788    9.2468   -2.0011 O   0  0  0  0  0  0  0  0  0  0  0  0
   -3.9488    7.1869    3.2405 C   0  0  2  0  0  0  0  0  0  0  0  0
   -2.8160    7.0345    4.2464 C   0  0  0  0  0  0  0  0  0  0  0  0
   -2.4379    5.5617    4.4063 C   0  0  1  0  0  0  0  0  0  0  0  0
   -1.9948    4.9951    3.0593 C   0  0  2  0  0  0  0  0  0  0  0  0
   -3.1186    5.1471    2.0330 C   0  0  1  0  0  0  0  0  0  0  0  0
   -3.5126    6.6177    1.8993 C   0  0  1  0  0  0  0  0  0  0  0  0
   -4.2967    8.6130    3.0570 N   0  3  0  0  0  0  0  0  0  0  0  0
   -1.3913    5.4193    5.4515 N   0  3  0  0  0  0  0  0  0  0  0  0
   -2.6925    4.6441    0.7739 O   0  0  0  0  0  0  0  0  0  0  0  0
   -4.5812    6.7520    0.9448 O   0  0  0  0  0  0  0  0  0  0  0  0
   -1.0329    3.0189    2.0932 C   0  0  1  0  0  0  0  0  0  0  0  0
   -1.3478    1.5227    2.0471 C   0  0  1  0  0  0  0  0  0  0  0  0
   -0.7689    0.8239    3.2681 C   0  0  0  0  0  0  0  0  0  0  0  0
    0.7208    1.1140    3.3517 C   0  0  1  0  0  0  0  0  0  0  0  0
    0.9522    2.6245    3.3714 C   0  0  1  0  0  0  0  0  0  0  0  0
    2.4252    2.9903    3.3953 C   0  0  0  0  0  0  0  0  0  0  0  0
   -2.8048    1.2877    1.9115 N   0  3  0  0  0  0  0  0  0  0  0  0
    3.2823    1.8102    3.1300 N   0  3  0  0  0  0  0  0  0  0  0  0
   -1.6396    3.6039    3.1968 O   0  0  0  0  0  0  0  0  0  0  0  0
    1.2646    0.5252    4.5241 O   0  0  0  0  0  0  0  0  0  0  0  0
    0.3808    3.2306    2.1917 O   0  0  0  0  0  0  0  0  0  0  0  0
  1  2  1  0  0  0  0
  1 10  1  0  0  0  0
  1 21  1  6  0  0  0
  2  3  1  0  0  0  0
  2  7  1  6  0  0  0
  3  4  1  0  0  0  0
  3  8  1  1  0  0  0
  4  5  1  0  0  0  0
  4  9  1  6  0  0  0
  5  6  1  1  0  0  0
  5 10  1  0  0  0  0
  6 11  1  0  0  0  0
 12 13  1  0  0  0  0
 12 17  1  0  0  0  0
 12 18  1  6  0  0  0
 13 14  1  0  0  0  0
 14 15  1  0  0  0  0
 14 19  1  1  0  0  0
 15 16  1  0  0  0  0
 15 30  1  1  0  0  0
 16 17  1  0  0  0  0
 16 20  1  6  0  0  0
 17 21  1  6  0  0  0
 22 23  1  0  0  0  0
 22 30  1  1  0  0  0
 22 32  1  0  0  0  0
 23 24  1  0  0  0  0
 23 28  1  1  0  0  0
 24 25  1  0  0  0  0
 25 26  1  0  0  0  0
 25 31  1  1  0  0  0
 26 27  1  6  0  0  0
 26 32  1  0  0  0  0
 27 29  1  0  0  0  0
M  CHG  5   8   1  18   1  19   1  28   1  29   1
M  END
>  <CHROM.1>
-106.77760532,64.20410258,58.75918148,57.63756505,-72.07908807,52.87536712
-37.60842956,16.87946503,-170.84776910,91.37898916,-42.73468218,-151.08010328
72.52602032,-58.39995720,11.03174212,-176.76584877,-3.25161561,4.83588419
1.78239115,-2.89810421,0.66297925,-2.61682747

>  <Name>
1tob

>  <RI>
0

>  <Rbt.Current_Directory>
/home/itssahil/PROJECTS/Mol_Feturizer/New_Systems/rnas/1tob

>  <Rbt.Executable>
rbdock ($Id: //depot/dev/client3/rdock/2013.1/src/exe/rbdock.cxx#4 $)

>  <Rbt.Library>
libRbt.so (2013.1, Build901 2013/11/27)

>  <Rbt.Parameter_File>
/export/apps/rDock/src/rDock_2013.1_src/data/scripts/dock_solv.prm

>  <Rbt.Receptor>
prm/pocket_docking_5.prm

>  <SCORE>
-47.0064

>  <SCORE.INTER>
-51.6672

>  <SCORE.INTER.CONST>
1

>  <SCORE.INTER.POLAR>
-7.40939

>  <SCORE.INTER.ROT>
6

>  <SCORE.INTER.SOLV>
31.1286

>  <SCORE.INTER.VDW>
-27.723

>  <SCORE.INTER.norm>
-1.6146

>  <SCORE.INTRA>
4.65364

>  <SCORE.INTRA.DIHEDRAL>
2.8227

>  <SCORE.INTRA.DIHEDRAL.0>
22.9177

>  <SCORE.INTRA.POLAR>
-0.844594

>  <SCORE.INTRA.POLAR.0>
-0.311208

>  <SCORE.INTRA.REPUL>
0

>  <SCORE.INTRA.REPUL.0>
0

>  <SCORE.INTRA.SOLV>
0.2023

>  <SCORE.INTRA.SOLV.lig_0>
-132.657

>  <SCORE.INTRA.VDW>
6.01276

>  <SCORE.INTRA.VDW.0>
-4.68867

>  <SCORE.INTRA.norm>
0.145426

>  <SCORE.RESTR>
0.00718031

>  <SCORE.RESTR.CAVITY>
0.00718031

>  <SCORE.RESTR.norm>
0.000224385

>  <SCORE.SYSTEM>
0

>  <SCORE.SYSTEM.CONST>
0

>  <SCORE.SYSTEM.DIHEDRAL>
0

>  <SCORE.SYSTEM.SOLV>
0

>  <SCORE.SYSTEM.norm>
0

>  <SCORE.heavy>
32

>  <SCORE.norm>
-1.46895

>  <RMSD>
8.987

$$$$
1tob
 OpenBabel11021811413D
libRbt.so/2013.1/901 2013/11/27
 32 34  0  0  0  0  0  0  0  0999 V2000
   -4.9570    5.4223    3.2985 C   0  0  2  0  0  0  0  0  0  0  0  0
   -5.9432    6.2286    2.4569 C   0  0  1  0  0  0  0  0  0  0  0  0
   -5.4285    7.6515    2.2869 C   0  0  2  0  0  0  0  0  0  0  0  0
   -5.1761    8.2655    3.6587 C   0  0  1  0  0  0  0  0  0  0  0  0
   -4.2169    7.3833    4.4530 C   0  0  1  0  0  0  0  0  0  0  0  0
   -3.9857    7.9018    5.8588 C   0  0  0  0  0  0  0  0  0  0  0  0
   -6.0963    5.6195    1.1829 O   0  0  0  0  0  0  0  0  0  0  0  0
   -6.3646    8.4651    1.4812 N   0  3  0  0  0  0  0  0  0  0  0  0
   -4.6305    9.5692    3.5090 O   0  0  0  0  0  0  0  0  0  0  0  0
   -4.7553    6.0487    4.5716 O   0  0  0  0  0  0  0  0  0  0  0  0
   -3.0762    7.0769    6.5732 O   0  0  0  0  0  0  0  0  0  0  0  0
   -2.9839    3.2945    1.6018 C   0  0  2  0  0  0  0  0  0  0  0  0
   -2.2075    2.0078    1.8464 C   0  0  0  0  0  0  0  0  0  0  0  0
   -0.7786    2.3220    2.2903 C   0  0  1  0  0  0  0  0  0  0  0  0
   -0.8085    3.1443    3.5767 C   0  0  2  0  0  0  0  0  0  0  0  0
   -1.5921    4.4384    3.3518 C   0  0  1  0  0  0  0  0  0  0  0  0
   -3.0101    4.1187    2.8797 C   0  0  1  0  0  0  0  0  0  0  0  0
   -4.3773    2.9968    1.2038 N   0  3  0  0  0  0  0  0  0  0  0  0
   -0.0081    1.0607    2.4433 N   0  3  0  0  0  0  0  0  0  0  0  0
   -1.6415    5.1876    4.5585 O   0  0  0  0  0  0  0  0  0  0  0  0
   -3.7367    5.3402    2.6542 O   0  0  0  0  0  0  0  0  0  0  0  0
    1.2928    2.3755    4.4469 C   0  0  1  0  0  0  0  0  0  0  0  0
    2.0739    2.7613    5.7043 C   0  0  1  0  0  0  0  0  0  0  0  0
    3.0621    3.8745    5.3904 C   0  0  0  0  0  0  0  0  0  0  0  0
    3.9607    3.4382    4.2448 C   0  0  1  0  0  0  0  0  0  0  0  0
    3.1069    3.0498    3.0383 C   0  0  1  0  0  0  0  0  0  0  0  0
    3.9374    2.5463    1.8717 C   0  0  0  0  0  0  0  0  0  0  0  0
    1.1580    3.1273    6.8105 N   0  3  0  0  0  0  0  0  0  0  0  0
    4.7033    3.6450    1.2361 N   0  3  0  0  0  0  0  0  0  0  0  0
    0.5348    3.4510    4.0031 O   0  0  0  0  0  0  0  0  0  0  0  0
    4.8451    4.4924    3.8933 O   0  0  0  0  0  0  0  0  0  0  0  0
    2.1901    1.9934    3.3972 O   0  0  0  0  0  0  0  0  0  0  0  0
  1  2  1  0  0  0  0
  1 10  1  0  0  0  0
  1 21  1  6  0  0  0
  2  3  1  0  0  0  0
  2  7  1  6  0  0  0
  3  4  1  0  0  0  0
  3  8  1  1  0  0  0
  4  5  1  0  0  0  0
  4  9  1  6  0  0  0
  5  6  1  1  0  0  0
  5 10  1  0  0  0  0
  6 11  1  0  0  0  0
 12 13  1  0  0  0  0
 12 17  1  0  0  0  0
 12 18  1  1  0  0  0
 13 14  1  0  0  0  0
 14 15  1  0  0  0  0
 14 19  1  1  0  0  0
 15 16  1  0  0  0  0
 15 30  1  6  0  0  0
 16 17  1  0  0  0  0
 16 20  1  1  0  0  0
 17 21  1  6  0  0  0
 22 23  1  0  0  0  0
 22 30  1  6  0  0  0
 22 32  1  0  0  0  0
 23 24  1  0  0  0  0
 23 28  1  1  0  0  0
 24 25  1  0  0  0  0
 25 26  1  0  0  0  0
 25 31  1  6  0  0  0
 26 27  1  6  0  0  0
 26 32  1  0  0  0  0
 27 29  1  0  0  0  0
M  CHG  5   8   1  18   1  19   1  28   1  29   1
M  END
>  <CHROM.1>
-147.20951529,165.23250932,-171.98909621,70.04903002,-179.17729368,69.22698638
58.02312199,-88.45206296,-68.45630981,57.95226826,110.33711609,-137.37523552
75.45659312,-44.34310937,-70.98970354,-73.42694074,-1.40575422,4.66611936
3.42346921,2.84967005,-0.37389910,0.74222263

>  <Name>
1tob

>  <RI>
0

>  <Rbt.Current_Directory>
/home/itssahil/PROJECTS/Mol_Feturizer/New_Systems/rnas/1tob

>  <Rbt.Executable>
rbdock ($Id: //depot/dev/client3/rdock/2013.1/src/exe/rbdock.cxx#4 $)

>  <Rbt.Library>
libRbt.so (2013.1, Build901 2013/11/27)

>  <Rbt.Parameter_File>
/export/apps/rDock/src/rDock_2013.1_src/data/scripts/dock_solv.prm

>  <Rbt.Receptor>
prm/blind_docking_100.prm

>  <SCORE>
-19.6073

>  <SCORE.INTER>
-30.5003

>  <SCORE.INTER.CONST>
1

>  <SCORE.INTER.POLAR>
-4.93016

>  <SCORE.INTER.ROT>
6

>  <SCORE.INTER.SOLV>
33.9383

>  <SCORE.INTER.VDW>
-22.8125

>  <SCORE.INTER.norm>
-0.953135

>  <SCORE.INTRA>
-5.26905

>  <SCORE.INTRA.DIHEDRAL>
0.417297

>  <SCORE.INTRA.DIHEDRAL.0>
22.9177

>  <SCORE.INTRA.POLAR>
-2.09062

>  <SCORE.INTRA.POLAR.0>
-0.311208

>  <SCORE.INTRA.REPUL>
0

>  <SCORE.INTRA.REPUL.0>
0

>  <SCORE.INTRA.SOLV>
1.41456

>  <SCORE.INTRA.SOLV.lig_0>
-132.657

>  <SCORE.INTRA.VDW>
0.923133

>  <SCORE.INTRA.VDW.0>
-4.68867

>  <SCORE.INTRA.norm>
-0.164658

>  <SCORE.RESTR>
16.1621

>  <SCORE.RESTR.CAVITY>
16.1621

>  <SCORE.RESTR.norm>
0.505066

>  <SCORE.SYSTEM>
0

>  <SCORE.SYSTEM.CONST>
0

>  <SCORE.SYSTEM.DIHEDRAL>
0

>  <SCORE.SYSTEM.SOLV>
0

>  <SCORE.SYSTEM.norm>
0

>  <SCORE.heavy>
32

>  <SCORE.norm>
-0.612727

>  <RMSD>
8.993

$$$$
1tob
 OpenBabel11021811413D
libRbt.so/2013.1/901 2013/11/27
 32 34  0  0  0  0  0  0  0  0999 V2000
   -6.2533    8.4667    3.1451 C   0  0  2  0  0  0  0  0  0  0  0  0
   -7.2814    9.3224    3.8813 C   0  0  1  0  0  0  0  0  0  0  0  0
   -8.6023    8.5706    3.9736 C   0  0  2  0  0  0  0  0  0  0  0  0
   -9.0546    8.1689    2.5748 C   0  0  1  0  0  0  0  0  0  0  0  0
   -7.9604    7.3547    1.8900 C   0  0  1  0  0  0  0  0  0  0  0  0
   -8.3201    6.9896    0.4632 C   0  0  0  0  0  0  0  0  0  0  0  0
   -6.8089    9.6224    5.1868 O   0  0  0  0  0  0  0  0  0  0  0  0
   -9.6260    9.3746    4.6758 N   0  3  0  0  0  0  0  0  0  0  0  0
  -10.2516    7.4071    2.6569 O   0  0  0  0  0  0  0  0  0  0  0  0
   -6.7343    8.1159    1.8415 O   0  0  0  0  0  0  0  0  0  0  0  0
   -7.2018    6.4600   -0.2347 O   0  0  0  0  0  0  0  0  0  0  0  0
   -4.2361    7.1600    5.4887 C   0  0  2  0  0  0  0  0  0  0  0  0
   -2.7662    6.8074    5.6717 C   0  0  0  0  0  0  0  0  0  0  0  0
   -2.5059    5.3628    5.2440 C   0  0  1  0  0  0  0  0  0  0  0  0
   -2.8875    5.1841    3.7762 C   0  0  2  0  0  0  0  0  0  0  0  0
   -4.3604    5.5420    3.5717 C   0  0  1  0  0  0  0  0  0  0  0  0
   -4.6208    6.9770    4.0286 C   0  0  1  0  0  0  0  0  0  0  0  0
   -4.4877    8.5671    5.8699 N   0  3  0  0  0  0  0  0  0  0  0  0
   -1.0877    5.0057    5.5070 N   0  3  0  0  0  0  0  0  0  0  0  0
   -4.7044    5.4013    2.1999 O   0  0  0  0  0  0  0  0  0  0  0  0
   -6.0111    7.3020    3.8491 O   0  0  0  0  0  0  0  0  0  0  0  0
   -1.7983    3.6563    2.2785 C   0  0  1  0  0  0  0  0  0  0  0  0
   -2.3031    2.5286    1.3766 C   0  0  1  0  0  0  0  0  0  0  0  0
   -2.2936    1.2067    2.1295 C   0  0  0  0  0  0  0  0  0  0  0  0
   -0.8979    0.9506    2.6742 C   0  0  1  0  0  0  0  0  0  0  0  0
   -0.4591    2.1281    3.5440 C   0  0  1  0  0  0  0  0  0  0  0  0
    0.9533    1.9677    4.0764 C   0  0  0  0  0  0  0  0  0  0  0  0
   -3.6422    2.8444    0.8258 N   0  3  0  0  0  0  0  0  0  0  0  0
    1.9636    2.2280    3.0232 N   0  3  0  0  0  0  0  0  0  0  0  0
   -2.6504    3.8230    3.3621 O   0  0  0  0  0  0  0  0  0  0  0  0
   -0.8874   -0.2465    3.4382 O   0  0  0  0  0  0  0  0  0  0  0  0
   -0.4900    3.3515    2.7772 O   0  0  0  0  0  0  0  0  0  0  0  0
  1  2  1  0  0  0  0
  1 10  1  0  0  0  0
  1 21  1  1  0  0  0
  2  3  1  0  0  0  0
  2  7  1  1  0  0  0
  3  4  1  0  0  0  0
  3  8  1  6  0  0  0
  4  5  1  0  0  0  0
  4  9  1  1  0  0  0
  5  6  1  6  0  0  0
  5 10  1  0  0  0  0
  6 11  1  0  0  0  0
 12 13  1  0  0  0  0
 12 17  1  0  0  0  0
 12 18  1  6  0  0  0
 13 14  1  0  0  0  0
 14 15  1  0  0  0  0
 14 19  1  6  0  0  0
 15 16  1  0  0  0  0
 15 30  1  1  0  0  0
 16 17  1  0  0  0  0
 16 20  1  6  0  0  0
 17 21  1  1  0  0  0
 22 23  1  0  0  0  0
 22 30  1  1  0  0  0
 22 32  1  0  0  0  0
 23 24  1  0  0  0  0
 23 28  1  1  0  0  0
 24 25  1  0  0  0  0
 25 26  1  0  0  0  0
 25 31  1  1  0  0  0
 26 27  1  6  0  0  0
 26 32  1  0  0  0  0
 27 29  1  0  0  0  0
M  CHG  5   8   1  18   1  19   1  28   1  29   1
M  END
>  <CHROM.1>
-132.18805694,-102.29266923,172.68220890,-159.13041777,168.88333362,-179.65188068
66.73835311,127.74567407,-123.00427751,-74.94059857,109.81873129,-141.39451690
-108.94447558,58.46900698,75.52845358,38.94377680,-4.33329414,5.55170964
3.26256008,-2.67095545,0.52824279,-2.34413562

>  <Name>
1tob

>  <RI>
0

>  <Rbt.Current_Directory>
/home/itssahil/PROJECTS/Mol_Feturizer/New_Systems/rnas/1tob

>  <Rbt.Executable>
rbdock ($Id: //depot/dev/client3/rdock/2013.1/src/exe/rbdock.cxx#4 $)

>  <Rbt.Library>
libRbt.so (2013.1, Build901 2013/11/27)

>  <Rbt.Parameter_File>
/export/apps/rDock/src/rDock_2013.1_src/data/scripts/dock_solv.prm

>  <Rbt.Receptor>
prm/pocket_docking_3.prm

>  <SCORE>
-40.8941

>  <SCORE.INTER>
-48.0109

>  <SCORE.INTER.CONST>
1

>  <SCORE.INTER.POLAR>
-7.42275

>  <SCORE.INTER.ROT>
6

>  <SCORE.INTER.SOLV>
33.7823

>  <SCORE.INTER.VDW>
-26.1255

>  <SCORE.INTER.norm>
-1.50034

>  <SCORE.INTRA>
6.39112

>  <SCORE.INTRA.DIHEDRAL>
20.713

>  <SCORE.INTRA.DIHEDRAL.0>
22.9177

>  <SCORE.INTRA.POLAR>
-2.08642

>  <SCORE.INTRA.POLAR.0>
-0.311208

>  <SCORE.INTRA.REPUL>
0.0347648

>  <SCORE.INTRA.REPUL.0>
0

>  <SCORE.INTRA.SOLV>
1.55314

>  <SCORE.INTRA.SOLV.lig_0>
-132.657

>  <SCORE.INTRA.VDW>
2.17808

>  <SCORE.INTRA.VDW.0>
-4.68867

>  <SCORE.INTRA.norm>
0.199723

>  <SCORE.RESTR>
0.725636

>  <SCORE.RESTR.CAVITY>
0.725636

>  <SCORE.RESTR.norm>
0.0226761

>  <SCORE.SYSTEM>
0

>  <SCORE.SYSTEM.CONST>
0

>  <SCORE.SYSTEM.DIHEDRAL>
0

>  <SCORE.SYSTEM.SOLV>
0

>  <SCORE.SYSTEM.norm>
0

>  <SCORE.heavy>
32

>  <SCORE.norm>
-1.27794

>  <RMSD>
8.994

$$$$
1tob
 OpenBabel11021811413D
libRbt.so/2013.1/901 2013/11/27
 32 34  0  0  0  0  0  0  0  0999 V2000
   -3.6329    6.5968    2.0626 C   0  0  2  0  0  0  0  0  0  0  0  0
   -3.8464    7.9653    2.7051 C   0  0  1  0  0  0  0  0  0  0  0  0
   -5.3135    8.3586    2.5981 C   0  0  2  0  0  0  0  0  0  0  0  0
   -5.7440    8.3137    1.1368 C   0  0  1  0  0  0  0  0  0  0  0  0
   -5.4611    6.9313    0.5553 C   0  0  1  0  0  0  0  0  0  0  0  0
   -5.7974    6.8461   -0.9205 C   0  0  0  0  0  0  0  0  0  0  0  0
   -3.4616    7.9187    4.0716 O   0  0  0  0  0  0  0  0  0  0  0  0
   -5.5560    9.6854    3.2050 N   0  3  0  0  0  0  0  0  0  0  0  0
   -7.1297    8.6126    1.0345 O   0  0  0  0  0  0  0  0  0  0  0  0
   -4.0594    6.6133    0.6945 O   0  0  0  0  0  0  0  0  0  0  0  0
   -5.1049    7.8355   -1.6685 O   0  0  0  0  0  0  0  0  0  0  0  0
   -3.2671    3.7822    1.6295 C   0  0  2  0  0  0  0  0  0  0  0  0
   -2.5302    2.4730    1.8774 C   0  0  0  0  0  0  0  0  0  0  0  0
   -1.2883    2.7131    2.7362 C   0  0  1  0  0  0  0  0  0  0  0  0
   -1.6986    3.3213    4.0755 C   0  0  2  0  0  0  0  0  0  0  0  0
   -2.4480    4.6346    3.8455 C   0  0  1  0  0  0  0  0  0  0  0  0
   -3.6716    4.3936    2.9621 C   0  0  1  0  0  0  0  0  0  0  0  0
   -4.4878    3.5511    0.8265 N   0  3  0  0  0  0  0  0  0  0  0  0
   -0.5335    1.4436    2.8993 N   0  3  0  0  0  0  0  0  0  0  0  0
   -2.8525    5.1833    5.0926 O   0  0  0  0  0  0  0  0  0  0  0  0
   -4.3629    5.6353    2.7359 O   0  0  0  0  0  0  0  0  0  0  0  0
   -0.4793    2.8555    6.0904 C   0  0  1  0  0  0  0  0  0  0  0  0
   -0.0762    3.7892    7.2330 C   0  0  1  0  0  0  0  0  0  0  0  0
    1.3241    4.3357    6.9985 C   0  0  0  0  0  0  0  0  0  0  0  0
    2.2893    3.1765    6.8115 C   0  0  1  0  0  0  0  0  0  0  0  0
    1.8064    2.2817    5.6705 C   0  0  1  0  0  0  0  0  0  0  0  0
    2.6932    1.0672    5.4643 C   0  0  0  0  0  0  0  0  0  0  0  0
   -1.0718    4.8720    7.4142 N   0  3  0  0  0  0  0  0  0  0  0  0
    4.0475    1.4555    5.0032 N   0  3  0  0  0  0  0  0  0  0  0  0
   -0.5340    3.5567    4.8932 O   0  0  0  0  0  0  0  0  0  0  0  0
    3.5896    3.6695    6.5235 O   0  0  0  0  0  0  0  0  0  0  0  0
    0.4751    1.7962    5.9486 O   0  0  0  0  0  0  0  0  0  0  0  0
  1  2  1  0  0  0  0
  1 10  1  0  0  0  0
  1 21  1  1  0  0  0
  2  3  1  0  0  0  0
  2  7  1  1  0  0  0
  3  4  1  0  0  0  0
  3  8  1  6  0  0  0
  4  5  1  0  0  0  0
  4  9  1  1  0  0  0
  5  6  1  6  0  0  0
  5 10  1  0  0  0  0
  6 11  1  0  0  0  0
 12 13  1  0  0  0  0
 12 17  1  0  0  0  0
 12 18  1  6  0  0  0
 13 14  1  0  0  0  0
 14 15  1  0  0  0  0
 14 19  1  1  0  0  0
 15 16  1  0  0  0  0
 15 30  1  1  0  0  0
 16 17  1  0  0  0  0
 16 20  1  1  0  0  0
 17 21  1  6  0  0  0
 22 23  1  0  0  0  0
 22 30  1  6  0  0  0
 22 32  1  0  0  0  0
 23 24  1  0  0  0  0
 23 28  1  6  0  0  0
 24 25  1  0  0  0  0
 25 26  1  0  0  0  0
 25 31  1  6  0  0  0
 26 27  1  1  0  0  0
 26 32  1  0  0  0  0
 27 29  1  0  0  0  0
M  CHG  5   8   1  18   1  19   1  28   1  29   1
M  END
>  <CHROM.1>
-137.65351687,170.07012133,-47.07024626,173.85977245,56.19145228,-176.06457368
-129.89253461,-155.66999529,-117.77967646,175.91318738,-59.71990213,-133.84891749
102.99412605,59.11399580,-65.87022721,-68.06009354,-2.13412378,4.89746712
3.49865904,3.12675869,0.77978234,-2.32322444

>  <Name>
1tob

>  <RI>
0

>  <Rbt.Current_Directory>
/home/itssahil/PROJECTS/Mol_Feturizer/New_Systems/rnas/1tob

>  <Rbt.Executable>
rbdock ($Id: //depot/dev/client3/rdock/2013.1/src/exe/rbdock.cxx#4 $)

>  <Rbt.Library>
libRbt.so (2013.1, Build901 2013/11/27)

>  <Rbt.Parameter_File>
/export/apps/rDock/src/rDock_2013.1_src/data/scripts/dock_solv.prm

>  <Rbt.Receptor>
prm/pocket_docking_6.prm

>  <SCORE>
-47.8533

>  <SCORE.INTER>
-43.647

>  <SCORE.INTER.CONST>
1

>  <SCORE.INTER.POLAR>
-6.71381

>  <SCORE.INTER.ROT>
6

>  <SCORE.INTER.SOLV>
22.9709

>  <SCORE.INTER.VDW>
-21.9756

>  <SCORE.INTER.norm>
-1.36397

>  <SCORE.INTRA>
-4.20626

>  <SCORE.INTRA.DIHEDRAL>
5.43454

>  <SCORE.INTRA.DIHEDRAL.0>
22.9177

>  <SCORE.INTRA.POLAR>
-2.91225

>  <SCORE.INTRA.POLAR.0>
-0.311208

>  <SCORE.INTRA.REPUL>
0

>  <SCORE.INTRA.REPUL.0>
0

>  <SCORE.INTRA.SOLV>
1.63027

>  <SCORE.INTRA.SOLV.lig_0>
-132.657

>  <SCORE.INTRA.VDW>
2.16297

>  <SCORE.INTRA.VDW.0>
-4.68867

>  <SCORE.INTRA.norm>
-0.131445

>  <SCORE.RESTR>
0

>  <SCORE.RESTR.CAVITY>
0

>  <SCORE.RESTR.norm>
0

>  <SCORE.SYSTEM>
0

>  <SCORE.SYSTEM.CONST>
0

>  <SCORE.SYSTEM.DIHEDRAL>
0

>  <SCORE.SYSTEM.SOLV>
0

>  <SCORE.SYSTEM.norm>
0

>  <SCORE.heavy>
32

>  <SCORE.norm>
-1.49542

>  <RMSD>
9.000

$$$$
1tob
 OpenBabel11021811413D
libRbt.so/2013.1/901 2013/11/27
 32 34  0  0  0  0  0  0  0  0999 V2000
   -3.8949    6.6249    3.5485 C   0  0  2  0  0  0  0  0  0  0  0  0
   -3.5927    7.4910    4.7691 C   0  0  1  0  0  0  0  0  0  0  0  0
   -4.8850    7.7947    5.5148 C   0  0  2  0  0  0  0  0  0  0  0  0
   -5.8808    8.4406    4.5589 C   0  0  1  0  0  0  0  0  0  0  0  0
   -6.0981    7.5370    3.3483 C   0  0  1  0  0  0  0  0  0  0  0  0
   -7.0224    8.1608    2.3211 C   0  0  0  0  0  0  0  0  0  0  0  0
   -2.6922    6.8087    5.6299 O   0  0  0  0  0  0  0  0  0  0  0  0
   -4.6304    8.6399    6.7015 N   0  3  0  0  0  0  0  0  0  0  0  0
   -7.1141    8.6649    5.2288 O   0  0  0  0  0  0  0  0  0  0  0  0
   -4.8385    7.2792    2.6909 O   0  0  0  0  0  0  0  0  0  0  0  0
   -7.4880    7.1959    1.3882 O   0  0  0  0  0  0  0  0  0  0  0  0
   -3.8508    4.1132    1.9876 C   0  0  2  0  0  0  0  0  0  0  0  0
   -3.0792    2.8869    1.5195 C   0  0  0  0  0  0  0  0  0  0  0  0
   -1.6018    3.0103    1.8933 C   0  0  1  0  0  0  0  0  0  0  0  0
   -1.4638    3.1440    3.4081 C   0  0  2  0  0  0  0  0  0  0  0  0
   -2.2400    4.3675    3.8978 C   0  0  1  0  0  0  0  0  0  0  0  0
   -3.7100    4.2526    3.4955 C   0  0  1  0  0  0  0  0  0  0  0  0
   -5.2872    3.9846    1.6578 N   0  3  0  0  0  0  0  0  0  0  0  0
   -0.8462    1.8486    1.3570 N   0  3  0  0  0  0  0  0  0  0  0  0
   -2.1322    4.4725    5.3111 O   0  0  0  0  0  0  0  0  0  0  0  0
   -4.4313    5.4141    3.9446 O   0  0  0  0  0  0  0  0  0  0  0  0
    0.7210    2.1552    3.5208 C   0  0  1  0  0  0  0  0  0  0  0  0
    1.1484    1.5007    4.8357 C   0  0  1  0  0  0  0  0  0  0  0  0
    2.0063    2.4593    5.6476 C   0  0  0  0  0  0  0  0  0  0  0  0
    3.1842    2.9160    4.8024 C   0  0  1  0  0  0  0  0  0  0  0  0
    2.6760    3.5364    3.5014 C   0  0  1  0  0  0  0  0  0  0  0  0
    3.8025    3.9637    2.5781 C   0  0  0  0  0  0  0  0  0  0  0  0
   -0.0274    1.0232    5.6012 N   0  3  0  0  0  0  0  0  0  0  0  0
    3.4197    3.8227    1.1529 N   0  3  0  0  0  0  0  0  0  0  0  0
   -0.0736    3.2657    3.7727 O   0  0  0  0  0  0  0  0  0  0  0  0
    3.9585    3.8647    5.5215 O   0  0  0  0  0  0  0  0  0  0  0  0
    1.8691    2.5824    2.7774 O   0  0  0  0  0  0  0  0  0  0  0  0
  1  2  1  0  0  0  0
  1 10  1  0  0  0  0
  1 21  1  1  0  0  0
  2  3  1  0  0  0  0
  2  7  1  1  0  0  0
  3  4  1  0  0  0  0
  3  8  1  1  0  0  0
  4  5  1  0  0  0  0
  4  9  1  1  0  0  0
  5  6  1  6  0  0  0
  5 10  1  0  0  0  0
  6 11  1  0  0  0  0
 12 13  1  0  0  0  0
 12 17  1  0  0  0  0
 12 18  1  1  0  0  0
 13 14  1  0  0  0  0
 14 15  1  0  0  0  0
 14 19  1  1  0  0  0
 15 16  1  0  0  0  0
 15 30  1  6  0  0  0
 16 17  1  0  0  0  0
 16 20  1  1  0  0  0
 17 21  1  6  0  0  0
 22 23  1  0  0  0  0
 22 30  1  1  0  0  0
 22 32  1  0  0  0  0
 23 24  1  0  0  0  0
 23 28  1  1  0  0  0
 24 25  1  0  0  0  0
 25 26  1  0  0  0  0
 25 31  1  1  0  0  0
 26 27  1  6  0  0  0
 26 32  1  0  0  0  0
 27 29  1  0  0  0  0
M  CHG  5   8   1  18   1  19   1  28   1  29   1
M  END
>  <CHROM.1>
-122.91699052,-49.51915664,133.54131349,175.40147903,-164.78477761,63.29182334
33.15171772,161.61458712,-65.51817576,-32.29872141,-68.66474714,-110.74741079
159.72414708,60.78751422,147.54082396,-107.94261092,-2.02085596,4.79383373
3.69374911,-2.80519167,0.42250453,-2.26140620

>  <Name>
1tob

>  <RI>
0

>  <Rbt.Current_Directory>
/home/itssahil/PROJECTS/Mol_Feturizer/New_Systems/rnas/1tob

>  <Rbt.Executable>
rbdock ($Id: //depot/dev/client3/rdock/2013.1/src/exe/rbdock.cxx#4 $)

>  <Rbt.Library>
libRbt.so (2013.1, Build901 2013/11/27)

>  <Rbt.Parameter_File>
/export/apps/rDock/src/rDock_2013.1_src/data/scripts/dock_solv.prm

>  <Rbt.Receptor>
prm/blind_docking_80.prm

>  <SCORE>
1.15512

>  <SCORE.INTER>
-16.2922

>  <SCORE.INTER.CONST>
1

>  <SCORE.INTER.POLAR>
-2.81709

>  <SCORE.INTER.ROT>
6

>  <SCORE.INTER.SOLV>
52.6059

>  <SCORE.INTER.VDW>
-26.6065

>  <SCORE.INTER.norm>
-0.509133

>  <SCORE.INTRA>
8.06262

>  <SCORE.INTRA.DIHEDRAL>
8.779

>  <SCORE.INTRA.DIHEDRAL.0>
22.9177

>  <SCORE.INTRA.POLAR>
-0.792923

>  <SCORE.INTRA.POLAR.0>
-0.311208

>  <SCORE.INTRA.REPUL>
0.178858

>  <SCORE.INTRA.REPUL.0>
0

>  <SCORE.INTRA.SOLV>
-0.751774

>  <SCORE.INTRA.SOLV.lig_0>
-132.657

>  <SCORE.INTRA.VDW>
5.85066

>  <SCORE.INTRA.VDW.0>
-4.68867

>  <SCORE.INTRA.norm>
0.251957

>  <SCORE.RESTR>
9.38474

>  <SCORE.RESTR.CAVITY>
9.38474

>  <SCORE.RESTR.norm>
0.293273

>  <SCORE.SYSTEM>
0

>  <SCORE.SYSTEM.CONST>
0

>  <SCORE.SYSTEM.DIHEDRAL>
0

>  <SCORE.SYSTEM.SOLV>
0

>  <SCORE.SYSTEM.norm>
0

>  <SCORE.heavy>
32

>  <SCORE.norm>
0.0360975

>  <RMSD>
9.004

$$$$
1tob
 OpenBabel11021811413D
libRbt.so/2013.1/901 2013/11/27
 32 34  0  0  0  0  0  0  0  0999 V2000
   -5.3097    4.8222    1.9561 C   0  0  2  0  0  0  0  0  0  0  0  0
   -5.6010    3.9172    0.7614 C   0  0  1  0  0  0  0  0  0  0  0  0
   -6.1424    4.7499   -0.3926 C   0  0  2  0  0  0  0  0  0  0  0  0
   -7.3656    5.5289    0.0759 C   0  0  1  0  0  0  0  0  0  0  0  0
   -7.0062    6.3747    1.2944 C   0  0  1  0  0  0  0  0  0  0  0  0
   -8.2035    7.1162    1.8558 C   0  0  0  0  0  0  0  0  0  0  0  0
   -4.4096    3.2573    0.3581 O   0  0  0  0  0  0  0  0  0  0  0  0
   -6.4433    3.9028   -1.5670 N   0  3  0  0  0  0  0  0  0  0  0  0
   -7.8368    6.3617   -0.9750 O   0  0  0  0  0  0  0  0  0  0  0  0
   -6.4919    5.5314    2.3478 O   0  0  0  0  0  0  0  0  0  0  0  0
   -9.0420    6.2523    2.6099 O   0  0  0  0  0  0  0  0  0  0  0  0
   -3.7648    6.1772    3.9401 C   0  0  2  0  0  0  0  0  0  0  0  0
   -2.6001    6.2576    4.9175 C   0  0  0  0  0  0  0  0  0  0  0  0
   -1.8505    4.9259    4.9662 C   0  0  1  0  0  0  0  0  0  0  0  0
   -1.3186    4.5837    3.5763 C   0  0  2  0  0  0  0  0  0  0  0  0
   -2.4752    4.5066    2.5784 C   0  0  1  0  0  0  0  0  0  0  0  0
   -3.2388    5.8303    2.5558 C   0  0  1  0  0  0  0  0  0  0  0  0
   -4.4739    7.4733    3.8641 N   0  3  0  0  0  0  0  0  0  0  0  0
   -0.7704    4.9910    5.9847 N   0  3  0  0  0  0  0  0  0  0  0  0
   -1.9734    4.2156    1.2809 O   0  0  0  0  0  0  0  0  0  0  0  0
   -4.3352    5.7459    1.6276 O   0  0  0  0  0  0  0  0  0  0  0  0
   -0.1268    2.8696    2.3909 C   0  0  1  0  0  0  0  0  0  0  0  0
    0.0714    1.3535    2.4347 C   0  0  1  0  0  0  0  0  0  0  0  0
    1.1217    0.9887    3.4730 C   0  0  0  0  0  0  0  0  0  0  0  0
    2.4053    1.7461    3.1744 C   0  0  1  0  0  0  0  0  0  0  0  0
    2.1198    3.2466    3.1260 C   0  0  1  0  0  0  0  0  0  0  0  0
    3.3488    4.0648    2.7734 C   0  0  0  0  0  0  0  0  0  0  0  0
   -1.2129    0.6539    2.6744 N   0  3  0  0  0  0  0  0  0  0  0  0
    3.9271    3.6441    1.4749 N   0  3  0  0  0  0  0  0  0  0  0  0
   -0.6129    3.3262    3.6088 O   0  0  0  0  0  0  0  0  0  0  0  0
    3.3755    1.4694    4.1739 O   0  0  0  0  0  0  0  0  0  0  0  0
    1.1170    3.5301    2.1263 O   0  0  0  0  0  0  0  0  0  0  0  0
  1  2  1  0  0  0  0
  1 10  1  0  0  0  0
  1 21  1  6  0  0  0
  2  3  1  0  0  0  0
  2  7  1  6  0  0  0
  3  4  1  0  0  0  0
  3  8  1  6  0  0  0
  4  5  1  0  0  0  0
  4  9  1  6  0  0  0
  5  6  1  1  0  0  0
  5 10  1  0  0  0  0
  6 11  1  0  0  0  0
 12 13  1  0  0  0  0
 12 17  1  0  0  0  0
 12 18  1  6  0  0  0
 13 14  1  0  0  0  0
 14 15  1  0  0  0  0
 14 19  1  1  0  0  0
 15 16  1  0  0  0  0
 15 30  1  1  0  0  0
 16 17  1  0  0  0  0
 16 20  1  6  0  0  0
 17 21  1  6  0  0  0
 22 23  1  0  0  0  0
 22 30  1  1  0  0  0
 22 32  1  0  0  0  0
 23 24  1  0  0  0  0
 23 28  1  1  0  0  0
 24 25  1  0  0  0  0
 25 26  1  0  0  0  0
 25 31  1  1  0  0  0
 26 27  1  6  0  0  0
 26 32  1  0  0  0  0
 27 29  1  0  0  0  0
M  CHG  5   8   1  18   1  19   1  28   1  29   1
M  END
>  <CHROM.1>
-129.32943808,144.76617074,62.78385744,69.72401392,77.16253665,79.33333902
-171.78314076,-112.77365685,177.30776458,170.12065161,-58.14462286,-157.03735756
-52.48931245,68.51766922,57.21697570,-39.51618560,-2.67028140,4.34459229
2.32082318,3.13196677,-0.40459779,0.94655860

>  <Name>
1tob

>  <RI>
0

>  <Rbt.Current_Directory>
/home/itssahil/PROJECTS/Mol_Feturizer/New_Systems/rnas/1tob

>  <Rbt.Executable>
rbdock ($Id: //depot/dev/client3/rdock/2013.1/src/exe/rbdock.cxx#4 $)

>  <Rbt.Library>
libRbt.so (2013.1, Build901 2013/11/27)

>  <Rbt.Parameter_File>
/export/apps/rDock/src/rDock_2013.1_src/data/scripts/dock_solv.prm

>  <Rbt.Receptor>
prm/blind_docking_20.prm

>  <SCORE>
-34.4142

>  <SCORE.INTER>
-40.7863

>  <SCORE.INTER.CONST>
1

>  <SCORE.INTER.POLAR>
-4.59392

>  <SCORE.INTER.ROT>
6

>  <SCORE.INTER.SOLV>
38.4034

>  <SCORE.INTER.VDW>
-32.279

>  <SCORE.INTER.norm>
-1.27457

>  <SCORE.INTRA>
-0.475851

>  <SCORE.INTRA.DIHEDRAL>
-0.377622

>  <SCORE.INTRA.DIHEDRAL.0>
22.9177

>  <SCORE.INTRA.POLAR>
-0.779387

>  <SCORE.INTRA.POLAR.0>
-0.311208

>  <SCORE.INTRA.REPUL>
0

>  <SCORE.INTRA.REPUL.0>
0

>  <SCORE.INTRA.SOLV>
-2.68831

>  <SCORE.INTRA.SOLV.lig_0>
-132.657

>  <SCORE.INTRA.VDW>
3.70703

>  <SCORE.INTRA.VDW.0>
-4.68867

>  <SCORE.INTRA.norm>
-0.0148703

>  <SCORE.RESTR>
6.84802

>  <SCORE.RESTR.CAVITY>
6.84802

>  <SCORE.RESTR.norm>
0.214001

>  <SCORE.SYSTEM>
0

>  <SCORE.SYSTEM.CONST>
0

>  <SCORE.SYSTEM.DIHEDRAL>
0

>  <SCORE.SYSTEM.SOLV>
0

>  <SCORE.SYSTEM.norm>
0

>  <SCORE.heavy>
32

>  <SCORE.norm>
-1.07544

>  <RMSD>
9.013

$$$$
1tob
 OpenBabel11021811413D
libRbt.so/2013.1/901 2013/11/27
 32 34  0  0  0  0  0  0  0  0999 V2000
   -3.5297    5.5057    2.1790 C   0  0  2  0  0  0  0  0  0  0  0  0
   -3.5235    6.7521    1.2971 C   0  0  1  0  0  0  0  0  0  0  0  0
   -2.6842    7.8401    1.9530 C   0  0  2  0  0  0  0  0  0  0  0  0
   -3.2113    8.1078    3.3576 C   0  0  1  0  0  0  0  0  0  0  0  0
   -3.2262    6.8107    4.1617 C   0  0  1  0  0  0  0  0  0  0  0  0
   -3.8140    6.9970    5.5468 C   0  0  0  0  0  0  0  0  0  0  0  0
   -2.9841    6.4345    0.0221 O   0  0  0  0  0  0  0  0  0  0  0  0
   -2.6621    9.0673    1.1279 N   0  3  0  0  0  0  0  0  0  0  0  0
   -2.3916    9.0731    4.0028 O   0  0  0  0  0  0  0  0  0  0  0  0
   -4.0286    5.8187    3.4856 O   0  0  0  0  0  0  0  0  0  0  0  0
   -5.0886    7.6215    5.4899 O   0  0  0  0  0  0  0  0  0  0  0  0
   -2.3533    2.7412    1.4669 C   0  0  2  0  0  0  0  0  0  0  0  0
   -2.2603    1.2784    1.8787 C   0  0  0  0  0  0  0  0  0  0  0  0
   -0.9046    0.9899    2.5238 C   0  0  1  0  0  0  0  0  0  0  0  0
   -0.7233    1.8725    3.7568 C   0  0  2  0  0  0  0  0  0  0  0  0
   -0.8218    3.3471    3.3631 C   0  0  1  0  0  0  0  0  0  0  0  0
   -2.1669    3.6231    2.6920 C   0  0  1  0  0  0  0  0  0  0  0  0
   -3.6757    3.0340    0.8718 N   0  3  0  0  0  0  0  0  0  0  0  0
   -0.7946   -0.4571    2.8432 N   0  3  0  0  0  0  0  0  0  0  0  0
   -0.6805    4.1644    4.5173 O   0  0  0  0  0  0  0  0  0  0  0  0
   -2.2467    5.0080    2.3093 O   0  0  0  0  0  0  0  0  0  0  0  0
    1.5175    1.0350    3.5542 C   0  0  1  0  0  0  0  0  0  0  0  0
    2.7366    0.6226    4.3812 C   0  0  1  0  0  0  0  0  0  0  0  0
    3.3900    1.8470    5.0042 C   0  0  0  0  0  0  0  0  0  0  0  0
    3.7266    2.8466    3.9097 C   0  0  1  0  0  0  0  0  0  0  0  0
    2.4651    3.1895    3.1182 C   0  0  1  0  0  0  0  0  0  0  0  0
    2.7372    4.1414    1.9675 C   0  0  0  0  0  0  0  0  0  0  0  0
    2.3730   -0.3914    5.3991 N   0  3  0  0  0  0  0  0  0  0  0  0
    1.5024    4.4343    1.2013 N   0  3  0  0  0  0  0  0  0  0  0  0
    0.5551    1.6123    4.3719 O   0  0  0  0  0  0  0  0  0  0  0  0
    4.2755    4.0252    4.4811 O   0  0  0  0  0  0  0  0  0  0  0  0
    1.8906    1.9907    2.5540 O   0  0  0  0  0  0  0  0  0  0  0  0
  1  2  1  0  0  0  0
  1 10  1  0  0  0  0
  1 21  1  1  0  0  0
  2  3  1  0  0  0  0
  2  7  1  6  0  0  0
  3  4  1  0  0  0  0
  3  8  1  6  0  0  0
  4  5  1  0  0  0  0
  4  9  1  1  0  0  0
  5  6  1  1  0  0  0
  5 10  1  0  0  0  0
  6 11  1  0  0  0  0
 12 13  1  0  0  0  0
 12 17  1  0  0  0  0
 12 18  1  1  0  0  0
 13 14  1  0  0  0  0
 14 15  1  0  0  0  0
 14 19  1  1  0  0  0
 15 16  1  0  0  0  0
 15 30  1  6  0  0  0
 16 17  1  0  0  0  0
 16 20  1  1  0  0  0
 17 21  1  6  0  0  0
 22 23  1  0  0  0  0
 22 30  1  1  0  0  0
 22 32  1  0  0  0  0
 23 24  1  0  0  0  0
 23 28  1  1  0  0  0
 24 25  1  0  0  0  0
 25 26  1  0  0  0  0
 25 31  1  1  0  0  0
 26 27  1  6  0  0  0
 26 32  1  0  0  0  0
 27 29  1  0  0  0  0
M  CHG  5   8   1  18   1  19   1  28   1  29   1
M  END
>  <CHROM.1>
-158.83251269,-51.30574121,-44.36320432,68.69358983,52.42084331,75.60053949
-32.77529577,158.99718829,21.52427843,-56.73164698,81.67734395,-171.39978107
79.45240615,-53.55392134,178.82850601,83.57706258,-0.84955043,4.12637428
3.08624258,2.37176846,-0.29863810,0.12785999

>  <Name>
1tob

>  <RI>
0

>  <Rbt.Current_Directory>
/home/itssahil/PROJECTS/Mol_Feturizer/New_Systems/rnas/1tob

>  <Rbt.Executable>
rbdock ($Id: //depot/dev/client3/rdock/2013.1/src/exe/rbdock.cxx#4 $)

>  <Rbt.Library>
libRbt.so (2013.1, Build901 2013/11/27)

>  <Rbt.Parameter_File>
/export/apps/rDock/src/rDock_2013.1_src/data/scripts/dock_solv.prm

>  <Rbt.Receptor>
prm/blind_docking_20.prm

>  <SCORE>
-16.5161

>  <SCORE.INTER>
-27.787

>  <SCORE.INTER.CONST>
1

>  <SCORE.INTER.POLAR>
-3.93742

>  <SCORE.INTER.ROT>
6

>  <SCORE.INTER.SOLV>
42.8795

>  <SCORE.INTER.VDW>
-27.2931

>  <SCORE.INTER.norm>
-0.868345

>  <SCORE.INTRA>
2.55276

>  <SCORE.INTRA.DIHEDRAL>
-5.73525

>  <SCORE.INTRA.DIHEDRAL.0>
22.9177

>  <SCORE.INTRA.POLAR>
0.196552

>  <SCORE.INTRA.POLAR.0>
-0.311208

>  <SCORE.INTRA.REPUL>
0

>  <SCORE.INTRA.REPUL.0>
0

>  <SCORE.INTRA.SOLV>
0.799006

>  <SCORE.INTRA.SOLV.lig_0>
-132.657

>  <SCORE.INTRA.VDW>
4.35261

>  <SCORE.INTRA.VDW.0>
-4.68867

>  <SCORE.INTRA.norm>
0.0797737

>  <SCORE.RESTR>
8.7182

>  <SCORE.RESTR.CAVITY>
8.7182

>  <SCORE.RESTR.norm>
0.272444

>  <SCORE.SYSTEM>
0

>  <SCORE.SYSTEM.CONST>
0

>  <SCORE.SYSTEM.DIHEDRAL>
0

>  <SCORE.SYSTEM.SOLV>
0

>  <SCORE.SYSTEM.norm>
0

>  <SCORE.heavy>
32

>  <SCORE.norm>
-0.516128

>  <RMSD>
9.014

$$$$
1tob
 OpenBabel11021811413D
libRbt.so/2013.1/901 2013/11/27
 32 34  0  0  0  0  0  0  0  0999 V2000
   -5.3769    7.1413    2.6992 C   0  0  2  0  0  0  0  0  0  0  0  0
   -6.8221    7.6340    2.6989 C   0  0  1  0  0  0  0  0  0  0  0  0
   -7.7687    6.4464    2.5899 C   0  0  2  0  0  0  0  0  0  0  0  0
   -7.4177    5.6317    1.3507 C   0  0  1  0  0  0  0  0  0  0  0  0
   -5.9511    5.2127    1.4040 C   0  0  1  0  0  0  0  0  0  0  0  0
   -5.5194    4.4627    0.1592 C   0  0  0  0  0  0  0  0  0  0  0  0
   -7.0854    8.3477    3.8984 O   0  0  0  0  0  0  0  0  0  0  0  0
   -9.1801    6.8881    2.5792 N   0  3  0  0  0  0  0  0  0  0  0  0
   -8.2516    4.4831    1.2783 O   0  0  0  0  0  0  0  0  0  0  0  0
   -5.1070    6.3791    1.5159 O   0  0  0  0  0  0  0  0  0  0  0  0
   -6.5982    3.7318   -0.4065 O   0  0  0  0  0  0  0  0  0  0  0  0
   -3.5541    6.4100    5.6187 C   0  0  2  0  0  0  0  0  0  0  0  0
   -2.0875    6.1979    5.9685 C   0  0  0  0  0  0  0  0  0  0  0  0
   -1.6593    4.7691    5.6329 C   0  0  1  0  0  0  0  0  0  0  0  0
   -1.8643    4.5073    4.1425 C   0  0  2  0  0  0  0  0  0  0  0  0
   -3.3320    4.7235    3.7708 C   0  0  1  0  0  0  0  0  0  0  0  0
   -3.7627    6.1438    4.1359 C   0  0  1  0  0  0  0  0  0  0  0  0
   -3.9656    7.8006    5.9107 N   0  3  0  0  0  0  0  0  0  0  0  0
   -0.2520    4.5506    6.0570 N   0  3  0  0  0  0  0  0  0  0  0  0
   -3.5135    4.5061    2.3780 O   0  0  0  0  0  0  0  0  0  0  0  0
   -5.1486    6.3356    3.7990 O   0  0  0  0  0  0  0  0  0  0  0  0
   -1.0253    2.9553    2.5141 C   0  0  1  0  0  0  0  0  0  0  0  0
   -1.1675    1.4809    2.1323 C   0  0  1  0  0  0  0  0  0  0  0  0
   -0.2834    0.6185    3.0205 C   0  0  0  0  0  0  0  0  0  0  0  0
    1.1499    1.1173    2.9360 C   0  0  1  0  0  0  0  0  0  0  0  0
    1.2039    2.5982    3.3097 C   0  0  1  0  0  0  0  0  0  0  0  0
    2.6005    3.1809    3.1907 C   0  0  0  0  0  0  0  0  0  0  0  0
   -2.5855    1.0523    2.1764 N   0  3  0  0  0  0  0  0  0  0  0  0
    3.5985    2.1362    2.8588 N   0  3  0  0  0  0  0  0  0  0  0  0
   -1.4676    3.1599    3.8144 O   0  0  0  0  0  0  0  0  0  0  0  0
    1.9775    0.3660    3.8121 O   0  0  0  0  0  0  0  0  0  0  0  0
    0.3460    3.3633    2.4356 O   0  0  0  0  0  0  0  0  0  0  0  0
  1  2  1  0  0  0  0
  1 10  1  0  0  0  0
  1 21  1  1  0  0  0
  2  3  1  0  0  0  0
  2  7  1  1  0  0  0
  3  4  1  0  0  0  0
  3  8  1  6  0  0  0
  4  5  1  0  0  0  0
  4  9  1  1  0  0  0
  5  6  1  6  0  0  0
  5 10  1  0  0  0  0
  6 11  1  0  0  0  0
 12 13  1  0  0  0  0
 12 17  1  0  0  0  0
 12 18  1  6  0  0  0
 13 14  1  0  0  0  0
 14 15  1  0  0  0  0
 14 19  1  6  0  0  0
 15 16  1  0  0  0  0
 15 30  1  1  0  0  0
 16 17  1  0  0  0  0
 16 20  1  6  0  0  0
 17 21  1  1  0  0  0
 22 23  1  0  0  0  0
 22 30  1  1  0  0  0
 22 32  1  0  0  0  0
 23 24  1  0  0  0  0
 23 28  1  1  0  0  0
 24 25  1  0  0  0  0
 25 26  1  0  0  0  0
 25 31  1  1  0  0  0
 26 27  1  6  0  0  0
 26 32  1  0  0  0  0
 27 29  1  0  0  0  0
M  CHG  5   8   1  18   1  19   1  28   1  29   1
M  END
>  <CHROM.1>
-161.96019235,-61.63579426,-162.35447454,84.29569701,-30.52700307,64.67960513
-54.88267946,47.03305891,-152.03776858,81.52489974,130.47699925,-157.64694514
82.19277292,-54.67435055,-5.23279809,64.13366112,-3.14361962,4.49828541,3.09838640
-2.88098135,0.42884083,-2.36976926

>  <Name>
1tob

>  <RI>
0

>  <Rbt.Current_Directory>
/home/itssahil/PROJECTS/Mol_Feturizer/New_Systems/rnas/1tob

>  <Rbt.Executable>
rbdock ($Id: //depot/dev/client3/rdock/2013.1/src/exe/rbdock.cxx#4 $)

>  <Rbt.Library>
libRbt.so (2013.1, Build901 2013/11/27)

>  <Rbt.Parameter_File>
/export/apps/rDock/src/rDock_2013.1_src/data/scripts/dock_solv.prm

>  <Rbt.Receptor>
prm/blind_docking_60.prm

>  <SCORE>
-24.0635

>  <SCORE.INTER>
-32.3113

>  <SCORE.INTER.CONST>
1

>  <SCORE.INTER.POLAR>
-4.49702

>  <SCORE.INTER.ROT>
6

>  <SCORE.INTER.SOLV>
34.7702

>  <SCORE.INTER.VDW>
-25.7409

>  <SCORE.INTER.norm>
-1.00973

>  <SCORE.INTRA>
5.3133

>  <SCORE.INTRA.DIHEDRAL>
5.55479

>  <SCORE.INTRA.DIHEDRAL.0>
22.9177

>  <SCORE.INTRA.POLAR>
-0.131512

>  <SCORE.INTRA.POLAR.0>
-0.311208

>  <SCORE.INTRA.REPUL>
0

>  <SCORE.INTRA.REPUL.0>
0

>  <SCORE.INTRA.SOLV>
0.62581

>  <SCORE.INTRA.SOLV.lig_0>
-132.657

>  <SCORE.INTRA.VDW>
2.67015

>  <SCORE.INTRA.VDW.0>
-4.68867

>  <SCORE.INTRA.norm>
0.166041

>  <SCORE.RESTR>
2.93452

>  <SCORE.RESTR.CAVITY>
2.93452

>  <SCORE.RESTR.norm>
0.0917036

>  <SCORE.SYSTEM>
0

>  <SCORE.SYSTEM.CONST>
0

>  <SCORE.SYSTEM.DIHEDRAL>
0

>  <SCORE.SYSTEM.SOLV>
0

>  <SCORE.SYSTEM.norm>
0

>  <SCORE.heavy>
32

>  <SCORE.norm>
-0.751985

>  <RMSD>
9.016

$$$$
1tob
 OpenBabel11021811413D
libRbt.so/2013.1/901 2013/11/27
 32 34  0  0  0  0  0  0  0  0999 V2000
   -3.5078    6.3784    1.9654 C   0  0  2  0  0  0  0  0  0  0  0  0
   -3.4872    7.8388    2.4103 C   0  0  1  0  0  0  0  0  0  0  0  0
   -4.9096    8.3795    2.4609 C   0  0  2  0  0  0  0  0  0  0  0  0
   -5.5752    8.1802    1.1045 C   0  0  1  0  0  0  0  0  0  0  0  0
   -5.5191    6.7066    0.7111 C   0  0  1  0  0  0  0  0  0  0  0  0
   -6.0982    6.4547   -0.6672 C   0  0  0  0  0  0  0  0  0  0  0  0
   -2.8904    7.9401    3.6953 O   0  0  0  0  0  0  0  0  0  0  0  0
   -4.9271    9.7972    2.8819 N   0  3  0  0  0  0  0  0  0  0  0  0
   -6.9257    8.6193    1.1624 O   0  0  0  0  0  0  0  0  0  0  0  0
   -4.1487    6.2520    0.6898 O   0  0  0  0  0  0  0  0  0  0  0  0
   -7.4916    6.7290   -0.7027 O   0  0  0  0  0  0  0  0  0  0  0  0
   -3.0515    3.6268    2.1101 C   0  0  2  0  0  0  0  0  0  0  0  0
   -2.3276    2.3728    2.5809 C   0  0  0  0  0  0  0  0  0  0  0  0
   -1.1313    2.7436    3.4577 C   0  0  1  0  0  0  0  0  0  0  0  0
   -1.6098    3.5349    4.6729 C   0  0  2  0  0  0  0  0  0  0  0  0
   -2.3471    4.7956    4.2186 C   0  0  1  0  0  0  0  0  0  0  0  0
   -3.5239    4.4204    3.3185 C   0  0  1  0  0  0  0  0  0  0  0  0
   -4.2295    3.2732    1.2881 N   0  3  0  0  0  0  0  0  0  0  0  0
   -0.3853    1.5167    3.8399 N   0  3  0  0  0  0  0  0  0  0  0  0
   -2.8150    5.5148    5.3517 O   0  0  0  0  0  0  0  0  0  0  0  0
   -4.2033    5.6112    2.8812 O   0  0  0  0  0  0  0  0  0  0  0  0
   -0.2344    3.0530    6.5808 C   0  0  1  0  0  0  0  0  0  0  0  0
    0.3085    3.8552    7.7646 C   0  0  1  0  0  0  0  0  0  0  0  0
    1.6412    4.4933    7.4026 C   0  0  0  0  0  0  0  0  0  0  0  0
    2.6006    3.4143    6.9277 C   0  0  1  0  0  0  0  0  0  0  0  0
    1.9780    2.6466    5.7621 C   0  0  1  0  0  0  0  0  0  0  0  0
    2.8587    1.5113    5.2726 C   0  0  0  0  0  0  0  0  0  0  0  0
   -0.6796    4.8578    8.2281 N   0  3  0  0  0  0  0  0  0  0  0  0
    4.0348    2.0191    4.5266 N   0  3  0  0  0  0  0  0  0  0  0  0
   -0.4886    3.8946    5.5060 O   0  0  0  0  0  0  0  0  0  0  0  0
    3.8281    4.0013    6.5208 O   0  0  0  0  0  0  0  0  0  0  0  0
    0.7183    2.0667    6.1648 O   0  0  0  0  0  0  0  0  0  0  0  0
  1  2  1  0  0  0  0
  1 10  1  0  0  0  0
  1 21  1  1  0  0  0
  2  3  1  0  0  0  0
  2  7  1  1  0  0  0
  3  4  1  0  0  0  0
  3  8  1  6  0  0  0
  4  5  1  0  0  0  0
  4  9  1  1  0  0  0
  5  6  1  6  0  0  0
  5 10  1  0  0  0  0
  6 11  1  0  0  0  0
 12 13  1  0  0  0  0
 12 17  1  0  0  0  0
 12 18  1  6  0  0  0
 13 14  1  0  0  0  0
 14 15  1  0  0  0  0
 14 19  1  1  0  0  0
 15 16  1  0  0  0  0
 15 30  1  1  0  0  0
 16 17  1  0  0  0  0
 16 20  1  1  0  0  0
 17 21  1  6  0  0  0
 22 23  1  0  0  0  0
 22 30  1  6  0  0  0
 22 32  1  0  0  0  0
 23 24  1  0  0  0  0
 23 28  1  6  0  0  0
 24 25  1  0  0  0  0
 25 26  1  0  0  0  0
 25 31  1  6  0  0  0
 26 27  1  1  0  0  0
 26 32  1  0  0  0  0
 27 29  1  0  0  0  0
M  CHG  5   8   1  18   1  19   1  28   1  29   1
M  END
>  <CHROM.1>
-130.35724580,66.88809934,-167.67848544,68.58510791,-65.63644559,-60.00455335
-176.96864661,73.80078360,-96.34475430,170.86037306,-51.10917511,-146.34667569
49.93080108,-60.43636790,-72.88904925,177.05992760,-2.02838861,4.92075515
3.74619667,3.07883326,-0.73341802,0.62350241

>  <Name>
1tob

>  <RI>
0

>  <Rbt.Current_Directory>
/home/itssahil/PROJECTS/Mol_Feturizer/New_Systems/rnas/1tob

>  <Rbt.Executable>
rbdock ($Id: //depot/dev/client3/rdock/2013.1/src/exe/rbdock.cxx#4 $)

>  <Rbt.Library>
libRbt.so (2013.1, Build901 2013/11/27)

>  <Rbt.Parameter_File>
/export/apps/rDock/src/rDock_2013.1_src/data/scripts/dock_solv.prm

>  <Rbt.Receptor>
prm/pocket_docking_5.prm

>  <SCORE>
-42.8102

>  <SCORE.INTER>
-37.5767

>  <SCORE.INTER.CONST>
1

>  <SCORE.INTER.POLAR>
-5.43397

>  <SCORE.INTER.ROT>
6

>  <SCORE.INTER.SOLV>
22.2625

>  <SCORE.INTER.VDW>
-21.9587

>  <SCORE.INTER.norm>
-1.17427

>  <SCORE.INTRA>
-5.44799

>  <SCORE.INTRA.DIHEDRAL>
-3.91569

>  <SCORE.INTRA.DIHEDRAL.0>
22.9177

>  <SCORE.INTRA.POLAR>
-1.90379

>  <SCORE.INTRA.POLAR.0>
-0.311208

>  <SCORE.INTRA.REPUL>
0

>  <SCORE.INTRA.REPUL.0>
0

>  <SCORE.INTRA.SOLV>
1.98219

>  <SCORE.INTRA.SOLV.lig_0>
-132.657

>  <SCORE.INTRA.VDW>
1.99164

>  <SCORE.INTRA.VDW.0>
-4.68867

>  <SCORE.INTRA.norm>
-0.17025

>  <SCORE.RESTR>
0.214482

>  <SCORE.RESTR.CAVITY>
0.214482

>  <SCORE.RESTR.norm>
0.00670256

>  <SCORE.SYSTEM>
0

>  <SCORE.SYSTEM.CONST>
0

>  <SCORE.SYSTEM.DIHEDRAL>
0

>  <SCORE.SYSTEM.SOLV>
0

>  <SCORE.SYSTEM.norm>
0

>  <SCORE.heavy>
32

>  <SCORE.norm>
-1.33782

>  <RMSD>
9.018

$$$$
1tob
 OpenBabel11021811413D
libRbt.so/2013.1/901 2013/11/27
 32 34  0  0  0  0  0  0  0  0999 V2000
   -5.1152    6.4374    2.3446 C   0  0  2  0  0  0  0  0  0  0  0  0
   -6.5004    7.0677    2.4669 C   0  0  1  0  0  0  0  0  0  0  0  0
   -7.5655    5.9815    2.4025 C   0  0  2  0  0  0  0  0  0  0  0  0
   -7.3895    5.1760    1.1208 C   0  0  1  0  0  0  0  0  0  0  0  0
   -5.9718    4.6153    1.0514 C   0  0  1  0  0  0  0  0  0  0  0  0
   -5.7099    3.8664   -0.2405 C   0  0  0  0  0  0  0  0  0  0  0  0
   -6.6023    7.7656    3.6999 O   0  0  0  0  0  0  0  0  0  0  0  0
   -8.9231    6.5581    2.5107 N   0  3  0  0  0  0  0  0  0  0  0  0
   -8.3362    4.1165    1.0850 O   0  0  0  0  0  0  0  0  0  0  0  0
   -5.0104    5.6901    1.1261 O   0  0  0  0  0  0  0  0  0  0  0  0
   -4.4991    3.1263   -0.1751 O   0  0  0  0  0  0  0  0  0  0  0  0
   -3.4792    5.9445    5.3389 C   0  0  2  0  0  0  0  0  0  0  0  0
   -2.0389    5.8932    5.8300 C   0  0  0  0  0  0  0  0  0  0  0  0
   -1.4666    4.4855    5.6616 C   0  0  1  0  0  0  0  0  0  0  0  0
   -1.5108    4.0850    4.1887 C   0  0  2  0  0  0  0  0  0  0  0  0
   -2.9506    4.1384    3.6754 C   0  0  1  0  0  0  0  0  0  0  0  0
   -3.5273    5.5399    3.8735 C   0  0  1  0  0  0  0  0  0  0  0  0
   -4.0276    7.3122    5.4688 N   0  3  0  0  0  0  0  0  0  0  0  0
   -0.0915    4.4287    6.2220 N   0  3  0  0  0  0  0  0  0  0  0  0
   -2.9840    3.7921    2.2974 O   0  0  0  0  0  0  0  0  0  0  0  0
   -4.8870    5.5793    3.4040 O   0  0  0  0  0  0  0  0  0  0  0  0
   -0.6329    2.4006    2.7204 C   0  0  1  0  0  0  0  0  0  0  0  0
   -0.2596    0.9184    2.6587 C   0  0  1  0  0  0  0  0  0  0  0  0
    0.9706    0.6484    3.5119 C   0  0  0  0  0  0  0  0  0  0  0  0
    2.0998    1.5632    3.0664 C   0  0  1  0  0  0  0  0  0  0  0  0
    1.6419    3.0196    3.1357 C   0  0  1  0  0  0  0  0  0  0  0  0
    2.7023    3.9900    2.6479 C   0  0  0  0  0  0  0  0  0  0  0  0
   -1.4049    0.0627    3.0491 N   0  3  0  0  0  0  0  0  0  0  0  0
    2.9066    3.8803    1.1837 N   0  3  0  0  0  0  0  0  0  0  0  0
   -0.9772    2.7559    4.0178 O   0  0  0  0  0  0  0  0  0  0  0  0
    3.2354    1.3723    3.8975 O   0  0  0  0  0  0  0  0  0  0  0  0
    0.4734    3.2134    2.3096 O   0  0  0  0  0  0  0  0  0  0  0  0
  1  2  1  0  0  0  0
  1 10  1  0  0  0  0
  1 21  1  1  0  0  0
  2  3  1  0  0  0  0
  2  7  1  1  0  0  0
  3  4  1  0  0  0  0
  3  8  1  6  0  0  0
  4  5  1  0  0  0  0
  4  9  1  1  0  0  0
  5  6  1  6  0  0  0
  5 10  1  0  0  0  0
  6 11  1  0  0  0  0
 12 13  1  0  0  0  0
 12 17  1  0  0  0  0
 12 18  1  6  0  0  0
 13 14  1  0  0  0  0
 14 15  1  0  0  0  0
 14 19  1  6  0  0  0
 15 16  1  0  0  0  0
 15 30  1  1  0  0  0
 16 17  1  0  0  0  0
 16 20  1  6  0  0  0
 17 21  1  1  0  0  0
 22 23  1  0  0  0  0
 22 30  1  1  0  0  0
 22 32  1  0  0  0  0
 23 24  1  0  0  0  0
 23 28  1  1  0  0  0
 24 25  1  0  0  0  0
 25 26  1  0  0  0  0
 25 31  1  1  0  0  0
 26 27  1  6  0  0  0
 26 32  1  0  0  0  0
 27 29  1  0  0  0  0
M  CHG  5   8   1  18   1  19   1  28   1  29   1
M  END
>  <CHROM.1>
-144.98241221,175.98885238,-72.57932245,82.29813144,-168.00665122,-51.72841498
27.84261475,58.98850743,-163.74568879,164.95933465,120.72795791,-172.56168257
73.70926518,-179.72608715,69.71090449,-79.24468086,-2.75902184,4.23506823
2.97197548,-2.97299442,0.38704663,-2.29237416

>  <Name>
1tob

>  <RI>
0

>  <Rbt.Current_Directory>
/home/itssahil/PROJECTS/Mol_Feturizer/New_Systems/rnas/1tob

>  <Rbt.Executable>
rbdock ($Id: //depot/dev/client3/rdock/2013.1/src/exe/rbdock.cxx#4 $)

>  <Rbt.Library>
libRbt.so (2013.1, Build901 2013/11/27)

>  <Rbt.Parameter_File>
/export/apps/rDock/src/rDock_2013.1_src/data/scripts/dock_solv.prm

>  <Rbt.Receptor>
prm/blind_docking_100.prm

>  <SCORE>
-32.2763

>  <SCORE.INTER>
-35.058

>  <SCORE.INTER.CONST>
1

>  <SCORE.INTER.POLAR>
-5.61768

>  <SCORE.INTER.ROT>
6

>  <SCORE.INTER.SOLV>
43.5028

>  <SCORE.INTER.VDW>
-26.7473

>  <SCORE.INTER.norm>
-1.09556

>  <SCORE.INTRA>
-5.57527

>  <SCORE.INTRA.DIHEDRAL>
-1.6269

>  <SCORE.INTRA.DIHEDRAL.0>
22.9177

>  <SCORE.INTRA.POLAR>
-1.26481

>  <SCORE.INTRA.POLAR.0>
-0.311208

>  <SCORE.INTRA.REPUL>
0

>  <SCORE.INTRA.REPUL.0>
0

>  <SCORE.INTRA.SOLV>
-2.37344

>  <SCORE.INTRA.SOLV.lig_0>
-132.657

>  <SCORE.INTRA.VDW>
0.725241

>  <SCORE.INTRA.VDW.0>
-4.68867

>  <SCORE.INTRA.norm>
-0.174227

>  <SCORE.RESTR>
8.35696

>  <SCORE.RESTR.CAVITY>
8.35696

>  <SCORE.RESTR.norm>
0.261155

>  <SCORE.SYSTEM>
0

>  <SCORE.SYSTEM.CONST>
0

>  <SCORE.SYSTEM.DIHEDRAL>
0

>  <SCORE.SYSTEM.SOLV>
0

>  <SCORE.SYSTEM.norm>
0

>  <SCORE.heavy>
32

>  <SCORE.norm>
-1.00863

>  <RMSD>
9.022

$$$$
1tob
 OpenBabel11021811413D
libRbt.so/2013.1/901 2013/11/27
 32 34  0  0  0  0  0  0  0  0999 V2000
   -5.3666    6.4825    1.2164 C   0  0  2  0  0  0  0  0  0  0  0  0
   -6.6828    7.2327    1.0272 C   0  0  1  0  0  0  0  0  0  0  0  0
   -7.8420    6.2455    1.0391 C   0  0  2  0  0  0  0  0  0  0  0  0
   -7.6080    5.1777   -0.0227 C   0  0  1  0  0  0  0  0  0  0  0  0
   -6.2583    4.5038    0.2085 C   0  0  1  0  0  0  0  0  0  0  0  0
   -5.9322    3.4821   -0.8631 C   0  0  0  0  0  0  0  0  0  0  0  0
   -6.8495    8.1796    2.0728 O   0  0  0  0  0  0  0  0  0  0  0  0
   -9.1350    6.9383    0.8505 N   0  3  0  0  0  0  0  0  0  0  0  0
   -8.6506    4.2131    0.0276 O   0  0  0  0  0  0  0  0  0  0  0  0
   -5.2039    5.4903    0.1950 O   0  0  0  0  0  0  0  0  0  0  0  0
   -6.5450    3.8147   -2.1008 O   0  0  0  0  0  0  0  0  0  0  0  0
   -4.3310    6.2063    4.6117 C   0  0  2  0  0  0  0  0  0  0  0  0
   -2.9955    6.2520    5.3414 C   0  0  0  0  0  0  0  0  0  0  0  0
   -2.2636    4.9171    5.2004 C   0  0  1  0  0  0  0  0  0  0  0  0
   -2.0200    4.6175    3.7230 C   0  0  2  0  0  0  0  0  0  0  0  0
   -3.3516    4.5757    2.9716 C   0  0  1  0  0  0  0  0  0  0  0  0
   -4.0921    5.9018    3.1408 C   0  0  1  0  0  0  0  0  0  0  0  0
   -5.0291    7.5064    4.7169 N   0  3  0  0  0  0  0  0  0  0  0  0
   -1.0030    4.9464    5.9867 N   0  3  0  0  0  0  0  0  0  0  0  0
   -3.1188    4.3243    1.5923 O   0  0  0  0  0  0  0  0  0  0  0  0
   -5.3510    5.8503    2.4456 O   0  0  0  0  0  0  0  0  0  0  0  0
   -0.6951    3.1495    2.3616 C   0  0  1  0  0  0  0  0  0  0  0  0
   -0.9821    1.7377    1.8473 C   0  0  1  0  0  0  0  0  0  0  0  0
   -0.4146    0.7017    2.8059 C   0  0  0  0  0  0  0  0  0  0  0  0
    1.0678    0.9681    3.0110 C   0  0  1  0  0  0  0  0  0  0  0  0
    1.2715    2.4007    3.5024 C   0  0  1  0  0  0  0  0  0  0  0  0
    2.7370    2.7575    3.6738 C   0  0  0  0  0  0  0  0  0  0  0  0
   -2.4317    1.5401    1.6107 N   0  3  0  0  0  0  0  0  0  0  0  0
    3.4855    2.6039    2.4034 N   0  3  0  0  0  0  0  0  0  0  0  0
   -1.3336    3.3573    3.5770 O   0  0  0  0  0  0  0  0  0  0  0  0
    1.5991    0.0513    3.9566 O   0  0  0  0  0  0  0  0  0  0  0  0
    0.7124    3.3359    2.5547 O   0  0  0  0  0  0  0  0  0  0  0  0
  1  2  1  0  0  0  0
  1 10  1  0  0  0  0
  1 21  1  1  0  0  0
  2  3  1  0  0  0  0
  2  7  1  1  0  0  0
  3  4  1  0  0  0  0
  3  8  1  6  0  0  0
  4  5  1  0  0  0  0
  4  9  1  1  0  0  0
  5  6  1  6  0  0  0
  5 10  1  0  0  0  0
  6 11  1  0  0  0  0
 12 13  1  0  0  0  0
 12 17  1  0  0  0  0
 12 18  1  6  0  0  0
 13 14  1  0  0  0  0
 14 15  1  0  0  0  0
 14 19  1  1  0  0  0
 15 16  1  0  0  0  0
 15 30  1  1  0  0  0
 16 17  1  0  0  0  0
 16 20  1  6  0  0  0
 17 21  1  6  0  0  0
 22 23  1  0  0  0  0
 22 30  1  1  0  0  0
 22 32  1  0  0  0  0
 23 24  1  0  0  0  0
 23 28  1  1  0  0  0
 24 25  1  0  0  0  0
 25 26  1  0  0  0  0
 25 31  1  1  0  0  0
 26 27  1  6  0  0  0
 26 32  1  0  0  0  0
 27 29  1  0  0  0  0
M  CHG  5   8   1  18   1  19   1  28   1  29   1
M  END
>  <CHROM.1>
-139.90054688,56.00767283,-45.66679383,-51.50163445,28.58065367,73.49289111
90.31548495,89.37449563,-161.13502965,-61.56642817,137.01295985,-135.29388622
-123.16560285,-75.97594065,58.66452862,69.27649020,-3.28405795,4.36503541
2.31656931,-3.07571118,0.50420281,-2.30202030

>  <Name>
1tob

>  <RI>
0

>  <Rbt.Current_Directory>
/home/itssahil/PROJECTS/Mol_Feturizer/New_Systems/rnas/1tob

>  <Rbt.Executable>
rbdock ($Id: //depot/dev/client3/rdock/2013.1/src/exe/rbdock.cxx#4 $)

>  <Rbt.Library>
libRbt.so (2013.1, Build901 2013/11/27)

>  <Rbt.Parameter_File>
/export/apps/rDock/src/rDock_2013.1_src/data/scripts/dock_solv.prm

>  <Rbt.Receptor>
prm/blind_docking_80.prm

>  <SCORE>
-30.547

>  <SCORE.INTER>
-41.5832

>  <SCORE.INTER.CONST>
1

>  <SCORE.INTER.POLAR>
-6.87335

>  <SCORE.INTER.ROT>
6

>  <SCORE.INTER.SOLV>
32.8042

>  <SCORE.INTER.VDW>
-23.3457

>  <SCORE.INTER.norm>
-1.29947

>  <SCORE.INTRA>
3.64366

>  <SCORE.INTRA.DIHEDRAL>
9.32388

>  <SCORE.INTRA.DIHEDRAL.0>
22.9177

>  <SCORE.INTRA.POLAR>
-0.758685

>  <SCORE.INTRA.POLAR.0>
-0.311208

>  <SCORE.INTRA.REPUL>
0

>  <SCORE.INTRA.REPUL.0>
0

>  <SCORE.INTRA.SOLV>
-0.750157

>  <SCORE.INTRA.SOLV.lig_0>
-132.657

>  <SCORE.INTRA.VDW>
1.93633

>  <SCORE.INTRA.VDW.0>
-4.68867

>  <SCORE.INTRA.norm>
0.113864

>  <SCORE.RESTR>
7.39254

>  <SCORE.RESTR.CAVITY>
7.39254

>  <SCORE.RESTR.norm>
0.231017

>  <SCORE.SYSTEM>
0

>  <SCORE.SYSTEM.CONST>
0

>  <SCORE.SYSTEM.DIHEDRAL>
0

>  <SCORE.SYSTEM.SOLV>
0

>  <SCORE.SYSTEM.norm>
0

>  <SCORE.heavy>
32

>  <SCORE.norm>
-0.954592

>  <RMSD>
9.030

$$$$
1tob
 OpenBabel11021811413D
libRbt.so/2013.1/901 2013/11/27
 32 34  0  0  0  0  0  0  0  0999 V2000
   -6.3887    8.0710    2.7503 C   0  0  2  0  0  0  0  0  0  0  0  0
   -6.0905    9.5412    3.0345 C   0  0  1  0  0  0  0  0  0  0  0  0
   -6.9715   10.0319    4.1753 C   0  0  2  0  0  0  0  0  0  0  0  0
   -8.4340    9.7774    3.8305 C   0  0  1  0  0  0  0  0  0  0  0  0
   -8.6433    8.2980    3.5192 C   0  0  1  0  0  0  0  0  0  0  0  0
  -10.0661    7.9936    3.0930 C   0  0  0  0  0  0  0  0  0  0  0  0
   -4.7227    9.6937    3.3861 O   0  0  0  0  0  0  0  0  0  0  0  0
   -6.7141   11.4575    4.4733 N   0  3  0  0  0  0  0  0  0  0  0  0
   -9.2598   10.1693    4.9188 O   0  0  0  0  0  0  0  0  0  0  0  0
   -7.7760    7.8922    2.4383 O   0  0  0  0  0  0  0  0  0  0  0  0
  -10.1855    7.9482    1.6781 O   0  0  0  0  0  0  0  0  0  0  0  0
   -4.3495    7.1617    5.5371 C   0  0  2  0  0  0  0  0  0  0  0  0
   -2.8669    6.8818    5.7416 C   0  0  0  0  0  0  0  0  0  0  0  0
   -2.5130    5.4821    5.2386 C   0  0  1  0  0  0  0  0  0  0  0  0
   -2.8462    5.3698    3.7526 C   0  0  2  0  0  0  0  0  0  0  0  0
   -4.3316    5.6560    3.5269 C   0  0  1  0  0  0  0  0  0  0  0  0
   -4.6858    7.0445    4.0584 C   0  0  1  0  0  0  0  0  0  0  0  0
   -4.6914    8.5273    5.9917 N   0  3  0  0  0  0  0  0  0  0  0  0
   -1.0836    5.1900    5.5212 N   0  3  0  0  0  0  0  0  0  0  0  0
   -4.6320    5.5780    2.1399 O   0  0  0  0  0  0  0  0  0  0  0  0
   -6.0876    7.3011    3.8581 O   0  0  0  0  0  0  0  0  0  0  0  0
   -1.5977    3.9946    2.2314 C   0  0  1  0  0  0  0  0  0  0  0  0
   -2.0096    2.9302    1.2129 C   0  0  1  0  0  0  0  0  0  0  0  0
   -2.0055    1.5528    1.8587 C   0  0  0  0  0  0  0  0  0  0  0  0
   -0.6391    1.2906    2.4706 C   0  0  1  0  0  0  0  0  0  0  0  0
   -0.2927    2.4055    3.4568 C   0  0  1  0  0  0  0  0  0  0  0  0
    1.0881    2.2401    4.0652 C   0  0  0  0  0  0  0  0  0  0  0  0
   -3.3211    3.2538    0.6032 N   0  3  0  0  0  0  0  0  0  0  0  0
    2.1454    2.2602    3.0262 N   0  3  0  0  0  0  0  0  0  0  0  0
   -2.5205    4.0511    3.2674 O   0  0  0  0  0  0  0  0  0  0  0  0
   -0.6386    0.0366    3.1373 O   0  0  0  0  0  0  0  0  0  0  0  0
   -0.3141    3.6853    2.7882 O   0  0  0  0  0  0  0  0  0  0  0  0
  1  2  1  0  0  0  0
  1 10  1  0  0  0  0
  1 21  1  1  0  0  0
  2  3  1  0  0  0  0
  2  7  1  1  0  0  0
  3  4  1  0  0  0  0
  3  8  1  6  0  0  0
  4  5  1  0  0  0  0
  4  9  1  1  0  0  0
  5  6  1  6  0  0  0
  5 10  1  0  0  0  0
  6 11  1  0  0  0  0
 12 13  1  0  0  0  0
 12 17  1  0  0  0  0
 12 18  1  6  0  0  0
 13 14  1  0  0  0  0
 14 15  1  0  0  0  0
 14 19  1  6  0  0  0
 15 16  1  0  0  0  0
 15 30  1  1  0  0  0
 16 17  1  0  0  0  0
 16 20  1  6  0  0  0
 17 21  1  1  0  0  0
 22 23  1  0  0  0  0
 22 30  1  1  0  0  0
 22 32  1  0  0  0  0
 23 24  1  0  0  0  0
 23 28  1  1  0  0  0
 24 25  1  0  0  0  0
 25 26  1  0  0  0  0
 25 31  1  1  0  0  0
 26 27  1  6  0  0  0
 26 32  1  0  0  0  0
 27 29  1  0  0  0  0
M  CHG  5   8   1  18   1  19   1  28   1  29   1
M  END
>  <CHROM.1>
-77.07572262,68.31288160,61.48789276,-63.01873870,97.11058359,132.82350116
-41.74165354,8.98738332,-120.86043975,-60.25419800,138.79352158,-140.17466742
88.76178518,62.20813748,60.57110341,56.70302778,-4.17275081,6.03820173,3.45252790
2.51539661,-0.43715349,0.63623030

>  <Name>
1tob

>  <RI>
0

>  <Rbt.Current_Directory>
/home/itssahil/PROJECTS/Mol_Feturizer/New_Systems/rnas/1tob

>  <Rbt.Executable>
rbdock ($Id: //depot/dev/client3/rdock/2013.1/src/exe/rbdock.cxx#4 $)

>  <Rbt.Library>
libRbt.so (2013.1, Build901 2013/11/27)

>  <Rbt.Parameter_File>
/export/apps/rDock/src/rDock_2013.1_src/data/scripts/dock_solv.prm

>  <Rbt.Receptor>
prm/pocket_docking_6.prm

>  <SCORE>
-55.3031

>  <SCORE.INTER>
-56.339

>  <SCORE.INTER.CONST>
1

>  <SCORE.INTER.POLAR>
-8.03201

>  <SCORE.INTER.ROT>
6

>  <SCORE.INTER.SOLV>
34.5896

>  <SCORE.INTER.VDW>
-29.9158

>  <SCORE.INTER.norm>
-1.76059

>  <SCORE.INTRA>
1.03589

>  <SCORE.INTRA.DIHEDRAL>
12.9751

>  <SCORE.INTRA.DIHEDRAL.0>
22.9177

>  <SCORE.INTRA.POLAR>
-2.02328

>  <SCORE.INTRA.POLAR.0>
-0.311208

>  <SCORE.INTRA.REPUL>
0

>  <SCORE.INTRA.REPUL.0>
0

>  <SCORE.INTRA.SOLV>
3.08337

>  <SCORE.INTRA.SOLV.lig_0>
-132.657

>  <SCORE.INTRA.VDW>
-0.114212

>  <SCORE.INTRA.VDW.0>
-4.68867

>  <SCORE.INTRA.norm>
0.0323715

>  <SCORE.RESTR>
0

>  <SCORE.RESTR.CAVITY>
0

>  <SCORE.RESTR.norm>
0

>  <SCORE.SYSTEM>
0

>  <SCORE.SYSTEM.CONST>
0

>  <SCORE.SYSTEM.DIHEDRAL>
0

>  <SCORE.SYSTEM.SOLV>
0

>  <SCORE.SYSTEM.norm>
0

>  <SCORE.heavy>
32

>  <SCORE.norm>
-1.72822

>  <RMSD>
9.039

$$$$
1tob
 OpenBabel11021811413D
libRbt.so/2013.1/901 2013/11/27
 32 34  0  0  0  0  0  0  0  0999 V2000
   -4.2604    6.1614    1.2224 C   0  0  2  0  0  0  0  0  0  0  0  0
   -4.4006    7.6640    0.9906 C   0  0  1  0  0  0  0  0  0  0  0  0
   -3.3580    8.4091    1.8128 C   0  0  2  0  0  0  0  0  0  0  0  0
   -3.4960    8.0179    3.2793 C   0  0  1  0  0  0  0  0  0  0  0  0
   -3.3871    6.5025    3.4240 C   0  0  1  0  0  0  0  0  0  0  0  0
   -3.5937    6.0430    4.8539 C   0  0  0  0  0  0  0  0  0  0  0  0
   -4.2209    7.9552   -0.3880 O   0  0  0  0  0  0  0  0  0  0  0  0
   -3.4696    9.8710    1.6181 N   0  3  0  0  0  0  0  0  0  0  0  0
   -2.4825    8.6560    4.0446 O   0  0  0  0  0  0  0  0  0  0  0  0
   -4.3934    5.8547    2.6160 O   0  0  0  0  0  0  0  0  0  0  0  0
   -3.0471    6.9701    5.7811 O   0  0  0  0  0  0  0  0  0  0  0  0
   -2.7770    3.3198    0.7347 C   0  0  2  0  0  0  0  0  0  0  0  0
   -2.2095    2.1283    1.4939 C   0  0  0  0  0  0  0  0  0  0  0  0
   -0.7018    2.2890    1.6907 C   0  0  1  0  0  0  0  0  0  0  0  0
   -0.4189    3.5676    2.4762 C   0  0  2  0  0  0  0  0  0  0  0  0
   -0.9896    4.7756    1.7317 C   0  0  1  0  0  0  0  0  0  0  0  0
   -2.4913    4.5958    1.5116 C   0  0  1  0  0  0  0  0  0  0  0  0
   -4.2411    3.1858    0.5700 N   0  3  0  0  0  0  0  0  0  0  0  0
   -0.1477    1.0819    2.3569 N   0  3  0  0  0  0  0  0  0  0  0  0
   -0.7488    5.9602    2.4793 O   0  0  0  0  0  0  0  0  0  0  0  0
   -3.0190    5.7275    0.7964 O   0  0  0  0  0  0  0  0  0  0  0  0
    1.6554    2.6894    3.3068 C   0  0  1  0  0  0  0  0  0  0  0  0
    2.1910    3.1549    4.6619 C   0  0  1  0  0  0  0  0  0  0  0  0
    3.2288    4.2507    4.4706 C   0  0  0  0  0  0  0  0  0  0  0  0
    4.3221    3.7485    3.5417 C   0  0  1  0  0  0  0  0  0  0  0  0
    3.7054    3.2832    2.2230 C   0  0  1  0  0  0  0  0  0  0  0  0
    4.7352    2.7124    1.2650 C   0  0  0  0  0  0  0  0  0  0  0  0
    1.0876    3.5845    5.5532 N   0  3  0  0  0  0  0  0  0  0  0  0
    5.1164    1.3292    1.6384 N   0  3  0  0  0  0  0  0  0  0  0  0
    1.0016    3.7324    2.6644 O   0  0  0  0  0  0  0  0  0  0  0  0
    5.2643    4.7827    3.2977 O   0  0  0  0  0  0  0  0  0  0  0  0
    2.7299    2.2471    2.4684 O   0  0  0  0  0  0  0  0  0  0  0  0
  1  2  1  0  0  0  0
  1 10  1  0  0  0  0
  1 21  1  1  0  0  0
  2  3  1  0  0  0  0
  2  7  1  6  0  0  0
  3  4  1  0  0  0  0
  3  8  1  1  0  0  0
  4  5  1  0  0  0  0
  4  9  1  1  0  0  0
  5  6  1  1  0  0  0
  5 10  1  0  0  0  0
  6 11  1  0  0  0  0
 12 13  1  0  0  0  0
 12 17  1  0  0  0  0
 12 18  1  1  0  0  0
 13 14  1  0  0  0  0
 14 15  1  0  0  0  0
 14 19  1  1  0  0  0
 15 16  1  0  0  0  0
 15 30  1  6  0  0  0
 16 17  1  0  0  0  0
 16 20  1  1  0  0  0
 17 21  1  6  0  0  0
 22 23  1  0  0  0  0
 22 30  1  6  0  0  0
 22 32  1  0  0  0  0
 23 24  1  0  0  0  0
 23 28  1  1  0  0  0
 24 25  1  0  0  0  0
 25 26  1  0  0  0  0
 25 31  1  6  0  0  0
 26 27  1  6  0  0  0
 26 32  1  0  0  0  0
 27 29  1  0  0  0  0
M  CHG  5   8   1  18   1  19   1  28   1  29   1
M  END
>  <CHROM.1>
150.08921502,62.78256717,-171.50707483,-59.34869968,-35.85031015,-72.28419962
74.85418994,38.93687675,-57.35655529,-49.10094492,97.37288103,-114.04089573
101.02276679,68.19541269,78.02368294,-40.55657994,-0.70458124,4.84125611
2.52138885,2.73131349,-0.37648627,0.51894041

>  <Name>
1tob

>  <RI>
0

>  <Rbt.Current_Directory>
/home/itssahil/PROJECTS/Mol_Feturizer/New_Systems/rnas/1tob

>  <Rbt.Executable>
rbdock ($Id: //depot/dev/client3/rdock/2013.1/src/exe/rbdock.cxx#4 $)

>  <Rbt.Library>
libRbt.so (2013.1, Build901 2013/11/27)

>  <Rbt.Parameter_File>
/export/apps/rDock/src/rDock_2013.1_src/data/scripts/dock_solv.prm

>  <Rbt.Receptor>
prm/blind_docking_40.prm

>  <SCORE>
-24.5634

>  <SCORE.INTER>
-39.4868

>  <SCORE.INTER.CONST>
1

>  <SCORE.INTER.POLAR>
-4.55717

>  <SCORE.INTER.ROT>
6

>  <SCORE.INTER.SOLV>
30.411

>  <SCORE.INTER.VDW>
-28.871

>  <SCORE.INTER.norm>
-1.23396

>  <SCORE.INTRA>
8.33671

>  <SCORE.INTRA.DIHEDRAL>
2.65968

>  <SCORE.INTRA.DIHEDRAL.0>
22.9177

>  <SCORE.INTRA.POLAR>
-0.431162

>  <SCORE.INTRA.POLAR.0>
-0.311208

>  <SCORE.INTRA.REPUL>
0

>  <SCORE.INTRA.REPUL.0>
0

>  <SCORE.INTRA.SOLV>
0.122553

>  <SCORE.INTRA.SOLV.lig_0>
-132.657

>  <SCORE.INTRA.VDW>
8.41154

>  <SCORE.INTRA.VDW.0>
-4.68867

>  <SCORE.INTRA.norm>
0.260522

>  <SCORE.RESTR>
6.58671

>  <SCORE.RESTR.CAVITY>
6.58671

>  <SCORE.RESTR.norm>
0.205835

>  <SCORE.SYSTEM>
0

>  <SCORE.SYSTEM.CONST>
0

>  <SCORE.SYSTEM.DIHEDRAL>
0

>  <SCORE.SYSTEM.SOLV>
0

>  <SCORE.SYSTEM.norm>
0

>  <SCORE.heavy>
32

>  <SCORE.norm>
-0.767606

>  <RMSD>
9.051

$$$$
1tob
 OpenBabel11021811413D
libRbt.so/2013.1/901 2013/11/27
 32 34  0  0  0  0  0  0  0  0999 V2000
   -5.1585    6.6345    2.0966 C   0  0  2  0  0  0  0  0  0  0  0  0
   -6.6106    7.1005    2.1706 C   0  0  1  0  0  0  0  0  0  0  0  0
   -7.5402    5.9288    1.8853 C   0  0  2  0  0  0  0  0  0  0  0  0
   -7.1807    5.3141    0.5380 C   0  0  1  0  0  0  0  0  0  0  0  0
   -5.7080    4.9134    0.5274 C   0  0  1  0  0  0  0  0  0  0  0  0
   -5.2688    4.3647   -0.8159 C   0  0  0  0  0  0  0  0  0  0  0  0
   -6.8812    7.6226    3.4635 O   0  0  0  0  0  0  0  0  0  0  0  0
   -8.9579    6.3464    1.9414 N   0  3  0  0  0  0  0  0  0  0  0  0
   -7.9981    4.1772    0.2947 O   0  0  0  0  0  0  0  0  0  0  0  0
   -4.8807    6.0621    0.8124 O   0  0  0  0  0  0  0  0  0  0  0  0
   -5.7204    3.0311   -1.0044 O   0  0  0  0  0  0  0  0  0  0  0  0
   -3.6918    5.9744    5.1302 C   0  0  2  0  0  0  0  0  0  0  0  0
   -2.2923    6.0011    5.7293 C   0  0  0  0  0  0  0  0  0  0  0  0
   -1.5798    4.6712    5.4824 C   0  0  1  0  0  0  0  0  0  0  0  0
   -1.4797    4.4121    3.9809 C   0  0  2  0  0  0  0  0  0  0  0  0
   -2.8773    4.3898    3.3600 C   0  0  1  0  0  0  0  0  0  0  0  0
   -3.5958    5.7102    3.6355 C   0  0  1  0  0  0  0  0  0  0  0  0
   -4.3741    7.2705    5.3373 N   0  3  0  0  0  0  0  0  0  0  0  0
   -0.2495    4.6800    6.1445 N   0  3  0  0  0  0  0  0  0  0  0  0
   -2.7785    4.1763    1.9583 O   0  0  0  0  0  0  0  0  0  0  0  0
   -4.9157    5.6767    3.0632 O   0  0  0  0  0  0  0  0  0  0  0  0
   -0.3805    2.9420    2.4334 C   0  0  1  0  0  0  0  0  0  0  0  0
   -0.1756    1.4468    2.1836 C   0  0  1  0  0  0  0  0  0  0  0  0
    0.9216    0.9065    3.0883 C   0  0  0  0  0  0  0  0  0  0  0  0
    2.1880    1.7213    2.8812 C   0  0  1  0  0  0  0  0  0  0  0  0
    1.8957    3.2010    3.1275 C   0  0  1  0  0  0  0  0  0  0  0  0
    3.1049    4.0849    2.8812 C   0  0  0  0  0  0  0  0  0  0  0  0
   -1.4455    0.6998    2.3438 N   0  3  0  0  0  0  0  0  0  0  0  0
    3.7098    3.8203    1.5539 N   0  3  0  0  0  0  0  0  0  0  0  0
   -0.8128    3.1570    3.7354 O   0  0  0  0  0  0  0  0  0  0  0  0
    3.2031    1.2739    3.7679 O   0  0  0  0  0  0  0  0  0  0  0  0
    0.8479    3.6548    2.2434 O   0  0  0  0  0  0  0  0  0  0  0  0
  1  2  1  0  0  0  0
  1 10  1  0  0  0  0
  1 21  1  1  0  0  0
  2  3  1  0  0  0  0
  2  7  1  1  0  0  0
  3  4  1  0  0  0  0
  3  8  1  6  0  0  0
  4  5  1  0  0  0  0
  4  9  1  1  0  0  0
  5  6  1  6  0  0  0
  5 10  1  0  0  0  0
  6 11  1  0  0  0  0
 12 13  1  0  0  0  0
 12 17  1  0  0  0  0
 12 18  1  6  0  0  0
 13 14  1  0  0  0  0
 14 15  1  0  0  0  0
 14 19  1  6  0  0  0
 15 16  1  0  0  0  0
 15 30  1  1  0  0  0
 16 17  1  0  0  0  0
 16 20  1  6  0  0  0
 17 21  1  1  0  0  0
 22 23  1  0  0  0  0
 22 30  1  1  0  0  0
 22 32  1  0  0  0  0
 23 24  1  0  0  0  0
 23 28  1  1  0  0  0
 24 25  1  0  0  0  0
 25 26  1  0  0  0  0
 25 31  1  1  0  0  0
 26 27  1  6  0  0  0
 26 32  1  0  0  0  0
 27 29  1  0  0  0  0
M  CHG  5   8   1  18   1  19   1  28   1  29   1
M  END
>  <CHROM.1>
-145.39866854,-78.04623681,66.40202113,-56.67399641,-76.67605352,-66.44408730
41.75590363,132.05068203,-165.66922188,-59.29378638,118.97632947,-159.25224123
-53.23084657,175.97734229,51.34700331,-39.60094302,-2.72150709,4.40861095
2.67542605,-3.06304166,0.38484505,-2.20869863

>  <Name>
1tob

>  <RI>
0

>  <Rbt.Current_Directory>
/home/itssahil/PROJECTS/Mol_Feturizer/New_Systems/rnas/1tob

>  <Rbt.Executable>
rbdock ($Id: //depot/dev/client3/rdock/2013.1/src/exe/rbdock.cxx#4 $)

>  <Rbt.Library>
libRbt.so (2013.1, Build901 2013/11/27)

>  <Rbt.Parameter_File>
/export/apps/rDock/src/rDock_2013.1_src/data/scripts/dock_solv.prm

>  <Rbt.Receptor>
prm/blind_docking_100.prm

>  <SCORE>
-2.34136

>  <SCORE.INTER>
-10.5327

>  <SCORE.INTER.CONST>
1

>  <SCORE.INTER.POLAR>
-4.56566

>  <SCORE.INTER.ROT>
6

>  <SCORE.INTER.SOLV>
38.4463

>  <SCORE.INTER.VDW>
-12.2184

>  <SCORE.INTER.norm>
-0.329148

>  <SCORE.INTRA>
-0.163437

>  <SCORE.INTRA.DIHEDRAL>
-0.29932

>  <SCORE.INTRA.DIHEDRAL.0>
22.9177

>  <SCORE.INTRA.POLAR>
-0.0952181

>  <SCORE.INTRA.POLAR.0>
-0.311208

>  <SCORE.INTRA.REPUL>
0

>  <SCORE.INTRA.REPUL.0>
0

>  <SCORE.INTRA.SOLV>
-1.84306

>  <SCORE.INTRA.SOLV.lig_0>
-132.657

>  <SCORE.INTRA.VDW>
1.2315

>  <SCORE.INTRA.VDW.0>
-4.68867

>  <SCORE.INTRA.norm>
-0.00510741

>  <SCORE.RESTR>
8.35481

>  <SCORE.RESTR.CAVITY>
8.35481

>  <SCORE.RESTR.norm>
0.261088

>  <SCORE.SYSTEM>
0

>  <SCORE.SYSTEM.CONST>
0

>  <SCORE.SYSTEM.DIHEDRAL>
0

>  <SCORE.SYSTEM.SOLV>
0

>  <SCORE.SYSTEM.norm>
0

>  <SCORE.heavy>
32

>  <SCORE.norm>
-0.0731675

>  <RMSD>
9.056

$$$$
1tob
 OpenBabel11021811413D
libRbt.so/2013.1/901 2013/11/27
 32 34  0  0  0  0  0  0  0  0999 V2000
   -4.8662    4.9796    2.9729 C   0  0  2  0  0  0  0  0  0  0  0  0
   -4.6975    3.8086    2.0077 C   0  0  1  0  0  0  0  0  0  0  0  0
   -4.9089    4.2880    0.5781 C   0  0  2  0  0  0  0  0  0  0  0  0
   -6.2723    4.9595    0.4661 C   0  0  1  0  0  0  0  0  0  0  0  0
   -6.3797    6.0884    1.4875 C   0  0  1  0  0  0  0  0  0  0  0  0
   -7.7451    6.7473    1.4782 C   0  0  0  0  0  0  0  0  0  0  0  0
   -3.3936    3.2613    2.1414 O   0  0  0  0  0  0  0  0  0  0  0  0
   -4.7599    3.1758   -0.3853 N   0  3  0  0  0  0  0  0  0  0  0  0
   -6.4498    5.4712   -0.8480 O   0  0  0  0  0  0  0  0  0  0  0  0
   -6.1615    5.5734    2.8188 O   0  0  0  0  0  0  0  0  0  0  0  0
   -8.6651    6.0464    2.3030 O   0  0  0  0  0  0  0  0  0  0  0  0
   -3.3231    5.9316    5.0696 C   0  0  2  0  0  0  0  0  0  0  0  0
   -2.1463    5.9403    6.0355 C   0  0  0  0  0  0  0  0  0  0  0  0
   -1.2426    4.7322    5.7877 C   0  0  1  0  0  0  0  0  0  0  0  0
   -0.7175    4.7678    4.3542 C   0  0  2  0  0  0  0  0  0  0  0  0
   -1.8874    4.7677    3.3689 C   0  0  1  0  0  0  0  0  0  0  0  0
   -2.8032    5.9608    3.6405 C   0  0  1  0  0  0  0  0  0  0  0  0
   -4.1833    7.1161    5.2827 N   0  3  0  0  0  0  0  0  0  0  0  0
   -0.1466    4.7067    6.7908 N   0  3  0  0  0  0  0  0  0  0  0  0
   -1.3954    4.8292    2.0369 O   0  0  0  0  0  0  0  0  0  0  0  0
   -3.9102    5.9458    2.7213 O   0  0  0  0  0  0  0  0  0  0  0  0
    0.3753    3.3291    2.7732 C   0  0  1  0  0  0  0  0  0  0  0  0
    0.3275    1.8160    2.5542 C   0  0  1  0  0  0  0  0  0  0  0  0
    1.4306    1.1330    3.3486 C   0  0  0  0  0  0  0  0  0  0  0  0
    2.7705    1.7445    2.9728 C   0  0  1  0  0  0  0  0  0  0  0  0
    2.7298    3.2554    3.1985 C   0  0  1  0  0  0  0  0  0  0  0  0
    4.0191    3.9432    2.7877 C   0  0  0  0  0  0  0  0  0  0  0  0
   -1.0113    1.2712    2.8815 N   0  3  0  0  0  0  0  0  0  0  0  0
    4.8287    4.3292    3.9681 N   0  3  0  0  0  0  0  0  0  0  0  0
    0.1333    3.6297    4.1070 O   0  0  0  0  0  0  0  0  0  0  0  0
    3.8046    1.1654    3.7552 O   0  0  0  0  0  0  0  0  0  0  0  0
    1.6649    3.8458    2.4220 O   0  0  0  0  0  0  0  0  0  0  0  0
  1  2  1  0  0  0  0
  1 10  1  0  0  0  0
  1 21  1  6  0  0  0
  2  3  1  0  0  0  0
  2  7  1  6  0  0  0
  3  4  1  0  0  0  0
  3  8  1  6  0  0  0
  4  5  1  0  0  0  0
  4  9  1  6  0  0  0
  5  6  1  1  0  0  0
  5 10  1  0  0  0  0
  6 11  1  0  0  0  0
 12 13  1  0  0  0  0
 12 17  1  0  0  0  0
 12 18  1  1  0  0  0
 13 14  1  0  0  0  0
 14 15  1  0  0  0  0
 14 19  1  1  0  0  0
 15 16  1  0  0  0  0
 15 30  1  6  0  0  0
 16 17  1  0  0  0  0
 16 20  1  6  0  0  0
 17 21  1  6  0  0  0
 22 23  1  0  0  0  0
 22 30  1  1  0  0  0
 22 32  1  0  0  0  0
 23 24  1  0  0  0  0
 23 28  1  1  0  0  0
 24 25  1  0  0  0  0
 25 26  1  0  0  0  0
 25 31  1  1  0  0  0
 26 27  1  6  0  0  0
 26 32  1  0  0  0  0
 27 29  1  0  0  0  0
M  CHG  5   8   1  18   1  19   1  28   1  29   1
M  END
>  <CHROM.1>
-102.28203432,174.89166658,-60.18259542,-31.20144809,85.34694590,70.68616029
-62.83479882,-127.11370917,162.67856682,173.12264812,-48.67247681,-138.84954052
-73.32687233,176.46769873,-104.79880650,37.12579845,-2.02973931,4.32464312
2.95605481,3.12191815,0.35583545,-2.15197807

>  <Name>
1tob

>  <RI>
0

>  <Rbt.Current_Directory>
/home/itssahil/PROJECTS/Mol_Feturizer/New_Systems/rnas/1tob

>  <Rbt.Executable>
rbdock ($Id: //depot/dev/client3/rdock/2013.1/src/exe/rbdock.cxx#4 $)

>  <Rbt.Library>
libRbt.so (2013.1, Build901 2013/11/27)

>  <Rbt.Parameter_File>
/export/apps/rDock/src/rDock_2013.1_src/data/scripts/dock_solv.prm

>  <Rbt.Receptor>
prm/blind_docking_80.prm

>  <SCORE>
-23.6571

>  <SCORE.INTER>
-37.0044

>  <SCORE.INTER.CONST>
1

>  <SCORE.INTER.POLAR>
-6.12787

>  <SCORE.INTER.ROT>
6

>  <SCORE.INTER.SOLV>
34.1049

>  <SCORE.INTER.VDW>
-23.2116

>  <SCORE.INTER.norm>
-1.15639

>  <SCORE.INTRA>
9.45925

>  <SCORE.INTRA.DIHEDRAL>
6.39424

>  <SCORE.INTRA.DIHEDRAL.0>
22.9177

>  <SCORE.INTRA.POLAR>
-0.834935

>  <SCORE.INTRA.POLAR.0>
-0.311208

>  <SCORE.INTRA.REPUL>
0

>  <SCORE.INTRA.REPUL.0>
0

>  <SCORE.INTRA.SOLV>
-1.42316

>  <SCORE.INTRA.SOLV.lig_0>
-132.657

>  <SCORE.INTRA.VDW>
9.81248

>  <SCORE.INTRA.VDW.0>
-4.68867

>  <SCORE.INTRA.norm>
0.295601

>  <SCORE.RESTR>
3.88808

>  <SCORE.RESTR.CAVITY>
3.88808

>  <SCORE.RESTR.norm>
0.121502

>  <SCORE.SYSTEM>
0

>  <SCORE.SYSTEM.CONST>
0

>  <SCORE.SYSTEM.DIHEDRAL>
0

>  <SCORE.SYSTEM.SOLV>
0

>  <SCORE.SYSTEM.norm>
0

>  <SCORE.heavy>
32

>  <SCORE.norm>
-0.739283

>  <RMSD>
9.065

$$$$
1tob
 OpenBabel11021811413D
libRbt.so/2013.1/901 2013/11/27
 32 34  0  0  0  0  0  0  0  0999 V2000
   -5.1420    5.1133    2.6301 C   0  0  2  0  0  0  0  0  0  0  0  0
   -5.9780    4.5268    1.4951 C   0  0  1  0  0  0  0  0  0  0  0  0
   -6.4887    5.6490    0.6018 C   0  0  2  0  0  0  0  0  0  0  0  0
   -7.2571    6.6582    1.4466 C   0  0  1  0  0  0  0  0  0  0  0  0
   -6.3714    7.1657    2.5812 C   0  0  1  0  0  0  0  0  0  0  0  0
   -7.1057    8.1175    3.5050 C   0  0  0  0  0  0  0  0  0  0  0  0
   -5.1859    3.6291    0.7307 O   0  0  0  0  0  0  0  0  0  0  0  0
   -7.3106    5.1168   -0.5067 N   0  3  0  0  0  0  0  0  0  0  0  0
   -7.6788    7.7444    0.6328 O   0  0  0  0  0  0  0  0  0  0  0  0
   -5.9129    6.0569    3.3846 O   0  0  0  0  0  0  0  0  0  0  0  0
   -6.4044    8.2989    4.7270 O   0  0  0  0  0  0  0  0  0  0  0  0
   -3.2075    6.1775    4.3561 C   0  0  2  0  0  0  0  0  0  0  0  0
   -1.9629    6.1131    5.2308 C   0  0  0  0  0  0  0  0  0  0  0  0
   -1.4155    4.6863    5.2771 C   0  0  1  0  0  0  0  0  0  0  0  0
   -1.0628    4.2245    3.8649 C   0  0  2  0  0  0  0  0  0  0  0  0
   -2.3007    4.2902    2.9690 C   0  0  1  0  0  0  0  0  0  0  0  0
   -2.8608    5.7121    2.9502 C   0  0  1  0  0  0  0  0  0  0  0  0
   -3.7227    7.5622    4.2809 N   0  3  0  0  0  0  0  0  0  0  0  0
   -0.2529    4.6208    6.2003 N   0  3  0  0  0  0  0  0  0  0  0  0
   -1.9621    3.8864    1.6490 O   0  0  0  0  0  0  0  0  0  0  0  0
   -4.0344    5.7637    2.1191 O   0  0  0  0  0  0  0  0  0  0  0  0
   -0.3139    2.2875    2.6604 C   0  0  1  0  0  0  0  0  0  0  0  0
   -0.0043    0.7996    2.8343 C   0  0  1  0  0  0  0  0  0  0  0  0
    1.2731    0.6174    3.6402 C   0  0  0  0  0  0  0  0  0  0  0  0
    2.4018    1.3835    2.9697 C   0  0  1  0  0  0  0  0  0  0  0  0
    2.0074    2.8517    2.8131 C   0  0  1  0  0  0  0  0  0  0  0  0
    3.0667    3.6687    2.0959 C   0  0  0  0  0  0  0  0  0  0  0  0
   -1.1508    0.0831    3.4413 N   0  3  0  0  0  0  0  0  0  0  0  0
    4.1738    4.0430    3.0080 N   0  3  0  0  0  0  0  0  0  0  0  0
   -0.5491    2.8771    3.8953 O   0  0  0  0  0  0  0  0  0  0  0  0
    3.5865    1.2803    3.7461 O   0  0  0  0  0  0  0  0  0  0  0  0
    0.7905    2.9603    2.0432 O   0  0  0  0  0  0  0  0  0  0  0  0
  1  2  1  0  0  0  0
  1 10  1  0  0  0  0
  1 21  1  6  0  0  0
  2  3  1  0  0  0  0
  2  7  1  6  0  0  0
  3  4  1  0  0  0  0
  3  8  1  6  0  0  0
  4  5  1  0  0  0  0
  4  9  1  6  0  0  0
  5  6  1  1  0  0  0
  5 10  1  0  0  0  0
  6 11  1  0  0  0  0
 12 13  1  0  0  0  0
 12 17  1  0  0  0  0
 12 18  1  6  0  0  0
 13 14  1  0  0  0  0
 14 15  1  0  0  0  0
 14 19  1  1  0  0  0
 15 16  1  0  0  0  0
 15 30  1  1  0  0  0
 16 17  1  0  0  0  0
 16 20  1  6  0  0  0
 17 21  1  6  0  0  0
 22 23  1  0  0  0  0
 22 30  1  1  0  0  0
 22 32  1  0  0  0  0
 23 24  1  0  0  0  0
 23 28  1  1  0  0  0
 24 25  1  0  0  0  0
 25 26  1  0  0  0  0
 25 31  1  1  0  0  0
 26 27  1  6  0  0  0
 26 32  1  0  0  0  0
 27 29  1  0  0  0  0
M  CHG  5   8   1  18   1  19   1  28   1  29   1
M  END
>  <CHROM.1>
-147.37088179,-79.54735604,-133.58371834,-50.58897653,164.47208334,-165.96349974
-16.32500629,11.93961554,173.83330246,170.53226116,-52.19434256,-170.39001590
165.31533697,161.65921585,-79.64109929,-86.51368358,-2.44725789,4.51260443
2.90715021,2.88161932,-0.43386613,0.73888969

>  <Name>
1tob

>  <RI>
0

>  <Rbt.Current_Directory>
/home/itssahil/PROJECTS/Mol_Feturizer/New_Systems/rnas/1tob

>  <Rbt.Executable>
rbdock ($Id: //depot/dev/client3/rdock/2013.1/src/exe/rbdock.cxx#4 $)

>  <Rbt.Library>
libRbt.so (2013.1, Build901 2013/11/27)

>  <Rbt.Parameter_File>
/export/apps/rDock/src/rDock_2013.1_src/data/scripts/dock_solv.prm

>  <Rbt.Receptor>
prm/blind_docking_100.prm

>  <SCORE>
-21.9944

>  <SCORE.INTER>
-33.9803

>  <SCORE.INTER.CONST>
1

>  <SCORE.INTER.POLAR>
-4.48078

>  <SCORE.INTER.ROT>
6

>  <SCORE.INTER.SOLV>
29.5505

>  <SCORE.INTER.VDW>
-25.1677

>  <SCORE.INTER.norm>
-1.06188

>  <SCORE.INTRA>
2.52792

>  <SCORE.INTRA.DIHEDRAL>
0.814713

>  <SCORE.INTRA.DIHEDRAL.0>
22.9177

>  <SCORE.INTRA.POLAR>
-1.29001

>  <SCORE.INTRA.POLAR.0>
-0.311208

>  <SCORE.INTRA.REPUL>
0

>  <SCORE.INTRA.REPUL.0>
0

>  <SCORE.INTRA.SOLV>
-0.273589

>  <SCORE.INTRA.SOLV.lig_0>
-132.657

>  <SCORE.INTRA.VDW>
6.64341

>  <SCORE.INTRA.VDW.0>
-4.68867

>  <SCORE.INTRA.norm>
0.0789976

>  <SCORE.RESTR>
9.45796

>  <SCORE.RESTR.CAVITY>
9.45796

>  <SCORE.RESTR.norm>
0.295561

>  <SCORE.SYSTEM>
0

>  <SCORE.SYSTEM.CONST>
0

>  <SCORE.SYSTEM.DIHEDRAL>
0

>  <SCORE.SYSTEM.SOLV>
0

>  <SCORE.SYSTEM.norm>
0

>  <SCORE.heavy>
32

>  <SCORE.norm>
-0.687325

>  <RMSD>
9.077

$$$$
1tob
 OpenBabel11021811413D
libRbt.so/2013.1/901 2013/11/27
 32 34  0  0  0  0  0  0  0  0999 V2000
   -5.1264    7.4744    2.4727 C   0  0  2  0  0  0  0  0  0  0  0  0
   -5.1024    8.9700    2.7790 C   0  0  1  0  0  0  0  0  0  0  0  0
   -6.3095    9.3383    3.6308 C   0  0  2  0  0  0  0  0  0  0  0  0
   -7.5835    8.8969    2.9204 C   0  0  1  0  0  0  0  0  0  0  0  0
   -7.5142    7.4038    2.6117 C   0  0  1  0  0  0  0  0  0  0  0  0
   -8.7223    6.9184    1.8349 C   0  0  0  0  0  0  0  0  0  0  0  0
   -3.9078    9.2978    3.4741 O   0  0  0  0  0  0  0  0  0  0  0  0
   -6.3225   10.7843    3.9410 N   0  3  0  0  0  0  0  0  0  0  0  0
   -8.7114    9.1747    3.7393 O   0  0  0  0  0  0  0  0  0  0  0  0
   -6.3468    7.1177    1.8114 O   0  0  0  0  0  0  0  0  0  0  0  0
   -8.5521    5.5786    1.3946 O   0  0  0  0  0  0  0  0  0  0  0  0
   -3.6145    6.6534    5.6015 C   0  0  2  0  0  0  0  0  0  0  0  0
   -2.1952    6.3614    6.0688 C   0  0  0  0  0  0  0  0  0  0  0  0
   -1.7899    4.9369    5.6892 C   0  0  1  0  0  0  0  0  0  0  0  0
   -1.8659    4.7670    4.1735 C   0  0  2  0  0  0  0  0  0  0  0  0
   -3.2843    5.0644    3.6847 C   0  0  1  0  0  0  0  0  0  0  0  0
   -3.6949    6.4789    4.0928 C   0  0  1  0  0  0  0  0  0  0  0  0
   -4.0003    8.0416    5.9370 N   0  3  0  0  0  0  0  0  0  0  0  0
   -0.4367    4.6368    6.2247 N   0  3  0  0  0  0  0  0  0  0  0  0
   -3.3442    4.9325    2.2708 O   0  0  0  0  0  0  0  0  0  0  0  0
   -5.0359    6.7466    3.6444 O   0  0  0  0  0  0  0  0  0  0  0  0
   -1.0744    3.2493    2.4901 C   0  0  1  0  0  0  0  0  0  0  0  0
   -1.8732    2.1256    1.8276 C   0  0  1  0  0  0  0  0  0  0  0  0
   -1.6106    0.8042    2.5343 C   0  0  0  0  0  0  0  0  0  0  0  0
   -0.1146    0.5359    2.5547 C   0  0  1  0  0  0  0  0  0  0  0  0
    0.6115    1.7100    3.2102 C   0  0  1  0  0  0  0  0  0  0  0  0
    2.1195    1.5372    3.2130 C   0  0  0  0  0  0  0  0  0  0  0  0
   -3.3179    2.4531    1.7813 N   0  3  0  0  0  0  0  0  0  0  0  0
    2.8115    2.8103    3.5261 N   0  3  0  0  0  0  0  0  0  0  0  0
   -1.4899    3.4246    3.8034 O   0  0  0  0  0  0  0  0  0  0  0  0
    0.1539   -0.6607    3.2711 O   0  0  0  0  0  0  0  0  0  0  0  0
    0.3231    2.9330    2.4984 O   0  0  0  0  0  0  0  0  0  0  0  0
  1  2  1  0  0  0  0
  1 10  1  0  0  0  0
  1 21  1  1  0  0  0
  2  3  1  0  0  0  0
  2  7  1  1  0  0  0
  3  4  1  0  0  0  0
  3  8  1  6  0  0  0
  4  5  1  0  0  0  0
  4  9  1  1  0  0  0
  5  6  1  6  0  0  0
  5 10  1  0  0  0  0
  6 11  1  0  0  0  0
 12 13  1  0  0  0  0
 12 17  1  0  0  0  0
 12 18  1  6  0  0  0
 13 14  1  0  0  0  0
 14 15  1  0  0  0  0
 14 19  1  6  0  0  0
 15 16  1  0  0  0  0
 15 30  1  1  0  0  0
 16 17  1  0  0  0  0
 16 20  1  6  0  0  0
 17 21  1  1  0  0  0
 22 23  1  0  0  0  0
 22 30  1  1  0  0  0
 22 32  1  0  0  0  0
 23 24  1  0  0  0  0
 23 28  1  1  0  0  0
 24 25  1  0  0  0  0
 25 26  1  0  0  0  0
 25 31  1  1  0  0  0
 26 27  1  6  0  0  0
 26 32  1  0  0  0  0
 27 29  1  0  0  0  0
M  CHG  5   8   1  18   1  19   1  28   1  29   1
M  END
>  <CHROM.1>
-87.25792592,-175.44458086,56.15122059,179.69379601,171.68278845,-167.84952575
-155.24379985,-124.85733512,-158.81892780,-56.45270950,138.74700790,-126.95860818
36.04515007,44.78835632,165.43150387,-40.88879737,-3.35169481,5.34812642
3.39766241,2.51771921,-0.45013225,0.53232373

>  <Name>
1tob

>  <RI>
0

>  <Rbt.Current_Directory>
/home/itssahil/PROJECTS/Mol_Feturizer/New_Systems/rnas/1tob

>  <Rbt.Executable>
rbdock ($Id: //depot/dev/client3/rdock/2013.1/src/exe/rbdock.cxx#4 $)

>  <Rbt.Library>
libRbt.so (2013.1, Build901 2013/11/27)

>  <Rbt.Parameter_File>
/export/apps/rDock/src/rDock_2013.1_src/data/scripts/dock_solv.prm

>  <Rbt.Receptor>
prm/blind_docking_60.prm

>  <SCORE>
-39.256

>  <SCORE.INTER>
-41.9589

>  <SCORE.INTER.CONST>
1

>  <SCORE.INTER.POLAR>
-6.9479

>  <SCORE.INTER.ROT>
6

>  <SCORE.INTER.SOLV>
30.6722

>  <SCORE.INTER.VDW>
-22.637

>  <SCORE.INTER.norm>
-1.31122

>  <SCORE.INTRA>
-0.933295

>  <SCORE.INTRA.DIHEDRAL>
4.8312

>  <SCORE.INTRA.DIHEDRAL.0>
22.9177

>  <SCORE.INTRA.POLAR>
-1.93655

>  <SCORE.INTRA.POLAR.0>
-0.311208

>  <SCORE.INTRA.REPUL>
0

>  <SCORE.INTRA.REPUL.0>
0

>  <SCORE.INTRA.SOLV>
1.70984

>  <SCORE.INTRA.SOLV.lig_0>
-132.657

>  <SCORE.INTRA.VDW>
2.38045

>  <SCORE.INTRA.VDW.0>
-4.68867

>  <SCORE.INTRA.norm>
-0.0291655

>  <SCORE.RESTR>
3.63619

>  <SCORE.RESTR.CAVITY>
3.63619

>  <SCORE.RESTR.norm>
0.113631

>  <SCORE.SYSTEM>
0

>  <SCORE.SYSTEM.CONST>
0

>  <SCORE.SYSTEM.DIHEDRAL>
0

>  <SCORE.SYSTEM.SOLV>
0

>  <SCORE.SYSTEM.norm>
0

>  <SCORE.heavy>
32

>  <SCORE.norm>
-1.22675

>  <RMSD>
9.094

$$$$
1tob
 OpenBabel11021811413D
libRbt.so/2013.1/901 2013/11/27
 32 34  0  0  0  0  0  0  0  0999 V2000
   -5.1817    4.5849    1.8995 C   0  0  2  0  0  0  0  0  0  0  0  0
   -5.5530    3.7781    0.6576 C   0  0  1  0  0  0  0  0  0  0  0  0
   -6.1924    4.6943   -0.3768 C   0  0  2  0  0  0  0  0  0  0  0  0
   -7.3856    5.4075    0.2478 C   0  0  1  0  0  0  0  0  0  0  0  0
   -6.9439    6.1547    1.5032 C   0  0  1  0  0  0  0  0  0  0  0  0
   -8.1035    6.8233    2.2149 C   0  0  0  0  0  0  0  0  0  0  0  0
   -4.3880    3.1774    0.1103 O   0  0  0  0  0  0  0  0  0  0  0  0
   -6.5723    3.9431   -1.5929 N   0  3  0  0  0  0  0  0  0  0  0  0
   -7.9471    6.3164   -0.6895 O   0  0  0  0  0  0  0  0  0  0  0  0
   -6.3391    5.2359    2.4387 O   0  0  0  0  0  0  0  0  0  0  0  0
   -9.0759    5.8737    2.6281 O   0  0  0  0  0  0  0  0  0  0  0  0
   -3.3819    6.1924    3.7457 C   0  0  2  0  0  0  0  0  0  0  0  0
   -2.1307    6.1858    4.6132 C   0  0  0  0  0  0  0  0  0  0  0  0
   -1.6322    4.7555    4.8213 C   0  0  1  0  0  0  0  0  0  0  0  0
   -1.3113    4.1208    3.4700 C   0  0  2  0  0  0  0  0  0  0  0  0
   -2.5560    4.1260    2.5812 C   0  0  1  0  0  0  0  0  0  0  0  0
   -3.0670    5.5550    2.4011 C   0  0  1  0  0  0  0  0  0  0  0  0
   -3.8500    7.5764    3.5136 N   0  3  0  0  0  0  0  0  0  0  0  0
   -0.4624    4.7563    5.7376 N   0  3  0  0  0  0  0  0  0  0  0  0
   -2.2462    3.5600    1.3148 O   0  0  0  0  0  0  0  0  0  0  0  0
   -4.2473    5.5515    1.5779 O   0  0  0  0  0  0  0  0  0  0  0  0
   -0.5214    2.0740    2.4950 C   0  0  1  0  0  0  0  0  0  0  0  0
   -0.5670    0.5666    2.7515 C   0  0  1  0  0  0  0  0  0  0  0  0
    0.4791    0.1756    3.7845 C   0  0  0  0  0  0  0  0  0  0  0  0
    1.8445    0.6573    3.3218 C   0  0  1  0  0  0  0  0  0  0  0  0
    1.8013    2.1635    3.0669 C   0  0  1  0  0  0  0  0  0  0  0  0
    3.1190    2.7064    2.5443 C   0  0  0  0  0  0  0  0  0  0  0  0
   -1.9278    0.1334    3.1477 N   0  3  0  0  0  0  0  0  0  0  0  0
    3.1447    4.1884    2.5711 N   0  3  0  0  0  0  0  0  0  0  0  0
   -0.8440    2.7686    3.6533 O   0  0  0  0  0  0  0  0  0  0  0  0
    2.8232    0.3605    4.3071 O   0  0  0  0  0  0  0  0  0  0  0  0
    0.7915    2.4725    2.0819 O   0  0  0  0  0  0  0  0  0  0  0  0
  1  2  1  0  0  0  0
  1 10  1  0  0  0  0
  1 21  1  6  0  0  0
  2  3  1  0  0  0  0
  2  7  1  6  0  0  0
  3  4  1  0  0  0  0
  3  8  1  6  0  0  0
  4  5  1  0  0  0  0
  4  9  1  6  0  0  0
  5  6  1  1  0  0  0
  5 10  1  0  0  0  0
  6 11  1  0  0  0  0
 12 13  1  0  0  0  0
 12 17  1  0  0  0  0
 12 18  1  6  0  0  0
 13 14  1  0  0  0  0
 14 15  1  0  0  0  0
 14 19  1  1  0  0  0
 15 16  1  0  0  0  0
 15 30  1  1  0  0  0
 16 17  1  0  0  0  0
 16 20  1  6  0  0  0
 17 21  1  6  0  0  0
 22 23  1  0  0  0  0
 22 30  1  1  0  0  0
 22 32  1  0  0  0  0
 23 24  1  0  0  0  0
 23 28  1  1  0  0  0
 24 25  1  0  0  0  0
 25 26  1  0  0  0  0
 25 31  1  1  0  0  0
 26 27  1  6  0  0  0
 26 32  1  0  0  0  0
 27 29  1  0  0  0  0
M  CHG  5   8   1  18   1  19   1  28   1  29   1
M  END
>  <CHROM.1>
-127.70698094,-73.20563351,-177.73358999,71.04873022,60.39790763,-166.69477683
-46.84374667,149.30341843,179.74133756,-53.39966031,-76.77421881,-158.34122308
-165.19948337,-179.47964371,-168.24443415,-170.29815746,-2.77464301,3.96747753
2.37252450,2.98765451,-0.45915633,0.65665790

>  <Name>
1tob

>  <RI>
0

>  <Rbt.Current_Directory>
/home/itssahil/PROJECTS/Mol_Feturizer/New_Systems/rnas/1tob

>  <Rbt.Executable>
rbdock ($Id: //depot/dev/client3/rdock/2013.1/src/exe/rbdock.cxx#4 $)

>  <Rbt.Library>
libRbt.so (2013.1, Build901 2013/11/27)

>  <Rbt.Parameter_File>
/export/apps/rDock/src/rDock_2013.1_src/data/scripts/dock_solv.prm

>  <Rbt.Receptor>
prm/blind_docking_20.prm

>  <SCORE>
-7.83272

>  <SCORE.INTER>
-13.5984

>  <SCORE.INTER.CONST>
1

>  <SCORE.INTER.POLAR>
-3.96084

>  <SCORE.INTER.ROT>
6

>  <SCORE.INTER.SOLV>
41.6364

>  <SCORE.INTER.VDW>
-17.3416

>  <SCORE.INTER.norm>
-0.424951

>  <SCORE.INTRA>
-0.490712

>  <SCORE.INTRA.DIHEDRAL>
-6.51746

>  <SCORE.INTRA.DIHEDRAL.0>
22.9177

>  <SCORE.INTRA.POLAR>
0.301484

>  <SCORE.INTRA.POLAR.0>
-0.311208

>  <SCORE.INTRA.REPUL>
0

>  <SCORE.INTRA.REPUL.0>
0

>  <SCORE.INTRA.SOLV>
-5.22434

>  <SCORE.INTRA.SOLV.lig_0>
-132.657

>  <SCORE.INTRA.VDW>
4.35514

>  <SCORE.INTRA.VDW.0>
-4.68867

>  <SCORE.INTRA.norm>
-0.0153347

>  <SCORE.RESTR>
6.25643

>  <SCORE.RESTR.CAVITY>
6.25643

>  <SCORE.RESTR.norm>
0.195514

>  <SCORE.SYSTEM>
0

>  <SCORE.SYSTEM.CONST>
0

>  <SCORE.SYSTEM.DIHEDRAL>
0

>  <SCORE.SYSTEM.SOLV>
0

>  <SCORE.SYSTEM.norm>
0

>  <SCORE.heavy>
32

>  <SCORE.norm>
-0.244773

>  <RMSD>
9.095

$$$$
1tob
 OpenBabel11021811413D
libRbt.so/2013.1/901 2013/11/27
 32 34  0  0  0  0  0  0  0  0999 V2000
   -5.1143    4.6523    2.4935 C   0  0  2  0  0  0  0  0  0  0  0  0
   -5.2132    3.6519    1.3443 C   0  0  1  0  0  0  0  0  0  0  0  0
   -5.7637    4.3463    0.1061 C   0  0  2  0  0  0  0  0  0  0  0  0
   -7.0990    4.9987    0.4435 C   0  0  1  0  0  0  0  0  0  0  0  0
   -6.9274    5.9499    1.6247 C   0  0  1  0  0  0  0  0  0  0  0  0
   -8.2393    6.5737    2.0587 C   0  0  0  0  0  0  0  0  0  0  0  0
   -3.9279    3.1175    1.0620 O   0  0  0  0  0  0  0  0  0  0  0  0
   -5.8803    3.4032   -1.0272 N   0  3  0  0  0  0  0  0  0  0  0  0
   -7.5873    5.7074   -0.6876 O   0  0  0  0  0  0  0  0  0  0  0  0
   -6.3954    5.2361    2.7616 O   0  0  0  0  0  0  0  0  0  0  0  0
   -9.0399    6.9295    0.9404 O   0  0  0  0  0  0  0  0  0  0  0  0
   -3.5041    6.0238    4.4488 C   0  0  2  0  0  0  0  0  0  0  0  0
   -2.2722    6.1130    5.3391 C   0  0  0  0  0  0  0  0  0  0  0  0
   -1.4690    4.8138    5.2717 C   0  0  1  0  0  0  0  0  0  0  0  0
   -1.0318    4.5533    3.8319 C   0  0  2  0  0  0  0  0  0  0  0  0
   -2.2573    4.4686    2.9207 C   0  0  1  0  0  0  0  0  0  0  0  0
   -3.0722    5.7581    3.0149 C   0  0  1  0  0  0  0  0  0  0  0  0
   -4.2678    7.2903    4.4844 N   0  3  0  0  0  0  0  0  0  0  0  0
   -0.3176    4.8824    6.2085 N   0  3  0  0  0  0  0  0  0  0  0  0
   -1.8452    4.2540    1.5776 O   0  0  0  0  0  0  0  0  0  0  0  0
   -4.2322    5.6657    2.1683 O   0  0  0  0  0  0  0  0  0  0  0  0
    0.1662    2.9633    2.4901 C   0  0  1  0  0  0  0  0  0  0  0  0
    0.3499    1.4469    2.4090 C   0  0  1  0  0  0  0  0  0  0  0  0
    1.4285    0.9935    3.3812 C   0  0  0  0  0  0  0  0  0  0  0  0
    2.7099    1.7618    3.1015 C   0  0  1  0  0  0  0  0  0  0  0  0
    2.4387    3.2637    3.1796 C   0  0  1  0  0  0  0  0  0  0  0  0
    3.6645    4.0972    2.8525 C   0  0  0  0  0  0  0  0  0  0  0  0
   -0.9335    0.7409    2.6347 N   0  3  0  0  0  0  0  0  0  0  0  0
    4.1662    3.8127    1.4869 N   0  3  0  0  0  0  0  0  0  0  0  0
   -0.2765    3.3269    3.7549 O   0  0  0  0  0  0  0  0  0  0  0  0
    3.7082    1.4000    4.0445 O   0  0  0  0  0  0  0  0  0  0  0  0
    1.4079    3.6326    2.2380 O   0  0  0  0  0  0  0  0  0  0  0  0
  1  2  1  0  0  0  0
  1 10  1  0  0  0  0
  1 21  1  6  0  0  0
  2  3  1  0  0  0  0
  2  7  1  6  0  0  0
  3  4  1  0  0  0  0
  3  8  1  6  0  0  0
  4  5  1  0  0  0  0
  4  9  1  6  0  0  0
  5  6  1  1  0  0  0
  5 10  1  0  0  0  0
  6 11  1  0  0  0  0
 12 13  1  0  0  0  0
 12 17  1  0  0  0  0
 12 18  1  6  0  0  0
 13 14  1  0  0  0  0
 14 15  1  0  0  0  0
 14 19  1  1  0  0  0
 15 16  1  0  0  0  0
 15 30  1  1  0  0  0
 16 17  1  0  0  0  0
 16 20  1  6  0  0  0
 17 21  1  6  0  0  0
 22 23  1  0  0  0  0
 22 30  1  1  0  0  0
 22 32  1  0  0  0  0
 23 24  1  0  0  0  0
 23 28  1  1  0  0  0
 24 25  1  0  0  0  0
 25 26  1  0  0  0  0
 25 31  1  1  0  0  0
 26 27  1  6  0  0  0
 26 32  1  0  0  0  0
 27 29  1  0  0  0  0
M  CHG  5   8   1  18   1  19   1  28   1  29   1
M  END
>  <CHROM.1>
-117.39190219,-69.62226985,-123.06825352,-55.77388666,-40.39743160,83.06911231
-177.31549253,-109.77749725,179.11994933,88.16019968,-60.70017904,-153.83543275
71.33383983,-55.08893538,59.40973155,-39.55559783,-2.40125779,4.24275042
2.52861879,-3.13021120,0.36992641,-2.21854155

>  <Name>
1tob

>  <RI>
0

>  <Rbt.Current_Directory>
/home/itssahil/PROJECTS/Mol_Feturizer/New_Systems/rnas/1tob

>  <Rbt.Executable>
rbdock ($Id: //depot/dev/client3/rdock/2013.1/src/exe/rbdock.cxx#4 $)

>  <Rbt.Library>
libRbt.so (2013.1, Build901 2013/11/27)

>  <Rbt.Parameter_File>
/export/apps/rDock/src/rDock_2013.1_src/data/scripts/dock_solv.prm

>  <Rbt.Receptor>
prm/blind_docking_80.prm

>  <SCORE>
-20.6027

>  <SCORE.INTER>
-33.7452

>  <SCORE.INTER.CONST>
1

>  <SCORE.INTER.POLAR>
-4.08324

>  <SCORE.INTER.ROT>
6

>  <SCORE.INTER.SOLV>
38.9776

>  <SCORE.INTER.VDW>
-29.4785

>  <SCORE.INTER.norm>
-1.05454

>  <SCORE.INTRA>
9.22742

>  <SCORE.INTRA.DIHEDRAL>
2.84936

>  <SCORE.INTRA.DIHEDRAL.0>
22.9177

>  <SCORE.INTRA.POLAR>
0.195481

>  <SCORE.INTRA.POLAR.0>
-0.311208

>  <SCORE.INTRA.REPUL>
0

>  <SCORE.INTRA.REPUL.0>
0

>  <SCORE.INTRA.SOLV>
-2.14205

>  <SCORE.INTRA.SOLV.lig_0>
-132.657

>  <SCORE.INTRA.VDW>
8.20913

>  <SCORE.INTRA.VDW.0>
-4.68867

>  <SCORE.INTRA.norm>
0.288357

>  <SCORE.RESTR>
3.91505

>  <SCORE.RESTR.CAVITY>
3.91505

>  <SCORE.RESTR.norm>
0.122345

>  <SCORE.SYSTEM>
0

>  <SCORE.SYSTEM.CONST>
0

>  <SCORE.SYSTEM.DIHEDRAL>
0

>  <SCORE.SYSTEM.SOLV>
0

>  <SCORE.SYSTEM.norm>
0

>  <SCORE.heavy>
32

>  <SCORE.norm>
-0.643836

>  <RMSD>
9.097

$$$$
1tob
 OpenBabel11021811413D
libRbt.so/2013.1/901 2013/11/27
 32 34  0  0  0  0  0  0  0  0999 V2000
   -5.2384    6.2735    1.8493 C   0  0  2  0  0  0  0  0  0  0  0  0
   -6.6300    6.8919    1.9604 C   0  0  1  0  0  0  0  0  0  0  0  0
   -7.6829    5.7923    1.9381 C   0  0  2  0  0  0  0  0  0  0  0  0
   -7.5059    4.9477    0.6820 C   0  0  1  0  0  0  0  0  0  0  0  0
   -6.0823    4.4009    0.6213 C   0  0  1  0  0  0  0  0  0  0  0  0
   -5.8200    3.6136   -0.6475 C   0  0  0  0  0  0  0  0  0  0  0  0
   -6.7321    7.6281    3.1708 O   0  0  0  0  0  0  0  0  0  0  0  0
   -9.0464    6.3568    2.0367 N   0  3  0  0  0  0  0  0  0  0  0  0
   -8.4406    3.8771    0.6867 O   0  0  0  0  0  0  0  0  0  0  0  0
   -5.1328    5.4884    0.6549 O   0  0  0  0  0  0  0  0  0  0  0  0
   -6.5099    4.1720   -1.7567 O   0  0  0  0  0  0  0  0  0  0  0  0
   -3.6449    6.0267    4.8605 C   0  0  2  0  0  0  0  0  0  0  0  0
   -2.2166    6.0592    5.3868 C   0  0  0  0  0  0  0  0  0  0  0  0
   -1.6043    4.6585    5.3577 C   0  0  1  0  0  0  0  0  0  0  0  0
   -1.6012    4.1280    3.9258 C   0  0  2  0  0  0  0  0  0  0  0  0
   -3.0285    4.0959    3.3771 C   0  0  1  0  0  0  0  0  0  0  0  0
   -3.6458    5.4928    3.4363 C   0  0  1  0  0  0  0  0  0  0  0  0
   -4.2314    7.3848    4.8554 N   0  3  0  0  0  0  0  0  0  0  0  0
   -0.2428    4.6897    5.9521 N   0  3  0  0  0  0  0  0  0  0  0  0
   -3.0184    3.6281    2.0351 O   0  0  0  0  0  0  0  0  0  0  0  0
   -4.9938    5.4527    2.9343 O   0  0  0  0  0  0  0  0  0  0  0  0
   -0.7903    2.2824    2.6220 C   0  0  1  0  0  0  0  0  0  0  0  0
   -0.4351    0.7978    2.7207 C   0  0  1  0  0  0  0  0  0  0  0  0
    0.8556    0.6153    3.5050 C   0  0  0  0  0  0  0  0  0  0  0  0
    1.9541    1.4463    2.8622 C   0  0  1  0  0  0  0  0  0  0  0  0
    1.5149    2.9078    2.7807 C   0  0  1  0  0  0  0  0  0  0  0  0
    2.5420    3.7898    2.0942 C   0  0  0  0  0  0  0  0  0  0  0  0
   -1.5535    0.0188    3.3027 N   0  3  0  0  0  0  0  0  0  0  0  0
    3.7086    4.0487    2.9716 N   0  3  0  0  0  0  0  0  0  0  0  0
   -1.0296    2.8044    3.8863 O   0  0  0  0  0  0  0  0  0  0  0  0
    3.1494    1.3412    3.6218 O   0  0  0  0  0  0  0  0  0  0  0  0
    0.2872    3.0170    2.0282 O   0  0  0  0  0  0  0  0  0  0  0  0
  1  2  1  0  0  0  0
  1 10  1  0  0  0  0
  1 21  1  1  0  0  0
  2  3  1  0  0  0  0
  2  7  1  1  0  0  0
  3  4  1  0  0  0  0
  3  8  1  6  0  0  0
  4  5  1  0  0  0  0
  4  9  1  1  0  0  0
  5  6  1  6  0  0  0
  5 10  1  0  0  0  0
  6 11  1  0  0  0  0
 12 13  1  0  0  0  0
 12 17  1  0  0  0  0
 12 18  1  6  0  0  0
 13 14  1  0  0  0  0
 14 15  1  0  0  0  0
 14 19  1  6  0  0  0
 15 16  1  0  0  0  0
 15 30  1  1  0  0  0
 16 17  1  0  0  0  0
 16 20  1  6  0  0  0
 17 21  1  1  0  0  0
 22 23  1  0  0  0  0
 22 30  1  1  0  0  0
 22 32  1  0  0  0  0
 23 24  1  0  0  0  0
 23 28  1  1  0  0  0
 24 25  1  0  0  0  0
 25 26  1  0  0  0  0
 25 31  1  1  0  0  0
 26 27  1  6  0  0  0
 26 32  1  0  0  0  0
 27 29  1  0  0  0  0
M  CHG  5   8   1  18   1  19   1  28   1  29   1
M  END
>  <CHROM.1>
-142.11051698,177.65118224,165.62567786,65.51721217,35.37821344,-178.72765521
178.22969489,21.95745126,-171.09260749,-59.79009886,116.75665986,-169.51761874
63.26705590,138.78445334,-74.33641087,-56.76997315,-2.91633075,4.20000661
2.66938525,-3.04273982,0.40625324,-2.35835780

>  <Name>
1tob

>  <RI>
0

>  <Rbt.Current_Directory>
/home/itssahil/PROJECTS/Mol_Feturizer/New_Systems/rnas/1tob

>  <Rbt.Executable>
rbdock ($Id: //depot/dev/client3/rdock/2013.1/src/exe/rbdock.cxx#4 $)

>  <Rbt.Library>
libRbt.so (2013.1, Build901 2013/11/27)

>  <Rbt.Parameter_File>
/export/apps/rDock/src/rDock_2013.1_src/data/scripts/dock_solv.prm

>  <Rbt.Receptor>
prm/blind_docking_20.prm

>  <SCORE>
-32.424

>  <SCORE.INTER>
-36.8791

>  <SCORE.INTER.CONST>
1

>  <SCORE.INTER.POLAR>
-4.81948

>  <SCORE.INTER.ROT>
6

>  <SCORE.INTER.SOLV>
37.5441

>  <SCORE.INTER.VDW>
-28.6358

>  <SCORE.INTER.norm>
-1.15247

>  <SCORE.INTRA>
-1.66995

>  <SCORE.INTRA.DIHEDRAL>
1.71734

>  <SCORE.INTRA.DIHEDRAL.0>
22.9177

>  <SCORE.INTRA.POLAR>
-0.912597

>  <SCORE.INTRA.POLAR.0>
-0.311208

>  <SCORE.INTRA.REPUL>
0

>  <SCORE.INTRA.REPUL.0>
0

>  <SCORE.INTRA.SOLV>
-1.74473

>  <SCORE.INTRA.SOLV.lig_0>
-132.657

>  <SCORE.INTRA.VDW>
1.44657

>  <SCORE.INTRA.VDW.0>
-4.68867

>  <SCORE.INTRA.norm>
-0.0521859

>  <SCORE.RESTR>
6.12508

>  <SCORE.RESTR.CAVITY>
6.12508

>  <SCORE.RESTR.norm>
0.191409

>  <SCORE.SYSTEM>
0

>  <SCORE.SYSTEM.CONST>
0

>  <SCORE.SYSTEM.DIHEDRAL>
0

>  <SCORE.SYSTEM.SOLV>
0

>  <SCORE.SYSTEM.norm>
0

>  <SCORE.heavy>
32

>  <SCORE.norm>
-1.01325

>  <RMSD>
9.099

$$$$
1tob
 OpenBabel11021811413D
libRbt.so/2013.1/901 2013/11/27
 32 34  0  0  0  0  0  0  0  0999 V2000
   -4.7413    5.7739    2.5968 C   0  0  2  0  0  0  0  0  0  0  0  0
   -5.2167    6.7813    1.5526 C   0  0  1  0  0  0  0  0  0  0  0  0
   -4.3320    8.0198    1.5950 C   0  0  2  0  0  0  0  0  0  0  0  0
   -4.3241    8.5877    3.0092 C   0  0  1  0  0  0  0  0  0  0  0  0
   -3.8798    7.5126    3.9971 C   0  0  1  0  0  0  0  0  0  0  0  0
   -3.9251    7.9947    5.4338 C   0  0  0  0  0  0  0  0  0  0  0  0
   -5.1586    6.1954    0.2600 O   0  0  0  0  0  0  0  0  0  0  0  0
   -4.7692    9.0223    0.5994 N   0  3  0  0  0  0  0  0  0  0  0  0
   -3.4465    9.7037    3.0742 O   0  0  0  0  0  0  0  0  0  0  0  0
   -4.7498    6.3640    3.9028 O   0  0  0  0  0  0  0  0  0  0  0  0
   -3.2731    7.0840    6.3076 O   0  0  0  0  0  0  0  0  0  0  0  0
   -2.9667    3.1194    1.5467 C   0  0  2  0  0  0  0  0  0  0  0  0
   -2.6132    1.7163    2.0204 C   0  0  0  0  0  0  0  0  0  0  0  0
   -1.3162    1.7364    2.8298 C   0  0  1  0  0  0  0  0  0  0  0  0
   -1.4804    2.6506    4.0419 C   0  0  2  0  0  0  0  0  0  0  0  0
   -1.8440    4.0642    3.5850 C   0  0  1  0  0  0  0  0  0  0  0  0
   -3.1247    4.0339    2.7517 C   0  0  1  0  0  0  0  0  0  0  0  0
   -4.2383    3.1112    0.7908 N   0  3  0  0  0  0  0  0  0  0  0  0
   -0.9383    0.3514    3.2131 N   0  3  0  0  0  0  0  0  0  0  0  0
   -2.0232    4.9051    4.7168 O   0  0  0  0  0  0  0  0  0  0  0  0
   -3.4523    5.3641    2.3112 O   0  0  0  0  0  0  0  0  0  0  0  0
   -0.1280    1.6960    5.7808 C   0  0  1  0  0  0  0  0  0  0  0  0
    0.5434    2.2694    7.0299 C   0  0  1  0  0  0  0  0  0  0  0  0
    1.9545    2.7348    6.7037 C   0  0  0  0  0  0  0  0  0  0  0  0
    2.7322    1.5828    6.0885 C   0  0  1  0  0  0  0  0  0  0  0  0
    1.9876    1.0534    4.8634 C   0  0  1  0  0  0  0  0  0  0  0  0
    2.6786   -0.1402    4.2296 C   0  0  0  0  0  0  0  0  0  0  0  0
   -0.2745    3.3519    7.6263 N   0  3  0  0  0  0  0  0  0  0  0  0
    3.7714    0.2837    3.3219 N   0  3  0  0  0  0  0  0  0  0  0  0
   -0.2607    2.6812    4.8113 O   0  0  0  0  0  0  0  0  0  0  0  0
    4.0311    2.0190    5.7150 O   0  0  0  0  0  0  0  0  0  0  0  0
    0.6578    0.6296    5.2343 O   0  0  0  0  0  0  0  0  0  0  0  0
  1  2  1  0  0  0  0
  1 10  1  0  0  0  0
  1 21  1  6  0  0  0
  2  3  1  0  0  0  0
  2  7  1  6  0  0  0
  3  4  1  0  0  0  0
  3  8  1  6  0  0  0
  4  5  1  0  0  0  0
  4  9  1  6  0  0  0
  5  6  1  1  0  0  0
  5 10  1  0  0  0  0
  6 11  1  0  0  0  0
 12 13  1  0  0  0  0
 12 17  1  0  0  0  0
 12 18  1  1  0  0  0
 13 14  1  0  0  0  0
 14 15  1  0  0  0  0
 14 19  1  1  0  0  0
 15 16  1  0  0  0  0
 15 30  1  6  0  0  0
 16 17  1  0  0  0  0
 16 20  1  1  0  0  0
 17 21  1  6  0  0  0
 22 23  1  0  0  0  0
 22 30  1  6  0  0  0
 22 32  1  0  0  0  0
 23 24  1  0  0  0  0
 23 28  1  6  0  0  0
 24 25  1  0  0  0  0
 25 26  1  0  0  0  0
 25 31  1  6  0  0  0
 26 27  1  1  0  0  0
 26 32  1  0  0  0  0
 27 29  1  0  0  0  0
M  CHG  5   8   1  18   1  19   1  28   1  29   1
M  END
>  <CHROM.1>
-151.05254620,170.99790131,-52.05283232,-173.05268688,-168.77408724,73.06405946
177.25103447,-60.60467926,-87.81699887,76.25939495,110.31696838,-141.83273605
-44.10982861,72.85107483,-82.73456463,163.48155911,-1.67916324,4.15886621
3.79220429,2.83724584,-0.77625619,0.72381118

>  <Name>
1tob

>  <RI>
0

>  <Rbt.Current_Directory>
/home/itssahil/PROJECTS/Mol_Feturizer/New_Systems/rnas/1tob

>  <Rbt.Executable>
rbdock ($Id: //depot/dev/client3/rdock/2013.1/src/exe/rbdock.cxx#4 $)

>  <Rbt.Library>
libRbt.so (2013.1, Build901 2013/11/27)

>  <Rbt.Parameter_File>
/export/apps/rDock/src/rDock_2013.1_src/data/scripts/dock_solv.prm

>  <Rbt.Receptor>
prm/pocket_docking_8.prm

>  <SCORE>
-45.6517

>  <SCORE.INTER>
-40.305

>  <SCORE.INTER.CONST>
1

>  <SCORE.INTER.POLAR>
-5.7806

>  <SCORE.INTER.ROT>
6

>  <SCORE.INTER.SOLV>
27.0267

>  <SCORE.INTER.VDW>
-24.2103

>  <SCORE.INTER.norm>
-1.25953

>  <SCORE.INTRA>
-5.3466

>  <SCORE.INTRA.DIHEDRAL>
2.42578

>  <SCORE.INTRA.DIHEDRAL.0>
22.9177

>  <SCORE.INTRA.POLAR>
-2.03473

>  <SCORE.INTRA.POLAR.0>
-0.311208

>  <SCORE.INTRA.REPUL>
0

>  <SCORE.INTRA.REPUL.0>
0

>  <SCORE.INTRA.SOLV>
0.664333

>  <SCORE.INTRA.SOLV.lig_0>
-132.657

>  <SCORE.INTRA.VDW>
0.0264041

>  <SCORE.INTRA.VDW.0>
-4.68867

>  <SCORE.INTRA.norm>
-0.167081

>  <SCORE.RESTR>
0

>  <SCORE.RESTR.CAVITY>
0

>  <SCORE.RESTR.norm>
0

>  <SCORE.SYSTEM>
0

>  <SCORE.SYSTEM.CONST>
0

>  <SCORE.SYSTEM.DIHEDRAL>
0

>  <SCORE.SYSTEM.SOLV>
0

>  <SCORE.SYSTEM.norm>
0

>  <SCORE.heavy>
32

>  <SCORE.norm>
-1.42661

>  <RMSD>
9.099

$$$$
1tob
 OpenBabel11021811413D
libRbt.so/2013.1/901 2013/11/27
 32 34  0  0  0  0  0  0  0  0999 V2000
   -4.9830    8.1523    1.5357 C   0  0  2  0  0  0  0  0  0  0  0  0
   -4.7578    9.5954    1.9803 C   0  0  1  0  0  0  0  0  0  0  0  0
   -5.9863   10.1003    2.7247 C   0  0  2  0  0  0  0  0  0  0  0  0
   -7.2167    9.9353    1.8408 C   0  0  1  0  0  0  0  0  0  0  0  0
   -7.3499    8.4789    1.4043 C   0  0  1  0  0  0  0  0  0  0  0  0
   -8.5146    8.2642    0.4578 C   0  0  0  0  0  0  0  0  0  0  0  0
   -3.6215    9.6635    2.8300 O   0  0  0  0  0  0  0  0  0  0  0  0
   -5.8058   11.5007    3.1646 N   0  3  0  0  0  0  0  0  0  0  0  0
   -8.3782   10.3400    2.5530 O   0  0  0  0  0  0  0  0  0  0  0  0
   -6.1535    8.0578    0.7141 O   0  0  0  0  0  0  0  0  0  0  0  0
   -8.5530    6.9281   -0.0233 O   0  0  0  0  0  0  0  0  0  0  0  0
   -4.2603    7.1386    4.8777 C   0  0  2  0  0  0  0  0  0  0  0  0
   -2.9909    6.8440    5.6652 C   0  0  0  0  0  0  0  0  0  0  0  0
   -2.4534    5.4567    5.3129 C   0  0  1  0  0  0  0  0  0  0  0  0
   -2.1462    5.3882    3.8186 C   0  0  2  0  0  0  0  0  0  0  0  0
   -3.4094    5.6898    3.0109 C   0  0  1  0  0  0  0  0  0  0  0  0
   -3.9588    7.0650    3.3888 C   0  0  1  0  0  0  0  0  0  0  0  0
   -4.7668    8.4930    5.1900 N   0  3  0  0  0  0  0  0  0  0  0  0
   -1.2646    5.1480    6.1493 N   0  3  0  0  0  0  0  0  0  0  0  0
   -3.1131    5.6527    1.6213 O   0  0  0  0  0  0  0  0  0  0  0  0
   -5.1561    7.3358    2.6377 O   0  0  0  0  0  0  0  0  0  0  0  0
   -0.8344    4.0197    2.3455 C   0  0  1  0  0  0  0  0  0  0  0  0
   -1.1936    2.7940    1.5036 C   0  0  1  0  0  0  0  0  0  0  0  0
   -0.9242    1.5184    2.2876 C   0  0  0  0  0  0  0  0  0  0  0  0
    0.5221    1.5136    2.7548 C   0  0  1  0  0  0  0  0  0  0  0  0
    0.8062    2.7764    3.5673 C   0  0  1  0  0  0  0  0  0  0  0  0
    2.2525    2.8683    4.0189 C   0  0  0  0  0  0  0  0  0  0  0  0
   -2.5944    2.8667    1.0254 N   0  3  0  0  0  0  0  0  0  0  0  0
    2.6112    1.7496    4.9231 N   0  3  0  0  0  0  0  0  0  0  0  0
   -1.6422    4.0817    3.4732 O   0  0  0  0  0  0  0  0  0  0  0  0
    0.7723    0.3615    3.5466 O   0  0  0  0  0  0  0  0  0  0  0  0
    0.5314    3.9510    2.7733 O   0  0  0  0  0  0  0  0  0  0  0  0
  1  2  1  0  0  0  0
  1 10  1  0  0  0  0
  1 21  1  1  0  0  0
  2  3  1  0  0  0  0
  2  7  1  1  0  0  0
  3  4  1  0  0  0  0
  3  8  1  6  0  0  0
  4  5  1  0  0  0  0
  4  9  1  1  0  0  0
  5  6  1  6  0  0  0
  5 10  1  0  0  0  0
  6 11  1  0  0  0  0
 12 13  1  0  0  0  0
 12 17  1  0  0  0  0
 12 18  1  6  0  0  0
 13 14  1  0  0  0  0
 14 15  1  0  0  0  0
 14 19  1  1  0  0  0
 15 16  1  0  0  0  0
 15 30  1  6  0  0  0
 16 17  1  0  0  0  0
 16 20  1  6  0  0  0
 17 21  1  6  0  0  0
 22 23  1  0  0  0  0
 22 30  1  1  0  0  0
 22 32  1  0  0  0  0
 23 24  1  0  0  0  0
 23 28  1  1  0  0  0
 24 25  1  0  0  0  0
 25 26  1  0  0  0  0
 25 31  1  1  0  0  0
 26 27  1  6  0  0  0
 26 32  1  0  0  0  0
 27 29  1  0  0  0  0
M  CHG  5   8   1  18   1  19   1  28   1  29   1
M  END
>  <CHROM.1>
-73.42540316,57.37629272,176.75976898,65.01242215,175.09062536,95.42520688
-49.64544271,-163.99288128,-154.66317215,-66.54058562,138.00827736,-137.71513394
160.24029431,61.70899780,-62.57087429,-79.51940685,-3.27231711,6.05940860
2.91564685,2.70207642,-0.65765521,0.70496561

>  <Name>
1tob

>  <RI>
0

>  <Rbt.Current_Directory>
/home/itssahil/PROJECTS/Mol_Feturizer/New_Systems/rnas/1tob

>  <Rbt.Executable>
rbdock ($Id: //depot/dev/client3/rdock/2013.1/src/exe/rbdock.cxx#4 $)

>  <Rbt.Library>
libRbt.so (2013.1, Build901 2013/11/27)

>  <Rbt.Parameter_File>
/export/apps/rDock/src/rDock_2013.1_src/data/scripts/dock_solv.prm

>  <Rbt.Receptor>
prm/pocket_docking_4.prm

>  <SCORE>
-42.6301

>  <SCORE.INTER>
-36.6959

>  <SCORE.INTER.CONST>
1

>  <SCORE.INTER.POLAR>
-5.29122

>  <SCORE.INTER.ROT>
6

>  <SCORE.INTER.SOLV>
22.9012

>  <SCORE.INTER.VDW>
-22.0603

>  <SCORE.INTER.norm>
-1.14675

>  <SCORE.INTRA>
-5.93686

>  <SCORE.INTRA.DIHEDRAL>
0.0504152

>  <SCORE.INTRA.DIHEDRAL.0>
22.9177

>  <SCORE.INTRA.POLAR>
-2.2841

>  <SCORE.INTRA.POLAR.0>
-0.311208

>  <SCORE.INTRA.REPUL>
0

>  <SCORE.INTRA.REPUL.0>
0

>  <SCORE.INTRA.SOLV>
2.95471

>  <SCORE.INTRA.SOLV.lig_0>
-132.657

>  <SCORE.INTRA.VDW>
0.326533

>  <SCORE.INTRA.VDW.0>
-4.68867

>  <SCORE.INTRA.norm>
-0.185527

>  <SCORE.RESTR>
0.00268479

>  <SCORE.RESTR.CAVITY>
0.00268479

>  <SCORE.RESTR.norm>
8.38996e-05

>  <SCORE.SYSTEM>
0

>  <SCORE.SYSTEM.CONST>
0

>  <SCORE.SYSTEM.DIHEDRAL>
0

>  <SCORE.SYSTEM.SOLV>
0

>  <SCORE.SYSTEM.norm>
0

>  <SCORE.heavy>
32

>  <SCORE.norm>
-1.33219

>  <RMSD>
9.101

$$$$
1tob
 OpenBabel11021811413D
libRbt.so/2013.1/901 2013/11/27
 32 34  0  0  0  0  0  0  0  0999 V2000
   -4.9417    5.1234    3.0906 C   0  0  2  0  0  0  0  0  0  0  0  0
   -5.2338    4.1242    1.9737 C   0  0  1  0  0  0  0  0  0  0  0  0
   -5.6353    4.8715    0.7093 C   0  0  2  0  0  0  0  0  0  0  0  0
   -6.8167    5.7845    1.0149 C   0  0  1  0  0  0  0  0  0  0  0  0
   -6.4631    6.7223    2.1659 C   0  0  1  0  0  0  0  0  0  0  0  0
   -7.6273    7.6057    2.5691 C   0  0  0  0  0  0  0  0  0  0  0  0
   -4.0783    3.3385    1.7190 O   0  0  0  0  0  0  0  0  0  0  0  0
   -5.9335    3.9326   -0.3937 N   0  3  0  0  0  0  0  0  0  0  0  0
   -7.1545    6.5372   -0.1424 O   0  0  0  0  0  0  0  0  0  0  0  0
   -6.0834    5.9561    3.3295 O   0  0  0  0  0  0  0  0  0  0  0  0
   -7.2832    8.4540    3.6554 O   0  0  0  0  0  0  0  0  0  0  0  0
   -3.2744    5.9199    5.0840 C   0  0  2  0  0  0  0  0  0  0  0  0
   -2.0916    5.8816    6.0420 C   0  0  0  0  0  0  0  0  0  0  0  0
   -1.2524    4.6258    5.8050 C   0  0  1  0  0  0  0  0  0  0  0  0
   -0.7367    4.6152    4.3678 C   0  0  2  0  0  0  0  0  0  0  0  0
   -1.9121    4.6615    3.3903 C   0  0  1  0  0  0  0  0  0  0  0  0
   -2.7640    5.9032    3.6513 C   0  0  1  0  0  0  0  0  0  0  0  0
   -4.0716    7.1495    5.2864 N   0  3  0  0  0  0  0  0  0  0  0  0
   -0.1518    4.5580    6.8011 N   0  3  0  0  0  0  0  0  0  0  0  0
   -1.4274    4.6798    2.0543 O   0  0  0  0  0  0  0  0  0  0  0  0
   -3.8771    5.9323    2.7397 O   0  0  0  0  0  0  0  0  0  0  0  0
    0.2024    3.0558    2.8025 C   0  0  1  0  0  0  0  0  0  0  0  0
    0.3499    1.5370    2.6956 C   0  0  1  0  0  0  0  0  0  0  0  0
    1.6124    1.0781    3.4095 C   0  0  0  0  0  0  0  0  0  0  0  0
    2.8073    1.8309    2.8473 C   0  0  1  0  0  0  0  0  0  0  0  0
    2.5737    3.3361    2.9708 C   0  0  1  0  0  0  0  0  0  0  0  0
    3.7046    4.1544    2.3742 C   0  0  0  0  0  0  0  0  0  0  0  0
   -0.8584    0.8462    3.2049 N   0  3  0  0  0  0  0  0  0  0  0  0
    5.0037    3.8305    3.0106 N   0  3  0  0  0  0  0  0  0  0  0  0
    0.0533    3.4319    4.1307 O   0  0  0  0  0  0  0  0  0  0  0  0
    3.9859    1.4642    3.5497 O   0  0  0  0  0  0  0  0  0  0  0  0
    1.3638    3.7102    2.2769 O   0  0  0  0  0  0  0  0  0  0  0  0
  1  2  1  0  0  0  0
  1 10  1  0  0  0  0
  1 21  1  6  0  0  0
  2  3  1  0  0  0  0
  2  7  1  6  0  0  0
  3  4  1  0  0  0  0
  3  8  1  6  0  0  0
  4  5  1  0  0  0  0
  4  9  1  6  0  0  0
  5  6  1  1  0  0  0
  5 10  1  0  0  0  0
  6 11  1  0  0  0  0
 12 13  1  0  0  0  0
 12 17  1  0  0  0  0
 12 18  1  6  0  0  0
 13 14  1  0  0  0  0
 14 15  1  0  0  0  0
 14 19  1  1  0  0  0
 15 16  1  0  0  0  0
 15 30  1  6  0  0  0
 16 17  1  0  0  0  0
 16 20  1  6  0  0  0
 17 21  1  6  0  0  0
 22 23  1  0  0  0  0
 22 30  1  1  0  0  0
 22 32  1  0  0  0  0
 23 24  1  0  0  0  0
 23 28  1  1  0  0  0
 24 25  1  0  0  0  0
 25 26  1  0  0  0  0
 25 31  1  1  0  0  0
 26 27  1  6  0  0  0
 26 32  1  0  0  0  0
 27 29  1  0  0  0  0
M  CHG  5   8   1  18   1  19   1  28   1  29   1
M  END
>  <CHROM.1>
-122.13133774,80.18065409,-3.62957411,-55.53033132,179.02716989,178.90562892
-63.09806431,-141.11825830,158.93234518,169.99310339,-42.03291073,-149.56789031
179.22815876,-52.56917841,-57.95087726,169.54150019,-2.12463272,4.52369429
3.06187566,-3.03726205,0.39465740,-2.16706526

>  <Name>
1tob

>  <RI>
0

>  <Rbt.Current_Directory>
/home/itssahil/PROJECTS/Mol_Feturizer/New_Systems/rnas/1tob

>  <Rbt.Executable>
rbdock ($Id: //depot/dev/client3/rdock/2013.1/src/exe/rbdock.cxx#4 $)

>  <Rbt.Library>
libRbt.so (2013.1, Build901 2013/11/27)

>  <Rbt.Parameter_File>
/export/apps/rDock/src/rDock_2013.1_src/data/scripts/dock_solv.prm

>  <Rbt.Receptor>
prm/blind_docking_20.prm

>  <SCORE>
-27.2074

>  <SCORE.INTER>
-37.0338

>  <SCORE.INTER.CONST>
1

>  <SCORE.INTER.POLAR>
-5.61474

>  <SCORE.INTER.ROT>
6

>  <SCORE.INTER.SOLV>
29.6264

>  <SCORE.INTER.VDW>
-23.4488

>  <SCORE.INTER.norm>
-1.1573

>  <SCORE.INTRA>
2.5155

>  <SCORE.INTRA.DIHEDRAL>
0.570873

>  <SCORE.INTRA.DIHEDRAL.0>
22.9177

>  <SCORE.INTRA.POLAR>
-1.41292

>  <SCORE.INTRA.POLAR.0>
-0.311208

>  <SCORE.INTRA.REPUL>
0

>  <SCORE.INTRA.REPUL.0>
0

>  <SCORE.INTRA.SOLV>
-1.55388

>  <SCORE.INTRA.SOLV.lig_0>
-132.657

>  <SCORE.INTRA.VDW>
7.81092

>  <SCORE.INTRA.VDW.0>
-4.68867

>  <SCORE.INTRA.norm>
0.0786095

>  <SCORE.RESTR>
7.31083

>  <SCORE.RESTR.CAVITY>
7.31083

>  <SCORE.RESTR.norm>
0.228463

>  <SCORE.SYSTEM>
0

>  <SCORE.SYSTEM.CONST>
0

>  <SCORE.SYSTEM.DIHEDRAL>
0

>  <SCORE.SYSTEM.SOLV>
0

>  <SCORE.SYSTEM.norm>
0

>  <SCORE.heavy>
32

>  <SCORE.norm>
-0.850232

>  <RMSD>
9.108

$$$$
1tob
 OpenBabel11021811413D
libRbt.so/2013.1/901 2013/11/27
 32 34  0  0  0  0  0  0  0  0999 V2000
   -3.4885    5.9238    1.4165 C   0  0  2  0  0  0  0  0  0  0  0  0
   -3.5368    7.2916    0.7397 C   0  0  1  0  0  0  0  0  0  0  0  0
   -2.7596    8.3029    1.5712 C   0  0  2  0  0  0  0  0  0  0  0  0
   -3.3126    8.3219    2.9912 C   0  0  1  0  0  0  0  0  0  0  0  0
   -3.2697    6.9159    3.5832 C   0  0  1  0  0  0  0  0  0  0  0  0
   -3.8790    6.8547    4.9701 C   0  0  0  0  0  0  0  0  0  0  0  0
   -2.9701    7.2037   -0.5598 O   0  0  0  0  0  0  0  0  0  0  0  0
   -2.7916    9.6437    0.9478 N   0  3  0  0  0  0  0  0  0  0  0  0
   -2.5486    9.2130    3.7928 O   0  0  0  0  0  0  0  0  0  0  0  0
   -4.0148    6.0042    2.7471 O   0  0  0  0  0  0  0  0  0  0  0  0
   -3.1958    7.7102    5.8752 O   0  0  0  0  0  0  0  0  0  0  0  0
   -2.0629    3.0784    1.1672 C   0  0  2  0  0  0  0  0  0  0  0  0
   -1.8704    1.7551    1.8951 C   0  0  0  0  0  0  0  0  0  0  0  0
   -0.5285    1.7382    2.6275 C   0  0  1  0  0  0  0  0  0  0  0  0
   -0.4801    2.8810    3.6393 C   0  0  2  0  0  0  0  0  0  0  0  0
   -0.6799    4.2192    2.9262 C   0  0  1  0  0  0  0  0  0  0  0  0
   -2.0089    4.2193    2.1717 C   0  0  1  0  0  0  0  0  0  0  0  0
   -3.3744    3.1134    0.4837 N   0  3  0  0  0  0  0  0  0  0  0  0
   -0.3159    0.4116    3.2624 N   0  3  0  0  0  0  0  0  0  0  0  0
   -0.6622    5.2778    3.8745 O   0  0  0  0  0  0  0  0  0  0  0  0
   -2.1833    5.4744    1.4897 O   0  0  0  0  0  0  0  0  0  0  0  0
    1.7137    1.9418    3.9014 C   0  0  1  0  0  0  0  0  0  0  0  0
    2.5700    1.4644    5.0756 C   0  0  1  0  0  0  0  0  0  0  0  0
    3.3718    2.6231    5.6490 C   0  0  0  0  0  0  0  0  0  0  0  0
    4.1905    3.2631    4.5398 C   0  0  1  0  0  0  0  0  0  0  0  0
    3.2683    3.6913    3.3989 C   0  0  1  0  0  0  0  0  0  0  0  0
    4.0261    4.2877    2.2266 C   0  0  0  0  0  0  0  0  0  0  0  0
    1.7388    0.8000    6.1071 N   0  3  0  0  0  0  0  0  0  0  0  0
    4.2391    3.2882    1.1526 N   0  3  0  0  0  0  0  0  0  0  0  0
    0.7840    2.8781    4.3338 O   0  0  0  0  0  0  0  0  0  0  0  0
    4.8932    4.3897    5.0436 O   0  0  0  0  0  0  0  0  0  0  0  0
    2.5347    2.5526    2.8983 O   0  0  0  0  0  0  0  0  0  0  0  0
  1  2  1  0  0  0  0
  1 10  1  0  0  0  0
  1 21  1  1  0  0  0
  2  3  1  0  0  0  0
  2  7  1  6  0  0  0
  3  4  1  0  0  0  0
  3  8  1  6  0  0  0
  4  5  1  0  0  0  0
  4  9  1  1  0  0  0
  5  6  1  1  0  0  0
  5 10  1  0  0  0  0
  6 11  1  0  0  0  0
 12 13  1  0  0  0  0
 12 17  1  0  0  0  0
 12 18  1  1  0  0  0
 13 14  1  0  0  0  0
 14 15  1  0  0  0  0
 14 19  1  1  0  0  0
 15 16  1  0  0  0  0
 15 30  1  6  0  0  0
 16 17  1  0  0  0  0
 16 20  1  1  0  0  0
 17 21  1  6  0  0  0
 22 23  1  0  0  0  0
 22 30  1  1  0  0  0
 22 32  1  0  0  0  0
 23 24  1  0  0  0  0
 23 28  1  1  0  0  0
 24 25  1  0  0  0  0
 25 26  1  0  0  0  0
 25 31  1  1  0  0  0
 26 27  1  6  0  0  0
 26 32  1  0  0  0  0
 27 29  1  0  0  0  0
M  CHG  5   8   1  18   1  19   1  28   1  29   1
M  END
>  <CHROM.1>
177.03048307,179.13620041,169.65330148,155.51614733,-59.77833534,-63.78713920
-148.44031783,131.76194135,4.43451266,32.78249004,92.20906730,-147.24227301
57.31351347,-179.24208859,98.30504981,109.53925938,-0.51327373,4.61445279
3.00052750,2.56365627,-0.45504835,0.23619357

>  <Name>
1tob

>  <RI>
0

>  <Rbt.Current_Directory>
/home/itssahil/PROJECTS/Mol_Feturizer/New_Systems/rnas/1tob

>  <Rbt.Executable>
rbdock ($Id: //depot/dev/client3/rdock/2013.1/src/exe/rbdock.cxx#4 $)

>  <Rbt.Library>
libRbt.so (2013.1, Build901 2013/11/27)

>  <Rbt.Parameter_File>
/export/apps/rDock/src/rDock_2013.1_src/data/scripts/dock_solv.prm

>  <Rbt.Receptor>
prm/blind_docking_40.prm

>  <SCORE>
-9.8583

>  <SCORE.INTER>
-32.6836

>  <SCORE.INTER.CONST>
1

>  <SCORE.INTER.POLAR>
-5.21448

>  <SCORE.INTER.ROT>
6

>  <SCORE.INTER.SOLV>
34.5441

>  <SCORE.INTER.VDW>
-23.5222

>  <SCORE.INTER.norm>
-1.02136

>  <SCORE.INTRA>
13.9088

>  <SCORE.INTRA.DIHEDRAL>
10.8936

>  <SCORE.INTRA.DIHEDRAL.0>
22.9177

>  <SCORE.INTRA.POLAR>
0.0506654

>  <SCORE.INTRA.POLAR.0>
-0.311208

>  <SCORE.INTRA.REPUL>
0

>  <SCORE.INTRA.REPUL.0>
0

>  <SCORE.INTRA.SOLV>
0.822788

>  <SCORE.INTRA.SOLV.lig_0>
-132.657

>  <SCORE.INTRA.VDW>
7.87836

>  <SCORE.INTRA.VDW.0>
-4.68867

>  <SCORE.INTRA.norm>
0.434651

>  <SCORE.RESTR>
8.9165

>  <SCORE.RESTR.CAVITY>
8.9165

>  <SCORE.RESTR.norm>
0.278641

>  <SCORE.SYSTEM>
0

>  <SCORE.SYSTEM.CONST>
0

>  <SCORE.SYSTEM.DIHEDRAL>
0

>  <SCORE.SYSTEM.SOLV>
0

>  <SCORE.SYSTEM.norm>
0

>  <SCORE.heavy>
32

>  <SCORE.norm>
-0.308072

>  <RMSD>
9.111

$$$$
1tob
 OpenBabel11021811413D
libRbt.so/2013.1/901 2013/11/27
 32 34  0  0  0  0  0  0  0  0999 V2000
   -3.2514    7.0024    2.7234 C   0  0  2  0  0  0  0  0  0  0  0  0
   -3.7449    8.2986    3.3618 C   0  0  1  0  0  0  0  0  0  0  0  0
   -5.0349    8.7439    2.6867 C   0  0  2  0  0  0  0  0  0  0  0  0
   -4.8028    8.8707    1.1858 C   0  0  1  0  0  0  0  0  0  0  0  0
   -4.2723    7.5520    0.6301 C   0  0  1  0  0  0  0  0  0  0  0  0
   -3.9479    7.6376   -0.8484 C   0  0  0  0  0  0  0  0  0  0  0  0
   -3.9763    8.0925    4.7480 O   0  0  0  0  0  0  0  0  0  0  0  0
   -5.5387   10.0033    3.2762 N   0  3  0  0  0  0  0  0  0  0  0  0
   -6.0194    9.2193    0.5389 O   0  0  0  0  0  0  0  0  0  0  0  0
   -3.0565    7.1800    1.3147 O   0  0  0  0  0  0  0  0  0  0  0  0
   -5.1287    7.6828   -1.6370 O   0  0  0  0  0  0  0  0  0  0  0  0
   -3.3719    4.0649    1.6949 C   0  0  2  0  0  0  0  0  0  0  0  0
   -2.7775    2.6734    1.8644 C   0  0  0  0  0  0  0  0  0  0  0  0
   -1.4675    2.7439    2.6494 C   0  0  1  0  0  0  0  0  0  0  0  0
   -1.7246    3.3527    4.0260 C   0  0  2  0  0  0  0  0  0  0  0  0
   -2.3299    4.7492    3.8753 C   0  0  1  0  0  0  0  0  0  0  0  0
   -3.6234    4.6764    3.0646 C   0  0  1  0  0  0  0  0  0  0  0  0
   -4.6567    3.9993    0.9645 N   0  3  0  0  0  0  0  0  0  0  0  0
   -0.8558    1.3924    2.7341 N   0  3  0  0  0  0  0  0  0  0  0  0
   -2.5937    5.3010    5.1582 O   0  0  0  0  0  0  0  0  0  0  0  0
   -4.1791    5.9951    2.9122 O   0  0  0  0  0  0  0  0  0  0  0  0
   -0.1604    2.3007    5.5128 C   0  0  1  0  0  0  0  0  0  0  0  0
    0.4462    2.7077    6.8568 C   0  0  1  0  0  0  0  0  0  0  0  0
    1.7442    3.4708    6.6401 C   0  0  0  0  0  0  0  0  0  0  0  0
    2.6858    2.6279    5.7955 C   0  0  1  0  0  0  0  0  0  0  0  0
    2.0004    2.2454    4.4843 C   0  0  1  0  0  0  0  0  0  0  0  0
    2.8632    1.3511    3.6125 C   0  0  0  0  0  0  0  0  0  0  0  0
   -0.5237    3.4807    7.6680 N   0  3  0  0  0  0  0  0  0  0  0  0
    3.2791    0.1256    4.3355 N   0  3  0  0  0  0  0  0  0  0  0  0
   -0.4942    3.4285    4.7748 O   0  0  0  0  0  0  0  0  0  0  0  0
    3.8767    3.3532    5.5261 O   0  0  0  0  0  0  0  0  0  0  0  0
    0.7769    1.5271    4.7537 O   0  0  0  0  0  0  0  0  0  0  0  0
  1  2  1  0  0  0  0
  1 10  1  0  0  0  0
  1 21  1  6  0  0  0
  2  3  1  0  0  0  0
  2  7  1  1  0  0  0
  3  4  1  0  0  0  0
  3  8  1  1  0  0  0
  4  5  1  0  0  0  0
  4  9  1  6  0  0  0
  5  6  1  6  0  0  0
  5 10  1  0  0  0  0
  6 11  1  0  0  0  0
 12 13  1  0  0  0  0
 12 17  1  0  0  0  0
 12 18  1  1  0  0  0
 13 14  1  0  0  0  0
 14 15  1  0  0  0  0
 14 19  1  1  0  0  0
 15 16  1  0  0  0  0
 15 30  1  6  0  0  0
 16 17  1  0  0  0  0
 16 20  1  1  0  0  0
 17 21  1  6  0  0  0
 22 23  1  0  0  0  0
 22 30  1  6  0  0  0
 22 32  1  0  0  0  0
 23 24  1  0  0  0  0
 23 28  1  6  0  0  0
 24 25  1  0  0  0  0
 25 26  1  0  0  0  0
 25 31  1  6  0  0  0
 26 27  1  6  0  0  0
 26 32  1  0  0  0  0
 27 29  1  0  0  0  0
M  CHG  5   8   1  18   1  19   1  28   1  29   1
M  END
>  <CHROM.1>
-146.91550137,30.26468382,-140.88312463,59.37191024,-72.87948385,54.23818389
37.13226057,-179.29163327,-87.52275539,68.39091353,-84.37867467,-141.14387656
73.00658847,-56.50985901,56.12643716,173.19853694,-1.88667561,4.88921218
3.34213404,-3.11946872,0.83038564,-2.17320759

>  <Name>
1tob

>  <RI>
0

>  <Rbt.Current_Directory>
/home/itssahil/PROJECTS/Mol_Feturizer/New_Systems/rnas/1tob

>  <Rbt.Executable>
rbdock ($Id: //depot/dev/client3/rdock/2013.1/src/exe/rbdock.cxx#4 $)

>  <Rbt.Library>
libRbt.so (2013.1, Build901 2013/11/27)

>  <Rbt.Parameter_File>
/export/apps/rDock/src/rDock_2013.1_src/data/scripts/dock_solv.prm

>  <Rbt.Receptor>
prm/pocket_docking_6.prm

>  <SCORE>
-35.651

>  <SCORE.INTER>
-31.626

>  <SCORE.INTER.CONST>
1

>  <SCORE.INTER.POLAR>
-4.05101

>  <SCORE.INTER.ROT>
6

>  <SCORE.INTER.SOLV>
20.972

>  <SCORE.INTER.VDW>
-22.1713

>  <SCORE.INTER.norm>
-0.988313

>  <SCORE.INTRA>
-4.02494

>  <SCORE.INTRA.DIHEDRAL>
1.02265

>  <SCORE.INTRA.DIHEDRAL.0>
22.9177

>  <SCORE.INTRA.POLAR>
-2.26448

>  <SCORE.INTRA.POLAR.0>
-0.311208

>  <SCORE.INTRA.REPUL>
0

>  <SCORE.INTRA.REPUL.0>
0

>  <SCORE.INTRA.SOLV>
0.785542

>  <SCORE.INTRA.SOLV.lig_0>
-132.657

>  <SCORE.INTRA.VDW>
2.77021

>  <SCORE.INTRA.VDW.0>
-4.68867

>  <SCORE.INTRA.norm>
-0.125779

>  <SCORE.RESTR>
0

>  <SCORE.RESTR.CAVITY>
0

>  <SCORE.RESTR.norm>
0

>  <SCORE.SYSTEM>
0

>  <SCORE.SYSTEM.CONST>
0

>  <SCORE.SYSTEM.DIHEDRAL>
0

>  <SCORE.SYSTEM.SOLV>
0

>  <SCORE.SYSTEM.norm>
0

>  <SCORE.heavy>
32

>  <SCORE.norm>
-1.11409

>  <RMSD>
9.116

$$$$
1tob
 OpenBabel11021811413D
libRbt.so/2013.1/901 2013/11/27
 32 34  0  0  0  0  0  0  0  0999 V2000
   -5.0347    7.1521    2.4196 C   0  0  2  0  0  0  0  0  0  0  0  0
   -6.0560    8.2725    2.6007 C   0  0  1  0  0  0  0  0  0  0  0  0
   -7.4276    7.6751    2.8837 C   0  0  2  0  0  0  0  0  0  0  0  0
   -7.7982    6.7072    1.7664 C   0  0  1  0  0  0  0  0  0  0  0  0
   -6.7123    5.6449    1.6194 C   0  0  1  0  0  0  0  0  0  0  0  0
   -6.9861    4.6949    0.4700 C   0  0  0  0  0  0  0  0  0  0  0  0
   -5.6651    9.1074    3.6813 O   0  0  0  0  0  0  0  0  0  0  0  0
   -8.4454    8.7340    3.0576 N   0  3  0  0  0  0  0  0  0  0  0  0
   -9.0465    6.0929    2.0567 O   0  0  0  0  0  0  0  0  0  0  0  0
   -5.4376    6.2727    1.3621 O   0  0  0  0  0  0  0  0  0  0  0  0
   -8.2771    4.1114    0.5753 O   0  0  0  0  0  0  0  0  0  0  0  0
   -3.5161    6.3374    5.5496 C   0  0  2  0  0  0  0  0  0  0  0  0
   -2.0902    6.0900    6.0227 C   0  0  0  0  0  0  0  0  0  0  0  0
   -1.6290    4.6891    5.6200 C   0  0  1  0  0  0  0  0  0  0  0  0
   -1.6876    4.5449    4.1009 C   0  0  2  0  0  0  0  0  0  0  0  0
   -3.1126    4.7982    3.6064 C   0  0  1  0  0  0  0  0  0  0  0  0
   -3.5790    6.1884    4.0373 C   0  0  1  0  0  0  0  0  0  0  0  0
   -3.9562    7.7036    5.9076 N   0  3  0  0  0  0  0  0  0  0  0  0
   -0.2693    4.4298    6.1605 N   0  3  0  0  0  0  0  0  0  0  0  0
   -3.1572    4.6907    2.1899 O   0  0  0  0  0  0  0  0  0  0  0  0
   -4.9258    6.4141    3.5834 O   0  0  0  0  0  0  0  0  0  0  0  0
   -0.7754    3.1016    2.4131 C   0  0  1  0  0  0  0  0  0  0  0  0
   -0.6732    1.6258    2.0241 C   0  0  1  0  0  0  0  0  0  0  0  0
    0.3292    0.9127    2.9190 C   0  0  0  0  0  0  0  0  0  0  0  0
    1.6639    1.6371    2.8527 C   0  0  1  0  0  0  0  0  0  0  0  0
    1.4737    3.1051    3.2326 C   0  0  1  0  0  0  0  0  0  0  0  0
    2.7588    3.9066    3.1317 C   0  0  0  0  0  0  0  0  0  0  0  0
   -2.0036    0.9734    2.0504 N   0  3  0  0  0  0  0  0  0  0  0  0
    3.9264    3.1219    3.5993 N   0  3  0  0  0  0  0  0  0  0  0  0
   -1.2587    3.2247    3.7090 O   0  0  0  0  0  0  0  0  0  0  0  0
    2.5927    1.0246    3.7353 O   0  0  0  0  0  0  0  0  0  0  0  0
    0.5127    3.7264    2.3518 O   0  0  0  0  0  0  0  0  0  0  0  0
  1  2  1  0  0  0  0
  1 10  1  0  0  0  0
  1 21  1  1  0  0  0
  2  3  1  0  0  0  0
  2  7  1  1  0  0  0
  3  4  1  0  0  0  0
  3  8  1  6  0  0  0
  4  5  1  0  0  0  0
  4  9  1  1  0  0  0
  5  6  1  6  0  0  0
  5 10  1  0  0  0  0
  6 11  1  0  0  0  0
 12 13  1  0  0  0  0
 12 17  1  0  0  0  0
 12 18  1  6  0  0  0
 13 14  1  0  0  0  0
 14 15  1  0  0  0  0
 14 19  1  6  0  0  0
 15 16  1  0  0  0  0
 15 30  1  1  0  0  0
 16 17  1  0  0  0  0
 16 20  1  6  0  0  0
 17 21  1  1  0  0  0
 22 23  1  0  0  0  0
 22 30  1  1  0  0  0
 22 32  1  0  0  0  0
 23 24  1  0  0  0  0
 23 28  1  1  0  0  0
 24 25  1  0  0  0  0
 25 26  1  0  0  0  0
 25 31  1  1  0  0  0
 26 27  1  6  0  0  0
 26 32  1  0  0  0  0
 27 29  1  0  0  0  0
M  CHG  5   8   1  18   1  19   1  28   1  29   1
M  END
>  <CHROM.1>
-130.99031996,177.40909647,53.95004802,-47.98564598,-53.92205578,177.31854153
145.84671410,-60.88097411,-156.24366933,-176.49195225,139.16985001,-166.60703691
91.58441313,-44.44379427,-38.79246934,105.38119774,-3.03043267,4.89854035
3.17039080,-2.84398345,0.39858925,-2.46097366

>  <Name>
1tob

>  <RI>
0

>  <Rbt.Current_Directory>
/home/itssahil/PROJECTS/Mol_Feturizer/New_Systems/rnas/1tob

>  <Rbt.Executable>
rbdock ($Id: //depot/dev/client3/rdock/2013.1/src/exe/rbdock.cxx#4 $)

>  <Rbt.Library>
libRbt.so (2013.1, Build901 2013/11/27)

>  <Rbt.Parameter_File>
/export/apps/rDock/src/rDock_2013.1_src/data/scripts/dock_solv.prm

>  <Rbt.Receptor>
prm/blind_docking_60.prm

>  <SCORE>
-18.7256

>  <SCORE.INTER>
-19.8866

>  <SCORE.INTER.CONST>
1

>  <SCORE.INTER.POLAR>
-1.57715

>  <SCORE.INTER.ROT>
6

>  <SCORE.INTER.SOLV>
28.2851

>  <SCORE.INTER.VDW>
-25.0289

>  <SCORE.INTER.norm>
-0.621455

>  <SCORE.INTRA>
-2.74888

>  <SCORE.INTRA.DIHEDRAL>
3.23735

>  <SCORE.INTRA.DIHEDRAL.0>
22.9177

>  <SCORE.INTRA.POLAR>
-2.13409

>  <SCORE.INTRA.POLAR.0>
-0.311208

>  <SCORE.INTRA.REPUL>
0

>  <SCORE.INTRA.REPUL.0>
0

>  <SCORE.INTRA.SOLV>
-0.18454

>  <SCORE.INTRA.SOLV.lig_0>
-132.657

>  <SCORE.INTRA.VDW>
2.98064

>  <SCORE.INTRA.VDW.0>
-4.68867

>  <SCORE.INTRA.norm>
-0.0859024

>  <SCORE.RESTR>
3.90981

>  <SCORE.RESTR.CAVITY>
3.90981

>  <SCORE.RESTR.norm>
0.122182

>  <SCORE.SYSTEM>
0

>  <SCORE.SYSTEM.CONST>
0

>  <SCORE.SYSTEM.DIHEDRAL>
0

>  <SCORE.SYSTEM.SOLV>
0

>  <SCORE.SYSTEM.norm>
0

>  <SCORE.heavy>
32

>  <SCORE.norm>
-0.585176

>  <RMSD>
9.130

$$$$
1tob
 OpenBabel11021811413D
libRbt.so/2013.1/901 2013/11/27
 32 34  0  0  0  0  0  0  0  0999 V2000
   -3.7461    5.9155    0.7873 C   0  0  2  0  0  0  0  0  0  0  0  0
   -3.7615    7.4157    0.5040 C   0  0  1  0  0  0  0  0  0  0  0  0
   -2.8581    8.1343    1.4969 C   0  0  2  0  0  0  0  0  0  0  0  0
   -3.2941    7.7925    2.9167 C   0  0  1  0  0  0  0  0  0  0  0  0
   -3.2934    6.2784    3.1089 C   0  0  1  0  0  0  0  0  0  0  0  0
   -3.7931    5.8705    4.4809 C   0  0  0  0  0  0  0  0  0  0  0  0
   -3.3066    7.6583   -0.8196 O   0  0  0  0  0  0  0  0  0  0  0  0
   -2.8547    9.5935    1.2562 N   0  3  0  0  0  0  0  0  0  0  0  0
   -2.4140    8.4039    3.8503 O   0  0  0  0  0  0  0  0  0  0  0  0
   -4.1587    5.6556    2.1350 O   0  0  0  0  0  0  0  0  0  0  0  0
   -3.1236    6.5845    5.5104 O   0  0  0  0  0  0  0  0  0  0  0  0
   -2.7477    3.0128    0.7854 C   0  0  2  0  0  0  0  0  0  0  0  0
   -2.4061    1.7998    1.6398 C   0  0  0  0  0  0  0  0  0  0  0  0
   -0.8904    1.6479    1.7704 C   0  0  1  0  0  0  0  0  0  0  0  0
   -0.3015    2.9003    2.4159 C   0  0  2  0  0  0  0  0  0  0  0  0
   -0.6420    4.1313    1.5746 C   0  0  1  0  0  0  0  0  0  0  0  0
   -2.1572    4.2612    1.4226 C   0  0  1  0  0  0  0  0  0  0  0  0
   -4.2135    3.1840    0.6827 N   0  3  0  0  0  0  0  0  0  0  0  0
   -0.5701    0.4142    2.5343 N   0  3  0  0  0  0  0  0  0  0  0  0
   -0.1163    5.2980    2.1931 O   0  0  0  0  0  0  0  0  0  0  0  0
   -2.4703    5.4115    0.6165 O   0  0  0  0  0  0  0  0  0  0  0  0
    1.5828    2.0697    3.6501 C   0  0  1  0  0  0  0  0  0  0  0  0
    1.6739    2.9985    4.8621 C   0  0  1  0  0  0  0  0  0  0  0  0
    2.6957    4.0969    4.6091 C   0  0  0  0  0  0  0  0  0  0  0  0
    4.0294    3.4657    4.2442 C   0  0  1  0  0  0  0  0  0  0  0  0
    3.8501    2.5387    3.0425 C   0  0  1  0  0  0  0  0  0  0  0  0
    5.1337    1.8260    2.6569 C   0  0  0  0  0  0  0  0  0  0  0  0
    0.3435    3.5482    5.2147 N   0  3  0  0  0  0  0  0  0  0  0  0
    5.2461    1.6668    1.1873 N   0  3  0  0  0  0  0  0  0  0  0  0
    1.1296    2.7705    2.5404 O   0  0  0  0  0  0  0  0  0  0  0  0
    4.9775    4.4779    3.9380 O   0  0  0  0  0  0  0  0  0  0  0  0
    2.8700    1.5211    3.3413 O   0  0  0  0  0  0  0  0  0  0  0  0
  1  2  1  0  0  0  0
  1 10  1  0  0  0  0
  1 21  1  1  0  0  0
  2  3  1  0  0  0  0
  2  7  1  6  0  0  0
  3  4  1  0  0  0  0
  3  8  1  6  0  0  0
  4  5  1  0  0  0  0
  4  9  1  1  0  0  0
  5  6  1  1  0  0  0
  5 10  1  0  0  0  0
  6 11  1  0  0  0  0
 12 13  1  0  0  0  0
 12 17  1  0  0  0  0
 12 18  1  1  0  0  0
 13 14  1  0  0  0  0
 14 15  1  0  0  0  0
 14 19  1  1  0  0  0
 15 16  1  0  0  0  0
 15 30  1  6  0  0  0
 16 17  1  0  0  0  0
 16 20  1  1  0  0  0
 17 21  1  6  0  0  0
 22 23  1  0  0  0  0
 22 30  1  6  0  0  0
 22 32  1  0  0  0  0
 23 24  1  0  0  0  0
 23 28  1  6  0  0  0
 24 25  1  0  0  0  0
 25 26  1  0  0  0  0
 25 31  1  6  0  0  0
 26 27  1  1  0  0  0
 26 32  1  0  0  0  0
 27 29  1  0  0  0  0
M  CHG  5   8   1  18   1  19   1  28   1  29   1
M  END
>  <CHROM.1>
151.24979871,178.75467389,56.47500972,87.03502455,-50.61414696,-56.79693760
-157.87759297,176.23869237,-83.08465128,-68.65201578,79.87971130,-84.63615511
-64.55739712,-39.59068292,-143.98691413,68.46031845,-0.60798828,4.48501253
2.50688301,2.66360785,-0.39622240,0.33909178

>  <Name>
1tob

>  <RI>
0

>  <Rbt.Current_Directory>
/home/itssahil/PROJECTS/Mol_Feturizer/New_Systems/rnas/1tob

>  <Rbt.Executable>
rbdock ($Id: //depot/dev/client3/rdock/2013.1/src/exe/rbdock.cxx#4 $)

>  <Rbt.Library>
libRbt.so (2013.1, Build901 2013/11/27)

>  <Rbt.Parameter_File>
/export/apps/rDock/src/rDock_2013.1_src/data/scripts/dock_solv.prm

>  <Rbt.Receptor>
prm/blind_docking_40.prm

>  <SCORE>
-35.9326

>  <SCORE.INTER>
-44.7856

>  <SCORE.INTER.CONST>
1

>  <SCORE.INTER.POLAR>
-5.54205

>  <SCORE.INTER.ROT>
6

>  <SCORE.INTER.SOLV>
36.0294

>  <SCORE.INTER.VDW>
-30.9934

>  <SCORE.INTER.norm>
-1.39955

>  <SCORE.INTRA>
2.0621

>  <SCORE.INTRA.DIHEDRAL>
-2.13384

>  <SCORE.INTRA.DIHEDRAL.0>
22.9177

>  <SCORE.INTRA.POLAR>
-0.417904

>  <SCORE.INTRA.POLAR.0>
-0.311208

>  <SCORE.INTRA.REPUL>
0

>  <SCORE.INTRA.REPUL.0>
0

>  <SCORE.INTRA.SOLV>
0.404322

>  <SCORE.INTRA.SOLV.lig_0>
-132.657

>  <SCORE.INTRA.VDW>
4.34773

>  <SCORE.INTRA.VDW.0>
-4.68867

>  <SCORE.INTRA.norm>
0.0644406

>  <SCORE.RESTR>
6.79092

>  <SCORE.RESTR.CAVITY>
6.79092

>  <SCORE.RESTR.norm>
0.212216

>  <SCORE.SYSTEM>
0

>  <SCORE.SYSTEM.CONST>
0

>  <SCORE.SYSTEM.DIHEDRAL>
0

>  <SCORE.SYSTEM.SOLV>
0

>  <SCORE.SYSTEM.norm>
0

>  <SCORE.heavy>
32

>  <SCORE.norm>
-1.12289

>  <RMSD>
9.137

$$$$
1tob
 OpenBabel11021811413D
libRbt.so/2013.1/901 2013/11/27
 32 34  0  0  0  0  0  0  0  0999 V2000
   -5.1437    6.5979    2.0416 C   0  0  2  0  0  0  0  0  0  0  0  0
   -6.4844    7.3273    2.0827 C   0  0  1  0  0  0  0  0  0  0  0  0
   -7.6199    6.3130    2.0914 C   0  0  2  0  0  0  0  0  0  0  0  0
   -7.4821    5.3890    0.8873 C   0  0  1  0  0  0  0  0  0  0  0  0
   -6.1049    4.7312    0.8936 C   0  0  1  0  0  0  0  0  0  0  0  0
   -5.8773    3.8569   -0.3239 C   0  0  0  0  0  0  0  0  0  0  0  0
   -6.5551    8.1351    3.2489 O   0  0  0  0  0  0  0  0  0  0  0  0
   -8.9365    6.9860    2.1235 N   0  3  0  0  0  0  0  0  0  0  0  0
   -8.4981    4.3959    0.9245 O   0  0  0  0  0  0  0  0  0  0  0  0
   -5.0737    5.7421    0.8941 O   0  0  0  0  0  0  0  0  0  0  0  0
   -6.5703    4.3570   -1.4587 O   0  0  0  0  0  0  0  0  0  0  0  0
   -3.7447    6.0907    5.2341 C   0  0  2  0  0  0  0  0  0  0  0  0
   -2.3411    6.0854    5.8240 C   0  0  0  0  0  0  0  0  0  0  0  0
   -1.6606    4.7397    5.5719 C   0  0  1  0  0  0  0  0  0  0  0  0
   -1.5763    4.4791    4.0696 C   0  0  2  0  0  0  0  0  0  0  0  0
   -2.9781    4.4888    3.4580 C   0  0  1  0  0  0  0  0  0  0  0  0
   -3.6646    5.8252    3.7386 C   0  0  1  0  0  0  0  0  0  0  0  0
   -4.3961    7.4019    5.4461 N   0  3  0  0  0  0  0  0  0  0  0  0
   -0.3262    4.7180    6.2253 N   0  3  0  0  0  0  0  0  0  0  0  0
   -2.8934    4.2738    2.0556 O   0  0  0  0  0  0  0  0  0  0  0  0
   -4.9887    5.8219    3.1751 O   0  0  0  0  0  0  0  0  0  0  0  0
   -0.3744    3.0495    2.5612 C   0  0  1  0  0  0  0  0  0  0  0  0
   -0.7405    1.6801    1.9862 C   0  0  1  0  0  0  0  0  0  0  0  0
   -0.1622    0.5722    2.8536 C   0  0  0  0  0  0  0  0  0  0  0  0
    1.3378    0.7755    2.9918 C   0  0  1  0  0  0  0  0  0  0  0  0
    1.6204    2.1699    3.5498 C   0  0  1  0  0  0  0  0  0  0  0  0
    3.1051    2.4658    3.6601 C   0  0  0  0  0  0  0  0  0  0  0  0
   -2.2069    1.5462    1.8187 N   0  3  0  0  0  0  0  0  0  0  0  0
    3.7377    2.5763    2.3240 N   0  3  0  0  0  0  0  0  0  0  0  0
   -0.9397    3.2093    3.8194 O   0  0  0  0  0  0  0  0  0  0  0  0
    1.8837   -0.2115    3.8547 O   0  0  0  0  0  0  0  0  0  0  0  0
    1.0474    3.1763    2.6871 O   0  0  0  0  0  0  0  0  0  0  0  0
  1  2  1  0  0  0  0
  1 10  1  0  0  0  0
  1 21  1  1  0  0  0
  2  3  1  0  0  0  0
  2  7  1  1  0  0  0
  3  4  1  0  0  0  0
  3  8  1  6  0  0  0
  4  5  1  0  0  0  0
  4  9  1  1  0  0  0
  5  6  1  6  0  0  0
  5 10  1  0  0  0  0
  6 11  1  0  0  0  0
 12 13  1  0  0  0  0
 12 17  1  0  0  0  0
 12 18  1  6  0  0  0
 13 14  1  0  0  0  0
 14 15  1  0  0  0  0
 14 19  1  6  0  0  0
 15 16  1  0  0  0  0
 15 30  1  1  0  0  0
 16 17  1  0  0  0  0
 16 20  1  6  0  0  0
 17 21  1  1  0  0  0
 22 23  1  0  0  0  0
 22 30  1  1  0  0  0
 22 32  1  0  0  0  0
 23 24  1  0  0  0  0
 23 28  1  1  0  0  0
 24 25  1  0  0  0  0
 25 26  1  0  0  0  0
 25 31  1  1  0  0  0
 26 27  1  6  0  0  0
 26 32  1  0  0  0  0
 27 29  1  0  0  0  0
M  CHG  5   8   1  18   1  19   1  28   1  29   1
M  END
>  <CHROM.1>
-139.88653736,176.62189738,-70.37833100,179.07733885,31.45970466,71.24816199
-79.38349114,7.83120605,-158.00396254,-164.76871112,131.00337786,-134.97569231
123.80906564,-170.62046731,67.87764280,-177.23353851,-2.97740973,4.34353859
2.80136128,-2.99446541,0.46638247,-2.28120406

>  <Name>
1tob

>  <RI>
0

>  <Rbt.Current_Directory>
/home/itssahil/PROJECTS/Mol_Feturizer/New_Systems/rnas/1tob

>  <Rbt.Executable>
rbdock ($Id: //depot/dev/client3/rdock/2013.1/src/exe/rbdock.cxx#4 $)

>  <Rbt.Library>
libRbt.so (2013.1, Build901 2013/11/27)

>  <Rbt.Parameter_File>
/export/apps/rDock/src/rDock_2013.1_src/data/scripts/dock_solv.prm

>  <Rbt.Receptor>
prm/blind_docking_60.prm

>  <SCORE>
-41.2121

>  <SCORE.INTER>
-43.8803

>  <SCORE.INTER.CONST>
1

>  <SCORE.INTER.POLAR>
-6.37492

>  <SCORE.INTER.ROT>
6

>  <SCORE.INTER.SOLV>
31.4161

>  <SCORE.INTER.VDW>
-26.0758

>  <SCORE.INTER.norm>
-1.37126

>  <SCORE.INTRA>
0.110579

>  <SCORE.INTRA.DIHEDRAL>
10.2788

>  <SCORE.INTRA.DIHEDRAL.0>
22.9177

>  <SCORE.INTRA.POLAR>
-2.29978

>  <SCORE.INTRA.POLAR.0>
-0.311208

>  <SCORE.INTRA.REPUL>
0

>  <SCORE.INTRA.REPUL.0>
0

>  <SCORE.INTRA.SOLV>
-0.226215

>  <SCORE.INTRA.SOLV.lig_0>
-132.657

>  <SCORE.INTRA.VDW>
2.90356

>  <SCORE.INTRA.VDW.0>
-4.68867

>  <SCORE.INTRA.norm>
0.0034556

>  <SCORE.RESTR>
2.55761

>  <SCORE.RESTR.CAVITY>
2.55761

>  <SCORE.RESTR.norm>
0.0799253

>  <SCORE.SYSTEM>
0

>  <SCORE.SYSTEM.CONST>
0

>  <SCORE.SYSTEM.DIHEDRAL>
0

>  <SCORE.SYSTEM.SOLV>
0

>  <SCORE.SYSTEM.norm>
0

>  <SCORE.heavy>
32

>  <SCORE.norm>
-1.28788

>  <RMSD>
9.163

$$$$
1tob
 OpenBabel11021811413D
libRbt.so/2013.1/901 2013/11/27
 32 34  0  0  0  0  0  0  0  0999 V2000
   -5.0951    6.2166    2.1022 C   0  0  2  0  0  0  0  0  0  0  0  0
   -6.4333    6.9076    2.3531 C   0  0  1  0  0  0  0  0  0  0  0  0
   -7.5565    5.8804    2.3113 C   0  0  2  0  0  0  0  0  0  0  0  0
   -7.5115    5.1355    0.9825 C   0  0  1  0  0  0  0  0  0  0  0  0
   -6.1336    4.5095    0.7855 C   0  0  1  0  0  0  0  0  0  0  0  0
   -6.0006    3.8174   -0.5568 C   0  0  0  0  0  0  0  0  0  0  0  0
   -6.4136    7.5441    3.6228 O   0  0  0  0  0  0  0  0  0  0  0  0
   -8.8710    6.5172    2.5434 N   0  3  0  0  0  0  0  0  0  0  0  0
   -8.5134    4.1276    0.9622 O   0  0  0  0  0  0  0  0  0  0  0  0
   -5.1136    5.5300    0.8444 O   0  0  0  0  0  0  0  0  0  0  0  0
   -6.5453    4.6074   -1.6043 O   0  0  0  0  0  0  0  0  0  0  0  0
   -3.5625    5.7624    5.1008 C   0  0  2  0  0  0  0  0  0  0  0  0
   -2.1505    5.7965    5.6694 C   0  0  0  0  0  0  0  0  0  0  0  0
   -1.4954    4.4197    5.5562 C   0  0  1  0  0  0  0  0  0  0  0  0
   -1.4377    3.9964    4.0901 C   0  0  2  0  0  0  0  0  0  0  0  0
   -2.8481    3.9643    3.4994 C   0  0  1  0  0  0  0  0  0  0  0  0
   -3.5088    5.3350    3.6421 C   0  0  1  0  0  0  0  0  0  0  0  0
   -4.1896    7.1001    5.1776 N   0  3  0  0  0  0  0  0  0  0  0  0
   -0.1519    4.4457    6.1905 N   0  3  0  0  0  0  0  0  0  0  0  0
   -2.7877    3.5971    2.1277 O   0  0  0  0  0  0  0  0  0  0  0  0
   -4.8411    5.2938    3.0996 O   0  0  0  0  0  0  0  0  0  0  0  0
   -0.4518    2.3144    2.6892 C   0  0  1  0  0  0  0  0  0  0  0  0
   -0.0553    0.8371    2.6709 C   0  0  1  0  0  0  0  0  0  0  0  0
    1.1629    0.6070    3.5526 C   0  0  0  0  0  0  0  0  0  0  0  0
    2.2862    1.5280    3.1050 C   0  0  1  0  0  0  0  0  0  0  0  0
    1.8054    2.9784    3.1299 C   0  0  1  0  0  0  0  0  0  0  0  0
    2.8600    3.9528    2.6374 C   0  0  0  0  0  0  0  0  0  0  0  0
   -1.1947   -0.0263    3.0617 N   0  3  0  0  0  0  0  0  0  0  0  0
    3.0137    3.8880    1.1644 N   0  3  0  0  0  0  0  0  0  0  0  0
   -0.8252    2.6960    3.9710 O   0  0  0  0  0  0  0  0  0  0  0  0
    3.4091    1.3750    3.9609 O   0  0  0  0  0  0  0  0  0  0  0  0
    0.6495    3.1339    2.2783 O   0  0  0  0  0  0  0  0  0  0  0  0
  1  2  1  0  0  0  0
  1 10  1  0  0  0  0
  1 21  1  1  0  0  0
  2  3  1  0  0  0  0
  2  7  1  1  0  0  0
  3  4  1  0  0  0  0
  3  8  1  6  0  0  0
  4  5  1  0  0  0  0
  4  9  1  1  0  0  0
  5  6  1  6  0  0  0
  5 10  1  0  0  0  0
  6 11  1  0  0  0  0
 12 13  1  0  0  0  0
 12 17  1  0  0  0  0
 12 18  1  6  0  0  0
 13 14  1  0  0  0  0
 14 15  1  0  0  0  0
 14 19  1  6  0  0  0
 15 16  1  0  0  0  0
 15 30  1  1  0  0  0
 16 17  1  0  0  0  0
 16 20  1  6  0  0  0
 17 21  1  1  0  0  0
 22 23  1  0  0  0  0
 22 30  1  1  0  0  0
 22 32  1  0  0  0  0
 23 24  1  0  0  0  0
 23 28  1  1  0  0  0
 24 25  1  0  0  0  0
 25 26  1  0  0  0  0
 25 31  1  1  0  0  0
 26 27  1  6  0  0  0
 26 32  1  0  0  0  0
 27 29  1  0  0  0  0
M  CHG  5   8   1  18   1  19   1  28   1  29   1
M  END
>  <CHROM.1>
-133.98433721,179.74957086,44.21677203,174.69271089,44.10173641,-172.14212001
39.80556759,-59.15048720,-166.79916152,-175.45461685,114.61478564,-169.83992763
-175.26896470,175.86538066,74.36115179,36.37427762,-2.78852780,4.18852327
2.81274355,-3.07168318,0.40830086,-2.19639418

>  <Name>
1tob

>  <RI>
0

>  <Rbt.Current_Directory>
/home/itssahil/PROJECTS/Mol_Feturizer/New_Systems/rnas/1tob

>  <Rbt.Executable>
rbdock ($Id: //depot/dev/client3/rdock/2013.1/src/exe/rbdock.cxx#4 $)

>  <Rbt.Library>
libRbt.so (2013.1, Build901 2013/11/27)

>  <Rbt.Parameter_File>
/export/apps/rDock/src/rDock_2013.1_src/data/scripts/dock_solv.prm

>  <Rbt.Receptor>
prm/blind_docking_20.prm

>  <SCORE>
-36.3371

>  <SCORE.INTER>
-36.7459

>  <SCORE.INTER.CONST>
1

>  <SCORE.INTER.POLAR>
-5.32468

>  <SCORE.INTER.ROT>
6

>  <SCORE.INTER.SOLV>
42.0029

>  <SCORE.INTER.VDW>
-28.3493

>  <SCORE.INTER.norm>
-1.14831

>  <SCORE.INTRA>
-5.72427

>  <SCORE.INTRA.DIHEDRAL>
-3.34073

>  <SCORE.INTRA.DIHEDRAL.0>
22.9177

>  <SCORE.INTRA.POLAR>
-1.06584

>  <SCORE.INTRA.POLAR.0>
-0.311208

>  <SCORE.INTRA.REPUL>
0

>  <SCORE.INTRA.REPUL.0>
0

>  <SCORE.INTRA.SOLV>
-2.12024

>  <SCORE.INTRA.SOLV.lig_0>
-132.657

>  <SCORE.INTRA.VDW>
0.630084

>  <SCORE.INTRA.VDW.0>
-4.68867

>  <SCORE.INTRA.norm>
-0.178883

>  <SCORE.RESTR>
6.13308

>  <SCORE.RESTR.CAVITY>
6.13308

>  <SCORE.RESTR.norm>
0.191659

>  <SCORE.SYSTEM>
0

>  <SCORE.SYSTEM.CONST>
0

>  <SCORE.SYSTEM.DIHEDRAL>
0

>  <SCORE.SYSTEM.SOLV>
0

>  <SCORE.SYSTEM.norm>
0

>  <SCORE.heavy>
32

>  <SCORE.norm>
-1.13553

>  <RMSD>
9.171

$$$$
1tob
 OpenBabel11021811413D
libRbt.so/2013.1/901 2013/11/27
 32 34  0  0  0  0  0  0  0  0999 V2000
   -2.9769    6.7690    4.2085 C   0  0  2  0  0  0  0  0  0  0  0  0
   -4.1489    7.4671    4.8942 C   0  0  1  0  0  0  0  0  0  0  0  0
   -4.9126    8.3050    3.8778 C   0  0  2  0  0  0  0  0  0  0  0  0
   -3.9539    9.2777    3.2016 C   0  0  1  0  0  0  0  0  0  0  0  0
   -2.7913    8.5105    2.5778 C   0  0  1  0  0  0  0  0  0  0  0  0
   -1.7606    9.4311    1.9544 C   0  0  0  0  0  0  0  0  0  0  0  0
   -5.0168    6.4981    5.4647 O   0  0  0  0  0  0  0  0  0  0  0  0
   -6.0529    9.0028    4.5103 N   0  3  0  0  0  0  0  0  0  0  0  0
   -4.6439   10.0165    2.2025 O   0  0  0  0  0  0  0  0  0  0  0  0
   -2.1147    7.7307    3.5873 O   0  0  0  0  0  0  0  0  0  0  0  0
   -0.6731    8.6983    1.4082 O   0  0  0  0  0  0  0  0  0  0  0  0
   -3.5334    3.7097    2.2189 C   0  0  2  0  0  0  0  0  0  0  0  0
   -2.9045    2.3233    2.2449 C   0  0  0  0  0  0  0  0  0  0  0  0
   -1.4062    2.4106    1.9533 C   0  0  1  0  0  0  0  0  0  0  0  0
   -0.7285    3.2905    3.0013 C   0  0  2  0  0  0  0  0  0  0  0  0
   -1.3536    4.6865    2.9952 C   0  0  1  0  0  0  0  0  0  0  0  0
   -2.8561    4.5905    3.2576 C   0  0  1  0  0  0  0  0  0  0  0  0
   -4.9771    3.6350    2.5330 N   0  3  0  0  0  0  0  0  0  0  0  0
   -0.8219    1.0455    1.8978 N   0  3  0  0  0  0  0  0  0  0  0  0
   -0.7394    5.4938    3.9907 O   0  0  0  0  0  0  0  0  0  0  0  0
   -3.4409    5.9051    3.2342 O   0  0  0  0  0  0  0  0  0  0  0  0
    1.4869    2.4367    3.3573 C   0  0  1  0  0  0  0  0  0  0  0  0
    1.9870    2.9682    4.7017 C   0  0  1  0  0  0  0  0  0  0  0  0
    2.8653    4.1924    4.4911 C   0  0  0  0  0  0  0  0  0  0  0  0
    3.9939    3.8407    3.5356 C   0  0  1  0  0  0  0  0  0  0  0  0
    3.4144    3.2987    2.2295 C   0  0  1  0  0  0  0  0  0  0  0  0
    4.4886    2.8705    1.2462 C   0  0  0  0  0  0  0  0  0  0  0  0
    0.8571    3.2466    5.6194 N   0  3  0  0  0  0  0  0  0  0  0  0
    5.0166    1.5239    1.5710 N   0  3  0  0  0  0  0  0  0  0  0  0
    0.6857    3.3841    2.7339 O   0  0  0  0  0  0  0  0  0  0  0  0
    4.7845    4.9911    3.2743 O   0  0  0  0  0  0  0  0  0  0  0  0
    2.5911    2.1419    2.4930 O   0  0  0  0  0  0  0  0  0  0  0  0
  1  2  1  0  0  0  0
  1 10  1  0  0  0  0
  1 21  1  6  0  0  0
  2  3  1  0  0  0  0
  2  7  1  6  0  0  0
  3  4  1  0  0  0  0
  3  8  1  1  0  0  0
  4  5  1  0  0  0  0
  4  9  1  6  0  0  0
  5  6  1  1  0  0  0
  5 10  1  0  0  0  0
  6 11  1  0  0  0  0
 12 13  1  0  0  0  0
 12 17  1  0  0  0  0
 12 18  1  1  0  0  0
 13 14  1  0  0  0  0
 14 15  1  0  0  0  0
 14 19  1  1  0  0  0
 15 16  1  0  0  0  0
 15 30  1  6  0  0  0
 16 17  1  0  0  0  0
 16 20  1  1  0  0  0
 17 21  1  6  0  0  0
 22 23  1  0  0  0  0
 22 30  1  6  0  0  0
 22 32  1  0  0  0  0
 23 24  1  0  0  0  0
 23 28  1  1  0  0  0
 24 25  1  0  0  0  0
 25 26  1  0  0  0  0
 25 31  1  6  0  0  0
 26 27  1  6  0  0  0
 26 32  1  0  0  0  0
 27 29  1  0  0  0  0
M  CHG  5   8   1  18   1  19   1  28   1  29   1
M  END
>  <CHROM.1>
-132.66768694,119.93429775,-51.11749636,69.38353897,178.61396767,65.42640897
-38.06774695,61.14430639,-91.33860584,-76.05554604,175.22047576,-91.93460989
-64.73966377,59.54377951,80.52739363,-163.39292072,-0.93522424,5.12676599
3.14864750,-2.52380555,-0.07415894,-3.10731742

>  <Name>
1tob

>  <RI>
0

>  <Rbt.Current_Directory>
/home/itssahil/PROJECTS/Mol_Feturizer/New_Systems/rnas/1tob

>  <Rbt.Executable>
rbdock ($Id: //depot/dev/client3/rdock/2013.1/src/exe/rbdock.cxx#4 $)

>  <Rbt.Library>
libRbt.so (2013.1, Build901 2013/11/27)

>  <Rbt.Parameter_File>
/export/apps/rDock/src/rDock_2013.1_src/data/scripts/dock_solv.prm

>  <Rbt.Receptor>
prm/blind_docking_40.prm

>  <SCORE>
-21.8064

>  <SCORE.INTER>
-33.5847

>  <SCORE.INTER.CONST>
1

>  <SCORE.INTER.POLAR>
-5.37119

>  <SCORE.INTER.ROT>
6

>  <SCORE.INTER.SOLV>
37.275

>  <SCORE.INTER.VDW>
-24.5108

>  <SCORE.INTER.norm>
-1.04952

>  <SCORE.INTRA>
4.34337

>  <SCORE.INTRA.DIHEDRAL>
3.96342

>  <SCORE.INTRA.DIHEDRAL.0>
22.9177

>  <SCORE.INTRA.POLAR>
0.31105

>  <SCORE.INTRA.POLAR.0>
-0.311208

>  <SCORE.INTRA.REPUL>
0

>  <SCORE.INTRA.REPUL.0>
0

>  <SCORE.INTRA.SOLV>
-2.21817

>  <SCORE.INTRA.SOLV.lig_0>
-132.657

>  <SCORE.INTRA.VDW>
2.41318

>  <SCORE.INTRA.VDW.0>
-4.68867

>  <SCORE.INTRA.norm>
0.13573

>  <SCORE.RESTR>
7.43495

>  <SCORE.RESTR.CAVITY>
7.43495

>  <SCORE.RESTR.norm>
0.232342

>  <SCORE.SYSTEM>
0

>  <SCORE.SYSTEM.CONST>
0

>  <SCORE.SYSTEM.DIHEDRAL>
0

>  <SCORE.SYSTEM.SOLV>
0

>  <SCORE.SYSTEM.norm>
0

>  <SCORE.heavy>
32

>  <SCORE.norm>
-0.681449

>  <RMSD>
9.175

$$$$
1tob
 OpenBabel11021811413D
libRbt.so/2013.1/901 2013/11/27
 32 34  0  0  0  0  0  0  0  0999 V2000
   -5.1005    6.1658    1.8852 C   0  0  2  0  0  0  0  0  0  0  0  0
   -6.4795    6.8067    2.0216 C   0  0  1  0  0  0  0  0  0  0  0  0
   -7.5512    5.7253    2.0072 C   0  0  2  0  0  0  0  0  0  0  0  0
   -7.4072    4.8871    0.7426 C   0  0  1  0  0  0  0  0  0  0  0  0
   -5.9942    4.3169    0.6567 C   0  0  1  0  0  0  0  0  0  0  0  0
   -5.7641    3.5346   -0.6214 C   0  0  0  0  0  0  0  0  0  0  0  0
   -6.5511    7.5356    3.2386 O   0  0  0  0  0  0  0  0  0  0  0  0
   -8.9032    6.3120    2.1302 N   0  3  0  0  0  0  0  0  0  0  0  0
   -8.3598    3.8324    0.7537 O   0  0  0  0  0  0  0  0  0  0  0  0
   -5.0259    5.3878    0.6838 O   0  0  0  0  0  0  0  0  0  0  0  0
   -6.3674    4.1744   -1.7371 O   0  0  0  0  0  0  0  0  0  0  0  0
   -3.7274    5.7877    5.0543 C   0  0  2  0  0  0  0  0  0  0  0  0
   -2.3554    5.9496    5.6944 C   0  0  0  0  0  0  0  0  0  0  0  0
   -1.5252    4.6794    5.5073 C   0  0  1  0  0  0  0  0  0  0  0  0
   -1.3548    4.3910    4.0175 C   0  0  2  0  0  0  0  0  0  0  0  0
   -2.7245    4.2331    3.3556 C   0  0  1  0  0  0  0  0  0  0  0  0
   -3.5607    5.4941    3.5713 C   0  0  1  0  0  0  0  0  0  0  0  0
   -4.5233    7.0257    5.2035 N   0  3  0  0  0  0  0  0  0  0  0  0
   -0.2228    4.8191    6.2088 N   0  3  0  0  0  0  0  0  0  0  0  0
   -2.5624    3.9926    1.9642 O   0  0  0  0  0  0  0  0  0  0  0  0
   -4.8538    5.3329    2.9606 O   0  0  0  0  0  0  0  0  0  0  0  0
   -0.2025    2.9085    2.5213 C   0  0  1  0  0  0  0  0  0  0  0  0
   -0.0693    1.3975    2.3240 C   0  0  1  0  0  0  0  0  0  0  0  0
    1.0376    0.8455    3.2096 C   0  0  0  0  0  0  0  0  0  0  0  0
    2.3281    1.5966    2.9251 C   0  0  1  0  0  0  0  0  0  0  0  0
    2.1069    3.0958    3.1226 C   0  0  1  0  0  0  0  0  0  0  0  0
    3.3417    3.9169    2.7982 C   0  0  0  0  0  0  0  0  0  0  0  0
   -1.3623    0.7124    2.5592 N   0  3  0  0  0  0  0  0  0  0  0  0
    4.4768    3.5639    3.6839 N   0  3  0  0  0  0  0  0  0  0  0  0
   -0.5764    3.1915    3.8283 O   0  0  0  0  0  0  0  0  0  0  0  0
    3.3563    1.1402    3.7919 O   0  0  0  0  0  0  0  0  0  0  0  0
    1.0465    3.5601    2.2592 O   0  0  0  0  0  0  0  0  0  0  0  0
  1  2  1  0  0  0  0
  1 10  1  0  0  0  0
  1 21  1  1  0  0  0
  2  3  1  0  0  0  0
  2  7  1  1  0  0  0
  3  4  1  0  0  0  0
  3  8  1  6  0  0  0
  4  5  1  0  0  0  0
  4  9  1  1  0  0  0
  5  6  1  6  0  0  0
  5 10  1  0  0  0  0
  6 11  1  0  0  0  0
 12 13  1  0  0  0  0
 12 17  1  0  0  0  0
 12 18  1  6  0  0  0
 13 14  1  0  0  0  0
 14 15  1  0  0  0  0
 14 19  1  6  0  0  0
 15 16  1  0  0  0  0
 15 30  1  1  0  0  0
 16 17  1  0  0  0  0
 16 20  1  6  0  0  0
 17 21  1  1  0  0  0
 22 23  1  0  0  0  0
 22 30  1  1  0  0  0
 22 32  1  0  0  0  0
 23 24  1  0  0  0  0
 23 28  1  1  0  0  0
 24 25  1  0  0  0  0
 25 26  1  0  0  0  0
 25 31  1  1  0  0  0
 26 27  1  6  0  0  0
 26 32  1  0  0  0  0
 27 29  1  0  0  0  0
M  CHG  5   8   1  18   1  19   1  28   1  29   1
M  END
>  <CHROM.1>
-133.06916230,75.75015867,-70.84606019,72.81035863,40.31321344,-174.00335638
-71.02505269,17.48536836,-172.09318755,-168.27367349,124.24679469,-150.46024198
173.02530321,-49.47371810,-61.59596627,175.28017152,-2.68852412,4.26389385
2.75563792,-3.11821598,0.37854181,-2.24490794

>  <Name>
1tob

>  <RI>
0

>  <Rbt.Current_Directory>
/home/itssahil/PROJECTS/Mol_Feturizer/New_Systems/rnas/1tob

>  <Rbt.Executable>
rbdock ($Id: //depot/dev/client3/rdock/2013.1/src/exe/rbdock.cxx#4 $)

>  <Rbt.Library>
libRbt.so (2013.1, Build901 2013/11/27)

>  <Rbt.Parameter_File>
/export/apps/rDock/src/rDock_2013.1_src/data/scripts/dock_solv.prm

>  <Rbt.Receptor>
prm/blind_docking_80.prm

>  <SCORE>
-26.8605

>  <SCORE.INTER>
-28.6501

>  <SCORE.INTER.CONST>
1

>  <SCORE.INTER.POLAR>
-3.86174

>  <SCORE.INTER.ROT>
6

>  <SCORE.INTER.SOLV>
32.2107

>  <SCORE.INTER.VDW>
-24.5645

>  <SCORE.INTER.norm>
-0.895316

>  <SCORE.INTRA>
-3.22298

>  <SCORE.INTRA.DIHEDRAL>
2.65819

>  <SCORE.INTRA.DIHEDRAL.0>
22.9177

>  <SCORE.INTRA.POLAR>
-1.64236

>  <SCORE.INTRA.POLAR.0>
-0.311208

>  <SCORE.INTRA.REPUL>
0

>  <SCORE.INTRA.REPUL.0>
0

>  <SCORE.INTRA.SOLV>
-0.634705

>  <SCORE.INTRA.SOLV.lig_0>
-132.657

>  <SCORE.INTRA.VDW>
1.3493

>  <SCORE.INTRA.VDW.0>
-4.68867

>  <SCORE.INTRA.norm>
-0.100718

>  <SCORE.RESTR>
5.0126

>  <SCORE.RESTR.CAVITY>
5.0126

>  <SCORE.RESTR.norm>
0.156644

>  <SCORE.SYSTEM>
0

>  <SCORE.SYSTEM.CONST>
0

>  <SCORE.SYSTEM.DIHEDRAL>
0

>  <SCORE.SYSTEM.SOLV>
0

>  <SCORE.SYSTEM.norm>
0

>  <SCORE.heavy>
32

>  <SCORE.norm>
-0.83939

>  <RMSD>
9.194

$$$$
1tob
 OpenBabel11021811413D
libRbt.so/2013.1/901 2013/11/27
 32 34  0  0  0  0  0  0  0  0999 V2000
   -3.6503    3.0229    2.0021 C   0  0  2  0  0  0  0  0  0  0  0  0
   -4.6218    3.7768    1.0971 C   0  0  1  0  0  0  0  0  0  0  0  0
   -4.2127    5.2410    1.0126 C   0  0  2  0  0  0  0  0  0  0  0  0
   -4.1328    5.8258    2.4177 C   0  0  1  0  0  0  0  0  0  0  0  0
   -3.1777    4.9959    3.2711 C   0  0  1  0  0  0  0  0  0  0  0  0
   -3.1140    5.4828    4.7054 C   0  0  0  0  0  0  0  0  0  0  0  0
   -4.6121    3.2013   -0.2014 O   0  0  0  0  0  0  0  0  0  0  0  0
   -5.1383    6.0047    0.1481 N   0  3  0  0  0  0  0  0  0  0  0  0
   -3.6850    7.1731    2.3530 O   0  0  0  0  0  0  0  0  0  0  0  0
   -3.6130    3.6195    3.3047 O   0  0  0  0  0  0  0  0  0  0  0  0
   -2.2070    4.7079    5.4767 O   0  0  0  0  0  0  0  0  0  0  0  0
   -1.3923    1.0634    2.4201 C   0  0  2  0  0  0  0  0  0  0  0  0
   -0.2853    0.5644    3.3387 C   0  0  0  0  0  0  0  0  0  0  0  0
    1.0821    1.0063    2.8168 C   0  0  1  0  0  0  0  0  0  0  0  0
    1.1371    2.5306    2.7443 C   0  0  2  0  0  0  0  0  0  0  0  0
    0.0260    3.0509    1.8310 C   0  0  1  0  0  0  0  0  0  0  0  0
   -1.3362    2.5813    2.3408 C   0  0  1  0  0  0  0  0  0  0  0  0
   -2.7201    0.6669    2.9379 N   0  3  0  0  0  0  0  0  0  0  0  0
    2.1566    0.4419    3.6741 N   0  3  0  0  0  0  0  0  0  0  0  0
    0.0629    4.4710    1.7881 O   0  0  0  0  0  0  0  0  0  0  0  0
   -2.3757    3.0600    1.4684 O   0  0  0  0  0  0  0  0  0  0  0  0
    2.7873    4.2639    2.5538 C   0  0  1  0  0  0  0  0  0  0  0  0
    4.3089    4.3756    2.6639 C   0  0  1  0  0  0  0  0  0  0  0  0
    4.8194    3.5142    3.8092 C   0  0  0  0  0  0  0  0  0  0  0  0
    4.1018    3.9074    5.0902 C   0  0  1  0  0  0  0  0  0  0  0  0
    2.5910    3.7905    4.8921 C   0  0  1  0  0  0  0  0  0  0  0  0
    1.8052    4.2250    6.1160 C   0  0  0  0  0  0  0  0  0  0  0  0
    4.9635    4.0354    1.3786 N   0  3  0  0  0  0  0  0  0  0  0  0
    0.4434    3.6393    6.1232 N   0  3  0  0  0  0  0  0  0  0  0  0
    2.4219    2.9596    2.2485 O   0  0  0  0  0  0  0  0  0  0  0  0
    4.5171    3.0666    6.1566 O   0  0  0  0  0  0  0  0  0  0  0  0
    2.1672    4.6268    3.7937 O   0  0  0  0  0  0  0  0  0  0  0  0
  1  2  1  0  0  0  0
  1 10  1  0  0  0  0
  1 21  1  6  0  0  0
  2  3  1  0  0  0  0
  2  7  1  6  0  0  0
  3  4  1  0  0  0  0
  3  8  1  6  0  0  0
  4  5  1  0  0  0  0
  4  9  1  6  0  0  0
  5  6  1  1  0  0  0
  5 10  1  0  0  0  0
  6 11  1  0  0  0  0
 12 13  1  0  0  0  0
 12 17  1  0  0  0  0
 12 18  1  1  0  0  0
 13 14  1  0  0  0  0
 14 15  1  0  0  0  0
 14 19  1  1  0  0  0
 15 16  1  0  0  0  0
 15 30  1  6  0  0  0
 16 17  1  0  0  0  0
 16 20  1  1  0  0  0
 17 21  1  6  0  0  0
 22 23  1  0  0  0  0
 22 30  1  1  0  0  0
 22 32  1  0  0  0  0
 23 24  1  0  0  0  0
 23 28  1  6  0  0  0
 24 25  1  0  0  0  0
 25 26  1  0  0  0  0
 25 31  1  1  0  0  0
 26 27  1  1  0  0  0
 26 32  1  0  0  0  0
 27 29  1  0  0  0  0
M  CHG  5   8   1  18   1  19   1  28   1  29   1
M  END
>  <CHROM.1>
169.90968061,-159.88810031,-75.97811914,70.50156810,-179.24114664,-40.66115264
-19.31392293,-176.73371584,-158.59663763,-62.11649683,74.81537135,150.13879607
-65.81308995,74.25463695,-158.08953758,-73.49974003,-0.35825487,3.60151182
2.99609503,3.12102749,-0.32716137,0.42963454

>  <Name>
1tob

>  <RI>
0

>  <Rbt.Current_Directory>
/home/itssahil/PROJECTS/Mol_Feturizer/New_Systems/rnas/1tob

>  <Rbt.Executable>
rbdock ($Id: //depot/dev/client3/rdock/2013.1/src/exe/rbdock.cxx#4 $)

>  <Rbt.Library>
libRbt.so (2013.1, Build901 2013/11/27)

>  <Rbt.Parameter_File>
/export/apps/rDock/src/rDock_2013.1_src/data/scripts/dock_solv.prm

>  <Rbt.Receptor>
prm/blind_docking_80.prm

>  <SCORE>
-17.1827

>  <SCORE.INTER>
-23.1806

>  <SCORE.INTER.CONST>
1

>  <SCORE.INTER.POLAR>
-3.24876

>  <SCORE.INTER.ROT>
6

>  <SCORE.INTER.SOLV>
38.8801

>  <SCORE.INTER.VDW>
-25.1846

>  <SCORE.INTER.norm>
-0.724395

>  <SCORE.INTRA>
-0.341257

>  <SCORE.INTRA.DIHEDRAL>
-5.05922

>  <SCORE.INTRA.DIHEDRAL.0>
22.9177

>  <SCORE.INTRA.POLAR>
-1.29014

>  <SCORE.INTRA.POLAR.0>
-0.311208

>  <SCORE.INTRA.REPUL>
0.00764725

>  <SCORE.INTRA.REPUL.0>
0

>  <SCORE.INTRA.SOLV>
2.26059

>  <SCORE.INTRA.SOLV.lig_0>
-132.657

>  <SCORE.INTRA.VDW>
5.40631

>  <SCORE.INTRA.VDW.0>
-4.68867

>  <SCORE.INTRA.norm>
-0.0106643

>  <SCORE.RESTR>
6.33922

>  <SCORE.RESTR.CAVITY>
6.33922

>  <SCORE.RESTR.norm>
0.198101

>  <SCORE.SYSTEM>
0

>  <SCORE.SYSTEM.CONST>
0

>  <SCORE.SYSTEM.DIHEDRAL>
0

>  <SCORE.SYSTEM.SOLV>
0

>  <SCORE.SYSTEM.norm>
0

>  <SCORE.heavy>
32

>  <SCORE.norm>
-0.536959

>  <RMSD>
9.195

$$$$
1tob
 OpenBabel11021811413D
libRbt.so/2013.1/901 2013/11/27
 32 34  0  0  0  0  0  0  0  0999 V2000
   -5.1457    7.1185    2.2864 C   0  0  2  0  0  0  0  0  0  0  0  0
   -6.1406    8.2167    2.6545 C   0  0  1  0  0  0  0  0  0  0  0  0
   -7.5148    7.6052    2.8911 C   0  0  2  0  0  0  0  0  0  0  0  0
   -7.9339    6.8109    1.6598 C   0  0  1  0  0  0  0  0  0  0  0  0
   -6.8724    5.7645    1.3318 C   0  0  1  0  0  0  0  0  0  0  0  0
   -7.1954    4.9911    0.0685 C   0  0  0  0  0  0  0  0  0  0  0  0
   -5.7047    8.8842    3.8300 O   0  0  0  0  0  0  0  0  0  0  0  0
   -8.5076    8.6434    3.2432 N   0  3  0  0  0  0  0  0  0  0  0  0
   -9.1850    6.1798    1.8976 O   0  0  0  0  0  0  0  0  0  0  0  0
   -5.5939    6.4039    1.1278 O   0  0  0  0  0  0  0  0  0  0  0  0
   -8.4203    4.2824    0.1927 O   0  0  0  0  0  0  0  0  0  0  0  0
   -3.7149    6.2911    5.3689 C   0  0  2  0  0  0  0  0  0  0  0  0
   -2.3049    6.1434    5.9239 C   0  0  0  0  0  0  0  0  0  0  0  0
   -1.7434    4.7598    5.5953 C   0  0  1  0  0  0  0  0  0  0  0  0
   -1.7116    4.5638    4.0812 C   0  0  2  0  0  0  0  0  0  0  0  0
   -3.1199    4.7167    3.5046 C   0  0  1  0  0  0  0  0  0  0  0  0
   -3.6875    6.0902    3.8615 C   0  0  1  0  0  0  0  0  0  0  0  0
   -4.2510    7.6398    5.6552 N   0  3  0  0  0  0  0  0  0  0  0  0
   -0.4023    4.5986    6.2146 N   0  3  0  0  0  0  0  0  0  0  0  0
   -3.0819    4.5614    2.0924 O   0  0  0  0  0  0  0  0  0  0  0  0
   -5.0185    6.2215    3.3305 O   0  0  0  0  0  0  0  0  0  0  0  0
   -0.5922    3.1341    2.5106 C   0  0  1  0  0  0  0  0  0  0  0  0
   -0.9113    1.7654    1.9067 C   0  0  1  0  0  0  0  0  0  0  0  0
   -0.3232    0.6584    2.7688 C   0  0  0  0  0  0  0  0  0  0  0  0
    1.1679    0.8971    2.9419 C   0  0  1  0  0  0  0  0  0  0  0  0
    1.4032    2.2889    3.5274 C   0  0  1  0  0  0  0  0  0  0  0  0
    2.8773    2.6203    3.6739 C   0  0  0  0  0  0  0  0  0  0  0  0
   -2.3700    1.5974    1.7060 N   0  3  0  0  0  0  0  0  0  0  0  0
    3.5647    2.6310    2.3605 N   0  3  0  0  0  0  0  0  0  0  0  0
   -1.1875    3.2592    3.7588 O   0  0  0  0  0  0  0  0  0  0  0  0
    1.7206   -0.0897    3.8007 O   0  0  0  0  0  0  0  0  0  0  0  0
    0.8229    3.2945    2.6686 O   0  0  0  0  0  0  0  0  0  0  0  0
  1  2  1  0  0  0  0
  1 10  1  0  0  0  0
  1 21  1  1  0  0  0
  2  3  1  0  0  0  0
  2  7  1  1  0  0  0
  3  4  1  0  0  0  0
  3  8  1  6  0  0  0
  4  5  1  0  0  0  0
  4  9  1  1  0  0  0
  5  6  1  6  0  0  0
  5 10  1  0  0  0  0
  6 11  1  0  0  0  0
 12 13  1  0  0  0  0
 12 17  1  0  0  0  0
 12 18  1  6  0  0  0
 13 14  1  0  0  0  0
 14 15  1  0  0  0  0
 14 19  1  6  0  0  0
 15 16  1  0  0  0  0
 15 30  1  1  0  0  0
 16 17  1  0  0  0  0
 16 20  1  6  0  0  0
 17 21  1  1  0  0  0
 22 23  1  0  0  0  0
 22 30  1  1  0  0  0
 22 32  1  0  0  0  0
 23 24  1  0  0  0  0
 23 28  1  1  0  0  0
 24 25  1  0  0  0  0
 25 26  1  0  0  0  0
 25 31  1  1  0  0  0
 26 27  1  6  0  0  0
 26 32  1  0  0  0  0
 27 29  1  0  0  0  0
M  CHG  5   8   1  18   1  19   1  28   1  29   1
M  END
>  <CHROM.1>
-120.65076925,176.38391100,-64.76930539,-50.40476597,-61.13754579,-59.29874574
-86.00858111,-6.27732566,-154.35312972,-58.25211245,127.43576595,-142.61287333
-4.76768840,-81.49674136,62.03667157,62.80421172,-3.18036048,4.77284685,3.07477936
-2.83038970,0.44832803,-2.40506751

>  <Name>
1tob

>  <RI>
0

>  <Rbt.Current_Directory>
/home/itssahil/PROJECTS/Mol_Feturizer/New_Systems/rnas/1tob

>  <Rbt.Executable>
rbdock ($Id: //depot/dev/client3/rdock/2013.1/src/exe/rbdock.cxx#4 $)

>  <Rbt.Library>
libRbt.so (2013.1, Build901 2013/11/27)

>  <Rbt.Parameter_File>
/export/apps/rDock/src/rDock_2013.1_src/data/scripts/dock_solv.prm

>  <Rbt.Receptor>
prm/blind_docking_60.prm

>  <SCORE>
-34.6505

>  <SCORE.INTER>
-38.4006

>  <SCORE.INTER.CONST>
1

>  <SCORE.INTER.POLAR>
-5.48737

>  <SCORE.INTER.ROT>
6

>  <SCORE.INTER.SOLV>
30.2687

>  <SCORE.INTER.VDW>
-24.9987

>  <SCORE.INTER.norm>
-1.20002

>  <SCORE.INTRA>
-0.0105708

>  <SCORE.INTRA.DIHEDRAL>
9.92384

>  <SCORE.INTRA.DIHEDRAL.0>
22.9177

>  <SCORE.INTRA.POLAR>
-1.95022

>  <SCORE.INTRA.POLAR.0>
-0.311208

>  <SCORE.INTRA.REPUL>
0

>  <SCORE.INTRA.REPUL.0>
0

>  <SCORE.INTRA.SOLV>
0.558612

>  <SCORE.INTRA.SOLV.lig_0>
-132.657

>  <SCORE.INTRA.VDW>
1.37894

>  <SCORE.INTRA.VDW.0>
-4.68867

>  <SCORE.INTRA.norm>
-0.000330338

>  <SCORE.RESTR>
3.76064

>  <SCORE.RESTR.CAVITY>
3.76064

>  <SCORE.RESTR.norm>
0.11752

>  <SCORE.SYSTEM>
0

>  <SCORE.SYSTEM.CONST>
0

>  <SCORE.SYSTEM.DIHEDRAL>
0

>  <SCORE.SYSTEM.SOLV>
0

>  <SCORE.SYSTEM.norm>
0

>  <SCORE.heavy>
32

>  <SCORE.norm>
-1.08283

>  <RMSD>
9.218

$$$$
1tob
 OpenBabel11021811413D
libRbt.so/2013.1/901 2013/11/27
 32 34  0  0  0  0  0  0  0  0999 V2000
   -4.6769    6.4194    2.1150 C   0  0  2  0  0  0  0  0  0  0  0  0
   -4.6599    7.9223    2.3841 C   0  0  1  0  0  0  0  0  0  0  0  0
   -5.8818    8.3098    3.2058 C   0  0  2  0  0  0  0  0  0  0  0  0
   -7.1430    7.8486    2.4853 C   0  0  1  0  0  0  0  0  0  0  0  0
   -7.0667    6.3484    2.2153 C   0  0  1  0  0  0  0  0  0  0  0  0
   -8.2608    5.8417    1.4305 C   0  0  0  0  0  0  0  0  0  0  0  0
   -3.4778    8.2694    3.0910 O   0  0  0  0  0  0  0  0  0  0  0  0
   -5.9020    9.7631    3.4796 N   0  3  0  0  0  0  0  0  0  0  0  0
   -8.2851    8.1449    3.2777 O   0  0  0  0  0  0  0  0  0  0  0  0
   -5.8855    6.0443    1.4423 O   0  0  0  0  0  0  0  0  0  0  0  0
   -8.1052    4.4756    1.0733 O   0  0  0  0  0  0  0  0  0  0  0  0
   -3.3485    5.9851    5.3578 C   0  0  2  0  0  0  0  0  0  0  0  0
   -1.9538    5.8790    5.9593 C   0  0  0  0  0  0  0  0  0  0  0  0
   -1.4042    4.4626    5.7879 C   0  0  1  0  0  0  0  0  0  0  0  0
   -1.3401    4.1117    4.3031 C   0  0  2  0  0  0  0  0  0  0  0  0
   -2.7325    4.2208    3.6797 C   0  0  1  0  0  0  0  0  0  0  0  0
   -3.2890    5.6300    3.8800 C   0  0  1  0  0  0  0  0  0  0  0  0
   -3.8722    7.3621    5.4913 N   0  3  0  0  0  0  0  0  0  0  0  0
   -0.0801    4.3505    6.4531 N   0  3  0  0  0  0  0  0  0  0  0  0
   -2.6639    3.9207    2.2921 O   0  0  0  0  0  0  0  0  0  0  0  0
   -4.6054    5.7214    3.3060 O   0  0  0  0  0  0  0  0  0  0  0  0
   -0.6501    2.3573    2.8166 C   0  0  1  0  0  0  0  0  0  0  0  0
   -0.2962    0.8696    2.7776 C   0  0  1  0  0  0  0  0  0  0  0  0
    1.0297    0.6243    3.4819 C   0  0  0  0  0  0  0  0  0  0  0  0
    2.0994    1.5049    2.8567 C   0  0  1  0  0  0  0  0  0  0  0  0
    1.6622    2.9681    2.9150 C   0  0  1  0  0  0  0  0  0  0  0  0
    2.6588    3.9030    2.2539 C   0  0  0  0  0  0  0  0  0  0  0  0
   -1.3885    0.0458    3.3475 N   0  3  0  0  0  0  0  0  0  0  0  0
    4.0537    3.5504    2.6109 N   0  3  0  0  0  0  0  0  0  0  0  0
   -0.8269    2.7750    4.1290 O   0  0  0  0  0  0  0  0  0  0  0  0
    3.3292    1.3387    3.5473 O   0  0  0  0  0  0  0  0  0  0  0  0
    0.4005    3.1378    2.2334 O   0  0  0  0  0  0  0  0  0  0  0  0
  1  2  1  0  0  0  0
  1 10  1  0  0  0  0
  1 21  1  1  0  0  0
  2  3  1  0  0  0  0
  2  7  1  1  0  0  0
  3  4  1  0  0  0  0
  3  8  1  6  0  0  0
  4  5  1  0  0  0  0
  4  9  1  1  0  0  0
  5  6  1  6  0  0  0
  5 10  1  0  0  0  0
  6 11  1  0  0  0  0
 12 13  1  0  0  0  0
 12 17  1  0  0  0  0
 12 18  1  6  0  0  0
 13 14  1  0  0  0  0
 14 15  1  0  0  0  0
 14 19  1  6  0  0  0
 15 16  1  0  0  0  0
 15 30  1  1  0  0  0
 16 17  1  0  0  0  0
 16 20  1  6  0  0  0
 17 21  1  1  0  0  0
 22 23  1  0  0  0  0
 22 30  1  1  0  0  0
 22 32  1  0  0  0  0
 23 24  1  0  0  0  0
 23 28  1  1  0  0  0
 24 25  1  0  0  0  0
 25 26  1  0  0  0  0
 25 31  1  1  0  0  0
 26 27  1  6  0  0  0
 26 32  1  0  0  0  0
 27 29  1  0  0  0  0
M  CHG  5   8   1  18   1  19   1  28   1  29   1
M  END
>  <CHROM.1>
-78.90052751,59.39433872,-171.44445478,-58.46794327,174.04848067,172.11814502
-36.35806638,52.13342527,-176.65866343,-56.73604821,132.34170812,-171.95114512
-56.76625572,57.01208759,-42.91212161,-142.60904743,-2.57682353,4.82440464
3.30498799,2.67683611,-0.33760814,0.46508395

>  <Name>
1tob

>  <RI>
0

>  <Rbt.Current_Directory>
/home/itssahil/PROJECTS/Mol_Feturizer/New_Systems/rnas/1tob

>  <Rbt.Executable>
rbdock ($Id: //depot/dev/client3/rdock/2013.1/src/exe/rbdock.cxx#4 $)

>  <Rbt.Library>
libRbt.so (2013.1, Build901 2013/11/27)

>  <Rbt.Parameter_File>
/export/apps/rDock/src/rDock_2013.1_src/data/scripts/dock_solv.prm

>  <Rbt.Receptor>
prm/blind_docking_20.prm

>  <SCORE>
-23.7889

>  <SCORE.INTER>
-29.0515

>  <SCORE.INTER.CONST>
1

>  <SCORE.INTER.POLAR>
-3.52199

>  <SCORE.INTER.ROT>
6

>  <SCORE.INTER.SOLV>
28.8098

>  <SCORE.INTER.VDW>
-24.831

>  <SCORE.INTER.norm>
-0.907861

>  <SCORE.INTRA>
-5.74959

>  <SCORE.INTRA.DIHEDRAL>
-8.70032

>  <SCORE.INTRA.DIHEDRAL.0>
22.9177

>  <SCORE.INTRA.POLAR>
-1.28804

>  <SCORE.INTRA.POLAR.0>
-0.311208

>  <SCORE.INTRA.REPUL>
0

>  <SCORE.INTRA.REPUL.0>
0

>  <SCORE.INTRA.SOLV>
0.664925

>  <SCORE.INTRA.SOLV.lig_0>
-132.657

>  <SCORE.INTRA.VDW>
2.64746

>  <SCORE.INTRA.VDW.0>
-4.68867

>  <SCORE.INTRA.norm>
-0.179675

>  <SCORE.RESTR>
11.0122

>  <SCORE.RESTR.CAVITY>
11.0122

>  <SCORE.RESTR.norm>
0.344132

>  <SCORE.SYSTEM>
0

>  <SCORE.SYSTEM.CONST>
0

>  <SCORE.SYSTEM.DIHEDRAL>
0

>  <SCORE.SYSTEM.SOLV>
0

>  <SCORE.SYSTEM.norm>
0

>  <SCORE.heavy>
32

>  <SCORE.norm>
-0.743403

>  <RMSD>
9.224

$$$$
1tob
 OpenBabel11021811413D
libRbt.so/2013.1/901 2013/11/27
 32 34  0  0  0  0  0  0  0  0999 V2000
   -4.2361    4.7301    3.7130 C   0  0  2  0  0  0  0  0  0  0  0  0
   -5.1510    5.2114    2.5894 C   0  0  1  0  0  0  0  0  0  0  0  0
   -4.7751    6.6333    2.1957 C   0  0  2  0  0  0  0  0  0  0  0  0
   -4.8241    7.5291    3.4277 C   0  0  1  0  0  0  0  0  0  0  0  0
   -3.9193    6.9612    4.5178 C   0  0  1  0  0  0  0  0  0  0  0  0
   -3.9842    7.7678    5.7999 C   0  0  0  0  0  0  0  0  0  0  0  0
   -5.0216    4.3532    1.4650 O   0  0  0  0  0  0  0  0  0  0  0  0
   -5.6477    7.1356    1.1124 N   0  3  0  0  0  0  0  0  0  0  0  0
   -4.4080    8.8437    3.0832 O   0  0  0  0  0  0  0  0  0  0  0  0
   -4.3196    5.6117    4.8398 O   0  0  0  0  0  0  0  0  0  0  0  0
   -5.1633    8.5581    5.8567 O   0  0  0  0  0  0  0  0  0  0  0  0
   -1.5750    2.7813    2.6794 C   0  0  2  0  0  0  0  0  0  0  0  0
   -0.7305    1.6527    3.2550 C   0  0  0  0  0  0  0  0  0  0  0  0
    0.4187    2.2177    4.0902 C   0  0  1  0  0  0  0  0  0  0  0  0
   -0.1420    3.0603    5.2336 C   0  0  2  0  0  0  0  0  0  0  0  0
   -1.0007    4.1956    4.6739 C   0  0  1  0  0  0  0  0  0  0  0  0
   -2.1300    3.6262    3.8158 C   0  0  1  0  0  0  0  0  0  0  0  0
   -2.7080    2.2400    1.8972 N   0  3  0  0  0  0  0  0  0  0  0  0
    1.2830    1.1104    4.5750 N   0  3  0  0  0  0  0  0  0  0  0  0
   -1.5434    4.9606    5.7417 O   0  0  0  0  0  0  0  0  0  0  0  0
   -2.9240    4.6996    3.2789 O   0  0  0  0  0  0  0  0  0  0  0  0
    1.5734    2.7101    6.8762 C   0  0  1  0  0  0  0  0  0  0  0  0
    1.3696    3.1277    8.3336 C   0  0  1  0  0  0  0  0  0  0  0  0
    2.0081    4.4850    8.5876 C   0  0  0  0  0  0  0  0  0  0  0  0
    3.4729    4.4326    8.1851 C   0  0  1  0  0  0  0  0  0  0  0  0
    3.5921    3.9879    6.7279 C   0  0  1  0  0  0  0  0  0  0  0  0
    5.0342    3.8562    6.2726 C   0  0  0  0  0  0  0  0  0  0  0  0
   -0.0670    3.1130    8.6973 N   0  3  0  0  0  0  0  0  0  0  0  0
    5.4969    5.0789    5.5736 N   0  3  0  0  0  0  0  0  0  0  0  0
    0.9337    3.6028    6.0265 O   0  0  0  0  0  0  0  0  0  0  0  0
    4.0678    5.7114    8.3517 O   0  0  0  0  0  0  0  0  0  0  0  0
    2.9684    2.6978    6.5489 O   0  0  0  0  0  0  0  0  0  0  0  0
  1  2  1  0  0  0  0
  1 10  1  0  0  0  0
  1 21  1  6  0  0  0
  2  3  1  0  0  0  0
  2  7  1  6  0  0  0
  3  4  1  0  0  0  0
  3  8  1  6  0  0  0
  4  5  1  0  0  0  0
  4  9  1  6  0  0  0
  5  6  1  1  0  0  0
  5 10  1  0  0  0  0
  6 11  1  0  0  0  0
 12 13  1  0  0  0  0
 12 17  1  0  0  0  0
 12 18  1  1  0  0  0
 13 14  1  0  0  0  0
 14 15  1  0  0  0  0
 14 19  1  1  0  0  0
 15 16  1  0  0  0  0
 15 30  1  6  0  0  0
 16 17  1  0  0  0  0
 16 20  1  1  0  0  0
 17 21  1  6  0  0  0
 22 23  1  0  0  0  0
 22 30  1  6  0  0  0
 22 32  1  0  0  0  0
 23 24  1  0  0  0  0
 23 28  1  6  0  0  0
 24 25  1  0  0  0  0
 25 26  1  0  0  0  0
 25 31  1  6  0  0  0
 26 27  1  1  0  0  0
 26 32  1  0  0  0  0
 27 29  1  0  0  0  0
M  CHG  5   8   1  18   1  19   1  28   1  29   1
M  END
>  <CHROM.1>
-144.73976786,78.19641320,-168.95544988,74.23444780,19.87641052,-161.91094722
179.30825741,-67.95686821,-75.08927853,85.17596751,121.88731254,-116.43366610
53.02728629,170.95396336,-96.20574870,-169.08658159,-1.01691784,4.61846536
4.92587215,-3.12221331,-0.54609013,0.63145560

>  <Name>
1tob

>  <RI>
0

>  <Rbt.Current_Directory>
/home/itssahil/PROJECTS/Mol_Feturizer/New_Systems/rnas/1tob

>  <Rbt.Executable>
rbdock ($Id: //depot/dev/client3/rdock/2013.1/src/exe/rbdock.cxx#4 $)

>  <Rbt.Library>
libRbt.so (2013.1, Build901 2013/11/27)

>  <Rbt.Parameter_File>
/export/apps/rDock/src/rDock_2013.1_src/data/scripts/dock_solv.prm

>  <Rbt.Receptor>
prm/pocket_docking_7.prm

>  <SCORE>
-40.3648

>  <SCORE.INTER>
-41.6989

>  <SCORE.INTER.CONST>
1

>  <SCORE.INTER.POLAR>
-6.56622

>  <SCORE.INTER.ROT>
6

>  <SCORE.INTER.SOLV>
27.2259

>  <SCORE.INTER.VDW>
-22.5871

>  <SCORE.INTER.norm>
-1.30309

>  <SCORE.INTRA>
1.33407

>  <SCORE.INTRA.DIHEDRAL>
12.4455

>  <SCORE.INTRA.DIHEDRAL.0>
22.9177

>  <SCORE.INTRA.POLAR>
-1.53197

>  <SCORE.INTRA.POLAR.0>
-0.311208

>  <SCORE.INTRA.REPUL>
0

>  <SCORE.INTRA.REPUL.0>
0

>  <SCORE.INTRA.SOLV>
-0.386128

>  <SCORE.INTRA.SOLV.lig_0>
-132.657

>  <SCORE.INTRA.VDW>
0.513076

>  <SCORE.INTRA.VDW.0>
-4.68867

>  <SCORE.INTRA.norm>
0.0416897

>  <SCORE.RESTR>
0

>  <SCORE.RESTR.CAVITY>
0

>  <SCORE.RESTR.norm>
0

>  <SCORE.SYSTEM>
0

>  <SCORE.SYSTEM.CONST>
0

>  <SCORE.SYSTEM.DIHEDRAL>
0

>  <SCORE.SYSTEM.SOLV>
0

>  <SCORE.SYSTEM.norm>
0

>  <SCORE.heavy>
32

>  <SCORE.norm>
-1.2614

>  <RMSD>
9.227

$$$$
1tob
 OpenBabel11021811413D
libRbt.so/2013.1/901 2013/11/27
 32 34  0  0  0  0  0  0  0  0999 V2000
   -3.8615    5.5880    1.3590 C   0  0  2  0  0  0  0  0  0  0  0  0
   -3.9773    7.0641    0.9862 C   0  0  1  0  0  0  0  0  0  0  0  0
   -3.0275    7.8863    1.8466 C   0  0  2  0  0  0  0  0  0  0  0  0
   -3.3193    7.6197    3.3185 C   0  0  1  0  0  0  0  0  0  0  0  0
   -3.2254    6.1232    3.6029 C   0  0  1  0  0  0  0  0  0  0  0  0
   -3.5814    5.7849    5.0372 C   0  0  0  0  0  0  0  0  0  0  0  0
   -3.6533    7.2389   -0.3857 O   0  0  0  0  0  0  0  0  0  0  0  0
   -3.1187    9.3251    1.5170 N   0  3  0  0  0  0  0  0  0  0  0  0
   -2.3924    8.3301    4.1287 O   0  0  0  0  0  0  0  0  0  0  0  0
   -4.1405    5.3995    2.7520 O   0  0  0  0  0  0  0  0  0  0  0  0
   -2.4238    5.7212    5.8581 O   0  0  0  0  0  0  0  0  0  0  0  0
   -3.0719    2.7820    1.4197 C   0  0  2  0  0  0  0  0  0  0  0  0
   -2.6552    1.5395    2.1949 C   0  0  0  0  0  0  0  0  0  0  0  0
   -1.1855    1.2120    1.9295 C   0  0  1  0  0  0  0  0  0  0  0  0
   -0.3109    2.3886    2.3564 C   0  0  2  0  0  0  0  0  0  0  0  0
   -0.7210    3.6488    1.5929 C   0  0  1  0  0  0  0  0  0  0  0  0
   -2.1982    3.9545    1.8382 C   0  0  1  0  0  0  0  0  0  0  0  0
   -4.4841    3.1230    1.6983 N   0  3  0  0  0  0  0  0  0  0  0  0
   -0.8155   -0.0487    2.6236 N   0  3  0  0  0  0  0  0  0  0  0  0
    0.0765    4.7477    2.0132 O   0  0  0  0  0  0  0  0  0  0  0  0
   -2.5819    5.1313    1.1043 O   0  0  0  0  0  0  0  0  0  0  0  0
    1.8712    1.8996    3.2300 C   0  0  1  0  0  0  0  0  0  0  0  0
    2.0626    3.2209    3.9766 C   0  0  1  0  0  0  0  0  0  0  0  0
    2.8059    4.2185    3.1010 C   0  0  0  0  0  0  0  0  0  0  0  0
    4.1170    3.6019    2.6412 C   0  0  1  0  0  0  0  0  0  0  0  0
    3.8426    2.2793    1.9265 C   0  0  1  0  0  0  0  0  0  0  0  0
    5.1147    1.5757    1.4894 C   0  0  0  0  0  0  0  0  0  0  0  0
    0.7659    3.7580    4.4526 N   0  3  0  0  0  0  0  0  0  0  0  0
    5.9611    1.2128    2.6511 N   0  3  0  0  0  0  0  0  0  0  0  0
    1.0785    2.0929    2.1065 O   0  0  0  0  0  0  0  0  0  0  0  0
    4.7924    4.4942    1.7669 O   0  0  0  0  0  0  0  0  0  0  0  0
    3.1356    1.3767    2.8045 O   0  0  0  0  0  0  0  0  0  0  0  0
  1  2  1  0  0  0  0
  1 10  1  0  0  0  0
  1 21  1  1  0  0  0
  2  3  1  0  0  0  0
  2  7  1  6  0  0  0
  3  4  1  0  0  0  0
  3  8  1  1  0  0  0
  4  5  1  0  0  0  0
  4  9  1  1  0  0  0
  5  6  1  1  0  0  0
  5 10  1  0  0  0  0
  6 11  1  0  0  0  0
 12 13  1  0  0  0  0
 12 17  1  0  0  0  0
 12 18  1  1  0  0  0
 13 14  1  0  0  0  0
 14 15  1  0  0  0  0
 14 19  1  1  0  0  0
 15 16  1  0  0  0  0
 15 30  1  6  0  0  0
 16 17  1  0  0  0  0
 16 20  1  1  0  0  0
 17 21  1  6  0  0  0
 22 23  1  0  0  0  0
 22 30  1  6  0  0  0
 22 32  1  0  0  0  0
 23 24  1  0  0  0  0
 23 28  1  6  0  0  0
 24 25  1  0  0  0  0
 25 26  1  0  0  0  0
 25 31  1  6  0  0  0
 26 27  1  1  0  0  0
 26 32  1  0  0  0  0
 27 29  1  0  0  0  0
M  CHG  5   8   1  18   1  19   1  28   1  29   1
M  END
>  <CHROM.1>
158.16643192,-52.81999507,-170.80335164,86.09042286,-94.17658857,61.41211787
-155.61398674,74.88708640,-110.44246160,83.50508810,64.37847892,-69.68254570
156.27103948,-63.07405483,62.36298600,-39.40465168,-0.58283057,4.22612849
2.47834479,2.58299007,-0.08068263,0.08754925

>  <Name>
1tob

>  <RI>
0

>  <Rbt.Current_Directory>
/home/itssahil/PROJECTS/Mol_Feturizer/New_Systems/rnas/1tob

>  <Rbt.Executable>
rbdock ($Id: //depot/dev/client3/rdock/2013.1/src/exe/rbdock.cxx#4 $)

>  <Rbt.Library>
libRbt.so (2013.1, Build901 2013/11/27)

>  <Rbt.Parameter_File>
/export/apps/rDock/src/rDock_2013.1_src/data/scripts/dock_solv.prm

>  <Rbt.Receptor>
prm/blind_docking_100.prm

>  <SCORE>
-22.8988

>  <SCORE.INTER>
-37.5849

>  <SCORE.INTER.CONST>
1

>  <SCORE.INTER.POLAR>
-4.80478

>  <SCORE.INTER.ROT>
6

>  <SCORE.INTER.SOLV>
32.9723

>  <SCORE.INTER.VDW>
-27.6315

>  <SCORE.INTER.norm>
-1.17453

>  <SCORE.INTRA>
4.62526

>  <SCORE.INTRA.DIHEDRAL>
-0.314804

>  <SCORE.INTRA.DIHEDRAL.0>
22.9177

>  <SCORE.INTRA.POLAR>
-1.51905

>  <SCORE.INTRA.POLAR.0>
-0.311208

>  <SCORE.INTRA.REPUL>
0

>  <SCORE.INTRA.REPUL.0>
0

>  <SCORE.INTRA.SOLV>
3.80131

>  <SCORE.INTRA.SOLV.lig_0>
-132.657

>  <SCORE.INTRA.VDW>
8.04678

>  <SCORE.INTRA.VDW.0>
-4.68867

>  <SCORE.INTRA.norm>
0.144539

>  <SCORE.RESTR>
10.0609

>  <SCORE.RESTR.CAVITY>
10.0609

>  <SCORE.RESTR.norm>
0.314402

>  <SCORE.SYSTEM>
0

>  <SCORE.SYSTEM.CONST>
0

>  <SCORE.SYSTEM.DIHEDRAL>
0

>  <SCORE.SYSTEM.SOLV>
0

>  <SCORE.SYSTEM.norm>
0

>  <SCORE.heavy>
32

>  <SCORE.norm>
-0.715588

>  <RMSD>
9.235

$$$$
1tob
 OpenBabel11021811413D
libRbt.so/2013.1/901 2013/11/27
 32 34  0  0  0  0  0  0  0  0999 V2000
   -5.4967    6.3400    1.7449 C   0  0  2  0  0  0  0  0  0  0  0  0
   -6.8908    6.9287    1.9481 C   0  0  1  0  0  0  0  0  0  0  0  0
   -7.9296    5.8169    1.8949 C   0  0  2  0  0  0  0  0  0  0  0  0
   -7.7904    5.0569    0.5812 C   0  0  1  0  0  0  0  0  0  0  0  0
   -6.3633    4.5370    0.4318 C   0  0  1  0  0  0  0  0  0  0  0  0
   -6.1402    3.8363   -0.8940 C   0  0  0  0  0  0  0  0  0  0  0  0
   -6.9554    7.5846    3.2064 O   0  0  0  0  0  0  0  0  0  0  0  0
   -9.2954    6.3530    2.0810 N   0  3  0  0  0  0  0  0  0  0  0  0
   -8.7105    3.9740    0.5524 O   0  0  0  0  0  0  0  0  0  0  0  0
   -5.4273    5.6344    0.4994 O   0  0  0  0  0  0  0  0  0  0  0  0
   -6.5455    4.6500   -1.9857 O   0  0  0  0  0  0  0  0  0  0  0  0
   -3.8823    5.9929    4.7231 C   0  0  2  0  0  0  0  0  0  0  0  0
   -2.4574    6.0722    5.2538 C   0  0  0  0  0  0  0  0  0  0  0  0
   -1.7713    4.7100    5.1484 C   0  0  1  0  0  0  0  0  0  0  0  0
   -1.7408    4.2607    3.6893 C   0  0  2  0  0  0  0  0  0  0  0  0
   -3.1647    4.1830    3.1364 C   0  0  1  0  0  0  0  0  0  0  0  0
   -3.8555    5.5395    3.2715 C   0  0  1  0  0  0  0  0  0  0  0  0
   -4.5404    7.3160    4.7919 N   0  3  0  0  0  0  0  0  0  0  0  0
   -0.4130    4.7807    5.7468 N   0  3  0  0  0  0  0  0  0  0  0  0
   -3.1305    3.7916    1.7705 O   0  0  0  0  0  0  0  0  0  0  0  0
   -5.1998    5.4555    2.7649 O   0  0  0  0  0  0  0  0  0  0  0  0
   -0.4742    2.7082    2.3667 C   0  0  1  0  0  0  0  0  0  0  0  0
   -0.6893    1.2469    1.9688 C   0  0  1  0  0  0  0  0  0  0  0  0
   -0.0439    0.3219    2.9897 C   0  0  0  0  0  0  0  0  0  0  0  0
    1.4243    0.6861    3.1378 C   0  0  1  0  0  0  0  0  0  0  0  0
    1.5547    2.1617    3.5134 C   0  0  1  0  0  0  0  0  0  0  0  0
    3.0002    2.6122    3.6214 C   0  0  0  0  0  0  0  0  0  0  0  0
   -2.1295    0.9506    1.7832 N   0  3  0  0  0  0  0  0  0  0  0  0
    3.6596    2.6450    2.2941 N   0  3  0  0  0  0  0  0  0  0  0  0
   -1.0993    2.9736    3.5778 O   0  0  0  0  0  0  0  0  0  0  0  0
    2.0264   -0.1233    4.1375 O   0  0  0  0  0  0  0  0  0  0  0  0
    0.9238    2.9877    2.5108 O   0  0  0  0  0  0  0  0  0  0  0  0
  1  2  1  0  0  0  0
  1 10  1  0  0  0  0
  1 21  1  1  0  0  0
  2  3  1  0  0  0  0
  2  7  1  1  0  0  0
  3  4  1  0  0  0  0
  3  8  1  6  0  0  0
  4  5  1  0  0  0  0
  4  9  1  1  0  0  0
  5  6  1  6  0  0  0
  5 10  1  0  0  0  0
  6 11  1  0  0  0  0
 12 13  1  0  0  0  0
 12 17  1  0  0  0  0
 12 18  1  6  0  0  0
 13 14  1  0  0  0  0
 14 15  1  0  0  0  0
 14 19  1  6  0  0  0
 15 16  1  0  0  0  0
 15 30  1  1  0  0  0
 16 17  1  0  0  0  0
 16 20  1  6  0  0  0
 17 21  1  1  0  0  0
 22 23  1  0  0  0  0
 22 30  1  1  0  0  0
 22 32  1  0  0  0  0
 23 24  1  0  0  0  0
 23 28  1  1  0  0  0
 24 25  1  0  0  0  0
 25 26  1  0  0  0  0
 25 31  1  1  0  0  0
 26 27  1  6  0  0  0
 26 32  1  0  0  0  0
 27 29  1  0  0  0  0
M  CHG  5   8   1  18   1  19   1  28   1  29   1
M  END
>  <CHROM.1>
-138.57206254,-93.17940056,179.35174362,-74.06118695,52.35743170,-164.17426924
58.83267162,142.15931085,-152.36620034,-158.42001953,115.49073370,-141.31812496
111.82564426,-66.92908752,69.41191346,66.52941673,-3.13275132,4.12517559
2.55634270,-3.03201286,0.45388761,-2.30348702

>  <Name>
1tob

>  <RI>
0

>  <Rbt.Current_Directory>
/home/itssahil/PROJECTS/Mol_Feturizer/New_Systems/rnas/1tob

>  <Rbt.Executable>
rbdock ($Id: //depot/dev/client3/rdock/2013.1/src/exe/rbdock.cxx#4 $)

>  <Rbt.Library>
libRbt.so (2013.1, Build901 2013/11/27)

>  <Rbt.Parameter_File>
/export/apps/rDock/src/rDock_2013.1_src/data/scripts/dock_solv.prm

>  <Rbt.Receptor>
prm/blind_docking_20.prm

>  <SCORE>
-26.3192

>  <SCORE.INTER>
-35.1332

>  <SCORE.INTER.CONST>
1

>  <SCORE.INTER.POLAR>
-4.99107

>  <SCORE.INTER.ROT>
6

>  <SCORE.INTER.SOLV>
35.5521

>  <SCORE.INTER.VDW>
-26.2359

>  <SCORE.INTER.norm>
-1.09791

>  <SCORE.INTRA>
2.37484

>  <SCORE.INTRA.DIHEDRAL>
13.2963

>  <SCORE.INTRA.DIHEDRAL.0>
22.9177

>  <SCORE.INTRA.POLAR>
-1.59701

>  <SCORE.INTRA.POLAR.0>
-0.311208

>  <SCORE.INTRA.REPUL>
0

>  <SCORE.INTRA.REPUL.0>
0

>  <SCORE.INTRA.SOLV>
-0.292473

>  <SCORE.INTRA.SOLV.lig_0>
-132.657

>  <SCORE.INTRA.VDW>
1.30277

>  <SCORE.INTRA.VDW.0>
-4.68867

>  <SCORE.INTRA.norm>
0.0742136

>  <SCORE.RESTR>
6.43917

>  <SCORE.RESTR.CAVITY>
6.43917

>  <SCORE.RESTR.norm>
0.201224

>  <SCORE.SYSTEM>
0

>  <SCORE.SYSTEM.CONST>
0

>  <SCORE.SYSTEM.DIHEDRAL>
0

>  <SCORE.SYSTEM.SOLV>
0

>  <SCORE.SYSTEM.norm>
0

>  <SCORE.heavy>
32

>  <SCORE.norm>
-0.822475

>  <RMSD>
9.235

$$$$
1tob
 OpenBabel11021811413D
libRbt.so/2013.1/901 2013/11/27
 32 34  0  0  0  0  0  0  0  0999 V2000
   -4.3939    4.7827    3.2072 C   0  0  2  0  0  0  0  0  0  0  0  0
   -5.2949    5.7225    2.4096 C   0  0  1  0  0  0  0  0  0  0  0  0
   -4.7041    7.1258    2.4143 C   0  0  2  0  0  0  0  0  0  0  0  0
   -4.4945    7.5816    3.8534 C   0  0  1  0  0  0  0  0  0  0  0  0
   -3.6216    6.5728    4.5947 C   0  0  1  0  0  0  0  0  0  0  0  0
   -3.4394    6.9314    6.0565 C   0  0  0  0  0  0  0  0  0  0  0  0
   -5.4104    5.2561    1.0729 O   0  0  0  0  0  0  0  0  0  0  0  0
   -5.5566    8.0664    1.6555 N   0  3  0  0  0  0  0  0  0  0  0  0
   -3.8796    8.8629    3.8672 O   0  0  0  0  0  0  0  0  0  0  0  0
   -4.2291    5.2636    4.5471 O   0  0  0  0  0  0  0  0  0  0  0  0
   -2.5349    6.0447    6.6996 O   0  0  0  0  0  0  0  0  0  0  0  0
   -2.2240    2.5570    1.9791 C   0  0  2  0  0  0  0  0  0  0  0  0
   -1.3490    1.4097    2.4653 C   0  0  0  0  0  0  0  0  0  0  0  0
    0.0464    1.9185    2.8281 C   0  0  1  0  0  0  0  0  0  0  0  0
   -0.0600    2.9718    3.9285 C   0  0  2  0  0  0  0  0  0  0  0  0
   -0.9429    4.1296    3.4603 C   0  0  1  0  0  0  0  0  0  0  0  0
   -2.3268    3.6109    3.0709 C   0  0  1  0  0  0  0  0  0  0  0  0
   -3.5857    2.0763    1.6579 N   0  3  0  0  0  0  0  0  0  0  0  0
    0.9143    0.7775    3.2194 N   0  3  0  0  0  0  0  0  0  0  0  0
   -1.0622    5.0944    4.4971 O   0  0  0  0  0  0  0  0  0  0  0  0
   -3.1471    4.7021    2.6158 O   0  0  0  0  0  0  0  0  0  0  0  0
    2.1379    2.5229    4.7839 C   0  0  1  0  0  0  0  0  0  0  0  0
    3.0502    3.1663    5.8297 C   0  0  1  0  0  0  0  0  0  0  0  0
    3.9036    4.2508    5.1894 C   0  0  0  0  0  0  0  0  0  0  0  0
    4.6700    3.6586    4.0180 C   0  0  1  0  0  0  0  0  0  0  0  0
    3.6928    3.0183    3.0327 C   0  0  1  0  0  0  0  0  0  0  0  0
    4.3941    2.3531    1.8623 C   0  0  0  0  0  0  0  0  0  0  0  0
    2.2665    3.6814    6.9772 N   0  3  0  0  0  0  0  0  0  0  0  0
    4.9222    3.3545    0.9051 N   0  3  0  0  0  0  0  0  0  0  0  0
    1.2509    3.4629    4.2762 O   0  0  0  0  0  0  0  0  0  0  0  0
    5.4200    4.6734    3.3663 O   0  0  0  0  0  0  0  0  0  0  0  0
    2.9120    2.0011    3.6967 O   0  0  0  0  0  0  0  0  0  0  0  0
  1  2  1  0  0  0  0
  1 10  1  0  0  0  0
  1 21  1  6  0  0  0
  2  3  1  0  0  0  0
  2  7  1  6  0  0  0
  3  4  1  0  0  0  0
  3  8  1  1  0  0  0
  4  5  1  0  0  0  0
  4  9  1  6  0  0  0
  5  6  1  1  0  0  0
  5 10  1  0  0  0  0
  6 11  1  0  0  0  0
 12 13  1  0  0  0  0
 12 17  1  0  0  0  0
 12 18  1  1  0  0  0
 13 14  1  0  0  0  0
 14 15  1  0  0  0  0
 14 19  1  1  0  0  0
 15 16  1  0  0  0  0
 15 30  1  6  0  0  0
 16 17  1  0  0  0  0
 16 20  1  1  0  0  0
 17 21  1  6  0  0  0
 22 23  1  0  0  0  0
 22 30  1  6  0  0  0
 22 32  1  0  0  0  0
 23 24  1  0  0  0  0
 23 28  1  1  0  0  0
 24 25  1  0  0  0  0
 25 26  1  0  0  0  0
 25 31  1  6  0  0  0
 26 27  1  6  0  0  0
 26 32  1  0  0  0  0
 27 29  1  0  0  0  0
M  CHG  5   8   1  18   1  19   1  28   1  29   1
M  END
>  <CHROM.1>
-165.24969666,66.92639639,-172.09471794,166.70199435,-175.06819417,81.05278204
-179.80225261,29.39324130,-61.74519091,-63.27078406,108.15911565,-145.90502577
-61.12755854,-44.19702935,-74.06865164,55.23604987,-0.71328512,4.32712081
3.55988157,2.89171762,-0.30583069,0.72332539

>  <Name>
1tob

>  <RI>
0

>  <Rbt.Current_Directory>
/home/itssahil/PROJECTS/Mol_Feturizer/New_Systems/rnas/1tob

>  <Rbt.Executable>
rbdock ($Id: //depot/dev/client3/rdock/2013.1/src/exe/rbdock.cxx#4 $)

>  <Rbt.Library>
libRbt.so (2013.1, Build901 2013/11/27)

>  <Rbt.Parameter_File>
/export/apps/rDock/src/rDock_2013.1_src/data/scripts/dock_solv.prm

>  <Rbt.Receptor>
prm/blind_docking_100.prm

>  <SCORE>
-27.3451

>  <SCORE.INTER>
-41.3264

>  <SCORE.INTER.CONST>
1

>  <SCORE.INTER.POLAR>
-7.19795

>  <SCORE.INTER.ROT>
6

>  <SCORE.INTER.SOLV>
38.1987

>  <SCORE.INTER.VDW>
-23.8907

>  <SCORE.INTER.norm>
-1.29145

>  <SCORE.INTRA>
-1.94642

>  <SCORE.INTRA.DIHEDRAL>
-3.81958

>  <SCORE.INTRA.DIHEDRAL.0>
22.9177

>  <SCORE.INTRA.POLAR>
-0.935716

>  <SCORE.INTRA.POLAR.0>
-0.311208

>  <SCORE.INTRA.REPUL>
0

>  <SCORE.INTRA.REPUL.0>
0

>  <SCORE.INTRA.SOLV>
0.0630214

>  <SCORE.INTRA.SOLV.lig_0>
-132.657

>  <SCORE.INTRA.VDW>
3.11329

>  <SCORE.INTRA.VDW.0>
-4.68867

>  <SCORE.INTRA.norm>
-0.0608257

>  <SCORE.RESTR>
15.9277

>  <SCORE.RESTR.CAVITY>
15.9277

>  <SCORE.RESTR.norm>
0.49774

>  <SCORE.SYSTEM>
0

>  <SCORE.SYSTEM.CONST>
0

>  <SCORE.SYSTEM.DIHEDRAL>
0

>  <SCORE.SYSTEM.SOLV>
0

>  <SCORE.SYSTEM.norm>
0

>  <SCORE.heavy>
32

>  <SCORE.norm>
-0.854536

>  <RMSD>
9.245

$$$$
1tob
 OpenBabel11021811413D
libRbt.so/2013.1/901 2013/11/27
 32 34  0  0  0  0  0  0  0  0999 V2000
   -2.4049    7.1541    5.6742 C   0  0  2  0  0  0  0  0  0  0  0  0
   -3.6249    8.0550    5.8508 C   0  0  1  0  0  0  0  0  0  0  0  0
   -4.8093    7.4683    5.0949 C   0  0  2  0  0  0  0  0  0  0  0  0
   -4.4264    7.2649    3.6339 C   0  0  1  0  0  0  0  0  0  0  0  0
   -3.1782    6.3916    3.5418 C   0  0  1  0  0  0  0  0  0  0  0  0
   -2.7011    6.2155    2.1136 C   0  0  0  0  0  0  0  0  0  0  0  0
   -3.9442    8.1647    7.2305 O   0  0  0  0  0  0  0  0  0  0  0  0
   -6.0092    8.3209    5.2381 N   0  3  0  0  0  0  0  0  0  0  0  0
   -5.5028    6.6537    2.9354 O   0  0  0  0  0  0  0  0  0  0  0  0
   -2.0963    6.9952    4.2837 O   0  0  0  0  0  0  0  0  0  0  0  0
   -2.1961    7.4319    1.5814 O   0  0  0  0  0  0  0  0  0  0  0  0
   -1.1527    4.5648    7.5575 C   0  0  2  0  0  0  0  0  0  0  0  0
    0.0116    3.5865    7.4838 C   0  0  0  0  0  0  0  0  0  0  0  0
   -0.3761    2.3552    6.6645 C   0  0  1  0  0  0  0  0  0  0  0  0
   -0.7669    2.7801    5.2508 C   0  0  2  0  0  0  0  0  0  0  0  0
   -1.9312    3.7704    5.3057 C   0  0  1  0  0  0  0  0  0  0  0  0
   -1.5484    4.9851    6.1504 C   0  0  1  0  0  0  0  0  0  0  0  0
   -0.7726    5.7733    8.3214 N   0  3  0  0  0  0  0  0  0  0  0  0
    0.7381    1.3721    6.6717 N   0  3  0  0  0  0  0  0  0  0  0  0
   -2.2737    4.1848    3.9900 O   0  0  0  0  0  0  0  0  0  0  0  0
   -2.6534    5.9050    6.2118 O   0  0  0  0  0  0  0  0  0  0  0  0
   -1.0015    1.7535    3.0933 C   0  0  1  0  0  0  0  0  0  0  0  0
   -0.4572    0.4558    2.4936 C   0  0  1  0  0  0  0  0  0  0  0  0
    0.9358    0.1689    3.0336 C   0  0  0  0  0  0  0  0  0  0  0  0
    1.8327    1.3669    2.7675 C   0  0  1  0  0  0  0  0  0  0  0  0
    1.2107    2.6227    3.3772 C   0  0  1  0  0  0  0  0  0  0  0  0
    2.0256    3.8729    3.0994 C   0  0  0  0  0  0  0  0  0  0  0  0
   -1.3879   -0.6731    2.7300 N   0  3  0  0  0  0  0  0  0  0  0  0
    2.5321    3.8927    1.7063 N   0  3  0  0  0  0  0  0  0  0  0  0
   -1.1393    1.6265    4.4691 O   0  0  0  0  0  0  0  0  0  0  0  0
    3.1191    1.1433    3.3260 O   0  0  0  0  0  0  0  0  0  0  0  0
   -0.1072    2.8414    2.8289 O   0  0  0  0  0  0  0  0  0  0  0  0
  1  2  1  0  0  0  0
  1 10  1  0  0  0  0
  1 21  1  6  0  0  0
  2  3  1  0  0  0  0
  2  7  1  1  0  0  0
  3  4  1  0  0  0  0
  3  8  1  6  0  0  0
  4  5  1  0  0  0  0
  4  9  1  6  0  0  0
  5  6  1  6  0  0  0
  5 10  1  0  0  0  0
  6 11  1  0  0  0  0
 12 13  1  0  0  0  0
 12 17  1  0  0  0  0
 12 18  1  1  0  0  0
 13 14  1  0  0  0  0
 14 15  1  0  0  0  0
 14 19  1  6  0  0  0
 15 16  1  0  0  0  0
 15 30  1  6  0  0  0
 16 17  1  0  0  0  0
 16 20  1  6  0  0  0
 17 21  1  1  0  0  0
 22 23  1  0  0  0  0
 22 30  1  1  0  0  0
 22 32  1  0  0  0  0
 23 24  1  0  0  0  0
 23 28  1  1  0  0  0
 24 25  1  0  0  0  0
 25 26  1  0  0  0  0
 25 31  1  1  0  0  0
 26 27  1  6  0  0  0
 26 32  1  0  0  0  0
 27 29  1  0  0  0  0
M  CHG  5   8   1  18   1  19   1  28   1  29   1
M  END
>  <CHROM.1>
-177.59030262,94.79931189,-157.29417166,-172.69004805,68.48546607,69.49238923
141.76229013,-26.85882962,-155.24281866,72.83200503,119.50538935,140.14755287
169.52002238,69.70096045,41.39321548,63.93921488,-1.38021459,4.34365316,4.47231228
-2.84276832,0.86315544,-1.70401441

>  <Name>
1tob

>  <RI>
0

>  <Rbt.Current_Directory>
/home/itssahil/PROJECTS/Mol_Feturizer/New_Systems/rnas/1tob

>  <Rbt.Executable>
rbdock ($Id: //depot/dev/client3/rdock/2013.1/src/exe/rbdock.cxx#4 $)

>  <Rbt.Library>
libRbt.so (2013.1, Build901 2013/11/27)

>  <Rbt.Parameter_File>
/export/apps/rDock/src/rDock_2013.1_src/data/scripts/dock_solv.prm

>  <Rbt.Receptor>
prm/blind_docking_40.prm

>  <SCORE>
4.0532

>  <SCORE.INTER>
-11.7224

>  <SCORE.INTER.CONST>
1

>  <SCORE.INTER.POLAR>
-5.97294

>  <SCORE.INTER.ROT>
6

>  <SCORE.INTER.SOLV>
50.8774

>  <SCORE.INTER.VDW>
-12.4643

>  <SCORE.INTER.norm>
-0.366326

>  <SCORE.INTRA>
11.377

>  <SCORE.INTRA.DIHEDRAL>
6.09

>  <SCORE.INTRA.DIHEDRAL.0>
22.9177

>  <SCORE.INTRA.POLAR>
0.279035

>  <SCORE.INTRA.POLAR.0>
-0.311208

>  <SCORE.INTRA.REPUL>
0

>  <SCORE.INTRA.REPUL.0>
0

>  <SCORE.INTRA.SOLV>
-2.17939

>  <SCORE.INTRA.SOLV.lig_0>
-132.657

>  <SCORE.INTRA.VDW>
8.47301

>  <SCORE.INTRA.VDW.0>
-4.68867

>  <SCORE.INTRA.norm>
0.355532

>  <SCORE.RESTR>
4.39862

>  <SCORE.RESTR.CAVITY>
4.39862

>  <SCORE.RESTR.norm>
0.137457

>  <SCORE.SYSTEM>
0

>  <SCORE.SYSTEM.CONST>
0

>  <SCORE.SYSTEM.DIHEDRAL>
0

>  <SCORE.SYSTEM.SOLV>
0

>  <SCORE.SYSTEM.norm>
0

>  <SCORE.heavy>
32

>  <SCORE.norm>
0.126663

>  <RMSD>
9.261

$$$$
1tob
 OpenBabel11021811413D
libRbt.so/2013.1/901 2013/11/27
 32 34  0  0  0  0  0  0  0  0999 V2000
   -2.7040    6.2768    4.4250 C   0  0  2  0  0  0  0  0  0  0  0  0
   -3.2203    7.5168    5.1508 C   0  0  1  0  0  0  0  0  0  0  0  0
   -4.7421    7.5406    5.1064 C   0  0  2  0  0  0  0  0  0  0  0  0
   -5.2071    7.4628    3.6572 C   0  0  1  0  0  0  0  0  0  0  0  0
   -4.6179    6.2233    2.9895 C   0  0  1  0  0  0  0  0  0  0  0  0
   -4.9824    6.1305    1.5208 C   0  0  0  0  0  0  0  0  0  0  0  0
   -2.7809    7.4994    6.5015 O   0  0  0  0  0  0  0  0  0  0  0  0
   -5.2776    8.7349    5.7951 N   0  3  0  0  0  0  0  0  0  0  0  0
   -6.6268    7.4150    3.6097 O   0  0  0  0  0  0  0  0  0  0  0  0
   -3.1766    6.2548    3.0721 O   0  0  0  0  0  0  0  0  0  0  0  0
   -5.9151    5.0857    1.2827 O   0  0  0  0  0  0  0  0  0  0  0  0
   -3.0072    3.5605    3.2264 C   0  0  2  0  0  0  0  0  0  0  0  0
   -2.3367    2.2721    2.7693 C   0  0  0  0  0  0  0  0  0  0  0  0
   -0.8163    2.4323    2.7677 C   0  0  1  0  0  0  0  0  0  0  0  0
   -0.3340    2.7791    4.1744 C   0  0  2  0  0  0  0  0  0  0  0  0
   -1.0039    4.0678    4.6538 C   0  0  1  0  0  0  0  0  0  0  0  0
   -2.5239    3.9119    4.6250 C   0  0  1  0  0  0  0  0  0  0  0  0
   -4.4774    3.4009    3.2615 N   0  3  0  0  0  0  0  0  0  0  0  0
   -0.1787    1.1984    2.2395 N   0  3  0  0  0  0  0  0  0  0  0  0
   -0.5739    4.3721    5.9739 O   0  0  0  0  0  0  0  0  0  0  0  0
   -3.1484    5.1328    5.0613 O   0  0  0  0  0  0  0  0  0  0  0  0
    1.5727    4.2157    3.9199 C   0  0  1  0  0  0  0  0  0  0  0  0
    1.6594    4.4462    2.4101 C   0  0  1  0  0  0  0  0  0  0  0  0
    2.6620    3.4867    1.7869 C   0  0  0  0  0  0  0  0  0  0  0  0
    4.0023    3.6379    2.4877 C   0  0  1  0  0  0  0  0  0  0  0  0
    3.8275    3.4151    3.9895 C   0  0  1  0  0  0  0  0  0  0  0  0
    5.1187    3.6087    4.7637 C   0  0  0  0  0  0  0  0  0  0  0  0
    0.3236    4.3424    1.7767 N   0  3  0  0  0  0  0  0  0  0  0  0
    5.7828    4.8838    4.4022 N   0  3  0  0  0  0  0  0  0  0  0  0
    1.0997    2.9373    4.1845 O   0  0  0  0  0  0  0  0  0  0  0  0
    4.9321    2.7009    1.9638 O   0  0  0  0  0  0  0  0  0  0  0  0
    2.8656    4.3512    4.5225 O   0  0  0  0  0  0  0  0  0  0  0  0
  1  2  1  0  0  0  0
  1 10  1  0  0  0  0
  1 21  1  1  0  0  0
  2  3  1  0  0  0  0
  2  7  1  1  0  0  0
  3  4  1  0  0  0  0
  3  8  1  6  0  0  0
  4  5  1  0  0  0  0
  4  9  1  1  0  0  0
  5  6  1  6  0  0  0
  5 10  1  0  0  0  0
  6 11  1  0  0  0  0
 12 13  1  0  0  0  0
 12 17  1  0  0  0  0
 12 18  1  1  0  0  0
 13 14  1  0  0  0  0
 14 15  1  0  0  0  0
 14 19  1  1  0  0  0
 15 16  1  0  0  0  0
 15 30  1  6  0  0  0
 16 17  1  0  0  0  0
 16 20  1  1  0  0  0
 17 21  1  6  0  0  0
 22 23  1  0  0  0  0
 22 30  1  6  0  0  0
 22 32  1  0  0  0  0
 23 24  1  0  0  0  0
 23 28  1  6  0  0  0
 24 25  1  0  0  0  0
 25 26  1  0  0  0  0
 25 31  1  6  0  0  0
 26 27  1  1  0  0  0
 26 32  1  0  0  0  0
 27 29  1  0  0  0  0
M  CHG  5   8   1  18   1  19   1  28   1  29   1
M  END
>  <CHROM.1>
-168.70534479,-37.70549475,83.89636583,71.41140516,-108.84705752,-166.01278842
-79.83316600,162.15905158,89.30500868,68.85531134,-71.37454802,-84.16393613
-59.51310352,76.66567471,49.51981944,57.34796658,-1.07149688,4.74146908,3.68960683
-2.83676758,0.18976603,-2.43259655

>  <Name>
1tob

>  <RI>
0

>  <Rbt.Current_Directory>
/home/itssahil/PROJECTS/Mol_Feturizer/New_Systems/rnas/1tob

>  <Rbt.Executable>
rbdock ($Id: //depot/dev/client3/rdock/2013.1/src/exe/rbdock.cxx#4 $)

>  <Rbt.Library>
libRbt.so (2013.1, Build901 2013/11/27)

>  <Rbt.Parameter_File>
/export/apps/rDock/src/rDock_2013.1_src/data/scripts/dock_solv.prm

>  <Rbt.Receptor>
prm/blind_docking_80.prm

>  <SCORE>
-3.47912

>  <SCORE.INTER>
-28.7767

>  <SCORE.INTER.CONST>
1

>  <SCORE.INTER.POLAR>
-5.08321

>  <SCORE.INTER.ROT>
6

>  <SCORE.INTER.SOLV>
44.383

>  <SCORE.INTER.VDW>
-24.6348

>  <SCORE.INTER.norm>
-0.899271

>  <SCORE.INTRA>
21.2582

>  <SCORE.INTRA.DIHEDRAL>
-2.29809

>  <SCORE.INTRA.DIHEDRAL.0>
22.9177

>  <SCORE.INTRA.POLAR>
-0.417314

>  <SCORE.INTRA.POLAR.0>
-0.311208

>  <SCORE.INTRA.REPUL>
0

>  <SCORE.INTRA.REPUL.0>
0

>  <SCORE.INTRA.SOLV>
9.50734

>  <SCORE.INTRA.SOLV.lig_0>
-132.657

>  <SCORE.INTRA.VDW>
19.0724

>  <SCORE.INTRA.VDW.0>
-4.68867

>  <SCORE.INTRA.norm>
0.664319

>  <SCORE.RESTR>
4.03935

>  <SCORE.RESTR.CAVITY>
4.03935

>  <SCORE.RESTR.norm>
0.12623

>  <SCORE.SYSTEM>
0

>  <SCORE.SYSTEM.CONST>
0

>  <SCORE.SYSTEM.DIHEDRAL>
0

>  <SCORE.SYSTEM.SOLV>
0

>  <SCORE.SYSTEM.norm>
0

>  <SCORE.heavy>
32

>  <SCORE.norm>
-0.108723

>  <RMSD>
9.263

$$$$
1tob
 OpenBabel11021811413D
libRbt.so/2013.1/901 2013/11/27
 32 34  0  0  0  0  0  0  0  0999 V2000
   -3.2048    6.5381    4.2329 C   0  0  2  0  0  0  0  0  0  0  0  0
   -3.5972    7.6636    5.1871 C   0  0  1  0  0  0  0  0  0  0  0  0
   -5.0957    7.9163    5.0933 C   0  0  2  0  0  0  0  0  0  0  0  0
   -5.4700    8.2069    3.6448 C   0  0  1  0  0  0  0  0  0  0  0  0
   -5.0093    7.0595    2.7501 C   0  0  1  0  0  0  0  0  0  0  0  0
   -5.2849    7.3250    1.2831 C   0  0  0  0  0  0  0  0  0  0  0  0
   -3.2545    7.3049    6.5181 O   0  0  0  0  0  0  0  0  0  0  0  0
   -5.5108    9.0079    6.0008 N   0  3  0  0  0  0  0  0  0  0  0  0
   -6.8770    8.3762    3.5365 O   0  0  0  0  0  0  0  0  0  0  0  0
   -3.5854    6.8640    2.8901 O   0  0  0  0  0  0  0  0  0  0  0  0
   -6.6636    7.1700    0.9778 O   0  0  0  0  0  0  0  0  0  0  0  0
   -3.6260    4.0330    2.5837 C   0  0  2  0  0  0  0  0  0  0  0  0
   -2.9991    2.7665    2.0172 C   0  0  0  0  0  0  0  0  0  0  0  0
   -1.4782    2.8098    2.1671 C   0  0  1  0  0  0  0  0  0  0  0  0
   -1.1102    2.9365    3.6437 C   0  0  2  0  0  0  0  0  0  0  0  0
   -1.7387    4.2006    4.2324 C   0  0  1  0  0  0  0  0  0  0  0  0
   -3.2560    4.1654    4.0531 C   0  0  1  0  0  0  0  0  0  0  0  0
   -5.1002    3.9823    2.4713 N   0  3  0  0  0  0  0  0  0  0  0  0
   -0.8737    1.6085    1.5349 N   0  3  0  0  0  0  0  0  0  0  0  0
   -1.4171    4.3004    5.6132 O   0  0  0  0  0  0  0  0  0  0  0  0
   -3.8396    5.3645    4.5939 O   0  0  0  0  0  0  0  0  0  0  0  0
    0.9815    1.7618    3.7372 C   0  0  1  0  0  0  0  0  0  0  0  0
    1.6340    1.4449    5.0840 C   0  0  1  0  0  0  0  0  0  0  0  0
    2.6968    2.4827    5.4122 C   0  0  0  0  0  0  0  0  0  0  0  0
    3.6976    2.5531    4.2704 C   0  0  1  0  0  0  0  0  0  0  0  0
    2.9671    2.8505    2.9614 C   0  0  1  0  0  0  0  0  0  0  0  0
    3.8999    2.8775    1.7642 C   0  0  0  0  0  0  0  0  0  0  0  0
    0.6174    1.3327    6.1565 N   0  3  0  0  0  0  0  0  0  0  0  0
    4.5034    4.2185    1.5761 N   0  3  0  0  0  0  0  0  0  0  0  0
    0.3232    2.9829    3.7976 O   0  0  0  0  0  0  0  0  0  0  0  0
    4.6590    3.5658    4.5297 O   0  0  0  0  0  0  0  0  0  0  0  0
    1.9727    1.8352    2.7051 O   0  0  0  0  0  0  0  0  0  0  0  0
  1  2  1  0  0  0  0
  1 10  1  0  0  0  0
  1 21  1  1  0  0  0
  2  3  1  0  0  0  0
  2  7  1  1  0  0  0
  3  4  1  0  0  0  0
  3  8  1  1  0  0  0
  4  5  1  0  0  0  0
  4  9  1  1  0  0  0
  5  6  1  6  0  0  0
  5 10  1  0  0  0  0
  6 11  1  0  0  0  0
 12 13  1  0  0  0  0
 12 17  1  0  0  0  0
 12 18  1  1  0  0  0
 13 14  1  0  0  0  0
 14 15  1  0  0  0  0
 14 19  1  1  0  0  0
 15 16  1  0  0  0  0
 15 30  1  6  0  0  0
 16 17  1  0  0  0  0
 16 20  1  1  0  0  0
 17 21  1  6  0  0  0
 22 23  1  0  0  0  0
 22 30  1  1  0  0  0
 22 32  1  0  0  0  0
 23 24  1  0  0  0  0
 23 28  1  1  0  0  0
 24 25  1  0  0  0  0
 25 26  1  0  0  0  0
 25 31  1  1  0  0  0
 26 27  1  6  0  0  0
 26 32  1  0  0  0  0
 27 29  1  0  0  0  0
M  CHG  5   8   1  18   1  19   1  28   1  29   1
M  END
>  <CHROM.1>
-161.68647728,60.59609328,-151.98155396,-167.86077750,-74.91362620,-60.12372422
-112.72088917,-64.19372509,-79.61204096,173.75748462,-75.79958980,-115.23032810
56.15663010,173.03594252,-86.58944845,28.26546218,-1.61117146,4.63570914
3.66302122,-2.82717341,0.45209106,-2.19997632

>  <Name>
1tob

>  <RI>
0

>  <Rbt.Current_Directory>
/home/itssahil/PROJECTS/Mol_Feturizer/New_Systems/rnas/1tob

>  <Rbt.Executable>
rbdock ($Id: //depot/dev/client3/rdock/2013.1/src/exe/rbdock.cxx#4 $)

>  <Rbt.Library>
libRbt.so (2013.1, Build901 2013/11/27)

>  <Rbt.Parameter_File>
/export/apps/rDock/src/rDock_2013.1_src/data/scripts/dock_solv.prm

>  <Rbt.Receptor>
prm/blind_docking_40.prm

>  <SCORE>
-31.2091

>  <SCORE.INTER>
-43.0407

>  <SCORE.INTER.CONST>
1

>  <SCORE.INTER.POLAR>
-6.83546

>  <SCORE.INTER.ROT>
6

>  <SCORE.INTER.SOLV>
46.2904

>  <SCORE.INTER.VDW>
-28.9391

>  <SCORE.INTER.norm>
-1.34502

>  <SCORE.INTRA>
-0.275355

>  <SCORE.INTRA.DIHEDRAL>
-0.230974

>  <SCORE.INTRA.DIHEDRAL.0>
22.9177

>  <SCORE.INTRA.POLAR>
-1.24721

>  <SCORE.INTRA.POLAR.0>
-0.311208

>  <SCORE.INTRA.REPUL>
0

>  <SCORE.INTRA.REPUL.0>
0

>  <SCORE.INTRA.SOLV>
0.560804

>  <SCORE.INTRA.SOLV.lig_0>
-132.657

>  <SCORE.INTRA.VDW>
3.80024

>  <SCORE.INTRA.VDW.0>
-4.68867

>  <SCORE.INTRA.norm>
-0.00860483

>  <SCORE.RESTR>
12.107

>  <SCORE.RESTR.CAVITY>
12.107

>  <SCORE.RESTR.norm>
0.378343

>  <SCORE.SYSTEM>
0

>  <SCORE.SYSTEM.CONST>
0

>  <SCORE.SYSTEM.DIHEDRAL>
0

>  <SCORE.SYSTEM.SOLV>
0

>  <SCORE.SYSTEM.norm>
0

>  <SCORE.heavy>
32

>  <SCORE.norm>
-0.975283

>  <RMSD>
9.264

$$$$
1tob
 OpenBabel11021811413D
libRbt.so/2013.1/901 2013/11/27
 32 34  0  0  0  0  0  0  0  0999 V2000
   -3.6596    4.4191    3.1700 C   0  0  2  0  0  0  0  0  0  0  0  0
   -4.6166    4.7500    2.0273 C   0  0  1  0  0  0  0  0  0  0  0  0
   -4.3381    6.1570    1.5164 C   0  0  2  0  0  0  0  0  0  0  0  0
   -4.4306    7.1433    2.6744 C   0  0  1  0  0  0  0  0  0  0  0  0
   -3.4785    6.7230    3.7907 C   0  0  1  0  0  0  0  0  0  0  0  0
   -3.5805    7.6237    5.0060 C   0  0  0  0  0  0  0  0  0  0  0  0
   -4.4450    3.8147    0.9722 O   0  0  0  0  0  0  0  0  0  0  0  0
   -5.2538    6.5147    0.4115 N   0  3  0  0  0  0  0  0  0  0  0  0
   -4.1045    8.4500    2.2203 O   0  0  0  0  0  0  0  0  0  0  0  0
   -3.7869    5.3808    4.2249 O   0  0  0  0  0  0  0  0  0  0  0  0
   -4.8534    7.5147    5.6272 O   0  0  0  0  0  0  0  0  0  0  0  0
   -1.5075    2.2734    2.0391 C   0  0  2  0  0  0  0  0  0  0  0  0
   -0.6473    1.1008    2.4900 C   0  0  0  0  0  0  0  0  0  0  0  0
    0.7719    1.5710    2.8099 C   0  0  1  0  0  0  0  0  0  0  0  0
    0.7287    2.6196    3.9192 C   0  0  2  0  0  0  0  0  0  0  0  0
   -0.1386    3.8028    3.4866 C   0  0  1  0  0  0  0  0  0  0  0  0
   -1.5474    3.3225    3.1397 C   0  0  1  0  0  0  0  0  0  0  0  0
   -2.8910    1.8301    1.7598 N   0  3  0  0  0  0  0  0  0  0  0  0
    1.6221    0.4056    3.1662 N   0  3  0  0  0  0  0  0  0  0  0  0
   -0.1990    4.7635    4.5322 O   0  0  0  0  0  0  0  0  0  0  0  0
   -2.3534    4.4375    2.7178 O   0  0  0  0  0  0  0  0  0  0  0  0
    2.1846    3.8912    5.3430 C   0  0  1  0  0  0  0  0  0  0  0  0
    3.5880    3.7672    5.9389 C   0  0  1  0  0  0  0  0  0  0  0  0
    3.8306    2.3465    6.4258 C   0  0  0  0  0  0  0  0  0  0  0  0
    2.7344    1.9585    7.4046 C   0  0  1  0  0  0  0  0  0  0  0  0
    1.3674    2.1301    6.7432 C   0  0  1  0  0  0  0  0  0  0  0  0
    0.2186    1.8155    7.6842 C   0  0  0  0  0  0  0  0  0  0  0  0
    4.6200    4.2062    4.9701 N   0  3  0  0  0  0  0  0  0  0  0  0
   -0.0699    2.9541    8.5886 N   0  3  0  0  0  0  0  0  0  0  0  0
    2.0625    3.0744    4.2268 O   0  0  0  0  0  0  0  0  0  0  0  0
    2.9072    0.6106    7.8171 O   0  0  0  0  0  0  0  0  0  0  0  0
    1.1963    3.4943    6.3016 O   0  0  0  0  0  0  0  0  0  0  0  0
  1  2  1  0  0  0  0
  1 10  1  0  0  0  0
  1 21  1  6  0  0  0
  2  3  1  0  0  0  0
  2  7  1  6  0  0  0
  3  4  1  0  0  0  0
  3  8  1  6  0  0  0
  4  5  1  0  0  0  0
  4  9  1  6  0  0  0
  5  6  1  1  0  0  0
  5 10  1  0  0  0  0
  6 11  1  0  0  0  0
 12 13  1  0  0  0  0
 12 17  1  0  0  0  0
 12 18  1  1  0  0  0
 13 14  1  0  0  0  0
 14 15  1  0  0  0  0
 14 19  1  1  0  0  0
 15 16  1  0  0  0  0
 15 30  1  6  0  0  0
 16 17  1  0  0  0  0
 16 20  1  1  0  0  0
 17 21  1  6  0  0  0
 22 23  1  0  0  0  0
 22 30  1  6  0  0  0
 22 32  1  0  0  0  0
 23 24  1  0  0  0  0
 23 28  1  6  0  0  0
 24 25  1  0  0  0  0
 25 26  1  0  0  0  0
 25 31  1  6  0  0  0
 26 27  1  1  0  0  0
 26 32  1  0  0  0  0
 27 29  1  0  0  0  0
M  CHG  5   8   1  18   1  19   1  28   1  29   1
M  END
>  <CHROM.1>
-134.16552917,112.09329108,-67.72952355,177.85044334,65.49008306,179.69040195
-55.29795948,-6.11955886,-171.40023487,-170.33978453,97.38896929,153.42180351
58.42213444,-58.69158530,80.28832803,12.59908361,-0.90385206,3.92071913,4.16274136
-3.11475826,-0.66448789,0.85312755

>  <Name>
1tob

>  <RI>
0

>  <Rbt.Current_Directory>
/home/itssahil/PROJECTS/Mol_Feturizer/New_Systems/rnas/1tob

>  <Rbt.Executable>
rbdock ($Id: //depot/dev/client3/rdock/2013.1/src/exe/rbdock.cxx#4 $)

>  <Rbt.Library>
libRbt.so (2013.1, Build901 2013/11/27)

>  <Rbt.Parameter_File>
/export/apps/rDock/src/rDock_2013.1_src/data/scripts/dock_solv.prm

>  <Rbt.Receptor>
prm/pocket_docking_6.prm

>  <SCORE>
-49.0974

>  <SCORE.INTER>
-52.1432

>  <SCORE.INTER.CONST>
1

>  <SCORE.INTER.POLAR>
-8.11866

>  <SCORE.INTER.ROT>
6

>  <SCORE.INTER.SOLV>
30.4128

>  <SCORE.INTER.VDW>
-25.4375

>  <SCORE.INTER.norm>
-1.62948

>  <SCORE.INTRA>
3.04578

>  <SCORE.INTRA.DIHEDRAL>
7.51019

>  <SCORE.INTRA.DIHEDRAL.0>
22.9177

>  <SCORE.INTRA.POLAR>
-0.951999

>  <SCORE.INTRA.POLAR.0>
-0.311208

>  <SCORE.INTRA.REPUL>
0

>  <SCORE.INTRA.REPUL.0>
0

>  <SCORE.INTRA.SOLV>
-1.63697

>  <SCORE.INTRA.SOLV.lig_0>
-132.657

>  <SCORE.INTRA.VDW>
3.34596

>  <SCORE.INTRA.VDW.0>
-4.68867

>  <SCORE.INTRA.norm>
0.0951806

>  <SCORE.RESTR>
0

>  <SCORE.RESTR.CAVITY>
0

>  <SCORE.RESTR.norm>
0

>  <SCORE.SYSTEM>
0

>  <SCORE.SYSTEM.CONST>
0

>  <SCORE.SYSTEM.DIHEDRAL>
0

>  <SCORE.SYSTEM.SOLV>
0

>  <SCORE.SYSTEM.norm>
0

>  <SCORE.heavy>
32

>  <SCORE.norm>
-1.5343

>  <RMSD>
9.264

$$$$
1tob
 OpenBabel11021811413D
libRbt.so/2013.1/901 2013/11/27
 32 34  0  0  0  0  0  0  0  0999 V2000
   -2.5407    5.8580    1.6496 C   0  0  2  0  0  0  0  0  0  0  0  0
   -2.1902    7.0042    0.7039 C   0  0  1  0  0  0  0  0  0  0  0  0
   -3.4164    7.8791    0.4821 C   0  0  2  0  0  0  0  0  0  0  0  0
   -4.5666    7.0185   -0.0268 C   0  0  1  0  0  0  0  0  0  0  0  0
   -4.8285    5.8739    0.9483 C   0  0  1  0  0  0  0  0  0  0  0  0
   -5.9135    4.9352    0.4583 C   0  0  0  0  0  0  0  0  0  0  0  0
   -1.1413    7.7825    1.2620 O   0  0  0  0  0  0  0  0  0  0  0  0
   -3.1147    8.9978   -0.4371 N   0  3  0  0  0  0  0  0  0  0  0  0
   -5.7353    7.8143   -0.1712 O   0  0  0  0  0  0  0  0  0  0  0  0
   -3.6293    5.0887    1.1231 O   0  0  0  0  0  0  0  0  0  0  0  0
   -6.1318    3.8715    1.3742 O   0  0  0  0  0  0  0  0  0  0  0  0
   -2.7881    5.9043    5.2584 C   0  0  2  0  0  0  0  0  0  0  0  0
   -1.8240    5.5806    6.3915 C   0  0  0  0  0  0  0  0  0  0  0  0
   -1.0598    4.2909    6.0910 C   0  0  1  0  0  0  0  0  0  0  0  0
   -0.2740    4.4495    4.7913 C   0  0  2  0  0  0  0  0  0  0  0  0
   -1.2264    4.7832    3.6420 C   0  0  1  0  0  0  0  0  0  0  0  0
   -2.0089    6.0566    3.9610 C   0  0  1  0  0  0  0  0  0  0  0  0
   -3.5066    7.1689    5.5283 N   0  3  0  0  0  0  0  0  0  0  0  0
   -0.1860    3.9417    7.2410 N   0  3  0  0  0  0  0  0  0  0  0  0
   -0.4885    4.9574    2.4399 O   0  0  0  0  0  0  0  0  0  0  0  0
   -2.9148    6.3560    2.8837 O   0  0  0  0  0  0  0  0  0  0  0  0
    0.5245    2.8864    3.1532 C   0  0  1  0  0  0  0  0  0  0  0  0
    0.5799    1.3649    3.0054 C   0  0  1  0  0  0  0  0  0  0  0  0
    1.8402    0.8172    3.6581 C   0  0  0  0  0  0  0  0  0  0  0  0
    3.0542    1.5150    3.0668 C   0  0  1  0  0  0  0  0  0  0  0  0
    2.9127    3.0274    3.2343 C   0  0  1  0  0  0  0  0  0  0  0  0
    4.0653    3.7951    2.6127 C   0  0  0  0  0  0  0  0  0  0  0  0
   -0.6458    0.7310    3.5459 N   0  3  0  0  0  0  0  0  0  0  0  0
    4.2895    3.3916    1.2039 N   0  3  0  0  0  0  0  0  0  0  0  0
    0.4480    3.2365    4.4948 O   0  0  0  0  0  0  0  0  0  0  0  0
    4.2356    1.0643    3.7135 O   0  0  0  0  0  0  0  0  0  0  0  0
    1.7008    3.4870    2.5975 O   0  0  0  0  0  0  0  0  0  0  0  0
  1  2  1  0  0  0  0
  1 10  1  0  0  0  0
  1 21  1  1  0  0  0
  2  3  1  0  0  0  0
  2  7  1  1  0  0  0
  3  4  1  0  0  0  0
  3  8  1  6  0  0  0
  4  5  1  0  0  0  0
  4  9  1  1  0  0  0
  5  6  1  6  0  0  0
  5 10  1  0  0  0  0
  6 11  1  0  0  0  0
 12 13  1  0  0  0  0
 12 17  1  0  0  0  0
 12 18  1  1  0  0  0
 13 14  1  0  0  0  0
 14 15  1  0  0  0  0
 14 19  1  1  0  0  0
 15 16  1  0  0  0  0
 15 30  1  6  0  0  0
 16 17  1  0  0  0  0
 16 20  1  6  0  0  0
 17 21  1  6  0  0  0
 22 23  1  0  0  0  0
 22 30  1  1  0  0  0
 22 32  1  0  0  0  0
 23 24  1  0  0  0  0
 23 28  1  1  0  0  0
 24 25  1  0  0  0  0
 25 26  1  0  0  0  0
 25 31  1  1  0  0  0
 26 27  1  6  0  0  0
 26 32  1  0  0  0  0
 27 29  1  0  0  0  0
M  CHG  5   8   1  18   1  19   1  28   1  29   1
M  END
>  <CHROM.1>
-112.80157132,-57.54956384,-136.37512864,173.30896778,179.44309409,48.97066177
-70.59213942,-176.73909768,142.93729995,120.19774852,-147.74222136,-148.98619670
165.36424815,-178.89409528,51.99675865,-154.26656451,-1.14402646,4.72746116
2.79206053,-2.68578351,-0.48658323,1.86937646

>  <Name>
1tob

>  <RI>
0

>  <Rbt.Current_Directory>
/home/itssahil/PROJECTS/Mol_Feturizer/New_Systems/rnas/1tob

>  <Rbt.Executable>
rbdock ($Id: //depot/dev/client3/rdock/2013.1/src/exe/rbdock.cxx#4 $)

>  <Rbt.Library>
libRbt.so (2013.1, Build901 2013/11/27)

>  <Rbt.Parameter_File>
/export/apps/rDock/src/rDock_2013.1_src/data/scripts/dock_solv.prm

>  <Rbt.Receptor>
prm/blind_docking_20.prm

>  <SCORE>
-0.764519

>  <SCORE.INTER>
-27.1356

>  <SCORE.INTER.CONST>
1

>  <SCORE.INTER.POLAR>
-3.53251

>  <SCORE.INTER.ROT>
6

>  <SCORE.INTER.SOLV>
30.2128

>  <SCORE.INTER.VDW>
-23.9863

>  <SCORE.INTER.norm>
-0.847989

>  <SCORE.INTRA>
19.6323

>  <SCORE.INTRA.DIHEDRAL>
10.1395

>  <SCORE.INTRA.DIHEDRAL.0>
22.9177

>  <SCORE.INTRA.POLAR>
0.264638

>  <SCORE.INTRA.POLAR.0>
-0.311208

>  <SCORE.INTRA.REPUL>
0

>  <SCORE.INTRA.REPUL.0>
0

>  <SCORE.INTRA.SOLV>
-6.08503

>  <SCORE.INTRA.SOLV.lig_0>
-132.657

>  <SCORE.INTRA.VDW>
16.7053

>  <SCORE.INTRA.VDW.0>
-4.68867

>  <SCORE.INTRA.norm>
0.613508

>  <SCORE.RESTR>
6.73887

>  <SCORE.RESTR.CAVITY>
6.73887

>  <SCORE.RESTR.norm>
0.21059

>  <SCORE.SYSTEM>
0

>  <SCORE.SYSTEM.CONST>
0

>  <SCORE.SYSTEM.DIHEDRAL>
0

>  <SCORE.SYSTEM.SOLV>
0

>  <SCORE.SYSTEM.norm>
0

>  <SCORE.heavy>
32

>  <SCORE.norm>
-0.0238912

>  <RMSD>
9.273

$$$$
1tob
 OpenBabel11021811413D
libRbt.so/2013.1/901 2013/11/27
 32 34  0  0  0  0  0  0  0  0999 V2000
   -3.6203    5.7033    0.9830 C   0  0  2  0  0  0  0  0  0  0  0  0
   -3.5798    7.1985    0.6764 C   0  0  1  0  0  0  0  0  0  0  0  0
   -2.5433    7.8757    1.5625 C   0  0  2  0  0  0  0  0  0  0  0  0
   -2.8541    7.5763    3.0241 C   0  0  1  0  0  0  0  0  0  0  0  0
   -2.9189    6.0671    3.2417 C   0  0  1  0  0  0  0  0  0  0  0  0
   -3.3015    5.7049    4.6633 C   0  0  0  0  0  0  0  0  0  0  0  0
   -3.2463    7.3989   -0.6897 O   0  0  0  0  0  0  0  0  0  0  0  0
   -2.4821    9.3294    1.2972 N   0  3  0  0  0  0  0  0  0  0  0  0
   -1.8525    8.1472    3.8554 O   0  0  0  0  0  0  0  0  0  0  0  0
   -3.9105    5.4836    2.3692 O   0  0  0  0  0  0  0  0  0  0  0  0
   -2.3223    6.1466    5.5929 O   0  0  0  0  0  0  0  0  0  0  0  0
   -2.8034    2.7847    1.1630 C   0  0  2  0  0  0  0  0  0  0  0  0
   -2.3982    1.6312    2.0705 C   0  0  0  0  0  0  0  0  0  0  0  0
   -0.8973    1.3631    1.9562 C   0  0  1  0  0  0  0  0  0  0  0  0
   -0.1192    2.6149    2.3554 C   0  0  2  0  0  0  0  0  0  0  0  0
   -0.5196    3.7874    1.4586 C   0  0  1  0  0  0  0  0  0  0  0  0
   -2.0253    4.0316    1.5541 C   0  0  1  0  0  0  0  0  0  0  0  0
   -4.2489    3.0702    1.2940 N   0  3  0  0  0  0  0  0  0  0  0  0
   -0.5307    0.1825    2.7809 N   0  3  0  0  0  0  0  0  0  0  0  0
    0.1859    4.9571    1.8512 O   0  0  0  0  0  0  0  0  0  0  0  0
   -2.3981    5.1249    0.6958 O   0  0  0  0  0  0  0  0  0  0  0  0
    1.9325    1.9401    3.4036 C   0  0  1  0  0  0  0  0  0  0  0  0
    2.1233    3.1070    4.3741 C   0  0  1  0  0  0  0  0  0  0  0  0
    3.0364    4.1584    3.7616 C   0  0  0  0  0  0  0  0  0  0  0  0
    4.3474    3.5066    3.3530 C   0  0  1  0  0  0  0  0  0  0  0  0
    4.0705    2.3409    2.4044 C   0  0  1  0  0  0  0  0  0  0  0  0
    5.3340    1.6035    1.9995 C   0  0  0  0  0  0  0  0  0  0  0  0
    0.8190    3.6768    4.7870 N   0  3  0  0  0  0  0  0  0  0  0  0
    5.0287    0.2524    1.4713 N   0  3  0  0  0  0  0  0  0  0  0  0
    1.2990    2.3754    2.2472 O   0  0  0  0  0  0  0  0  0  0  0  0
    5.1858    4.4602    2.7170 O   0  0  0  0  0  0  0  0  0  0  0  0
    3.1997    1.3794    3.0389 O   0  0  0  0  0  0  0  0  0  0  0  0
  1  2  1  0  0  0  0
  1 10  1  0  0  0  0
  1 21  1  1  0  0  0
  2  3  1  0  0  0  0
  2  7  1  6  0  0  0
  3  4  1  0  0  0  0
  3  8  1  1  0  0  0
  4  5  1  0  0  0  0
  4  9  1  1  0  0  0
  5  6  1  1  0  0  0
  5 10  1  0  0  0  0
  6 11  1  0  0  0  0
 12 13  1  0  0  0  0
 12 17  1  0  0  0  0
 12 18  1  1  0  0  0
 13 14  1  0  0  0  0
 14 15  1  0  0  0  0
 14 19  1  1  0  0  0
 15 16  1  0  0  0  0
 15 30  1  6  0  0  0
 16 17  1  0  0  0  0
 16 20  1  1  0  0  0
 17 21  1  6  0  0  0
 22 23  1  0  0  0  0
 22 30  1  6  0  0  0
 22 32  1  0  0  0  0
 23 24  1  0  0  0  0
 23 28  1  6  0  0  0
 24 25  1  0  0  0  0
 25 26  1  0  0  0  0
 25 31  1  6  0  0  0
 26 27  1  1  0  0  0
 26 32  1  0  0  0  0
 27 29  1  0  0  0  0
M  CHG  5   8   1  18   1  19   1  28   1  29   1
M  END
>  <CHROM.1>
146.71645099,51.55591560,71.62709271,-167.11765742,-63.61302906,-65.39279065
-42.54894418,63.02980329,-92.84648896,77.44987363,76.55366829,-76.05089889
49.24252092,-179.84129983,161.14264057,-110.68093245,-0.36515403,4.23534213
2.42033852,2.57281503,-0.22220573,0.16409208

>  <Name>
1tob

>  <RI>
0

>  <Rbt.Current_Directory>
/home/itssahil/PROJECTS/Mol_Feturizer/New_Systems/rnas/1tob

>  <Rbt.Executable>
rbdock ($Id: //depot/dev/client3/rdock/2013.1/src/exe/rbdock.cxx#4 $)

>  <Rbt.Library>
libRbt.so (2013.1, Build901 2013/11/27)

>  <Rbt.Parameter_File>
/export/apps/rDock/src/rDock_2013.1_src/data/scripts/dock_solv.prm

>  <Rbt.Receptor>
prm/blind_docking_40.prm

>  <SCORE>
-36.3767

>  <SCORE.INTER>
-43.1661

>  <SCORE.INTER.CONST>
1

>  <SCORE.INTER.POLAR>
-3.98983

>  <SCORE.INTER.ROT>
6

>  <SCORE.INTER.SOLV>
34.1664

>  <SCORE.INTER.VDW>
-34.4668

>  <SCORE.INTER.norm>
-1.34894

>  <SCORE.INTRA>
1.09753

>  <SCORE.INTRA.DIHEDRAL>
-3.2778

>  <SCORE.INTRA.DIHEDRAL.0>
22.9177

>  <SCORE.INTRA.POLAR>
-1.14474

>  <SCORE.INTRA.POLAR.0>
-0.311208

>  <SCORE.INTRA.REPUL>
0

>  <SCORE.INTRA.REPUL.0>
0

>  <SCORE.INTRA.SOLV>
1.55764

>  <SCORE.INTRA.SOLV.lig_0>
-132.657

>  <SCORE.INTRA.VDW>
5.84971

>  <SCORE.INTRA.VDW.0>
-4.68867

>  <SCORE.INTRA.norm>
0.0342977

>  <SCORE.RESTR>
5.69194

>  <SCORE.RESTR.CAVITY>
5.69194

>  <SCORE.RESTR.norm>
0.177873

>  <SCORE.SYSTEM>
0

>  <SCORE.SYSTEM.CONST>
0

>  <SCORE.SYSTEM.DIHEDRAL>
0

>  <SCORE.SYSTEM.SOLV>
0

>  <SCORE.SYSTEM.norm>
0

>  <SCORE.heavy>
32

>  <SCORE.norm>
-1.13677

>  <RMSD>
9.291

$$$$
1tob
 OpenBabel11021811413D
libRbt.so/2013.1/901 2013/11/27
 32 34  0  0  0  0  0  0  0  0999 V2000
   -3.8830    4.4832    3.4626 C   0  0  2  0  0  0  0  0  0  0  0  0
   -4.7470    4.4536    2.2041 C   0  0  1  0  0  0  0  0  0  0  0  0
   -4.9237    5.8686    1.6702 C   0  0  2  0  0  0  0  0  0  0  0  0
   -5.5009    6.7549    2.7674 C   0  0  1  0  0  0  0  0  0  0  0  0
   -4.6066    6.6992    4.0029 C   0  0  1  0  0  0  0  0  0  0  0  0
   -5.1693    7.5020    5.1594 C   0  0  0  0  0  0  0  0  0  0  0  0
   -4.1273    3.6429    1.2161 O   0  0  0  0  0  0  0  0  0  0  0  0
   -5.7635    5.8787    0.4529 N   0  3  0  0  0  0  0  0  0  0  0  0
   -5.6050    8.0929    2.2996 O   0  0  0  0  0  0  0  0  0  0  0  0
   -4.4710    5.3344    4.4545 O   0  0  0  0  0  0  0  0  0  0  0  0
   -5.6179    8.7809    4.7337 O   0  0  0  0  0  0  0  0  0  0  0  0
   -0.4558    4.0541    2.5893 C   0  0  2  0  0  0  0  0  0  0  0  0
    0.6976    3.2150    3.1219 C   0  0  0  0  0  0  0  0  0  0  0  0
    1.2841    3.8514    4.3822 C   0  0  1  0  0  0  0  0  0  0  0  0
    0.2028    3.9593    5.4550 C   0  0  2  0  0  0  0  0  0  0  0  0
   -0.9688    4.7932    4.9342 C   0  0  1  0  0  0  0  0  0  0  0  0
   -1.5319    4.1687    3.6580 C   0  0  1  0  0  0  0  0  0  0  0  0
   -1.0487    3.4258    1.3884 N   0  3  0  0  0  0  0  0  0  0  0  0
    2.4610    3.0695    4.8424 N   0  3  0  0  0  0  0  0  0  0  0  0
   -1.9850    4.8680    5.9251 O   0  0  0  0  0  0  0  0  0  0  0  0
   -2.6228    4.9666    3.1641 O   0  0  0  0  0  0  0  0  0  0  0  0
    0.7394    3.7689    7.7873 C   0  0  1  0  0  0  0  0  0  0  0  0
    0.7660    4.6431    9.0423 C   0  0  1  0  0  0  0  0  0  0  0  0
    2.0537    5.4514    9.0948 C   0  0  0  0  0  0  0  0  0  0  0  0
    3.2416    4.5074    9.0045 C   0  0  1  0  0  0  0  0  0  0  0  0
    3.1300    3.6570    7.7396 C   0  0  1  0  0  0  0  0  0  0  0  0
    4.2558    2.6467    7.6129 C   0  0  0  0  0  0  0  0  0  0  0  0
   -0.4357    5.5074    9.1164 N   0  3  0  0  0  0  0  0  0  0  0  0
    4.0714    1.5084    8.5445 N   0  3  0  0  0  0  0  0  0  0  0  0
    0.7435    4.5629    6.6482 O   0  0  0  0  0  0  0  0  0  0  0  0
    4.4515    5.2508    8.9833 O   0  0  0  0  0  0  0  0  0  0  0  0
    1.8904    2.9163    7.7461 O   0  0  0  0  0  0  0  0  0  0  0  0
  1  2  1  0  0  0  0
  1 10  1  0  0  0  0
  1 21  1  6  0  0  0
  2  3  1  0  0  0  0
  2  7  1  6  0  0  0
  3  4  1  0  0  0  0
  3  8  1  6  0  0  0
  4  5  1  0  0  0  0
  4  9  1  6  0  0  0
  5  6  1  1  0  0  0
  5 10  1  0  0  0  0
  6 11  1  0  0  0  0
 12 13  1  0  0  0  0
 12 17  1  0  0  0  0
 12 18  1  6  0  0  0
 13 14  1  0  0  0  0
 14 15  1  0  0  0  0
 14 19  1  1  0  0  0
 15 16  1  0  0  0  0
 15 30  1  1  0  0  0
 16 17  1  0  0  0  0
 16 20  1  1  0  0  0
 17 21  1  6  0  0  0
 22 23  1  0  0  0  0
 22 30  1  6  0  0  0
 22 32  1  0  0  0  0
 23 24  1  0  0  0  0
 23 28  1  6  0  0  0
 24 25  1  0  0  0  0
 25 26  1  0  0  0  0
 25 31  1  6  0  0  0
 26 27  1  1  0  0  0
 26 32  1  0  0  0  0
 27 29  1  0  0  0  0
M  CHG  5   8   1  18   1  19   1  28   1  29   1
M  END
>  <CHROM.1>
-130.76619735,98.41912730,-64.28041060,-59.07139820,-45.84983007,-83.29008002
161.43770586,-103.46509456,-117.28328967,177.21375042,137.38742166,-156.38321423
-166.89868643,-58.11120265,74.81655073,177.90393095,-1.06260196,4.77122287
5.08567917,-2.75271738,-0.55003955,1.07572972

>  <Name>
1tob

>  <RI>
0

>  <Rbt.Current_Directory>
/home/itssahil/PROJECTS/Mol_Feturizer/New_Systems/rnas/1tob

>  <Rbt.Executable>
rbdock ($Id: //depot/dev/client3/rdock/2013.1/src/exe/rbdock.cxx#4 $)

>  <Rbt.Library>
libRbt.so (2013.1, Build901 2013/11/27)

>  <Rbt.Parameter_File>
/export/apps/rDock/src/rDock_2013.1_src/data/scripts/dock_solv.prm

>  <Rbt.Receptor>
prm/pocket_docking_6.prm

>  <SCORE>
-51.4697

>  <SCORE.INTER>
-52.2707

>  <SCORE.INTER.CONST>
1

>  <SCORE.INTER.POLAR>
-7.39091

>  <SCORE.INTER.ROT>
6

>  <SCORE.INTER.SOLV>
25.9052

>  <SCORE.INTER.VDW>
-26.4458

>  <SCORE.INTER.norm>
-1.63346

>  <SCORE.INTRA>
0.782243

>  <SCORE.INTRA.DIHEDRAL>
12.2364

>  <SCORE.INTRA.DIHEDRAL.0>
22.9177

>  <SCORE.INTRA.POLAR>
-1.79065

>  <SCORE.INTRA.POLAR.0>
-0.311208

>  <SCORE.INTRA.REPUL>
0

>  <SCORE.INTRA.REPUL.0>
0

>  <SCORE.INTRA.SOLV>
1.11541

>  <SCORE.INTRA.SOLV.lig_0>
-132.657

>  <SCORE.INTRA.VDW>
0.194562

>  <SCORE.INTRA.VDW.0>
-4.68867

>  <SCORE.INTRA.norm>
0.0244451

>  <SCORE.RESTR>
0.0187319

>  <SCORE.RESTR.CAVITY>
0.0187319

>  <SCORE.RESTR.norm>
0.000585371

>  <SCORE.SYSTEM>
0

>  <SCORE.SYSTEM.CONST>
0

>  <SCORE.SYSTEM.DIHEDRAL>
0

>  <SCORE.SYSTEM.SOLV>
0

>  <SCORE.SYSTEM.norm>
0

>  <SCORE.heavy>
32

>  <SCORE.norm>
-1.60843

>  <RMSD>
9.307

$$$$
1tob
 OpenBabel11021811413D
libRbt.so/2013.1/901 2013/11/27
 32 34  0  0  0  0  0  0  0  0999 V2000
   -4.4991    4.7811    3.1305 C   0  0  2  0  0  0  0  0  0  0  0  0
   -4.7588    3.7320    2.0520 C   0  0  1  0  0  0  0  0  0  0  0  0
   -5.1298    4.4206    0.7457 C   0  0  2  0  0  0  0  0  0  0  0  0
   -6.3218    5.3409    0.9797 C   0  0  1  0  0  0  0  0  0  0  0  0
   -6.0013    6.3305    2.0965 C   0  0  1  0  0  0  0  0  0  0  0  0
   -7.1785    7.2258    2.4298 C   0  0  0  0  0  0  0  0  0  0  0  0
   -3.5944    2.9410    1.8625 O   0  0  0  0  0  0  0  0  0  0  0  0
   -5.3961    3.4322   -0.3218 N   0  3  0  0  0  0  0  0  0  0  0  0
   -6.6319    6.0400   -0.2183 O   0  0  0  0  0  0  0  0  0  0  0  0
   -5.6494    5.6185    3.3025 O   0  0  0  0  0  0  0  0  0  0  0  0
   -6.9429    7.9734    3.6145 O   0  0  0  0  0  0  0  0  0  0  0  0
   -2.8454    5.5909    5.1208 C   0  0  2  0  0  0  0  0  0  0  0  0
   -1.6705    5.5682    6.0889 C   0  0  0  0  0  0  0  0  0  0  0  0
   -0.8221    4.3152    5.8704 C   0  0  1  0  0  0  0  0  0  0  0  0
   -0.2943    4.2946    4.4377 C   0  0  2  0  0  0  0  0  0  0  0  0
   -1.4617    4.3251    3.4500 C   0  0  1  0  0  0  0  0  0  0  0  0
   -2.3229    5.5641    3.6926 C   0  0  1  0  0  0  0  0  0  0  0  0
   -3.6514    6.8176    5.3053 N   0  3  0  0  0  0  0  0  0  0  0  0
    0.2704    4.2629    6.8763 N   0  3  0  0  0  0  0  0  0  0  0  0
   -0.9659    4.3341    2.1180 O   0  0  0  0  0  0  0  0  0  0  0  0
   -3.4285    5.5784    2.7715 O   0  0  0  0  0  0  0  0  0  0  0  0
    0.7924    2.8115    2.8938 C   0  0  1  0  0  0  0  0  0  0  0  0
    0.6202    1.3123    2.6434 C   0  0  1  0  0  0  0  0  0  0  0  0
    1.6109    0.5202    3.4831 C   0  0  0  0  0  0  0  0  0  0  0  0
    3.0195    1.0119    3.1924 C   0  0  1  0  0  0  0  0  0  0  0  0
    3.1031    2.5169    3.4447 C   0  0  1  0  0  0  0  0  0  0  0  0
    4.4703    3.0897    3.1179 C   0  0  0  0  0  0  0  0  0  0  0  0
   -0.7786    0.8876    2.8869 N   0  3  0  0  0  0  0  0  0  0  0  0
    4.3618    4.4205    2.4739 N   0  3  0  0  0  0  0  0  0  0  0  0
    0.5045    3.1138    4.2181 O   0  0  0  0  0  0  0  0  0  0  0  0
    3.9517    0.3296    4.0185 O   0  0  0  0  0  0  0  0  0  0  0  0
    2.1410    3.2131    2.6232 O   0  0  0  0  0  0  0  0  0  0  0  0
  1  2  1  0  0  0  0
  1 10  1  0  0  0  0
  1 21  1  6  0  0  0
  2  3  1  0  0  0  0
  2  7  1  6  0  0  0
  3  4  1  0  0  0  0
  3  8  1  6  0  0  0
  4  5  1  0  0  0  0
  4  9  1  6  0  0  0
  5  6  1  1  0  0  0
  5 10  1  0  0  0  0
  6 11  1  0  0  0  0
 12 13  1  0  0  0  0
 12 17  1  0  0  0  0
 12 18  1  6  0  0  0
 13 14  1  0  0  0  0
 14 15  1  0  0  0  0
 14 19  1  1  0  0  0
 15 16  1  0  0  0  0
 15 30  1  1  0  0  0
 16 17  1  0  0  0  0
 16 20  1  6  0  0  0
 17 21  1  6  0  0  0
 22 23  1  0  0  0  0
 22 30  1  1  0  0  0
 22 32  1  0  0  0  0
 23 24  1  0  0  0  0
 23 28  1  1  0  0  0
 24 25  1  0  0  0  0
 25 26  1  0  0  0  0
 25 31  1  1  0  0  0
 26 27  1  6  0  0  0
 26 32  1  0  0  0  0
 27 29  1  0  0  0  0
M  CHG  5   8   1  18   1  19   1  28   1  29   1
M  END
>  <CHROM.1>
-120.38009429,90.04665214,-18.92439800,-67.84926357,169.83703924,-48.93461210
-64.81848653,-71.81031319,165.89313422,167.86645727,-41.15690974,-136.64707453
82.29982547,-62.23860458,140.98800869,-29.55009527,-1.74145572,4.12466003
3.12494050,-3.03099702,0.41884719,-2.21228211

>  <Name>
1tob

>  <RI>
0

>  <Rbt.Current_Directory>
/home/itssahil/PROJECTS/Mol_Feturizer/New_Systems/rnas/1tob

>  <Rbt.Executable>
rbdock ($Id: //depot/dev/client3/rdock/2013.1/src/exe/rbdock.cxx#4 $)

>  <Rbt.Library>
libRbt.so (2013.1, Build901 2013/11/27)

>  <Rbt.Parameter_File>
/export/apps/rDock/src/rDock_2013.1_src/data/scripts/dock_solv.prm

>  <Rbt.Receptor>
prm/blind_docking_20.prm

>  <SCORE>
-21.2464

>  <SCORE.INTER>
-34.54

>  <SCORE.INTER.CONST>
1

>  <SCORE.INTER.POLAR>
-5.40664

>  <SCORE.INTER.ROT>
6

>  <SCORE.INTER.SOLV>
35.9709

>  <SCORE.INTER.VDW>
-24.5948

>  <SCORE.INTER.norm>
-1.07937

>  <SCORE.INTRA>
5.51268

>  <SCORE.INTRA.DIHEDRAL>
8.18362

>  <SCORE.INTRA.DIHEDRAL.0>
22.9177

>  <SCORE.INTRA.POLAR>
-1.11948

>  <SCORE.INTRA.POLAR.0>
-0.311208

>  <SCORE.INTRA.REPUL>
0.0115486

>  <SCORE.INTRA.REPUL.0>
0

>  <SCORE.INTRA.SOLV>
-1.8472

>  <SCORE.INTRA.SOLV.lig_0>
-132.657

>  <SCORE.INTRA.VDW>
6.09297

>  <SCORE.INTRA.VDW.0>
-4.68867

>  <SCORE.INTRA.norm>
0.172271

>  <SCORE.RESTR>
7.78084

>  <SCORE.RESTR.CAVITY>
7.78084

>  <SCORE.RESTR.norm>
0.243151

>  <SCORE.SYSTEM>
0

>  <SCORE.SYSTEM.CONST>
0

>  <SCORE.SYSTEM.DIHEDRAL>
0

>  <SCORE.SYSTEM.SOLV>
0

>  <SCORE.SYSTEM.norm>
0

>  <SCORE.heavy>
32

>  <SCORE.norm>
-0.663952

>  <RMSD>
9.313

$$$$
1tob
 OpenBabel11021811413D
libRbt.so/2013.1/901 2013/11/27
 32 34  0  0  0  0  0  0  0  0999 V2000
   -3.8160    4.7710    3.7695 C   0  0  2  0  0  0  0  0  0  0  0  0
   -4.5313    4.0401    2.6357 C   0  0  1  0  0  0  0  0  0  0  0  0
   -4.8036    5.0085    1.4927 C   0  0  2  0  0  0  0  0  0  0  0  0
   -5.5890    6.2038    2.0187 C   0  0  1  0  0  0  0  0  0  0  0  0
   -4.8320    6.8540    3.1735 C   0  0  1  0  0  0  0  0  0  0  0  0
   -5.6004    8.0055    3.7917 C   0  0  0  0  0  0  0  0  0  0  0  0
   -3.7238    2.9673    2.1723 O   0  0  0  0  0  0  0  0  0  0  0  0
   -5.5037    4.3347    0.3777 N   0  3  0  0  0  0  0  0  0  0  0  0
   -5.7883    7.1459    0.9733 O   0  0  0  0  0  0  0  0  0  0  0  0
   -4.5970    5.8856    4.2186 O   0  0  0  0  0  0  0  0  0  0  0  0
   -5.0543    8.3782    5.0490 O   0  0  0  0  0  0  0  0  0  0  0  0
   -0.4368    4.4475    2.5709 C   0  0  2  0  0  0  0  0  0  0  0  0
    0.7579    3.5884    2.9619 C   0  0  0  0  0  0  0  0  0  0  0  0
    1.3915    4.1095    4.2521 C   0  0  1  0  0  0  0  0  0  0  0  0
    0.3612    4.0820    5.3789 C   0  0  2  0  0  0  0  0  0  0  0  0
   -0.8509    4.9342    4.9999 C   0  0  1  0  0  0  0  0  0  0  0  0
   -1.4621    4.4270    3.6941 C   0  0  1  0  0  0  0  0  0  0  0  0
   -1.0741    3.9282    1.3410 N   0  3  0  0  0  0  0  0  0  0  0  0
    2.6049    3.3153    4.5758 N   0  3  0  0  0  0  0  0  0  0  0  0
   -1.8194    4.8835    6.0389 O   0  0  0  0  0  0  0  0  0  0  0  0
   -2.5917    5.2428    3.3344 O   0  0  0  0  0  0  0  0  0  0  0  0
    0.8790    3.7246    7.6958 C   0  0  1  0  0  0  0  0  0  0  0  0
    0.7764    4.5334    8.9901 C   0  0  1  0  0  0  0  0  0  0  0  0
    2.0278    5.3759    9.1861 C   0  0  0  0  0  0  0  0  0  0  0  0
    3.2504    4.4736    9.1461 C   0  0  1  0  0  0  0  0  0  0  0  0
    3.2683    3.6865    7.8362 C   0  0  1  0  0  0  0  0  0  0  0  0
    4.4341    2.7181    7.7516 C   0  0  0  0  0  0  0  0  0  0  0  0
   -0.4559    5.3565    9.0090 N   0  3  0  0  0  0  0  0  0  0  0  0
    5.7264    3.4335    7.6259 N   0  3  0  0  0  0  0  0  0  0  0  0
    0.9466    4.5761    6.6010 O   0  0  0  0  0  0  0  0  0  0  0  0
    4.4323    5.2528    9.2593 O   0  0  0  0  0  0  0  0  0  0  0  0
    2.0578    2.9100    7.7060 O   0  0  0  0  0  0  0  0  0  0  0  0
  1  2  1  0  0  0  0
  1 10  1  0  0  0  0
  1 21  1  6  0  0  0
  2  3  1  0  0  0  0
  2  7  1  6  0  0  0
  3  4  1  0  0  0  0
  3  8  1  6  0  0  0
  4  5  1  0  0  0  0
  4  9  1  6  0  0  0
  5  6  1  1  0  0  0
  5 10  1  0  0  0  0
  6 11  1  0  0  0  0
 12 13  1  0  0  0  0
 12 17  1  0  0  0  0
 12 18  1  6  0  0  0
 13 14  1  0  0  0  0
 14 15  1  0  0  0  0
 14 19  1  1  0  0  0
 15 16  1  0  0  0  0
 15 30  1  1  0  0  0
 16 17  1  0  0  0  0
 16 20  1  1  0  0  0
 17 21  1  6  0  0  0
 22 23  1  0  0  0  0
 22 30  1  6  0  0  0
 22 32  1  0  0  0  0
 23 24  1  0  0  0  0
 23 28  1  6  0  0  0
 24 25  1  0  0  0  0
 25 26  1  0  0  0  0
 25 31  1  6  0  0  0
 26 27  1  1  0  0  0
 26 32  1  0  0  0  0
 27 29  1  0  0  0  0
M  CHG  5   8   1  18   1  19   1  28   1  29   1
M  END
>  <CHROM.1>
-99.20943323,84.61483335,-12.08039365,176.98131430,165.42095335,84.60353321
-160.81147815,170.16878984,-124.21800953,167.70865754,144.15168868,-148.51870189
-168.60463082,64.02451013,-69.06497480,167.80919531,-0.93048341,4.78115002
4.97932284,2.68547670,0.46819990,-2.02081613

>  <Name>
1tob

>  <RI>
0

>  <Rbt.Current_Directory>
/home/itssahil/PROJECTS/Mol_Feturizer/New_Systems/rnas/1tob

>  <Rbt.Executable>
rbdock ($Id: //depot/dev/client3/rdock/2013.1/src/exe/rbdock.cxx#4 $)

>  <Rbt.Library>
libRbt.so (2013.1, Build901 2013/11/27)

>  <Rbt.Parameter_File>
/export/apps/rDock/src/rDock_2013.1_src/data/scripts/dock_solv.prm

>  <Rbt.Receptor>
prm/pocket_docking_7.prm

>  <SCORE>
-57.3441

>  <SCORE.INTER>
-58.3191

>  <SCORE.INTER.CONST>
1

>  <SCORE.INTER.POLAR>
-8.39111

>  <SCORE.INTER.ROT>
6

>  <SCORE.INTER.SOLV>
28.0157

>  <SCORE.INTER.VDW>
-27.8476

>  <SCORE.INTER.norm>
-1.82247

>  <SCORE.INTRA>
0.975021

>  <SCORE.INTRA.DIHEDRAL>
10.1746

>  <SCORE.INTRA.DIHEDRAL.0>
22.9177

>  <SCORE.INTRA.POLAR>
-1.30607

>  <SCORE.INTRA.POLAR.0>
-0.311208

>  <SCORE.INTRA.REPUL>
0

>  <SCORE.INTRA.REPUL.0>
0

>  <SCORE.INTRA.SOLV>
1.21747

>  <SCORE.INTRA.SOLV.lig_0>
-132.657

>  <SCORE.INTRA.VDW>
-0.28039

>  <SCORE.INTRA.VDW.0>
-4.68867

>  <SCORE.INTRA.norm>
0.0304694

>  <SCORE.RESTR>
0

>  <SCORE.RESTR.CAVITY>
0

>  <SCORE.RESTR.norm>
0

>  <SCORE.SYSTEM>
0

>  <SCORE.SYSTEM.CONST>
0

>  <SCORE.SYSTEM.DIHEDRAL>
0

>  <SCORE.SYSTEM.SOLV>
0

>  <SCORE.SYSTEM.norm>
0

>  <SCORE.heavy>
32

>  <SCORE.norm>
-1.792

>  <RMSD>
9.315

$$$$
1tob
 OpenBabel11021811413D
libRbt.so/2013.1/901 2013/11/27
 32 34  0  0  0  0  0  0  0  0999 V2000
   -3.2438    6.4428    3.9151 C   0  0  2  0  0  0  0  0  0  0  0  0
   -3.7589    7.6770    4.6517 C   0  0  1  0  0  0  0  0  0  0  0  0
   -5.2808    7.7009    4.6099 C   0  0  2  0  0  0  0  0  0  0  0  0
   -5.7482    7.6346    3.1609 C   0  0  1  0  0  0  0  0  0  0  0  0
   -5.1600    6.4006    2.4824 C   0  0  1  0  0  0  0  0  0  0  0  0
   -5.5269    6.3194    1.0136 C   0  0  0  0  0  0  0  0  0  0  0  0
   -3.3173    7.6489    6.0014 O   0  0  0  0  0  0  0  0  0  0  0  0
   -5.8153    8.8896    5.3091 N   0  3  0  0  0  0  0  0  0  0  0  0
   -7.1680    7.5870    3.1154 O   0  0  0  0  0  0  0  0  0  0  0  0
   -3.7185    6.4315    2.5629 O   0  0  0  0  0  0  0  0  0  0  0  0
   -4.6345    7.0812    0.2129 O   0  0  0  0  0  0  0  0  0  0  0  0
   -3.3759    3.6224    2.8199 C   0  0  2  0  0  0  0  0  0  0  0  0
   -2.6004    2.3607    2.4664 C   0  0  0  0  0  0  0  0  0  0  0  0
   -1.0961    2.6327    2.4940 C   0  0  1  0  0  0  0  0  0  0  0  0
   -0.6839    3.1032    3.8870 C   0  0  2  0  0  0  0  0  0  0  0  0
   -1.4595    4.3667    4.2628 C   0  0  1  0  0  0  0  0  0  0  0  0
   -2.9628    4.0972    4.2046 C   0  0  1  0  0  0  0  0  0  0  0  0
   -4.8312    3.3570    2.8270 N   0  3  0  0  0  0  0  0  0  0  0  0
   -0.3551    1.4182    2.0652 N   0  3  0  0  0  0  0  0  0  0  0  0
   -1.0937    4.7855    5.5708 O   0  0  0  0  0  0  0  0  0  0  0  0
   -3.6869    5.2938    4.5430 O   0  0  0  0  0  0  0  0  0  0  0  0
    1.5587    2.2529    3.9953 C   0  0  1  0  0  0  0  0  0  0  0  0
    2.4061    2.3017    5.2678 C   0  0  1  0  0  0  0  0  0  0  0  0
    3.3294    3.5104    5.2406 C   0  0  0  0  0  0  0  0  0  0  0  0
    4.1661    3.4732    3.9721 C   0  0  1  0  0  0  0  0  0  0  0  0
    3.2496    3.4032    2.7512 C   0  0  1  0  0  0  0  0  0  0  0  0
    4.0195    3.3040    1.4468 C   0  0  0  0  0  0  0  0  0  0  0  0
    1.5522    2.2822    6.4789 N   0  3  0  0  0  0  0  0  0  0  0  0
    4.8564    2.0811    1.4018 N   0  3  0  0  0  0  0  0  0  0  0  0
    0.7336    3.3674    3.9242 O   0  0  0  0  0  0  0  0  0  0  0  0
    4.9855    4.6307    3.8972 O   0  0  0  0  0  0  0  0  0  0  0  0
    2.3984    2.2396    2.8342 O   0  0  0  0  0  0  0  0  0  0  0  0
  1  2  1  0  0  0  0
  1 10  1  0  0  0  0
  1 21  1  1  0  0  0
  2  3  1  0  0  0  0
  2  7  1  1  0  0  0
  3  4  1  0  0  0  0
  3  8  1  6  0  0  0
  4  5  1  0  0  0  0
  4  9  1  1  0  0  0
  5  6  1  6  0  0  0
  5 10  1  0  0  0  0
  6 11  1  0  0  0  0
 12 13  1  0  0  0  0
 12 17  1  0  0  0  0
 12 18  1  1  0  0  0
 13 14  1  0  0  0  0
 14 15  1  0  0  0  0
 14 19  1  1  0  0  0
 15 16  1  0  0  0  0
 15 30  1  6  0  0  0
 16 17  1  0  0  0  0
 16 20  1  1  0  0  0
 17 21  1  6  0  0  0
 22 23  1  0  0  0  0
 22 30  1  6  0  0  0
 22 32  1  0  0  0  0
 23 24  1  0  0  0  0
 23 28  1  1  0  0  0
 24 25  1  0  0  0  0
 25 26  1  0  0  0  0
 25 31  1  6  0  0  0
 26 27  1  6  0  0  0
 26 32  1  0  0  0  0
 27 29  1  0  0  0  0
M  CHG  5   8   1  18   1  19   1  28   1  29   1
M  END
>  <CHROM.1>
-162.14324623,178.39511137,-116.40793371,-172.08174809,84.67582619,-66.65136864
70.83423917,42.73460984,-76.87429265,-61.20130358,-75.78320248,-119.87359752
-153.33690095,-44.21401123,60.88750045,77.46652683,-1.33211400,4.63404360
3.54879837,-2.88211269,0.38931134,-2.20017416

>  <Name>
1tob

>  <RI>
0

>  <Rbt.Current_Directory>
/home/itssahil/PROJECTS/Mol_Feturizer/New_Systems/rnas/1tob

>  <Rbt.Executable>
rbdock ($Id: //depot/dev/client3/rdock/2013.1/src/exe/rbdock.cxx#4 $)

>  <Rbt.Library>
libRbt.so (2013.1, Build901 2013/11/27)

>  <Rbt.Parameter_File>
/export/apps/rDock/src/rDock_2013.1_src/data/scripts/dock_solv.prm

>  <Rbt.Receptor>
prm/blind_docking_80.prm

>  <SCORE>
-25.3201

>  <SCORE.INTER>
-38.3044

>  <SCORE.INTER.CONST>
1

>  <SCORE.INTER.POLAR>
-6.00599

>  <SCORE.INTER.ROT>
6

>  <SCORE.INTER.SOLV>
39.7488

>  <SCORE.INTER.VDW>
-26.3659

>  <SCORE.INTER.norm>
-1.19701

>  <SCORE.INTRA>
3.25913

>  <SCORE.INTRA.DIHEDRAL>
-1.36475

>  <SCORE.INTRA.DIHEDRAL.0>
22.9177

>  <SCORE.INTRA.POLAR>
-0.565771

>  <SCORE.INTRA.POLAR.0>
-0.311208

>  <SCORE.INTRA.REPUL>
0

>  <SCORE.INTRA.REPUL.0>
0

>  <SCORE.INTRA.SOLV>
0.518447

>  <SCORE.INTRA.SOLV.lig_0>
-132.657

>  <SCORE.INTRA.VDW>
5.60589

>  <SCORE.INTRA.VDW.0>
-4.68867

>  <SCORE.INTRA.norm>
0.101848

>  <SCORE.RESTR>
9.72516

>  <SCORE.RESTR.CAVITY>
9.72516

>  <SCORE.RESTR.norm>
0.303911

>  <SCORE.SYSTEM>
0

>  <SCORE.SYSTEM.CONST>
0

>  <SCORE.SYSTEM.DIHEDRAL>
0

>  <SCORE.SYSTEM.SOLV>
0

>  <SCORE.SYSTEM.norm>
0

>  <SCORE.heavy>
32

>  <SCORE.norm>
-0.791254

>  <RMSD>
9.317

$$$$
1tob
 OpenBabel11021811413D
libRbt.so/2013.1/901 2013/11/27
 32 34  0  0  0  0  0  0  0  0999 V2000
   -3.4489    3.8789    3.7444 C   0  0  2  0  0  0  0  0  0  0  0  0
   -4.3017    3.4969    2.5369 C   0  0  1  0  0  0  0  0  0  0  0  0
   -4.6210    4.7418    1.7204 C   0  0  2  0  0  0  0  0  0  0  0  0
   -5.2892    5.7772    2.6170 C   0  0  1  0  0  0  0  0  0  0  0  0
   -4.3975    6.0745    3.8194 C   0  0  1  0  0  0  0  0  0  0  0  0
   -5.0429    7.0427    4.7912 C   0  0  0  0  0  0  0  0  0  0  0  0
   -3.5992    2.5624    1.7302 O   0  0  0  0  0  0  0  0  0  0  0  0
   -5.4539    4.4095    0.5442 N   0  3  0  0  0  0  0  0  0  0  0  0
   -5.5286    6.9686    1.8799 O   0  0  0  0  0  0  0  0  0  0  0  0
   -4.1240    4.8568    4.5456 O   0  0  0  0  0  0  0  0  0  0  0  0
   -4.0687    7.7244    5.5686 O   0  0  0  0  0  0  0  0  0  0  0  0
   -0.0231    3.6981    2.6824 C   0  0  2  0  0  0  0  0  0  0  0  0
    1.2125    2.9555    3.1723 C   0  0  0  0  0  0  0  0  0  0  0  0
    1.7764    3.6249    4.4258 C   0  0  1  0  0  0  0  0  0  0  0  0
    0.7196    3.6259    5.5281 C   0  0  2  0  0  0  0  0  0  0  0  0
   -0.5333    4.3616    5.0504 C   0  0  1  0  0  0  0  0  0  0  0  0
   -1.0753    3.7063    3.7805 C   0  0  1  0  0  0  0  0  0  0  0  0
   -0.5924    3.0355    1.4885 N   0  3  0  0  0  0  0  0  0  0  0  0
    3.0284    2.9422    4.8435 N   0  3  0  0  0  0  0  0  0  0  0  0
   -1.5246    4.3362    6.0686 O   0  0  0  0  0  0  0  0  0  0  0  0
   -2.2441    4.4128    3.3270 O   0  0  0  0  0  0  0  0  0  0  0  0
    1.8623    3.4207    7.6295 C   0  0  1  0  0  0  0  0  0  0  0  0
    1.5537    3.8720    9.0582 C   0  0  1  0  0  0  0  0  0  0  0  0
    2.1191    5.2624    9.3058 C   0  0  0  0  0  0  0  0  0  0  0  0
    3.6065    5.2613    8.9926 C   0  0  1  0  0  0  0  0  0  0  0  0
    3.8318    4.7794    7.5599 C   0  0  1  0  0  0  0  0  0  0  0  0
    5.3030    4.6966    7.1953 C   0  0  0  0  0  0  0  0  0  0  0  0
    0.0995    3.8061    9.3365 N   0  3  0  0  0  0  0  0  0  0  0  0
    5.5043    4.7760    5.7287 N   0  3  0  0  0  0  0  0  0  0  0  0
    1.2389    4.2595    6.7153 O   0  0  0  0  0  0  0  0  0  0  0  0
    4.1370    6.5689    9.1530 O   0  0  0  0  0  0  0  0  0  0  0  0
    3.2738    3.4589    7.3858 O   0  0  0  0  0  0  0  0  0  0  0  0
  1  2  1  0  0  0  0
  1 10  1  0  0  0  0
  1 21  1  6  0  0  0
  2  3  1  0  0  0  0
  2  7  1  6  0  0  0
  3  4  1  0  0  0  0
  3  8  1  6  0  0  0
  4  5  1  0  0  0  0
  4  9  1  6  0  0  0
  5  6  1  1  0  0  0
  5 10  1  0  0  0  0
  6 11  1  0  0  0  0
 12 13  1  0  0  0  0
 12 17  1  0  0  0  0
 12 18  1  6  0  0  0
 13 14  1  0  0  0  0
 14 15  1  0  0  0  0
 14 19  1  1  0  0  0
 15 16  1  0  0  0  0
 15 30  1  1  0  0  0
 16 17  1  0  0  0  0
 16 20  1  1  0  0  0
 17 21  1  6  0  0  0
 22 23  1  0  0  0  0
 22 30  1  6  0  0  0
 22 32  1  0  0  0  0
 23 24  1  0  0  0  0
 23 28  1  6  0  0  0
 24 25  1  0  0  0  0
 25 26  1  0  0  0  0
 25 31  1  6  0  0  0
 26 27  1  1  0  0  0
 26 32  1  0  0  0  0
 27 29  1  0  0  0  0
M  CHG  5   8   1  18   1  19   1  28   1  29   1
M  END
>  <CHROM.1>
-120.69988719,169.89927946,135.88772396,72.89391615,-155.96720138,99.66635042
-91.02861953,-55.11494840,-90.87120521,-53.83397868,142.45072705,-143.05559572
32.39166105,-67.44043022,-156.82801937,163.66614847,-0.53513257,4.52431369
5.03414438,-2.66032640,-0.33963053,1.09976485

>  <Name>
1tob

>  <RI>
0

>  <Rbt.Current_Directory>
/home/itssahil/PROJECTS/Mol_Feturizer/New_Systems/rnas/1tob

>  <Rbt.Executable>
rbdock ($Id: //depot/dev/client3/rdock/2013.1/src/exe/rbdock.cxx#4 $)

>  <Rbt.Library>
libRbt.so (2013.1, Build901 2013/11/27)

>  <Rbt.Parameter_File>
/export/apps/rDock/src/rDock_2013.1_src/data/scripts/dock_solv.prm

>  <Rbt.Receptor>
prm/pocket_docking_8.prm

>  <SCORE>
-57.3407

>  <SCORE.INTER>
-62.394

>  <SCORE.INTER.CONST>
1

>  <SCORE.INTER.POLAR>
-9.41086

>  <SCORE.INTER.ROT>
6

>  <SCORE.INTER.SOLV>
31.4569

>  <SCORE.INTER.VDW>
-28.3121

>  <SCORE.INTER.norm>
-1.94981

>  <SCORE.INTRA>
5.05329

>  <SCORE.INTRA.DIHEDRAL>
15.6771

>  <SCORE.INTRA.DIHEDRAL.0>
22.9177

>  <SCORE.INTRA.POLAR>
-1.75353

>  <SCORE.INTRA.POLAR.0>
-0.311208

>  <SCORE.INTRA.REPUL>
0.0268877

>  <SCORE.INTRA.REPUL.0>
0

>  <SCORE.INTRA.SOLV>
3.8946

>  <SCORE.INTRA.SOLV.lig_0>
-132.657

>  <SCORE.INTRA.VDW>
1.095

>  <SCORE.INTRA.VDW.0>
-4.68867

>  <SCORE.INTRA.norm>
0.157915

>  <SCORE.RESTR>
0

>  <SCORE.RESTR.CAVITY>
0

>  <SCORE.RESTR.norm>
0

>  <SCORE.SYSTEM>
0

>  <SCORE.SYSTEM.CONST>
0

>  <SCORE.SYSTEM.DIHEDRAL>
0

>  <SCORE.SYSTEM.SOLV>
0

>  <SCORE.SYSTEM.norm>
0

>  <SCORE.heavy>
32

>  <SCORE.norm>
-1.7919

>  <RMSD>
9.323

$$$$
1tob
 OpenBabel11021811413D
libRbt.so/2013.1/901 2013/11/27
 32 34  0  0  0  0  0  0  0  0999 V2000
   -2.3123    7.0291    5.4819 C   0  0  2  0  0  0  0  0  0  0  0  0
   -3.3930    8.0617    5.7931 C   0  0  1  0  0  0  0  0  0  0  0  0
   -4.7598    7.5002    5.4258 C   0  0  2  0  0  0  0  0  0  0  0  0
   -4.7530    7.0682    3.9643 C   0  0  1  0  0  0  0  0  0  0  0  0
   -3.6228    6.0712    3.7236 C   0  0  1  0  0  0  0  0  0  0  0  0
   -3.5150    5.6611    2.2681 C   0  0  0  0  0  0  0  0  0  0  0  0
   -3.3639    8.3842    7.1762 O   0  0  0  0  0  0  0  0  0  0  0  0
   -5.8323    8.4788    5.7076 N   0  3  0  0  0  0  0  0  0  0  0  0
   -6.0030    6.4794    3.6311 O   0  0  0  0  0  0  0  0  0  0  0  0
   -2.3576    6.6576    4.0984 O   0  0  0  0  0  0  0  0  0  0  0  0
   -4.6635    4.9394    1.8459 O   0  0  0  0  0  0  0  0  0  0  0  0
   -1.0759    4.4974    7.6128 C   0  0  2  0  0  0  0  0  0  0  0  0
    0.0588    3.4838    7.5565 C   0  0  0  0  0  0  0  0  0  0  0  0
   -0.3491    2.2709    6.7198 C   0  0  1  0  0  0  0  0  0  0  0  0
   -0.6960    2.7175    5.3014 C   0  0  2  0  0  0  0  0  0  0  0  0
   -1.8300    3.7431    5.3389 C   0  0  1  0  0  0  0  0  0  0  0  0
   -1.4280    4.9395    6.2007 C   0  0  1  0  0  0  0  0  0  0  0  0
   -0.6752    5.6882    8.3937 N   0  3  0  0  0  0  0  0  0  0  0  0
    0.7337    1.2535    6.7434 N   0  3  0  0  0  0  0  0  0  0  0  0
   -2.1310    4.1771    4.0193 O   0  0  0  0  0  0  0  0  0  0  0  0
   -2.5050    5.8930    6.2455 O   0  0  0  0  0  0  0  0  0  0  0  0
   -0.9476    1.7262    3.1293 C   0  0  1  0  0  0  0  0  0  0  0  0
   -0.4081    0.4344    2.5128 C   0  0  1  0  0  0  0  0  0  0  0  0
    0.9833    0.1346    3.0500 C   0  0  0  0  0  0  0  0  0  0  0  0
    1.8852    1.3324    2.8007 C   0  0  1  0  0  0  0  0  0  0  0  0
    1.2679    2.5825    3.4265 C   0  0  1  0  0  0  0  0  0  0  0  0
    2.0881    3.8329    3.1660 C   0  0  0  0  0  0  0  0  0  0  0  0
   -1.3435   -0.6938    2.7335 N   0  3  0  0  0  0  0  0  0  0  0  0
    2.5580    3.8914    1.7612 N   0  3  0  0  0  0  0  0  0  0  0  0
   -1.0871    1.5815    4.5032 O   0  0  0  0  0  0  0  0  0  0  0  0
    3.1703    1.0961    3.3571 O   0  0  0  0  0  0  0  0  0  0  0  0
   -0.0486    2.8139    2.8801 O   0  0  0  0  0  0  0  0  0  0  0  0
  1  2  1  0  0  0  0
  1 10  1  0  0  0  0
  1 21  1  1  0  0  0
  2  3  1  0  0  0  0
  2  7  1  1  0  0  0
  3  4  1  0  0  0  0
  3  8  1  6  0  0  0
  4  5  1  0  0  0  0
  4  9  1  1  0  0  0
  5  6  1  6  0  0  0
  5 10  1  0  0  0  0
  6 11  1  0  0  0  0
 12 13  1  0  0  0  0
 12 17  1  0  0  0  0
 12 18  1  1  0  0  0
 13 14  1  0  0  0  0
 14 15  1  0  0  0  0
 14 19  1  6  0  0  0
 15 16  1  0  0  0  0
 15 30  1  6  0  0  0
 16 17  1  0  0  0  0
 16 20  1  6  0  0  0
 17 21  1  1  0  0  0
 22 23  1  0  0  0  0
 22 30  1  1  0  0  0
 22 32  1  0  0  0  0
 23 24  1  0  0  0  0
 23 28  1  1  0  0  0
 24 25  1  0  0  0  0
 25 26  1  0  0  0  0
 25 31  1  1  0  0  0
 26 27  1  6  0  0  0
 26 32  1  0  0  0  0
 27 29  1  0  0  0  0
M  CHG  5   8   1  18   1  19   1  28   1  29   1
M  END
>  <CHROM.1>
-170.27193207,179.76864384,155.32581372,-71.48697880,-65.34988822,-176.92082004
-98.47955548,-67.65465369,-156.81772929,-44.77927416,132.54877448,139.45572282
168.85747758,176.92719000,43.28720964,-55.73997399,-1.46261091,4.18999342
4.56562284,-2.56556427,0.68274545,-2.08661378

>  <Name>
1tob

>  <RI>
0

>  <Rbt.Current_Directory>
/home/itssahil/PROJECTS/Mol_Feturizer/New_Systems/rnas/1tob

>  <Rbt.Executable>
rbdock ($Id: //depot/dev/client3/rdock/2013.1/src/exe/rbdock.cxx#4 $)

>  <Rbt.Library>
libRbt.so (2013.1, Build901 2013/11/27)

>  <Rbt.Parameter_File>
/export/apps/rDock/src/rDock_2013.1_src/data/scripts/dock_solv.prm

>  <Rbt.Receptor>
prm/blind_docking_80.prm

>  <SCORE>
-9.36663

>  <SCORE.INTER>
-19.506

>  <SCORE.INTER.CONST>
1

>  <SCORE.INTER.POLAR>
-6.28011

>  <SCORE.INTER.ROT>
6

>  <SCORE.INTER.SOLV>
52.6691

>  <SCORE.INTER.VDW>
-17.2266

>  <SCORE.INTER.norm>
-0.609561

>  <SCORE.INTRA>
7.29707

>  <SCORE.INTRA.DIHEDRAL>
-0.976754

>  <SCORE.INTRA.DIHEDRAL.0>
22.9177

>  <SCORE.INTRA.POLAR>
-0.0709158

>  <SCORE.INTRA.POLAR.0>
-0.311208

>  <SCORE.INTRA.REPUL>
0

>  <SCORE.INTRA.REPUL.0>
0

>  <SCORE.INTRA.SOLV>
-1.23978

>  <SCORE.INTRA.SOLV.lig_0>
-132.657

>  <SCORE.INTRA.VDW>
8.64645

>  <SCORE.INTRA.VDW.0>
-4.68867

>  <SCORE.INTRA.norm>
0.228034

>  <SCORE.RESTR>
2.84225

>  <SCORE.RESTR.CAVITY>
2.84225

>  <SCORE.RESTR.norm>
0.0888203

>  <SCORE.SYSTEM>
0

>  <SCORE.SYSTEM.CONST>
0

>  <SCORE.SYSTEM.DIHEDRAL>
0

>  <SCORE.SYSTEM.SOLV>
0

>  <SCORE.SYSTEM.norm>
0

>  <SCORE.heavy>
32

>  <SCORE.norm>
-0.292707

>  <RMSD>
9.330

$$$$
1tob
 OpenBabel11021811413D
libRbt.so/2013.1/901 2013/11/27
 32 34  0  0  0  0  0  0  0  0999 V2000
   -3.2283    3.9590    3.7934 C   0  0  2  0  0  0  0  0  0  0  0  0
   -3.7427    3.2071    2.5682 C   0  0  1  0  0  0  0  0  0  0  0  0
   -4.0210    4.1926    1.4413 C   0  0  2  0  0  0  0  0  0  0  0  0
   -4.9888    5.2625    1.9324 C   0  0  1  0  0  0  0  0  0  0  0  0
   -4.4254    5.9381    3.1796 C   0  0  1  0  0  0  0  0  0  0  0  0
   -5.3796    6.9619    3.7624 C   0  0  0  0  0  0  0  0  0  0  0  0
   -2.7736    2.2584    2.1462 O   0  0  0  0  0  0  0  0  0  0  0  0
   -4.5290    3.4982    0.2384 N   0  3  0  0  0  0  0  0  0  0  0  0
   -5.2007    6.2255    0.9088 O   0  0  0  0  0  0  0  0  0  0  0  0
   -4.1749    4.9531    4.2054 O   0  0  0  0  0  0  0  0  0  0  0  0
   -5.9589    7.7686    2.7466 O   0  0  0  0  0  0  0  0  0  0  0  0
    0.2343    3.9651    2.9284 C   0  0  2  0  0  0  0  0  0  0  0  0
    1.4785    3.2634    3.4556 C   0  0  0  0  0  0  0  0  0  0  0  0
    1.9712    3.9391    4.7355 C   0  0  1  0  0  0  0  0  0  0  0  0
    0.8760    3.8883    5.7985 C   0  0  2  0  0  0  0  0  0  0  0  0
   -0.3856    4.5822    5.2828 C   0  0  1  0  0  0  0  0  0  0  0  0
   -0.8564    3.9216    3.9875 C   0  0  1  0  0  0  0  0  0  0  0  0
   -0.2663    3.2953    1.7080 N   0  3  0  0  0  0  0  0  0  0  0  0
    3.2321    3.2988    5.1917 N   0  3  0  0  0  0  0  0  0  0  0  0
   -1.4113    4.5084    6.2638 O   0  0  0  0  0  0  0  0  0  0  0  0
   -2.0338    4.5893    3.4987 O   0  0  0  0  0  0  0  0  0  0  0  0
    0.4612    4.4607    8.0929 C   0  0  1  0  0  0  0  0  0  0  0  0
    1.2163    4.7402    9.3935 C   0  0  1  0  0  0  0  0  0  0  0  0
    2.2723    3.6710    9.6305 C   0  0  0  0  0  0  0  0  0  0  0  0
    1.6122    2.3020    9.6106 C   0  0  1  0  0  0  0  0  0  0  0  0
    0.8630    2.1094    8.2926 C   0  0  1  0  0  0  0  0  0  0  0  0
    0.1280    0.7829    8.2261 C   0  0  0  0  0  0  0  0  0  0  0  0
    1.7973    6.1036    9.3911 N   0  3  0  0  0  0  0  0  0  0  0  0
    1.0511   -0.3600    8.4248 N   0  3  0  0  0  0  0  0  0  0  0  0
    1.3280    4.5272    7.0101 O   0  0  0  0  0  0  0  0  0  0  0  0
    2.5944    1.2876    9.7624 O   0  0  0  0  0  0  0  0  0  0  0  0
   -0.1217    3.1520    8.1232 O   0  0  0  0  0  0  0  0  0  0  0  0
  1  2  1  0  0  0  0
  1 10  1  0  0  0  0
  1 21  1  6  0  0  0
  2  3  1  0  0  0  0
  2  7  1  6  0  0  0
  3  4  1  0  0  0  0
  3  8  1  6  0  0  0
  4  5  1  0  0  0  0
  4  9  1  6  0  0  0
  5  6  1  1  0  0  0
  5 10  1  0  0  0  0
  6 11  1  0  0  0  0
 12 13  1  0  0  0  0
 12 17  1  0  0  0  0
 12 18  1  6  0  0  0
 13 14  1  0  0  0  0
 14 15  1  0  0  0  0
 14 19  1  1  0  0  0
 15 16  1  0  0  0  0
 15 30  1  1  0  0  0
 16 17  1  0  0  0  0
 16 20  1  1  0  0  0
 17 21  1  6  0  0  0
 22 23  1  0  0  0  0
 22 30  1  6  0  0  0
 22 32  1  0  0  0  0
 23 24  1  0  0  0  0
 23 28  1  6  0  0  0
 24 25  1  0  0  0  0
 25 26  1  0  0  0  0
 25 31  1  6  0  0  0
 26 27  1  1  0  0  0
 26 32  1  0  0  0  0
 27 29  1  0  0  0  0
M  CHG  5   8   1  18   1  19   1  28   1  29   1
M  END
>  <CHROM.1>
-101.80062480,-179.86626353,-174.29712729,-49.68126042,-43.67656975,-52.69278522
-80.14068281,-47.85619529,-175.30680802,159.23963176,138.46624236,161.16514142
-52.11174604,-46.95529966,-57.22538229,52.98601217,-1.01797048,3.93878066
5.15065278,2.63023262,0.70985120,-2.08709609

>  <Name>
1tob

>  <RI>
0

>  <Rbt.Current_Directory>
/home/itssahil/PROJECTS/Mol_Feturizer/New_Systems/rnas/1tob

>  <Rbt.Executable>
rbdock ($Id: //depot/dev/client3/rdock/2013.1/src/exe/rbdock.cxx#4 $)

>  <Rbt.Library>
libRbt.so (2013.1, Build901 2013/11/27)

>  <Rbt.Parameter_File>
/export/apps/rDock/src/rDock_2013.1_src/data/scripts/dock_solv.prm

>  <Rbt.Receptor>
prm/pocket_docking_7.prm

>  <SCORE>
-52.5395

>  <SCORE.INTER>
-51.6319

>  <SCORE.INTER.CONST>
1

>  <SCORE.INTER.POLAR>
-7.49899

>  <SCORE.INTER.ROT>
6

>  <SCORE.INTER.SOLV>
35.5861

>  <SCORE.INTER.VDW>
-28.8867

>  <SCORE.INTER.norm>
-1.6135

>  <SCORE.INTRA>
-0.911246

>  <SCORE.INTRA.DIHEDRAL>
-3.91809

>  <SCORE.INTRA.DIHEDRAL.0>
22.9177

>  <SCORE.INTRA.POLAR>
-0.663206

>  <SCORE.INTRA.POLAR.0>
-0.311208

>  <SCORE.INTRA.REPUL>
0

>  <SCORE.INTRA.REPUL.0>
0

>  <SCORE.INTRA.SOLV>
-0.573691

>  <SCORE.INTRA.SOLV.lig_0>
-132.657

>  <SCORE.INTRA.VDW>
3.58954

>  <SCORE.INTRA.VDW.0>
-4.68867

>  <SCORE.INTRA.norm>
-0.0284764

>  <SCORE.RESTR>
0.00362598

>  <SCORE.RESTR.CAVITY>
0.00362598

>  <SCORE.RESTR.norm>
0.000113312

>  <SCORE.SYSTEM>
0

>  <SCORE.SYSTEM.CONST>
0

>  <SCORE.SYSTEM.DIHEDRAL>
0

>  <SCORE.SYSTEM.SOLV>
0

>  <SCORE.SYSTEM.norm>
0

>  <SCORE.heavy>
32

>  <SCORE.norm>
-1.64186

>  <RMSD>
9.339

$$$$
1tob
 OpenBabel11021811413D
libRbt.so/2013.1/901 2013/11/27
 32 34  0  0  0  0  0  0  0  0999 V2000
   -3.6716    4.0299    3.5448 C   0  0  2  0  0  0  0  0  0  0  0  0
   -4.4732    4.1372    2.2498 C   0  0  1  0  0  0  0  0  0  0  0  0
   -4.4232    5.5685    1.7329 C   0  0  2  0  0  0  0  0  0  0  0  0
   -4.9180    6.5161    2.8191 C   0  0  1  0  0  0  0  0  0  0  0  0
   -4.0975    6.3204    4.0910 C   0  0  1  0  0  0  0  0  0  0  0  0
   -4.5926    7.1826    5.2356 C   0  0  0  0  0  0  0  0  0  0  0  0
   -3.9304    3.2572    1.2758 O   0  0  0  0  0  0  0  0  0  0  0  0
   -5.1971    5.7112    0.4807 N   0  3  0  0  0  0  0  0  0  0  0  0
   -4.8102    7.8603    2.3701 O   0  0  0  0  0  0  0  0  0  0  0  0
   -4.1774    4.9454    4.5246 O   0  0  0  0  0  0  0  0  0  0  0  0
   -4.6659    8.5508    4.8606 O   0  0  0  0  0  0  0  0  0  0  0  0
   -0.3941    2.9227    3.0395 C   0  0  2  0  0  0  0  0  0  0  0  0
    0.6072    2.0628    3.7985 C   0  0  0  0  0  0  0  0  0  0  0  0
    1.3384    2.8967    4.8508 C   0  0  1  0  0  0  0  0  0  0  0  0
    0.3289    3.4820    5.8359 C   0  0  2  0  0  0  0  0  0  0  0  0
   -0.6909    4.3434    5.0894 C   0  0  1  0  0  0  0  0  0  0  0  0
   -1.3974    3.5122    4.0190 C   0  0  1  0  0  0  0  0  0  0  0  0
   -1.1282    2.1136    2.0422 N   0  3  0  0  0  0  0  0  0  0  0  0
    2.3707    2.0673    5.5250 N   0  3  0  0  0  0  0  0  0  0  0  0
   -1.6449    4.8635    6.0056 O   0  0  0  0  0  0  0  0  0  0  0  0
   -2.3434    4.3322    3.3094 O   0  0  0  0  0  0  0  0  0  0  0  0
    1.1525    3.6881    8.0816 C   0  0  1  0  0  0  0  0  0  0  0  0
    0.9498    4.7302    9.1828 C   0  0  1  0  0  0  0  0  0  0  0  0
    2.0210    5.8067    9.0938 C   0  0  0  0  0  0  0  0  0  0  0  0
    3.3927    5.1535    9.1408 C   0  0  1  0  0  0  0  0  0  0  0  0
    3.5075    4.1135    8.0269 C   0  0  1  0  0  0  0  0  0  0  0  0
    4.8345    3.3768    8.0491 C   0  0  0  0  0  0  0  0  0  0  0  0
   -0.4169    5.3012    9.1326 N   0  3  0  0  0  0  0  0  0  0  0  0
    5.9716    4.2989    7.8160 N   0  3  0  0  0  0  0  0  0  0  0  0
    1.0070    4.2751    6.8317 O   0  0  0  0  0  0  0  0  0  0  0  0
    4.4046    6.1386    8.9901 O   0  0  0  0  0  0  0  0  0  0  0  0
    2.4664    3.1221    8.1630 O   0  0  0  0  0  0  0  0  0  0  0  0
  1  2  1  0  0  0  0
  1 10  1  0  0  0  0
  1 21  1  6  0  0  0
  2  3  1  0  0  0  0
  2  7  1  6  0  0  0
  3  4  1  0  0  0  0
  3  8  1  6  0  0  0
  4  5  1  0  0  0  0
  4  9  1  6  0  0  0
  5  6  1  1  0  0  0
  5 10  1  0  0  0  0
  6 11  1  0  0  0  0
 12 13  1  0  0  0  0
 12 17  1  0  0  0  0
 12 18  1  6  0  0  0
 13 14  1  0  0  0  0
 14 15  1  0  0  0  0
 14 19  1  1  0  0  0
 15 16  1  0  0  0  0
 15 30  1  1  0  0  0
 16 17  1  0  0  0  0
 16 20  1  1  0  0  0
 17 21  1  6  0  0  0
 22 23  1  0  0  0  0
 22 30  1  6  0  0  0
 22 32  1  0  0  0  0
 23 24  1  0  0  0  0
 23 28  1  6  0  0  0
 24 25  1  0  0  0  0
 25 26  1  0  0  0  0
 25 31  1  6  0  0  0
 26 27  1  1  0  0  0
 26 32  1  0  0  0  0
 27 29  1  0  0  0  0
M  CHG  5   8   1  18   1  19   1  28   1  29   1
M  END
>  <CHROM.1>
-140.63432992,98.46681054,-62.55641889,-171.45671037,-53.64191889,-169.53296264
50.55614146,-46.07976506,-103.57973447,88.61321240,127.22634052,-141.24768638
-70.18009565,-40.14470938,-62.81827534,-72.31597920,-0.71550411,4.61413851
5.27193533,-2.79095738,-0.54788605,0.84291932

>  <Name>
1tob

>  <RI>
0

>  <Rbt.Current_Directory>
/home/itssahil/PROJECTS/Mol_Feturizer/New_Systems/rnas/1tob

>  <Rbt.Executable>
rbdock ($Id: //depot/dev/client3/rdock/2013.1/src/exe/rbdock.cxx#4 $)

>  <Rbt.Library>
libRbt.so (2013.1, Build901 2013/11/27)

>  <Rbt.Parameter_File>
/export/apps/rDock/src/rDock_2013.1_src/data/scripts/dock_solv.prm

>  <Rbt.Receptor>
prm/pocket_docking_8.prm

>  <SCORE>
-54.6059

>  <SCORE.INTER>
-52.4651

>  <SCORE.INTER.CONST>
1

>  <SCORE.INTER.POLAR>
-7.61743

>  <SCORE.INTER.ROT>
6

>  <SCORE.INTER.SOLV>
24.4703

>  <SCORE.INTER.VDW>
-25.3421

>  <SCORE.INTER.norm>
-1.63954

>  <SCORE.INTRA>
-2.14073

>  <SCORE.INTRA.DIHEDRAL>
13.0879

>  <SCORE.INTRA.DIHEDRAL.0>
22.9177

>  <SCORE.INTRA.POLAR>
-2.88767

>  <SCORE.INTRA.POLAR.0>
-0.311208

>  <SCORE.INTRA.REPUL>
0.00484723

>  <SCORE.INTRA.REPUL.0>
0

>  <SCORE.INTRA.SOLV>
1.79132

>  <SCORE.INTRA.SOLV.lig_0>
-132.657

>  <SCORE.INTRA.VDW>
0.213489

>  <SCORE.INTRA.VDW.0>
-4.68867

>  <SCORE.INTRA.norm>
-0.0668979

>  <SCORE.RESTR>
0

>  <SCORE.RESTR.CAVITY>
0

>  <SCORE.RESTR.norm>
0

>  <SCORE.SYSTEM>
0

>  <SCORE.SYSTEM.CONST>
0

>  <SCORE.SYSTEM.DIHEDRAL>
0

>  <SCORE.SYSTEM.SOLV>
0

>  <SCORE.SYSTEM.norm>
0

>  <SCORE.heavy>
32

>  <SCORE.norm>
-1.70643

>  <RMSD>
9.343

$$$$
1tob
 OpenBabel11021811413D
libRbt.so/2013.1/901 2013/11/27
 32 34  0  0  0  0  0  0  0  0999 V2000
   -3.5564    4.3081    3.8281 C   0  0  2  0  0  0  0  0  0  0  0  0
   -4.4193    3.7611    2.6935 C   0  0  1  0  0  0  0  0  0  0  0  0
   -4.7984    4.8917    1.7468 C   0  0  2  0  0  0  0  0  0  0  0  0
   -5.4844    6.0019    2.5338 C   0  0  1  0  0  0  0  0  0  0  0  0
   -4.5797    6.4656    3.6722 C   0  0  1  0  0  0  0  0  0  0  0  0
   -5.2390    7.5186    4.5411 C   0  0  0  0  0  0  0  0  0  0  0  0
   -3.7008    2.7626    1.9834 O   0  0  0  0  0  0  0  0  0  0  0  0
   -5.6426    4.3983    0.6372 N   0  3  0  0  0  0  0  0  0  0  0  0
   -5.7802    7.0913    1.6702 O   0  0  0  0  0  0  0  0  0  0  0  0
   -4.2491    5.3499    4.5272 O   0  0  0  0  0  0  0  0  0  0  0  0
   -5.2549    8.7857    3.8991 O   0  0  0  0  0  0  0  0  0  0  0  0
   -0.1846    4.1572    2.5553 C   0  0  2  0  0  0  0  0  0  0  0  0
    1.0760    3.4063    2.9619 C   0  0  0  0  0  0  0  0  0  0  0  0
    1.6900    4.0318    4.2147 C   0  0  1  0  0  0  0  0  0  0  0  0
    0.6825    3.9821    5.3611 C   0  0  2  0  0  0  0  0  0  0  0  0
   -0.5948    4.7255    4.9672 C   0  0  1  0  0  0  0  0  0  0  0  0
   -1.1877    4.1149    3.6978 C   0  0  1  0  0  0  0  0  0  0  0  0
   -0.8014    3.5362    1.3627 N   0  3  0  0  0  0  0  0  0  0  0  0
    2.9634    3.3437    4.5508 N   0  3  0  0  0  0  0  0  0  0  0  0
   -1.5403    4.6532    6.0258 O   0  0  0  0  0  0  0  0  0  0  0  0
   -2.3797    4.8289    3.3231 O   0  0  0  0  0  0  0  0  0  0  0  0
    1.3484    3.7416    7.6552 C   0  0  1  0  0  0  0  0  0  0  0  0
    0.9708    4.5041    8.9264 C   0  0  1  0  0  0  0  0  0  0  0  0
    1.9474    5.6455    9.1665 C   0  0  0  0  0  0  0  0  0  0  0  0
    3.3632    5.0937    9.2046 C   0  0  1  0  0  0  0  0  0  0  0  0
    3.6543    4.3300    7.9133 C   0  0  1  0  0  0  0  0  0  0  0  0
    5.0350    3.6992    7.9055 C   0  0  0  0  0  0  0  0  0  0  0  0
   -0.4326    4.9768    8.8683 N   0  3  0  0  0  0  0  0  0  0  0  0
    6.0994    4.7236    7.7825 N   0  3  0  0  0  0  0  0  0  0  0  0
    1.2493    4.5739    6.5481 O   0  0  0  0  0  0  0  0  0  0  0  0
    4.2936    6.1554    9.3599 O   0  0  0  0  0  0  0  0  0  0  0  0
    2.6965    3.2633    7.7396 O   0  0  0  0  0  0  0  0  0  0  0  0
  1  2  1  0  0  0  0
  1 10  1  0  0  0  0
  1 21  1  6  0  0  0
  2  3  1  0  0  0  0
  2  7  1  6  0  0  0
  3  4  1  0  0  0  0
  3  8  1  6  0  0  0
  4  5  1  0  0  0  0
  4  9  1  6  0  0  0
  5  6  1  1  0  0  0
  5 10  1  0  0  0  0
  6 11  1  0  0  0  0
 12 13  1  0  0  0  0
 12 17  1  0  0  0  0
 12 18  1  6  0  0  0
 13 14  1  0  0  0  0
 14 15  1  0  0  0  0
 14 19  1  1  0  0  0
 15 16  1  0  0  0  0
 15 30  1  1  0  0  0
 16 17  1  0  0  0  0
 16 20  1  1  0  0  0
 17 21  1  6  0  0  0
 22 23  1  0  0  0  0
 22 30  1  6  0  0  0
 22 32  1  0  0  0  0
 23 24  1  0  0  0  0
 23 28  1  6  0  0  0
 24 25  1  0  0  0  0
 25 26  1  0  0  0  0
 25 31  1  6  0  0  0
 26 27  1  1  0  0  0
 26 32  1  0  0  0  0
 27 29  1  0  0  0  0
M  CHG  5   8   1  18   1  19   1  28   1  29   1
M  END
>  <CHROM.1>
-113.41556466,78.21426852,-134.78659908,65.94763153,-75.75575780,-69.74030933
-49.07515407,-30.28572524,-119.83072237,-57.64354755,145.58249866,-139.33852437
-37.75640687,-50.28154104,-70.99649641,-54.79749847,-0.72155823,4.79102529
5.03582199,2.69081801,0.41266987,-2.08706071

>  <Name>
1tob

>  <RI>
0

>  <Rbt.Current_Directory>
/home/itssahil/PROJECTS/Mol_Feturizer/New_Systems/rnas/1tob

>  <Rbt.Executable>
rbdock ($Id: //depot/dev/client3/rdock/2013.1/src/exe/rbdock.cxx#4 $)

>  <Rbt.Library>
libRbt.so (2013.1, Build901 2013/11/27)

>  <Rbt.Parameter_File>
/export/apps/rDock/src/rDock_2013.1_src/data/scripts/dock_solv.prm

>  <Rbt.Receptor>
prm/pocket_docking_8.prm

>  <SCORE>
-53.6163

>  <SCORE.INTER>
-54.5595

>  <SCORE.INTER.CONST>
1

>  <SCORE.INTER.POLAR>
-7.51578

>  <SCORE.INTER.ROT>
6

>  <SCORE.INTER.SOLV>
28.2652

>  <SCORE.INTER.VDW>
-28.3422

>  <SCORE.INTER.norm>
-1.70498

>  <SCORE.INTRA>
0.943186

>  <SCORE.INTRA.DIHEDRAL>
11.3801

>  <SCORE.INTRA.DIHEDRAL.0>
22.9177

>  <SCORE.INTRA.POLAR>
-1.36281

>  <SCORE.INTRA.POLAR.0>
-0.311208

>  <SCORE.INTRA.REPUL>
0

>  <SCORE.INTRA.REPUL.0>
0

>  <SCORE.INTRA.SOLV>
0.850775

>  <SCORE.INTRA.SOLV.lig_0>
-132.657

>  <SCORE.INTRA.VDW>
-0.538712

>  <SCORE.INTRA.VDW.0>
-4.68867

>  <SCORE.INTRA.norm>
0.0294746

>  <SCORE.RESTR>
0

>  <SCORE.RESTR.CAVITY>
0

>  <SCORE.RESTR.norm>
0

>  <SCORE.SYSTEM>
0

>  <SCORE.SYSTEM.CONST>
0

>  <SCORE.SYSTEM.DIHEDRAL>
0

>  <SCORE.SYSTEM.SOLV>
0

>  <SCORE.SYSTEM.norm>
0

>  <SCORE.heavy>
32

>  <SCORE.norm>
-1.67551

>  <RMSD>
9.344

$$$$
1tob
 OpenBabel11021811413D
libRbt.so/2013.1/901 2013/11/27
 32 34  0  0  0  0  0  0  0  0999 V2000
   -3.1084    6.8385    4.4768 C   0  0  2  0  0  0  0  0  0  0  0  0
   -3.8888    8.0075    5.0729 C   0  0  1  0  0  0  0  0  0  0  0  0
   -5.3032    8.0203    4.5093 C   0  0  2  0  0  0  0  0  0  0  0  0
   -5.2409    8.0612    2.9872 C   0  0  1  0  0  0  0  0  0  0  0  0
   -4.4118    6.8885    2.4706 C   0  0  1  0  0  0  0  0  0  0  0  0
   -4.2479    6.9171    0.9637 C   0  0  0  0  0  0  0  0  0  0  0  0
   -3.9379    7.8799    6.4867 O   0  0  0  0  0  0  0  0  0  0  0  0
   -6.0873    9.1466    5.0606 N   0  3  0  0  0  0  0  0  0  0  0  0
   -6.5557    8.0039    2.4504 O   0  0  0  0  0  0  0  0  0  0  0  0
   -3.0882    6.9268    3.0464 O   0  0  0  0  0  0  0  0  0  0  0  0
   -4.9121    5.8223    0.3486 O   0  0  0  0  0  0  0  0  0  0  0  0
   -2.8620    4.1509    3.1176 C   0  0  2  0  0  0  0  0  0  0  0  0
   -1.9996    2.9180    2.8841 C   0  0  0  0  0  0  0  0  0  0  0  0
   -0.5773    3.1568    3.3915 C   0  0  1  0  0  0  0  0  0  0  0  0
   -0.6101    3.4727    4.8851 C   0  0  2  0  0  0  0  0  0  0  0  0
   -1.4794    4.7050    5.1399 C   0  0  1  0  0  0  0  0  0  0  0  0
   -2.8916    4.4717    4.6041 C   0  0  1  0  0  0  0  0  0  0  0  0
   -4.2482    3.9140    2.6586 N   0  3  0  0  0  0  0  0  0  0  0  0
    0.2743    1.9793    3.0811 N   0  3  0  0  0  0  0  0  0  0  0  0
   -1.5301    4.9791    6.5335 O   0  0  0  0  0  0  0  0  0  0  0  0
   -3.6996    5.6405    4.8319 O   0  0  0  0  0  0  0  0  0  0  0  0
    1.3582    2.6148    5.9593 C   0  0  1  0  0  0  0  0  0  0  0  0
    2.0425    3.0352    7.2612 C   0  0  1  0  0  0  0  0  0  0  0  0
    3.1351    4.0550    6.9772 C   0  0  0  0  0  0  0  0  0  0  0  0
    4.1040    3.4800    5.9569 C   0  0  1  0  0  0  0  0  0  0  0  0
    3.3424    3.0654    4.6984 C   0  0  1  0  0  0  0  0  0  0  0  0
    4.2407    2.4266    3.6549 C   0  0  0  0  0  0  0  0  0  0  0  0
    1.0551    3.5386    8.2450 N   0  3  0  0  0  0  0  0  0  0  0  0
    3.7008    2.6117    2.2867 N   0  3  0  0  0  0  0  0  0  0  0  0
    0.7267    3.7045    5.3746 O   0  0  0  0  0  0  0  0  0  0  0  0
    5.0927    4.4453    5.6289 O   0  0  0  0  0  0  0  0  0  0  0  0
    2.3206    2.1005    5.0306 O   0  0  0  0  0  0  0  0  0  0  0  0
  1  2  1  0  0  0  0
  1 10  1  0  0  0  0
  1 21  1  6  0  0  0
  2  3  1  0  0  0  0
  2  7  1  1  0  0  0
  3  4  1  0  0  0  0
  3  8  1  1  0  0  0
  4  5  1  0  0  0  0
  4  9  1  6  0  0  0
  5  6  1  6  0  0  0
  5 10  1  0  0  0  0
  6 11  1  0  0  0  0
 12 13  1  0  0  0  0
 12 17  1  0  0  0  0
 12 18  1  1  0  0  0
 13 14  1  0  0  0  0
 14 15  1  0  0  0  0
 14 19  1  1  0  0  0
 15 16  1  0  0  0  0
 15 30  1  6  0  0  0
 16 17  1  0  0  0  0
 16 20  1  1  0  0  0
 17 21  1  6  0  0  0
 22 23  1  0  0  0  0
 22 30  1  6  0  0  0
 22 32  1  0  0  0  0
 23 24  1  0  0  0  0
 23 28  1  1  0  0  0
 24 25  1  0  0  0  0
 25 26  1  0  0  0  0
 25 31  1  6  0  0  0
 26 27  1  6  0  0  0
 26 32  1  0  0  0  0
 27 29  1  0  0  0  0
M  CHG  5   8   1  18   1  19   1  28   1  29   1
M  END
>  <CHROM.1>
-165.88363284,164.38357842,38.16660379,80.38078876,-113.67209773,-168.31081029
22.99726564,72.68983810,-96.02160861,133.77858171,-75.11713582,-134.96667977
-35.27766168,-178.19631704,-153.20622259,-94.02674431,-1.25201543,4.92408030
4.36389660,-3.13335466,0.53115340,-2.00787847

>  <Name>
1tob

>  <RI>
0

>  <Rbt.Current_Directory>
/home/itssahil/PROJECTS/Mol_Feturizer/New_Systems/rnas/1tob

>  <Rbt.Executable>
rbdock ($Id: //depot/dev/client3/rdock/2013.1/src/exe/rbdock.cxx#4 $)

>  <Rbt.Library>
libRbt.so (2013.1, Build901 2013/11/27)

>  <Rbt.Parameter_File>
/export/apps/rDock/src/rDock_2013.1_src/data/scripts/dock_solv.prm

>  <Rbt.Receptor>
prm/pocket_docking_8.prm

>  <SCORE>
-50.6685

>  <SCORE.INTER>
-54.7921

>  <SCORE.INTER.CONST>
1

>  <SCORE.INTER.POLAR>
-8.89064

>  <SCORE.INTER.ROT>
6

>  <SCORE.INTER.SOLV>
25.6373

>  <SCORE.INTER.VDW>
-23.0383

>  <SCORE.INTER.norm>
-1.71225

>  <SCORE.INTRA>
4.12351

>  <SCORE.INTRA.DIHEDRAL>
14.5041

>  <SCORE.INTRA.DIHEDRAL.0>
22.9177

>  <SCORE.INTRA.POLAR>
-2.10723

>  <SCORE.INTRA.POLAR.0>
-0.311208

>  <SCORE.INTRA.REPUL>
0

>  <SCORE.INTRA.REPUL.0>
0

>  <SCORE.INTRA.SOLV>
4.52089

>  <SCORE.INTRA.SOLV.lig_0>
-132.657

>  <SCORE.INTRA.VDW>
1.77557

>  <SCORE.INTRA.VDW.0>
-4.68867

>  <SCORE.INTRA.norm>
0.12886

>  <SCORE.RESTR>
0

>  <SCORE.RESTR.CAVITY>
0

>  <SCORE.RESTR.norm>
0

>  <SCORE.SYSTEM>
0

>  <SCORE.SYSTEM.CONST>
0

>  <SCORE.SYSTEM.DIHEDRAL>
0

>  <SCORE.SYSTEM.SOLV>
0

>  <SCORE.SYSTEM.norm>
0

>  <SCORE.heavy>
32

>  <SCORE.norm>
-1.58339

>  <RMSD>
9.346

$$$$
1tob
 OpenBabel11021811413D
libRbt.so/2013.1/901 2013/11/27
 32 34  0  0  0  0  0  0  0  0999 V2000
   -3.9986    4.6528    3.3897 C   0  0  2  0  0  0  0  0  0  0  0  0
   -4.8040    4.8387    2.1059 C   0  0  1  0  0  0  0  0  0  0  0  0
   -4.5294    6.2185    1.5236 C   0  0  2  0  0  0  0  0  0  0  0  0
   -4.8314    7.2802    2.5743 C   0  0  1  0  0  0  0  0  0  0  0  0
   -4.0227    7.0032    3.8387 C   0  0  1  0  0  0  0  0  0  0  0  0
   -4.3377    7.9833    4.9516 C   0  0  0  0  0  0  0  0  0  0  0  0
   -4.4406    3.8402    1.1633 O   0  0  0  0  0  0  0  0  0  0  0  0
   -5.3005    6.4363    0.2805 N   0  3  0  0  0  0  0  0  0  0  0  0
   -4.5126    8.5673    2.0627 O   0  0  0  0  0  0  0  0  0  0  0  0
   -4.3195    5.6803    4.3358 O   0  0  0  0  0  0  0  0  0  0  0  0
   -5.2497    7.4286    5.8890 O   0  0  0  0  0  0  0  0  0  0  0  0
   -0.8959    3.0866    2.7453 C   0  0  2  0  0  0  0  0  0  0  0  0
   -0.0484    2.0250    3.4329 C   0  0  0  0  0  0  0  0  0  0  0  0
    0.7500    2.6404    4.5824 C   0  0  1  0  0  0  0  0  0  0  0  0
   -0.2063    3.2582    5.6001 C   0  0  2  0  0  0  0  0  0  0  0  0
   -1.0723    4.3226    4.9246 C   0  0  1  0  0  0  0  0  0  0  0  0
   -1.8452    3.7084    3.7580 C   0  0  1  0  0  0  0  0  0  0  0  0
   -1.6959    2.4905    1.6530 N   0  3  0  0  0  0  0  0  0  0  0  0
    1.6353    1.6130    5.1896 N   0  3  0  0  0  0  0  0  0  0  0  0
   -1.9799    4.8755    5.8684 O   0  0  0  0  0  0  0  0  0  0  0  0
   -2.6451    4.7181    3.1165 O   0  0  0  0  0  0  0  0  0  0  0  0
    0.3580    3.2595    7.9337 C   0  0  1  0  0  0  0  0  0  0  0  0
    0.5325    4.3017    9.0397 C   0  0  1  0  0  0  0  0  0  0  0  0
    1.9517    4.8494    9.0292 C   0  0  0  0  0  0  0  0  0  0  0  0
    2.9347    3.6955    9.1414 C   0  0  1  0  0  0  0  0  0  0  0  0
    2.6817    2.6909    8.0179 C   0  0  1  0  0  0  0  0  0  0  0  0
    3.5915    1.4787    8.1013 C   0  0  0  0  0  0  0  0  0  0  0  0
   -0.4793    5.3784    8.9232 N   0  3  0  0  0  0  0  0  0  0  0  0
    3.1730    0.5591    9.1861 N   0  3  0  0  0  0  0  0  0  0  0  0
    0.5362    3.8464    6.6879 O   0  0  0  0  0  0  0  0  0  0  0  0
    4.2662    4.1834    9.0644 O   0  0  0  0  0  0  0  0  0  0  0  0
    1.3218    2.2090    8.0785 O   0  0  0  0  0  0  0  0  0  0  0  0
  1  2  1  0  0  0  0
  1 10  1  0  0  0  0
  1 21  1  6  0  0  0
  2  3  1  0  0  0  0
  2  7  1  6  0  0  0
  3  4  1  0  0  0  0
  3  8  1  6  0  0  0
  4  5  1  0  0  0  0
  4  9  1  6  0  0  0
  5  6  1  1  0  0  0
  5 10  1  0  0  0  0
  6 11  1  0  0  0  0
 12 13  1  0  0  0  0
 12 17  1  0  0  0  0
 12 18  1  6  0  0  0
 13 14  1  0  0  0  0
 14 15  1  0  0  0  0
 14 19  1  1  0  0  0
 15 16  1  0  0  0  0
 15 30  1  1  0  0  0
 16 17  1  0  0  0  0
 16 20  1  1  0  0  0
 17 21  1  6  0  0  0
 22 23  1  0  0  0  0
 22 30  1  6  0  0  0
 22 32  1  0  0  0  0
 23 24  1  0  0  0  0
 23 28  1  6  0  0  0
 24 25  1  0  0  0  0
 25 26  1  0  0  0  0
 25 31  1  6  0  0  0
 26 27  1  1  0  0  0
 26 32  1  0  0  0  0
 27 29  1  0  0  0  0
M  CHG  5   8   1  18   1  19   1  28   1  29   1
M  END
>  <CHROM.1>
-135.58750617,80.57236743,59.00378982,70.51604630,99.24419158,-64.26825119
-74.86404556,16.06257887,-114.95824535,-178.51507927,132.90903804,-149.97697854
-60.24264049,174.87550897,74.83332283,-66.04256462,-1.19341529,4.35144979
5.18603450,-2.84924942,-0.73051283,0.94529009

>  <Name>
1tob

>  <RI>
0

>  <Rbt.Current_Directory>
/home/itssahil/PROJECTS/Mol_Feturizer/New_Systems/rnas/1tob

>  <Rbt.Executable>
rbdock ($Id: //depot/dev/client3/rdock/2013.1/src/exe/rbdock.cxx#4 $)

>  <Rbt.Library>
libRbt.so (2013.1, Build901 2013/11/27)

>  <Rbt.Parameter_File>
/export/apps/rDock/src/rDock_2013.1_src/data/scripts/dock_solv.prm

>  <Rbt.Receptor>
prm/pocket_docking_7.prm

>  <SCORE>
-46.4941

>  <SCORE.INTER>
-45.9324

>  <SCORE.INTER.CONST>
1

>  <SCORE.INTER.POLAR>
-6.28572

>  <SCORE.INTER.ROT>
6

>  <SCORE.INTER.SOLV>
24.2156

>  <SCORE.INTER.VDW>
-25.3411

>  <SCORE.INTER.norm>
-1.43539

>  <SCORE.INTRA>
-0.561711

>  <SCORE.INTRA.DIHEDRAL>
11.087

>  <SCORE.INTRA.DIHEDRAL.0>
22.9177

>  <SCORE.INTRA.POLAR>
-1.72781

>  <SCORE.INTRA.POLAR.0>
-0.311208

>  <SCORE.INTRA.REPUL>
0

>  <SCORE.INTRA.REPUL.0>
0

>  <SCORE.INTRA.SOLV>
1.02201

>  <SCORE.INTRA.SOLV.lig_0>
-132.657

>  <SCORE.INTRA.VDW>
-0.741666

>  <SCORE.INTRA.VDW.0>
-4.68867

>  <SCORE.INTRA.norm>
-0.0175535

>  <SCORE.RESTR>
0

>  <SCORE.RESTR.CAVITY>
0

>  <SCORE.RESTR.norm>
0

>  <SCORE.SYSTEM>
0

>  <SCORE.SYSTEM.CONST>
0

>  <SCORE.SYSTEM.DIHEDRAL>
0

>  <SCORE.SYSTEM.SOLV>
0

>  <SCORE.SYSTEM.norm>
0

>  <SCORE.heavy>
32

>  <SCORE.norm>
-1.45294

>  <RMSD>
9.358

$$$$
1tob
 OpenBabel11021811413D
libRbt.so/2013.1/901 2013/11/27
 32 34  0  0  0  0  0  0  0  0999 V2000
   -3.6794    4.1395    3.5733 C   0  0  2  0  0  0  0  0  0  0  0  0
   -4.5053    4.4364    2.3239 C   0  0  1  0  0  0  0  0  0  0  0  0
   -4.2550    5.8688    1.8722 C   0  0  2  0  0  0  0  0  0  0  0  0
   -4.5540    6.8217    3.0233 C   0  0  1  0  0  0  0  0  0  0  0  0
   -3.7240    6.4360    4.2447 C   0  0  1  0  0  0  0  0  0  0  0  0
   -4.0342    7.3016    5.4501 C   0  0  0  0  0  0  0  0  0  0  0  0
   -4.1441    3.5369    1.2856 O   0  0  0  0  0  0  0  0  0  0  0  0
   -5.0464    6.1940    0.6659 N   0  3  0  0  0  0  0  0  0  0  0  0
   -4.2574    8.1557    2.6326 O   0  0  0  0  0  0  0  0  0  0  0  0
   -3.9984    5.0681    4.6173 O   0  0  0  0  0  0  0  0  0  0  0  0
   -5.3317    7.8727    5.3588 O   0  0  0  0  0  0  0  0  0  0  0  0
   -0.4733    2.6979    3.2102 C   0  0  2  0  0  0  0  0  0  0  0  0
    0.4375    1.8359    4.0737 C   0  0  0  0  0  0  0  0  0  0  0  0
    1.1832    2.6994    5.0914 C   0  0  1  0  0  0  0  0  0  0  0  0
    0.1793    3.4236    5.9855 C   0  0  2  0  0  0  0  0  0  0  0  0
   -0.7503    4.2892    5.1335 C   0  0  1  0  0  0  0  0  0  0  0  0
   -1.4706    3.4254    4.0987 C   0  0  1  0  0  0  0  0  0  0  0  0
   -1.2224    1.8634    2.2453 N   0  3  0  0  0  0  0  0  0  0  0  0
    2.1302    1.8592    5.8695 N   0  3  0  0  0  0  0  0  0  0  0  0
   -1.7007    4.9396    5.9663 O   0  0  0  0  0  0  0  0  0  0  0  0
   -2.3308    4.2479    3.2897 O   0  0  0  0  0  0  0  0  0  0  0  0
    1.0880    3.6724    8.1937 C   0  0  1  0  0  0  0  0  0  0  0  0
    0.9375    4.7246    9.2938 C   0  0  1  0  0  0  0  0  0  0  0  0
    1.9948    5.8071    9.1365 C   0  0  0  0  0  0  0  0  0  0  0  0
    3.3715    5.1633    9.1162 C   0  0  1  0  0  0  0  0  0  0  0  0
    3.4336    4.1125    8.0083 C   0  0  1  0  0  0  0  0  0  0  0  0
    4.7650    3.3846    7.9664 C   0  0  0  0  0  0  0  0  0  0  0  0
   -0.4339    5.2862    9.3114 N   0  3  0  0  0  0  0  0  0  0  0  0
    4.9482    2.5187    9.1557 N   0  3  0  0  0  0  0  0  0  0  0  0
    0.8715    4.2455    6.9476 O   0  0  0  0  0  0  0  0  0  0  0  0
    4.3669    6.1532    8.9015 O   0  0  0  0  0  0  0  0  0  0  0  0
    2.4083    3.1158    8.2100 O   0  0  0  0  0  0  0  0  0  0  0  0
  1  2  1  0  0  0  0
  1 10  1  0  0  0  0
  1 21  1  6  0  0  0
  2  3  1  0  0  0  0
  2  7  1  6  0  0  0
  3  4  1  0  0  0  0
  3  8  1  6  0  0  0
  4  5  1  0  0  0  0
  4  9  1  6  0  0  0
  5  6  1  1  0  0  0
  5 10  1  0  0  0  0
  6 11  1  0  0  0  0
 12 13  1  0  0  0  0
 12 17  1  0  0  0  0
 12 18  1  6  0  0  0
 13 14  1  0  0  0  0
 14 15  1  0  0  0  0
 14 19  1  1  0  0  0
 15 16  1  0  0  0  0
 15 30  1  1  0  0  0
 16 17  1  0  0  0  0
 16 20  1  1  0  0  0
 17 21  1  6  0  0  0
 22 23  1  0  0  0  0
 22 30  1  6  0  0  0
 22 32  1  0  0  0  0
 23 24  1  0  0  0  0
 23 28  1  6  0  0  0
 24 25  1  0  0  0  0
 25 26  1  0  0  0  0
 25 31  1  6  0  0  0
 26 27  1  1  0  0  0
 26 32  1  0  0  0  0
 27 29  1  0  0  0  0
M  CHG  5   8   1  18   1  19   1  28   1  29   1
M  END
>  <CHROM.1>
-151.66444950,84.88957510,56.69168646,177.66539112,23.59837993,69.29453433
-58.63107501,-50.95128383,-95.16317944,81.26734802,132.78368292,-142.91716824
-79.52044652,-42.70139528,68.39453269,57.23629757,-0.76408930,4.55522983
5.43893345,-2.82986646,-0.61256204,0.81179025

>  <Name>
1tob

>  <RI>
0

>  <Rbt.Current_Directory>
/home/itssahil/PROJECTS/Mol_Feturizer/New_Systems/rnas/1tob

>  <Rbt.Executable>
rbdock ($Id: //depot/dev/client3/rdock/2013.1/src/exe/rbdock.cxx#4 $)

>  <Rbt.Library>
libRbt.so (2013.1, Build901 2013/11/27)

>  <Rbt.Parameter_File>
/export/apps/rDock/src/rDock_2013.1_src/data/scripts/dock_solv.prm

>  <Rbt.Receptor>
prm/pocket_docking_8.prm

>  <SCORE>
-52.417

>  <SCORE.INTER>
-55.3512

>  <SCORE.INTER.CONST>
1

>  <SCORE.INTER.POLAR>
-7.88219

>  <SCORE.INTER.ROT>
6

>  <SCORE.INTER.SOLV>
24.6556

>  <SCORE.INTER.VDW>
-26.4454

>  <SCORE.INTER.norm>
-1.72973

>  <SCORE.INTRA>
2.93417

>  <SCORE.INTRA.DIHEDRAL>
7.71775

>  <SCORE.INTRA.DIHEDRAL.0>
22.9177

>  <SCORE.INTRA.POLAR>
-0.58081

>  <SCORE.INTRA.POLAR.0>
-0.311208

>  <SCORE.INTRA.REPUL>
0.0435401

>  <SCORE.INTRA.REPUL.0>
0

>  <SCORE.INTRA.SOLV>
0.860274

>  <SCORE.INTRA.SOLV.lig_0>
-132.657

>  <SCORE.INTRA.VDW>
0.402213

>  <SCORE.INTRA.VDW.0>
-4.68867

>  <SCORE.INTRA.norm>
0.0916929

>  <SCORE.RESTR>
0

>  <SCORE.RESTR.CAVITY>
0

>  <SCORE.RESTR.norm>
0

>  <SCORE.SYSTEM>
0

>  <SCORE.SYSTEM.CONST>
0

>  <SCORE.SYSTEM.DIHEDRAL>
0

>  <SCORE.SYSTEM.SOLV>
0

>  <SCORE.SYSTEM.norm>
0

>  <SCORE.heavy>
32

>  <SCORE.norm>
-1.63803

>  <RMSD>
9.367

$$$$
1tob
 OpenBabel11021811413D
libRbt.so/2013.1/901 2013/11/27
 32 34  0  0  0  0  0  0  0  0999 V2000
   -3.1700    4.0417    3.6346 C   0  0  2  0  0  0  0  0  0  0  0  0
   -3.7709    3.2520    2.4742 C   0  0  1  0  0  0  0  0  0  0  0  0
   -4.0190    4.1826    1.2948 C   0  0  2  0  0  0  0  0  0  0  0  0
   -4.8985    5.3437    1.7429 C   0  0  1  0  0  0  0  0  0  0  0  0
   -4.2531    6.0554    2.9287 C   0  0  1  0  0  0  0  0  0  0  0  0
   -5.1193    7.1754    3.4708 C   0  0  0  0  0  0  0  0  0  0  0  0
   -2.8799    2.2157    2.0873 O   0  0  0  0  0  0  0  0  0  0  0  0
   -4.6091    3.4512    0.1528 N   0  3  0  0  0  0  0  0  0  0  0  0
   -5.0788    6.2537    0.6661 O   0  0  0  0  0  0  0  0  0  0  0  0
   -4.0359    5.1210    4.0080 O   0  0  0  0  0  0  0  0  0  0  0  0
   -5.1494    7.1673    4.8910 O   0  0  0  0  0  0  0  0  0  0  0  0
    0.3089    3.8830    2.7207 C   0  0  2  0  0  0  0  0  0  0  0  0
    1.5196    3.1276    3.2517 C   0  0  0  0  0  0  0  0  0  0  0  0
    2.0124    3.7566    4.5552 C   0  0  1  0  0  0  0  0  0  0  0  0
    0.8979    3.7185    5.5984 C   0  0  2  0  0  0  0  0  0  0  0  0
   -0.3307    4.4664    5.0784 C   0  0  1  0  0  0  0  0  0  0  0  0
   -0.8008    3.8522    3.7603 C   0  0  1  0  0  0  0  0  0  0  0  0
   -0.1926    3.2588    1.4768 N   0  3  0  0  0  0  0  0  0  0  0  0
    3.2431    3.0635    5.0170 N   0  3  0  0  0  0  0  0  0  0  0  0
   -1.3751    4.4049    6.0404 O   0  0  0  0  0  0  0  0  0  0  0  0
   -1.9465    4.5704    3.2680 O   0  0  0  0  0  0  0  0  0  0  0  0
    1.0530    3.6101    7.9917 C   0  0  1  0  0  0  0  0  0  0  0  0
    0.4070    4.5372    9.0228 C   0  0  1  0  0  0  0  0  0  0  0  0
    1.3807    5.6328    9.4302 C   0  0  0  0  0  0  0  0  0  0  0  0
    2.6688    4.9981    9.9284 C   0  0  1  0  0  0  0  0  0  0  0  0
    3.2379    4.0730    8.8532 C   0  0  1  0  0  0  0  0  0  0  0  0
    4.4979    3.3570    9.3047 C   0  0  0  0  0  0  0  0  0  0  0  0
   -0.8713    5.0904    8.5164 N   0  3  0  0  0  0  0  0  0  0  0  0
    5.6520    4.2844    9.3806 N   0  3  0  0  0  0  0  0  0  0  0  0
    1.3500    4.3136    6.8321 O   0  0  0  0  0  0  0  0  0  0  0  0
    3.6147    6.0077   10.2490 O   0  0  0  0  0  0  0  0  0  0  0  0
    2.2705    3.0580    8.5076 O   0  0  0  0  0  0  0  0  0  0  0  0
  1  2  1  0  0  0  0
  1 10  1  0  0  0  0
  1 21  1  6  0  0  0
  2  3  1  0  0  0  0
  2  7  1  6  0  0  0
  3  4  1  0  0  0  0
  3  8  1  6  0  0  0
  4  5  1  0  0  0  0
  4  9  1  6  0  0  0
  5  6  1  1  0  0  0
  5 10  1  0  0  0  0
  6 11  1  0  0  0  0
 12 13  1  0  0  0  0
 12 17  1  0  0  0  0
 12 18  1  6  0  0  0
 13 14  1  0  0  0  0
 14 15  1  0  0  0  0
 14 19  1  1  0  0  0
 15 16  1  0  0  0  0
 15 30  1  1  0  0  0
 16 17  1  0  0  0  0
 16 20  1  1  0  0  0
 17 21  1  6  0  0  0
 22 23  1  0  0  0  0
 22 30  1  6  0  0  0
 22 32  1  0  0  0  0
 23 24  1  0  0  0  0
 23 28  1  6  0  0  0
 24 25  1  0  0  0  0
 25 26  1  0  0  0  0
 25 31  1  6  0  0  0
 26 27  1  1  0  0  0
 26 32  1  0  0  0  0
 27 29  1  0  0  0  0
M  CHG  5   8   1  18   1  19   1  28   1  29   1
M  END
>  <CHROM.1>
-101.48792198,173.96760096,61.42294439,179.95162467,136.66573164,-93.16012220
-99.74463402,-55.84395574,-134.18651364,-59.73283458,144.23915127,-130.04096423
133.51115274,69.84345872,-71.95310666,-77.91737269,-0.58660224,4.42206156
5.18277595,2.49554719,0.42708473,-2.00237105

>  <Name>
1tob

>  <RI>
0

>  <Rbt.Current_Directory>
/home/itssahil/PROJECTS/Mol_Feturizer/New_Systems/rnas/1tob

>  <Rbt.Executable>
rbdock ($Id: //depot/dev/client3/rdock/2013.1/src/exe/rbdock.cxx#4 $)

>  <Rbt.Library>
libRbt.so (2013.1, Build901 2013/11/27)

>  <Rbt.Parameter_File>
/export/apps/rDock/src/rDock_2013.1_src/data/scripts/dock_solv.prm

>  <Rbt.Receptor>
prm/pocket_docking_8.prm

>  <SCORE>
-59.4205

>  <SCORE.INTER>
-60.6352

>  <SCORE.INTER.CONST>
1

>  <SCORE.INTER.POLAR>
-8.65889

>  <SCORE.INTER.ROT>
6

>  <SCORE.INTER.SOLV>
32.7866

>  <SCORE.INTER.VDW>
-30.0894

>  <SCORE.INTER.norm>
-1.89485

>  <SCORE.INTRA>
1.21476

>  <SCORE.INTRA.DIHEDRAL>
16.5666

>  <SCORE.INTRA.DIHEDRAL.0>
22.9177

>  <SCORE.INTRA.POLAR>
-2.66354

>  <SCORE.INTRA.POLAR.0>
-0.311208

>  <SCORE.INTRA.REPUL>
0

>  <SCORE.INTRA.REPUL.0>
0

>  <SCORE.INTRA.SOLV>
1.18051

>  <SCORE.INTRA.SOLV.lig_0>
-132.657

>  <SCORE.INTRA.VDW>
1.39724

>  <SCORE.INTRA.VDW.0>
-4.68867

>  <SCORE.INTRA.norm>
0.0379612

>  <SCORE.RESTR>
0

>  <SCORE.RESTR.CAVITY>
0

>  <SCORE.RESTR.norm>
0

>  <SCORE.SYSTEM>
0

>  <SCORE.SYSTEM.CONST>
0

>  <SCORE.SYSTEM.DIHEDRAL>
0

>  <SCORE.SYSTEM.SOLV>
0

>  <SCORE.SYSTEM.norm>
0

>  <SCORE.heavy>
32

>  <SCORE.norm>
-1.85689

>  <RMSD>
9.369

$$$$
1tob
 OpenBabel11021811413D
libRbt.so/2013.1/901 2013/11/27
 32 34  0  0  0  0  0  0  0  0999 V2000
   -4.2245    4.7072    3.0630 C   0  0  2  0  0  0  0  0  0  0  0  0
   -5.1890    5.3479    2.0678 C   0  0  1  0  0  0  0  0  0  0  0  0
   -4.8113    6.8075    1.8547 C   0  0  2  0  0  0  0  0  0  0  0  0
   -4.7812    7.5238    3.1995 C   0  0  1  0  0  0  0  0  0  0  0  0
   -3.8300    6.8022    4.1501 C   0  0  1  0  0  0  0  0  0  0  0  0
   -3.8147    7.4235    5.5330 C   0  0  0  0  0  0  0  0  0  0  0  0
   -5.1325    4.6531    0.8302 O   0  0  0  0  0  0  0  0  0  0  0  0
   -5.7311    7.4629    0.8999 N   0  3  0  0  0  0  0  0  0  0  0  0
   -4.3626    8.8698    3.0180 O   0  0  0  0  0  0  0  0  0  0  0  0
   -4.2347    5.4246    4.3037 O   0  0  0  0  0  0  0  0  0  0  0  0
   -5.1303    7.5845    6.0442 O   0  0  0  0  0  0  0  0  0  0  0  0
   -2.1080    2.5379    1.9392 C   0  0  2  0  0  0  0  0  0  0  0  0
   -1.2133    1.3946    2.3984 C   0  0  0  0  0  0  0  0  0  0  0  0
    0.2162    1.8900    2.6186 C   0  0  1  0  0  0  0  0  0  0  0  0
    0.2221    2.9904    3.6774 C   0  0  2  0  0  0  0  0  0  0  0  0
   -0.6787    4.1450    3.2363 C   0  0  1  0  0  0  0  0  0  0  0  0
   -2.0992    3.6383    2.9891 C   0  0  1  0  0  0  0  0  0  0  0  0
   -3.4999    2.0715    1.7563 N   0  3  0  0  0  0  0  0  0  0  0  0
    1.0957    0.7493    2.9838 N   0  3  0  0  0  0  0  0  0  0  0  0
   -0.6926    5.1546    4.2367 O   0  0  0  0  0  0  0  0  0  0  0  0
   -2.9376    4.7258    2.5586 O   0  0  0  0  0  0  0  0  0  0  0  0
    2.4804    2.5308    4.3502 C   0  0  1  0  0  0  0  0  0  0  0  0
    3.0666    2.9754    5.6913 C   0  0  1  0  0  0  0  0  0  0  0  0
    3.8410    4.2741    5.5238 C   0  0  0  0  0  0  0  0  0  0  0  0
    4.8973    4.0920    4.4462 C   0  0  1  0  0  0  0  0  0  0  0  0
    4.2364    3.6278    3.1488 C   0  0  1  0  0  0  0  0  0  0  0  0
    5.2410    3.3682    2.0409 C   0  0  0  0  0  0  0  0  0  0  0  0
    2.0103    3.0880    6.7246 N   0  3  0  0  0  0  0  0  0  0  0  0
    4.5857    2.8127    0.8327 N   0  3  0  0  0  0  0  0  0  0  0  0
    1.5659    3.4692    3.8906 O   0  0  0  0  0  0  0  0  0  0  0  0
    5.5847    5.3156    4.2289 O   0  0  0  0  0  0  0  0  0  0  0  0
    3.5172    2.3953    3.3704 O   0  0  0  0  0  0  0  0  0  0  0  0
  1  2  1  0  0  0  0
  1 10  1  0  0  0  0
  1 21  1  6  0  0  0
  2  3  1  0  0  0  0
  2  7  1  6  0  0  0
  3  4  1  0  0  0  0
  3  8  1  6  0  0  0
  4  5  1  0  0  0  0
  4  9  1  6  0  0  0
  5  6  1  1  0  0  0
  5 10  1  0  0  0  0
  6 11  1  0  0  0  0
 12 13  1  0  0  0  0
 12 17  1  0  0  0  0
 12 18  1  1  0  0  0
 13 14  1  0  0  0  0
 14 15  1  0  0  0  0
 14 19  1  1  0  0  0
 15 16  1  0  0  0  0
 15 30  1  6  0  0  0
 16 17  1  0  0  0  0
 16 20  1  1  0  0  0
 17 21  1  6  0  0  0
 22 23  1  0  0  0  0
 22 30  1  6  0  0  0
 22 32  1  0  0  0  0
 23 24  1  0  0  0  0
 23 28  1  1  0  0  0
 24 25  1  0  0  0  0
 25 26  1  0  0  0  0
 25 31  1  6  0  0  0
 26 27  1  6  0  0  0
 26 32  1  0  0  0  0
 27 29  1  0  0  0  0
M  CHG  5   8   1  18   1  19   1  28   1  29   1
M  END
>  <CHROM.1>
-149.69233690,-83.37559859,-179.55581403,-176.82714541,50.65511301,-61.53469667
-62.34778285,-93.23751796,-61.20989370,-170.74035537,96.34318711,-120.77046286
-173.96868376,61.60010188,175.26587358,-60.80636188,-0.70792359,4.39669856
3.35280509,2.90719943,-0.29484705,0.64450497

>  <Name>
1tob

>  <RI>
0

>  <Rbt.Current_Directory>
/home/itssahil/PROJECTS/Mol_Feturizer/New_Systems/rnas/1tob

>  <Rbt.Executable>
rbdock ($Id: //depot/dev/client3/rdock/2013.1/src/exe/rbdock.cxx#4 $)

>  <Rbt.Library>
libRbt.so (2013.1, Build901 2013/11/27)

>  <Rbt.Parameter_File>
/export/apps/rDock/src/rDock_2013.1_src/data/scripts/dock_solv.prm

>  <Rbt.Receptor>
prm/blind_docking_80.prm

>  <SCORE>
-27.3057

>  <SCORE.INTER>
-37.1408

>  <SCORE.INTER.CONST>
1

>  <SCORE.INTER.POLAR>
-5.61136

>  <SCORE.INTER.ROT>
6

>  <SCORE.INTER.SOLV>
36.6636

>  <SCORE.INTER.VDW>
-25.8772

>  <SCORE.INTER.norm>
-1.16065

>  <SCORE.INTRA>
-0.588396

>  <SCORE.INTRA.DIHEDRAL>
-1.7841

>  <SCORE.INTRA.DIHEDRAL.0>
22.9177

>  <SCORE.INTRA.POLAR>
-0.766673

>  <SCORE.INTRA.POLAR.0>
-0.311208

>  <SCORE.INTRA.REPUL>
0

>  <SCORE.INTRA.REPUL.0>
0

>  <SCORE.INTRA.SOLV>
-0.907039

>  <SCORE.INTRA.SOLV.lig_0>
-132.657

>  <SCORE.INTRA.VDW>
3.36386

>  <SCORE.INTRA.VDW.0>
-4.68867

>  <SCORE.INTRA.norm>
-0.0183874

>  <SCORE.RESTR>
10.4236

>  <SCORE.RESTR.CAVITY>
10.4236

>  <SCORE.RESTR.norm>
0.325736

>  <SCORE.SYSTEM>
0

>  <SCORE.SYSTEM.CONST>
0

>  <SCORE.SYSTEM.DIHEDRAL>
0

>  <SCORE.SYSTEM.SOLV>
0

>  <SCORE.SYSTEM.norm>
0

>  <SCORE.heavy>
32

>  <SCORE.norm>
-0.853302

>  <RMSD>
9.371

$$$$
1tob
 OpenBabel11021811413D
libRbt.so/2013.1/901 2013/11/27
 32 34  0  0  0  0  0  0  0  0999 V2000
   -4.0894    4.5042    3.0775 C   0  0  2  0  0  0  0  0  0  0  0  0
   -4.4444    3.5115    1.9731 C   0  0  1  0  0  0  0  0  0  0  0  0
   -4.8466    4.2675    0.7141 C   0  0  2  0  0  0  0  0  0  0  0  0
   -5.9856    5.2257    1.0415 C   0  0  1  0  0  0  0  0  0  0  0  0
   -5.5706    6.1549    2.1789 C   0  0  1  0  0  0  0  0  0  0  0  0
   -6.6913    7.0833    2.6037 C   0  0  0  0  0  0  0  0  0  0  0  0
   -3.3252    2.6818    1.6964 O   0  0  0  0  0  0  0  0  0  0  0  0
   -5.2051    3.3353   -0.3767 N   0  3  0  0  0  0  0  0  0  0  0  0
   -6.3215    5.9852   -0.1119 O   0  0  0  0  0  0  0  0  0  0  0  0
   -5.1932    5.3804    3.3378 O   0  0  0  0  0  0  0  0  0  0  0  0
   -6.3251    7.8527    3.7404 O   0  0  0  0  0  0  0  0  0  0  0  0
   -2.6067    5.3346    5.0849 C   0  0  2  0  0  0  0  0  0  0  0  0
   -1.5190    5.4839    6.1398 C   0  0  0  0  0  0  0  0  0  0  0  0
   -0.4650    4.3881    5.9794 C   0  0  1  0  0  0  0  0  0  0  0  0
    0.1644    4.4787    4.5911 C   0  0  2  0  0  0  0  0  0  0  0  0
   -0.9158    4.3386    3.5174 C   0  0  1  0  0  0  0  0  0  0  0  0
   -1.9820    5.4182    3.7007 C   0  0  1  0  0  0  0  0  0  0  0  0
   -3.6122    6.4119    5.2144 N   0  3  0  0  0  0  0  0  0  0  0  0
    0.5437    4.4943    7.0655 N   0  3  0  0  0  0  0  0  0  0  0  0
   -0.3302    4.4514    2.2272 O   0  0  0  0  0  0  0  0  0  0  0  0
   -3.0035    5.2709    2.6979 O   0  0  0  0  0  0  0  0  0  0  0  0
    0.8983    2.5036    3.4403 C   0  0  1  0  0  0  0  0  0  0  0  0
    0.9636    1.0923    4.0266 C   0  0  1  0  0  0  0  0  0  0  0  0
    2.3665    0.7969    4.5353 C   0  0  0  0  0  0  0  0  0  0  0  0
    3.3642    1.0182    3.4100 C   0  0  1  0  0  0  0  0  0  0  0  0
    3.2211    2.4389    2.8654 C   0  0  1  0  0  0  0  0  0  0  0  0
    4.1492    2.7134    1.6961 C   0  0  0  0  0  0  0  0  0  0  0  0
   -0.0606    0.9044    5.0813 N   0  3  0  0  0  0  0  0  0  0  0  0
    4.4199    4.1632    1.5462 N   0  3  0  0  0  0  0  0  0  0  0  0
    1.1580    3.4462    4.4263 O   0  0  0  0  0  0  0  0  0  0  0  0
    4.6862    0.8128    3.8864 O   0  0  0  0  0  0  0  0  0  0  0  0
    1.8718    2.6598    2.4006 O   0  0  0  0  0  0  0  0  0  0  0  0
  1  2  1  0  0  0  0
  1 10  1  0  0  0  0
  1 21  1  6  0  0  0
  2  3  1  0  0  0  0
  2  7  1  6  0  0  0
  3  4  1  0  0  0  0
  3  8  1  6  0  0  0
  4  5  1  0  0  0  0
  4  9  1  6  0  0  0
  5  6  1  1  0  0  0
  5 10  1  0  0  0  0
  6 11  1  0  0  0  0
 12 13  1  0  0  0  0
 12 17  1  0  0  0  0
 12 18  1  6  0  0  0
 13 14  1  0  0  0  0
 14 15  1  0  0  0  0
 14 19  1  1  0  0  0
 15 16  1  0  0  0  0
 15 30  1  6  0  0  0
 16 17  1  0  0  0  0
 16 20  1  6  0  0  0
 17 21  1  6  0  0  0
 22 23  1  0  0  0  0
 22 30  1  1  0  0  0
 22 32  1  0  0  0  0
 23 24  1  0  0  0  0
 23 28  1  1  0  0  0
 24 25  1  0  0  0  0
 25 26  1  0  0  0  0
 25 31  1  1  0  0  0
 26 27  1  6  0  0  0
 26 32  1  0  0  0  0
 27 29  1  0  0  0  0
M  CHG  5   8   1  18   1  19   1  28   1  29   1
M  END
>  <CHROM.1>
-133.90691138,173.51666441,-124.25663575,-5.07245499,174.66789313,-81.20539647
63.50227597,22.38356979,116.54012013,-176.55752940,-29.08063216,-125.89173558
-136.62740083,65.17642251,-156.42251207,-95.81728665,-1.40092879,4.02724391
3.21491210,-3.13870150,0.42970898,-1.97312852

>  <Name>
1tob

>  <RI>
0

>  <Rbt.Current_Directory>
/home/itssahil/PROJECTS/Mol_Feturizer/New_Systems/rnas/1tob

>  <Rbt.Executable>
rbdock ($Id: //depot/dev/client3/rdock/2013.1/src/exe/rbdock.cxx#4 $)

>  <Rbt.Library>
libRbt.so (2013.1, Build901 2013/11/27)

>  <Rbt.Parameter_File>
/export/apps/rDock/src/rDock_2013.1_src/data/scripts/dock_solv.prm

>  <Rbt.Receptor>
prm/blind_docking_20.prm

>  <SCORE>
-14.9268

>  <SCORE.INTER>
-42.159

>  <SCORE.INTER.CONST>
1

>  <SCORE.INTER.POLAR>
-7.08817

>  <SCORE.INTER.ROT>
6

>  <SCORE.INTER.SOLV>
39.9278

>  <SCORE.INTER.VDW>
-25.388

>  <SCORE.INTER.norm>
-1.31747

>  <SCORE.INTRA>
19.6601

>  <SCORE.INTRA.DIHEDRAL>
24.0092

>  <SCORE.INTRA.DIHEDRAL.0>
22.9177

>  <SCORE.INTRA.POLAR>
-0.77701

>  <SCORE.INTRA.POLAR.0>
-0.311208

>  <SCORE.INTRA.REPUL>
0

>  <SCORE.INTRA.REPUL.0>
0

>  <SCORE.INTRA.SOLV>
-1.02828

>  <SCORE.INTRA.SOLV.lig_0>
-132.657

>  <SCORE.INTRA.VDW>
10.8115

>  <SCORE.INTRA.VDW.0>
-4.68867

>  <SCORE.INTRA.norm>
0.614378

>  <SCORE.RESTR>
7.57206

>  <SCORE.RESTR.CAVITY>
7.57206

>  <SCORE.RESTR.norm>
0.236627

>  <SCORE.SYSTEM>
0

>  <SCORE.SYSTEM.CONST>
0

>  <SCORE.SYSTEM.DIHEDRAL>
0

>  <SCORE.SYSTEM.SOLV>
0

>  <SCORE.SYSTEM.norm>
0

>  <SCORE.heavy>
32

>  <SCORE.norm>
-0.466464

>  <RMSD>
9.373

$$$$
1tob
 OpenBabel11021811413D
libRbt.so/2013.1/901 2013/11/27
 32 34  0  0  0  0  0  0  0  0999 V2000
   -3.2281    6.7798    3.9306 C   0  0  2  0  0  0  0  0  0  0  0  0
   -3.8170    7.9337    4.7386 C   0  0  1  0  0  0  0  0  0  0  0  0
   -5.3088    8.0483    4.4565 C   0  0  2  0  0  0  0  0  0  0  0  0
   -5.5299    8.1988    2.9561 C   0  0  1  0  0  0  0  0  0  0  0  0
   -4.8786    7.0333    2.2167 C   0  0  1  0  0  0  0  0  0  0  0  0
   -4.9979    7.1661    0.7111 C   0  0  0  0  0  0  0  0  0  0  0  0
   -3.6080    7.7042    6.1246 O   0  0  0  0  0  0  0  0  0  0  0  0
   -5.9121    9.1631    5.2184 N   0  3  0  0  0  0  0  0  0  0  0  0
   -6.9229    8.2373    2.6769 O   0  0  0  0  0  0  0  0  0  0  0  0
   -3.4707    6.9725    2.5313 O   0  0  0  0  0  0  0  0  0  0  0  0
   -4.0845    6.3093    0.0406 O   0  0  0  0  0  0  0  0  0  0  0  0
   -2.4449    4.0283    3.0582 C   0  0  2  0  0  0  0  0  0  0  0  0
   -1.4760    2.8623    3.1992 C   0  0  0  0  0  0  0  0  0  0  0  0
   -0.2629    3.2735    4.0340 C   0  0  1  0  0  0  0  0  0  0  0  0
   -0.7200    3.7188    5.4212 C   0  0  2  0  0  0  0  0  0  0  0  0
   -1.7012    4.8856    5.2987 C   0  0  1  0  0  0  0  0  0  0  0  0
   -2.8972    4.4783    4.4389 C   0  0  1  0  0  0  0  0  0  0  0  0
   -3.6366    3.6266    2.2791 N   0  3  0  0  0  0  0  0  0  0  0  0
    0.7130    2.1544    4.0924 N   0  3  0  0  0  0  0  0  0  0  0  0
   -2.1457    5.2790    6.5901 O   0  0  0  0  0  0  0  0  0  0  0  0
   -3.8084    5.5851    4.3138 O   0  0  0  0  0  0  0  0  0  0  0  0
    0.6314    3.3808    7.3766 C   0  0  1  0  0  0  0  0  0  0  0  0
    0.9231    4.3186    8.5493 C   0  0  1  0  0  0  0  0  0  0  0  0
    2.2059    5.0962    8.2964 C   0  0  0  0  0  0  0  0  0  0  0  0
    3.3379    4.1195    8.0225 C   0  0  1  0  0  0  0  0  0  0  0  0
    2.9613    3.2070    6.8558 C   0  0  1  0  0  0  0  0  0  0  0  0
    4.0242    2.1637    6.5626 C   0  0  0  0  0  0  0  0  0  0  0  0
   -0.2267    5.2153    8.8146 N   0  3  0  0  0  0  0  0  0  0  0  0
    4.1357    1.1776    7.6639 N   0  3  0  0  0  0  0  0  0  0  0  0
    0.4163    4.1138    6.2170 O   0  0  0  0  0  0  0  0  0  0  0  0
    4.5287    4.8304    7.7168 O   0  0  0  0  0  0  0  0  0  0  0  0
    1.7383    2.4989    7.1530 O   0  0  0  0  0  0  0  0  0  0  0  0
  1  2  1  0  0  0  0
  1 10  1  0  0  0  0
  1 21  1  1  0  0  0
  2  3  1  0  0  0  0
  2  7  1  1  0  0  0
  3  4  1  0  0  0  0
  3  8  1  1  0  0  0
  4  5  1  0  0  0  0
  4  9  1  1  0  0  0
  5  6  1  6  0  0  0
  5 10  1  0  0  0  0
  6 11  1  0  0  0  0
 12 13  1  0  0  0  0
 12 17  1  0  0  0  0
 12 18  1  6  0  0  0
 13 14  1  0  0  0  0
 14 15  1  0  0  0  0
 14 19  1  1  0  0  0
 15 16  1  0  0  0  0
 15 30  1  1  0  0  0
 16 17  1  0  0  0  0
 16 20  1  1  0  0  0
 17 21  1  6  0  0  0
 22 23  1  0  0  0  0
 22 30  1  6  0  0  0
 22 32  1  0  0  0  0
 23 24  1  0  0  0  0
 23 28  1  6  0  0  0
 24 25  1  0  0  0  0
 25 26  1  0  0  0  0
 25 31  1  6  0  0  0
 26 27  1  1  0  0  0
 26 32  1  0  0  0  0
 27 29  1  0  0  0  0
M  CHG  5   8   1  18   1  19   1  28   1  29   1
M  END
>  <CHROM.1>
-138.16258483,-77.06658325,-101.87292721,74.77569440,163.32213255,-51.53419105
173.33330421,-160.63119733,-118.84890875,154.95911423,-72.02466678,-134.33999142
-179.22825567,-57.61006021,67.41997278,-60.29441977,-1.43468633,5.12179998
5.05461498,3.00489397,0.65478928,-2.16775193

>  <Name>
1tob

>  <RI>
0

>  <Rbt.Current_Directory>
/home/itssahil/PROJECTS/Mol_Feturizer/New_Systems/rnas/1tob

>  <Rbt.Executable>
rbdock ($Id: //depot/dev/client3/rdock/2013.1/src/exe/rbdock.cxx#4 $)

>  <Rbt.Library>
libRbt.so (2013.1, Build901 2013/11/27)

>  <Rbt.Parameter_File>
/export/apps/rDock/src/rDock_2013.1_src/data/scripts/dock_solv.prm

>  <Rbt.Receptor>
prm/pocket_docking_7.prm

>  <SCORE>
-47.5158

>  <SCORE.INTER>
-49.5217

>  <SCORE.INTER.CONST>
1

>  <SCORE.INTER.POLAR>
-7.7386

>  <SCORE.INTER.ROT>
6

>  <SCORE.INTER.SOLV>
25.9011

>  <SCORE.INTER.VDW>
-23.4528

>  <SCORE.INTER.norm>
-1.54755

>  <SCORE.INTRA>
1.99715

>  <SCORE.INTRA.DIHEDRAL>
7.27323

>  <SCORE.INTRA.DIHEDRAL.0>
22.9177

>  <SCORE.INTRA.POLAR>
-0.893653

>  <SCORE.INTRA.POLAR.0>
-0.311208

>  <SCORE.INTRA.REPUL>
0

>  <SCORE.INTRA.REPUL.0>
0

>  <SCORE.INTRA.SOLV>
1.21771

>  <SCORE.INTRA.SOLV.lig_0>
-132.657

>  <SCORE.INTRA.VDW>
0.790105

>  <SCORE.INTRA.VDW.0>
-4.68867

>  <SCORE.INTRA.norm>
0.0624111

>  <SCORE.RESTR>
0.008713

>  <SCORE.RESTR.CAVITY>
0.008713

>  <SCORE.RESTR.norm>
0.000272281

>  <SCORE.SYSTEM>
0

>  <SCORE.SYSTEM.CONST>
0

>  <SCORE.SYSTEM.DIHEDRAL>
0

>  <SCORE.SYSTEM.SOLV>
0

>  <SCORE.SYSTEM.norm>
0

>  <SCORE.heavy>
32

>  <SCORE.norm>
-1.48487

>  <RMSD>
9.374

$$$$
1tob
 OpenBabel11021811413D
libRbt.so/2013.1/901 2013/11/27
 32 34  0  0  0  0  0  0  0  0999 V2000
   -3.3269    4.0910    3.8282 C   0  0  2  0  0  0  0  0  0  0  0  0
   -4.2245    3.6458    2.6761 C   0  0  1  0  0  0  0  0  0  0  0  0
   -4.4246    4.8020    1.7057 C   0  0  2  0  0  0  0  0  0  0  0  0
   -4.9775    6.0054    2.4598 C   0  0  1  0  0  0  0  0  0  0  0  0
   -4.0497    6.3625    3.6178 C   0  0  1  0  0  0  0  0  0  0  0  0
   -4.5859    7.5070    4.4552 C   0  0  0  0  0  0  0  0  0  0  0  0
   -3.6266    2.5500    1.9985 O   0  0  0  0  0  0  0  0  0  0  0  0
   -5.2972    4.4078    0.5785 N   0  3  0  0  0  0  0  0  0  0  0  0
   -5.1027    7.1109    1.5754 O   0  0  0  0  0  0  0  0  0  0  0  0
   -3.8933    5.2262    4.4950 O   0  0  0  0  0  0  0  0  0  0  0  0
   -5.4612    7.0402    5.4721 O   0  0  0  0  0  0  0  0  0  0  0  0
    0.0939    3.4973    2.8553 C   0  0  2  0  0  0  0  0  0  0  0  0
    1.2548    2.7188    3.4590 C   0  0  0  0  0  0  0  0  0  0  0  0
    1.8397    3.4724    4.6537 C   0  0  1  0  0  0  0  0  0  0  0  0
    0.7603    3.6708    5.7155 C   0  0  2  0  0  0  0  0  0  0  0  0
   -0.4188    4.4449    5.1240 C   0  0  1  0  0  0  0  0  0  0  0  0
   -0.9804    3.7019    3.9123 C   0  0  1  0  0  0  0  0  0  0  0  0
   -0.4974    2.7571    1.7190 N   0  3  0  0  0  0  0  0  0  0  0  0
    3.0235    2.7446    5.1800 N   0  3  0  0  0  0  0  0  0  0  0  0
   -1.4330    4.6031    6.1071 O   0  0  0  0  0  0  0  0  0  0  0  0
   -2.0784    4.4433    3.3507 O   0  0  0  0  0  0  0  0  0  0  0  0
    1.8281    3.6028    7.8647 C   0  0  1  0  0  0  0  0  0  0  0  0
    1.4320    4.1706    9.2287 C   0  0  1  0  0  0  0  0  0  0  0  0
    2.0224    5.5604    9.4132 C   0  0  0  0  0  0  0  0  0  0  0  0
    3.5277    5.4957    9.2124 C   0  0  1  0  0  0  0  0  0  0  0  0
    3.8402    4.8993    7.8404 C   0  0  1  0  0  0  0  0  0  0  0  0
    5.3304    4.7496    7.5934 C   0  0  0  0  0  0  0  0  0  0  0  0
   -0.0399    4.1650    9.4023 N   0  3  0  0  0  0  0  0  0  0  0  0
    5.6012    4.0159    6.3340 N   0  3  0  0  0  0  0  0  0  0  0  0
    1.2995    4.3852    6.8465 O   0  0  0  0  0  0  0  0  0  0  0  0
    4.0870    6.7972    9.3137 O   0  0  0  0  0  0  0  0  0  0  0  0
    3.2540    3.5846    7.7244 O   0  0  0  0  0  0  0  0  0  0  0  0
  1  2  1  0  0  0  0
  1 10  1  0  0  0  0
  1 21  1  6  0  0  0
  2  3  1  0  0  0  0
  2  7  1  6  0  0  0
  3  4  1  0  0  0  0
  3  8  1  6  0  0  0
  4  5  1  0  0  0  0
  4  9  1  6  0  0  0
  5  6  1  1  0  0  0
  5 10  1  0  0  0  0
  6 11  1  0  0  0  0
 12 13  1  0  0  0  0
 12 17  1  0  0  0  0
 12 18  1  6  0  0  0
 13 14  1  0  0  0  0
 14 15  1  0  0  0  0
 14 19  1  1  0  0  0
 15 16  1  0  0  0  0
 15 30  1  1  0  0  0
 16 17  1  0  0  0  0
 16 20  1  1  0  0  0
 17 21  1  6  0  0  0
 22 23  1  0  0  0  0
 22 30  1  6  0  0  0
 22 32  1  0  0  0  0
 23 24  1  0  0  0  0
 23 28  1  6  0  0  0
 24 25  1  0  0  0  0
 25 26  1  0  0  0  0
 25 31  1  6  0  0  0
 26 27  1  1  0  0  0
 26 32  1  0  0  0  0
 27 29  1  0  0  0  0
M  CHG  5   8   1  18   1  19   1  28   1  29   1
M  END
>  <CHROM.1>
-121.70774744,169.69325156,123.18167657,65.77326298,86.84605911,-177.11113656
21.90606319,-168.06106620,-91.10449161,176.21063209,145.27615297,-138.80694715
19.55329265,43.35510964,172.85645571,59.46601531,-0.50235214,4.57334518,5.15805312
2.66310260,0.38905994,-2.09021606

>  <Name>
1tob

>  <RI>
0

>  <Rbt.Current_Directory>
/home/itssahil/PROJECTS/Mol_Feturizer/New_Systems/rnas/1tob

>  <Rbt.Executable>
rbdock ($Id: //depot/dev/client3/rdock/2013.1/src/exe/rbdock.cxx#4 $)

>  <Rbt.Library>
libRbt.so (2013.1, Build901 2013/11/27)

>  <Rbt.Parameter_File>
/export/apps/rDock/src/rDock_2013.1_src/data/scripts/dock_solv.prm

>  <Rbt.Receptor>
prm/pocket_docking_7.prm

>  <SCORE>
-48.7549

>  <SCORE.INTER>
-51.1298

>  <SCORE.INTER.CONST>
1

>  <SCORE.INTER.POLAR>
-7.02014

>  <SCORE.INTER.ROT>
6

>  <SCORE.INTER.SOLV>
30.0093

>  <SCORE.INTER.VDW>
-28.2891

>  <SCORE.INTER.norm>
-1.59781

>  <SCORE.INTRA>
2.37488

>  <SCORE.INTRA.DIHEDRAL>
11.7075

>  <SCORE.INTRA.DIHEDRAL.0>
22.9177

>  <SCORE.INTRA.POLAR>
-2.55511

>  <SCORE.INTRA.POLAR.0>
-0.311208

>  <SCORE.INTRA.REPUL>
0

>  <SCORE.INTRA.REPUL.0>
0

>  <SCORE.INTRA.SOLV>
5.05499

>  <SCORE.INTRA.SOLV.lig_0>
-132.657

>  <SCORE.INTRA.VDW>
2.68102

>  <SCORE.INTRA.VDW.0>
-4.68867

>  <SCORE.INTRA.norm>
0.074215

>  <SCORE.RESTR>
0

>  <SCORE.RESTR.CAVITY>
0

>  <SCORE.RESTR.norm>
0

>  <SCORE.SYSTEM>
0

>  <SCORE.SYSTEM.CONST>
0

>  <SCORE.SYSTEM.DIHEDRAL>
0

>  <SCORE.SYSTEM.SOLV>
0

>  <SCORE.SYSTEM.norm>
0

>  <SCORE.heavy>
32

>  <SCORE.norm>
-1.52359

>  <RMSD>
9.381

$$$$
1tob
 OpenBabel11021811413D
libRbt.so/2013.1/901 2013/11/27
 32 34  0  0  0  0  0  0  0  0999 V2000
   -3.8139    5.0473    3.6700 C   0  0  2  0  0  0  0  0  0  0  0  0
   -4.6584    4.2796    2.6558 C   0  0  1  0  0  0  0  0  0  0  0  0
   -4.8923    5.1441    1.4243 C   0  0  2  0  0  0  0  0  0  0  0  0
   -5.5242    6.4651    1.8462 C   0  0  1  0  0  0  0  0  0  0  0  0
   -4.6453    7.1508    2.8886 C   0  0  1  0  0  0  0  0  0  0  0  0
   -5.2598    8.4365    3.4061 C   0  0  0  0  0  0  0  0  0  0  0  0
   -3.9889    3.0842    2.2815 O   0  0  0  0  0  0  0  0  0  0  0  0
   -5.7150    4.4333    0.4217 N   0  3  0  0  0  0  0  0  0  0  0  0
   -5.6830    7.3062    0.7115 O   0  0  0  0  0  0  0  0  0  0  0  0
   -4.4537    6.2799    4.0243 O   0  0  0  0  0  0  0  0  0  0  0  0
   -6.4865    8.1912    4.0791 O   0  0  0  0  0  0  0  0  0  0  0  0
   -0.4098    4.4741    2.4762 C   0  0  2  0  0  0  0  0  0  0  0  0
    0.7049    3.5236    2.8914 C   0  0  0  0  0  0  0  0  0  0  0  0
    1.2627    3.9191    4.2589 C   0  0  1  0  0  0  0  0  0  0  0  0
    0.1483    3.8742    5.3018 C   0  0  2  0  0  0  0  0  0  0  0  0
   -0.9851    4.8180    4.8968 C   0  0  1  0  0  0  0  0  0  0  0  0
   -1.5187    4.4363    3.5165 C   0  0  1  0  0  0  0  0  0  0  0  0
   -0.9759    4.0767    1.1686 N   0  3  0  0  0  0  0  0  0  0  0  0
    2.4046    3.0367    4.6132 N   0  3  0  0  0  0  0  0  0  0  0  0
   -2.0324    4.7525    5.8553 O   0  0  0  0  0  0  0  0  0  0  0  0
   -2.5732    5.3378    3.1341 O   0  0  0  0  0  0  0  0  0  0  0  0
    0.2915    3.4354    7.6578 C   0  0  1  0  0  0  0  0  0  0  0  0
    0.4416    4.1887    8.9807 C   0  0  1  0  0  0  0  0  0  0  0  0
    1.8992    4.5545    9.2168 C   0  0  0  0  0  0  0  0  0  0  0  0
    2.7485    3.2956    9.1517 C   0  0  1  0  0  0  0  0  0  0  0  0
    2.5262    2.5917    7.8135 C   0  0  1  0  0  0  0  0  0  0  0  0
    3.3006    1.2910    7.7010 C   0  0  0  0  0  0  0  0  0  0  0  0
   -0.4429    5.3771    9.0217 N   0  3  0  0  0  0  0  0  0  0  0  0
    4.7548    1.5361    7.5496 N   0  3  0  0  0  0  0  0  0  0  0  0
    0.6620    4.2500    6.5961 O   0  0  0  0  0  0  0  0  0  0  0  0
    4.1210    3.6279    9.3022 O   0  0  0  0  0  0  0  0  0  0  0  0
    1.1279    2.2720    7.6459 O   0  0  0  0  0  0  0  0  0  0  0  0
  1  2  1  0  0  0  0
  1 10  1  0  0  0  0
  1 21  1  6  0  0  0
  2  3  1  0  0  0  0
  2  7  1  6  0  0  0
  3  4  1  0  0  0  0
  3  8  1  6  0  0  0
  4  5  1  0  0  0  0
  4  9  1  6  0  0  0
  5  6  1  1  0  0  0
  5 10  1  0  0  0  0
  6 11  1  0  0  0  0
 12 13  1  0  0  0  0
 12 17  1  0  0  0  0
 12 18  1  6  0  0  0
 13 14  1  0  0  0  0
 14 15  1  0  0  0  0
 14 19  1  1  0  0  0
 15 16  1  0  0  0  0
 15 30  1  1  0  0  0
 16 17  1  0  0  0  0
 16 20  1  1  0  0  0
 17 21  1  6  0  0  0
 22 23  1  0  0  0  0
 22 30  1  6  0  0  0
 22 32  1  0  0  0  0
 23 24  1  0  0  0  0
 23 28  1  6  0  0  0
 24 25  1  0  0  0  0
 25 26  1  0  0  0  0
 25 31  1  6  0  0  0
 26 27  1  1  0  0  0
 26 32  1  0  0  0  0
 27 29  1  0  0  0  0
M  CHG  5   8   1  18   1  19   1  28   1  29   1
M  END
>  <CHROM.1>
-98.17932280,169.18500489,-0.64205137,177.16458979,63.02662895,-176.78185650
74.92300978,-64.27306245,-133.70871428,69.08508640,156.47594848,-159.06312746
-44.28083000,65.42840139,-71.63197498,42.90019755,-1.18978608,4.52071573
4.86856996,2.69379374,0.57512404,-1.93274201

>  <Name>
1tob

>  <RI>
0

>  <Rbt.Current_Directory>
/home/itssahil/PROJECTS/Mol_Feturizer/New_Systems/rnas/1tob

>  <Rbt.Executable>
rbdock ($Id: //depot/dev/client3/rdock/2013.1/src/exe/rbdock.cxx#4 $)

>  <Rbt.Library>
libRbt.so (2013.1, Build901 2013/11/27)

>  <Rbt.Parameter_File>
/export/apps/rDock/src/rDock_2013.1_src/data/scripts/dock_solv.prm

>  <Rbt.Receptor>
prm/pocket_docking_6.prm

>  <SCORE>
-52.6211

>  <SCORE.INTER>
-52.4098

>  <SCORE.INTER.CONST>
1

>  <SCORE.INTER.POLAR>
-7.85006

>  <SCORE.INTER.ROT>
6

>  <SCORE.INTER.SOLV>
26.7569

>  <SCORE.INTER.VDW>
-25.292

>  <SCORE.INTER.norm>
-1.63781

>  <SCORE.INTRA>
-0.400154

>  <SCORE.INTRA.DIHEDRAL>
0.0706607

>  <SCORE.INTRA.DIHEDRAL.0>
22.9177

>  <SCORE.INTRA.POLAR>
-0.518362

>  <SCORE.INTRA.POLAR.0>
-0.311208

>  <SCORE.INTRA.REPUL>
0

>  <SCORE.INTRA.REPUL.0>
0

>  <SCORE.INTRA.SOLV>
1.3615

>  <SCORE.INTRA.SOLV.lig_0>
-132.657

>  <SCORE.INTRA.VDW>
0.646201

>  <SCORE.INTRA.VDW.0>
-4.68867

>  <SCORE.INTRA.norm>
-0.0125048

>  <SCORE.RESTR>
0.188827

>  <SCORE.RESTR.CAVITY>
0.188827

>  <SCORE.RESTR.norm>
0.00590084

>  <SCORE.SYSTEM>
0

>  <SCORE.SYSTEM.CONST>
0

>  <SCORE.SYSTEM.DIHEDRAL>
0

>  <SCORE.SYSTEM.SOLV>
0

>  <SCORE.SYSTEM.norm>
0

>  <SCORE.heavy>
32

>  <SCORE.norm>
-1.64441

>  <RMSD>
9.386

$$$$
1tob
 OpenBabel11021811413D
libRbt.so/2013.1/901 2013/11/27
 32 34  0  0  0  0  0  0  0  0999 V2000
   -3.7303    4.8207    3.8911 C   0  0  2  0  0  0  0  0  0  0  0  0
   -4.5507    4.3788    2.6816 C   0  0  1  0  0  0  0  0  0  0  0  0
   -4.8356    5.5790    1.7891 C   0  0  2  0  0  0  0  0  0  0  0  0
   -5.5209    6.6667    2.6075 C   0  0  1  0  0  0  0  0  0  0  0  0
   -4.6621    7.0235    3.8176 C   0  0  1  0  0  0  0  0  0  0  0  0
   -5.3274    8.0481    4.7155 C   0  0  0  0  0  0  0  0  0  0  0  0
   -3.8329    3.3965    1.9485 O   0  0  0  0  0  0  0  0  0  0  0  0
   -5.6366    5.1882    0.6088 N   0  3  0  0  0  0  0  0  0  0  0  0
   -5.7287    7.8173    1.7995 O   0  0  0  0  0  0  0  0  0  0  0  0
   -4.4202    5.8457    4.6173 O   0  0  0  0  0  0  0  0  0  0  0  0
   -5.5458    9.2738    4.0313 O   0  0  0  0  0  0  0  0  0  0  0  0
   -0.3875    4.6091    2.5602 C   0  0  2  0  0  0  0  0  0  0  0  0
    0.7987    3.6843    2.7966 C   0  0  0  0  0  0  0  0  0  0  0  0
    1.4704    4.0072    4.1315 C   0  0  1  0  0  0  0  0  0  0  0  0
    0.4648    3.8368    5.2680 C   0  0  2  0  0  0  0  0  0  0  0  0
   -0.7387    4.7534    5.0429 C   0  0  1  0  0  0  0  0  0  0  0  0
   -1.3881    4.4462    3.6940 C   0  0  1  0  0  0  0  0  0  0  0  0
   -1.0616    4.2796    1.2852 N   0  3  0  0  0  0  0  0  0  0  0  0
    2.6751    3.1558    4.3100 N   0  3  0  0  0  0  0  0  0  0  0  0
   -1.6849    4.5715    6.0878 O   0  0  0  0  0  0  0  0  0  0  0  0
   -2.5094    5.3227    3.4809 O   0  0  0  0  0  0  0  0  0  0  0  0
    1.8144    3.1159    7.1181 C   0  0  1  0  0  0  0  0  0  0  0  0
    1.1793    2.7077    8.4485 C   0  0  1  0  0  0  0  0  0  0  0  0
    1.2211    3.8685    9.4309 C   0  0  0  0  0  0  0  0  0  0  0  0
    2.6562    4.3464    9.5808 C   0  0  1  0  0  0  0  0  0  0  0  0
    3.2240    4.7128    8.2101 C   0  0  1  0  0  0  0  0  0  0  0  0
    4.6778    5.1447    8.2756 C   0  0  0  0  0  0  0  0  0  0  0  0
   -0.1981    2.1986    8.2486 N   0  3  0  0  0  0  0  0  0  0  0  0
    5.5575    4.0283    8.6969 N   0  3  0  0  0  0  0  0  0  0  0  0
    1.0862    4.1433    6.5330 O   0  0  0  0  0  0  0  0  0  0  0  0
    2.7045    5.4742   10.4426 O   0  0  0  0  0  0  0  0  0  0  0  0
    3.1561    3.5752    7.3233 O   0  0  0  0  0  0  0  0  0  0  0  0
  1  2  1  0  0  0  0
  1 10  1  0  0  0  0
  1 21  1  6  0  0  0
  2  3  1  0  0  0  0
  2  7  1  6  0  0  0
  3  4  1  0  0  0  0
  3  8  1  6  0  0  0
  4  5  1  0  0  0  0
  4  9  1  6  0  0  0
  5  6  1  1  0  0  0
  5 10  1  0  0  0  0
  6 11  1  0  0  0  0
 12 13  1  0  0  0  0
 12 17  1  0  0  0  0
 12 18  1  6  0  0  0
 13 14  1  0  0  0  0
 14 15  1  0  0  0  0
 14 19  1  1  0  0  0
 15 16  1  0  0  0  0
 15 30  1  1  0  0  0
 16 17  1  0  0  0  0
 16 20  1  1  0  0  0
 17 21  1  6  0  0  0
 22 23  1  0  0  0  0
 22 30  1  1  0  0  0
 22 32  1  0  0  0  0
 23 24  1  0  0  0  0
 23 28  1  6  0  0  0
 24 25  1  0  0  0  0
 25 26  1  0  0  0  0
 25 31  1  1  0  0  0
 26 27  1  1  0  0  0
 26 32  1  0  0  0  0
 27 29  1  0  0  0  0
M  CHG  5   8   1  18   1  19   1  28   1  29   1
M  END
>  <CHROM.1>
-104.56318520,78.43695443,40.56177926,-168.66965590,-61.87872116,-87.22796610
87.93629164,176.72090712,-83.15906532,66.68240737,144.97582466,-116.44284909
-101.32136801,69.82670160,65.49541497,-178.99797037,-0.92229345,4.82058406
5.10120623,2.68918915,0.50779793,-1.98025352

>  <Name>
1tob

>  <RI>
0

>  <Rbt.Current_Directory>
/home/itssahil/PROJECTS/Mol_Feturizer/New_Systems/rnas/1tob

>  <Rbt.Executable>
rbdock ($Id: //depot/dev/client3/rdock/2013.1/src/exe/rbdock.cxx#4 $)

>  <Rbt.Library>
libRbt.so (2013.1, Build901 2013/11/27)

>  <Rbt.Parameter_File>
/export/apps/rDock/src/rDock_2013.1_src/data/scripts/dock_solv.prm

>  <Rbt.Receptor>
prm/pocket_docking_8.prm

>  <SCORE>
-48.4608

>  <SCORE.INTER>
-46.2931

>  <SCORE.INTER.CONST>
1

>  <SCORE.INTER.POLAR>
-6.07873

>  <SCORE.INTER.ROT>
6

>  <SCORE.INTER.SOLV>
20.3946

>  <SCORE.INTER.VDW>
-24.9978

>  <SCORE.INTER.norm>
-1.44666

>  <SCORE.INTRA>
-2.16767

>  <SCORE.INTRA.DIHEDRAL>
8.78648

>  <SCORE.INTRA.DIHEDRAL.0>
22.9177

>  <SCORE.INTRA.POLAR>
-2.37325

>  <SCORE.INTRA.POLAR.0>
-0.311208

>  <SCORE.INTRA.REPUL>
0

>  <SCORE.INTRA.REPUL.0>
0

>  <SCORE.INTRA.SOLV>
0.307464

>  <SCORE.INTRA.SOLV.lig_0>
-132.657

>  <SCORE.INTRA.VDW>
1.3544

>  <SCORE.INTRA.VDW.0>
-4.68867

>  <SCORE.INTRA.norm>
-0.0677397

>  <SCORE.RESTR>
0

>  <SCORE.RESTR.CAVITY>
0

>  <SCORE.RESTR.norm>
0

>  <SCORE.SYSTEM>
0

>  <SCORE.SYSTEM.CONST>
0

>  <SCORE.SYSTEM.DIHEDRAL>
0

>  <SCORE.SYSTEM.SOLV>
0

>  <SCORE.SYSTEM.norm>
0

>  <SCORE.heavy>
32

>  <SCORE.norm>
-1.5144

>  <RMSD>
9.386

$$$$
1tob
 OpenBabel11021811413D
libRbt.so/2013.1/901 2013/11/27
 32 34  0  0  0  0  0  0  0  0999 V2000
   -3.6095    4.2455    3.5913 C   0  0  2  0  0  0  0  0  0  0  0  0
   -4.0717    3.3898    2.4142 C   0  0  1  0  0  0  0  0  0  0  0  0
   -4.2988    4.2740    1.1956 C   0  0  2  0  0  0  0  0  0  0  0  0
   -5.2849    5.3805    1.5502 C   0  0  1  0  0  0  0  0  0  0  0  0
   -4.7749    6.1621    2.7578 C   0  0  1  0  0  0  0  0  0  0  0  0
   -5.7516    7.2306    3.2081 C   0  0  0  0  0  0  0  0  0  0  0  0
   -3.0870    2.4100    2.1180 O   0  0  0  0  0  0  0  0  0  0  0  0
   -4.7554    3.4777    0.0360 N   0  3  0  0  0  0  0  0  0  0  0  0
   -5.4504    6.2513    0.4391 O   0  0  0  0  0  0  0  0  0  0  0  0
   -4.5712    5.2696    3.8746 O   0  0  0  0  0  0  0  0  0  0  0  0
   -5.4729    7.6637    4.5321 O   0  0  0  0  0  0  0  0  0  0  0  0
   -0.1431    4.3032    2.6196 C   0  0  2  0  0  0  0  0  0  0  0  0
    1.0898    3.5003    3.0116 C   0  0  0  0  0  0  0  0  0  0  0  0
    1.5913    3.9303    4.3904 C   0  0  1  0  0  0  0  0  0  0  0  0
    0.4944    3.7078    5.4293 C   0  0  2  0  0  0  0  0  0  0  0  0
   -0.7561    4.5013    5.0472 C   0  0  1  0  0  0  0  0  0  0  0  0
   -1.2355    4.0886    3.6559 C   0  0  1  0  0  0  0  0  0  0  0  0
   -0.6525    3.8685    1.3005 N   0  3  0  0  0  0  0  0  0  0  0  0
    2.8419    3.2001    4.7235 N   0  3  0  0  0  0  0  0  0  0  0  0
   -1.7838    4.2698    6.0012 O   0  0  0  0  0  0  0  0  0  0  0  0
   -2.4021    4.8501    3.2956 O   0  0  0  0  0  0  0  0  0  0  0  0
    0.5015    3.3534    7.8037 C   0  0  1  0  0  0  0  0  0  0  0  0
    0.4670    4.1988    9.0782 C   0  0  1  0  0  0  0  0  0  0  0  0
    1.8709    4.6536    9.4475 C   0  0  0  0  0  0  0  0  0  0  0  0
    2.7761    3.4383    9.5665 C   0  0  1  0  0  0  0  0  0  0  0  0
    2.7385    2.6375    8.2654 C   0  0  1  0  0  0  0  0  0  0  0  0
    3.5766    1.3736    8.3321 C   0  0  0  0  0  0  0  0  0  0  0  0
   -0.4674    5.3404    8.9364 N   0  3  0  0  0  0  0  0  0  0  0  0
    3.3958    0.5376    7.1213 N   0  3  0  0  0  0  0  0  0  0  0  0
    0.9547    4.1144    6.7344 O   0  0  0  0  0  0  0  0  0  0  0  0
    4.1067    3.8497    9.8440 O   0  0  0  0  0  0  0  0  0  0  0  0
    1.3837    2.2362    7.9672 O   0  0  0  0  0  0  0  0  0  0  0  0
  1  2  1  0  0  0  0
  1 10  1  0  0  0  0
  1 21  1  6  0  0  0
  2  3  1  0  0  0  0
  2  7  1  6  0  0  0
  3  4  1  0  0  0  0
  3  8  1  6  0  0  0
  4  5  1  0  0  0  0
  4  9  1  6  0  0  0
  5  6  1  1  0  0  0
  5 10  1  0  0  0  0
  6 11  1  0  0  0  0
 12 13  1  0  0  0  0
 12 17  1  0  0  0  0
 12 18  1  6  0  0  0
 13 14  1  0  0  0  0
 14 15  1  0  0  0  0
 14 19  1  1  0  0  0
 15 16  1  0  0  0  0
 15 30  1  1  0  0  0
 16 17  1  0  0  0  0
 16 20  1  1  0  0  0
 17 21  1  6  0  0  0
 22 23  1  0  0  0  0
 22 30  1  6  0  0  0
 22 32  1  0  0  0  0
 23 24  1  0  0  0  0
 23 28  1  6  0  0  0
 24 25  1  0  0  0  0
 25 26  1  0  0  0  0
 25 31  1  6  0  0  0
 26 27  1  1  0  0  0
 26 32  1  0  0  0  0
 27 29  1  0  0  0  0
M  CHG  5   8   1  18   1  19   1  28   1  29   1
M  END
>  <CHROM.1>
-89.73852839,178.54736126,-7.17792402,32.84788003,162.30083910,-89.76928836
74.41953984,-50.45914420,-144.51466313,70.21519881,144.23472477,-152.89950694
73.81371311,-178.25077623,173.26072608,-159.07677681,-0.97207787,4.10655899
4.92587410,2.59005054,0.54658465,-1.94763759

>  <Name>
1tob

>  <RI>
0

>  <Rbt.Current_Directory>
/home/itssahil/PROJECTS/Mol_Feturizer/New_Systems/rnas/1tob

>  <Rbt.Executable>
rbdock ($Id: //depot/dev/client3/rdock/2013.1/src/exe/rbdock.cxx#4 $)

>  <Rbt.Library>
libRbt.so (2013.1, Build901 2013/11/27)

>  <Rbt.Parameter_File>
/export/apps/rDock/src/rDock_2013.1_src/data/scripts/dock_solv.prm

>  <Rbt.Receptor>
prm/pocket_docking_6.prm

>  <SCORE>
-56.3716

>  <SCORE.INTER>
-61.0537

>  <SCORE.INTER.CONST>
1

>  <SCORE.INTER.POLAR>
-8.95653

>  <SCORE.INTER.ROT>
6

>  <SCORE.INTER.SOLV>
32.0472

>  <SCORE.INTER.VDW>
-29.1298

>  <SCORE.INTER.norm>
-1.90793

>  <SCORE.INTRA>
4.67548

>  <SCORE.INTRA.DIHEDRAL>
7.00377

>  <SCORE.INTRA.DIHEDRAL.0>
22.9177

>  <SCORE.INTRA.POLAR>
-0.569436

>  <SCORE.INTRA.POLAR.0>
-0.311208

>  <SCORE.INTRA.REPUL>
0

>  <SCORE.INTRA.REPUL.0>
0

>  <SCORE.INTRA.SOLV>
3.03442

>  <SCORE.INTRA.SOLV.lig_0>
-132.657

>  <SCORE.INTRA.VDW>
1.59246

>  <SCORE.INTRA.VDW.0>
-4.68867

>  <SCORE.INTRA.norm>
0.146109

>  <SCORE.RESTR>
0.00669615

>  <SCORE.RESTR.CAVITY>
0.00669615

>  <SCORE.RESTR.norm>
0.000209255

>  <SCORE.SYSTEM>
0

>  <SCORE.SYSTEM.CONST>
0

>  <SCORE.SYSTEM.DIHEDRAL>
0

>  <SCORE.SYSTEM.SOLV>
0

>  <SCORE.SYSTEM.norm>
0

>  <SCORE.heavy>
32

>  <SCORE.norm>
-1.76161

>  <RMSD>
9.416

$$$$
1tob
 OpenBabel11021811413D
libRbt.so/2013.1/901 2013/11/27
 32 34  0  0  0  0  0  0  0  0999 V2000
   -3.6055    4.0399    3.6586 C   0  0  2  0  0  0  0  0  0  0  0  0
   -4.4260    4.2825    2.3940 C   0  0  1  0  0  0  0  0  0  0  0  0
   -4.2281    5.7164    1.9216 C   0  0  2  0  0  0  0  0  0  0  0  0
   -4.5809    6.6748    3.0527 C   0  0  1  0  0  0  0  0  0  0  0  0
   -3.7524    6.3431    4.2908 C   0  0  1  0  0  0  0  0  0  0  0  0
   -4.1135    7.2148    5.4775 C   0  0  0  0  0  0  0  0  0  0  0  0
   -4.0147    3.3818    1.3756 O   0  0  0  0  0  0  0  0  0  0  0  0
   -5.0158    5.9895    0.7001 N   0  3  0  0  0  0  0  0  0  0  0  0
   -4.3335    8.0133    2.6436 O   0  0  0  0  0  0  0  0  0  0  0  0
   -3.9759    4.9714    4.6828 O   0  0  0  0  0  0  0  0  0  0  0  0
   -3.0896    7.2011    6.4621 O   0  0  0  0  0  0  0  0  0  0  0  0
   -0.4503    2.6383    2.9976 C   0  0  2  0  0  0  0  0  0  0  0  0
    0.4655    1.6315    3.6800 C   0  0  0  0  0  0  0  0  0  0  0  0
    1.2713    2.3081    4.7893 C   0  0  1  0  0  0  0  0  0  0  0  0
    0.3208    2.9060    5.8241 C   0  0  2  0  0  0  0  0  0  0  0  0
   -0.6133    3.9151    5.1543 C   0  0  1  0  0  0  0  0  0  0  0  0
   -1.3942    3.2404    4.0271 C   0  0  1  0  0  0  0  0  0  0  0  0
   -1.2567    1.9823    1.9451 N   0  3  0  0  0  0  0  0  0  0  0  0
    2.2209    1.3353    5.3893 N   0  3  0  0  0  0  0  0  0  0  0  0
   -1.5147    4.4487    6.1150 O   0  0  0  0  0  0  0  0  0  0  0  0
   -2.2588    4.1985    3.3904 O   0  0  0  0  0  0  0  0  0  0  0  0
    0.4193    3.6821    8.0938 C   0  0  1  0  0  0  0  0  0  0  0  0
    1.4253    4.0123    9.1978 C   0  0  1  0  0  0  0  0  0  0  0  0
    2.4163    2.8705    9.3671 C   0  0  0  0  0  0  0  0  0  0  0  0
    1.6548    1.5806    9.6252 C   0  0  1  0  0  0  0  0  0  0  0  0
    0.6585    1.3340    8.4929 C   0  0  1  0  0  0  0  0  0  0  0  0
   -0.1815    0.0891    8.7137 C   0  0  0  0  0  0  0  0  0  0  0  0
    2.1046    5.3025    8.9327 N   0  3  0  0  0  0  0  0  0  0  0  0
   -0.5781   -0.0534   10.1350 N   0  3  0  0  0  0  0  0  0  0  0  0
    1.0699    3.5515    6.8741 O   0  0  0  0  0  0  0  0  0  0  0  0
    2.5621    0.4919    9.7179 O   0  0  0  0  0  0  0  0  0  0  0  0
   -0.2522    2.4491    8.3802 O   0  0  0  0  0  0  0  0  0  0  0  0
  1  2  1  0  0  0  0
  1 10  1  0  0  0  0
  1 21  1  6  0  0  0
  2  3  1  0  0  0  0
  2  7  1  6  0  0  0
  3  4  1  0  0  0  0
  3  8  1  6  0  0  0
  4  5  1  0  0  0  0
  4  9  1  6  0  0  0
  5  6  1  1  0  0  0
  5 10  1  0  0  0  0
  6 11  1  0  0  0  0
 12 13  1  0  0  0  0
 12 17  1  0  0  0  0
 12 18  1  6  0  0  0
 13 14  1  0  0  0  0
 14 15  1  0  0  0  0
 14 19  1  1  0  0  0
 15 16  1  0  0  0  0
 15 30  1  1  0  0  0
 16 17  1  0  0  0  0
 16 20  1  1  0  0  0
 17 21  1  6  0  0  0
 22 23  1  0  0  0  0
 22 30  1  6  0  0  0
 22 32  1  0  0  0  0
 23 24  1  0  0  0  0
 23 28  1  6  0  0  0
 24 25  1  0  0  0  0
 25 26  1  0  0  0  0
 25 31  1  6  0  0  0
 26 27  1  1  0  0  0
 26 32  1  0  0  0  0
 27 29  1  0  0  0  0
M  CHG  5   8   1  18   1  19   1  28   1  29   1
M  END
>  <CHROM.1>
-139.75806568,90.27544150,59.44576236,179.66156262,-161.55269666,-45.55654857
164.20943450,179.84828253,-156.29712819,-21.59795459,129.96349517,164.31572296
-51.11138719,55.60341612,39.60433014,33.01419288,-1.16754540,3.68282895,5.55240521
-2.82374871,-0.88347718,0.95632614

>  <Name>
1tob

>  <RI>
0

>  <Rbt.Current_Directory>
/home/itssahil/PROJECTS/Mol_Feturizer/New_Systems/rnas/1tob

>  <Rbt.Executable>
rbdock ($Id: //depot/dev/client3/rdock/2013.1/src/exe/rbdock.cxx#4 $)

>  <Rbt.Library>
libRbt.so (2013.1, Build901 2013/11/27)

>  <Rbt.Parameter_File>
/export/apps/rDock/src/rDock_2013.1_src/data/scripts/dock_solv.prm

>  <Rbt.Receptor>
prm/pocket_docking_8.prm

>  <SCORE>
-41.5722

>  <SCORE.INTER>
-38.4421

>  <SCORE.INTER.CONST>
1

>  <SCORE.INTER.POLAR>
-4.15495

>  <SCORE.INTER.ROT>
6

>  <SCORE.INTER.SOLV>
27.4007

>  <SCORE.INTER.VDW>
-28.5118

>  <SCORE.INTER.norm>
-1.20132

>  <SCORE.INTRA>
-3.13009

>  <SCORE.INTRA.DIHEDRAL>
7.40507

>  <SCORE.INTRA.DIHEDRAL.0>
22.9177

>  <SCORE.INTRA.POLAR>
-2.09402

>  <SCORE.INTRA.POLAR.0>
-0.311208

>  <SCORE.INTRA.REPUL>
0

>  <SCORE.INTRA.REPUL.0>
0

>  <SCORE.INTRA.SOLV>
-2.02079

>  <SCORE.INTRA.SOLV.lig_0>
-132.657

>  <SCORE.INTRA.VDW>
1.29745

>  <SCORE.INTRA.VDW.0>
-4.68867

>  <SCORE.INTRA.norm>
-0.0978152

>  <SCORE.RESTR>
0

>  <SCORE.RESTR.CAVITY>
0

>  <SCORE.RESTR.norm>
0

>  <SCORE.SYSTEM>
0

>  <SCORE.SYSTEM.CONST>
0

>  <SCORE.SYSTEM.DIHEDRAL>
0

>  <SCORE.SYSTEM.SOLV>
0

>  <SCORE.SYSTEM.norm>
0

>  <SCORE.heavy>
32

>  <SCORE.norm>
-1.29913

>  <RMSD>
9.426

$$$$
1tob
 OpenBabel11021811413D
libRbt.so/2013.1/901 2013/11/27
 32 34  0  0  0  0  0  0  0  0999 V2000
   -2.3811    7.1554    5.7434 C   0  0  2  0  0  0  0  0  0  0  0  0
   -3.6684    7.9690    5.6334 C   0  0  1  0  0  0  0  0  0  0  0  0
   -4.5598    7.3746    4.5515 C   0  0  2  0  0  0  0  0  0  0  0  0
   -3.7862    7.3050    3.2403 C   0  0  1  0  0  0  0  0  0  0  0  0
   -2.4964    6.5141    3.4408 C   0  0  1  0  0  0  0  0  0  0  0  0
   -1.6430    6.4746    2.1883 C   0  0  0  0  0  0  0  0  0  0  0  0
   -4.3522    7.9551    6.8783 O   0  0  0  0  0  0  0  0  0  0  0  0
   -5.8152    8.1439    4.4121 N   0  3  0  0  0  0  0  0  0  0  0  0
   -4.5873    6.6881    2.2415 O   0  0  0  0  0  0  0  0  0  0  0  0
   -1.7010    7.1205    4.4824 O   0  0  0  0  0  0  0  0  0  0  0  0
   -1.2664    7.7806    1.7755 O   0  0  0  0  0  0  0  0  0  0  0  0
   -1.1836    4.5417    7.5068 C   0  0  2  0  0  0  0  0  0  0  0  0
   -0.0049    3.5788    7.4649 C   0  0  0  0  0  0  0  0  0  0  0  0
   -0.3561    2.3397    6.6411 C   0  0  1  0  0  0  0  0  0  0  0  0
   -0.7182    2.7544    5.2168 C   0  0  2  0  0  0  0  0  0  0  0  0
   -1.8967    3.7291    5.2398 C   0  0  1  0  0  0  0  0  0  0  0  0
   -1.5507    4.9518    6.0890 C   0  0  1  0  0  0  0  0  0  0  0  0
   -0.8384    5.7578    8.2752 N   0  3  0  0  0  0  0  0  0  0  0  0
    0.7707    1.3717    6.6789 N   0  3  0  0  0  0  0  0  0  0  0  0
   -2.2127    4.1344    3.9147 O   0  0  0  0  0  0  0  0  0  0  0  0
   -2.6690    5.8569    6.1202 O   0  0  0  0  0  0  0  0  0  0  0  0
   -0.6778    1.6316    3.0951 C   0  0  1  0  0  0  0  0  0  0  0  0
   -0.4035    0.2170    2.5817 C   0  0  1  0  0  0  0  0  0  0  0  0
    0.7653   -0.4001    3.3349 C   0  0  0  0  0  0  0  0  0  0  0  0
    1.9731    0.5159    3.2227 C   0  0  1  0  0  0  0  0  0  0  0  0
    1.6124    1.9104    3.7334 C   0  0  1  0  0  0  0  0  0  0  0  0
    2.7574    2.8975    3.5969 C   0  0  0  0  0  0  0  0  0  0  0  0
   -1.6209   -0.6246    2.6597 N   0  3  0  0  0  0  0  0  0  0  0  0
    3.2932    2.9201    2.2148 N   0  3  0  0  0  0  0  0  0  0  0  0
   -1.0560    1.5933    4.4306 O   0  0  0  0  0  0  0  0  0  0  0  0
    3.0540   -0.0119    3.9776 O   0  0  0  0  0  0  0  0  0  0  0  0
    0.4987    2.4420    2.9834 O   0  0  0  0  0  0  0  0  0  0  0  0
  1  2  1  0  0  0  0
  1 10  1  0  0  0  0
  1 21  1  6  0  0  0
  2  3  1  0  0  0  0
  2  7  1  1  0  0  0
  3  4  1  0  0  0  0
  3  8  1  6  0  0  0
  4  5  1  0  0  0  0
  4  9  1  6  0  0  0
  5  6  1  6  0  0  0
  5 10  1  0  0  0  0
  6 11  1  0  0  0  0
 12 13  1  0  0  0  0
 12 17  1  0  0  0  0
 12 18  1  1  0  0  0
 13 14  1  0  0  0  0
 14 15  1  0  0  0  0
 14 19  1  6  0  0  0
 15 16  1  0  0  0  0
 15 30  1  6  0  0  0
 16 17  1  0  0  0  0
 16 20  1  6  0  0  0
 17 21  1  1  0  0  0
 22 23  1  0  0  0  0
 22 30  1  1  0  0  0
 22 32  1  0  0  0  0
 23 24  1  0  0  0  0
 23 28  1  1  0  0  0
 24 25  1  0  0  0  0
 25 26  1  0  0  0  0
 25 31  1  1  0  0  0
 26 27  1  6  0  0  0
 26 32  1  0  0  0  0
 27 29  1  0  0  0  0
M  CHG  5   8   1  18   1  19   1  28   1  29   1
M  END
>  <CHROM.1>
172.34727552,-173.84433768,151.14459787,-53.60045999,60.05699491,-172.12599611
23.57230975,70.59402809,-144.72123328,61.26027883,111.63784889,150.46559772
-81.97624851,68.06626156,52.38073445,-38.63392852,-1.15594951,4.15542401
4.46372393,-2.95111015,0.91399496,-1.65364669

>  <Name>
1tob

>  <RI>
0

>  <Rbt.Current_Directory>
/home/itssahil/PROJECTS/Mol_Feturizer/New_Systems/rnas/1tob

>  <Rbt.Executable>
rbdock ($Id: //depot/dev/client3/rdock/2013.1/src/exe/rbdock.cxx#4 $)

>  <Rbt.Library>
libRbt.so (2013.1, Build901 2013/11/27)

>  <Rbt.Parameter_File>
/export/apps/rDock/src/rDock_2013.1_src/data/scripts/dock_solv.prm

>  <Rbt.Receptor>
prm/blind_docking_40.prm

>  <SCORE>
21.2065

>  <SCORE.INTER>
9.3052

>  <SCORE.INTER.CONST>
1

>  <SCORE.INTER.POLAR>
-4.8881

>  <SCORE.INTER.ROT>
6

>  <SCORE.INTER.SOLV>
41.4802

>  <SCORE.INTER.VDW>
1.07042

>  <SCORE.INTER.norm>
0.290788

>  <SCORE.INTRA>
6.67436

>  <SCORE.INTRA.DIHEDRAL>
-0.0548925

>  <SCORE.INTRA.DIHEDRAL.0>
22.9177

>  <SCORE.INTRA.POLAR>
0.295067

>  <SCORE.INTRA.POLAR.0>
-0.311208

>  <SCORE.INTRA.REPUL>
0

>  <SCORE.INTRA.REPUL.0>
0

>  <SCORE.INTRA.SOLV>
-0.306149

>  <SCORE.INTRA.SOLV.lig_0>
-132.657

>  <SCORE.INTRA.VDW>
5.85165

>  <SCORE.INTRA.VDW.0>
-4.68867

>  <SCORE.INTRA.norm>
0.208574

>  <SCORE.RESTR>
5.22697

>  <SCORE.RESTR.CAVITY>
5.22697

>  <SCORE.RESTR.norm>
0.163343

>  <SCORE.SYSTEM>
0

>  <SCORE.SYSTEM.CONST>
0

>  <SCORE.SYSTEM.DIHEDRAL>
0

>  <SCORE.SYSTEM.SOLV>
0

>  <SCORE.SYSTEM.norm>
0

>  <SCORE.heavy>
32

>  <SCORE.norm>
0.662704

>  <RMSD>
9.477

$$$$
1tob
 OpenBabel11021811413D
libRbt.so/2013.1/901 2013/11/27
 32 34  0  0  0  0  0  0  0  0999 V2000
   -3.3087    3.9374    3.7571 C   0  0  2  0  0  0  0  0  0  0  0  0
   -4.2203    3.4903    2.6168 C   0  0  1  0  0  0  0  0  0  0  0  0
   -4.6275    4.6972    1.7827 C   0  0  2  0  0  0  0  0  0  0  0  0
   -5.2728    5.7417    2.6856 C   0  0  1  0  0  0  0  0  0  0  0  0
   -4.3200    6.1052    3.8211 C   0  0  1  0  0  0  0  0  0  0  0  0
   -4.9359    7.0857    4.7998 C   0  0  0  0  0  0  0  0  0  0  0  0
   -3.5386    2.5506    1.7984 O   0  0  0  0  0  0  0  0  0  0  0  0
   -5.5189    4.3015    0.6709 N   0  3  0  0  0  0  0  0  0  0  0  0
   -5.5938    6.9003    1.9275 O   0  0  0  0  0  0  0  0  0  0  0  0
   -3.9648    4.9210    4.5671 O   0  0  0  0  0  0  0  0  0  0  0  0
   -5.2399    8.3234    4.1724 O   0  0  0  0  0  0  0  0  0  0  0  0
    0.1740    4.0944    2.6977 C   0  0  2  0  0  0  0  0  0  0  0  0
    1.4622    3.4657    3.2109 C   0  0  0  0  0  0  0  0  0  0  0  0
    1.8722    4.0975    4.5414 C   0  0  1  0  0  0  0  0  0  0  0  0
    0.7651    3.8898    5.5724 C   0  0  2  0  0  0  0  0  0  0  0  0
   -0.5401    4.5087    5.0697 C   0  0  1  0  0  0  0  0  0  0  0  0
   -0.9292    3.8946    3.7254 C   0  0  1  0  0  0  0  0  0  0  0  0
   -0.2454    3.4640    1.4268 N   0  3  0  0  0  0  0  0  0  0  0  0
    3.1734    3.5357    4.9879 N   0  3  0  0  0  0  0  0  0  0  0  0
   -1.5746    4.2890    6.0193 O   0  0  0  0  0  0  0  0  0  0  0  0
   -2.1488    4.4926    3.2500 O   0  0  0  0  0  0  0  0  0  0  0  0
    0.9198    3.7093    7.9614 C   0  0  1  0  0  0  0  0  0  0  0  0
    0.7358    4.6018    9.1900 C   0  0  1  0  0  0  0  0  0  0  0  0
    2.0057    5.3944    9.4611 C   0  0  0  0  0  0  0  0  0  0  0  0
    3.1762    4.4341    9.5958 C   0  0  1  0  0  0  0  0  0  0  0  0
    3.2787    3.5663    8.3421 C   0  0  1  0  0  0  0  0  0  0  0  0
    4.3936    2.5399    8.4307 C   0  0  0  0  0  0  0  0  0  0  0  0
   -0.4466    5.4823    9.0379 N   0  3  0  0  0  0  0  0  0  0  0  0
    4.0927    1.4970    9.4404 N   0  3  0  0  0  0  0  0  0  0  0  0
    1.1388    4.4860    6.8315 O   0  0  0  0  0  0  0  0  0  0  0  0
    4.3817    5.1616    9.7814 O   0  0  0  0  0  0  0  0  0  0  0  0
    2.0466    2.8416    8.1366 O   0  0  0  0  0  0  0  0  0  0  0  0
  1  2  1  0  0  0  0
  1 10  1  0  0  0  0
  1 21  1  6  0  0  0
  2  3  1  0  0  0  0
  2  7  1  6  0  0  0
  3  4  1  0  0  0  0
  3  8  1  6  0  0  0
  4  5  1  0  0  0  0
  4  9  1  6  0  0  0
  5  6  1  1  0  0  0
  5 10  1  0  0  0  0
  6 11  1  0  0  0  0
 12 13  1  0  0  0  0
 12 17  1  0  0  0  0
 12 18  1  6  0  0  0
 13 14  1  0  0  0  0
 14 15  1  0  0  0  0
 14 19  1  1  0  0  0
 15 16  1  0  0  0  0
 15 30  1  1  0  0  0
 16 17  1  0  0  0  0
 16 20  1  1  0  0  0
 17 21  1  6  0  0  0
 22 23  1  0  0  0  0
 22 30  1  6  0  0  0
 22 32  1  0  0  0  0
 23 24  1  0  0  0  0
 23 28  1  6  0  0  0
 24 25  1  0  0  0  0
 25 26  1  0  0  0  0
 25 31  1  6  0  0  0
 26 27  1  1  0  0  0
 26 32  1  0  0  0  0
 27 29  1  0  0  0  0
M  CHG  5   8   1  18   1  19   1  28   1  29   1
M  END
>  <CHROM.1>
-124.78114708,166.85784026,149.45372326,76.56144287,-62.77786424,-62.37949992
169.33288610,176.81375078,-134.24081926,-50.64859099,153.99730842,-154.23047011
73.06725200,-60.54801332,68.54817351,-55.21001605,-0.73288380,4.42422088
5.27401497,-2.62903508,-0.49031035,1.12397228

>  <Name>
1tob

>  <RI>
0

>  <Rbt.Current_Directory>
/home/itssahil/PROJECTS/Mol_Feturizer/New_Systems/rnas/1tob

>  <Rbt.Executable>
rbdock ($Id: //depot/dev/client3/rdock/2013.1/src/exe/rbdock.cxx#4 $)

>  <Rbt.Library>
libRbt.so (2013.1, Build901 2013/11/27)

>  <Rbt.Parameter_File>
/export/apps/rDock/src/rDock_2013.1_src/data/scripts/dock_solv.prm

>  <Rbt.Receptor>
prm/pocket_docking_7.prm

>  <SCORE>
-59.2659

>  <SCORE.INTER>
-60.5394

>  <SCORE.INTER.CONST>
1

>  <SCORE.INTER.POLAR>
-8.30308

>  <SCORE.INTER.ROT>
6

>  <SCORE.INTER.SOLV>
31.4421

>  <SCORE.INTER.VDW>
-30.7633

>  <SCORE.INTER.norm>
-1.89186

>  <SCORE.INTRA>
1.27342

>  <SCORE.INTRA.DIHEDRAL>
1.49615

>  <SCORE.INTRA.DIHEDRAL.0>
22.9177

>  <SCORE.INTRA.POLAR>
0.268515

>  <SCORE.INTRA.POLAR.0>
-0.311208

>  <SCORE.INTRA.REPUL>
0

>  <SCORE.INTRA.REPUL.0>
0

>  <SCORE.INTRA.SOLV>
-0.499066

>  <SCORE.INTRA.SOLV.lig_0>
-132.657

>  <SCORE.INTRA.VDW>
-0.13807

>  <SCORE.INTRA.VDW.0>
-4.68867

>  <SCORE.INTRA.norm>
0.0397945

>  <SCORE.RESTR>
0

>  <SCORE.RESTR.CAVITY>
0

>  <SCORE.RESTR.norm>
0

>  <SCORE.SYSTEM>
0

>  <SCORE.SYSTEM.CONST>
0

>  <SCORE.SYSTEM.DIHEDRAL>
0

>  <SCORE.SYSTEM.SOLV>
0

>  <SCORE.SYSTEM.norm>
0

>  <SCORE.heavy>
32

>  <SCORE.norm>
-1.85206

>  <RMSD>
9.480

$$$$
1tob
 OpenBabel11021811413D
libRbt.so/2013.1/901 2013/11/27
 32 34  0  0  0  0  0  0  0  0999 V2000
   -2.9688    3.8114    3.7648 C   0  0  2  0  0  0  0  0  0  0  0  0
   -3.7778    3.1597    2.6459 C   0  0  1  0  0  0  0  0  0  0  0  0
   -4.0330    4.1744    1.5397 C   0  0  2  0  0  0  0  0  0  0  0  0
   -4.7147    5.4038    2.1283 C   0  0  1  0  0  0  0  0  0  0  0  0
   -3.8685    5.9717    3.2644 C   0  0  1  0  0  0  0  0  0  0  0  0
   -4.5322    7.1537    3.9433 C   0  0  0  0  0  0  0  0  0  0  0  0
   -3.0634    2.0495    2.1218 O   0  0  0  0  0  0  0  0  0  0  0  0
   -4.8224    3.5782    0.4402 N   0  3  0  0  0  0  0  0  0  0  0  0
   -4.8947    6.3848    1.1158 O   0  0  0  0  0  0  0  0  0  0  0  0
   -3.6547    4.9620    4.2744 O   0  0  0  0  0  0  0  0  0  0  0  0
   -5.2280    6.7552    5.1159 O   0  0  0  0  0  0  0  0  0  0  0  0
    0.5663    3.5255    2.9915 C   0  0  2  0  0  0  0  0  0  0  0  0
    1.7614    2.9130    3.7091 C   0  0  0  0  0  0  0  0  0  0  0  0
    2.1575    3.7680    4.9131 C   0  0  1  0  0  0  0  0  0  0  0  0
    0.9829    3.8651    5.8840 C   0  0  2  0  0  0  0  0  0  0  0  0
   -0.2305    4.4715    5.1775 C   0  0  1  0  0  0  0  0  0  0  0  0
   -0.6036    3.6294    3.9579 C   0  0  1  0  0  0  0  0  0  0  0  0
    0.1577    2.6849    1.8449 N   0  3  0  0  0  0  0  0  0  0  0  0
    3.3752    3.2061    5.5532 N   0  3  0  0  0  0  0  0  0  0  0  0
   -1.3297    4.5344    6.0763 O   0  0  0  0  0  0  0  0  0  0  0  0
   -1.7352    4.2141    3.2883 O   0  0  0  0  0  0  0  0  0  0  0  0
    1.4926    3.9976    8.2263 C   0  0  1  0  0  0  0  0  0  0  0  0
    1.1071    4.9060    9.3952 C   0  0  1  0  0  0  0  0  0  0  0  0
    2.0432    6.1033    9.4636 C   0  0  0  0  0  0  0  0  0  0  0  0
    3.4795    5.6122    9.5430 C   0  0  1  0  0  0  0  0  0  0  0  0
    3.7783    4.6968    8.3562 C   0  0  1  0  0  0  0  0  0  0  0  0
    5.1817    4.1201    8.4012 C   0  0  0  0  0  0  0  0  0  0  0  0
   -0.3141    5.3166    9.3060 N   0  3  0  0  0  0  0  0  0  0  0  0
    5.2180    2.8366    9.1421 N   0  3  0  0  0  0  0  0  0  0  0  0
    1.3435    4.6737    7.0227 O   0  0  0  0  0  0  0  0  0  0  0  0
    4.3711    6.7176    9.5388 O   0  0  0  0  0  0  0  0  0  0  0  0
    2.8592    3.5830    8.3435 O   0  0  0  0  0  0  0  0  0  0  0  0
  1  2  1  0  0  0  0
  1 10  1  0  0  0  0
  1 21  1  6  0  0  0
  2  3  1  0  0  0  0
  2  7  1  6  0  0  0
  3  4  1  0  0  0  0
  3  8  1  6  0  0  0
  4  5  1  0  0  0  0
  4  9  1  6  0  0  0
  5  6  1  1  0  0  0
  5 10  1  0  0  0  0
  6 11  1  0  0  0  0
 12 13  1  0  0  0  0
 12 17  1  0  0  0  0
 12 18  1  6  0  0  0
 13 14  1  0  0  0  0
 14 15  1  0  0  0  0
 14 19  1  1  0  0  0
 15 16  1  0  0  0  0
 15 30  1  1  0  0  0
 16 17  1  0  0  0  0
 16 20  1  1  0  0  0
 17 21  1  6  0  0  0
 22 23  1  0  0  0  0
 22 30  1  6  0  0  0
 22 32  1  0  0  0  0
 23 24  1  0  0  0  0
 23 28  1  6  0  0  0
 24 25  1  0  0  0  0
 25 26  1  0  0  0  0
 25 31  1  6  0  0  0
 26 27  1  1  0  0  0
 26 32  1  0  0  0  0
 27 29  1  0  0  0  0
M  CHG  5   8   1  18   1  19   1  28   1  29   1
M  END
>  <CHROM.1>
-121.02740351,-174.87039706,-62.63570653,79.53255760,96.63602538,-55.20928298
139.00591449,25.14292095,-109.83517378,-50.70276644,150.56272597,-148.81453399
-179.43456765,51.28718184,89.60735786,-35.39225503,-0.33318184,4.45154531
5.31894129,-2.56658920,-0.42790342,1.01849342

>  <Name>
1tob

>  <RI>
0

>  <Rbt.Current_Directory>
/home/itssahil/PROJECTS/Mol_Feturizer/New_Systems/rnas/1tob

>  <Rbt.Executable>
rbdock ($Id: //depot/dev/client3/rdock/2013.1/src/exe/rbdock.cxx#4 $)

>  <Rbt.Library>
libRbt.so (2013.1, Build901 2013/11/27)

>  <Rbt.Parameter_File>
/export/apps/rDock/src/rDock_2013.1_src/data/scripts/dock_solv.prm

>  <Rbt.Receptor>
prm/pocket_docking_7.prm

>  <SCORE>
-48.7573

>  <SCORE.INTER>
-55.2895

>  <SCORE.INTER.CONST>
1

>  <SCORE.INTER.POLAR>
-8.01771

>  <SCORE.INTER.ROT>
6

>  <SCORE.INTER.SOLV>
34.377

>  <SCORE.INTER.VDW>
-29.193

>  <SCORE.INTER.norm>
-1.7278

>  <SCORE.INTRA>
6.53219

>  <SCORE.INTRA.DIHEDRAL>
13.4553

>  <SCORE.INTRA.DIHEDRAL.0>
22.9177

>  <SCORE.INTRA.POLAR>
-0.677811

>  <SCORE.INTRA.POLAR.0>
-0.311208

>  <SCORE.INTRA.REPUL>
0

>  <SCORE.INTRA.REPUL.0>
0

>  <SCORE.INTRA.SOLV>
1.55153

>  <SCORE.INTRA.SOLV.lig_0>
-132.657

>  <SCORE.INTRA.VDW>
1.33334

>  <SCORE.INTRA.VDW.0>
-4.68867

>  <SCORE.INTRA.norm>
0.204131

>  <SCORE.RESTR>
0

>  <SCORE.RESTR.CAVITY>
0

>  <SCORE.RESTR.norm>
0

>  <SCORE.SYSTEM>
0

>  <SCORE.SYSTEM.CONST>
0

>  <SCORE.SYSTEM.DIHEDRAL>
0

>  <SCORE.SYSTEM.SOLV>
0

>  <SCORE.SYSTEM.norm>
0

>  <SCORE.heavy>
32

>  <SCORE.norm>
-1.52367

>  <RMSD>
9.485

$$$$
1tob
 OpenBabel11021811413D
libRbt.so/2013.1/901 2013/11/27
 32 34  0  0  0  0  0  0  0  0999 V2000
   -3.2749    4.2296    3.3369 C   0  0  2  0  0  0  0  0  0  0  0  0
   -4.0138    4.3694    2.0081 C   0  0  1  0  0  0  0  0  0  0  0  0
   -4.2408    5.8432    1.7002 C   0  0  2  0  0  0  0  0  0  0  0  0
   -4.9794    6.4949    2.8631 C   0  0  1  0  0  0  0  0  0  0  0  0
   -4.2023    6.2769    4.1583 C   0  0  1  0  0  0  0  0  0  0  0  0
   -4.9261    6.8371    5.3670 C   0  0  0  0  0  0  0  0  0  0  0  0
   -3.2484    3.7756    0.9692 O   0  0  0  0  0  0  0  0  0  0  0  0
   -4.9623    6.0162    0.4208 N   0  3  0  0  0  0  0  0  0  0  0  0
   -5.1350    7.8857    2.6148 O   0  0  0  0  0  0  0  0  0  0  0  0
   -4.0120    4.8643    4.3894 O   0  0  0  0  0  0  0  0  0  0  0  0
   -5.2774    8.2002    5.1757 O   0  0  0  0  0  0  0  0  0  0  0  0
    0.2095    4.0664    2.7386 C   0  0  2  0  0  0  0  0  0  0  0  0
    1.3637    3.2202    3.2581 C   0  0  0  0  0  0  0  0  0  0  0  0
    1.8371    3.7383    4.6164 C   0  0  1  0  0  0  0  0  0  0  0  0
    0.6846    3.6865    5.6169 C   0  0  2  0  0  0  0  0  0  0  0  0
   -0.4882    4.5255    5.1072 C   0  0  1  0  0  0  0  0  0  0  0  0
   -0.9378    4.0219    3.7361 C   0  0  1  0  0  0  0  0  0  0  0  0
   -0.2745    3.5497    1.4397 N   0  3  0  0  0  0  0  0  0  0  0  0
    3.0167    2.9578    5.0718 N   0  3  0  0  0  0  0  0  0  0  0  0
   -1.5689    4.4521    6.0275 O   0  0  0  0  0  0  0  0  0  0  0  0
   -2.0303    4.8254    3.2548 O   0  0  0  0  0  0  0  0  0  0  0  0
    0.6679    3.4685    8.0078 C   0  0  1  0  0  0  0  0  0  0  0  0
    0.5029    4.4051    9.2059 C   0  0  1  0  0  0  0  0  0  0  0  0
    1.8473    4.9970    9.6017 C   0  0  0  0  0  0  0  0  0  0  0  0
    2.8338    3.8701    9.8614 C   0  0  1  0  0  0  0  0  0  0  0  0
    2.9251    2.9700    8.6297 C   0  0  1  0  0  0  0  0  0  0  0  0
    3.8511    1.7855    8.8383 C   0  0  0  0  0  0  0  0  0  0  0  0
   -0.5059    5.4547    8.9281 N   0  3  0  0  0  0  0  0  0  0  0  0
    3.8961    0.9137    7.6401 N   0  3  0  0  0  0  0  0  0  0  0  0
    1.1183    4.1774    6.9020 O   0  0  0  0  0  0  0  0  0  0  0  0
    4.1132    4.4059   10.1658 O   0  0  0  0  0  0  0  0  0  0  0  0
    1.6218    2.4408    8.3028 O   0  0  0  0  0  0  0  0  0  0  0  0
  1  2  1  0  0  0  0
  1 10  1  0  0  0  0
  1 21  1  6  0  0  0
  2  3  1  0  0  0  0
  2  7  1  6  0  0  0
  3  4  1  0  0  0  0
  3  8  1  6  0  0  0
  4  5  1  0  0  0  0
  4  9  1  6  0  0  0
  5  6  1  1  0  0  0
  5 10  1  0  0  0  0
  6 11  1  0  0  0  0
 12 13  1  0  0  0  0
 12 17  1  0  0  0  0
 12 18  1  6  0  0  0
 13 14  1  0  0  0  0
 14 15  1  0  0  0  0
 14 19  1  1  0  0  0
 15 16  1  0  0  0  0
 15 30  1  1  0  0  0
 16 17  1  0  0  0  0
 16 20  1  1  0  0  0
 17 21  1  6  0  0  0
 22 23  1  0  0  0  0
 22 30  1  6  0  0  0
 22 32  1  0  0  0  0
 23 24  1  0  0  0  0
 23 28  1  6  0  0  0
 24 25  1  0  0  0  0
 25 26  1  0  0  0  0
 25 31  1  6  0  0  0
 26 27  1  1  0  0  0
 26 32  1  0  0  0  0
 27 29  1  0  0  0  0
M  CHG  5   8   1  18   1  19   1  28   1  29   1
M  END
>  <CHROM.1>
-131.51370132,-176.38640766,-62.61416123,68.64838711,-53.14178804,-66.49992619
-78.32935301,-55.56688273,-138.57680205,-47.39651804,133.58629575,-148.90266263
-45.48171744,176.94034988,178.68422099,-49.51121740,-0.75108865,4.47033334
5.28574960,-2.61719602,-0.56451773,1.25406688

>  <Name>
1tob

>  <RI>
0

>  <Rbt.Current_Directory>
/home/itssahil/PROJECTS/Mol_Feturizer/New_Systems/rnas/1tob

>  <Rbt.Executable>
rbdock ($Id: //depot/dev/client3/rdock/2013.1/src/exe/rbdock.cxx#4 $)

>  <Rbt.Library>
libRbt.so (2013.1, Build901 2013/11/27)

>  <Rbt.Parameter_File>
/export/apps/rDock/src/rDock_2013.1_src/data/scripts/dock_solv.prm

>  <Rbt.Receptor>
prm/pocket_docking_7.prm

>  <SCORE>
-51.915

>  <SCORE.INTER>
-51.2032

>  <SCORE.INTER.CONST>
1

>  <SCORE.INTER.POLAR>
-6.92045

>  <SCORE.INTER.ROT>
6

>  <SCORE.INTER.SOLV>
26.7666

>  <SCORE.INTER.VDW>
-27.5895

>  <SCORE.INTER.norm>
-1.6001

>  <SCORE.INTRA>
-0.71181

>  <SCORE.INTRA.DIHEDRAL>
2.48979

>  <SCORE.INTRA.DIHEDRAL.0>
22.9177

>  <SCORE.INTRA.POLAR>
-0.912439

>  <SCORE.INTRA.POLAR.0>
-0.311208

>  <SCORE.INTRA.REPUL>
0

>  <SCORE.INTRA.REPUL.0>
0

>  <SCORE.INTRA.SOLV>
3.4121

>  <SCORE.INTRA.SOLV.lig_0>
-132.657

>  <SCORE.INTRA.VDW>
-0.560459

>  <SCORE.INTRA.VDW.0>
-4.68867

>  <SCORE.INTRA.norm>
-0.0222441

>  <SCORE.RESTR>
0

>  <SCORE.RESTR.CAVITY>
0

>  <SCORE.RESTR.norm>
0

>  <SCORE.SYSTEM>
0

>  <SCORE.SYSTEM.CONST>
0

>  <SCORE.SYSTEM.DIHEDRAL>
0

>  <SCORE.SYSTEM.SOLV>
0

>  <SCORE.SYSTEM.norm>
0

>  <SCORE.heavy>
32

>  <SCORE.norm>
-1.62234

>  <RMSD>
9.488

$$$$
1tob
 OpenBabel11021811413D
libRbt.so/2013.1/901 2013/11/27
 32 34  0  0  0  0  0  0  0  0999 V2000
   -3.2652    4.0432    3.7698 C   0  0  2  0  0  0  0  0  0  0  0  0
   -4.1292    3.5854    2.5972 C   0  0  1  0  0  0  0  0  0  0  0  0
   -4.2561    4.7136    1.5826 C   0  0  2  0  0  0  0  0  0  0  0  0
   -4.8022    5.9570    2.2742 C   0  0  1  0  0  0  0  0  0  0  0  0
   -3.9109    6.3261    3.4568 C   0  0  1  0  0  0  0  0  0  0  0  0
   -4.4455    7.5128    4.2343 C   0  0  0  0  0  0  0  0  0  0  0  0
   -3.5379    2.4509    1.9803 O   0  0  0  0  0  0  0  0  0  0  0  0
   -5.0946    4.3069    0.4342 N   0  3  0  0  0  0  0  0  0  0  0  0
   -4.8592    7.0353    1.3501 O   0  0  0  0  0  0  0  0  0  0  0  0
   -3.8234    5.2158    4.3760 O   0  0  0  0  0  0  0  0  0  0  0  0
   -5.4674    7.1218    5.1403 O   0  0  0  0  0  0  0  0  0  0  0  0
    0.1605    3.3334    2.8638 C   0  0  2  0  0  0  0  0  0  0  0  0
    1.2634    2.4721    3.4639 C   0  0  0  0  0  0  0  0  0  0  0  0
    1.8310    3.1305    4.7217 C   0  0  1  0  0  0  0  0  0  0  0  0
    0.7193    3.3150    5.7522 C   0  0  2  0  0  0  0  0  0  0  0  0
   -0.4022    4.1722    5.1634 C   0  0  1  0  0  0  0  0  0  0  0  0
   -0.9455    3.5243    3.8903 C   0  0  1  0  0  0  0  0  0  0  0  0
   -0.4152    2.6854    1.6651 N   0  3  0  0  0  0  0  0  0  0  0  0
    2.9618    2.3230    5.2483 N   0  3  0  0  0  0  0  0  0  0  0  0
   -1.4473    4.3183    6.1155 O   0  0  0  0  0  0  0  0  0  0  0  0
   -1.9888    4.3435    3.3323 O   0  0  0  0  0  0  0  0  0  0  0  0
    0.8127    3.4048    8.1495 C   0  0  1  0  0  0  0  0  0  0  0  0
    0.3698    4.5218    9.0961 C   0  0  1  0  0  0  0  0  0  0  0  0
    1.5455    5.4277    9.4295 C   0  0  0  0  0  0  0  0  0  0  0  0
    2.6806    4.5883    9.9930 C   0  0  1  0  0  0  0  0  0  0  0  0
    3.0484    3.4853    9.0012 C   0  0  1  0  0  0  0  0  0  0  0  0
    4.1393    2.5685    9.5241 C   0  0  0  0  0  0  0  0  0  0  0  0
   -0.7720    5.2790    8.5310 N   0  3  0  0  0  0  0  0  0  0  0  0
    3.6540    1.7333   10.6486 N   0  3  0  0  0  0  0  0  0  0  0  0
    1.2423    3.9399    6.9424 O   0  0  0  0  0  0  0  0  0  0  0  0
    3.8115    5.4091   10.2461 O   0  0  0  0  0  0  0  0  0  0  0  0
    1.8952    2.6617    8.7232 O   0  0  0  0  0  0  0  0  0  0  0  0
  1  2  1  0  0  0  0
  1 10  1  0  0  0  0
  1 21  1  6  0  0  0
  2  3  1  0  0  0  0
  2  7  1  6  0  0  0
  3  4  1  0  0  0  0
  3  8  1  6  0  0  0
  4  5  1  0  0  0  0
  4  9  1  6  0  0  0
  5  6  1  1  0  0  0
  5 10  1  0  0  0  0
  6 11  1  0  0  0  0
 12 13  1  0  0  0  0
 12 17  1  0  0  0  0
 12 18  1  6  0  0  0
 13 14  1  0  0  0  0
 14 15  1  0  0  0  0
 14 19  1  1  0  0  0
 15 16  1  0  0  0  0
 15 30  1  1  0  0  0
 16 17  1  0  0  0  0
 16 20  1  1  0  0  0
 17 21  1  6  0  0  0
 22 23  1  0  0  0  0
 22 30  1  6  0  0  0
 22 32  1  0  0  0  0
 23 24  1  0  0  0  0
 23 28  1  6  0  0  0
 24 25  1  0  0  0  0
 25 26  1  0  0  0  0
 25 31  1  6  0  0  0
 26 27  1  1  0  0  0
 26 32  1  0  0  0  0
 27 29  1  0  0  0  0
M  CHG  5   8   1  18   1  19   1  28   1  29   1
M  END
>  <CHROM.1>
-117.40901619,167.46801427,-111.18213852,-62.30205357,81.20791614,75.92715348
-102.67382042,-171.82314919,-136.70841150,176.88933491,146.97440755,-132.55298114
99.16369822,-58.24847860,69.14874709,-49.52607609,-0.75361151,4.21587924
5.41911840,-2.57842476,-0.58424350,1.08417210

>  <Name>
1tob

>  <RI>
0

>  <Rbt.Current_Directory>
/home/itssahil/PROJECTS/Mol_Feturizer/New_Systems/rnas/1tob

>  <Rbt.Executable>
rbdock ($Id: //depot/dev/client3/rdock/2013.1/src/exe/rbdock.cxx#4 $)

>  <Rbt.Library>
libRbt.so (2013.1, Build901 2013/11/27)

>  <Rbt.Parameter_File>
/export/apps/rDock/src/rDock_2013.1_src/data/scripts/dock_solv.prm

>  <Rbt.Receptor>
prm/pocket_docking_8.prm

>  <SCORE>
-61.4302

>  <SCORE.INTER>
-60.2149

>  <SCORE.INTER.CONST>
1

>  <SCORE.INTER.POLAR>
-8.7001

>  <SCORE.INTER.ROT>
6

>  <SCORE.INTER.SOLV>
30.6897

>  <SCORE.INTER.VDW>
-28.9728

>  <SCORE.INTER.norm>
-1.88172

>  <SCORE.INTRA>
-1.21528

>  <SCORE.INTRA.DIHEDRAL>
13.7611

>  <SCORE.INTRA.DIHEDRAL.0>
22.9177

>  <SCORE.INTRA.POLAR>
-2.79816

>  <SCORE.INTRA.POLAR.0>
-0.311208

>  <SCORE.INTRA.REPUL>
0

>  <SCORE.INTRA.REPUL.0>
0

>  <SCORE.INTRA.SOLV>
0.0907645

>  <SCORE.INTRA.SOLV.lig_0>
-132.657

>  <SCORE.INTRA.VDW>
1.37255

>  <SCORE.INTRA.VDW.0>
-4.68867

>  <SCORE.INTRA.norm>
-0.0379775

>  <SCORE.RESTR>
0

>  <SCORE.RESTR.CAVITY>
0

>  <SCORE.RESTR.norm>
0

>  <SCORE.SYSTEM>
0

>  <SCORE.SYSTEM.CONST>
0

>  <SCORE.SYSTEM.DIHEDRAL>
0

>  <SCORE.SYSTEM.SOLV>
0

>  <SCORE.SYSTEM.norm>
0

>  <SCORE.heavy>
32

>  <SCORE.norm>
-1.91969

>  <RMSD>
9.490

$$$$
1tob
 OpenBabel11021811413D
libRbt.so/2013.1/901 2013/11/27
 32 34  0  0  0  0  0  0  0  0999 V2000
   -3.2932    3.7623    3.6230 C   0  0  2  0  0  0  0  0  0  0  0  0
   -4.0057    3.1241    2.4329 C   0  0  1  0  0  0  0  0  0  0  0  0
   -4.3453    4.1944    1.4045 C   0  0  2  0  0  0  0  0  0  0  0  0
   -5.1657    5.2930    2.0698 C   0  0  1  0  0  0  0  0  0  0  0  0
   -4.4077    5.8505    3.2714 C   0  0  1  0  0  0  0  0  0  0  0  0
   -5.2069    6.8966    4.0233 C   0  0  0  0  0  0  0  0  0  0  0  0
   -3.1668    2.1418    1.8424 O   0  0  0  0  0  0  0  0  0  0  0  0
   -5.0445    3.6118    0.2388 N   0  3  0  0  0  0  0  0  0  0  0  0
   -5.4288    6.3301    1.1342 O   0  0  0  0  0  0  0  0  0  0  0  0
   -4.1078    4.7889    4.2032 O   0  0  0  0  0  0  0  0  0  0  0  0
   -4.4638    7.4381    5.1062 O   0  0  0  0  0  0  0  0  0  0  0  0
    0.2393    3.8921    2.7750 C   0  0  2  0  0  0  0  0  0  0  0  0
    1.4887    3.2347    3.3452 C   0  0  0  0  0  0  0  0  0  0  0  0
    1.8439    3.8474    4.7002 C   0  0  1  0  0  0  0  0  0  0  0  0
    0.6834    3.6520    5.6733 C   0  0  2  0  0  0  0  0  0  0  0  0
   -0.5836    4.2997    5.1127 C   0  0  1  0  0  0  0  0  0  0  0  0
   -0.9170    3.7045    3.7450 C   0  0  1  0  0  0  0  0  0  0  0  0
   -0.1282    3.2806    1.4791 N   0  3  0  0  0  0  0  0  0  0  0  0
    3.1107    3.2572    5.2051 N   0  3  0  0  0  0  0  0  0  0  0  0
   -1.6677    4.0916    6.0079 O   0  0  0  0  0  0  0  0  0  0  0  0
   -2.1002    4.3295    3.2158 O   0  0  0  0  0  0  0  0  0  0  0  0
    0.5754    3.5204    8.0680 C   0  0  1  0  0  0  0  0  0  0  0  0
    0.5211    4.4366    9.2918 C   0  0  1  0  0  0  0  0  0  0  0  0
    1.9131    4.9495    9.6288 C   0  0  0  0  0  0  0  0  0  0  0  0
    2.8511    3.7679    9.8140 C   0  0  1  0  0  0  0  0  0  0  0  0
    2.8321    2.8927    8.5613 C   0  0  1  0  0  0  0  0  0  0  0  0
    3.7043    1.6578    8.6973 C   0  0  0  0  0  0  0  0  0  0  0  0
   -0.4442    5.5426    9.0882 N   0  3  0  0  0  0  0  0  0  0  0  0
    5.1354    2.0167    8.8411 N   0  3  0  0  0  0  0  0  0  0  0  0
    1.0053    4.2303    6.9548 O   0  0  0  0  0  0  0  0  0  0  0  0
    4.1707    4.2303   10.0620 O   0  0  0  0  0  0  0  0  0  0  0  0
    1.4880    2.4386    8.2921 O   0  0  0  0  0  0  0  0  0  0  0  0
  1  2  1  0  0  0  0
  1 10  1  0  0  0  0
  1 21  1  6  0  0  0
  2  3  1  0  0  0  0
  2  7  1  6  0  0  0
  3  4  1  0  0  0  0
  3  8  1  6  0  0  0
  4  5  1  0  0  0  0
  4  9  1  6  0  0  0
  5  6  1  1  0  0  0
  5 10  1  0  0  0  0
  6 11  1  0  0  0  0
 12 13  1  0  0  0  0
 12 17  1  0  0  0  0
 12 18  1  6  0  0  0
 13 14  1  0  0  0  0
 14 15  1  0  0  0  0
 14 19  1  1  0  0  0
 15 16  1  0  0  0  0
 15 30  1  1  0  0  0
 16 17  1  0  0  0  0
 16 20  1  1  0  0  0
 17 21  1  6  0  0  0
 22 23  1  0  0  0  0
 22 30  1  6  0  0  0
 22 32  1  0  0  0  0
 23 24  1  0  0  0  0
 23 28  1  6  0  0  0
 24 25  1  0  0  0  0
 25 26  1  0  0  0  0
 25 31  1  6  0  0  0
 26 27  1  1  0  0  0
 26 32  1  0  0  0  0
 27 29  1  0  0  0  0
M  CHG  5   8   1  18   1  19   1  28   1  29   1
M  END
>  <CHROM.1>
-113.78714335,97.37187941,-43.71761186,69.57128902,-177.76810324,-169.64820786
-78.63616036,-179.59161605,-141.51157116,68.92601420,151.83158340,-159.78244442
-44.35742581,68.75117090,-64.37739354,160.90060084,-0.71970485,4.09114097
5.23977469,-2.55389144,-0.48878880,1.17077450

>  <Name>
1tob

>  <RI>
0

>  <Rbt.Current_Directory>
/home/itssahil/PROJECTS/Mol_Feturizer/New_Systems/rnas/1tob

>  <Rbt.Executable>
rbdock ($Id: //depot/dev/client3/rdock/2013.1/src/exe/rbdock.cxx#4 $)

>  <Rbt.Library>
libRbt.so (2013.1, Build901 2013/11/27)

>  <Rbt.Parameter_File>
/export/apps/rDock/src/rDock_2013.1_src/data/scripts/dock_solv.prm

>  <Rbt.Receptor>
prm/pocket_docking_6.prm

>  <SCORE>
-57.4808

>  <SCORE.INTER>
-57.3345

>  <SCORE.INTER.CONST>
1

>  <SCORE.INTER.POLAR>
-8.29854

>  <SCORE.INTER.ROT>
6

>  <SCORE.INTER.SOLV>
33.5709

>  <SCORE.INTER.VDW>
-29.3515

>  <SCORE.INTER.norm>
-1.7917

>  <SCORE.INTRA>
-1.21863

>  <SCORE.INTRA.DIHEDRAL>
3.75507

>  <SCORE.INTRA.DIHEDRAL.0>
22.9177

>  <SCORE.INTRA.POLAR>
-0.64637

>  <SCORE.INTRA.POLAR.0>
-0.311208

>  <SCORE.INTRA.REPUL>
0

>  <SCORE.INTRA.REPUL.0>
0

>  <SCORE.INTRA.SOLV>
-0.0321693

>  <SCORE.INTRA.SOLV.lig_0>
-132.657

>  <SCORE.INTRA.VDW>
-0.882421

>  <SCORE.INTRA.VDW.0>
-4.68867

>  <SCORE.INTRA.norm>
-0.0380821

>  <SCORE.RESTR>
1.07226

>  <SCORE.RESTR.CAVITY>
1.07226

>  <SCORE.RESTR.norm>
0.0335083

>  <SCORE.SYSTEM>
0

>  <SCORE.SYSTEM.CONST>
0

>  <SCORE.SYSTEM.DIHEDRAL>
0

>  <SCORE.SYSTEM.SOLV>
0

>  <SCORE.SYSTEM.norm>
0

>  <SCORE.heavy>
32

>  <SCORE.norm>
-1.79628

>  <RMSD>
9.506

$$$$
1tob
 OpenBabel11021811413D
libRbt.so/2013.1/901 2013/11/27
 32 34  0  0  0  0  0  0  0  0999 V2000
   -2.3182    6.9960    5.4145 C   0  0  2  0  0  0  0  0  0  0  0  0
   -3.3771    8.0268    5.7980 C   0  0  1  0  0  0  0  0  0  0  0  0
   -4.7507    7.5390    5.3578 C   0  0  2  0  0  0  0  0  0  0  0  0
   -4.7261    7.2389    3.8639 C   0  0  1  0  0  0  0  0  0  0  0  0
   -3.6181    6.2359    3.5547 C   0  0  1  0  0  0  0  0  0  0  0  0
   -3.4922    5.9543    2.0703 C   0  0  0  0  0  0  0  0  0  0  0  0
   -3.3671    8.2238    7.2047 O   0  0  0  0  0  0  0  0  0  0  0  0
   -5.8023    8.5184    5.7074 N   0  3  0  0  0  0  0  0  0  0  0  0
   -5.9843    6.7177    3.4574 O   0  0  0  0  0  0  0  0  0  0  0  0
   -2.3455    6.7507    4.0027 O   0  0  0  0  0  0  0  0  0  0  0  0
   -2.3836    5.1100    1.7945 O   0  0  0  0  0  0  0  0  0  0  0  0
   -1.1129    4.4759    7.4899 C   0  0  2  0  0  0  0  0  0  0  0  0
    0.0464    3.4890    7.4738 C   0  0  0  0  0  0  0  0  0  0  0  0
   -0.3211    2.2462    6.6626 C   0  0  1  0  0  0  0  0  0  0  0  0
   -0.6592    2.6490    5.2290 C   0  0  2  0  0  0  0  0  0  0  0  0
   -1.8178    3.6475    5.2260 C   0  0  1  0  0  0  0  0  0  0  0  0
   -1.4562    4.8743    6.0628 C   0  0  1  0  0  0  0  0  0  0  0  0
   -0.7513    5.6950    8.2459 N   0  3  0  0  0  0  0  0  0  0  0  0
    0.7853    1.2562    6.7258 N   0  3  0  0  0  0  0  0  0  0  0  0
   -2.1111    4.0413    3.8922 O   0  0  0  0  0  0  0  0  0  0  0  0
   -2.5561    5.8022    6.0696 O   0  0  0  0  0  0  0  0  0  0  0  0
   -0.6801    1.5264    3.1070 C   0  0  1  0  0  0  0  0  0  0  0  0
   -0.3801    0.1177    2.5915 C   0  0  1  0  0  0  0  0  0  0  0  0
    0.8316   -0.4591    3.3080 C   0  0  0  0  0  0  0  0  0  0  0  0
    2.0064    0.4924    3.1509 C   0  0  1  0  0  0  0  0  0  0  0  0
    1.6206    1.8783    3.6666 C   0  0  1  0  0  0  0  0  0  0  0  0
    2.7297    2.8990    3.4869 C   0  0  0  0  0  0  0  0  0  0  0  0
   -1.5679   -0.7599    2.7144 N   0  3  0  0  0  0  0  0  0  0  0  0
    2.3827    3.9015    2.4514 N   0  3  0  0  0  0  0  0  0  0  0  0
   -1.0121    1.4845    4.4546 O   0  0  0  0  0  0  0  0  0  0  0  0
    3.1276    0.0021    3.8716 O   0  0  0  0  0  0  0  0  0  0  0  0
    0.4667    2.3715    2.9519 O   0  0  0  0  0  0  0  0  0  0  0  0
  1  2  1  0  0  0  0
  1 10  1  0  0  0  0
  1 21  1  1  0  0  0
  2  3  1  0  0  0  0
  2  7  1  1  0  0  0
  3  4  1  0  0  0  0
  3  8  1  6  0  0  0
  4  5  1  0  0  0  0
  4  9  1  1  0  0  0
  5  6  1  6  0  0  0
  5 10  1  0  0  0  0
  6 11  1  0  0  0  0
 12 13  1  0  0  0  0
 12 17  1  0  0  0  0
 12 18  1  1  0  0  0
 13 14  1  0  0  0  0
 14 15  1  0  0  0  0
 14 19  1  6  0  0  0
 15 16  1  0  0  0  0
 15 30  1  6  0  0  0
 16 17  1  0  0  0  0
 16 20  1  6  0  0  0
 17 21  1  1  0  0  0
 22 23  1  0  0  0  0
 22 30  1  1  0  0  0
 22 32  1  0  0  0  0
 23 24  1  0  0  0  0
 23 28  1  1  0  0  0
 24 25  1  0  0  0  0
 25 26  1  0  0  0  0
 25 31  1  1  0  0  0
 26 27  1  6  0  0  0
 26 32  1  0  0  0  0
 27 29  1  0  0  0  0
M  CHG  5   8   1  18   1  19   1  28   1  29   1
M  END
>  <CHROM.1>
-164.80817944,173.62798840,174.76539688,-63.42512165,174.94186454,-52.96411295
21.79923707,-165.35946700,-147.92643026,125.52464717,125.01337437,149.24955914
-77.13856006,69.67391161,110.13187619,-175.22894591,-1.34317476,4.04297319
4.58817726,-2.58543851,0.75115702,-2.08693098

>  <Name>
1tob

>  <RI>
0

>  <Rbt.Current_Directory>
/home/itssahil/PROJECTS/Mol_Feturizer/New_Systems/rnas/1tob

>  <Rbt.Executable>
rbdock ($Id: //depot/dev/client3/rdock/2013.1/src/exe/rbdock.cxx#4 $)

>  <Rbt.Library>
libRbt.so (2013.1, Build901 2013/11/27)

>  <Rbt.Parameter_File>
/export/apps/rDock/src/rDock_2013.1_src/data/scripts/dock_solv.prm

>  <Rbt.Receptor>
prm/blind_docking_20.prm

>  <SCORE>
14.0718

>  <SCORE.INTER>
-1.78684

>  <SCORE.INTER.CONST>
1

>  <SCORE.INTER.POLAR>
-5.63793

>  <SCORE.INTER.ROT>
6

>  <SCORE.INTER.SOLV>
50.1822

>  <SCORE.INTER.VDW>
-6.72555

>  <SCORE.INTER.norm>
-0.0558389

>  <SCORE.INTRA>
9.29946

>  <SCORE.INTRA.DIHEDRAL>
9.78944

>  <SCORE.INTRA.DIHEDRAL.0>
22.9177

>  <SCORE.INTRA.POLAR>
0.281374

>  <SCORE.INTRA.POLAR.0>
-0.311208

>  <SCORE.INTRA.REPUL>
0.0106067

>  <SCORE.INTRA.REPUL.0>
0

>  <SCORE.INTRA.SOLV>
-1.07794

>  <SCORE.INTRA.SOLV.lig_0>
-132.657

>  <SCORE.INTRA.VDW>
3.934

>  <SCORE.INTRA.VDW.0>
-4.68867

>  <SCORE.INTRA.norm>
0.290608

>  <SCORE.RESTR>
6.55919

>  <SCORE.RESTR.CAVITY>
6.55919

>  <SCORE.RESTR.norm>
0.204975

>  <SCORE.SYSTEM>
0

>  <SCORE.SYSTEM.CONST>
0

>  <SCORE.SYSTEM.DIHEDRAL>
0

>  <SCORE.SYSTEM.SOLV>
0

>  <SCORE.SYSTEM.norm>
0

>  <SCORE.heavy>
32

>  <SCORE.norm>
0.439744

>  <RMSD>
9.512

$$$$
1tob
 OpenBabel11021811413D
libRbt.so/2013.1/901 2013/11/27
 32 34  0  0  0  0  0  0  0  0999 V2000
   -3.2397    4.1922    3.7507 C   0  0  2  0  0  0  0  0  0  0  0  0
   -3.7718    3.3224    2.6143 C   0  0  1  0  0  0  0  0  0  0  0  0
   -4.0119    4.1814    1.3803 C   0  0  2  0  0  0  0  0  0  0  0  0
   -4.9469    5.3304    1.7379 C   0  0  1  0  0  0  0  0  0  0  0  0
   -4.3685    6.1254    2.9053 C   0  0  1  0  0  0  0  0  0  0  0  0
   -5.2920    7.2387    3.3593 C   0  0  0  0  0  0  0  0  0  0  0  0
   -2.8318    2.3015    2.3115 O   0  0  0  0  0  0  0  0  0  0  0  0
   -4.5358    3.3710    0.2595 N   0  3  0  0  0  0  0  0  0  0  0  0
   -5.1221    6.1768    0.6096 O   0  0  0  0  0  0  0  0  0  0  0  0
   -4.1556    5.2562    4.0386 O   0  0  0  0  0  0  0  0  0  0  0  0
   -4.8603    7.8016    4.5901 O   0  0  0  0  0  0  0  0  0  0  0  0
    0.2574    4.1448    2.8553 C   0  0  2  0  0  0  0  0  0  0  0  0
    1.4783    3.3938    3.3685 C   0  0  0  0  0  0  0  0  0  0  0  0
    1.9334    3.9674    4.7106 C   0  0  1  0  0  0  0  0  0  0  0  0
    0.8035    3.8480    5.7308 C   0  0  2  0  0  0  0  0  0  0  0  0
   -0.4354    4.5907    5.2279 C   0  0  1  0  0  0  0  0  0  0  0  0
   -0.8680    4.0330    3.8723 C   0  0  1  0  0  0  0  0  0  0  0  0
   -0.2075    3.5728    1.5727 N   0  3  0  0  0  0  0  0  0  0  0  0
    3.1740    3.2827    5.1582 N   0  3  0  0  0  0  0  0  0  0  0  0
   -1.4935    4.4538    6.1670 O   0  0  0  0  0  0  0  0  0  0  0  0
   -2.0238    4.7466    3.3970 O   0  0  0  0  0  0  0  0  0  0  0  0
    0.8979    3.6346    8.1203 C   0  0  1  0  0  0  0  0  0  0  0  0
    0.6684    4.5465    9.3268 C   0  0  1  0  0  0  0  0  0  0  0  0
    1.9474    5.2934    9.6742 C   0  0  0  0  0  0  0  0  0  0  0  0
    3.0689    4.2911    9.8933 C   0  0  1  0  0  0  0  0  0  0  0  0
    3.2197    3.4067    8.6561 C   0  0  1  0  0  0  0  0  0  0  0  0
    4.2862    2.3400    8.8261 C   0  0  0  0  0  0  0  0  0  0  0  0
   -0.4669    5.4693    9.0903 N   0  3  0  0  0  0  0  0  0  0  0  0
    4.0016    1.4682    9.9909 N   0  3  0  0  0  0  0  0  0  0  0  0
    1.2198    4.3904    7.0008 O   0  0  0  0  0  0  0  0  0  0  0  0
    4.2867    4.9746   10.1516 O   0  0  0  0  0  0  0  0  0  0  0  0
    1.9767    2.7270    8.3761 O   0  0  0  0  0  0  0  0  0  0  0  0
  1  2  1  0  0  0  0
  1 10  1  0  0  0  0
  1 21  1  6  0  0  0
  2  3  1  0  0  0  0
  2  7  1  6  0  0  0
  3  4  1  0  0  0  0
  3  8  1  6  0  0  0
  4  5  1  0  0  0  0
  4  9  1  6  0  0  0
  5  6  1  1  0  0  0
  5 10  1  0  0  0  0
  6 11  1  0  0  0  0
 12 13  1  0  0  0  0
 12 17  1  0  0  0  0
 12 18  1  6  0  0  0
 13 14  1  0  0  0  0
 14 15  1  0  0  0  0
 14 19  1  1  0  0  0
 15 16  1  0  0  0  0
 15 30  1  1  0  0  0
 16 17  1  0  0  0  0
 16 20  1  1  0  0  0
 17 21  1  6  0  0  0
 22 23  1  0  0  0  0
 22 30  1  6  0  0  0
 22 32  1  0  0  0  0
 23 24  1  0  0  0  0
 23 28  1  6  0  0  0
 24 25  1  0  0  0  0
 25 26  1  0  0  0  0
 25 31  1  6  0  0  0
 26 27  1  1  0  0  0
 26 32  1  0  0  0  0
 27 29  1  0  0  0  0
M  CHG  5   8   1  18   1  19   1  28   1  29   1
M  END
>  <CHROM.1>
-96.57724271,90.72510801,-176.97534815,40.91717182,169.07508651,64.27999068
162.17348090,-57.48178409,-135.47020141,-53.11685420,146.18853023,-149.11032175
-165.42646032,177.18650827,57.93280353,-178.65190069,-0.61537459,4.29899126
5.26676690,2.53811954,0.53008424,-2.00009443

>  <Name>
1tob

>  <RI>
0

>  <Rbt.Current_Directory>
/home/itssahil/PROJECTS/Mol_Feturizer/New_Systems/rnas/1tob

>  <Rbt.Executable>
rbdock ($Id: //depot/dev/client3/rdock/2013.1/src/exe/rbdock.cxx#4 $)

>  <Rbt.Library>
libRbt.so (2013.1, Build901 2013/11/27)

>  <Rbt.Parameter_File>
/export/apps/rDock/src/rDock_2013.1_src/data/scripts/dock_solv.prm

>  <Rbt.Receptor>
prm/pocket_docking_7.prm

>  <SCORE>
-58.5258

>  <SCORE.INTER>
-61.8229

>  <SCORE.INTER.CONST>
1

>  <SCORE.INTER.POLAR>
-8.85257

>  <SCORE.INTER.ROT>
6

>  <SCORE.INTER.SOLV>
32.8904

>  <SCORE.INTER.VDW>
-30.2701

>  <SCORE.INTER.norm>
-1.93196

>  <SCORE.INTRA>
3.29707

>  <SCORE.INTRA.DIHEDRAL>
3.3925

>  <SCORE.INTRA.DIHEDRAL.0>
22.9177

>  <SCORE.INTRA.POLAR>
0.223867

>  <SCORE.INTRA.POLAR.0>
-0.311208

>  <SCORE.INTRA.REPUL>
0

>  <SCORE.INTRA.REPUL.0>
0

>  <SCORE.INTRA.SOLV>
0.453203

>  <SCORE.INTRA.SOLV.lig_0>
-132.657

>  <SCORE.INTRA.VDW>
0.613064

>  <SCORE.INTRA.VDW.0>
-4.68867

>  <SCORE.INTRA.norm>
0.103033

>  <SCORE.RESTR>
0

>  <SCORE.RESTR.CAVITY>
0

>  <SCORE.RESTR.norm>
0

>  <SCORE.SYSTEM>
0

>  <SCORE.SYSTEM.CONST>
0

>  <SCORE.SYSTEM.DIHEDRAL>
0

>  <SCORE.SYSTEM.SOLV>
0

>  <SCORE.SYSTEM.norm>
0

>  <SCORE.heavy>
32

>  <SCORE.norm>
-1.82893

>  <RMSD>
9.535

$$$$
1tob
 OpenBabel11021811413D
libRbt.so/2013.1/901 2013/11/27
 32 34  0  0  0  0  0  0  0  0999 V2000
   -3.3248    4.3844    3.8852 C   0  0  2  0  0  0  0  0  0  0  0  0
   -4.2491    3.8178    2.8101 C   0  0  1  0  0  0  0  0  0  0  0  0
   -4.5594    4.8959    1.7807 C   0  0  2  0  0  0  0  0  0  0  0  0
   -5.1432    6.1148    2.4850 C   0  0  1  0  0  0  0  0  0  0  0  0
   -4.1836    6.5956    3.5700 C   0  0  1  0  0  0  0  0  0  0  0  0
   -4.7435    7.7620    4.3602 C   0  0  0  0  0  0  0  0  0  0  0  0
   -3.6229    2.7135    2.1730 O   0  0  0  0  0  0  0  0  0  0  0  0
   -5.4604    4.3831    0.7259 N   0  3  0  0  0  0  0  0  0  0  0  0
   -5.3720    7.1520    1.5406 O   0  0  0  0  0  0  0  0  0  0  0  0
   -3.9223    5.5289    4.5075 O   0  0  0  0  0  0  0  0  0  0  0  0
   -4.7851    8.9468    3.5775 O   0  0  0  0  0  0  0  0  0  0  0  0
    0.1349    4.1312    2.7269 C   0  0  2  0  0  0  0  0  0  0  0  0
    1.3447    3.3348    3.1964 C   0  0  0  0  0  0  0  0  0  0  0  0
    1.8345    3.8544    4.5483 C   0  0  1  0  0  0  0  0  0  0  0  0
    0.7178    3.7303    5.5825 C   0  0  2  0  0  0  0  0  0  0  0  0
   -0.5099    4.5183    5.1232 C   0  0  1  0  0  0  0  0  0  0  0  0
   -0.9771    4.0146    3.7580 C   0  0  1  0  0  0  0  0  0  0  0  0
   -0.3638    3.6115    1.4347 N   0  3  0  0  0  0  0  0  0  0  0  0
    3.0645    3.1259    4.9541 N   0  3  0  0  0  0  0  0  0  0  0  0
   -1.5564    4.3775    6.0746 O   0  0  0  0  0  0  0  0  0  0  0  0
   -2.1220    4.7707    3.3241 O   0  0  0  0  0  0  0  0  0  0  0  0
    0.7725    3.4839    7.9700 C   0  0  1  0  0  0  0  0  0  0  0  0
    0.5558    4.4065    9.1708 C   0  0  1  0  0  0  0  0  0  0  0  0
    1.8616    5.0846    9.5573 C   0  0  0  0  0  0  0  0  0  0  0  0
    2.9216    4.0244    9.8077 C   0  0  1  0  0  0  0  0  0  0  0  0
    3.0621    3.1335    8.5740 C   0  0  1  0  0  0  0  0  0  0  0  0
    4.0653    2.0119    8.7737 C   0  0  0  0  0  0  0  0  0  0  0  0
   -0.5215    5.3881    8.9023 N   0  3  0  0  0  0  0  0  0  0  0  0
    5.4262    2.5400    9.0318 N   0  3  0  0  0  0  0  0  0  0  0  0
    1.1670    4.2219    6.8619 O   0  0  0  0  0  0  0  0  0  0  0  0
    4.1656    4.6425   10.1033 O   0  0  0  0  0  0  0  0  0  0  0  0
    1.7938    2.5205    8.2562 O   0  0  0  0  0  0  0  0  0  0  0  0
  1  2  1  0  0  0  0
  1 10  1  0  0  0  0
  1 21  1  6  0  0  0
  2  3  1  0  0  0  0
  2  7  1  6  0  0  0
  3  4  1  0  0  0  0
  3  8  1  6  0  0  0
  4  5  1  0  0  0  0
  4  9  1  6  0  0  0
  5  6  1  1  0  0  0
  5 10  1  0  0  0  0
  6 11  1  0  0  0  0
 12 13  1  0  0  0  0
 12 17  1  0  0  0  0
 12 18  1  6  0  0  0
 13 14  1  0  0  0  0
 14 15  1  0  0  0  0
 14 19  1  1  0  0  0
 15 16  1  0  0  0  0
 15 30  1  1  0  0  0
 16 17  1  0  0  0  0
 16 20  1  1  0  0  0
 17 21  1  6  0  0  0
 22 23  1  0  0  0  0
 22 30  1  6  0  0  0
 22 32  1  0  0  0  0
 23 24  1  0  0  0  0
 23 28  1  6  0  0  0
 24 25  1  0  0  0  0
 25 26  1  0  0  0  0
 25 31  1  6  0  0  0
 26 27  1  1  0  0  0
 26 32  1  0  0  0  0
 27 29  1  0  0  0  0
M  CHG  5   8   1  18   1  19   1  28   1  29   1
M  END
>  <CHROM.1>
-114.53182008,82.50282876,-17.36508631,-173.13605252,-70.56090083,-157.87958519
46.95492720,176.51819314,-139.35664781,-52.36132593,157.85952539,-146.85425263
-169.27172924,61.75882118,-61.85933396,-81.87596786,-0.71217395,4.48901462
5.27380094,2.65894361,0.55801947,-2.02527846

>  <Name>
1tob

>  <RI>
0

>  <Rbt.Current_Directory>
/home/itssahil/PROJECTS/Mol_Feturizer/New_Systems/rnas/1tob

>  <Rbt.Executable>
rbdock ($Id: //depot/dev/client3/rdock/2013.1/src/exe/rbdock.cxx#4 $)

>  <Rbt.Library>
libRbt.so (2013.1, Build901 2013/11/27)

>  <Rbt.Parameter_File>
/export/apps/rDock/src/rDock_2013.1_src/data/scripts/dock_solv.prm

>  <Rbt.Receptor>
prm/pocket_docking_7.prm

>  <SCORE>
-59.647

>  <SCORE.INTER>
-58.8026

>  <SCORE.INTER.CONST>
1

>  <SCORE.INTER.POLAR>
-8.29754

>  <SCORE.INTER.ROT>
6

>  <SCORE.INTER.SOLV>
28.1015

>  <SCORE.INTER.VDW>
-28.5104

>  <SCORE.INTER.norm>
-1.83758

>  <SCORE.INTRA>
-0.844364

>  <SCORE.INTRA.DIHEDRAL>
5.87144

>  <SCORE.INTRA.DIHEDRAL.0>
22.9177

>  <SCORE.INTRA.POLAR>
-1.18142

>  <SCORE.INTRA.POLAR.0>
-0.311208

>  <SCORE.INTRA.REPUL>
0

>  <SCORE.INTRA.REPUL.0>
0

>  <SCORE.INTRA.SOLV>
-0.665975

>  <SCORE.INTRA.SOLV.lig_0>
-132.657

>  <SCORE.INTRA.VDW>
0.569725

>  <SCORE.INTRA.VDW.0>
-4.68867

>  <SCORE.INTRA.norm>
-0.0263864

>  <SCORE.RESTR>
0

>  <SCORE.RESTR.CAVITY>
0

>  <SCORE.RESTR.norm>
0

>  <SCORE.SYSTEM>
0

>  <SCORE.SYSTEM.CONST>
0

>  <SCORE.SYSTEM.DIHEDRAL>
0

>  <SCORE.SYSTEM.SOLV>
0

>  <SCORE.SYSTEM.norm>
0

>  <SCORE.heavy>
32

>  <SCORE.norm>
-1.86397

>  <RMSD>
9.542

$$$$
1tob
 OpenBabel11021811413D
libRbt.so/2013.1/901 2013/11/27
 32 34  0  0  0  0  0  0  0  0999 V2000
   -3.1963    3.5534    3.9188 C   0  0  2  0  0  0  0  0  0  0  0  0
   -4.0383    3.2506    2.6816 C   0  0  1  0  0  0  0  0  0  0  0  0
   -4.0359    4.4564    1.7520 C   0  0  2  0  0  0  0  0  0  0  0  0
   -4.5193    5.6841    2.5147 C   0  0  1  0  0  0  0  0  0  0  0  0
   -3.6571    5.8959    3.7561 C   0  0  1  0  0  0  0  0  0  0  0  0
   -4.1371    7.0601    4.6004 C   0  0  0  0  0  0  0  0  0  0  0  0
   -3.5053    2.1221    2.0034 O   0  0  0  0  0  0  0  0  0  0  0  0
   -4.8497    4.2007    0.5439 N   0  3  0  0  0  0  0  0  0  0  0  0
   -4.4551    6.8284    1.6742 O   0  0  0  0  0  0  0  0  0  0  0  0
   -3.6932    4.7179    4.5904 O   0  0  0  0  0  0  0  0  0  0  0  0
   -3.9634    8.2976    3.9247 O   0  0  0  0  0  0  0  0  0  0  0  0
   -0.0976    2.1959    3.1764 C   0  0  2  0  0  0  0  0  0  0  0  0
    0.9311    1.3217    3.8806 C   0  0  0  0  0  0  0  0  0  0  0  0
    1.8576    2.1773    4.7449 C   0  0  1  0  0  0  0  0  0  0  0  0
    1.0368    2.9299    5.7898 C   0  0  2  0  0  0  0  0  0  0  0  0
   -0.0083    3.8083    5.1001 C   0  0  1  0  0  0  0  0  0  0  0  0
   -0.9126    2.9517    4.2145 C   0  0  1  0  0  0  0  0  0  0  0  0
   -1.0177    1.3698    2.3644 N   0  3  0  0  0  0  0  0  0  0  0  0
    2.9076    1.3234    5.3585 N   0  3  0  0  0  0  0  0  0  0  0  0
   -0.7883    4.4855    6.0762 O   0  0  0  0  0  0  0  0  0  0  0  0
   -1.8829    3.7858    3.5559 O   0  0  0  0  0  0  0  0  0  0  0  0
    2.5614    3.0870    7.6377 C   0  0  1  0  0  0  0  0  0  0  0  0
    1.7154    3.1118    8.9119 C   0  0  1  0  0  0  0  0  0  0  0  0
    1.5159    4.5440    9.3847 C   0  0  0  0  0  0  0  0  0  0  0  0
    2.8724    5.2068    9.5606 C   0  0  1  0  0  0  0  0  0  0  0  0
    3.6619    5.1212    8.2549 C   0  0  1  0  0  0  0  0  0  0  0  0
    5.0545    5.7133    8.3735 C   0  0  0  0  0  0  0  0  0  0  0  0
    0.4263    2.4088    8.7107 N   0  3  0  0  0  0  0  0  0  0  0  0
    5.9460    4.8473    9.1816 N   0  3  0  0  0  0  0  0  0  0  0  0
    1.9002    3.7447    6.6090 O   0  0  0  0  0  0  0  0  0  0  0  0
    2.7032    6.5659    9.9362 O   0  0  0  0  0  0  0  0  0  0  0  0
    3.8170    3.7416    7.8570 O   0  0  0  0  0  0  0  0  0  0  0  0
  1  2  1  0  0  0  0
  1 10  1  0  0  0  0
  1 21  1  6  0  0  0
  2  3  1  0  0  0  0
  2  7  1  6  0  0  0
  3  4  1  0  0  0  0
  3  8  1  6  0  0  0
  4  5  1  0  0  0  0
  4  9  1  6  0  0  0
  5  6  1  1  0  0  0
  5 10  1  0  0  0  0
  6 11  1  0  0  0  0
 12 13  1  0  0  0  0
 12 17  1  0  0  0  0
 12 18  1  1  0  0  0
 13 14  1  0  0  0  0
 14 15  1  0  0  0  0
 14 19  1  1  0  0  0
 15 16  1  0  0  0  0
 15 30  1  6  0  0  0
 16 17  1  0  0  0  0
 16 20  1  1  0  0  0
 17 21  1  6  0  0  0
 22 23  1  0  0  0  0
 22 30  1  6  0  0  0
 22 32  1  0  0  0  0
 23 24  1  0  0  0  0
 23 28  1  6  0  0  0
 24 25  1  0  0  0  0
 25 26  1  0  0  0  0
 25 31  1  6  0  0  0
 26 27  1  1  0  0  0
 26 32  1  0  0  0  0
 27 29  1  0  0  0  0
M  CHG  5   8   1  18   1  19   1  28   1  29   1
M  END
>  <CHROM.1>
-124.51212964,168.29543807,120.40263173,65.05495389,-67.02305538,-61.99084554
-78.36995066,51.89858764,-80.87680351,-66.01486280,122.81172390,-89.96781408
171.42333638,176.67911971,72.12780674,170.10471375,-0.32047909,4.08897620
5.31753386,-2.80857443,-0.61569524,0.61365428

>  <Name>
1tob

>  <RI>
0

>  <Rbt.Current_Directory>
/home/itssahil/PROJECTS/Mol_Feturizer/New_Systems/rnas/1tob

>  <Rbt.Executable>
rbdock ($Id: //depot/dev/client3/rdock/2013.1/src/exe/rbdock.cxx#4 $)

>  <Rbt.Library>
libRbt.so (2013.1, Build901 2013/11/27)

>  <Rbt.Parameter_File>
/export/apps/rDock/src/rDock_2013.1_src/data/scripts/dock_solv.prm

>  <Rbt.Receptor>
prm/pocket_docking_8.prm

>  <SCORE>
-35.108

>  <SCORE.INTER>
-36.3182

>  <SCORE.INTER.CONST>
1

>  <SCORE.INTER.POLAR>
-4.80122

>  <SCORE.INTER.ROT>
6

>  <SCORE.INTER.SOLV>
22.1847

>  <SCORE.INTER.VDW>
-23.203

>  <SCORE.INTER.norm>
-1.13495

>  <SCORE.INTRA>
1.21024

>  <SCORE.INTRA.DIHEDRAL>
3.50112

>  <SCORE.INTRA.DIHEDRAL.0>
22.9177

>  <SCORE.INTRA.POLAR>
-0.915365

>  <SCORE.INTRA.POLAR.0>
-0.311208

>  <SCORE.INTRA.REPUL>
0

>  <SCORE.INTRA.REPUL.0>
0

>  <SCORE.INTRA.SOLV>
2.73318

>  <SCORE.INTRA.SOLV.lig_0>
-132.657

>  <SCORE.INTRA.VDW>
1.20533

>  <SCORE.INTRA.VDW.0>
-4.68867

>  <SCORE.INTRA.norm>
0.0378199

>  <SCORE.RESTR>
0

>  <SCORE.RESTR.CAVITY>
0

>  <SCORE.RESTR.norm>
0

>  <SCORE.SYSTEM>
0

>  <SCORE.SYSTEM.CONST>
0

>  <SCORE.SYSTEM.DIHEDRAL>
0

>  <SCORE.SYSTEM.SOLV>
0

>  <SCORE.SYSTEM.norm>
0

>  <SCORE.heavy>
32

>  <SCORE.norm>
-1.09713

>  <RMSD>
9.545

$$$$
1tob
 OpenBabel11021811413D
libRbt.so/2013.1/901 2013/11/27
 32 34  0  0  0  0  0  0  0  0999 V2000
   -2.8238    4.3178    4.0447 C   0  0  2  0  0  0  0  0  0  0  0  0
   -3.7629    3.7069    3.0073 C   0  0  1  0  0  0  0  0  0  0  0  0
   -4.1293    4.7561    1.9665 C   0  0  2  0  0  0  0  0  0  0  0  0
   -4.7242    5.9738    2.6635 C   0  0  1  0  0  0  0  0  0  0  0  0
   -3.7474    6.5001    3.7114 C   0  0  1  0  0  0  0  0  0  0  0  0
   -4.3148    7.6676    4.4946 C   0  0  0  0  0  0  0  0  0  0  0  0
   -3.1266    2.6061    2.3741 O   0  0  0  0  0  0  0  0  0  0  0  0
   -5.0459    4.1999    0.9477 N   0  3  0  0  0  0  0  0  0  0  0  0
   -5.0058    6.9859    1.7062 O   0  0  0  0  0  0  0  0  0  0  0  0
   -3.4329    5.4591    4.6615 O   0  0  0  0  0  0  0  0  0  0  0  0
   -3.5413    7.9392    5.6547 O   0  0  0  0  0  0  0  0  0  0  0  0
    0.5324    3.9981    2.6792 C   0  0  2  0  0  0  0  0  0  0  0  0
    1.7653    3.2003    3.0811 C   0  0  0  0  0  0  0  0  0  0  0  0
    2.3875    3.7815    4.3509 C   0  0  1  0  0  0  0  0  0  0  0  0
    1.3690    3.7410    5.4880 C   0  0  2  0  0  0  0  0  0  0  0  0
    0.1190    4.5315    5.0985 C   0  0  1  0  0  0  0  0  0  0  0  0
   -0.4816    3.9648    3.8124 C   0  0  1  0  0  0  0  0  0  0  0  0
   -0.0931    3.4202    1.4696 N   0  3  0  0  0  0  0  0  0  0  0  0
    3.6359    3.0475    4.6837 N   0  3  0  0  0  0  0  0  0  0  0  0
   -0.8376    4.4681    6.1478 O   0  0  0  0  0  0  0  0  0  0  0  0
   -1.6474    4.7229    3.4424 O   0  0  0  0  0  0  0  0  0  0  0  0
    2.5317    3.3791    7.5571 C   0  0  1  0  0  0  0  0  0  0  0  0
    1.7975    3.3737    8.8990 C   0  0  1  0  0  0  0  0  0  0  0  0
    1.9176    4.7332    9.5713 C   0  0  0  0  0  0  0  0  0  0  0  0
    3.3870    5.0999    9.7007 C   0  0  1  0  0  0  0  0  0  0  0  0
    4.0517    5.0612    8.3252 C   0  0  1  0  0  0  0  0  0  0  0  0
    5.5385    5.3609    8.3854 C   0  0  0  0  0  0  0  0  0  0  0  0
    0.3844    2.9592    8.7329 N   0  3  0  0  0  0  0  0  0  0  0  0
    6.0874    5.6587    7.0409 N   0  3  0  0  0  0  0  0  0  0  0  0
    1.9435    4.2913    6.6911 O   0  0  0  0  0  0  0  0  0  0  0  0
    3.5154    6.3970   10.2646 O   0  0  0  0  0  0  0  0  0  0  0  0
    3.9038    3.7502    7.7380 O   0  0  0  0  0  0  0  0  0  0  0  0
  1  2  1  0  0  0  0
  1 10  1  0  0  0  0
  1 21  1  6  0  0  0
  2  3  1  0  0  0  0
  2  7  1  6  0  0  0
  3  4  1  0  0  0  0
  3  8  1  6  0  0  0
  4  5  1  0  0  0  0
  4  9  1  6  0  0  0
  5  6  1  1  0  0  0
  5 10  1  0  0  0  0
  6 11  1  0  0  0  0
 12 13  1  0  0  0  0
 12 17  1  0  0  0  0
 12 18  1  6  0  0  0
 13 14  1  0  0  0  0
 14 15  1  0  0  0  0
 14 19  1  1  0  0  0
 15 16  1  0  0  0  0
 15 30  1  1  0  0  0
 16 17  1  0  0  0  0
 16 20  1  1  0  0  0
 17 21  1  6  0  0  0
 22 23  1  0  0  0  0
 22 30  1  6  0  0  0
 22 32  1  0  0  0  0
 23 24  1  0  0  0  0
 23 28  1  6  0  0  0
 24 25  1  0  0  0  0
 25 26  1  0  0  0  0
 25 31  1  6  0  0  0
 26 27  1  1  0  0  0
 26 32  1  0  0  0  0
 27 29  1  0  0  0  0
M  CHG  5   8   1  18   1  19   1  28   1  29   1
M  END
>  <CHROM.1>
-111.83529186,112.49138979,-7.62014677,66.15185889,166.24739731,175.84753734
-72.49815581,-167.27493570,-93.26281118,175.71527767,152.37211376,-117.36185207
58.33085563,-59.52817929,-165.46351900,-66.19322285,-0.07778081,4.66858883
5.24373509,2.63083907,0.38737122,-2.05430039

>  <Name>
1tob

>  <RI>
0

>  <Rbt.Current_Directory>
/home/itssahil/PROJECTS/Mol_Feturizer/New_Systems/rnas/1tob

>  <Rbt.Executable>
rbdock ($Id: //depot/dev/client3/rdock/2013.1/src/exe/rbdock.cxx#4 $)

>  <Rbt.Library>
libRbt.so (2013.1, Build901 2013/11/27)

>  <Rbt.Parameter_File>
/export/apps/rDock/src/rDock_2013.1_src/data/scripts/dock_solv.prm

>  <Rbt.Receptor>
prm/pocket_docking_8.prm

>  <SCORE>
-53.468

>  <SCORE.INTER>
-51.634

>  <SCORE.INTER.CONST>
1

>  <SCORE.INTER.POLAR>
-7.09132

>  <SCORE.INTER.ROT>
6

>  <SCORE.INTER.SOLV>
28.2099

>  <SCORE.INTER.VDW>
-27.7882

>  <SCORE.INTER.norm>
-1.61356

>  <SCORE.INTRA>
-1.83401

>  <SCORE.INTRA.DIHEDRAL>
11.4096

>  <SCORE.INTRA.DIHEDRAL.0>
22.9177

>  <SCORE.INTRA.POLAR>
-2.28388

>  <SCORE.INTRA.POLAR.0>
-0.311208

>  <SCORE.INTRA.REPUL>
0

>  <SCORE.INTRA.REPUL.0>
0

>  <SCORE.INTRA.SOLV>
-1.61866

>  <SCORE.INTRA.SOLV.lig_0>
-132.657

>  <SCORE.INTRA.VDW>
1.03571

>  <SCORE.INTRA.VDW.0>
-4.68867

>  <SCORE.INTRA.norm>
-0.0573129

>  <SCORE.RESTR>
0

>  <SCORE.RESTR.CAVITY>
0

>  <SCORE.RESTR.norm>
0

>  <SCORE.SYSTEM>
0

>  <SCORE.SYSTEM.CONST>
0

>  <SCORE.SYSTEM.DIHEDRAL>
0

>  <SCORE.SYSTEM.SOLV>
0

>  <SCORE.SYSTEM.norm>
0

>  <SCORE.heavy>
32

>  <SCORE.norm>
-1.67088

>  <RMSD>
9.553

$$$$
1tob
 OpenBabel11021811413D
libRbt.so/2013.1/901 2013/11/27
 32 34  0  0  0  0  0  0  0  0999 V2000
   -3.8094    3.8189    3.1015 C   0  0  2  0  0  0  0  0  0  0  0  0
   -4.7424    4.2377    1.9677 C   0  0  1  0  0  0  0  0  0  0  0  0
   -4.4945    5.6974    1.6125 C   0  0  2  0  0  0  0  0  0  0  0  0
   -4.6533    6.5560    2.8615 C   0  0  1  0  0  0  0  0  0  0  0  0
   -3.7216    6.0509    3.9597 C   0  0  1  0  0  0  0  0  0  0  0  0
   -3.8889    6.8182    5.2566 C   0  0  0  0  0  0  0  0  0  0  0  0
   -4.5093    3.4215    0.8288 O   0  0  0  0  0  0  0  0  0  0  0  0
   -5.3882    6.1401    0.5204 N   0  3  0  0  0  0  0  0  0  0  0  0
   -4.3564    7.9115    2.5541 O   0  0  0  0  0  0  0  0  0  0  0  0
   -3.9991    4.6627    4.2443 O   0  0  0  0  0  0  0  0  0  0  0  0
   -2.6903    6.8159    6.0192 O   0  0  0  0  0  0  0  0  0  0  0  0
   -1.1046    2.0242    2.1187 C   0  0  2  0  0  0  0  0  0  0  0  0
   -0.1658    0.9747    2.6978 C   0  0  0  0  0  0  0  0  0  0  0  0
    1.0169    1.6438    3.3983 C   0  0  1  0  0  0  0  0  0  0  0  0
    0.5077    2.5401    4.5249 C   0  0  2  0  0  0  0  0  0  0  0  0
   -0.4443    3.5969    3.9623 C   0  0  1  0  0  0  0  0  0  0  0  0
   -1.6087    2.9226    3.2377 C   0  0  1  0  0  0  0  0  0  0  0  0
   -2.2683    1.3830    1.4681 N   0  3  0  0  0  0  0  0  0  0  0  0
    1.9673    0.6100    3.8841 N   0  3  0  0  0  0  0  0  0  0  0  0
   -0.9378    4.4113    5.0174 O   0  0  0  0  0  0  0  0  0  0  0  0
   -2.4917    3.9219    2.6967 O   0  0  0  0  0  0  0  0  0  0  0  0
    2.4630    2.3440    5.9040 C   0  0  1  0  0  0  0  0  0  0  0  0
    2.8396    2.9860    7.2404 C   0  0  1  0  0  0  0  0  0  0  0  0
    3.6147    4.2741    7.0069 C   0  0  0  0  0  0  0  0  0  0  0  0
    4.8205    3.9809    6.1292 C   0  0  1  0  0  0  0  0  0  0  0  0
    4.3638    3.3229    4.8276 C   0  0  1  0  0  0  0  0  0  0  0  0
    5.5239    2.9473    3.9236 C   0  0  0  0  0  0  0  0  0  0  0  0
    1.6411    3.2043    8.0844 N   0  3  0  0  0  0  0  0  0  0  0  0
    6.1047    4.1398    3.2616 N   0  3  0  0  0  0  0  0  0  0  0  0
    1.6151    3.1809    5.1908 O   0  0  0  0  0  0  0  0  0  0  0  0
    5.5178    5.1850    5.8447 O   0  0  0  0  0  0  0  0  0  0  0  0
    3.6345    2.1096    5.1129 O   0  0  0  0  0  0  0  0  0  0  0  0
  1  2  1  0  0  0  0
  1 10  1  0  0  0  0
  1 21  1  6  0  0  0
  2  3  1  0  0  0  0
  2  7  1  6  0  0  0
  3  4  1  0  0  0  0
  3  8  1  6  0  0  0
  4  5  1  0  0  0  0
  4  9  1  6  0  0  0
  5  6  1  1  0  0  0
  5 10  1  0  0  0  0
  6 11  1  0  0  0  0
 12 13  1  0  0  0  0
 12 17  1  0  0  0  0
 12 18  1  1  0  0  0
 13 14  1  0  0  0  0
 14 15  1  0  0  0  0
 14 19  1  1  0  0  0
 15 16  1  0  0  0  0
 15 30  1  6  0  0  0
 16 17  1  0  0  0  0
 16 20  1  1  0  0  0
 17 21  1  6  0  0  0
 22 23  1  0  0  0  0
 22 30  1  6  0  0  0
 22 32  1  0  0  0  0
 23 24  1  0  0  0  0
 23 28  1  6  0  0  0
 24 25  1  0  0  0  0
 25 26  1  0  0  0  0
 25 31  1  6  0  0  0
 26 27  1  6  0  0  0
 26 32  1  0  0  0  0
 27 29  1  0  0  0  0
M  CHG  5   8   1  18   1  19   1  28   1  29   1
M  END
>  <CHROM.1>
-145.23257886,80.38420061,171.71465533,176.49221783,-152.39177139,-42.25475770
166.69036363,159.08104661,-66.98779083,-60.58759462,113.83978739,-138.04463960
-51.04658763,59.24979912,-74.86329612,160.91746567,-0.30786903,3.89384046
4.00925629,-3.11737489,-0.40395906,0.67946239

>  <Name>
1tob

>  <RI>
0

>  <Rbt.Current_Directory>
/home/itssahil/PROJECTS/Mol_Feturizer/New_Systems/rnas/1tob

>  <Rbt.Executable>
rbdock ($Id: //depot/dev/client3/rdock/2013.1/src/exe/rbdock.cxx#4 $)

>  <Rbt.Library>
libRbt.so (2013.1, Build901 2013/11/27)

>  <Rbt.Parameter_File>
/export/apps/rDock/src/rDock_2013.1_src/data/scripts/dock_solv.prm

>  <Rbt.Receptor>
prm/pocket_docking_7.prm

>  <SCORE>
-42.2075

>  <SCORE.INTER>
-36.04

>  <SCORE.INTER.CONST>
1

>  <SCORE.INTER.POLAR>
-4.43965

>  <SCORE.INTER.ROT>
6

>  <SCORE.INTER.SOLV>
26.9622

>  <SCORE.INTER.VDW>
-25.8152

>  <SCORE.INTER.norm>
-1.12625

>  <SCORE.INTRA>
-6.20175

>  <SCORE.INTRA.DIHEDRAL>
3.53031

>  <SCORE.INTRA.DIHEDRAL.0>
22.9177

>  <SCORE.INTRA.POLAR>
-2.83393

>  <SCORE.INTRA.POLAR.0>
-0.311208

>  <SCORE.INTRA.REPUL>
0

>  <SCORE.INTRA.REPUL.0>
0

>  <SCORE.INTRA.SOLV>
0.300706

>  <SCORE.INTRA.SOLV.lig_0>
-132.657

>  <SCORE.INTRA.VDW>
1.51812

>  <SCORE.INTRA.VDW.0>
-4.68867

>  <SCORE.INTRA.norm>
-0.193805

>  <SCORE.RESTR>
0.0342965

>  <SCORE.RESTR.CAVITY>
0.0342965

>  <SCORE.RESTR.norm>
0.00107177

>  <SCORE.SYSTEM>
0

>  <SCORE.SYSTEM.CONST>
0

>  <SCORE.SYSTEM.DIHEDRAL>
0

>  <SCORE.SYSTEM.SOLV>
0

>  <SCORE.SYSTEM.norm>
0

>  <SCORE.heavy>
32

>  <SCORE.norm>
-1.31898

>  <RMSD>
9.563

$$$$
1tob
 OpenBabel11021811413D
libRbt.so/2013.1/901 2013/11/27
 32 34  0  0  0  0  0  0  0  0999 V2000
   -4.0596    4.0280    2.9851 C   0  0  2  0  0  0  0  0  0  0  0  0
   -5.0587    4.7418    2.0776 C   0  0  1  0  0  0  0  0  0  0  0  0
   -4.6989    6.2181    1.9800 C   0  0  2  0  0  0  0  0  0  0  0  0
   -4.6338    6.8166    3.3800 C   0  0  1  0  0  0  0  0  0  0  0  0
   -3.6487    6.0259    4.2365 C   0  0  1  0  0  0  0  0  0  0  0  0
   -3.5963    6.5262    5.6667 C   0  0  0  0  0  0  0  0  0  0  0  0
   -5.0343    4.1564    0.7837 O   0  0  0  0  0  0  0  0  0  0  0  0
   -5.6522    6.9436    1.1127 N   0  3  0  0  0  0  0  0  0  0  0  0
   -4.2313    8.1775    3.3029 O   0  0  0  0  0  0  0  0  0  0  0  0
   -4.0378    4.6360    4.2827 O   0  0  0  0  0  0  0  0  0  0  0  0
   -3.4323    7.9364    5.7175 O   0  0  0  0  0  0  0  0  0  0  0  0
   -1.7724    1.9437    2.0424 C   0  0  2  0  0  0  0  0  0  0  0  0
   -0.7707    0.9408    2.5982 C   0  0  0  0  0  0  0  0  0  0  0  0
    0.6109    1.5823    2.7296 C   0  0  1  0  0  0  0  0  0  0  0  0
    0.5321    2.7865    3.6653 C   0  0  2  0  0  0  0  0  0  0  0  0
   -0.4765    3.8021    3.1265 C   0  0  1  0  0  0  0  0  0  0  0  0
   -1.8485    3.1474    2.9691 C   0  0  1  0  0  0  0  0  0  0  0  0
   -3.1187    1.3384    1.9440 N   0  3  0  0  0  0  0  0  0  0  0  0
    1.5959    0.5704    3.1920 N   0  3  0  0  0  0  0  0  0  0  0  0
   -0.5676    4.9083    4.0142 O   0  0  0  0  0  0  0  0  0  0  0  0
   -2.7887    4.1032    2.4464 O   0  0  0  0  0  0  0  0  0  0  0  0
    2.8547    2.5775    4.2361 C   0  0  1  0  0  0  0  0  0  0  0  0
    3.7863    3.3464    5.1746 C   0  0  1  0  0  0  0  0  0  0  0  0
    4.4567    4.4915    4.4306 C   0  0  0  0  0  0  0  0  0  0  0  0
    5.1700    3.9433    3.2054 C   0  0  1  0  0  0  0  0  0  0  0  0
    4.1794    3.1728    2.3332 C   0  0  1  0  0  0  0  0  0  0  0  0
    4.8360    2.5452    1.1170 C   0  0  0  0  0  0  0  0  0  0  0  0
    3.0619    3.8155    6.3794 N   0  3  0  0  0  0  0  0  0  0  0  0
    5.1785    1.1231    1.3579 N   0  3  0  0  0  0  0  0  0  0  0  0
    1.8297    3.4032    3.7937 O   0  0  0  0  0  0  0  0  0  0  0  0
    5.7443    5.0080    2.4615 O   0  0  0  0  0  0  0  0  0  0  0  0
    3.5758    2.1029    3.0924 O   0  0  0  0  0  0  0  0  0  0  0  0
  1  2  1  0  0  0  0
  1 10  1  0  0  0  0
  1 21  1  6  0  0  0
  2  3  1  0  0  0  0
  2  7  1  6  0  0  0
  3  4  1  0  0  0  0
  3  8  1  6  0  0  0
  4  5  1  0  0  0  0
  4  9  1  6  0  0  0
  5  6  1  1  0  0  0
  5 10  1  0  0  0  0
  6 11  1  0  0  0  0
 12 13  1  0  0  0  0
 12 17  1  0  0  0  0
 12 18  1  1  0  0  0
 13 14  1  0  0  0  0
 14 15  1  0  0  0  0
 14 19  1  1  0  0  0
 15 16  1  0  0  0  0
 15 30  1  6  0  0  0
 16 17  1  0  0  0  0
 16 20  1  1  0  0  0
 17 21  1  6  0  0  0
 22 23  1  0  0  0  0
 22 30  1  6  0  0  0
 22 32  1  0  0  0  0
 23 24  1  0  0  0  0
 23 28  1  1  0  0  0
 24 25  1  0  0  0  0
 25 26  1  0  0  0  0
 25 31  1  6  0  0  0
 26 27  1  6  0  0  0
 26 32  1  0  0  0  0
 27 29  1  0  0  0  0
M  CHG  5   8   1  18   1  19   1  28   1  29   1
M  END
>  <CHROM.1>
-161.82425301,-79.02205342,-54.32989207,-170.83175212,-49.52228403,-178.07425873
105.17034221,-89.42515689,-56.70566365,18.00740044,96.58585720,-142.12823428
172.36115341,171.36570211,96.68569553,104.84700790,-0.38081452,3.98628739
3.18121826,2.86237564,-0.19822544,0.55056704

>  <Name>
1tob

>  <RI>
0

>  <Rbt.Current_Directory>
/home/itssahil/PROJECTS/Mol_Feturizer/New_Systems/rnas/1tob

>  <Rbt.Executable>
rbdock ($Id: //depot/dev/client3/rdock/2013.1/src/exe/rbdock.cxx#4 $)

>  <Rbt.Library>
libRbt.so (2013.1, Build901 2013/11/27)

>  <Rbt.Parameter_File>
/export/apps/rDock/src/rDock_2013.1_src/data/scripts/dock_solv.prm

>  <Rbt.Receptor>
prm/blind_docking_80.prm

>  <SCORE>
-24.6153

>  <SCORE.INTER>
-40.1971

>  <SCORE.INTER.CONST>
1

>  <SCORE.INTER.POLAR>
-5.46707

>  <SCORE.INTER.ROT>
6

>  <SCORE.INTER.SOLV>
35.3705

>  <SCORE.INTER.VDW>
-27.9647

>  <SCORE.INTER.norm>
-1.25616

>  <SCORE.INTRA>
8.71042

>  <SCORE.INTRA.DIHEDRAL>
8.86974

>  <SCORE.INTRA.DIHEDRAL.0>
22.9177

>  <SCORE.INTRA.POLAR>
-1.27441

>  <SCORE.INTRA.POLAR.0>
-0.311208

>  <SCORE.INTRA.REPUL>
0.15322

>  <SCORE.INTRA.REPUL.0>
0

>  <SCORE.INTRA.SOLV>
1.27191

>  <SCORE.INTRA.SOLV.lig_0>
-132.657

>  <SCORE.INTRA.VDW>
7.20648

>  <SCORE.INTRA.VDW.0>
-4.68867

>  <SCORE.INTRA.norm>
0.272201

>  <SCORE.RESTR>
6.87134

>  <SCORE.RESTR.CAVITY>
6.87134

>  <SCORE.RESTR.norm>
0.214729

>  <SCORE.SYSTEM>
0

>  <SCORE.SYSTEM.CONST>
0

>  <SCORE.SYSTEM.DIHEDRAL>
0

>  <SCORE.SYSTEM.SOLV>
0

>  <SCORE.SYSTEM.norm>
0

>  <SCORE.heavy>
32

>  <SCORE.norm>
-0.769229

>  <RMSD>
9.584

$$$$
1tob
 OpenBabel11021811413D
libRbt.so/2013.1/901 2013/11/27
 32 34  0  0  0  0  0  0  0  0999 V2000
   -3.9538    4.5855    2.4439 C   0  0  2  0  0  0  0  0  0  0  0  0
   -4.6808    5.7429    1.7635 C   0  0  1  0  0  0  0  0  0  0  0  0
   -3.8609    7.0180    1.9059 C   0  0  2  0  0  0  0  0  0  0  0  0
   -3.5803    7.2769    3.3813 C   0  0  1  0  0  0  0  0  0  0  0  0
   -2.8925    6.0626    3.9990 C   0  0  1  0  0  0  0  0  0  0  0  0
   -2.6556    6.2285    5.4873 C   0  0  0  0  0  0  0  0  0  0  0  0
   -4.8706    5.4469    0.3873 O   0  0  0  0  0  0  0  0  0  0  0  0
   -4.5402    8.1639    1.2633 N   0  3  0  0  0  0  0  0  0  0  0  0
   -2.7574    8.4274    3.5196 O   0  0  0  0  0  0  0  0  0  0  0  0
   -3.7128    4.8871    3.8241 O   0  0  0  0  0  0  0  0  0  0  0  0
   -1.5278    5.4807    5.9197 O   0  0  0  0  0  0  0  0  0  0  0  0
   -2.0770    2.0304    1.8551 C   0  0  2  0  0  0  0  0  0  0  0  0
   -1.1722    1.0243    2.5532 C   0  0  0  0  0  0  0  0  0  0  0  0
    0.2911    1.4526    2.4392 C   0  0  1  0  0  0  0  0  0  0  0  0
    0.4766    2.8261    3.0802 C   0  0  2  0  0  0  0  0  0  0  0  0
   -0.4316    3.8491    2.3961 C   0  0  1  0  0  0  0  0  0  0  0  0
   -1.8899    3.4010    2.4873 C   0  0  1  0  0  0  0  0  0  0  0  0
   -3.4971    1.6384    1.9904 N   0  3  0  0  0  0  0  0  0  0  0  0
    1.1687    0.4205    3.0498 N   0  3  0  0  0  0  0  0  0  0  0  0
   -0.2767    5.1198    3.0136 O   0  0  0  0  0  0  0  0  0  0  0  0
   -2.7373    4.3590    1.8278 O   0  0  0  0  0  0  0  0  0  0  0  0
    2.7770    2.4743    3.6705 C   0  0  1  0  0  0  0  0  0  0  0  0
    3.6233    3.3620    4.5846 C   0  0  1  0  0  0  0  0  0  0  0  0
    4.4324    4.3503    3.7583 C   0  0  0  0  0  0  0  0  0  0  0  0
    5.2621    3.5887    2.7377 C   0  0  1  0  0  0  0  0  0  0  0  0
    4.3493    2.7119    1.8812 C   0  0  1  0  0  0  0  0  0  0  0  0
    5.1180    1.8750    0.8748 C   0  0  0  0  0  0  0  0  0  0  0  0
    2.7812    4.0426    5.5966 N   0  3  0  0  0  0  0  0  0  0  0  0
    4.9906    0.4264    1.1631 N   0  3  0  0  0  0  0  0  0  0  0  0
    1.8534    3.2430    2.9747 O   0  0  0  0  0  0  0  0  0  0  0  0
    5.9722    4.5003    1.9121 O   0  0  0  0  0  0  0  0  0  0  0  0
    3.6081    1.7984    2.7188 O   0  0  0  0  0  0  0  0  0  0  0  0
  1  2  1  0  0  0  0
  1 10  1  0  0  0  0
  1 21  1  6  0  0  0
  2  3  1  0  0  0  0
  2  7  1  6  0  0  0
  3  4  1  0  0  0  0
  3  8  1  1  0  0  0
  4  5  1  0  0  0  0
  4  9  1  6  0  0  0
  5  6  1  1  0  0  0
  5 10  1  0  0  0  0
  6 11  1  0  0  0  0
 12 13  1  0  0  0  0
 12 17  1  0  0  0  0
 12 18  1  1  0  0  0
 13 14  1  0  0  0  0
 14 15  1  0  0  0  0
 14 19  1  1  0  0  0
 15 16  1  0  0  0  0
 15 30  1  6  0  0  0
 16 17  1  0  0  0  0
 16 20  1  1  0  0  0
 17 21  1  6  0  0  0
 22 23  1  0  0  0  0
 22 30  1  6  0  0  0
 22 32  1  0  0  0  0
 23 24  1  0  0  0  0
 23 28  1  1  0  0  0
 24 25  1  0  0  0  0
 25 26  1  0  0  0  0
 25 31  1  6  0  0  0
 26 27  1  6  0  0  0
 26 32  1  0  0  0  0
 27 29  1  0  0  0  0
M  CHG  5   8   1  18   1  19   1  28   1  29   1
M  END
>  <CHROM.1>
172.59967978,68.71772668,63.99044822,177.82873636,-152.10369739,-65.41772492
94.94957937,156.89612602,-64.87556002,-54.52314367,95.52263171,-126.40213742
-64.95435533,-62.55479626,114.92043013,-61.41048523,-0.14399270,4.00541374
2.83125328,2.75520942,-0.17061713,0.39416458

>  <Name>
1tob

>  <RI>
0

>  <Rbt.Current_Directory>
/home/itssahil/PROJECTS/Mol_Feturizer/New_Systems/rnas/1tob

>  <Rbt.Executable>
rbdock ($Id: //depot/dev/client3/rdock/2013.1/src/exe/rbdock.cxx#4 $)

>  <Rbt.Library>
libRbt.so (2013.1, Build901 2013/11/27)

>  <Rbt.Parameter_File>
/export/apps/rDock/src/rDock_2013.1_src/data/scripts/dock_solv.prm

>  <Rbt.Receptor>
prm/blind_docking_100.prm

>  <SCORE>
-21.9439

>  <SCORE.INTER>
-33.7673

>  <SCORE.INTER.CONST>
1

>  <SCORE.INTER.POLAR>
-4.95902

>  <SCORE.INTER.ROT>
6

>  <SCORE.INTER.SOLV>
38.6586

>  <SCORE.INTER.VDW>
-26.4677

>  <SCORE.INTER.norm>
-1.05523

>  <SCORE.INTRA>
1.63493

>  <SCORE.INTRA.DIHEDRAL>
1.10001

>  <SCORE.INTRA.DIHEDRAL.0>
22.9177

>  <SCORE.INTRA.POLAR>
-0.891537

>  <SCORE.INTRA.POLAR.0>
-0.311208

>  <SCORE.INTRA.REPUL>
0.220519

>  <SCORE.INTRA.REPUL.0>
0

>  <SCORE.INTRA.SOLV>
-0.339397

>  <SCORE.INTRA.SOLV.lig_0>
-132.657

>  <SCORE.INTRA.VDW>
3.18326

>  <SCORE.INTRA.VDW.0>
-4.68867

>  <SCORE.INTRA.norm>
0.0510917

>  <SCORE.RESTR>
10.1885

>  <SCORE.RESTR.CAVITY>
10.1885

>  <SCORE.RESTR.norm>
0.318389

>  <SCORE.SYSTEM>
0

>  <SCORE.SYSTEM.CONST>
0

>  <SCORE.SYSTEM.DIHEDRAL>
0

>  <SCORE.SYSTEM.SOLV>
0

>  <SCORE.SYSTEM.norm>
0

>  <SCORE.heavy>
32

>  <SCORE.norm>
-0.685748

>  <RMSD>
9.589

$$$$
1tob
 OpenBabel11021811413D
libRbt.so/2013.1/901 2013/11/27
 32 34  0  0  0  0  0  0  0  0999 V2000
   -3.1182    3.9586    3.7949 C   0  0  2  0  0  0  0  0  0  0  0  0
   -3.7203    3.1661    2.6370 C   0  0  1  0  0  0  0  0  0  0  0  0
   -3.8762    4.0712    1.4226 C   0  0  2  0  0  0  0  0  0  0  0  0
   -4.7063    5.2910    1.8039 C   0  0  1  0  0  0  0  0  0  0  0  0
   -4.0650    6.0040    2.9911 C   0  0  1  0  0  0  0  0  0  0  0  0
   -4.8873    7.1850    3.4681 C   0  0  0  0  0  0  0  0  0  0  0  0
   -2.8740    2.0722    2.3135 O   0  0  0  0  0  0  0  0  0  0  0  0
   -4.4649    3.3369    0.2817 N   0  3  0  0  0  0  0  0  0  0  0  0
   -4.7992    6.1752    0.6950 O   0  0  0  0  0  0  0  0  0  0  0  0
   -3.9366    5.0936    4.1046 O   0  0  0  0  0  0  0  0  0  0  0  0
   -4.1816    7.9532    4.4324 O   0  0  0  0  0  0  0  0  0  0  0  0
    0.3994    3.6330    3.0449 C   0  0  2  0  0  0  0  0  0  0  0  0
    1.5477    2.8360    3.6486 C   0  0  0  0  0  0  0  0  0  0  0  0
    1.9886    3.4551    4.9752 C   0  0  1  0  0  0  0  0  0  0  0  0
    0.8154    3.4670    5.9526 C   0  0  2  0  0  0  0  0  0  0  0  0
   -0.3516    4.2574    5.3589 C   0  0  1  0  0  0  0  0  0  0  0  0
   -0.7686    3.6519    4.0190 C   0  0  1  0  0  0  0  0  0  0  0  0
   -0.0534    3.0194    1.7773 N   0  3  0  0  0  0  0  0  0  0  0  0
    3.1632    2.7192    5.5106 N   0  3  0  0  0  0  0  0  0  0  0  0
   -1.4512    4.2425    6.2593 O   0  0  0  0  0  0  0  0  0  0  0  0
   -1.8557    4.4096    3.4578 O   0  0  0  0  0  0  0  0  0  0  0  0
    0.7110    3.4515    8.3510 C   0  0  1  0  0  0  0  0  0  0  0  0
    0.5187    4.4918    9.4559 C   0  0  1  0  0  0  0  0  0  0  0  0
    1.8584    5.0932    9.8531 C   0  0  0  0  0  0  0  0  0  0  0  0
    2.8108    3.9767   10.2492 C   0  0  1  0  0  0  0  0  0  0  0  0
    2.9316    2.9711    9.1048 C   0  0  1  0  0  0  0  0  0  0  0  0
    3.8245    1.7938    9.4525 C   0  0  0  0  0  0  0  0  0  0  0  0
   -0.4569    5.5301    9.0476 N   0  3  0  0  0  0  0  0  0  0  0  0
    3.9528    0.8543    8.3129 N   0  3  0  0  0  0  0  0  0  0  0  0
    1.2184    4.0534    7.2072 O   0  0  0  0  0  0  0  0  0  0  0  0
    4.0882    4.5153   10.5577 O   0  0  0  0  0  0  0  0  0  0  0  0
    1.6315    2.4374    8.7724 O   0  0  0  0  0  0  0  0  0  0  0  0
  1  2  1  0  0  0  0
  1 10  1  0  0  0  0
  1 21  1  6  0  0  0
  2  3  1  0  0  0  0
  2  7  1  6  0  0  0
  3  4  1  0  0  0  0
  3  8  1  6  0  0  0
  4  5  1  0  0  0  0
  4  9  1  6  0  0  0
  5  6  1  1  0  0  0
  5 10  1  0  0  0  0
  6 11  1  0  0  0  0
 12 13  1  0  0  0  0
 12 17  1  0  0  0  0
 12 18  1  6  0  0  0
 13 14  1  0  0  0  0
 14 15  1  0  0  0  0
 14 19  1  1  0  0  0
 15 16  1  0  0  0  0
 15 30  1  1  0  0  0
 16 17  1  0  0  0  0
 16 20  1  1  0  0  0
 17 21  1  6  0  0  0
 22 23  1  0  0  0  0
 22 30  1  6  0  0  0
 22 32  1  0  0  0  0
 23 24  1  0  0  0  0
 23 28  1  6  0  0  0
 24 25  1  0  0  0  0
 25 26  1  0  0  0  0
 25 31  1  6  0  0  0
 26 27  1  1  0  0  0
 26 32  1  0  0  0  0
 27 29  1  0  0  0  0
M  CHG  5   8   1  18   1  19   1  28   1  29   1
M  END
>  <CHROM.1>
-101.84064050,129.86751828,-177.01927976,44.68167388,-171.08313758,-61.13209895
136.79054391,63.94629942,-140.75804595,-51.56888838,146.43649522,-148.36170475
-46.41433800,-59.64811295,-178.45751761,-177.76056501,-0.57413355,4.02862834
5.36185425,2.57207355,0.61734195,-2.07659702

>  <Name>
1tob

>  <RI>
0

>  <Rbt.Current_Directory>
/home/itssahil/PROJECTS/Mol_Feturizer/New_Systems/rnas/1tob

>  <Rbt.Executable>
rbdock ($Id: //depot/dev/client3/rdock/2013.1/src/exe/rbdock.cxx#4 $)

>  <Rbt.Library>
libRbt.so (2013.1, Build901 2013/11/27)

>  <Rbt.Parameter_File>
/export/apps/rDock/src/rDock_2013.1_src/data/scripts/dock_solv.prm

>  <Rbt.Receptor>
prm/pocket_docking_8.prm

>  <SCORE>
-61.5193

>  <SCORE.INTER>
-64.2174

>  <SCORE.INTER.CONST>
1

>  <SCORE.INTER.POLAR>
-9.66832

>  <SCORE.INTER.ROT>
6

>  <SCORE.INTER.SOLV>
31.7647

>  <SCORE.INTER.VDW>
-28.7721

>  <SCORE.INTER.norm>
-2.00679

>  <SCORE.INTRA>
2.69804

>  <SCORE.INTRA.DIHEDRAL>
8.03227

>  <SCORE.INTRA.DIHEDRAL.0>
22.9177

>  <SCORE.INTRA.POLAR>
-0.842958

>  <SCORE.INTRA.POLAR.0>
-0.311208

>  <SCORE.INTRA.REPUL>
0

>  <SCORE.INTRA.REPUL.0>
0

>  <SCORE.INTRA.SOLV>
2.17729

>  <SCORE.INTRA.SOLV.lig_0>
-132.657

>  <SCORE.INTRA.VDW>
0.459313

>  <SCORE.INTRA.VDW.0>
-4.68867

>  <SCORE.INTRA.norm>
0.0843136

>  <SCORE.RESTR>
0

>  <SCORE.RESTR.CAVITY>
0

>  <SCORE.RESTR.norm>
0

>  <SCORE.SYSTEM>
0

>  <SCORE.SYSTEM.CONST>
0

>  <SCORE.SYSTEM.DIHEDRAL>
0

>  <SCORE.SYSTEM.SOLV>
0

>  <SCORE.SYSTEM.norm>
0

>  <SCORE.heavy>
32

>  <SCORE.norm>
-1.92248

>  <RMSD>
9.597

$$$$
1tob
 OpenBabel11021811413D
libRbt.so/2013.1/901 2013/11/27
 32 34  0  0  0  0  0  0  0  0999 V2000
   -3.1878    4.5585    3.8024 C   0  0  2  0  0  0  0  0  0  0  0  0
   -3.8213    3.6055    2.7916 C   0  0  1  0  0  0  0  0  0  0  0  0
   -3.9998    4.3175    1.4577 C   0  0  2  0  0  0  0  0  0  0  0  0
   -4.8136    5.5888    1.6677 C   0  0  1  0  0  0  0  0  0  0  0  0
   -4.1406    6.4674    2.7187 C   0  0  1  0  0  0  0  0  0  0  0  0
   -4.9447    7.7147    3.0289 C   0  0  0  0  0  0  0  0  0  0  0  0
   -2.9893    2.4672    2.6192 O   0  0  0  0  0  0  0  0  0  0  0  0
   -4.6191    3.4245    0.4546 N   0  3  0  0  0  0  0  0  0  0  0  0
   -4.9267    6.2956    0.4399 O   0  0  0  0  0  0  0  0  0  0  0  0
   -3.9920    5.7350    3.9543 O   0  0  0  0  0  0  0  0  0  0  0  0
   -6.2745    7.3932    3.4114 O   0  0  0  0  0  0  0  0  0  0  0  0
    0.3145    4.1935    2.8647 C   0  0  2  0  0  0  0  0  0  0  0  0
    1.4562    3.3214    3.3689 C   0  0  0  0  0  0  0  0  0  0  0  0
    1.9082    3.7816    4.7551 C   0  0  1  0  0  0  0  0  0  0  0  0
    0.7385    3.6945    5.7328 C   0  0  2  0  0  0  0  0  0  0  0  0
   -0.4221    4.5590    5.2379 C   0  0  1  0  0  0  0  0  0  0  0  0
   -0.8500    4.1137    3.8399 C   0  0  1  0  0  0  0  0  0  0  0  0
   -0.1491    3.7323    1.5377 N   0  3  0  0  0  0  0  0  0  0  0  0
    3.0767    2.9777    5.1983 N   0  3  0  0  0  0  0  0  0  0  0  0
   -1.5187    4.4534    6.1358 O   0  0  0  0  0  0  0  0  0  0  0  0
   -1.9308    4.9413    3.3732 O   0  0  0  0  0  0  0  0  0  0  0  0
    0.3920    3.6638    8.1083 C   0  0  1  0  0  0  0  0  0  0  0  0
    1.0529    4.0392    9.4358 C   0  0  1  0  0  0  0  0  0  0  0  0
    2.4111    3.3650    9.5579 C   0  0  0  0  0  0  0  0  0  0  0  0
    2.2431    1.8646    9.3827 C   0  0  1  0  0  0  0  0  0  0  0  0
    1.5583    1.5743    8.0476 C   0  0  1  0  0  0  0  0  0  0  0  0
    1.3040    0.0937    7.8304 C   0  0  0  0  0  0  0  0  0  0  0  0
    1.1475    5.5104    9.5878 N   0  3  0  0  0  0  0  0  0  0  0  0
    2.5670   -0.6450    7.5921 N   0  3  0  0  0  0  0  0  0  0  0  0
    1.1519    4.1307    7.0441 O   0  0  0  0  0  0  0  0  0  0  0  0
    3.5109    1.2261    9.4259 O   0  0  0  0  0  0  0  0  0  0  0  0
    0.2782    2.2403    7.9901 O   0  0  0  0  0  0  0  0  0  0  0  0
  1  2  1  0  0  0  0
  1 10  1  0  0  0  0
  1 21  1  6  0  0  0
  2  3  1  0  0  0  0
  2  7  1  6  0  0  0
  3  4  1  0  0  0  0
  3  8  1  6  0  0  0
  4  5  1  0  0  0  0
  4  9  1  6  0  0  0
  5  6  1  1  0  0  0
  5 10  1  0  0  0  0
  6 11  1  0  0  0  0
 12 13  1  0  0  0  0
 12 17  1  0  0  0  0
 12 18  1  6  0  0  0
 13 14  1  0  0  0  0
 14 15  1  0  0  0  0
 14 19  1  1  0  0  0
 15 16  1  0  0  0  0
 15 30  1  1  0  0  0
 16 17  1  0  0  0  0
 16 20  1  1  0  0  0
 17 21  1  6  0  0  0
 22 23  1  0  0  0  0
 22 30  1  6  0  0  0
 22 32  1  0  0  0  0
 23 24  1  0  0  0  0
 23 28  1  6  0  0  0
 24 25  1  0  0  0  0
 25 26  1  0  0  0  0
 25 31  1  6  0  0  0
 26 27  1  1  0  0  0
 26 32  1  0  0  0  0
 27 29  1  0  0  0  0
M  CHG  5   8   1  18   1  19   1  28   1  29   1
M  END
>  <CHROM.1>
-91.45319441,-76.32943269,178.59374224,-60.85369671,54.75755678,68.92496539
-73.11037198,-178.36425414,-157.23091748,73.82436667,154.07057453,172.08011254
-168.17167829,68.77966217,-70.41138428,166.84756044,-0.86304245,3.87658207
5.05939359,2.66789886,0.71335916,-2.00180836

>  <Name>
1tob

>  <RI>
0

>  <Rbt.Current_Directory>
/home/itssahil/PROJECTS/Mol_Feturizer/New_Systems/rnas/1tob

>  <Rbt.Executable>
rbdock ($Id: //depot/dev/client3/rdock/2013.1/src/exe/rbdock.cxx#4 $)

>  <Rbt.Library>
libRbt.so (2013.1, Build901 2013/11/27)

>  <Rbt.Parameter_File>
/export/apps/rDock/src/rDock_2013.1_src/data/scripts/dock_solv.prm

>  <Rbt.Receptor>
prm/pocket_docking_6.prm

>  <SCORE>
-46.881

>  <SCORE.INTER>
-41.2065

>  <SCORE.INTER.CONST>
1

>  <SCORE.INTER.POLAR>
-5.50219

>  <SCORE.INTER.ROT>
6

>  <SCORE.INTER.SOLV>
31.0485

>  <SCORE.INTER.VDW>
-27.0798

>  <SCORE.INTER.norm>
-1.2877

>  <SCORE.INTRA>
-5.71955

>  <SCORE.INTRA.DIHEDRAL>
-9.13488

>  <SCORE.INTRA.DIHEDRAL.0>
22.9177

>  <SCORE.INTRA.POLAR>
-0.527374

>  <SCORE.INTRA.POLAR.0>
-0.311208

>  <SCORE.INTRA.REPUL>
0

>  <SCORE.INTRA.REPUL.0>
0

>  <SCORE.INTRA.SOLV>
-0.923404

>  <SCORE.INTRA.SOLV.lig_0>
-132.657

>  <SCORE.INTRA.VDW>
1.10267

>  <SCORE.INTRA.VDW.0>
-4.68867

>  <SCORE.INTRA.norm>
-0.178736

>  <SCORE.RESTR>
0.0450207

>  <SCORE.RESTR.CAVITY>
0.0450207

>  <SCORE.RESTR.norm>
0.0014069

>  <SCORE.SYSTEM>
0

>  <SCORE.SYSTEM.CONST>
0

>  <SCORE.SYSTEM.DIHEDRAL>
0

>  <SCORE.SYSTEM.SOLV>
0

>  <SCORE.SYSTEM.norm>
0

>  <SCORE.heavy>
32

>  <SCORE.norm>
-1.46503

>  <RMSD>
9.600

$$$$
1tob
 OpenBabel11021811413D
libRbt.so/2013.1/901 2013/11/27
 32 34  0  0  0  0  0  0  0  0999 V2000
   -3.6165    4.2179    3.7876 C   0  0  2  0  0  0  0  0  0  0  0  0
   -4.4122    3.6893    2.5965 C   0  0  1  0  0  0  0  0  0  0  0  0
   -4.7320    4.8341    1.6449 C   0  0  2  0  0  0  0  0  0  0  0  0
   -5.4605    5.9356    2.4054 C   0  0  1  0  0  0  0  0  0  0  0  0
   -4.6235    6.3806    3.6015 C   0  0  1  0  0  0  0  0  0  0  0  0
   -5.3304    7.4237    4.4446 C   0  0  0  0  0  0  0  0  0  0  0  0
   -3.6555    2.6983    1.9162 O   0  0  0  0  0  0  0  0  0  0  0  0
   -5.5104    4.3587    0.4806 N   0  3  0  0  0  0  0  0  0  0  0  0
   -5.7022    7.0377    1.5411 O   0  0  0  0  0  0  0  0  0  0  0  0
   -4.3467    5.2522    4.4590 O   0  0  0  0  0  0  0  0  0  0  0  0
   -4.5277    7.8347    5.5423 O   0  0  0  0  0  0  0  0  0  0  0  0
   -0.1742    4.1566    2.6425 C   0  0  2  0  0  0  0  0  0  0  0  0
    1.0499    3.3288    3.0090 C   0  0  0  0  0  0  0  0  0  0  0  0
    1.5829    3.7415    4.3812 C   0  0  1  0  0  0  0  0  0  0  0  0
    0.5000    3.5337    5.4376 C   0  0  2  0  0  0  0  0  0  0  0  0
   -0.7418    4.3524    5.0813 C   0  0  1  0  0  0  0  0  0  0  0  0
   -1.2525    3.9565    3.6963 C   0  0  1  0  0  0  0  0  0  0  0  0
   -0.7141    3.7390    1.3300 N   0  3  0  0  0  0  0  0  0  0  0  0
    2.8252    2.9864    4.6888 N   0  3  0  0  0  0  0  0  0  0  0  0
   -1.7572    4.1346    6.0517 O   0  0  0  0  0  0  0  0  0  0  0  0
   -2.4107    4.7417    3.3602 O   0  0  0  0  0  0  0  0  0  0  0  0
    0.4515    3.2431    7.8202 C   0  0  1  0  0  0  0  0  0  0  0  0
    1.1327    3.6863    9.1161 C   0  0  1  0  0  0  0  0  0  0  0  0
    2.6110    3.3285    9.0839 C   0  0  0  0  0  0  0  0  0  0  0  0
    2.7603    1.8400    8.8147 C   0  0  1  0  0  0  0  0  0  0  0  0
    2.0365    1.4747    7.5193 C   0  0  1  0  0  0  0  0  0  0  0  0
    2.0939   -0.0116    7.2163 C   0  0  0  0  0  0  0  0  0  0  0  0
    0.9163    5.1310    9.3659 N   0  3  0  0  0  0  0  0  0  0  0  0
    3.4828   -0.4595    6.9556 N   0  3  0  0  0  0  0  0  0  0  0  0
    0.9901    3.9242    6.7367 O   0  0  0  0  0  0  0  0  0  0  0  0
    4.1356    1.5009    8.7136 O   0  0  0  0  0  0  0  0  0  0  0  0
    0.6419    1.8386    7.6090 O   0  0  0  0  0  0  0  0  0  0  0  0
  1  2  1  0  0  0  0
  1 10  1  0  0  0  0
  1 21  1  6  0  0  0
  2  3  1  0  0  0  0
  2  7  1  6  0  0  0
  3  4  1  0  0  0  0
  3  8  1  6  0  0  0
  4  5  1  0  0  0  0
  4  9  1  6  0  0  0
  5  6  1  1  0  0  0
  5 10  1  0  0  0  0
  6 11  1  0  0  0  0
 12 13  1  0  0  0  0
 12 17  1  0  0  0  0
 12 18  1  6  0  0  0
 13 14  1  0  0  0  0
 14 15  1  0  0  0  0
 14 19  1  1  0  0  0
 15 16  1  0  0  0  0
 15 30  1  1  0  0  0
 16 17  1  0  0  0  0
 16 20  1  1  0  0  0
 17 21  1  6  0  0  0
 22 23  1  0  0  0  0
 22 30  1  6  0  0  0
 22 32  1  0  0  0  0
 23 24  1  0  0  0  0
 23 28  1  6  0  0  0
 24 25  1  0  0  0  0
 25 26  1  0  0  0  0
 25 31  1  6  0  0  0
 26 27  1  1  0  0  0
 26 32  1  0  0  0  0
 27 29  1  0  0  0  0
M  CHG  5   8   1  18   1  19   1  28   1  29   1
M  END
>  <CHROM.1>
-108.29735201,165.97130079,21.19463878,75.01125206,-179.31147969,-70.82841180
-55.35838426,62.41203863,-149.97196022,71.85149209,150.14679315,175.88182355
61.59104346,66.59269301,-64.94861953,46.87883813,-0.99491279,3.86749284,5.02109478
2.77624937,0.63950126,-1.99384031

>  <Name>
1tob

>  <RI>
0

>  <Rbt.Current_Directory>
/home/itssahil/PROJECTS/Mol_Feturizer/New_Systems/rnas/1tob

>  <Rbt.Executable>
rbdock ($Id: //depot/dev/client3/rdock/2013.1/src/exe/rbdock.cxx#4 $)

>  <Rbt.Library>
libRbt.so (2013.1, Build901 2013/11/27)

>  <Rbt.Parameter_File>
/export/apps/rDock/src/rDock_2013.1_src/data/scripts/dock_solv.prm

>  <Rbt.Receptor>
prm/pocket_docking_6.prm

>  <SCORE>
-51.3202

>  <SCORE.INTER>
-48.3787

>  <SCORE.INTER.CONST>
1

>  <SCORE.INTER.POLAR>
-6.85929

>  <SCORE.INTER.ROT>
6

>  <SCORE.INTER.SOLV>
26.2976

>  <SCORE.INTER.VDW>
-25.7541

>  <SCORE.INTER.norm>
-1.51184

>  <SCORE.INTRA>
-3.1571

>  <SCORE.INTRA.DIHEDRAL>
-2.37721

>  <SCORE.INTRA.DIHEDRAL.0>
22.9177

>  <SCORE.INTRA.POLAR>
-0.490466

>  <SCORE.INTRA.POLAR.0>
-0.311208

>  <SCORE.INTRA.REPUL>
0

>  <SCORE.INTRA.REPUL.0>
0

>  <SCORE.INTRA.SOLV>
-0.329311

>  <SCORE.INTRA.SOLV.lig_0>
-132.657

>  <SCORE.INTRA.VDW>
-0.13625

>  <SCORE.INTRA.VDW.0>
-4.68867

>  <SCORE.INTRA.norm>
-0.0986592

>  <SCORE.RESTR>
0.215622

>  <SCORE.RESTR.CAVITY>
0.215622

>  <SCORE.RESTR.norm>
0.00673818

>  <SCORE.SYSTEM>
0

>  <SCORE.SYSTEM.CONST>
0

>  <SCORE.SYSTEM.DIHEDRAL>
0

>  <SCORE.SYSTEM.SOLV>
0

>  <SCORE.SYSTEM.norm>
0

>  <SCORE.heavy>
32

>  <SCORE.norm>
-1.60376

>  <RMSD>
9.601

$$$$
1tob
 OpenBabel11021811413D
libRbt.so/2013.1/901 2013/11/27
 32 34  0  0  0  0  0  0  0  0999 V2000
   -2.8953    6.3488    2.6587 C   0  0  2  0  0  0  0  0  0  0  0  0
   -4.3649    6.6586    2.3836 C   0  0  1  0  0  0  0  0  0  0  0  0
   -4.5139    7.2340    0.9818 C   0  0  2  0  0  0  0  0  0  0  0  0
   -3.6116    8.4536    0.8371 C   0  0  1  0  0  0  0  0  0  0  0  0
   -2.1706    8.0746    1.1678 C   0  0  1  0  0  0  0  0  0  0  0  0
   -1.2342    9.2658    1.1165 C   0  0  0  0  0  0  0  0  0  0  0  0
   -5.1348    5.4705    2.4979 O   0  0  0  0  0  0  0  0  0  0  0  0
   -5.9268    7.5535    0.6834 N   0  3  0  0  0  0  0  0  0  0  0  0
   -3.6922    8.9565   -0.4898 O   0  0  0  0  0  0  0  0  0  0  0  0
   -2.0966    7.5285    2.5025 O   0  0  0  0  0  0  0  0  0  0  0  0
    0.1124    8.8777    1.3487 O   0  0  0  0  0  0  0  0  0  0  0  0
   -2.6922    3.0465    1.2280 C   0  0  2  0  0  0  0  0  0  0  0  0
   -2.5906    1.6397    1.8014 C   0  0  0  0  0  0  0  0  0  0  0  0
   -1.1793    1.3779    2.3279 C   0  0  1  0  0  0  0  0  0  0  0  0
   -0.8407    2.3917    3.4185 C   0  0  2  0  0  0  0  0  0  0  0  0
   -0.9456    3.8125    2.8622 C   0  0  1  0  0  0  0  0  0  0  0  0
   -2.3494    4.0585    2.3105 C   0  0  1  0  0  0  0  0  0  0  0  0
   -4.0647    3.3172    0.7469 N   0  3  0  0  0  0  0  0  0  0  0  0
   -1.0705   -0.0248    2.8063 N   0  3  0  0  0  0  0  0  0  0  0  0
   -0.6571    4.7538    3.8873 O   0  0  0  0  0  0  0  0  0  0  0  0
   -2.4367    5.3909    1.7739 O   0  0  0  0  0  0  0  0  0  0  0  0
    0.6082    1.1854    4.9050 C   0  0  1  0  0  0  0  0  0  0  0  0
    1.2094    1.7887    6.1756 C   0  0  1  0  0  0  0  0  0  0  0  0
    2.6204    2.2891    5.9053 C   0  0  0  0  0  0  0  0  0  0  0  0
    3.4544    1.1528    5.3363 C   0  0  1  0  0  0  0  0  0  0  0  0
    2.7778    0.5918    4.0862 C   0  0  1  0  0  0  0  0  0  0  0  0
    3.5272   -0.5887    3.4954 C   0  0  0  0  0  0  0  0  0  0  0  0
    0.3380    2.8543    6.7247 N   0  3  0  0  0  0  0  0  0  0  0  0
    4.5955   -0.1449    2.5683 N   0  3  0  0  0  0  0  0  0  0  0  0
    0.4911    2.1573    3.9202 O   0  0  0  0  0  0  0  0  0  0  0  0
    4.7561    1.6205    5.0142 O   0  0  0  0  0  0  0  0  0  0  0  0
    1.4451    0.1356    4.4042 O   0  0  0  0  0  0  0  0  0  0  0  0
  1  2  1  0  0  0  0
  1 10  1  0  0  0  0
  1 21  1  6  0  0  0
  2  3  1  0  0  0  0
  2  7  1  6  0  0  0
  3  4  1  0  0  0  0
  3  8  1  1  0  0  0
  4  5  1  0  0  0  0
  4  9  1  6  0  0  0
  5  6  1  1  0  0  0
  5 10  1  0  0  0  0
  6 11  1  0  0  0  0
 12 13  1  0  0  0  0
 12 17  1  0  0  0  0
 12 18  1  1  0  0  0
 13 14  1  0  0  0  0
 14 15  1  0  0  0  0
 14 19  1  1  0  0  0
 15 16  1  0  0  0  0
 15 30  1  6  0  0  0
 16 17  1  0  0  0  0
 16 20  1  1  0  0  0
 17 21  1  6  0  0  0
 22 23  1  0  0  0  0
 22 30  1  6  0  0  0
 22 32  1  0  0  0  0
 23 24  1  0  0  0  0
 23 28  1  6  0  0  0
 24 25  1  0  0  0  0
 25 26  1  0  0  0  0
 25 31  1  6  0  0  0
 26 27  1  1  0  0  0
 26 32  1  0  0  0  0
 27 29  1  0  0  0  0
M  CHG  5   8   1  18   1  19   1  28   1  29   1
M  END
>  <CHROM.1>
-101.36757260,68.31427375,-160.89276677,61.37285588,-176.50810230,65.64654893
93.21778382,175.92960988,-83.82080674,60.16044293,145.05576152,-121.13919309
-55.15817078,63.76230729,-86.08950872,-72.21434393,-0.89065131,3.99342188
2.84346059,-2.31769707,0.35489284,2.98608196

>  <Name>
1tob

>  <RI>
0

>  <Rbt.Current_Directory>
/home/itssahil/PROJECTS/Mol_Feturizer/New_Systems/rnas/1tob

>  <Rbt.Executable>
rbdock ($Id: //depot/dev/client3/rdock/2013.1/src/exe/rbdock.cxx#4 $)

>  <Rbt.Library>
libRbt.so (2013.1, Build901 2013/11/27)

>  <Rbt.Parameter_File>
/export/apps/rDock/src/rDock_2013.1_src/data/scripts/dock_solv.prm

>  <Rbt.Receptor>
prm/pocket_docking_7.prm

>  <SCORE>
-47.5785

>  <SCORE.INTER>
-40.9938

>  <SCORE.INTER.CONST>
1

>  <SCORE.INTER.POLAR>
-6.03352

>  <SCORE.INTER.ROT>
6

>  <SCORE.INTER.SOLV>
24.0953

>  <SCORE.INTER.VDW>
-22.8493

>  <SCORE.INTER.norm>
-1.28106

>  <SCORE.INTRA>
-6.58465

>  <SCORE.INTRA.DIHEDRAL>
3.11919

>  <SCORE.INTRA.DIHEDRAL.0>
22.9177

>  <SCORE.INTRA.POLAR>
-2.35906

>  <SCORE.INTRA.POLAR.0>
-0.311208

>  <SCORE.INTRA.REPUL>
0

>  <SCORE.INTRA.REPUL.0>
0

>  <SCORE.INTRA.SOLV>
-0.583444

>  <SCORE.INTRA.SOLV.lig_0>
-132.657

>  <SCORE.INTRA.VDW>
0.168282

>  <SCORE.INTRA.VDW.0>
-4.68867

>  <SCORE.INTRA.norm>
-0.20577

>  <SCORE.RESTR>
0

>  <SCORE.RESTR.CAVITY>
0

>  <SCORE.RESTR.norm>
0

>  <SCORE.SYSTEM>
0

>  <SCORE.SYSTEM.CONST>
0

>  <SCORE.SYSTEM.DIHEDRAL>
0

>  <SCORE.SYSTEM.SOLV>
0

>  <SCORE.SYSTEM.norm>
0

>  <SCORE.heavy>
32

>  <SCORE.norm>
-1.48683

>  <RMSD>
9.616

$$$$
1tob
 OpenBabel11021811413D
libRbt.so/2013.1/901 2013/11/27
 32 34  0  0  0  0  0  0  0  0999 V2000
   -2.9752    4.1624    3.8667 C   0  0  2  0  0  0  0  0  0  0  0  0
   -3.5939    3.2797    2.7855 C   0  0  1  0  0  0  0  0  0  0  0  0
   -3.8356    4.1030    1.5277 C   0  0  2  0  0  0  0  0  0  0  0  0
   -4.6960    5.3128    1.8725 C   0  0  1  0  0  0  0  0  0  0  0  0
   -4.0337    6.1195    2.9860 C   0  0  1  0  0  0  0  0  0  0  0  0
   -4.8807    7.2966    3.4280 C   0  0  0  0  0  0  0  0  0  0  0  0
   -2.7200    2.1996    2.4902 O   0  0  0  0  0  0  0  0  0  0  0  0
   -4.4426    3.2798    0.4593 N   0  3  0  0  0  0  0  0  0  0  0  0
   -4.8695    6.1240    0.7184 O   0  0  0  0  0  0  0  0  0  0  0  0
   -3.8235    5.2837    4.1446 O   0  0  0  0  0  0  0  0  0  0  0  0
   -5.7056    6.9563    4.5334 O   0  0  0  0  0  0  0  0  0  0  0  0
    0.5586    4.0683    2.9773 C   0  0  2  0  0  0  0  0  0  0  0  0
    1.7581    3.2922    3.5035 C   0  0  0  0  0  0  0  0  0  0  0  0
    2.1511    3.7935    4.8933 C   0  0  1  0  0  0  0  0  0  0  0  0
    0.9774    3.6185    5.8543 C   0  0  2  0  0  0  0  0  0  0  0  0
   -0.2405    4.3857    5.3371 C   0  0  1  0  0  0  0  0  0  0  0  0
   -0.6105    3.9010    3.9357 C   0  0  1  0  0  0  0  0  0  0  0  0
    0.1531    3.5652    1.6465 N   0  3  0  0  0  0  0  0  0  0  0  0
    3.3729    3.0872    5.3585 N   0  3  0  0  0  0  0  0  0  0  0  0
   -1.3388    4.1976    6.2195 O   0  0  0  0  0  0  0  0  0  0  0  0
   -1.7465    4.6378    3.4482 O   0  0  0  0  0  0  0  0  0  0  0  0
    0.7434    3.4304    8.2363 C   0  0  1  0  0  0  0  0  0  0  0  0
    0.4365    4.4151    9.3659 C   0  0  1  0  0  0  0  0  0  0  0  0
    1.7251    5.0186    9.9041 C   0  0  0  0  0  0  0  0  0  0  0  0
    2.6619    3.9003   10.3307 C   0  0  1  0  0  0  0  0  0  0  0  0
    2.9003    2.9508    9.1571 C   0  0  1  0  0  0  0  0  0  0  0  0
    3.7833    1.7730    9.5276 C   0  0  0  0  0  0  0  0  0  0  0  0
   -0.5209    5.4555    8.9217 N   0  3  0  0  0  0  0  0  0  0  0  0
    3.2039    0.9904   10.6455 N   0  3  0  0  0  0  0  0  0  0  0  0
    1.3350    4.0926    7.1688 O   0  0  0  0  0  0  0  0  0  0  0  0
    3.8972    4.4442   10.7724 O   0  0  0  0  0  0  0  0  0  0  0  0
    1.6444    2.4126    8.6898 O   0  0  0  0  0  0  0  0  0  0  0  0
  1  2  1  0  0  0  0
  1 10  1  0  0  0  0
  1 21  1  6  0  0  0
  2  3  1  0  0  0  0
  2  7  1  6  0  0  0
  3  4  1  0  0  0  0
  3  8  1  6  0  0  0
  4  5  1  0  0  0  0
  4  9  1  6  0  0  0
  5  6  1  1  0  0  0
  5 10  1  0  0  0  0
  6 11  1  0  0  0  0
 12 13  1  0  0  0  0
 12 17  1  0  0  0  0
 12 18  1  6  0  0  0
 13 14  1  0  0  0  0
 14 15  1  0  0  0  0
 14 19  1  1  0  0  0
 15 16  1  0  0  0  0
 15 30  1  1  0  0  0
 16 17  1  0  0  0  0
 16 20  1  1  0  0  0
 17 21  1  6  0  0  0
 22 23  1  0  0  0  0
 22 30  1  6  0  0  0
 22 32  1  0  0  0  0
 23 24  1  0  0  0  0
 23 28  1  6  0  0  0
 24 25  1  0  0  0  0
 25 26  1  0  0  0  0
 25 31  1  6  0  0  0
 26 27  1  1  0  0  0
 26 32  1  0  0  0  0
 27 29  1  0  0  0  0
M  CHG  5   8   1  18   1  19   1  28   1  29   1
M  END
>  <CHROM.1>
-97.97526397,-71.78780451,178.87741927,179.33153641,93.33366552,-40.36067174
168.54917957,-175.61176426,-147.90053639,-53.23250424,154.38478883,-144.10143919
79.68044004,-72.27534639,58.14015045,-60.78753880,-0.60456563,4.10191471
5.45102532,2.45326128,0.51554932,-1.87175617

>  <Name>
1tob

>  <RI>
0

>  <Rbt.Current_Directory>
/home/itssahil/PROJECTS/Mol_Feturizer/New_Systems/rnas/1tob

>  <Rbt.Executable>
rbdock ($Id: //depot/dev/client3/rdock/2013.1/src/exe/rbdock.cxx#4 $)

>  <Rbt.Library>
libRbt.so (2013.1, Build901 2013/11/27)

>  <Rbt.Parameter_File>
/export/apps/rDock/src/rDock_2013.1_src/data/scripts/dock_solv.prm

>  <Rbt.Receptor>
prm/pocket_docking_8.prm

>  <SCORE>
-53.6676

>  <SCORE.INTER>
-56.0577

>  <SCORE.INTER.CONST>
1

>  <SCORE.INTER.POLAR>
-7.83803

>  <SCORE.INTER.ROT>
6

>  <SCORE.INTER.SOLV>
35.4049

>  <SCORE.INTER.VDW>
-30.6467

>  <SCORE.INTER.norm>
-1.7518

>  <SCORE.INTRA>
2.39018

>  <SCORE.INTRA.DIHEDRAL>
1.23749

>  <SCORE.INTRA.DIHEDRAL.0>
22.9177

>  <SCORE.INTRA.POLAR>
0.260313

>  <SCORE.INTRA.POLAR.0>
-0.311208

>  <SCORE.INTRA.REPUL>
0

>  <SCORE.INTRA.REPUL.0>
0

>  <SCORE.INTRA.SOLV>
-0.910842

>  <SCORE.INTRA.SOLV.lig_0>
-132.657

>  <SCORE.INTRA.VDW>
1.34179

>  <SCORE.INTRA.VDW.0>
-4.68867

>  <SCORE.INTRA.norm>
0.074693

>  <SCORE.RESTR>
0

>  <SCORE.RESTR.CAVITY>
0

>  <SCORE.RESTR.norm>
0

>  <SCORE.SYSTEM>
0

>  <SCORE.SYSTEM.CONST>
0

>  <SCORE.SYSTEM.DIHEDRAL>
0

>  <SCORE.SYSTEM.SOLV>
0

>  <SCORE.SYSTEM.norm>
0

>  <SCORE.heavy>
32

>  <SCORE.norm>
-1.67711

>  <RMSD>
9.638

$$$$
1tob
 OpenBabel11021811413D
libRbt.so/2013.1/901 2013/11/27
 32 34  0  0  0  0  0  0  0  0999 V2000
   -4.0437    4.9568    3.7968 C   0  0  2  0  0  0  0  0  0  0  0  0
   -5.0576    5.4856    2.7851 C   0  0  1  0  0  0  0  0  0  0  0  0
   -4.7163    6.9242    2.4214 C   0  0  2  0  0  0  0  0  0  0  0  0
   -4.6488    7.7646    3.6909 C   0  0  1  0  0  0  0  0  0  0  0  0
   -3.6484    7.1508    4.6664 C   0  0  1  0  0  0  0  0  0  0  0  0
   -3.5923    7.8999    5.9833 C   0  0  0  0  0  0  0  0  0  0  0  0
   -5.0350    4.6781    1.6168 O   0  0  0  0  0  0  0  0  0  0  0  0
   -5.6843    7.4724    1.4467 N   0  3  0  0  0  0  0  0  0  0  0  0
   -4.2633    9.0939    3.3676 O   0  0  0  0  0  0  0  0  0  0  0  0
   -4.0204    5.7877    4.9642 O   0  0  0  0  0  0  0  0  0  0  0  0
   -4.8944    8.1961    6.4677 O   0  0  0  0  0  0  0  0  0  0  0  0
   -1.4708    3.3296    2.0038 C   0  0  2  0  0  0  0  0  0  0  0  0
   -0.7226    2.0094    2.1287 C   0  0  0  0  0  0  0  0  0  0  0  0
    0.3824    2.1187    3.1797 C   0  0  1  0  0  0  0  0  0  0  0  0
   -0.2276    2.4815    4.5317 C   0  0  2  0  0  0  0  0  0  0  0  0
   -0.9908    3.8025    4.4233 C   0  0  1  0  0  0  0  0  0  0  0  0
   -2.0743    3.6969    3.3507 C   0  0  1  0  0  0  0  0  0  0  0  0
   -2.5627    3.2201    1.0117 N   0  3  0  0  0  0  0  0  0  0  0  0
    1.1581    0.8523    3.2309 N   0  3  0  0  0  0  0  0  0  0  0  0
   -1.5804    4.1226    5.6763 O   0  0  0  0  0  0  0  0  0  0  0  0
   -2.7776    4.9477    3.2420 O   0  0  0  0  0  0  0  0  0  0  0  0
    0.4639    2.1736    6.8101 C   0  0  1  0  0  0  0  0  0  0  0  0
    1.0542    3.1233    7.8538 C   0  0  1  0  0  0  0  0  0  0  0  0
    2.5740    3.0954    7.7925 C   0  0  0  0  0  0  0  0  0  0  0  0
    3.0556    1.6629    7.9547 C   0  0  1  0  0  0  0  0  0  0  0  0
    2.4060    0.7766    6.8926 C   0  0  1  0  0  0  0  0  0  0  0  0
    2.7969   -0.6836    7.0303 C   0  0  0  0  0  0  0  0  0  0  0  0
    0.5170    4.4950    7.6919 N   0  3  0  0  0  0  0  0  0  0  0  0
    3.9752   -1.0118    6.1927 N   0  3  0  0  0  0  0  0  0  0  0  0
    0.8065    2.5920    5.5311 O   0  0  0  0  0  0  0  0  0  0  0  0
    4.4694    1.6095    7.8316 O   0  0  0  0  0  0  0  0  0  0  0  0
    0.9675    0.8455    6.9993 O   0  0  0  0  0  0  0  0  0  0  0  0
  1  2  1  0  0  0  0
  1 10  1  0  0  0  0
  1 21  1  6  0  0  0
  2  3  1  0  0  0  0
  2  7  1  6  0  0  0
  3  4  1  0  0  0  0
  3  8  1  6  0  0  0
  4  5  1  0  0  0  0
  4  9  1  6  0  0  0
  5  6  1  1  0  0  0
  5 10  1  0  0  0  0
  6 11  1  0  0  0  0
 12 13  1  0  0  0  0
 12 17  1  0  0  0  0
 12 18  1  6  0  0  0
 13 14  1  0  0  0  0
 14 15  1  0  0  0  0
 14 19  1  1  0  0  0
 15 16  1  0  0  0  0
 15 30  1  1  0  0  0
 16 17  1  0  0  0  0
 16 20  1  1  0  0  0
 17 21  1  6  0  0  0
 22 23  1  0  0  0  0
 22 30  1  6  0  0  0
 22 32  1  0  0  0  0
 23 24  1  0  0  0  0
 23 28  1  6  0  0  0
 24 25  1  0  0  0  0
 25 26  1  0  0  0  0
 25 31  1  6  0  0  0
 26 27  1  1  0  0  0
 26 32  1  0  0  0  0
 27 29  1  0  0  0  0
M  CHG  5   8   1  18   1  19   1  28   1  29   1
M  END
>  <CHROM.1>
-128.52814661,173.63081887,59.85592917,-177.34724668,45.26649814,-159.15954063
-114.44194492,81.06969462,-145.01864986,-33.04351437,132.63856333,-139.92768468
-78.53997634,170.02341310,-92.80335221,61.74009684,-1.17924858,3.91178289
4.75917194,3.08281486,-0.75596363,0.94767193

>  <Name>
1tob

>  <RI>
0

>  <Rbt.Current_Directory>
/home/itssahil/PROJECTS/Mol_Feturizer/New_Systems/rnas/1tob

>  <Rbt.Executable>
rbdock ($Id: //depot/dev/client3/rdock/2013.1/src/exe/rbdock.cxx#4 $)

>  <Rbt.Library>
libRbt.so (2013.1, Build901 2013/11/27)

>  <Rbt.Parameter_File>
/export/apps/rDock/src/rDock_2013.1_src/data/scripts/dock_solv.prm

>  <Rbt.Receptor>
prm/pocket_docking_7.prm

>  <SCORE>
-28.6123

>  <SCORE.INTER>
-31.7407

>  <SCORE.INTER.CONST>
1

>  <SCORE.INTER.POLAR>
-4.41141

>  <SCORE.INTER.ROT>
6

>  <SCORE.INTER.SOLV>
23.7113

>  <SCORE.INTER.VDW>
-21.9595

>  <SCORE.INTER.norm>
-0.991897

>  <SCORE.INTRA>
3.12837

>  <SCORE.INTRA.DIHEDRAL>
15.0668

>  <SCORE.INTRA.DIHEDRAL.0>
22.9177

>  <SCORE.INTRA.POLAR>
-1.58706

>  <SCORE.INTRA.POLAR.0>
-0.311208

>  <SCORE.INTRA.REPUL>
0

>  <SCORE.INTRA.REPUL.0>
0

>  <SCORE.INTRA.SOLV>
0.399183

>  <SCORE.INTRA.SOLV.lig_0>
-132.657

>  <SCORE.INTRA.VDW>
0.791393

>  <SCORE.INTRA.VDW.0>
-4.68867

>  <SCORE.INTRA.norm>
0.0977616

>  <SCORE.RESTR>
0

>  <SCORE.RESTR.CAVITY>
0

>  <SCORE.RESTR.norm>
0

>  <SCORE.SYSTEM>
0

>  <SCORE.SYSTEM.CONST>
0

>  <SCORE.SYSTEM.DIHEDRAL>
0

>  <SCORE.SYSTEM.SOLV>
0

>  <SCORE.SYSTEM.norm>
0

>  <SCORE.heavy>
32

>  <SCORE.norm>
-0.894135

>  <RMSD>
9.642

$$$$
1tob
 OpenBabel11021811413D
libRbt.so/2013.1/901 2013/11/27
 32 34  0  0  0  0  0  0  0  0999 V2000
   -3.2372    5.1652    2.8468 C   0  0  2  0  0  0  0  0  0  0  0  0
   -3.5881    6.5154    3.4672 C   0  0  1  0  0  0  0  0  0  0  0  0
   -5.0914    6.6005    3.6935 C   0  0  2  0  0  0  0  0  0  0  0  0
   -5.8164    6.3439    2.3778 C   0  0  1  0  0  0  0  0  0  0  0  0
   -5.3830    4.9991    1.8008 C   0  0  1  0  0  0  0  0  0  0  0  0
   -6.0131    4.7205    0.4503 C   0  0  0  0  0  0  0  0  0  0  0  0
   -2.9083    6.6653    4.7053 O   0  0  0  0  0  0  0  0  0  0  0  0
   -5.4689    7.9011    4.2879 N   0  3  0  0  0  0  0  0  0  0  0  0
   -7.2212    6.3533    2.5932 O   0  0  0  0  0  0  0  0  0  0  0  0
   -3.9508    4.9775    1.6182 O   0  0  0  0  0  0  0  0  0  0  0  0
   -7.3990    4.4340    0.5734 O   0  0  0  0  0  0  0  0  0  0  0  0
   -2.3162    2.5511    2.3919 C   0  0  2  0  0  0  0  0  0  0  0  0
   -1.2999    1.4211    2.4829 C   0  0  0  0  0  0  0  0  0  0  0  0
   -0.0137    1.9115    3.1483 C   0  0  1  0  0  0  0  0  0  0  0  0
   -0.3241    2.4238    4.5530 C   0  0  2  0  0  0  0  0  0  0  0  0
   -1.3507    3.5553    4.4817 C   0  0  1  0  0  0  0  0  0  0  0  0
   -2.6228    3.0677    3.7891 C   0  0  1  0  0  0  0  0  0  0  0  0
   -3.5751    2.0739    1.7787 N   0  3  0  0  0  0  0  0  0  0  0  0
    0.9988    0.8238    3.1541 N   0  3  0  0  0  0  0  0  0  0  0  0
   -1.6578    4.0105    5.7926 O   0  0  0  0  0  0  0  0  0  0  0  0
   -3.5781    4.1411    3.7105 O   0  0  0  0  0  0  0  0  0  0  0  0
    1.5546    1.9687    5.9768 C   0  0  1  0  0  0  0  0  0  0  0  0
    2.1509    2.6546    7.2071 C   0  0  1  0  0  0  0  0  0  0  0  0
    3.1878    3.6850    6.7858 C   0  0  0  0  0  0  0  0  0  0  0  0
    4.2367    3.0129    5.9150 C   0  0  1  0  0  0  0  0  0  0  0  0
    3.5610    2.3347    4.7237 C   0  0  1  0  0  0  0  0  0  0  0  0
    4.5448    1.5909    3.8388 C   0  0  0  0  0  0  0  0  0  0  0  0
    1.0897    3.2488    8.0540 N   0  3  0  0  0  0  0  0  0  0  0  0
    3.9408    0.3636    3.2673 N   0  3  0  0  0  0  0  0  0  0  0  0
    0.8819    2.8937    5.1895 O   0  0  0  0  0  0  0  0  0  0  0  0
    5.1754    3.9749    5.4564 O   0  0  0  0  0  0  0  0  0  0  0  0
    2.5891    1.3715    5.1853 O   0  0  0  0  0  0  0  0  0  0  0  0
  1  2  1  0  0  0  0
  1 10  1  0  0  0  0
  1 21  1  1  0  0  0
  2  3  1  0  0  0  0
  2  7  1  1  0  0  0
  3  4  1  0  0  0  0
  3  8  1  6  0  0  0
  4  5  1  0  0  0  0
  4  9  1  1  0  0  0
  5  6  1  6  0  0  0
  5 10  1  0  0  0  0
  6 11  1  0  0  0  0
 12 13  1  0  0  0  0
 12 17  1  0  0  0  0
 12 18  1  1  0  0  0
 13 14  1  0  0  0  0
 14 15  1  0  0  0  0
 14 19  1  1  0  0  0
 15 16  1  0  0  0  0
 15 30  1  6  0  0  0
 16 17  1  0  0  0  0
 16 20  1  1  0  0  0
 17 21  1  6  0  0  0
 22 23  1  0  0  0  0
 22 30  1  6  0  0  0
 22 32  1  0  0  0  0
 23 24  1  0  0  0  0
 23 28  1  6  0  0  0
 24 25  1  0  0  0  0
 25 26  1  0  0  0  0
 25 31  1  6  0  0  0
 26 27  1  1  0  0  0
 26 32  1  0  0  0  0
 27 29  1  0  0  0  0
M  CHG  5   8   1  18   1  19   1  28   1  29   1
M  END
>  <CHROM.1>
-139.22917535,-45.02538092,-38.34378314,69.93384555,-71.64280822,50.78960217
50.60477164,-137.57667084,-93.27732666,74.44996134,-52.90496930,-143.20829259
-164.71608918,59.67833563,145.40873055,-145.41520499,-1.24290704,3.69273853
3.92159366,-3.10802236,0.47076268,-2.36562857

>  <Name>
1tob

>  <RI>
0

>  <Rbt.Current_Directory>
/home/itssahil/PROJECTS/Mol_Feturizer/New_Systems/rnas/1tob

>  <Rbt.Executable>
rbdock ($Id: //depot/dev/client3/rdock/2013.1/src/exe/rbdock.cxx#4 $)

>  <Rbt.Library>
libRbt.so (2013.1, Build901 2013/11/27)

>  <Rbt.Parameter_File>
/export/apps/rDock/src/rDock_2013.1_src/data/scripts/dock_solv.prm

>  <Rbt.Receptor>
prm/pocket_docking_6.prm

>  <SCORE>
-40.6316

>  <SCORE.INTER>
-43.5515

>  <SCORE.INTER.CONST>
1

>  <SCORE.INTER.POLAR>
-6.1337

>  <SCORE.INTER.ROT>
6

>  <SCORE.INTER.SOLV>
26.1367

>  <SCORE.INTER.VDW>
-24.9009

>  <SCORE.INTER.norm>
-1.36099

>  <SCORE.INTRA>
2.88908

>  <SCORE.INTRA.DIHEDRAL>
5.35373

>  <SCORE.INTRA.DIHEDRAL.0>
22.9177

>  <SCORE.INTRA.POLAR>
-2.19458

>  <SCORE.INTRA.POLAR.0>
-0.311208

>  <SCORE.INTRA.REPUL>
0

>  <SCORE.INTRA.REPUL.0>
0

>  <SCORE.INTRA.SOLV>
7.75535

>  <SCORE.INTRA.SOLV.lig_0>
-132.657

>  <SCORE.INTRA.VDW>
3.79611

>  <SCORE.INTRA.VDW.0>
-4.68867

>  <SCORE.INTRA.norm>
0.0902838

>  <SCORE.RESTR>
0.0309014

>  <SCORE.RESTR.CAVITY>
0.0309014

>  <SCORE.RESTR.norm>
0.000965668

>  <SCORE.SYSTEM>
0

>  <SCORE.SYSTEM.CONST>
0

>  <SCORE.SYSTEM.DIHEDRAL>
0

>  <SCORE.SYSTEM.SOLV>
0

>  <SCORE.SYSTEM.norm>
0

>  <SCORE.heavy>
32

>  <SCORE.norm>
-1.26974

>  <RMSD>
9.678

$$$$
1tob
 OpenBabel11021811413D
libRbt.so/2013.1/901 2013/11/27
 32 34  0  0  0  0  0  0  0  0999 V2000
   -3.9424    3.9841    2.9126 C   0  0  2  0  0  0  0  0  0  0  0  0
   -4.9409    4.2896    1.7986 C   0  0  1  0  0  0  0  0  0  0  0  0
   -4.7973    5.7422    1.3655 C   0  0  2  0  0  0  0  0  0  0  0  0
   -4.9628    6.6503    2.5782 C   0  0  1  0  0  0  0  0  0  0  0  0
   -3.9615    6.2570    3.6608 C   0  0  1  0  0  0  0  0  0  0  0  0
   -4.1279    7.0759    4.9258 C   0  0  0  0  0  0  0  0  0  0  0  0
   -4.6999    3.4337    0.6910 O   0  0  0  0  0  0  0  0  0  0  0  0
   -5.7565    6.0759    0.2904 N   0  3  0  0  0  0  0  0  0  0  0  0
   -4.7621    8.0044    2.1958 O   0  0  0  0  0  0  0  0  0  0  0  0
   -4.1417    4.8704    4.0212 O   0  0  0  0  0  0  0  0  0  0  0  0
   -2.9129    7.1530    5.6578 O   0  0  0  0  0  0  0  0  0  0  0  0
   -1.7211    1.9378    2.1041 C   0  0  2  0  0  0  0  0  0  0  0  0
   -0.7067    0.9393    2.6446 C   0  0  0  0  0  0  0  0  0  0  0  0
    0.6967    1.5460    2.6369 C   0  0  1  0  0  0  0  0  0  0  0  0
    0.7182    2.8040    3.5023 C   0  0  2  0  0  0  0  0  0  0  0  0
   -0.3016    3.8163    2.9784 C   0  0  1  0  0  0  0  0  0  0  0  0
   -1.6976    3.1946    2.9604 C   0  0  1  0  0  0  0  0  0  0  0  0
   -3.0858    1.3680    2.1399 N   0  3  0  0  0  0  0  0  0  0  0  0
    1.6873    0.5337    3.0862 N   0  3  0  0  0  0  0  0  0  0  0  0
   -0.2985    4.9741    3.8028 O   0  0  0  0  0  0  0  0  0  0  0  0
   -2.6495    4.1461    2.4511 O   0  0  0  0  0  0  0  0  0  0  0  0
    3.0585    2.5872    3.9919 C   0  0  1  0  0  0  0  0  0  0  0  0
    4.0640    3.4333    4.7748 C   0  0  1  0  0  0  0  0  0  0  0  0
    4.7277    4.4481    3.8562 C   0  0  0  0  0  0  0  0  0  0  0  0
    5.3549    3.7217    2.6775 C   0  0  1  0  0  0  0  0  0  0  0  0
    4.2942    2.8846    1.9634 C   0  0  1  0  0  0  0  0  0  0  0  0
    4.8628    2.0828    0.8067 C   0  0  0  0  0  0  0  0  0  0  0  0
    3.4221    4.0792    5.9441 N   0  3  0  0  0  0  0  0  0  0  0  0
    5.5180    0.8393    1.2781 N   0  3  0  0  0  0  0  0  0  0  0  0
    2.0369    3.3882    3.4991 O   0  0  0  0  0  0  0  0  0  0  0  0
    5.9203    4.6604    1.7741 O   0  0  0  0  0  0  0  0  0  0  0  0
    3.7003    1.9438    2.8840 O   0  0  0  0  0  0  0  0  0  0  0  0
  1  2  1  0  0  0  0
  1 10  1  0  0  0  0
  1 21  1  6  0  0  0
  2  3  1  0  0  0  0
  2  7  1  6  0  0  0
  3  4  1  0  0  0  0
  3  8  1  6  0  0  0
  4  5  1  0  0  0  0
  4  9  1  6  0  0  0
  5  6  1  1  0  0  0
  5 10  1  0  0  0  0
  6 11  1  0  0  0  0
 12 13  1  0  0  0  0
 12 17  1  0  0  0  0
 12 18  1  1  0  0  0
 13 14  1  0  0  0  0
 14 15  1  0  0  0  0
 14 19  1  1  0  0  0
 15 16  1  0  0  0  0
 15 30  1  6  0  0  0
 16 17  1  0  0  0  0
 16 20  1  1  0  0  0
 17 21  1  6  0  0  0
 22 23  1  0  0  0  0
 22 30  1  6  0  0  0
 22 32  1  0  0  0  0
 23 24  1  0  0  0  0
 23 28  1  1  0  0  0
 24 25  1  0  0  0  0
 25 26  1  0  0  0  0
 25 31  1  6  0  0  0
 26 27  1  6  0  0  0
 26 32  1  0  0  0  0
 27 29  1  0  0  0  0
M  CHG  5   8   1  18   1  19   1  28   1  29   1
M  END
>  <CHROM.1>
-142.76734663,-95.24259209,50.32219681,-60.10780469,-153.98420083,-58.93533404
-144.29721512,29.06819015,-60.52494472,-176.59458315,85.57264886,-142.85518333
-167.34312872,-73.88118210,80.81605110,34.13166972,-0.29869009,3.85345224
2.86280690,2.88911123,-0.19397734,0.53544029

>  <Name>
1tob

>  <RI>
0

>  <Rbt.Current_Directory>
/home/itssahil/PROJECTS/Mol_Feturizer/New_Systems/rnas/1tob

>  <Rbt.Executable>
rbdock ($Id: //depot/dev/client3/rdock/2013.1/src/exe/rbdock.cxx#4 $)

>  <Rbt.Library>
libRbt.so (2013.1, Build901 2013/11/27)

>  <Rbt.Parameter_File>
/export/apps/rDock/src/rDock_2013.1_src/data/scripts/dock_solv.prm

>  <Rbt.Receptor>
prm/blind_docking_80.prm

>  <SCORE>
-33.5832

>  <SCORE.INTER>
-43.7553

>  <SCORE.INTER.CONST>
1

>  <SCORE.INTER.POLAR>
-6.43475

>  <SCORE.INTER.ROT>
6

>  <SCORE.INTER.SOLV>
37.6395

>  <SCORE.INTER.VDW>
-27.8675

>  <SCORE.INTER.norm>
-1.36735

>  <SCORE.INTRA>
3.7871

>  <SCORE.INTRA.DIHEDRAL>
5.21534

>  <SCORE.INTRA.DIHEDRAL.0>
22.9177

>  <SCORE.INTRA.POLAR>
-1.54451

>  <SCORE.INTRA.POLAR.0>
-0.311208

>  <SCORE.INTRA.REPUL>
0.0781786

>  <SCORE.INTRA.REPUL.0>
0

>  <SCORE.INTRA.SOLV>
1.82054

>  <SCORE.INTRA.SOLV.lig_0>
-132.657

>  <SCORE.INTRA.VDW>
5.1296

>  <SCORE.INTRA.VDW.0>
-4.68867

>  <SCORE.INTRA.norm>
0.118347

>  <SCORE.RESTR>
6.38507

>  <SCORE.RESTR.CAVITY>
6.38507

>  <SCORE.RESTR.norm>
0.199533

>  <SCORE.SYSTEM>
0

>  <SCORE.SYSTEM.CONST>
0

>  <SCORE.SYSTEM.DIHEDRAL>
0

>  <SCORE.SYSTEM.SOLV>
0

>  <SCORE.SYSTEM.norm>
0

>  <SCORE.heavy>
32

>  <SCORE.norm>
-1.04947

>  <RMSD>
9.741

$$$$
1tob
 OpenBabel11021811413D
libRbt.so/2013.1/901 2013/11/27
 32 34  0  0  0  0  0  0  0  0999 V2000
   -2.4696    4.9371    3.6982 C   0  0  2  0  0  0  0  0  0  0  0  0
   -2.9809    6.0533    4.6059 C   0  0  1  0  0  0  0  0  0  0  0  0
   -4.5035    6.0512    4.6133 C   0  0  2  0  0  0  0  0  0  0  0  0
   -5.0165    6.1657    3.1828 C   0  0  1  0  0  0  0  0  0  0  0  0
   -4.4303    5.0435    2.3305 C   0  0  1  0  0  0  0  0  0  0  0  0
   -4.8434    5.1480    0.8755 C   0  0  0  0  0  0  0  0  0  0  0  0
   -2.4954    5.8577    5.9263 O   0  0  0  0  0  0  0  0  0  0  0  0
   -5.0345    7.1267    5.4785 N   0  3  0  0  0  0  0  0  0  0  0  0
   -6.4360    6.0953    3.1741 O   0  0  0  0  0  0  0  0  0  0  0  0
   -2.9878    5.0934    2.3711 O   0  0  0  0  0  0  0  0  0  0  0  0
   -4.7285    3.8969    0.2124 O   0  0  0  0  0  0  0  0  0  0  0  0
   -1.5879    2.2629    2.7258 C   0  0  2  0  0  0  0  0  0  0  0  0
   -0.5126    1.1850    2.7116 C   0  0  0  0  0  0  0  0  0  0  0  0
    0.7734    1.7047    3.3548 C   0  0  1  0  0  0  0  0  0  0  0  0
    0.4957    2.1198    4.7978 C   0  0  2  0  0  0  0  0  0  0  0  0
   -0.5890    3.1975    4.8322 C   0  0  1  0  0  0  0  0  0  0  0  0
   -1.8623    2.6830    4.1616 C   0  0  1  0  0  0  0  0  0  0  0  0
   -2.8452    1.7549    2.1344 N   0  3  0  0  0  0  0  0  0  0  0  0
    1.8391    0.6737    3.2582 N   0  3  0  0  0  0  0  0  0  0  0  0
   -0.8645    3.5612    6.1782 O   0  0  0  0  0  0  0  0  0  0  0  0
   -2.8733    3.7069    4.1824 O   0  0  0  0  0  0  0  0  0  0  0  0
    1.5649    3.1174    6.7019 C   0  0  1  0  0  0  0  0  0  0  0  0
    2.9360    3.2476    7.3676 C   0  0  1  0  0  0  0  0  0  0  0  0
    3.5840    1.8789    7.5126 C   0  0  0  0  0  0  0  0  0  0  0  0
    2.6424    0.9566    8.2698 C   0  0  1  0  0  0  0  0  0  0  0  0
    1.2926    0.8977    7.5555 C   0  0  1  0  0  0  0  0  0  0  0  0
    0.2795    0.0382    8.2897 C   0  0  0  0  0  0  0  0  0  0  0  0
    3.8012    4.1960    6.6270 N   0  3  0  0  0  0  0  0  0  0  0  0
   -0.3724    0.7874    9.3902 N   0  3  0  0  0  0  0  0  0  0  0  0
    1.7015    2.6164    5.4141 O   0  0  0  0  0  0  0  0  0  0  0  0
    3.2029   -0.3455    8.3548 O   0  0  0  0  0  0  0  0  0  0  0  0
    0.7292    2.2229    7.4467 O   0  0  0  0  0  0  0  0  0  0  0  0
  1  2  1  0  0  0  0
  1 10  1  0  0  0  0
  1 21  1  1  0  0  0
  2  3  1  0  0  0  0
  2  7  1  1  0  0  0
  3  4  1  0  0  0  0
  3  8  1  1  0  0  0
  4  5  1  0  0  0  0
  4  9  1  1  0  0  0
  5  6  1  6  0  0  0
  5 10  1  0  0  0  0
  6 11  1  0  0  0  0
 12 13  1  0  0  0  0
 12 17  1  0  0  0  0
 12 18  1  1  0  0  0
 13 14  1  0  0  0  0
 14 15  1  0  0  0  0
 14 19  1  1  0  0  0
 15 16  1  0  0  0  0
 15 30  1  6  0  0  0
 16 17  1  0  0  0  0
 16 20  1  1  0  0  0
 17 21  1  6  0  0  0
 22 23  1  0  0  0  0
 22 30  1  6  0  0  0
 22 32  1  0  0  0  0
 23 24  1  0  0  0  0
 23 28  1  6  0  0  0
 24 25  1  0  0  0  0
 25 26  1  0  0  0  0
 25 31  1  6  0  0  0
 26 27  1  1  0  0  0
 26 32  1  0  0  0  0
 27 29  1  0  0  0  0
M  CHG  5   8   1  18   1  19   1  28   1  29   1
M  END
>  <CHROM.1>
-136.62026516,117.71410902,175.50816067,-176.74040843,-158.36787165,68.44605554
-64.58377009,85.25119744,175.59657495,178.74990496,-70.83382860,164.56299435
90.77815624,-176.78238860,82.01601400,76.92418502,-1.04556809,3.25386118
4.94023927,2.87942133,0.68412713,-2.03640092

>  <Name>
1tob

>  <RI>
0

>  <Rbt.Current_Directory>
/home/itssahil/PROJECTS/Mol_Feturizer/New_Systems/rnas/1tob

>  <Rbt.Executable>
rbdock ($Id: //depot/dev/client3/rdock/2013.1/src/exe/rbdock.cxx#4 $)

>  <Rbt.Library>
libRbt.so (2013.1, Build901 2013/11/27)

>  <Rbt.Parameter_File>
/export/apps/rDock/src/rDock_2013.1_src/data/scripts/dock_solv.prm

>  <Rbt.Receptor>
prm/pocket_docking_6.prm

>  <SCORE>
-54.8406

>  <SCORE.INTER>
-56.416

>  <SCORE.INTER.CONST>
1

>  <SCORE.INTER.POLAR>
-9.03962

>  <SCORE.INTER.ROT>
6

>  <SCORE.INTER.SOLV>
38.169

>  <SCORE.INTER.VDW>
-27.8016

>  <SCORE.INTER.norm>
-1.763

>  <SCORE.INTRA>
1.21515

>  <SCORE.INTRA.DIHEDRAL>
-0.558809

>  <SCORE.INTRA.DIHEDRAL.0>
22.9177

>  <SCORE.INTRA.POLAR>
-0.792882

>  <SCORE.INTRA.POLAR.0>
-0.311208

>  <SCORE.INTRA.REPUL>
0.0288144

>  <SCORE.INTRA.REPUL.0>
0

>  <SCORE.INTRA.SOLV>
-3.23904

>  <SCORE.INTRA.SOLV.lig_0>
-132.657

>  <SCORE.INTRA.VDW>
5.66581

>  <SCORE.INTRA.VDW.0>
-4.68867

>  <SCORE.INTRA.norm>
0.0379736

>  <SCORE.RESTR>
0.360269

>  <SCORE.RESTR.CAVITY>
0.360269

>  <SCORE.RESTR.norm>
0.0112584

>  <SCORE.SYSTEM>
0

>  <SCORE.SYSTEM.CONST>
0

>  <SCORE.SYSTEM.DIHEDRAL>
0

>  <SCORE.SYSTEM.SOLV>
0

>  <SCORE.SYSTEM.norm>
0

>  <SCORE.heavy>
32

>  <SCORE.norm>
-1.71377

>  <RMSD>
9.796

$$$$
1tob
 OpenBabel11021811413D
libRbt.so/2013.1/901 2013/11/27
 32 34  0  0  0  0  0  0  0  0999 V2000
   -2.3928    3.7475    4.0046 C   0  0  2  0  0  0  0  0  0  0  0  0
   -3.1961    3.0519    2.9082 C   0  0  1  0  0  0  0  0  0  0  0  0
   -3.2034    3.9135    1.6529 C   0  0  2  0  0  0  0  0  0  0  0  0
   -3.7378    5.2994    1.9936 C   0  0  1  0  0  0  0  0  0  0  0  0
   -2.9120    5.9104    3.1223 C   0  0  1  0  0  0  0  0  0  0  0  0
   -3.4432    7.2611    3.5603 C   0  0  0  0  0  0  0  0  0  0  0  0
   -2.6168    1.7879    2.6181 O   0  0  0  0  0  0  0  0  0  0  0  0
   -3.9806    3.2725    0.5701 N   0  3  0  0  0  0  0  0  0  0  0  0
   -3.6839    6.1318    0.8429 O   0  0  0  0  0  0  0  0  0  0  0  0
   -2.9367    5.0450    4.2779 O   0  0  0  0  0  0  0  0  0  0  0  0
   -3.1012    8.2795    2.6308 O   0  0  0  0  0  0  0  0  0  0  0  0
    0.9602    2.5967    3.5223 C   0  0  2  0  0  0  0  0  0  0  0  0
    1.9807    1.8659    4.3840 C   0  0  0  0  0  0  0  0  0  0  0  0
    2.6208    2.8273    5.3857 C   0  0  1  0  0  0  0  0  0  0  0  0
    1.5418    3.4282    6.2838 C   0  0  2  0  0  0  0  0  0  0  0  0
    0.5022    4.1604    5.4337 C   0  0  1  0  0  0  0  0  0  0  0  0
   -0.1127    3.2017    4.4146 C   0  0  1  0  0  0  0  0  0  0  0  0
    0.3136    1.6642    2.5732 N   0  3  0  0  0  0  0  0  0  0  0  0
    3.6737    2.1218    6.1614 N   0  3  0  0  0  0  0  0  0  0  0  0
   -0.5150    4.6942    6.2706 O   0  0  0  0  0  0  0  0  0  0  0  0
   -1.0776    3.9003    3.6073 O   0  0  0  0  0  0  0  0  0  0  0  0
    2.4572    3.8064    8.4707 C   0  0  1  0  0  0  0  0  0  0  0  0
    1.8785    4.6747    9.5892 C   0  0  1  0  0  0  0  0  0  0  0  0
    2.4980    6.0637    9.5527 C   0  0  0  0  0  0  0  0  0  0  0  0
    4.0113    5.9392    9.6214 C   0  0  1  0  0  0  0  0  0  0  0  0
    4.5073    5.0420    8.4880 C   0  0  1  0  0  0  0  0  0  0  0  0
    6.0090    4.8244    8.5289 C   0  0  0  0  0  0  0  0  0  0  0  0
    0.3992    4.7243    9.5155 N   0  3  0  0  0  0  0  0  0  0  0  0
    6.5176    4.3034    7.2376 N   0  3  0  0  0  0  0  0  0  0  0  0
    2.1335    4.3411    7.2308 O   0  0  0  0  0  0  0  0  0  0  0  0
    4.6089    7.2235    9.5197 O   0  0  0  0  0  0  0  0  0  0  0  0
    3.8849    3.7418    8.5742 O   0  0  0  0  0  0  0  0  0  0  0  0
  1  2  1  0  0  0  0
  1 10  1  0  0  0  0
  1 21  1  6  0  0  0
  2  3  1  0  0  0  0
  2  7  1  6  0  0  0
  3  4  1  0  0  0  0
  3  8  1  6  0  0  0
  4  5  1  0  0  0  0
  4  9  1  6  0  0  0
  5  6  1  1  0  0  0
  5 10  1  0  0  0  0
  6 11  1  0  0  0  0
 12 13  1  0  0  0  0
 12 17  1  0  0  0  0
 12 18  1  6  0  0  0
 13 14  1  0  0  0  0
 14 15  1  0  0  0  0
 14 19  1  1  0  0  0
 15 16  1  0  0  0  0
 15 30  1  1  0  0  0
 16 17  1  0  0  0  0
 16 20  1  1  0  0  0
 17 21  1  6  0  0  0
 22 23  1  0  0  0  0
 22 30  1  6  0  0  0
 22 32  1  0  0  0  0
 23 24  1  0  0  0  0
 23 28  1  6  0  0  0
 24 25  1  0  0  0  0
 25 26  1  0  0  0  0
 25 31  1  6  0  0  0
 26 27  1  1  0  0  0
 26 32  1  0  0  0  0
 27 29  1  0  0  0  0
M  CHG  5   8   1  18   1  19   1  28   1  29   1
M  END
>  <CHROM.1>
-117.18925266,145.11598969,55.05088589,55.87428962,-76.17670344,-60.15557521
-133.62187842,66.81829744,-93.91305405,-64.16042494,139.96716169,-129.15609421
84.86203003,53.09111641,-163.32740651,63.31848063,0.41114831,4.34246149,5.36075741
-2.70160204,-0.59715117,0.66967149

>  <Name>
1tob

>  <RI>
0

>  <Rbt.Current_Directory>
/home/itssahil/PROJECTS/Mol_Feturizer/New_Systems/rnas/1tob

>  <Rbt.Executable>
rbdock ($Id: //depot/dev/client3/rdock/2013.1/src/exe/rbdock.cxx#4 $)

>  <Rbt.Library>
libRbt.so (2013.1, Build901 2013/11/27)

>  <Rbt.Parameter_File>
/export/apps/rDock/src/rDock_2013.1_src/data/scripts/dock_solv.prm

>  <Rbt.Receptor>
prm/pocket_docking_8.prm

>  <SCORE>
-49.5815

>  <SCORE.INTER>
-50.6069

>  <SCORE.INTER.CONST>
1

>  <SCORE.INTER.POLAR>
-7.08852

>  <SCORE.INTER.ROT>
6

>  <SCORE.INTER.SOLV>
27.9198

>  <SCORE.INTER.VDW>
-27.0161

>  <SCORE.INTER.norm>
-1.58146

>  <SCORE.INTRA>
1.02539

>  <SCORE.INTRA.DIHEDRAL>
12.2678

>  <SCORE.INTRA.DIHEDRAL.0>
22.9177

>  <SCORE.INTRA.POLAR>
-2.02421

>  <SCORE.INTRA.POLAR.0>
-0.311208

>  <SCORE.INTRA.REPUL>
0.0198633

>  <SCORE.INTRA.REPUL.0>
0

>  <SCORE.INTRA.SOLV>
1.84752

>  <SCORE.INTRA.SOLV.lig_0>
-132.657

>  <SCORE.INTRA.VDW>
0.750736

>  <SCORE.INTRA.VDW.0>
-4.68867

>  <SCORE.INTRA.norm>
0.0320434

>  <SCORE.RESTR>
0

>  <SCORE.RESTR.CAVITY>
0

>  <SCORE.RESTR.norm>
0

>  <SCORE.SYSTEM>
0

>  <SCORE.SYSTEM.CONST>
0

>  <SCORE.SYSTEM.DIHEDRAL>
0

>  <SCORE.SYSTEM.SOLV>
0

>  <SCORE.SYSTEM.norm>
0

>  <SCORE.heavy>
32

>  <SCORE.norm>
-1.54942

>  <RMSD>
9.831

$$$$
1tob
 OpenBabel11021811413D
libRbt.so/2013.1/901 2013/11/27
 32 34  0  0  0  0  0  0  0  0999 V2000
   -2.4041    2.9295    3.8940 C   0  0  2  0  0  0  0  0  0  0  0  0
   -3.0625    2.6908    2.5373 C   0  0  1  0  0  0  0  0  0  0  0  0
   -3.0259    3.9730    1.7169 C   0  0  2  0  0  0  0  0  0  0  0  0
   -3.6830    5.0981    2.5073 C   0  0  1  0  0  0  0  0  0  0  0  0
   -2.9991    5.2472    3.8635 C   0  0  1  0  0  0  0  0  0  0  0  0
   -3.6587    6.3021    4.7297 C   0  0  0  0  0  0  0  0  0  0  0  0
   -2.3734    1.6595    1.8450 O   0  0  0  0  0  0  0  0  0  0  0  0
   -3.6632    3.7800    0.3963 N   0  3  0  0  0  0  0  0  0  0  0  0
   -3.5922    6.3147    1.7780 O   0  0  0  0  0  0  0  0  0  0  0  0
   -3.0589    3.9993    4.5876 O   0  0  0  0  0  0  0  0  0  0  0  0
   -5.0414    6.4295    4.4299 O   0  0  0  0  0  0  0  0  0  0  0  0
    0.9834    2.0053    3.8998 C   0  0  2  0  0  0  0  0  0  0  0  0
    1.9427    1.3622    4.8918 C   0  0  0  0  0  0  0  0  0  0  0  0
    2.4857    2.4087    5.8653 C   0  0  1  0  0  0  0  0  0  0  0  0
    1.3291    3.0512    6.6277 C   0  0  2  0  0  0  0  0  0  0  0  0
    0.3498    3.6961    5.6456 C   0  0  1  0  0  0  0  0  0  0  0  0
   -0.1667    2.6517    4.6566 C   0  0  1  0  0  0  0  0  0  0  0  0
    0.4293    0.9915    2.9758 N   0  3  0  0  0  0  0  0  0  0  0  0
    3.4838    1.7851    6.7725 N   0  3  0  0  0  0  0  0  0  0  0  0
   -0.7392    4.2686    6.3571 O   0  0  0  0  0  0  0  0  0  0  0  0
   -1.0745    3.2679    3.7254 O   0  0  0  0  0  0  0  0  0  0  0  0
    1.7168    3.7358    8.8959 C   0  0  1  0  0  0  0  0  0  0  0  0
    1.1411    4.9262    9.6650 C   0  0  1  0  0  0  0  0  0  0  0  0
    2.0858    6.1157    9.5800 C   0  0  0  0  0  0  0  0  0  0  0  0
    3.4613    5.6992   10.0749 C   0  0  1  0  0  0  0  0  0  0  0  0
    3.9552    4.4951    9.2738 C   0  0  1  0  0  0  0  0  0  0  0  0
    5.3024    3.9861    9.7537 C   0  0  0  0  0  0  0  0  0  0  0  0
   -0.2205    5.2631    9.1864 N   0  3  0  0  0  0  0  0  0  0  0  0
    5.7224    2.7755    9.0083 N   0  3  0  0  0  0  0  0  0  0  0  0
    1.8290    4.0442    7.5467 O   0  0  0  0  0  0  0  0  0  0  0  0
    4.3734    6.7791    9.9385 O   0  0  0  0  0  0  0  0  0  0  0  0
    3.0192    3.4017    9.3913 O   0  0  0  0  0  0  0  0  0  0  0  0
  1  2  1  0  0  0  0
  1 10  1  0  0  0  0
  1 21  1  6  0  0  0
  2  3  1  0  0  0  0
  2  7  1  6  0  0  0
  3  4  1  0  0  0  0
  3  8  1  6  0  0  0
  4  5  1  0  0  0  0
  4  9  1  6  0  0  0
  5  6  1  1  0  0  0
  5 10  1  0  0  0  0
  6 11  1  0  0  0  0
 12 13  1  0  0  0  0
 12 17  1  0  0  0  0
 12 18  1  6  0  0  0
 13 14  1  0  0  0  0
 14 15  1  0  0  0  0
 14 19  1  1  0  0  0
 15 16  1  0  0  0  0
 15 30  1  1  0  0  0
 16 17  1  0  0  0  0
 16 20  1  1  0  0  0
 17 21  1  6  0  0  0
 22 23  1  0  0  0  0
 22 30  1  6  0  0  0
 22 32  1  0  0  0  0
 23 24  1  0  0  0  0
 23 28  1  6  0  0  0
 24 25  1  0  0  0  0
 25 26  1  0  0  0  0
 25 31  1  6  0  0  0
 26 27  1  1  0  0  0
 26 32  1  0  0  0  0
 27 29  1  0  0  0  0
M  CHG  5   8   1  18   1  19   1  28   1  29   1
M  END
>  <CHROM.1>
-138.21611529,176.36385350,-122.48206800,-61.34906503,28.83371218,52.90238890
-69.17812479,-30.13068882,-110.94711129,-68.73289947,129.39689880,-132.89256242
77.90386846,-35.80071687,176.93722893,-167.79025639,0.13337384,3.91046150
5.78457049,-2.59167134,-0.57167439,0.82635154

>  <Name>
1tob

>  <RI>
0

>  <Rbt.Current_Directory>
/home/itssahil/PROJECTS/Mol_Feturizer/New_Systems/rnas/1tob

>  <Rbt.Executable>
rbdock ($Id: //depot/dev/client3/rdock/2013.1/src/exe/rbdock.cxx#4 $)

>  <Rbt.Library>
libRbt.so (2013.1, Build901 2013/11/27)

>  <Rbt.Parameter_File>
/export/apps/rDock/src/rDock_2013.1_src/data/scripts/dock_solv.prm

>  <Rbt.Receptor>
prm/pocket_docking_7.prm

>  <SCORE>
-41.5425

>  <SCORE.INTER>
-42.9188

>  <SCORE.INTER.CONST>
1

>  <SCORE.INTER.POLAR>
-5.85073

>  <SCORE.INTER.ROT>
6

>  <SCORE.INTER.SOLV>
30.7502

>  <SCORE.INTER.VDW>
-26.9602

>  <SCORE.INTER.norm>
-1.34121

>  <SCORE.INTRA>
1.28627

>  <SCORE.INTRA.DIHEDRAL>
15.3084

>  <SCORE.INTRA.DIHEDRAL.0>
22.9177

>  <SCORE.INTRA.POLAR>
-2.71449

>  <SCORE.INTRA.POLAR.0>
-0.311208

>  <SCORE.INTRA.REPUL>
0.00486503

>  <SCORE.INTRA.REPUL.0>
0

>  <SCORE.INTRA.SOLV>
4.21577

>  <SCORE.INTRA.SOLV.lig_0>
-132.657

>  <SCORE.INTRA.VDW>
0.729114

>  <SCORE.INTRA.VDW.0>
-4.68867

>  <SCORE.INTRA.norm>
0.0401958

>  <SCORE.RESTR>
0.0900435

>  <SCORE.RESTR.CAVITY>
0.0900435

>  <SCORE.RESTR.norm>
0.00281386

>  <SCORE.SYSTEM>
0

>  <SCORE.SYSTEM.CONST>
0

>  <SCORE.SYSTEM.DIHEDRAL>
0

>  <SCORE.SYSTEM.SOLV>
0

>  <SCORE.SYSTEM.norm>
0

>  <SCORE.heavy>
32

>  <SCORE.norm>
-1.2982

>  <RMSD>
9.848

$$$$
1tob
 OpenBabel11021811413D
libRbt.so/2013.1/901 2013/11/27
 32 34  0  0  0  0  0  0  0  0999 V2000
   -2.2903    3.3517    3.9448 C   0  0  2  0  0  0  0  0  0  0  0  0
   -3.0467    2.8128    2.7330 C   0  0  1  0  0  0  0  0  0  0  0  0
   -3.3629    3.9545    1.7766 C   0  0  2  0  0  0  0  0  0  0  0  0
   -4.1295    5.0408    2.5214 C   0  0  1  0  0  0  0  0  0  0  0  0
   -3.3305    5.4970    3.7392 C   0  0  1  0  0  0  0  0  0  0  0  0
   -4.0766    6.5249    4.5670 C   0  0  0  0  0  0  0  0  0  0  0  0
   -2.2558    1.8373    2.0693 O   0  0  0  0  0  0  0  0  0  0  0  0
   -4.1034    3.4690    0.5920 N   0  3  0  0  0  0  0  0  0  0  0  0
   -4.3690    6.1410    1.6542 O   0  0  0  0  0  0  0  0  0  0  0  0
   -3.0553    4.3711    4.6004 O   0  0  0  0  0  0  0  0  0  0  0  0
   -5.0940    5.9196    5.3521 O   0  0  0  0  0  0  0  0  0  0  0  0
    1.2363    3.6733    2.8965 C   0  0  2  0  0  0  0  0  0  0  0  0
    2.3457    2.6587    2.6555 C   0  0  0  0  0  0  0  0  0  0  0  0
    2.6081    1.8428    3.9216 C   0  0  1  0  0  0  0  0  0  0  0  0
    1.3344    1.1079    4.3332 C   0  0  2  0  0  0  0  0  0  0  0  0
    0.2055    2.1118    4.5720 C   0  0  1  0  0  0  0  0  0  0  0  0
   -0.0321    2.9445    3.3127 C   0  0  1  0  0  0  0  0  0  0  0  0
    0.9554    4.4433    1.6650 N   0  3  0  0  0  0  0  0  0  0  0  0
    3.7484    0.9166    3.6987 N   0  3  0  0  0  0  0  0  0  0  0  0
   -0.9853    1.4222    4.9277 O   0  0  0  0  0  0  0  0  0  0  0  0
   -1.0838    3.8980    3.5490 O   0  0  0  0  0  0  0  0  0  0  0  0
    2.4204    0.9103    6.4652 C   0  0  1  0  0  0  0  0  0  0  0  0
    2.7767   -0.1076    7.5501 C   0  0  1  0  0  0  0  0  0  0  0  0
    1.5284   -0.5233    8.3137 C   0  0  0  0  0  0  0  0  0  0  0  0
    0.8429    0.7160    8.8656 C   0  0  1  0  0  0  0  0  0  0  0  0
    0.5411    1.6893    7.7266 C   0  0  1  0  0  0  0  0  0  0  0  0
   -0.0932    2.9799    8.2127 C   0  0  0  0  0  0  0  0  0  0  0  0
    3.4900   -1.2727    6.9754 N   0  3  0  0  0  0  0  0  0  0  0  0
    0.8709    3.8029    8.9814 N   0  3  0  0  0  0  0  0  0  0  0  0
    1.5685    0.3377    5.5301 O   0  0  0  0  0  0  0  0  0  0  0  0
   -0.3617    0.3517    9.5237 O   0  0  0  0  0  0  0  0  0  0  0  0
    1.7606    2.0450    7.0400 O   0  0  0  0  0  0  0  0  0  0  0  0
  1  2  1  0  0  0  0
  1 10  1  0  0  0  0
  1 21  1  6  0  0  0
  2  3  1  0  0  0  0
  2  7  1  6  0  0  0
  3  4  1  0  0  0  0
  3  8  1  6  0  0  0
  4  5  1  0  0  0  0
  4  9  1  6  0  0  0
  5  6  1  1  0  0  0
  5 10  1  0  0  0  0
  6 11  1  0  0  0  0
 12 13  1  0  0  0  0
 12 17  1  0  0  0  0
 12 18  1  6  0  0  0
 13 14  1  0  0  0  0
 14 15  1  0  0  0  0
 14 19  1  6  0  0  0
 15 16  1  0  0  0  0
 15 30  1  1  0  0  0
 16 17  1  0  0  0  0
 16 20  1  6  0  0  0
 17 21  1  1  0  0  0
 22 23  1  0  0  0  0
 22 30  1  6  0  0  0
 22 32  1  0  0  0  0
 23 24  1  0  0  0  0
 23 28  1  6  0  0  0
 24 25  1  0  0  0  0
 25 26  1  0  0  0  0
 25 31  1  6  0  0  0
 26 27  1  1  0  0  0
 26 32  1  0  0  0  0
 27 29  1  0  0  0  0
M  CHG  5   8   1  18   1  19   1  28   1  29   1
M  END
>  <CHROM.1>
-79.98043021,172.83666077,64.66597916,-59.23302416,76.54013409,-116.51727400
166.89080294,-169.42529943,36.28701019,-63.35906822,-179.55618485,-169.77615003
-57.05357762,160.88743195,69.37213004,-80.21380431,-0.44435286,2.65837369
4.80856005,2.48842567,0.56246297,-1.42718825

>  <Name>
1tob

>  <RI>
0

>  <Rbt.Current_Directory>
/home/itssahil/PROJECTS/Mol_Feturizer/New_Systems/rnas/1tob

>  <Rbt.Executable>
rbdock ($Id: //depot/dev/client3/rdock/2013.1/src/exe/rbdock.cxx#4 $)

>  <Rbt.Library>
libRbt.so (2013.1, Build901 2013/11/27)

>  <Rbt.Parameter_File>
/export/apps/rDock/src/rDock_2013.1_src/data/scripts/dock_solv.prm

>  <Rbt.Receptor>
prm/pocket_docking_8.prm

>  <SCORE>
-54.9956

>  <SCORE.INTER>
-55.4654

>  <SCORE.INTER.CONST>
1

>  <SCORE.INTER.POLAR>
-8.4142

>  <SCORE.INTER.ROT>
6

>  <SCORE.INTER.SOLV>
31.8181

>  <SCORE.INTER.VDW>
-27.1356

>  <SCORE.INTER.norm>
-1.73329

>  <SCORE.INTRA>
0.469794

>  <SCORE.INTRA.DIHEDRAL>
-6.1761

>  <SCORE.INTRA.DIHEDRAL.0>
22.9177

>  <SCORE.INTRA.POLAR>
0.0890414

>  <SCORE.INTRA.POLAR.0>
-0.311208

>  <SCORE.INTRA.REPUL>
0

>  <SCORE.INTRA.REPUL.0>
0

>  <SCORE.INTRA.SOLV>
-1.91715

>  <SCORE.INTRA.SOLV.lig_0>
-132.657

>  <SCORE.INTRA.VDW>
4.21368

>  <SCORE.INTRA.VDW.0>
-4.68867

>  <SCORE.INTRA.norm>
0.014681

>  <SCORE.RESTR>
0

>  <SCORE.RESTR.CAVITY>
0

>  <SCORE.RESTR.norm>
0

>  <SCORE.SYSTEM>
0

>  <SCORE.SYSTEM.CONST>
0

>  <SCORE.SYSTEM.DIHEDRAL>
0

>  <SCORE.SYSTEM.SOLV>
0

>  <SCORE.SYSTEM.norm>
0

>  <SCORE.heavy>
32

>  <SCORE.norm>
-1.71861

>  <RMSD>
9.850

$$$$
1tob
 OpenBabel11021811413D
libRbt.so/2013.1/901 2013/11/27
 32 34  0  0  0  0  0  0  0  0999 V2000
   -2.1902    5.3352    4.1496 C   0  0  2  0  0  0  0  0  0  0  0  0
   -2.9852    6.3416    4.9781 C   0  0  1  0  0  0  0  0  0  0  0  0
   -4.4755    6.1323    4.7471 C   0  0  2  0  0  0  0  0  0  0  0  0
   -4.7738    6.2222    3.2552 C   0  0  1  0  0  0  0  0  0  0  0  0
   -3.9132    5.2184    2.4930 C   0  0  1  0  0  0  0  0  0  0  0  0
   -4.1084    5.3128    0.9926 C   0  0  0  0  0  0  0  0  0  0  0  0
   -2.6856    6.1711    6.3560 O   0  0  0  0  0  0  0  0  0  0  0  0
   -5.2777    7.0971    5.5300 N   0  3  0  0  0  0  0  0  0  0  0  0
   -6.1513    5.9599    3.0236 O   0  0  0  0  0  0  0  0  0  0  0  0
   -2.5151    5.4625    2.7595 O   0  0  0  0  0  0  0  0  0  0  0  0
   -3.5151    6.4909    0.4651 O   0  0  0  0  0  0  0  0  0  0  0  0
   -0.4642    3.0269    3.7005 C   0  0  2  0  0  0  0  0  0  0  0  0
    0.7403    2.1842    4.0973 C   0  0  0  0  0  0  0  0  0  0  0  0
    1.5374    2.8783    5.2020 C   0  0  1  0  0  0  0  0  0  0  0  0
    0.6465    3.0899    6.4240 C   0  0  2  0  0  0  0  0  0  0  0  0
   -0.5741    3.9286    6.0421 C   0  0  1  0  0  0  0  0  0  0  0  0
   -1.3505    3.2447    4.9172 C   0  0  1  0  0  0  0  0  0  0  0  0
   -1.2579    2.3448    2.6549 N   0  3  0  0  0  0  0  0  0  0  0  0
    2.7547    2.0875    5.5198 N   0  3  0  0  0  0  0  0  0  0  0  0
   -1.4148    4.0998    7.1752 O   0  0  0  0  0  0  0  0  0  0  0  0
   -2.4880    4.0465    4.5513 O   0  0  0  0  0  0  0  0  0  0  0  0
    0.7898    3.7576    8.7257 C   0  0  1  0  0  0  0  0  0  0  0  0
    1.8342    4.0378    9.8076 C   0  0  1  0  0  0  0  0  0  0  0  0
    2.8708    2.9250    9.8409 C   0  0  0  0  0  0  0  0  0  0  0  0
    2.1673    1.5905   10.0273 C   0  0  1  0  0  0  0  0  0  0  0  0
    1.1284    1.3962    8.9236 C   0  0  1  0  0  0  0  0  0  0  0  0
    0.3432    0.1065    9.0799 C   0  0  0  0  0  0  0  0  0  0  0  0
    2.4553    5.3700    9.6178 N   0  3  0  0  0  0  0  0  0  0  0  0
   -0.3362    0.0405   10.3960 N   0  3  0  0  0  0  0  0  0  0  0  0
    1.3869    3.7485    7.4721 O   0  0  0  0  0  0  0  0  0  0  0  0
    3.1150    0.5334    9.9923 O   0  0  0  0  0  0  0  0  0  0  0  0
    0.1754    2.4811    8.9409 O   0  0  0  0  0  0  0  0  0  0  0  0
  1  2  1  0  0  0  0
  1 10  1  0  0  0  0
  1 21  1  1  0  0  0
  2  3  1  0  0  0  0
  2  7  1  1  0  0  0
  3  4  1  0  0  0  0
  3  8  1  1  0  0  0
  4  5  1  0  0  0  0
  4  9  1  1  0  0  0
  5  6  1  6  0  0  0
  5 10  1  0  0  0  0
  6 11  1  0  0  0  0
 12 13  1  0  0  0  0
 12 17  1  0  0  0  0
 12 18  1  6  0  0  0
 13 14  1  0  0  0  0
 14 15  1  0  0  0  0
 14 19  1  1  0  0  0
 15 16  1  0  0  0  0
 15 30  1  1  0  0  0
 16 17  1  0  0  0  0
 16 20  1  1  0  0  0
 17 21  1  6  0  0  0
 22 23  1  0  0  0  0
 22 30  1  6  0  0  0
 22 32  1  0  0  0  0
 23 24  1  0  0  0  0
 23 28  1  6  0  0  0
 24 25  1  0  0  0  0
 25 26  1  0  0  0  0
 25 31  1  6  0  0  0
 26 27  1  1  0  0  0
 26 32  1  0  0  0  0
 27 29  1  0  0  0  0
M  CHG  5   8   1  18   1  19   1  28   1  29   1
M  END
>  <CHROM.1>
-125.59252165,65.91514268,-58.54500367,63.83946115,72.16771694,169.61197280
-74.43596444,-58.01988280,-167.30018219,-38.81168093,-64.51621112,160.80196485
173.36169389,-62.06871493,57.20122076,146.00865778,-0.91089543,3.84246011
6.00065627,2.51232804,0.69422161,-1.75226591

>  <Name>
1tob

>  <RI>
0

>  <Rbt.Current_Directory>
/home/itssahil/PROJECTS/Mol_Feturizer/New_Systems/rnas/1tob

>  <Rbt.Executable>
rbdock ($Id: //depot/dev/client3/rdock/2013.1/src/exe/rbdock.cxx#4 $)

>  <Rbt.Library>
libRbt.so (2013.1, Build901 2013/11/27)

>  <Rbt.Parameter_File>
/export/apps/rDock/src/rDock_2013.1_src/data/scripts/dock_solv.prm

>  <Rbt.Receptor>
prm/pocket_docking_8.prm

>  <SCORE>
-54.9134

>  <SCORE.INTER>
-51.6164

>  <SCORE.INTER.CONST>
1

>  <SCORE.INTER.POLAR>
-6.67339

>  <SCORE.INTER.ROT>
6

>  <SCORE.INTER.SOLV>
29.4979

>  <SCORE.INTER.VDW>
-29.5989

>  <SCORE.INTER.norm>
-1.61301

>  <SCORE.INTRA>
-3.29708

>  <SCORE.INTRA.DIHEDRAL>
-7.20009

>  <SCORE.INTRA.DIHEDRAL.0>
22.9177

>  <SCORE.INTRA.POLAR>
-0.189607

>  <SCORE.INTRA.POLAR.0>
-0.311208

>  <SCORE.INTRA.REPUL>
0

>  <SCORE.INTRA.REPUL.0>
0

>  <SCORE.INTRA.SOLV>
-3.31482

>  <SCORE.INTRA.SOLV.lig_0>
-132.657

>  <SCORE.INTRA.VDW>
2.60504

>  <SCORE.INTRA.VDW.0>
-4.68867

>  <SCORE.INTRA.norm>
-0.103034

>  <SCORE.RESTR>
0

>  <SCORE.RESTR.CAVITY>
0

>  <SCORE.RESTR.norm>
0

>  <SCORE.SYSTEM>
0

>  <SCORE.SYSTEM.CONST>
0

>  <SCORE.SYSTEM.DIHEDRAL>
0

>  <SCORE.SYSTEM.SOLV>
0

>  <SCORE.SYSTEM.norm>
0

>  <SCORE.heavy>
32

>  <SCORE.norm>
-1.71604

>  <RMSD>
9.885

$$$$
1tob
 OpenBabel11021811413D
libRbt.so/2013.1/901 2013/11/27
 32 34  0  0  0  0  0  0  0  0999 V2000
   -1.9434    6.2092    4.4699 C   0  0  2  0  0  0  0  0  0  0  0  0
   -3.3693    6.7544    4.4442 C   0  0  1  0  0  0  0  0  0  0  0  0
   -4.3260    5.6664    3.9760 C   0  0  2  0  0  0  0  0  0  0  0  0
   -3.8669    5.1372    2.6225 C   0  0  1  0  0  0  0  0  0  0  0  0
   -2.4235    4.6508    2.7186 C   0  0  1  0  0  0  0  0  0  0  0  0
   -1.8822    4.1822    1.3822 C   0  0  0  0  0  0  0  0  0  0  0  0
   -3.7394    7.1903    5.7444 O   0  0  0  0  0  0  0  0  0  0  0  0
   -5.7184    6.1628    3.9317 N   0  3  0  0  0  0  0  0  0  0  0  0
   -4.7144    4.0737    2.2094 O   0  0  0  0  0  0  0  0  0  0  0  0
   -1.5696    5.7222    3.1749 O   0  0  0  0  0  0  0  0  0  0  0  0
   -0.5893    3.6094    1.5179 O   0  0  0  0  0  0  0  0  0  0  0  0
   -0.6841    4.3818    7.3443 C   0  0  2  0  0  0  0  0  0  0  0  0
    0.6989    4.1821    7.9490 C   0  0  0  0  0  0  0  0  0  0  0  0
    1.5391    3.2575    7.0676 C   0  0  1  0  0  0  0  0  0  0  0  0
    1.6819    3.8651    5.6739 C   0  0  2  0  0  0  0  0  0  0  0  0
    0.3007    4.0806    5.0535 C   0  0  1  0  0  0  0  0  0  0  0  0
   -0.5448    4.9812    5.9534 C   0  0  1  0  0  0  0  0  0  0  0  0
   -1.4904    5.3020    8.1759 N   0  3  0  0  0  0  0  0  0  0  0  0
    2.8542    3.0034    7.7111 N   0  3  0  0  0  0  0  0  0  0  0  0
    0.4367    4.6718    3.7683 O   0  0  0  0  0  0  0  0  0  0  0  0
   -1.8483    5.1666    5.3726 O   0  0  0  0  0  0  0  0  0  0  0  0
    2.4985    3.3248    3.4819 C   0  0  1  0  0  0  0  0  0  0  0  0
    2.3650    2.0618    2.6292 C   0  0  1  0  0  0  0  0  0  0  0  0
    3.5497    1.1375    2.8668 C   0  0  0  0  0  0  0  0  0  0  0  0
    4.8391    1.8978    2.6025 C   0  0  1  0  0  0  0  0  0  0  0  0
    4.8860    3.1527    3.4734 C   0  0  1  0  0  0  0  0  0  0  0  0
    6.1229    3.9951    3.2193 C   0  0  0  0  0  0  0  0  0  0  0  0
    1.0718    1.3828    2.8797 N   0  3  0  0  0  0  0  0  0  0  0  0
    5.7825    5.2699    2.5436 N   0  3  0  0  0  0  0  0  0  0  0  0
    2.4695    2.9989    4.8313 O   0  0  0  0  0  0  0  0  0  0  0  0
    5.9574    1.0695    2.8855 O   0  0  0  0  0  0  0  0  0  0  0  0
    3.7385    3.9874    3.2053 O   0  0  0  0  0  0  0  0  0  0  0  0
  1  2  1  0  0  0  0
  1 10  1  0  0  0  0
  1 21  1  1  0  0  0
  2  3  1  0  0  0  0
  2  7  1  1  0  0  0
  3  4  1  0  0  0  0
  3  8  1  6  0  0  0
  4  5  1  0  0  0  0
  4  9  1  1  0  0  0
  5  6  1  6  0  0  0
  5 10  1  0  0  0  0
  6 11  1  0  0  0  0
 12 13  1  0  0  0  0
 12 17  1  0  0  0  0
 12 18  1  1  0  0  0
 13 14  1  0  0  0  0
 14 15  1  0  0  0  0
 14 19  1  1  0  0  0
 15 16  1  0  0  0  0
 15 30  1  6  0  0  0
 16 17  1  0  0  0  0
 16 20  1  6  0  0  0
 17 21  1  6  0  0  0
 22 23  1  0  0  0  0
 22 30  1  1  0  0  0
 22 32  1  0  0  0  0
 23 24  1  0  0  0  0
 23 28  1  1  0  0  0
 24 25  1  0  0  0  0
 25 26  1  0  0  0  0
 25 31  1  1  0  0  0
 26 27  1  6  0  0  0
 26 32  1  0  0  0  0
 27 29  1  0  0  0  0
M  CHG  5   8   1  18   1  19   1  28   1  29   1
M  END
>  <CHROM.1>
-152.27679981,61.59330808,-174.59395263,177.78806370,-174.07436812,-165.72508473
171.18611421,-58.22335050,170.08129650,109.74446219,150.91649175,-137.53678213
-41.38504982,-60.10642240,110.31700203,-174.70729002,0.36595357,4.14726298
4.20224819,-2.99045737,0.32180446,-1.77243261

>  <Name>
1tob

>  <RI>
0

>  <Rbt.Current_Directory>
/home/itssahil/PROJECTS/Mol_Feturizer/New_Systems/rnas/1tob

>  <Rbt.Executable>
rbdock ($Id: //depot/dev/client3/rdock/2013.1/src/exe/rbdock.cxx#4 $)

>  <Rbt.Library>
libRbt.so (2013.1, Build901 2013/11/27)

>  <Rbt.Parameter_File>
/export/apps/rDock/src/rDock_2013.1_src/data/scripts/dock_solv.prm

>  <Rbt.Receptor>
prm/blind_docking_80.prm

>  <SCORE>
-13.06

>  <SCORE.INTER>
-18.8716

>  <SCORE.INTER.CONST>
1

>  <SCORE.INTER.POLAR>
-3.77944

>  <SCORE.INTER.ROT>
6

>  <SCORE.INTER.SOLV>
39.1041

>  <SCORE.INTER.VDW>
-20.6176

>  <SCORE.INTER.norm>
-0.589738

>  <SCORE.INTRA>
-0.457984

>  <SCORE.INTRA.DIHEDRAL>
3.75172

>  <SCORE.INTRA.DIHEDRAL.0>
22.9177

>  <SCORE.INTRA.POLAR>
-1.88757

>  <SCORE.INTRA.POLAR.0>
-0.311208

>  <SCORE.INTRA.REPUL>
0

>  <SCORE.INTRA.REPUL.0>
0

>  <SCORE.INTRA.SOLV>
-1.31071

>  <SCORE.INTRA.SOLV.lig_0>
-132.657

>  <SCORE.INTRA.VDW>
4.73924

>  <SCORE.INTRA.VDW.0>
-4.68867

>  <SCORE.INTRA.norm>
-0.014312

>  <SCORE.RESTR>
6.26962

>  <SCORE.RESTR.CAVITY>
6.26962

>  <SCORE.RESTR.norm>
0.195926

>  <SCORE.SYSTEM>
0

>  <SCORE.SYSTEM.CONST>
0

>  <SCORE.SYSTEM.DIHEDRAL>
0

>  <SCORE.SYSTEM.SOLV>
0

>  <SCORE.SYSTEM.norm>
0

>  <SCORE.heavy>
32

>  <SCORE.norm>
-0.408124

>  <RMSD>
10.125

$$$$
1tob
 OpenBabel11021811413D
libRbt.so/2013.1/901 2013/11/27
 32 34  0  0  0  0  0  0  0  0999 V2000
   -1.6355    5.2319    3.3547 C   0  0  2  0  0  0  0  0  0  0  0  0
   -2.8318    6.1245    3.0333 C   0  0  1  0  0  0  0  0  0  0  0  0
   -4.1207    5.3276    3.1819 C   0  0  2  0  0  0  0  0  0  0  0  0
   -4.0518    4.0854    2.3016 C   0  0  1  0  0  0  0  0  0  0  0  0
   -2.8111    3.2691    2.6531 C   0  0  1  0  0  0  0  0  0  0  0  0
   -2.6445    2.0574    1.7573 C   0  0  0  0  0  0  0  0  0  0  0  0
   -2.8516    7.2362    3.9172 O   0  0  0  0  0  0  0  0  0  0  0  0
   -5.3023    6.1607    2.8702 N   0  3  0  0  0  0  0  0  0  0  0  0
   -5.2218    3.2999    2.4861 O   0  0  0  0  0  0  0  0  0  0  0  0
   -1.6260    4.0802    2.5017 O   0  0  0  0  0  0  0  0  0  0  0  0
   -2.0919    2.4149    0.4983 O   0  0  0  0  0  0  0  0  0  0  0  0
   -0.6691    4.4393    6.8266 C   0  0  2  0  0  0  0  0  0  0  0  0
    0.6698    4.3973    7.5504 C   0  0  0  0  0  0  0  0  0  0  0  0
    1.5849    3.3467    6.9207 C   0  0  1  0  0  0  0  0  0  0  0  0
    1.8183    3.6829    5.4496 C   0  0  2  0  0  0  0  0  0  0  0  0
    0.4820    3.7374    4.7075 C   0  0  1  0  0  0  0  0  0  0  0  0
   -0.4394    4.7679    5.3594 C   0  0  1  0  0  0  0  0  0  0  0  0
   -1.5468    5.4771    7.4105 N   0  3  0  0  0  0  0  0  0  0  0  0
    2.8541    3.2568    7.6884 N   0  3  0  0  0  0  0  0  0  0  0  0
    0.7010    4.0779    3.3451 O   0  0  0  0  0  0  0  0  0  0  0  0
   -1.7005    4.8025    4.6671 O   0  0  0  0  0  0  0  0  0  0  0  0
    2.8577    2.8064    3.4709 C   0  0  1  0  0  0  0  0  0  0  0  0
    3.5916    1.5770    2.9324 C   0  0  1  0  0  0  0  0  0  0  0  0
    4.9850    1.4879    3.5365 C   0  0  0  0  0  0  0  0  0  0  0  0
    5.7297    2.7862    3.2716 C   0  0  1  0  0  0  0  0  0  0  0  0
    4.9239    3.9641    3.8183 C   0  0  1  0  0  0  0  0  0  0  0  0
    5.5811    5.3032    3.5369 C   0  0  0  0  0  0  0  0  0  0  0  0
    2.8058    0.3421    3.1642 N   0  3  0  0  0  0  0  0  0  0  0  0
    6.1698    5.3441    2.1769 N   0  3  0  0  0  0  0  0  0  0  0  0
    2.6772    2.6955    4.8432 O   0  0  0  0  0  0  0  0  0  0  0  0
    7.0085    2.7464    3.8880 O   0  0  0  0  0  0  0  0  0  0  0  0
    3.6141    3.9953    3.2109 O   0  0  0  0  0  0  0  0  0  0  0  0
  1  2  1  0  0  0  0
  1 10  1  0  0  0  0
  1 21  1  1  0  0  0
  2  3  1  0  0  0  0
  2  7  1  1  0  0  0
  3  4  1  0  0  0  0
  3  8  1  6  0  0  0
  4  5  1  0  0  0  0
  4  9  1  1  0  0  0
  5  6  1  6  0  0  0
  5 10  1  0  0  0  0
  6 11  1  0  0  0  0
 12 13  1  0  0  0  0
 12 17  1  0  0  0  0
 12 18  1  1  0  0  0
 13 14  1  0  0  0  0
 14 15  1  0  0  0  0
 14 19  1  1  0  0  0
 15 16  1  0  0  0  0
 15 30  1  6  0  0  0
 16 17  1  0  0  0  0
 16 20  1  6  0  0  0
 17 21  1  6  0  0  0
 22 23  1  0  0  0  0
 22 30  1  1  0  0  0
 22 32  1  0  0  0  0
 23 24  1  0  0  0  0
 23 28  1  1  0  0  0
 24 25  1  0  0  0  0
 25 26  1  0  0  0  0
 25 31  1  1  0  0  0
 26 27  1  6  0  0  0
 26 32  1  0  0  0  0
 27 29  1  0  0  0  0
M  CHG  5   8   1  18   1  19   1  28   1  29   1
M  END
>  <CHROM.1>
-140.48461893,-75.33027494,59.43413073,70.33491631,79.18400318,-178.15561160
41.23843906,173.79985483,173.56691041,-30.56244898,173.39346197,-170.68665602
96.30904590,64.87453107,40.03688598,-74.83323356,0.56773893,3.89229298,3.92703972
3.13910236,0.20692197,-1.97922427

>  <Name>
1tob

>  <RI>
0

>  <Rbt.Current_Directory>
/home/itssahil/PROJECTS/Mol_Feturizer/New_Systems/rnas/1tob

>  <Rbt.Executable>
rbdock ($Id: //depot/dev/client3/rdock/2013.1/src/exe/rbdock.cxx#4 $)

>  <Rbt.Library>
libRbt.so (2013.1, Build901 2013/11/27)

>  <Rbt.Parameter_File>
/export/apps/rDock/src/rDock_2013.1_src/data/scripts/dock_solv.prm

>  <Rbt.Receptor>
prm/blind_docking_80.prm

>  <SCORE>
-19.5959

>  <SCORE.INTER>
-31.8111

>  <SCORE.INTER.CONST>
1

>  <SCORE.INTER.POLAR>
-5.2568

>  <SCORE.INTER.ROT>
6

>  <SCORE.INTER.SOLV>
36.5973

>  <SCORE.INTER.VDW>
-23.4838

>  <SCORE.INTER.norm>
-0.994096

>  <SCORE.INTRA>
2.48749

>  <SCORE.INTRA.DIHEDRAL>
-5.30892

>  <SCORE.INTRA.DIHEDRAL.0>
22.9177

>  <SCORE.INTRA.POLAR>
-0.217883

>  <SCORE.INTRA.POLAR.0>
-0.311208

>  <SCORE.INTRA.REPUL>
0.258092

>  <SCORE.INTRA.REPUL.0>
0

>  <SCORE.INTRA.SOLV>
-4.69593

>  <SCORE.INTRA.SOLV.lig_0>
-132.657

>  <SCORE.INTRA.VDW>
6.94026

>  <SCORE.INTRA.VDW.0>
-4.68867

>  <SCORE.INTRA.norm>
0.077734

>  <SCORE.RESTR>
9.72771

>  <SCORE.RESTR.CAVITY>
9.72771

>  <SCORE.RESTR.norm>
0.303991

>  <SCORE.SYSTEM>
0

>  <SCORE.SYSTEM.CONST>
0

>  <SCORE.SYSTEM.DIHEDRAL>
0

>  <SCORE.SYSTEM.SOLV>
0

>  <SCORE.SYSTEM.norm>
0

>  <SCORE.heavy>
32

>  <SCORE.norm>
-0.612371

>  <RMSD>
10.219

$$$$
1tob
 OpenBabel11021811413D
libRbt.so/2013.1/901 2013/11/27
 32 34  0  0  0  0  0  0  0  0999 V2000
   -1.4526    5.1445    4.5178 C   0  0  2  0  0  0  0  0  0  0  0  0
   -2.6046    6.0173    5.0099 C   0  0  1  0  0  0  0  0  0  0  0  0
   -3.9273    5.4460    4.5175 C   0  0  2  0  0  0  0  0  0  0  0  0
   -3.8874    5.3137    2.9998 C   0  0  1  0  0  0  0  0  0  0  0  0
   -2.6886    4.4653    2.5846 C   0  0  1  0  0  0  0  0  0  0  0  0
   -2.5497    4.3603    1.0786 C   0  0  0  0  0  0  0  0  0  0  0  0
   -2.6006    6.0605    6.4297 O   0  0  0  0  0  0  0  0  0  0  0  0
   -5.0672    6.2723    4.9703 N   0  3  0  0  0  0  0  0  0  0  0  0
   -5.0917    4.7172    2.5374 O   0  0  0  0  0  0  0  0  0  0  0  0
   -1.4690    5.0524    3.0876 O   0  0  0  0  0  0  0  0  0  0  0  0
   -1.9772    3.1179    0.6956 O   0  0  0  0  0  0  0  0  0  0  0  0
    0.4893    2.8606    4.2498 C   0  0  2  0  0  0  0  0  0  0  0  0
    1.8012    2.2392    4.7091 C   0  0  0  0  0  0  0  0  0  0  0  0
    2.5974    3.2347    5.5533 C   0  0  1  0  0  0  0  0  0  0  0  0
    1.7786    3.6432    6.7758 C   0  0  2  0  0  0  0  0  0  0  0  0
    0.4521    4.2628    6.3332 C   0  0  1  0  0  0  0  0  0  0  0  0
   -0.3259    3.2743    5.4653 C   0  0  1  0  0  0  0  0  0  0  0  0
   -0.3005    1.8906    3.4600 N   0  3  0  0  0  0  0  0  0  0  0  0
    3.9109    2.6465    5.9233 N   0  3  0  0  0  0  0  0  0  0  0  0
   -0.3189    4.6161    7.4737 O   0  0  0  0  0  0  0  0  0  0  0  0
   -1.5649    3.8690    5.0387 O   0  0  0  0  0  0  0  0  0  0  0  0
    2.1285    4.6925    8.9066 C   0  0  1  0  0  0  0  0  0  0  0  0
    3.2920    5.1988    9.7609 C   0  0  1  0  0  0  0  0  0  0  0  0
    4.4392    4.2000    9.7349 C   0  0  0  0  0  0  0  0  0  0  0  0
    3.9279    2.8384   10.1766 C   0  0  1  0  0  0  0  0  0  0  0  0
    2.7566    2.4148    9.2910 C   0  0  1  0  0  0  0  0  0  0  0  0
    2.1554    1.0862    9.7124 C   0  0  0  0  0  0  0  0  0  0  0  0
    3.7222    6.5500    9.3300 N   0  3  0  0  0  0  0  0  0  0  0  0
    0.7183    1.0037    9.3581 N   0  3  0  0  0  0  0  0  0  0  0  0
    2.5182    4.5865    7.5781 O   0  0  0  0  0  0  0  0  0  0  0  0
    4.9708    1.8781   10.0928 O   0  0  0  0  0  0  0  0  0  0  0  0
    1.7027    3.4000    9.3554 O   0  0  0  0  0  0  0  0  0  0  0  0
  1  2  1  0  0  0  0
  1 10  1  0  0  0  0
  1 21  1  1  0  0  0
  2  3  1  0  0  0  0
  2  7  1  1  0  0  0
  3  4  1  0  0  0  0
  3  8  1  6  0  0  0
  4  5  1  0  0  0  0
  4  9  1  1  0  0  0
  5  6  1  6  0  0  0
  5 10  1  0  0  0  0
  6 11  1  0  0  0  0
 12 13  1  0  0  0  0
 12 17  1  0  0  0  0
 12 18  1  1  0  0  0
 13 14  1  0  0  0  0
 14 15  1  0  0  0  0
 14 19  1  1  0  0  0
 15 16  1  0  0  0  0
 15 30  1  6  0  0  0
 16 17  1  0  0  0  0
 16 20  1  1  0  0  0
 17 21  1  6  0  0  0
 22 23  1  0  0  0  0
 22 30  1  6  0  0  0
 22 32  1  0  0  0  0
 23 24  1  0  0  0  0
 23 28  1  6  0  0  0
 24 25  1  0  0  0  0
 25 26  1  0  0  0  0
 25 31  1  6  0  0  0
 26 27  1  1  0  0  0
 26 32  1  0  0  0  0
 27 29  1  0  0  0  0
M  CHG  5   8   1  18   1  19   1  28   1  29   1
M  END
>  <CHROM.1>
-139.26537787,52.70500008,75.14621108,71.75748214,-148.89208129,90.35798220
56.30200610,57.54718919,-158.62267941,-61.47440704,-73.91610493,155.18748168
93.76051337,54.91754924,151.66206804,167.61246352,0.20806249,3.94115402,6.14349385
2.61602224,0.58855479,-2.09772355

>  <Name>
1tob

>  <RI>
0

>  <Rbt.Current_Directory>
/home/itssahil/PROJECTS/Mol_Feturizer/New_Systems/rnas/1tob

>  <Rbt.Executable>
rbdock ($Id: //depot/dev/client3/rdock/2013.1/src/exe/rbdock.cxx#4 $)

>  <Rbt.Library>
libRbt.so (2013.1, Build901 2013/11/27)

>  <Rbt.Parameter_File>
/export/apps/rDock/src/rDock_2013.1_src/data/scripts/dock_solv.prm

>  <Rbt.Receptor>
prm/pocket_docking_7.prm

>  <SCORE>
-48.8432

>  <SCORE.INTER>
-50.993

>  <SCORE.INTER.CONST>
1

>  <SCORE.INTER.POLAR>
-7.51466

>  <SCORE.INTER.ROT>
6

>  <SCORE.INTER.SOLV>
29.4998

>  <SCORE.INTER.VDW>
-26.3797

>  <SCORE.INTER.norm>
-1.59353

>  <SCORE.INTRA>
2.05464

>  <SCORE.INTRA.DIHEDRAL>
1.14053

>  <SCORE.INTRA.DIHEDRAL.0>
22.9177

>  <SCORE.INTRA.POLAR>
0.085157

>  <SCORE.INTRA.POLAR.0>
-0.311208

>  <SCORE.INTRA.REPUL>
0

>  <SCORE.INTRA.REPUL.0>
0

>  <SCORE.INTRA.SOLV>
-1.18299

>  <SCORE.INTRA.SOLV.lig_0>
-132.657

>  <SCORE.INTRA.VDW>
1.78634

>  <SCORE.INTRA.VDW.0>
-4.68867

>  <SCORE.INTRA.norm>
0.0642077

>  <SCORE.RESTR>
0.0951444

>  <SCORE.RESTR.CAVITY>
0.0951444

>  <SCORE.RESTR.norm>
0.00297326

>  <SCORE.SYSTEM>
0

>  <SCORE.SYSTEM.CONST>
0

>  <SCORE.SYSTEM.DIHEDRAL>
0

>  <SCORE.SYSTEM.SOLV>
0

>  <SCORE.SYSTEM.norm>
0

>  <SCORE.heavy>
32

>  <SCORE.norm>
-1.52635

>  <RMSD>
10.233

$$$$
1tob
 OpenBabel11021811413D
libRbt.so/2013.1/901 2013/11/27
 32 34  0  0  0  0  0  0  0  0999 V2000
   -2.1778    4.7092    3.5090 C   0  0  2  0  0  0  0  0  0  0  0  0
   -2.7005    5.7415    4.5051 C   0  0  1  0  0  0  0  0  0  0  0  0
   -4.2223    5.7001    4.5352 C   0  0  2  0  0  0  0  0  0  0  0  0
   -4.7620    5.9075    3.1252 C   0  0  1  0  0  0  0  0  0  0  0  0
   -4.1633    4.8671    2.1827 C   0  0  1  0  0  0  0  0  0  0  0  0
   -4.6032    5.0688    0.7459 C   0  0  0  0  0  0  0  0  0  0  0  0
   -2.1882    5.4607    5.7998 O   0  0  0  0  0  0  0  0  0  0  0  0
   -4.7646    6.6946    5.4862 N   0  3  0  0  0  0  0  0  0  0  0  0
   -6.1793    5.8019    3.1325 O   0  0  0  0  0  0  0  0  0  0  0  0
   -2.7219    4.9504    2.2052 O   0  0  0  0  0  0  0  0  0  0  0  0
   -6.0191    5.1092    0.6375 O   0  0  0  0  0  0  0  0  0  0  0  0
   -0.7217    2.5679    2.5692 C   0  0  2  0  0  0  0  0  0  0  0  0
    0.4018    1.5405    2.5541 C   0  0  0  0  0  0  0  0  0  0  0  0
    1.3547    1.7734    3.7269 C   0  0  1  0  0  0  0  0  0  0  0  0
    0.5880    1.6617    5.0428 C   0  0  2  0  0  0  0  0  0  0  0  0
   -0.5509    2.6821    5.0724 C   0  0  1  0  0  0  0  0  0  0  0  0
   -1.4835    2.4633    3.8815 C   0  0  1  0  0  0  0  0  0  0  0  0
   -1.6654    2.3272    1.4556 N   0  3  0  0  0  0  0  0  0  0  0  0
    2.4911    0.8189    3.6518 N   0  3  0  0  0  0  0  0  0  0  0  0
   -1.2792    2.5561    6.2864 O   0  0  0  0  0  0  0  0  0  0  0  0
   -2.5433    3.4365    3.9059 O   0  0  0  0  0  0  0  0  0  0  0  0
    1.8838    0.7497    6.8464 C   0  0  1  0  0  0  0  0  0  0  0  0
    1.1026    0.6158    8.1547 C   0  0  1  0  0  0  0  0  0  0  0  0
    1.3986    1.7953    9.0688 C   0  0  0  0  0  0  0  0  0  0  0  0
    2.8999    1.8988    9.2826 C   0  0  1  0  0  0  0  0  0  0  0  0
    3.6074    2.0068    7.9323 C   0  0  1  0  0  0  0  0  0  0  0  0
    5.1186    2.0550    8.0659 C   0  0  0  0  0  0  0  0  0  0  0  0
   -0.3489    0.4638    7.8966 N   0  3  0  0  0  0  0  0  0  0  0  0
    5.7501    0.8216    7.5389 N   0  3  0  0  0  0  0  0  0  0  0  0
    1.4763    1.8841    6.1572 O   0  0  0  0  0  0  0  0  0  0  0  0
    3.1993    3.0360   10.0788 O   0  0  0  0  0  0  0  0  0  0  0  0
    3.2876    0.8632    7.1104 O   0  0  0  0  0  0  0  0  0  0  0  0
  1  2  1  0  0  0  0
  1 10  1  0  0  0  0
  1 21  1  1  0  0  0
  2  3  1  0  0  0  0
  2  7  1  1  0  0  0
  3  4  1  0  0  0  0
  3  8  1  1  0  0  0
  4  5  1  0  0  0  0
  4  9  1  1  0  0  0
  5  6  1  6  0  0  0
  5 10  1  0  0  0  0
  6 11  1  0  0  0  0
 12 13  1  0  0  0  0
 12 17  1  0  0  0  0
 12 18  1  6  0  0  0
 13 14  1  0  0  0  0
 14 15  1  0  0  0  0
 14 19  1  1  0  0  0
 15 16  1  0  0  0  0
 15 30  1  1  0  0  0
 16 17  1  0  0  0  0
 16 20  1  1  0  0  0
 17 21  1  6  0  0  0
 22 23  1  0  0  0  0
 22 30  1  1  0  0  0
 22 32  1  0  0  0  0
 23 24  1  0  0  0  0
 23 28  1  6  0  0  0
 24 25  1  0  0  0  0
 25 26  1  0  0  0  0
 25 31  1  1  0  0  0
 26 27  1  1  0  0  0
 26 32  1  0  0  0  0
 27 29  1  0  0  0  0
M  CHG  5   8   1  18   1  19   1  28   1  29   1
M  END
>  <CHROM.1>
-132.50086390,95.56268157,168.20688467,-179.26989260,-54.29944238,178.72566017
61.86197788,20.63656186,-102.93641862,158.17308819,-46.61185018,-102.39992317
-58.93720077,71.15601147,111.25757463,-55.09410774,-0.60476140,3.07421860
5.06980791,-2.74344361,-0.59415231,1.27855594

>  <Name>
1tob

>  <RI>
0

>  <Rbt.Current_Directory>
/home/itssahil/PROJECTS/Mol_Feturizer/New_Systems/rnas/1tob

>  <Rbt.Executable>
rbdock ($Id: //depot/dev/client3/rdock/2013.1/src/exe/rbdock.cxx#4 $)

>  <Rbt.Library>
libRbt.so (2013.1, Build901 2013/11/27)

>  <Rbt.Parameter_File>
/export/apps/rDock/src/rDock_2013.1_src/data/scripts/dock_solv.prm

>  <Rbt.Receptor>
prm/pocket_docking_8.prm

>  <SCORE>
-40.8034

>  <SCORE.INTER>
-39.457

>  <SCORE.INTER.CONST>
1

>  <SCORE.INTER.POLAR>
-6.47918

>  <SCORE.INTER.ROT>
6

>  <SCORE.INTER.SOLV>
30.2101

>  <SCORE.INTER.VDW>
-22.3774

>  <SCORE.INTER.norm>
-1.23303

>  <SCORE.INTRA>
-1.34644

>  <SCORE.INTRA.DIHEDRAL>
11.6481

>  <SCORE.INTRA.DIHEDRAL.0>
22.9177

>  <SCORE.INTRA.POLAR>
-2.71238

>  <SCORE.INTRA.POLAR.0>
-0.311208

>  <SCORE.INTRA.REPUL>
0

>  <SCORE.INTRA.REPUL.0>
0

>  <SCORE.INTRA.SOLV>
0.508831

>  <SCORE.INTRA.SOLV.lig_0>
-132.657

>  <SCORE.INTRA.VDW>
1.79718

>  <SCORE.INTRA.VDW.0>
-4.68867

>  <SCORE.INTRA.norm>
-0.0420763

>  <SCORE.RESTR>
0

>  <SCORE.RESTR.CAVITY>
0

>  <SCORE.RESTR.norm>
0

>  <SCORE.SYSTEM>
0

>  <SCORE.SYSTEM.CONST>
0

>  <SCORE.SYSTEM.DIHEDRAL>
0

>  <SCORE.SYSTEM.SOLV>
0

>  <SCORE.SYSTEM.norm>
0

>  <SCORE.heavy>
32

>  <SCORE.norm>
-1.27511

>  <RMSD>
10.262

$$$$
1tob
 OpenBabel11021811413D
libRbt.so/2013.1/901 2013/11/27
 32 34  0  0  0  0  0  0  0  0999 V2000
   -2.2849    4.8678    3.7584 C   0  0  2  0  0  0  0  0  0  0  0  0
   -2.7895    5.9547    4.7046 C   0  0  1  0  0  0  0  0  0  0  0  0
   -4.3083    6.0332    4.6319 C   0  0  2  0  0  0  0  0  0  0  0  0
   -4.7345    6.2583    3.1861 C   0  0  1  0  0  0  0  0  0  0  0  0
   -4.1587    5.1583    2.2986 C   0  0  1  0  0  0  0  0  0  0  0  0
   -4.4843    5.3694    0.8331 C   0  0  0  0  0  0  0  0  0  0  0  0
   -2.3886    5.6566    6.0343 O   0  0  0  0  0  0  0  0  0  0  0  0
   -4.8322    7.0831    5.5322 N   0  3  0  0  0  0  0  0  0  0  0  0
   -6.1531    6.2642    3.0984 O   0  0  0  0  0  0  0  0  0  0  0  0
   -2.7199    5.1287    2.4180 O   0  0  0  0  0  0  0  0  0  0  0  0
   -3.8730    6.5491    0.3304 O   0  0  0  0  0  0  0  0  0  0  0  0
   -1.5531    2.1602    2.6646 C   0  0  2  0  0  0  0  0  0  0  0  0
   -0.5354    1.0282    2.6337 C   0  0  0  0  0  0  0  0  0  0  0  0
    0.7695    1.4644    3.3004 C   0  0  1  0  0  0  0  0  0  0  0  0
    0.4995    1.8592    4.7506 C   0  0  2  0  0  0  0  0  0  0  0  0
   -0.5279    2.9911    4.8015 C   0  0  1  0  0  0  0  0  0  0  0  0
   -1.8196    2.5599    4.1077 C   0  0  1  0  0  0  0  0  0  0  0  0
   -2.8292    1.7330    2.0502 N   0  3  0  0  0  0  0  0  0  0  0  0
    1.7809    0.3816    3.1881 N   0  3  0  0  0  0  0  0  0  0  0  0
   -0.7974    3.3367    6.1536 O   0  0  0  0  0  0  0  0  0  0  0  0
   -2.7759    3.6346    4.1445 O   0  0  0  0  0  0  0  0  0  0  0  0
    1.7313    2.2336    6.7770 C   0  0  1  0  0  0  0  0  0  0  0  0
    2.9101    3.0396    7.3253 C   0  0  1  0  0  0  0  0  0  0  0  0
    4.2257    2.4225    6.8752 C   0  0  0  0  0  0  0  0  0  0  0  0
    4.2619    0.9611    7.2915 C   0  0  1  0  0  0  0  0  0  0  0  0
    3.0440    0.2326    6.7244 C   0  0  1  0  0  0  0  0  0  0  0  0
    2.9828   -1.2232    7.1497 C   0  0  0  0  0  0  0  0  0  0  0  0
    2.8059    4.4670    6.9407 N   0  3  0  0  0  0  0  0  0  0  0  0
    2.7702   -1.3536    8.6110 N   0  3  0  0  0  0  0  0  0  0  0  0
    1.7234    2.2772    5.3891 O   0  0  0  0  0  0  0  0  0  0  0  0
    5.4544    0.3515    6.8192 O   0  0  0  0  0  0  0  0  0  0  0  0
    1.8288    0.8632    7.1838 O   0  0  0  0  0  0  0  0  0  0  0  0
  1  2  1  0  0  0  0
  1 10  1  0  0  0  0
  1 21  1  1  0  0  0
  2  3  1  0  0  0  0
  2  7  1  1  0  0  0
  3  4  1  0  0  0  0
  3  8  1  1  0  0  0
  4  5  1  0  0  0  0
  4  9  1  1  0  0  0
  5  6  1  6  0  0  0
  5 10  1  0  0  0  0
  6 11  1  0  0  0  0
 12 13  1  0  0  0  0
 12 17  1  0  0  0  0
 12 18  1  1  0  0  0
 13 14  1  0  0  0  0
 14 15  1  0  0  0  0
 14 19  1  1  0  0  0
 15 16  1  0  0  0  0
 15 30  1  6  0  0  0
 16 17  1  0  0  0  0
 16 20  1  1  0  0  0
 17 21  1  6  0  0  0
 22 23  1  0  0  0  0
 22 30  1  6  0  0  0
 22 32  1  0  0  0  0
 23 24  1  0  0  0  0
 23 28  1  6  0  0  0
 24 25  1  0  0  0  0
 25 26  1  0  0  0  0
 25 31  1  6  0  0  0
 26 27  1  1  0  0  0
 26 32  1  0  0  0  0
 27 29  1  0  0  0  0
M  CHG  5   8   1  18   1  19   1  28   1  29   1
M  END
>  <CHROM.1>
-136.92003094,115.43472898,177.84588438,-54.03760906,64.58154777,64.07653695
28.10470649,-150.56677704,-159.22914043,178.22321933,-73.99127345,-164.75680160
61.75243806,-57.51382702,65.88648223,-60.98256212,-0.53810793,3.13338689
4.75170332,-3.11972818,0.70081312,-2.27605437

>  <Name>
1tob

>  <RI>
0

>  <Rbt.Current_Directory>
/home/itssahil/PROJECTS/Mol_Feturizer/New_Systems/rnas/1tob

>  <Rbt.Executable>
rbdock ($Id: //depot/dev/client3/rdock/2013.1/src/exe/rbdock.cxx#4 $)

>  <Rbt.Library>
libRbt.so (2013.1, Build901 2013/11/27)

>  <Rbt.Parameter_File>
/export/apps/rDock/src/rDock_2013.1_src/data/scripts/dock_solv.prm

>  <Rbt.Receptor>
prm/pocket_docking_8.prm

>  <SCORE>
-50.4001

>  <SCORE.INTER>
-47.131

>  <SCORE.INTER.CONST>
1

>  <SCORE.INTER.POLAR>
-7.83142

>  <SCORE.INTER.ROT>
6

>  <SCORE.INTER.SOLV>
34.2099

>  <SCORE.INTER.VDW>
-24.3192

>  <SCORE.INTER.norm>
-1.47284

>  <SCORE.INTRA>
-3.26906

>  <SCORE.INTRA.DIHEDRAL>
-1.84751

>  <SCORE.INTRA.DIHEDRAL.0>
22.9177

>  <SCORE.INTRA.POLAR>
-0.732518

>  <SCORE.INTRA.POLAR.0>
-0.311208

>  <SCORE.INTRA.REPUL>
0

>  <SCORE.INTRA.REPUL.0>
0

>  <SCORE.INTRA.SOLV>
-2.79696

>  <SCORE.INTRA.SOLV.lig_0>
-132.657

>  <SCORE.INTRA.VDW>
1.54373

>  <SCORE.INTRA.VDW.0>
-4.68867

>  <SCORE.INTRA.norm>
-0.102158

>  <SCORE.RESTR>
0

>  <SCORE.RESTR.CAVITY>
0

>  <SCORE.RESTR.norm>
0

>  <SCORE.SYSTEM>
0

>  <SCORE.SYSTEM.CONST>
0

>  <SCORE.SYSTEM.DIHEDRAL>
0

>  <SCORE.SYSTEM.SOLV>
0

>  <SCORE.SYSTEM.norm>
0

>  <SCORE.heavy>
32

>  <SCORE.norm>
-1.575

>  <RMSD>
10.315

$$$$
1tob
 OpenBabel11021811413D
libRbt.so/2013.1/901 2013/11/27
 32 34  0  0  0  0  0  0  0  0999 V2000
   -1.5527    5.2289    4.6060 C   0  0  2  0  0  0  0  0  0  0  0  0
   -2.4667    6.2054    5.3423 C   0  0  1  0  0  0  0  0  0  0  0  0
   -3.9029    6.0167    4.8731 C   0  0  2  0  0  0  0  0  0  0  0  0
   -3.9646    6.1710    3.3582 C   0  0  1  0  0  0  0  0  0  0  0  0
   -2.9961    5.1937    2.6976 C   0  0  1  0  0  0  0  0  0  0  0  0
   -2.9547    5.3521    1.1904 C   0  0  0  0  0  0  0  0  0  0  0  0
   -2.3860    5.9754    6.7416 O   0  0  0  0  0  0  0  0  0  0  0  0
   -4.8168    6.9537    5.5616 N   0  3  0  0  0  0  0  0  0  0  0  0
   -5.2892    5.9284    2.9037 O   0  0  0  0  0  0  0  0  0  0  0  0
   -1.6566    5.4164    3.1889 O   0  0  0  0  0  0  0  0  0  0  0  0
   -4.1858    4.9685    0.5943 O   0  0  0  0  0  0  0  0  0  0  0  0
    0.0521    2.9330    3.8911 C   0  0  2  0  0  0  0  0  0  0  0  0
    1.2189    1.9911    4.1549 C   0  0  0  0  0  0  0  0  0  0  0  0
    2.0611    2.4984    5.3256 C   0  0  1  0  0  0  0  0  0  0  0  0
    1.1954    2.5911    6.5801 C   0  0  2  0  0  0  0  0  0  0  0  0
    0.0124    3.5280    6.3308 C   0  0  1  0  0  0  0  0  0  0  0  0
   -0.8087    3.0323    5.1410 C   0  0  1  0  0  0  0  0  0  0  0  0
   -0.7854    2.4297    2.7803 N   0  3  0  0  0  0  0  0  0  0  0  0
    3.2423    1.6175    5.5176 N   0  3  0  0  0  0  0  0  0  0  0  0
   -0.8060    3.5898    7.4912 O   0  0  0  0  0  0  0  0  0  0  0  0
   -1.9103    3.9267    4.9014 O   0  0  0  0  0  0  0  0  0  0  0  0
    1.3246    3.1374    8.9144 C   0  0  1  0  0  0  0  0  0  0  0  0
    2.3189    3.4638   10.0301 C   0  0  1  0  0  0  0  0  0  0  0  0
    3.3500    2.3527   10.1593 C   0  0  0  0  0  0  0  0  0  0  0  0
    2.6351    1.0281   10.3710 C   0  0  1  0  0  0  0  0  0  0  0  0
    1.6474    0.7866    9.2301 C   0  0  1  0  0  0  0  0  0  0  0  0
    0.8523   -0.4945    9.4060 C   0  0  0  0  0  0  0  0  0  0  0  0
    2.9517    4.7859    9.8113 N   0  3  0  0  0  0  0  0  0  0  0  0
    1.7073   -1.6927    9.2303 N   0  3  0  0  0  0  0  0  0  0  0  0
    1.9786    3.0734    7.6912 O   0  0  0  0  0  0  0  0  0  0  0  0
    3.5806   -0.0302   10.4255 O   0  0  0  0  0  0  0  0  0  0  0  0
    0.6975    1.8719    9.1564 O   0  0  0  0  0  0  0  0  0  0  0  0
  1  2  1  0  0  0  0
  1 10  1  0  0  0  0
  1 21  1  6  0  0  0
  2  3  1  0  0  0  0
  2  7  1  1  0  0  0
  3  4  1  0  0  0  0
  3  8  1  1  0  0  0
  4  5  1  0  0  0  0
  4  9  1  6  0  0  0
  5  6  1  6  0  0  0
  5 10  1  0  0  0  0
  6 11  1  0  0  0  0
 12 13  1  0  0  0  0
 12 17  1  0  0  0  0
 12 18  1  6  0  0  0
 13 14  1  0  0  0  0
 14 15  1  0  0  0  0
 14 19  1  1  0  0  0
 15 16  1  0  0  0  0
 15 30  1  1  0  0  0
 16 17  1  0  0  0  0
 16 20  1  1  0  0  0
 17 21  1  6  0  0  0
 22 23  1  0  0  0  0
 22 30  1  6  0  0  0
 22 32  1  0  0  0  0
 23 24  1  0  0  0  0
 23 28  1  6  0  0  0
 24 25  1  0  0  0  0
 25 26  1  0  0  0  0
 25 31  1  6  0  0  0
 26 27  1  1  0  0  0
 26 32  1  0  0  0  0
 27 29  1  0  0  0  0
M  CHG  5   8   1  18   1  19   1  28   1  29   1
M  END
>  <CHROM.1>
-137.75406187,71.00039860,-174.18837342,-44.89872004,-67.13592764,57.99718364
-171.49634887,52.32692929,-176.73938774,-42.05109654,-61.80361325,171.68104991
-167.53032079,61.48832748,-69.71234479,50.88268910,-0.32179498,3.42541775
6.17581225,2.68791736,0.81141948,-1.94519789

>  <Name>
1tob

>  <RI>
0

>  <Rbt.Current_Directory>
/home/itssahil/PROJECTS/Mol_Feturizer/New_Systems/rnas/1tob

>  <Rbt.Executable>
rbdock ($Id: //depot/dev/client3/rdock/2013.1/src/exe/rbdock.cxx#4 $)

>  <Rbt.Library>
libRbt.so (2013.1, Build901 2013/11/27)

>  <Rbt.Parameter_File>
/export/apps/rDock/src/rDock_2013.1_src/data/scripts/dock_solv.prm

>  <Rbt.Receptor>
prm/pocket_docking_8.prm

>  <SCORE>
-49.0625

>  <SCORE.INTER>
-39.8621

>  <SCORE.INTER.CONST>
1

>  <SCORE.INTER.POLAR>
-5.20863

>  <SCORE.INTER.ROT>
6

>  <SCORE.INTER.SOLV>
19.3859

>  <SCORE.INTER.VDW>
-23.2746

>  <SCORE.INTER.norm>
-1.24569

>  <SCORE.INTRA>
-9.20042

>  <SCORE.INTRA.DIHEDRAL>
-12.0106

>  <SCORE.INTRA.DIHEDRAL.0>
22.9177

>  <SCORE.INTRA.POLAR>
-1.2901

>  <SCORE.INTRA.POLAR.0>
-0.311208

>  <SCORE.INTRA.REPUL>
0

>  <SCORE.INTRA.REPUL.0>
0

>  <SCORE.INTRA.SOLV>
-3.36476

>  <SCORE.INTRA.SOLV.lig_0>
-132.657

>  <SCORE.INTRA.VDW>
2.8736

>  <SCORE.INTRA.VDW.0>
-4.68867

>  <SCORE.INTRA.norm>
-0.287513

>  <SCORE.RESTR>
0

>  <SCORE.RESTR.CAVITY>
0

>  <SCORE.RESTR.norm>
0

>  <SCORE.SYSTEM>
0

>  <SCORE.SYSTEM.CONST>
0

>  <SCORE.SYSTEM.DIHEDRAL>
0

>  <SCORE.SYSTEM.SOLV>
0

>  <SCORE.SYSTEM.norm>
0

>  <SCORE.heavy>
32

>  <SCORE.norm>
-1.5332

>  <RMSD>
10.426

$$$$
1tob
 OpenBabel11021811413D
libRbt.so/2013.1/901 2013/11/27
 32 34  0  0  0  0  0  0  0  0999 V2000
   -2.9519    3.7254    4.1993 C   0  0  2  0  0  0  0  0  0  0  0  0
   -3.5350    3.0517    2.9595 C   0  0  1  0  0  0  0  0  0  0  0  0
   -3.5570    4.0399    1.8014 C   0  0  2  0  0  0  0  0  0  0  0  0
   -4.3253    5.2889    2.2167 C   0  0  1  0  0  0  0  0  0  0  0  0
   -3.7102    5.8789    3.4826 C   0  0  1  0  0  0  0  0  0  0  0  0
   -4.4791    7.0827    3.9910 C   0  0  0  0  0  0  0  0  0  0  0  0
   -2.7457    1.9233    2.6111 O   0  0  0  0  0  0  0  0  0  0  0  0
   -4.1240    3.4221    0.5831 N   0  3  0  0  0  0  0  0  0  0  0  0
   -4.2923    6.2453    1.1659 O   0  0  0  0  0  0  0  0  0  0  0  0
   -3.7099    4.8936    4.5382 O   0  0  0  0  0  0  0  0  0  0  0  0
   -3.7459    7.7849    4.9847 O   0  0  0  0  0  0  0  0  0  0  0  0
    0.3338    3.2258    2.8818 C   0  0  2  0  0  0  0  0  0  0  0  0
    1.3514    2.0942    2.9285 C   0  0  0  0  0  0  0  0  0  0  0  0
    2.0638    2.0715    4.2810 C   0  0  1  0  0  0  0  0  0  0  0  0
    1.0412    1.8753    5.3980 C   0  0  2  0  0  0  0  0  0  0  0  0
    0.0051    2.9998    5.3616 C   0  0  1  0  0  0  0  0  0  0  0  0
   -0.6827    3.0365    3.9973 C   0  0  1  0  0  0  0  0  0  0  0  0
   -0.3822    3.2321    1.5873 N   0  3  0  0  0  0  0  0  0  0  0  0
    3.1119    1.0182    4.2826 N   0  3  0  0  0  0  0  0  0  0  0  0
   -0.9606    2.7985    6.3848 O   0  0  0  0  0  0  0  0  0  0  0  0
   -1.6442    4.1066    3.9638 O   0  0  0  0  0  0  0  0  0  0  0  0
    1.7856    0.6190    7.3036 C   0  0  1  0  0  0  0  0  0  0  0  0
    1.3389    0.7294    8.7624 C   0  0  1  0  0  0  0  0  0  0  0  0
    2.2710    1.6541    9.5308 C   0  0  0  0  0  0  0  0  0  0  0  0
    3.7006    1.1588    9.3843 C   0  0  1  0  0  0  0  0  0  0  0  0
    4.0616    1.0553    7.9029 C   0  0  1  0  0  0  0  0  0  0  0  0
    5.4601    0.5095    7.6785 C   0  0  0  0  0  0  0  0  0  0  0  0
   -0.0752    1.1629    8.8565 N   0  3  0  0  0  0  0  0  0  0  0  0
    6.4903    1.3942    8.2731 N   0  3  0  0  0  0  0  0  0  0  0  0
    1.7016    1.8569    6.6802 O   0  0  0  0  0  0  0  0  0  0  0  0
    4.5921    2.0495   10.0391 O   0  0  0  0  0  0  0  0  0  0  0  0
    3.1436    0.1680    7.2281 O   0  0  0  0  0  0  0  0  0  0  0  0
  1  2  1  0  0  0  0
  1 10  1  0  0  0  0
  1 21  1  6  0  0  0
  2  3  1  0  0  0  0
  2  7  1  6  0  0  0
  3  4  1  0  0  0  0
  3  8  1  6  0  0  0
  4  5  1  0  0  0  0
  4  9  1  6  0  0  0
  5  6  1  1  0  0  0
  5 10  1  0  0  0  0
  6 11  1  0  0  0  0
 12 13  1  0  0  0  0
 12 17  1  0  0  0  0
 12 18  1  6  0  0  0
 13 14  1  0  0  0  0
 14 15  1  0  0  0  0
 14 19  1  6  0  0  0
 15 16  1  0  0  0  0
 15 30  1  1  0  0  0
 16 17  1  0  0  0  0
 16 20  1  1  0  0  0
 17 21  1  1  0  0  0
 22 23  1  0  0  0  0
 22 30  1  1  0  0  0
 22 32  1  0  0  0  0
 23 24  1  0  0  0  0
 23 28  1  6  0  0  0
 24 25  1  0  0  0  0
 25 26  1  0  0  0  0
 25 31  1  1  0  0  0
 26 27  1  1  0  0  0
 26 32  1  0  0  0  0
 27 29  1  0  0  0  0
M  CHG  5   8   1  18   1  19   1  28   1  29   1
M  END
>  <CHROM.1>
-76.41238939,136.60510317,-64.27160523,-178.77423526,-167.47010017,70.96834797
64.92468086,82.10135751,-107.31757197,169.49169417,139.52632383,-131.74707226
-35.73788081,-50.75773673,-61.76121218,54.78893454,-0.08252691,2.89951398
5.15360444,2.67204262,0.59500585,-1.79789876

>  <Name>
1tob

>  <RI>
0

>  <Rbt.Current_Directory>
/home/itssahil/PROJECTS/Mol_Feturizer/New_Systems/rnas/1tob

>  <Rbt.Executable>
rbdock ($Id: //depot/dev/client3/rdock/2013.1/src/exe/rbdock.cxx#4 $)

>  <Rbt.Library>
libRbt.so (2013.1, Build901 2013/11/27)

>  <Rbt.Parameter_File>
/export/apps/rDock/src/rDock_2013.1_src/data/scripts/dock_solv.prm

>  <Rbt.Receptor>
prm/pocket_docking_8.prm

>  <SCORE>
-51.0785

>  <SCORE.INTER>
-47.4683

>  <SCORE.INTER.CONST>
1

>  <SCORE.INTER.POLAR>
-7.81023

>  <SCORE.INTER.ROT>
6

>  <SCORE.INTER.SOLV>
24.0276

>  <SCORE.INTER.VDW>
-21.2206

>  <SCORE.INTER.norm>
-1.48339

>  <SCORE.INTRA>
-3.61017

>  <SCORE.INTRA.DIHEDRAL>
7.32198

>  <SCORE.INTRA.DIHEDRAL.0>
22.9177

>  <SCORE.INTRA.POLAR>
-2.65825

>  <SCORE.INTRA.POLAR.0>
-0.311208

>  <SCORE.INTRA.REPUL>
0

>  <SCORE.INTRA.REPUL.0>
0

>  <SCORE.INTRA.SOLV>
3.47015

>  <SCORE.INTRA.SOLV.lig_0>
-132.657

>  <SCORE.INTRA.VDW>
0.031813

>  <SCORE.INTRA.VDW.0>
-4.68867

>  <SCORE.INTRA.norm>
-0.112818

>  <SCORE.RESTR>
0

>  <SCORE.RESTR.CAVITY>
0

>  <SCORE.RESTR.norm>
0

>  <SCORE.SYSTEM>
0

>  <SCORE.SYSTEM.CONST>
0

>  <SCORE.SYSTEM.DIHEDRAL>
0

>  <SCORE.SYSTEM.SOLV>
0

>  <SCORE.SYSTEM.norm>
0

>  <SCORE.heavy>
32

>  <SCORE.norm>
-1.5962

>  <RMSD>
10.501

$$$$
1tob
 OpenBabel11021811413D
libRbt.so/2013.1/901 2013/11/27
 32 34  0  0  0  0  0  0  0  0999 V2000
  -10.7314   -0.9350    8.9202 C   0  0  2  0  0  0  0  0  0  0  0  0
   -9.5719   -0.0556    9.3821 C   0  0  1  0  0  0  0  0  0  0  0  0
   -9.3371   -0.2580   10.8728 C   0  0  2  0  0  0  0  0  0  0  0  0
  -10.6306    0.0167   11.6305 C   0  0  1  0  0  0  0  0  0  0  0  0
  -11.7486   -0.8675   11.0852 C   0  0  1  0  0  0  0  0  0  0  0  0
  -13.0827   -0.5857   11.7480 C   0  0  0  0  0  0  0  0  0  0  0  0
   -8.3959   -0.3956    8.6617 O   0  0  0  0  0  0  0  0  0  0  0  0
   -8.2232    0.5858   11.3572 N   0  3  0  0  0  0  0  0  0  0  0  0
  -10.4393   -0.2364   13.0159 O   0  0  0  0  0  0  0  0  0  0  0  0
  -11.9161   -0.6367    9.6696 O   0  0  0  0  0  0  0  0  0  0  0  0
  -14.0915   -1.4699   11.2806 O   0  0  0  0  0  0  0  0  0  0  0  0
  -10.0022   -4.4771    8.2076 C   0  0  2  0  0  0  0  0  0  0  0  0
   -9.6476   -5.2311    6.9333 C   0  0  0  0  0  0  0  0  0  0  0  0
  -10.6961   -4.9738    5.8507 C   0  0  1  0  0  0  0  0  0  0  0  0
  -10.7669   -3.4788    5.5479 C   0  0  2  0  0  0  0  0  0  0  0  0
  -11.1146   -2.7037    6.8198 C   0  0  1  0  0  0  0  0  0  0  0  0
  -10.0796   -2.9880    7.9078 C   0  0  1  0  0  0  0  0  0  0  0  0
   -8.9736   -4.6959    9.2481 N   0  3  0  0  0  0  0  0  0  0  0  0
  -10.3841   -5.7812    4.6429 N   0  3  0  0  0  0  0  0  0  0  0  0
  -11.1521   -1.3108    6.5401 O   0  0  0  0  0  0  0  0  0  0  0  0
  -10.4213   -2.2691    9.1066 O   0  0  0  0  0  0  0  0  0  0  0  0
  -11.5860   -2.0580    3.7946 C   0  0  1  0  0  0  0  0  0  0  0  0
  -12.8452   -1.7570    2.9799 C   0  0  1  0  0  0  0  0  0  0  0  0
  -13.0953   -2.8642    1.9671 C   0  0  0  0  0  0  0  0  0  0  0  0
  -11.8578   -3.0408    1.1024 C   0  0  1  0  0  0  0  0  0  0  0  0
  -10.6436   -3.3154    1.9889 C   0  0  1  0  0  0  0  0  0  0  0  0
   -9.3567   -3.4451    1.1945 C   0  0  0  0  0  0  0  0  0  0  0  0
  -14.0141   -1.5392    3.8646 N   0  3  0  0  0  0  0  0  0  0  0  0
   -9.2098   -4.8022    0.6161 N   0  3  0  0  0  0  0  0  0  0  0  0
  -11.7568   -3.2231    4.5305 O   0  0  0  0  0  0  0  0  0  0  0  0
  -12.0490   -4.1171    0.1957 O   0  0  0  0  0  0  0  0  0  0  0  0
  -10.4586   -2.2340    2.9279 O   0  0  0  0  0  0  0  0  0  0  0  0
  1  2  1  0  0  0  0
  1 10  1  0  0  0  0
  1 21  1  1  0  0  0
  2  3  1  0  0  0  0
  2  7  1  6  0  0  0
  3  4  1  0  0  0  0
  3  8  1  1  0  0  0
  4  5  1  0  0  0  0
  4  9  1  1  0  0  0
  5  6  1  1  0  0  0
  5 10  1  0  0  0  0
  6 11  1  0  0  0  0
 12 13  1  0  0  0  0
 12 17  1  0  0  0  0
 12 18  1  1  0  0  0
 13 14  1  0  0  0  0
 14 15  1  0  0  0  0
 14 19  1  6  0  0  0
 15 16  1  0  0  0  0
 15 30  1  6  0  0  0
 16 17  1  0  0  0  0
 16 20  1  6  0  0  0
 17 21  1  1  0  0  0
 22 23  1  0  0  0  0
 22 30  1  6  0  0  0
 22 32  1  0  0  0  0
 23 24  1  0  0  0  0
 23 28  1  1  0  0  0
 24 25  1  0  0  0  0
 25 26  1  0  0  0  0
 25 31  1  6  0  0  0
 26 27  1  6  0  0  0
 26 32  1  0  0  0  0
 27 29  1  0  0  0  0
M  CHG  5   8   1  18   1  19   1  28   1  29   1
M  END
>  <CHROM.1>
-104.54544080,81.75744583,-177.73262223,-177.98674943,-176.67912585,-176.01053892
64.68274966,32.80526288,-155.81925636,96.29810340,-170.08133201,-167.66097082
60.81376475,161.99922227,-81.67576343,147.14244702,-10.87983546,-2.34927004
6.68262458,1.50486258,-0.56612164,1.22646170

>  <Name>
1tob

>  <RI>
0

>  <Rbt.Current_Directory>
/home/itssahil/PROJECTS/Mol_Feturizer/New_Systems/rnas/1tob

>  <Rbt.Executable>
rbdock ($Id: //depot/dev/client3/rdock/2013.1/src/exe/rbdock.cxx#4 $)

>  <Rbt.Library>
libRbt.so (2013.1, Build901 2013/11/27)

>  <Rbt.Parameter_File>
/export/apps/rDock/src/rDock_2013.1_src/data/scripts/dock_solv.prm

>  <Rbt.Receptor>
prm/blind_docking_40.prm

>  <SCORE>
-22.3721

>  <SCORE.INTER>
-32.1267

>  <SCORE.INTER.CONST>
1

>  <SCORE.INTER.POLAR>
-5.89788

>  <SCORE.INTER.ROT>
6

>  <SCORE.INTER.SOLV>
36.2423

>  <SCORE.INTER.VDW>
-21.439

>  <SCORE.INTER.norm>
-1.00396

>  <SCORE.INTRA>
3.21133

>  <SCORE.INTRA.DIHEDRAL>
0.690071

>  <SCORE.INTRA.DIHEDRAL.0>
22.9177

>  <SCORE.INTRA.POLAR>
0.297184

>  <SCORE.INTRA.POLAR.0>
-0.311208

>  <SCORE.INTRA.REPUL>
0

>  <SCORE.INTRA.REPUL.0>
0

>  <SCORE.INTRA.SOLV>
-4.75687

>  <SCORE.INTRA.SOLV.lig_0>
-132.657

>  <SCORE.INTRA.VDW>
4.23431

>  <SCORE.INTRA.VDW.0>
-4.68867

>  <SCORE.INTRA.norm>
0.100354

>  <SCORE.RESTR>
6.54333

>  <SCORE.RESTR.CAVITY>
6.54333

>  <SCORE.RESTR.norm>
0.204479

>  <SCORE.SYSTEM>
0

>  <SCORE.SYSTEM.CONST>
0

>  <SCORE.SYSTEM.DIHEDRAL>
0

>  <SCORE.SYSTEM.SOLV>
0

>  <SCORE.SYSTEM.norm>
0

>  <SCORE.heavy>
32

>  <SCORE.norm>
-0.699127

>  <RMSD>
13.289

$$$$
