ligand
  PyMOL2.2          3D                             0

 31 33  0  0  0  0  0  0  0  0999 V2000
    1.8270   15.1860   36.8410 C   0  0  0  0  0  0  0  0  0  0  0  0
    1.2440   15.7480   38.0010 O   0  0  0  0  0  0  0  0  0  0  0  0
   -2.4340   15.3480   40.0920 C   0  0  0  0  0  0  0  0  0  0  0  0
   -3.8360   15.3210   40.3380 N   0  0  0  0  0  0  0  0  0  0  0  0
   -3.4740   12.1270   38.9980 C   0  0  0  0  0  0  0  0  0  0  0  0
    3.3830   15.0000   37.1100 C   0  0  0  0  0  0  0  0  0  0  0  0
    3.5680   14.1510   38.2820 N   0  0  0  0  0  0  0  0  0  0  0  0
   -2.0560   16.7870   39.5210 C   0  0  0  0  0  0  0  0  0  0  0  0
   -3.8280   11.1230   40.1460 C   0  0  0  0  0  0  0  0  0  0  0  0
   -4.1840   11.8590   41.2970 O   0  0  0  0  0  0  0  0  0  0  0  0
    4.0810   16.3960   37.3050 C   0  0  0  0  0  0  0  0  0  0  0  0
   -0.4940   16.8220   39.2630 C   0  0  0  0  0  0  0  0  0  0  0  0
   -0.1270   18.1410   38.7460 N   0  0  0  0  0  0  0  0  0  0  0  0
   -2.5710   10.2210   40.4250 C   0  0  0  0  0  0  0  0  0  0  0  0
   -2.8770    9.2590   41.5320 N   0  0  0  0  0  0  0  0  0  0  0  0
    3.5100   17.4850   36.3030 C   0  0  0  0  0  0  0  0  0  0  0  0
   -0.1230   15.7030   38.2060 C   0  0  0  0  0  0  0  0  0  0  0  0
   -2.2110    9.3900   39.0730 C   0  0  0  0  0  0  0  0  0  0  0  0
   -3.2600    8.5450   38.6430 O   0  0  0  0  0  0  0  0  0  0  0  0
    2.3770   17.2610   35.5940 C   0  0  0  0  0  0  0  0  0  0  0  0
    1.6220   16.0560   35.6840 O   0  0  0  0  0  0  0  0  0  0  0  0
   -0.5250   14.2780   38.7730 C   0  0  0  0  0  0  0  0  0  0  0  0
   -0.1970   13.2670   37.7980 O   0  0  0  0  0  0  0  0  0  0  0  0
   -1.8990   10.3950   37.9240 C   0  0  0  0  0  0  0  0  0  0  0  0
   -3.0570   11.3630   37.7530 O   0  0  0  0  0  0  0  0  0  0  0  0
    1.7970   18.2740   34.6360 C   0  0  0  0  0  0  0  0  0  0  0  0
    0.5410   18.7050   35.2030 O   0  0  0  0  0  0  0  0  0  0  0  0
   -2.0790   14.2480   39.0360 C   0  0  0  0  0  0  0  0  0  0  0  0
   -2.4100   12.9790   39.5430 O   0  0  0  0  0  0  0  0  0  0  0  0
   -0.9910    8.4680   39.1970 C   0  0  0  0  0  0  0  0  0  0  0  0
   -2.3100    9.5850   42.8570 C   0  0  0  0  0  0  0  0  0  0  0  0
  1  2  1  0  0  0  0
  1  6  1  0  0  0  0
  1 21  1  0  0  0  0
  3  4  1  0  0  0  0
  3  8  1  0  0  0  0
  3 28  1  0  0  0  0
  5  9  1  0  0  0  0
  5 25  1  0  0  0  0
  5 29  1  0  0  0  0
  6  7  1  0  0  0  0
  6 11  1  0  0  0  0
  8 12  1  0  0  0  0
  9 10  1  0  0  0  0
  9 14  1  0  0  0  0
 11 16  1  0  0  0  0
 12 13  1  0  0  0  0
 12 17  1  0  0  0  0
 14 15  1  0  0  0  0
 14 18  1  0  0  0  0
 16 20  1  0  0  0  0
  2 17  1  0  0  0  0
 17 22  1  0  0  0  0
 18 19  1  0  0  0  0
 18 24  1  0  0  0  0
 18 30  1  0  0  0  0
 20 21  1  0  0  0  0
 20 26  1  0  0  0  0
 22 23  1  0  0  0  0
 22 28  1  0  0  0  0
 24 25  1  0  0  0  0
 26 27  1  0  0  0  0
 28 29  1  0  0  0  0
 15 31  1  0  0  0  0
M  END
$$$$
