ligand
 OpenBabel11021811493D
libRbt.so/2013.1/901 2013/11/27
 31 33  0  0  0  0  0  0  0  0999 V2000
    1.9057   15.0259   36.8105 C   0  0  2  0  0  0  0  0  0  0  0  0
    1.3375   15.6651   37.9373 O   0  0  0  0  0  0  0  0  0  0  0  0
   -2.3375   15.3610   40.0495 C   0  0  2  0  0  0  0  0  0  0  0  0
   -3.7384   15.3696   40.3034 N   0  0  0  0  0  0  0  0  0  0  0  0
   -3.6435   12.3135   39.2066 C   0  0  2  0  0  0  0  0  0  0  0  0
    3.4719   14.8967   37.0526 C   0  0  2  0  0  0  0  0  0  0  0  0
    3.7059   14.1479   38.2827 N   0  0  0  0  0  0  0  0  0  0  0  0
   -1.9268   16.7891   39.4737 C   0  0  0  0  0  0  0  0  0  0  0  0
   -3.8799   11.3336   40.4045 C   0  0  2  0  0  0  0  0  0  0  0  0
   -3.8686   12.0759   41.6054 O   0  0  0  0  0  0  0  0  0  0  0  0
    4.1402   16.3190   37.1185 C   0  0  0  0  0  0  0  0  0  0  0  0
   -0.3659   16.7845   39.2070 C   0  0  2  0  0  0  0  0  0  0  0  0
    0.0311   18.0930   38.6854 N   0  0  0  0  0  0  0  0  0  0  0  0
   -2.7347   10.2566   40.4015 C   0  0  1  0  0  0  0  0  0  0  0  0
   -2.9276    9.3128   41.5489 N   0  0  0  0  0  0  0  0  0  0  0  0
    3.5187   17.3119   36.0490 C   0  0  0  0  0  0  0  0  0  0  0  0
   -0.0290   15.6547   38.1500 C   0  0  2  0  0  0  0  0  0  0  0  0
   -2.7993    9.4260   39.0036 C   0  0  1  0  0  0  0  0  0  0  0  0
   -4.0264    8.7495   38.8143 O   0  0  0  0  0  0  0  0  0  0  0  0
    2.3746   17.0070   35.3897 C   0  0  1  0  0  0  0  0  0  0  0  0
    1.6516   15.7964   35.5942 O   0  0  0  0  0  0  0  0  0  0  0  0
   -0.4633   14.2412   38.7220 C   0  0  2  0  0  0  0  0  0  0  0  0
   -0.1662   13.2206   37.7471 O   0  0  0  0  0  0  0  0  0  0  0  0
   -2.6035   10.4128   37.8139 C   0  0  0  0  0  0  0  0  0  0  0  0
   -3.6203   11.5379   37.9007 O   0  0  0  0  0  0  0  0  0  0  0  0
    1.7471   17.9274   34.3702 C   0  0  0  0  0  0  0  0  0  0  0  0
    0.6332   18.5703   35.0264 O   0  0  0  0  0  0  0  0  0  0  0  0
   -2.0161   14.2506   38.9937 C   0  0  1  0  0  0  0  0  0  0  0  0
   -2.3759   12.9912   39.5049 O   0  0  0  0  0  0  0  0  0  0  0  0
   -1.7262    8.3392   38.8575 C   0  0  0  0  0  0  0  0  0  0  0  0
   -2.3024    9.7038   42.8294 C   0  0  0  0  0  0  0  0  0  0  0  0
  1  2  1  1  0  0  0
  1  6  1  0  0  0  0
  1 21  1  0  0  0  0
  3  4  1  6  0  0  0
  3  8  1  0  0  0  0
  3 28  1  0  0  0  0
  5  9  1  0  0  0  0
  5 25  1  0  0  0  0
  5 29  1  1  0  0  0
  6  7  1  1  0  0  0
  6 11  1  0  0  0  0
  8 12  1  0  0  0  0
  9 10  1  1  0  0  0
  9 14  1  0  0  0  0
 11 16  1  0  0  0  0
 12 13  1  6  0  0  0
 12 17  1  0  0  0  0
 14 15  1  1  0  0  0
 14 18  1  0  0  0  0
 15 31  1  0  0  0  0
 16 20  1  0  0  0  0
 17  2  1  1  0  0  0
 17 22  1  0  0  0  0
 18 19  1  6  0  0  0
 18 24  1  0  0  0  0
 18 30  1  0  0  0  0
 20 21  1  0  0  0  0
 20 26  1  1  0  0  0
 22 23  1  6  0  0  0
 22 28  1  0  0  0  0
 24 25  1  0  0  0  0
 26 27  1  0  0  0  0
 28 29  1  1  0  0  0
M  END
>  <CHROM.1>
-165.65280767,-155.97729981,-88.40392338,-163.35131179,-102.57809819,97.21995138
-0.76064898,13.81242675,38.46818985,-0.81369499,-0.58133021,3.10524308

>  <Name>
ligand

>  <RI>
0

>  <Rbt.Current_Directory>
/home/itssahil/PROJECTS/Mol_Feturizer/New_Systems/rnas/4GPY

>  <Rbt.Executable>
rbdock ($Id: //depot/dev/client3/rdock/2013.1/src/exe/rbdock.cxx#4 $)

>  <Rbt.Library>
libRbt.so (2013.1, Build901 2013/11/27)

>  <Rbt.Parameter_File>
/export/apps/rDock/src/rDock_2013.1_src/data/scripts/dock_solv.prm

>  <Rbt.Receptor>
prm/pocket_docking_6.prm

>  <SCORE>
-17.6621

>  <SCORE.INTER>
-16.7957

>  <SCORE.INTER.CONST>
1

>  <SCORE.INTER.POLAR>
0

>  <SCORE.INTER.ROT>
6

>  <SCORE.INTER.SOLV>
20.8587

>  <SCORE.INTER.VDW>
-25.7501

>  <SCORE.INTER.norm>
-0.541798

>  <SCORE.INTRA>
-0.866342

>  <SCORE.INTRA.DIHEDRAL>
-2.42519

>  <SCORE.INTRA.DIHEDRAL.0>
14.7001

>  <SCORE.INTRA.POLAR>
0

>  <SCORE.INTRA.POLAR.0>
0

>  <SCORE.INTRA.REPUL>
0.000328009

>  <SCORE.INTRA.REPUL.0>
0

>  <SCORE.INTRA.SOLV>
-0.202903

>  <SCORE.INTRA.SOLV.lig_0>
-65.3082

>  <SCORE.INTRA.VDW>
0.446065

>  <SCORE.INTRA.VDW.0>
-4.21408

>  <SCORE.INTRA.norm>
-0.0279465

>  <SCORE.RESTR>
0

>  <SCORE.RESTR.CAVITY>
0

>  <SCORE.RESTR.norm>
0

>  <SCORE.SYSTEM>
0

>  <SCORE.SYSTEM.CONST>
0

>  <SCORE.SYSTEM.DIHEDRAL>
0

>  <SCORE.SYSTEM.SOLV>
0

>  <SCORE.SYSTEM.norm>
0

>  <SCORE.heavy>
31

>  <SCORE.norm>
-0.569744

>  <RMSD>
0.353

$$$$
ligand
 OpenBabel11021811493D
libRbt.so/2013.1/901 2013/11/27
 31 33  0  0  0  0  0  0  0  0999 V2000
    1.9151   15.1033   36.7970 C   0  0  2  0  0  0  0  0  0  0  0  0
    1.3344   15.7369   37.9206 O   0  0  0  0  0  0  0  0  0  0  0  0
   -2.3405   15.3771   40.0242 C   0  0  2  0  0  0  0  0  0  0  0  0
   -3.7419   15.3647   40.2749 N   0  0  0  0  0  0  0  0  0  0  0  0
   -3.6226   12.3359   39.2237 C   0  0  2  0  0  0  0  0  0  0  0  0
    3.4787   14.9740   37.0552 C   0  0  2  0  0  0  0  0  0  0  0  0
    3.7000   14.2197   38.2843 N   0  0  0  0  0  0  0  0  0  0  0  0
   -1.9499   16.8114   39.4499 C   0  0  0  0  0  0  0  0  0  0  0  0
   -3.8162   11.3467   40.4217 C   0  0  2  0  0  0  0  0  0  0  0  0
   -3.7563   12.0789   41.6273 O   0  0  0  0  0  0  0  0  0  0  0  0
    4.1452   16.3965   37.1348 C   0  0  0  0  0  0  0  0  0  0  0  0
   -0.3885   16.8303   39.1867 C   0  0  2  0  0  0  0  0  0  0  0  0
   -0.0099   18.1447   38.6665 N   0  0  0  0  0  0  0  0  0  0  0  0
   -2.6755   10.2663   40.3657 C   0  0  1  0  0  0  0  0  0  0  0  0
   -2.8274    9.3135   41.5118 N   0  0  0  0  0  0  0  0  0  0  0  0
    3.5345   17.3938   36.0633 C   0  0  0  0  0  0  0  0  0  0  0  0
   -0.0323   15.7060   38.1302 C   0  0  2  0  0  0  0  0  0  0  0  0
   -2.7965    9.4476   38.9646 C   0  0  1  0  0  0  0  0  0  0  0  0
   -4.0323    8.7766   38.8168 O   0  0  0  0  0  0  0  0  0  0  0  0
    2.3977   17.0912   35.3904 C   0  0  1  0  0  0  0  0  0  0  0  0
    1.6734   15.8791   35.5816 O   0  0  0  0  0  0  0  0  0  0  0  0
   -0.4467   14.2860   38.7006 C   0  0  2  0  0  0  0  0  0  0  0  0
   -0.1322   13.2703   37.7261 O   0  0  0  0  0  0  0  0  0  0  0  0
   -2.6432   10.4438   37.7764 C   0  0  0  0  0  0  0  0  0  0  0  0
   -3.6521   11.5712   37.9115 O   0  0  0  0  0  0  0  0  0  0  0  0
    1.7804   18.0158   34.3685 C   0  0  0  0  0  0  0  0  0  0  0  0
    0.6443   18.6364   35.0078 O   0  0  0  0  0  0  0  0  0  0  0  0
   -2.0001   14.2721   38.9687 C   0  0  1  0  0  0  0  0  0  0  0  0
   -2.3422   13.0072   39.4787 O   0  0  0  0  0  0  0  0  0  0  0  0
   -1.7335    8.3589   38.7683 C   0  0  0  0  0  0  0  0  0  0  0  0
   -2.2472    9.7434   42.8009 C   0  0  0  0  0  0  0  0  0  0  0  0
  1  2  1  1  0  0  0
  1  6  1  0  0  0  0
  1 21  1  0  0  0  0
  3  4  1  6  0  0  0
  3  8  1  0  0  0  0
  3 28  1  0  0  0  0
  5  9  1  0  0  0  0
  5 25  1  0  0  0  0
  5 29  1  1  0  0  0
  6  7  1  1  0  0  0
  6 11  1  0  0  0  0
  8 12  1  0  0  0  0
  9 10  1  1  0  0  0
  9 14  1  0  0  0  0
 11 16  1  0  0  0  0
 12 13  1  6  0  0  0
 12 17  1  0  0  0  0
 14 15  1  1  0  0  0
 14 18  1  0  0  0  0
 15 31  1  0  0  0  0
 16 20  1  0  0  0  0
 17  2  1  1  0  0  0
 17 22  1  0  0  0  0
 18 19  1  6  0  0  0
 18 24  1  0  0  0  0
 18 30  1  0  0  0  0
 20 21  1  0  0  0  0
 20 26  1  1  0  0  0
 22 23  1  6  0  0  0
 22 28  1  0  0  0  0
 24 25  1  0  0  0  0
 26 27  1  0  0  0  0
 28 29  1  1  0  0  0
M  END
>  <CHROM.1>
-164.59030473,-155.72002219,-83.55008695,-163.54240469,-103.61483162,94.49072978
-0.74580436,13.85492968,38.45358652,-0.82206994,-0.57820916,3.10267596

>  <Name>
ligand

>  <RI>
0

>  <Rbt.Current_Directory>
/home/itssahil/PROJECTS/Mol_Feturizer/New_Systems/rnas/4GPY

>  <Rbt.Executable>
rbdock ($Id: //depot/dev/client3/rdock/2013.1/src/exe/rbdock.cxx#4 $)

>  <Rbt.Library>
libRbt.so (2013.1, Build901 2013/11/27)

>  <Rbt.Parameter_File>
/export/apps/rDock/src/rDock_2013.1_src/data/scripts/dock_solv.prm

>  <Rbt.Receptor>
prm/pocket_docking_2.prm

>  <SCORE>
-17.6867

>  <SCORE.INTER>
-16.7739

>  <SCORE.INTER.CONST>
1

>  <SCORE.INTER.POLAR>
0

>  <SCORE.INTER.ROT>
6

>  <SCORE.INTER.SOLV>
20.7445

>  <SCORE.INTER.VDW>
-25.6974

>  <SCORE.INTER.norm>
-0.541093

>  <SCORE.INTRA>
-0.912772

>  <SCORE.INTRA.DIHEDRAL>
-2.94376

>  <SCORE.INTRA.DIHEDRAL.0>
14.7001

>  <SCORE.INTRA.POLAR>
0

>  <SCORE.INTRA.POLAR.0>
0

>  <SCORE.INTRA.REPUL>
0.000516532

>  <SCORE.INTRA.REPUL.0>
0

>  <SCORE.INTRA.SOLV>
-0.177895

>  <SCORE.INTRA.SOLV.lig_0>
-65.3082

>  <SCORE.INTRA.VDW>
0.645475

>  <SCORE.INTRA.VDW.0>
-4.21408

>  <SCORE.INTRA.norm>
-0.0294443

>  <SCORE.RESTR>
0

>  <SCORE.RESTR.CAVITY>
0

>  <SCORE.RESTR.norm>
0

>  <SCORE.SYSTEM>
0

>  <SCORE.SYSTEM.CONST>
0

>  <SCORE.SYSTEM.DIHEDRAL>
0

>  <SCORE.SYSTEM.SOLV>
0

>  <SCORE.SYSTEM.norm>
0

>  <SCORE.heavy>
31

>  <SCORE.norm>
-0.570537

>  <RMSD>
0.361

$$$$
ligand
 OpenBabel11021811493D
libRbt.so/2013.1/901 2013/11/27
 31 33  0  0  0  0  0  0  0  0999 V2000
    1.8179   15.0859   36.7133 C   0  0  2  0  0  0  0  0  0  0  0  0
    1.2744   15.7207   37.8548 O   0  0  0  0  0  0  0  0  0  0  0  0
   -2.3463   15.3620   40.0506 C   0  0  2  0  0  0  0  0  0  0  0  0
   -3.7404   15.3620   40.3394 N   0  0  0  0  0  0  0  0  0  0  0  0
   -3.6659   12.3289   39.1681 C   0  0  2  0  0  0  0  0  0  0  0  0
    3.3826   14.9168   36.9395 C   0  0  2  0  0  0  0  0  0  0  0  0
    3.6097   14.1440   38.1560 N   0  0  0  0  0  0  0  0  0  0  0  0
   -1.9524   16.8034   39.4967 C   0  0  0  0  0  0  0  0  0  0  0  0
   -3.8986   11.3584   40.3745 C   0  0  2  0  0  0  0  0  0  0  0  0
   -3.8784   12.1095   41.5698 O   0  0  0  0  0  0  0  0  0  0  0  0
    4.0844   16.3222   37.0211 C   0  0  0  0  0  0  0  0  0  0  0  0
   -0.3986   16.8080   39.1911 C   0  0  2  0  0  0  0  0  0  0  0  0
   -0.0168   18.1286   38.6891 N   0  0  0  0  0  0  0  0  0  0  0  0
   -2.7567   10.2780   40.3729 C   0  0  1  0  0  0  0  0  0  0  0  0
   -2.9460    9.3432   41.5283 N   0  0  0  0  0  0  0  0  0  0  0  0
    3.4770   17.3454   35.9722 C   0  0  0  0  0  0  0  0  0  0  0  0
   -0.0864   15.7028   38.1012 C   0  0  2  0  0  0  0  0  0  0  0  0
   -2.8316    9.4373   38.9816 C   0  0  1  0  0  0  0  0  0  0  0  0
   -4.0618    8.7633   38.8040 O   0  0  0  0  0  0  0  0  0  0  0  0
    2.3206   17.0772   35.3186 C   0  0  1  0  0  0  0  0  0  0  0  0
    1.5714   15.8806   35.5112 O   0  0  0  0  0  0  0  0  0  0  0  0
   -0.5042   14.2760   38.6521 C   0  0  2  0  0  0  0  0  0  0  0  0
   -0.2299   13.2779   37.6476 O   0  0  0  0  0  0  0  0  0  0  0  0
   -2.6395   10.4149   37.7836 C   0  0  0  0  0  0  0  0  0  0  0  0
   -3.6524   11.5437   37.8678 O   0  0  0  0  0  0  0  0  0  0  0  0
    1.7059   18.0274   34.3188 C   0  0  0  0  0  0  0  0  0  0  0  0
    0.5844   18.6519   34.9799 O   0  0  0  0  0  0  0  0  0  0  0  0
   -2.0497   14.2761   38.9626 C   0  0  1  0  0  0  0  0  0  0  0  0
   -2.3947   13.0048   39.4544 O   0  0  0  0  0  0  0  0  0  0  0  0
   -1.7627    8.3463   38.8374 C   0  0  0  0  0  0  0  0  0  0  0  0
   -2.3277    9.7503   42.8070 C   0  0  0  0  0  0  0  0  0  0  0  0
  1  2  1  1  0  0  0
  1  6  1  0  0  0  0
  1 21  1  0  0  0  0
  3  4  1  6  0  0  0
  3  8  1  0  0  0  0
  3 28  1  0  0  0  0
  5  9  1  0  0  0  0
  5 25  1  0  0  0  0
  5 29  1  1  0  0  0
  6  7  1  1  0  0  0
  6 11  1  0  0  0  0
  8 12  1  0  0  0  0
  9 10  1  1  0  0  0
  9 14  1  0  0  0  0
 11 16  1  0  0  0  0
 12 13  1  6  0  0  0
 12 17  1  0  0  0  0
 14 15  1  1  0  0  0
 14 18  1  0  0  0  0
 15 31  1  0  0  0  0
 16 20  1  0  0  0  0
 17  2  1  1  0  0  0
 17 22  1  0  0  0  0
 18 19  1  6  0  0  0
 18 24  1  0  0  0  0
 18 30  1  0  0  0  0
 20 21  1  0  0  0  0
 20 26  1  1  0  0  0
 22 23  1  6  0  0  0
 22 28  1  0  0  0  0
 24 25  1  0  0  0  0
 26 27  1  0  0  0  0
 28 29  1  1  0  0  0
M  END
>  <CHROM.1>
-163.61392023,-154.09521724,-87.62242744,-164.57223271,-104.50734196,97.48977956
-0.80193086,13.84398866,38.42313871,-0.80705231,-0.60681480,3.12254320

>  <Name>
ligand

>  <RI>
0

>  <Rbt.Current_Directory>
/home/itssahil/PROJECTS/Mol_Feturizer/New_Systems/rnas/4GPY

>  <Rbt.Executable>
rbdock ($Id: //depot/dev/client3/rdock/2013.1/src/exe/rbdock.cxx#4 $)

>  <Rbt.Library>
libRbt.so (2013.1, Build901 2013/11/27)

>  <Rbt.Parameter_File>
/export/apps/rDock/src/rDock_2013.1_src/data/scripts/dock_solv.prm

>  <Rbt.Receptor>
prm/pocket_docking_2.prm

>  <SCORE>
-17.5522

>  <SCORE.INTER>
-16.9564

>  <SCORE.INTER.CONST>
1

>  <SCORE.INTER.POLAR>
0

>  <SCORE.INTER.ROT>
6

>  <SCORE.INTER.SOLV>
21.3171

>  <SCORE.INTER.VDW>
-26.01

>  <SCORE.INTER.norm>
-0.546982

>  <SCORE.INTRA>
-0.59577

>  <SCORE.INTRA.DIHEDRAL>
-2.02835

>  <SCORE.INTRA.DIHEDRAL.0>
14.7001

>  <SCORE.INTRA.POLAR>
0

>  <SCORE.INTRA.POLAR.0>
0

>  <SCORE.INTRA.REPUL>
4.7813e-05

>  <SCORE.INTRA.REPUL.0>
0

>  <SCORE.INTRA.SOLV>
-0.217163

>  <SCORE.INTRA.SOLV.lig_0>
-65.3082

>  <SCORE.INTRA.VDW>
0.526745

>  <SCORE.INTRA.VDW.0>
-4.21408

>  <SCORE.INTRA.norm>
-0.0192184

>  <SCORE.RESTR>
0

>  <SCORE.RESTR.CAVITY>
0

>  <SCORE.RESTR.norm>
0

>  <SCORE.SYSTEM>
0

>  <SCORE.SYSTEM.CONST>
0

>  <SCORE.SYSTEM.DIHEDRAL>
0

>  <SCORE.SYSTEM.SOLV>
0

>  <SCORE.SYSTEM.norm>
0

>  <SCORE.heavy>
31

>  <SCORE.norm>
-0.5662

>  <RMSD>
0.368

$$$$
ligand
 OpenBabel11021811493D
libRbt.so/2013.1/901 2013/11/27
 31 33  0  0  0  0  0  0  0  0999 V2000
    1.9215   15.0359   36.8259 C   0  0  2  0  0  0  0  0  0  0  0  0
    1.3496   15.6838   37.9459 O   0  0  0  0  0  0  0  0  0  0  0  0
   -2.3298   15.3770   40.0502 C   0  0  2  0  0  0  0  0  0  0  0  0
   -3.7312   15.3846   40.3011 N   0  0  0  0  0  0  0  0  0  0  0  0
   -3.6437   12.3412   39.2262 C   0  0  2  0  0  0  0  0  0  0  0  0
    3.4897   14.9270   37.0650 C   0  0  2  0  0  0  0  0  0  0  0  0
    3.7354   14.1972   38.3041 N   0  0  0  0  0  0  0  0  0  0  0  0
   -1.9187   16.8054   39.4755 C   0  0  0  0  0  0  0  0  0  0  0  0
   -3.8652   11.3552   40.4220 C   0  0  2  0  0  0  0  0  0  0  0  0
   -3.8257   12.0894   41.6272 O   0  0  0  0  0  0  0  0  0  0  0  0
    4.1425   16.3573   37.1101 C   0  0  0  0  0  0  0  0  0  0  0  0
   -0.3572   16.8019   39.2121 C   0  0  2  0  0  0  0  0  0  0  0  0
    0.0401   18.1107   38.6917 N   0  0  0  0  0  0  0  0  0  0  0  0
   -2.7285   10.2696   40.3904 C   0  0  1  0  0  0  0  0  0  0  0  0
   -2.9072    9.3197   41.5351 N   0  0  0  0  0  0  0  0  0  0  0  0
    3.5071   17.3291   36.0293 C   0  0  0  0  0  0  0  0  0  0  0  0
   -0.0174   15.6725   38.1557 C   0  0  2  0  0  0  0  0  0  0  0  0
   -2.8257    9.4487   38.9887 C   0  0  1  0  0  0  0  0  0  0  0  0
   -4.0614    8.7829   38.8180 O   0  0  0  0  0  0  0  0  0  0  0  0
    2.3645   17.0029   35.3776 C   0  0  1  0  0  0  0  0  0  0  0  0
    1.6555   15.7873   35.6003 O   0  0  0  0  0  0  0  0  0  0  0  0
   -0.4521   14.2586   38.7264 C   0  0  2  0  0  0  0  0  0  0  0  0
   -0.1523   13.2384   37.7520 O   0  0  0  0  0  0  0  0  0  0  0  0
   -2.6447   10.4419   37.8019 C   0  0  0  0  0  0  0  0  0  0  0  0
   -3.6509   11.5741   37.9151 O   0  0  0  0  0  0  0  0  0  0  0  0
    1.7240   17.9028   34.3480 C   0  0  0  0  0  0  0  0  0  0  0  0
    0.6650   18.6140   35.0244 O   0  0  0  0  0  0  0  0  0  0  0  0
   -2.0054   14.2670   38.9948 C   0  0  1  0  0  0  0  0  0  0  0  0
   -2.3656   13.0073   39.5050 O   0  0  0  0  0  0  0  0  0  0  0  0
   -1.7640    8.3549   38.8153 C   0  0  0  0  0  0  0  0  0  0  0  0
   -2.3180    9.7327   42.8257 C   0  0  0  0  0  0  0  0  0  0  0  0
  1  2  1  1  0  0  0
  1  6  1  0  0  0  0
  1 21  1  0  0  0  0
  3  4  1  6  0  0  0
  3  8  1  0  0  0  0
  3 28  1  0  0  0  0
  5  9  1  0  0  0  0
  5 25  1  0  0  0  0
  5 29  1  1  0  0  0
  6  7  1  1  0  0  0
  6 11  1  0  0  0  0
  8 12  1  0  0  0  0
  9 10  1  1  0  0  0
  9 14  1  0  0  0  0
 11 16  1  0  0  0  0
 12 13  1  6  0  0  0
 12 17  1  0  0  0  0
 14 15  1  1  0  0  0
 14 18  1  0  0  0  0
 15 31  1  0  0  0  0
 16 20  1  0  0  0  0
 17  2  1  1  0  0  0
 17 22  1  0  0  0  0
 18 19  1  6  0  0  0
 18 24  1  0  0  0  0
 18 30  1  0  0  0  0
 20 21  1  0  0  0  0
 20 26  1  1  0  0  0
 22 23  1  6  0  0  0
 22 28  1  0  0  0  0
 24 25  1  0  0  0  0
 26 27  1  0  0  0  0
 28 29  1  1  0  0  0
M  END
>  <CHROM.1>
-166.30179269,-156.00838344,-85.17545752,-163.86645542,-98.56074704,95.89987031
-0.75859487,13.83148236,38.46848731,-0.80845702,-0.58528408,3.11220710

>  <Name>
ligand

>  <RI>
0

>  <Rbt.Current_Directory>
/home/itssahil/PROJECTS/Mol_Feturizer/New_Systems/rnas/4GPY

>  <Rbt.Executable>
rbdock ($Id: //depot/dev/client3/rdock/2013.1/src/exe/rbdock.cxx#4 $)

>  <Rbt.Library>
libRbt.so (2013.1, Build901 2013/11/27)

>  <Rbt.Parameter_File>
/export/apps/rDock/src/rDock_2013.1_src/data/scripts/dock_solv.prm

>  <Rbt.Receptor>
prm/pocket_docking_2.prm

>  <SCORE>
-17.6935

>  <SCORE.INTER>
-16.776

>  <SCORE.INTER.CONST>
1

>  <SCORE.INTER.POLAR>
0

>  <SCORE.INTER.ROT>
6

>  <SCORE.INTER.SOLV>
20.8465

>  <SCORE.INTER.VDW>
-25.7328

>  <SCORE.INTER.norm>
-0.54116

>  <SCORE.INTRA>
-0.917506

>  <SCORE.INTRA.DIHEDRAL>
-2.74815

>  <SCORE.INTRA.DIHEDRAL.0>
14.7001

>  <SCORE.INTRA.POLAR>
0

>  <SCORE.INTRA.POLAR.0>
0

>  <SCORE.INTRA.REPUL>
0.000687321

>  <SCORE.INTRA.REPUL.0>
0

>  <SCORE.INTRA.SOLV>
-0.274532

>  <SCORE.INTRA.SOLV.lig_0>
-65.3082

>  <SCORE.INTRA.VDW>
0.5904

>  <SCORE.INTRA.VDW.0>
-4.21408

>  <SCORE.INTRA.norm>
-0.029597

>  <SCORE.RESTR>
0

>  <SCORE.RESTR.CAVITY>
0

>  <SCORE.RESTR.norm>
0

>  <SCORE.SYSTEM>
0

>  <SCORE.SYSTEM.CONST>
0

>  <SCORE.SYSTEM.DIHEDRAL>
0

>  <SCORE.SYSTEM.SOLV>
0

>  <SCORE.SYSTEM.norm>
0

>  <SCORE.heavy>
31

>  <SCORE.norm>
-0.570757

>  <RMSD>
0.374

$$$$
ligand
 OpenBabel11021811493D
libRbt.so/2013.1/901 2013/11/27
 31 33  0  0  0  0  0  0  0  0999 V2000
    1.9343   15.0363   36.7757 C   0  0  2  0  0  0  0  0  0  0  0  0
    1.3693   15.6490   37.9188 O   0  0  0  0  0  0  0  0  0  0  0  0
   -2.3076   15.3564   40.0294 C   0  0  2  0  0  0  0  0  0  0  0  0
   -3.7086   15.3677   40.2823 N   0  0  0  0  0  0  0  0  0  0  0  0
   -3.6345   12.3270   39.2288 C   0  0  2  0  0  0  0  0  0  0  0  0
    3.5024   14.9102   37.0064 C   0  0  2  0  0  0  0  0  0  0  0  0
    3.7472   14.1372   38.2193 N   0  0  0  0  0  0  0  0  0  0  0  0
   -1.8945   16.7822   39.4495 C   0  0  0  0  0  0  0  0  0  0  0  0
   -3.8470   11.3414   40.4266 C   0  0  2  0  0  0  0  0  0  0  0  0
   -3.7878   12.0745   41.6317 O   0  0  0  0  0  0  0  0  0  0  0  0
    4.1639   16.3342   37.0982 C   0  0  0  0  0  0  0  0  0  0  0  0
   -0.3335   16.7746   39.1838 C   0  0  2  0  0  0  0  0  0  0  0  0
    0.0657   18.0810   38.6586 N   0  0  0  0  0  0  0  0  0  0  0  0
   -2.7175   10.2489   40.3799 C   0  0  1  0  0  0  0  0  0  0  0  0
   -2.8876    9.2993   41.5261 N   0  0  0  0  0  0  0  0  0  0  0  0
    3.5314   17.3459   36.0530 C   0  0  0  0  0  0  0  0  0  0  0  0
    0.0026   15.6412   38.1306 C   0  0  2  0  0  0  0  0  0  0  0  0
   -2.8374    9.4298   38.9790 C   0  0  1  0  0  0  0  0  0  0  0  0
   -4.0792    8.7717   38.8234 O   0  0  0  0  0  0  0  0  0  0  0  0
    2.3851   17.0488   35.3939 C   0  0  1  0  0  0  0  0  0  0  0  0
    1.6694   15.8305   35.5772 O   0  0  0  0  0  0  0  0  0  0  0  0
   -0.4341   14.2300   38.7065 C   0  0  2  0  0  0  0  0  0  0  0  0
   -0.1377   13.2060   37.7349 O   0  0  0  0  0  0  0  0  0  0  0  0
   -2.6652   10.4228   37.7907 C   0  0  0  0  0  0  0  0  0  0  0  0
   -3.6630   11.5610   37.9173 O   0  0  0  0  0  0  0  0  0  0  0  0
    1.7471   17.9870   34.3973 C   0  0  0  0  0  0  0  0  0  0  0  0
    0.6069   18.5767   35.0583 O   0  0  0  0  0  0  0  0  0  0  0  0
   -1.9870   14.2424   38.9771 C   0  0  1  0  0  0  0  0  0  0  0  0
   -2.3489   12.9850   39.4920 O   0  0  0  0  0  0  0  0  0  0  0  0
   -1.7847    8.3295   38.7915 C   0  0  0  0  0  0  0  0  0  0  0  0
   -2.2453    9.6884   42.7986 C   0  0  0  0  0  0  0  0  0  0  0  0
  1  2  1  1  0  0  0
  1  6  1  0  0  0  0
  1 21  1  0  0  0  0
  3  4  1  6  0  0  0
  3  8  1  0  0  0  0
  3 28  1  0  0  0  0
  5  9  1  0  0  0  0
  5 25  1  0  0  0  0
  5 29  1  1  0  0  0
  6  7  1  1  0  0  0
  6 11  1  0  0  0  0
  8 12  1  0  0  0  0
  9 10  1  1  0  0  0
  9 14  1  0  0  0  0
 11 16  1  0  0  0  0
 12 13  1  6  0  0  0
 12 17  1  0  0  0  0
 14 15  1  1  0  0  0
 14 18  1  0  0  0  0
 15 31  1  0  0  0  0
 16 20  1  0  0  0  0
 17  2  1  1  0  0  0
 17 22  1  0  0  0  0
 18 19  1  6  0  0  0
 18 24  1  0  0  0  0
 18 30  1  0  0  0  0
 20 21  1  0  0  0  0
 20 26  1  1  0  0  0
 22 23  1  6  0  0  0
 22 28  1  0  0  0  0
 24 25  1  0  0  0  0
 26 27  1  0  0  0  0
 28 29  1  1  0  0  0
M  END
>  <CHROM.1>
-166.44275507,-156.06818400,-86.94044608,-161.64893177,-104.45976704,95.21630799
-0.74619288,13.81669841,38.45520637,-0.81627570,-0.57519154,3.10197073

>  <Name>
ligand

>  <RI>
0

>  <Rbt.Current_Directory>
/home/itssahil/PROJECTS/Mol_Feturizer/New_Systems/rnas/4GPY

>  <Rbt.Executable>
rbdock ($Id: //depot/dev/client3/rdock/2013.1/src/exe/rbdock.cxx#4 $)

>  <Rbt.Library>
libRbt.so (2013.1, Build901 2013/11/27)

>  <Rbt.Parameter_File>
/export/apps/rDock/src/rDock_2013.1_src/data/scripts/dock_solv.prm

>  <Rbt.Receptor>
prm/pocket_docking_2.prm

>  <SCORE>
-17.7219

>  <SCORE.INTER>
-16.7696

>  <SCORE.INTER.CONST>
1

>  <SCORE.INTER.POLAR>
0

>  <SCORE.INTER.ROT>
6

>  <SCORE.INTER.SOLV>
20.8581

>  <SCORE.INTER.VDW>
-25.7324

>  <SCORE.INTER.norm>
-0.540954

>  <SCORE.INTRA>
-0.952339

>  <SCORE.INTRA.DIHEDRAL>
-2.76085

>  <SCORE.INTRA.DIHEDRAL.0>
14.7001

>  <SCORE.INTRA.POLAR>
0

>  <SCORE.INTRA.POLAR.0>
0

>  <SCORE.INTRA.REPUL>
0.000538871

>  <SCORE.INTRA.REPUL.0>
0

>  <SCORE.INTRA.SOLV>
-0.0414849

>  <SCORE.INTRA.SOLV.lig_0>
-65.3082

>  <SCORE.INTRA.VDW>
0.446134

>  <SCORE.INTRA.VDW.0>
-4.21408

>  <SCORE.INTRA.norm>
-0.0307206

>  <SCORE.RESTR>
0

>  <SCORE.RESTR.CAVITY>
0

>  <SCORE.RESTR.norm>
0

>  <SCORE.SYSTEM>
0

>  <SCORE.SYSTEM.CONST>
0

>  <SCORE.SYSTEM.DIHEDRAL>
0

>  <SCORE.SYSTEM.SOLV>
0

>  <SCORE.SYSTEM.norm>
0

>  <SCORE.heavy>
31

>  <SCORE.norm>
-0.571675

>  <RMSD>
0.379

$$$$
ligand
 OpenBabel11021811493D
libRbt.so/2013.1/901 2013/11/27
 31 33  0  0  0  0  0  0  0  0999 V2000
    1.9094   15.0336   36.7975 C   0  0  2  0  0  0  0  0  0  0  0  0
    1.3448   15.6675   37.9293 O   0  0  0  0  0  0  0  0  0  0  0  0
   -2.3285   15.3765   40.0464 C   0  0  2  0  0  0  0  0  0  0  0  0
   -3.7291   15.3887   40.3018 N   0  0  0  0  0  0  0  0  0  0  0  0
   -3.6533   12.3420   39.2353 C   0  0  2  0  0  0  0  0  0  0  0  0
    3.4766   14.9052   37.0331 C   0  0  2  0  0  0  0  0  0  0  0  0
    3.7161   14.1515   38.2591 N   0  0  0  0  0  0  0  0  0  0  0  0
   -1.9155   16.8023   39.4664 C   0  0  0  0  0  0  0  0  0  0  0  0
   -3.8656   11.3482   40.4262 C   0  0  2  0  0  0  0  0  0  0  0  0
   -3.8158   12.0743   41.6359 O   0  0  0  0  0  0  0  0  0  0  0  0
    4.1435   16.3281   37.1025 C   0  0  0  0  0  0  0  0  0  0  0  0
   -0.3549   16.7937   39.1979 C   0  0  2  0  0  0  0  0  0  0  0  0
    0.0442   18.1000   38.6724 N   0  0  0  0  0  0  0  0  0  0  0  0
   -2.7300   10.2621   40.3781 C   0  0  1  0  0  0  0  0  0  0  0  0
   -2.9000    9.3047   41.5178 N   0  0  0  0  0  0  0  0  0  0  0  0
    3.5168   17.3247   36.0395 C   0  0  0  0  0  0  0  0  0  0  0  0
   -0.0215   15.6605   38.1435 C   0  0  2  0  0  0  0  0  0  0  0  0
   -2.8393    9.4507   38.9718 C   0  0  1  0  0  0  0  0  0  0  0  0
   -4.0768    8.7868   38.8068 O   0  0  0  0  0  0  0  0  0  0  0  0
    2.3705   17.0212   35.3834 C   0  0  1  0  0  0  0  0  0  0  0  0
    1.6497   15.8089   35.5855 O   0  0  0  0  0  0  0  0  0  0  0  0
   -0.4582   14.2494   38.7197 C   0  0  2  0  0  0  0  0  0  0  0  0
   -0.1643   13.2256   37.7471 O   0  0  0  0  0  0  0  0  0  0  0  0
   -2.6673   10.4517   37.7902 C   0  0  0  0  0  0  0  0  0  0  0  0
   -3.6718   11.5837   37.9191 O   0  0  0  0  0  0  0  0  0  0  0  0
    1.7380   17.9452   34.3702 C   0  0  0  0  0  0  0  0  0  0  0  0
    0.5965   18.5471   35.0179 O   0  0  0  0  0  0  0  0  0  0  0  0
   -2.0106   14.2627   38.9931 C   0  0  1  0  0  0  0  0  0  0  0  0
   -2.3725   13.0054   39.5080 O   0  0  0  0  0  0  0  0  0  0  0  0
   -1.7798    8.3573   38.7824 C   0  0  0  0  0  0  0  0  0  0  0  0
   -2.2655    9.6899   42.7955 C   0  0  0  0  0  0  0  0  0  0  0  0
  1  2  1  1  0  0  0
  1  6  1  0  0  0  0
  1 21  1  0  0  0  0
  3  4  1  6  0  0  0
  3  8  1  0  0  0  0
  3 28  1  0  0  0  0
  5  9  1  0  0  0  0
  5 25  1  0  0  0  0
  5 29  1  1  0  0  0
  6  7  1  1  0  0  0
  6 11  1  0  0  0  0
  8 12  1  0  0  0  0
  9 10  1  1  0  0  0
  9 14  1  0  0  0  0
 11 16  1  0  0  0  0
 12 13  1  6  0  0  0
 12 17  1  0  0  0  0
 14 15  1  1  0  0  0
 14 18  1  0  0  0  0
 15 31  1  0  0  0  0
 16 20  1  0  0  0  0
 17  2  1  1  0  0  0
 17 22  1  0  0  0  0
 18 19  1  6  0  0  0
 18 24  1  0  0  0  0
 18 30  1  0  0  0  0
 20 21  1  0  0  0  0
 20 26  1  1  0  0  0
 22 23  1  6  0  0  0
 22 28  1  0  0  0  0
 24 25  1  0  0  0  0
 26 27  1  0  0  0  0
 28 29  1  1  0  0  0
M  END
>  <CHROM.1>
-165.98920105,-156.63177625,-86.93179477,-162.81816628,-104.63432402,95.89895073
-0.76351256,13.82407165,38.45929819,-0.81152454,-0.58118821,3.10730971

>  <Name>
ligand

>  <RI>
0

>  <Rbt.Current_Directory>
/home/itssahil/PROJECTS/Mol_Feturizer/New_Systems/rnas/4GPY

>  <Rbt.Executable>
rbdock ($Id: //depot/dev/client3/rdock/2013.1/src/exe/rbdock.cxx#4 $)

>  <Rbt.Library>
libRbt.so (2013.1, Build901 2013/11/27)

>  <Rbt.Parameter_File>
/export/apps/rDock/src/rDock_2013.1_src/data/scripts/dock_solv.prm

>  <Rbt.Receptor>
prm/pocket_docking_6.prm

>  <SCORE>
-17.7218

>  <SCORE.INTER>
-16.6863

>  <SCORE.INTER.CONST>
1

>  <SCORE.INTER.POLAR>
0

>  <SCORE.INTER.ROT>
6

>  <SCORE.INTER.SOLV>
20.9643

>  <SCORE.INTER.VDW>
-25.7123

>  <SCORE.INTER.norm>
-0.538268

>  <SCORE.INTRA>
-1.03548

>  <SCORE.INTRA.DIHEDRAL>
-2.86501

>  <SCORE.INTRA.DIHEDRAL.0>
14.7001

>  <SCORE.INTRA.POLAR>
0

>  <SCORE.INTRA.POLAR.0>
0

>  <SCORE.INTRA.REPUL>
2.24762e-06

>  <SCORE.INTRA.REPUL.0>
0

>  <SCORE.INTRA.SOLV>
-0.169336

>  <SCORE.INTRA.SOLV.lig_0>
-65.3082

>  <SCORE.INTRA.VDW>
0.481679

>  <SCORE.INTRA.VDW.0>
-4.21408

>  <SCORE.INTRA.norm>
-0.0334027

>  <SCORE.RESTR>
0

>  <SCORE.RESTR.CAVITY>
0

>  <SCORE.RESTR.norm>
0

>  <SCORE.SYSTEM>
0

>  <SCORE.SYSTEM.CONST>
0

>  <SCORE.SYSTEM.DIHEDRAL>
0

>  <SCORE.SYSTEM.SOLV>
0

>  <SCORE.SYSTEM.norm>
0

>  <SCORE.heavy>
31

>  <SCORE.norm>
-0.571671

>  <RMSD>
0.379

$$$$
ligand
 OpenBabel11021811493D
libRbt.so/2013.1/901 2013/11/27
 31 33  0  0  0  0  0  0  0  0999 V2000
    1.9122   15.0658   36.8197 C   0  0  2  0  0  0  0  0  0  0  0  0
    1.3444   15.7293   37.9327 O   0  0  0  0  0  0  0  0  0  0  0  0
   -2.3240   15.4370   40.0583 C   0  0  2  0  0  0  0  0  0  0  0  0
   -3.7241   15.4452   40.3161 N   0  0  0  0  0  0  0  0  0  0  0  0
   -3.6369   12.3909   39.2657 C   0  0  2  0  0  0  0  0  0  0  0  0
    3.4809   14.9580   37.0557 C   0  0  2  0  0  0  0  0  0  0  0  0
    3.7293   14.2443   38.3037 N   0  0  0  0  0  0  0  0  0  0  0  0
   -1.9176   16.8607   39.4687 C   0  0  0  0  0  0  0  0  0  0  0  0
   -3.8402   11.3970   40.4582 C   0  0  2  0  0  0  0  0  0  0  0  0
   -3.7917   12.1247   41.6671 O   0  0  0  0  0  0  0  0  0  0  0  0
    4.1358   16.3879   37.0800 C   0  0  0  0  0  0  0  0  0  0  0  0
   -0.3575   16.8566   39.1974 C   0  0  2  0  0  0  0  0  0  0  0  0
    0.0355   18.1612   38.6632 N   0  0  0  0  0  0  0  0  0  0  0  0
   -2.6980   10.3179   40.4083 C   0  0  1  0  0  0  0  0  0  0  0  0
   -2.8592    9.3606   41.5495 N   0  0  0  0  0  0  0  0  0  0  0  0
    3.4985   17.3461   35.9884 C   0  0  0  0  0  0  0  0  0  0  0  0
   -0.0215   15.7182   38.1495 C   0  0  2  0  0  0  0  0  0  0  0  0
   -2.8058    9.5043   39.0031 C   0  0  1  0  0  0  0  0  0  0  0  0
   -4.0396    8.8327   38.8419 O   0  0  0  0  0  0  0  0  0  0  0  0
    2.3536   17.0130   35.3443 C   0  0  1  0  0  0  0  0  0  0  0  0
    1.6435   15.8014   35.5851 O   0  0  0  0  0  0  0  0  0  0  0  0
   -0.4515   14.3090   38.7351 C   0  0  2  0  0  0  0  0  0  0  0  0
   -0.1553   13.2804   37.7684 O   0  0  0  0  0  0  0  0  0  0  0  0
   -2.6429   10.5051   37.8202 C   0  0  0  0  0  0  0  0  0  0  0  0
   -3.6541   11.6311   37.9504 O   0  0  0  0  0  0  0  0  0  0  0  0
    1.7113   17.9001   34.3047 C   0  0  0  0  0  0  0  0  0  0  0  0
    0.6718   18.6402   34.9803 O   0  0  0  0  0  0  0  0  0  0  0  0
   -2.0035   14.3179   39.0113 C   0  0  1  0  0  0  0  0  0  0  0  0
   -2.3595   13.0624   39.5346 O   0  0  0  0  0  0  0  0  0  0  0  0
   -1.7401    8.4173   38.8122 C   0  0  0  0  0  0  0  0  0  0  0  0
   -2.2109    9.7436   42.8209 C   0  0  0  0  0  0  0  0  0  0  0  0
  1  2  1  1  0  0  0
  1  6  1  0  0  0  0
  1 21  1  0  0  0  0
  3  4  1  6  0  0  0
  3  8  1  0  0  0  0
  3 28  1  0  0  0  0
  5  9  1  0  0  0  0
  5 25  1  0  0  0  0
  5 29  1  1  0  0  0
  6  7  1  1  0  0  0
  6 11  1  0  0  0  0
  8 12  1  0  0  0  0
  9 10  1  1  0  0  0
  9 14  1  0  0  0  0
 11 16  1  0  0  0  0
 12 13  1  6  0  0  0
 12 17  1  0  0  0  0
 14 15  1  1  0  0  0
 14 18  1  0  0  0  0
 15 31  1  0  0  0  0
 16 20  1  0  0  0  0
 17  2  1  1  0  0  0
 17 22  1  0  0  0  0
 18 19  1  6  0  0  0
 18 24  1  0  0  0  0
 18 30  1  0  0  0  0
 20 21  1  0  0  0  0
 20 26  1  1  0  0  0
 22 23  1  6  0  0  0
 22 28  1  0  0  0  0
 24 25  1  0  0  0  0
 26 27  1  0  0  0  0
 28 29  1  1  0  0  0
M  END
>  <CHROM.1>
-166.04379700,-157.01444962,-87.60700805,-164.21556196,-97.50371006,96.04719471
-0.75020049,13.87289362,38.46969181,-0.81211711,-0.58830980,3.10398646

>  <Name>
ligand

>  <RI>
0

>  <Rbt.Current_Directory>
/home/itssahil/PROJECTS/Mol_Feturizer/New_Systems/rnas/4GPY

>  <Rbt.Executable>
rbdock ($Id: //depot/dev/client3/rdock/2013.1/src/exe/rbdock.cxx#4 $)

>  <Rbt.Library>
libRbt.so (2013.1, Build901 2013/11/27)

>  <Rbt.Parameter_File>
/export/apps/rDock/src/rDock_2013.1_src/data/scripts/dock_solv.prm

>  <Rbt.Receptor>
prm/pocket_docking_6.prm

>  <SCORE>
-17.5753

>  <SCORE.INTER>
-16.5313

>  <SCORE.INTER.CONST>
1

>  <SCORE.INTER.POLAR>
0

>  <SCORE.INTER.ROT>
6

>  <SCORE.INTER.SOLV>
20.8155

>  <SCORE.INTER.VDW>
-25.5593

>  <SCORE.INTER.norm>
-0.533266

>  <SCORE.INTRA>
-1.04404

>  <SCORE.INTRA.DIHEDRAL>
-2.79361

>  <SCORE.INTRA.DIHEDRAL.0>
14.7001

>  <SCORE.INTRA.POLAR>
0

>  <SCORE.INTRA.POLAR.0>
0

>  <SCORE.INTRA.REPUL>
0.000837124

>  <SCORE.INTRA.REPUL.0>
0

>  <SCORE.INTRA.SOLV>
-0.349481

>  <SCORE.INTRA.SOLV.lig_0>
-65.3082

>  <SCORE.INTRA.VDW>
0.523323

>  <SCORE.INTRA.VDW.0>
-4.21408

>  <SCORE.INTRA.norm>
-0.0336786

>  <SCORE.RESTR>
0

>  <SCORE.RESTR.CAVITY>
0

>  <SCORE.RESTR.norm>
0

>  <SCORE.SYSTEM>
0

>  <SCORE.SYSTEM.CONST>
0

>  <SCORE.SYSTEM.DIHEDRAL>
0

>  <SCORE.SYSTEM.SOLV>
0

>  <SCORE.SYSTEM.norm>
0

>  <SCORE.heavy>
31

>  <SCORE.norm>
-0.566945

>  <RMSD>
0.385

$$$$
ligand
 OpenBabel11021811493D
libRbt.so/2013.1/901 2013/11/27
 31 33  0  0  0  0  0  0  0  0999 V2000
    1.9689   15.0026   36.8230 C   0  0  2  0  0  0  0  0  0  0  0  0
    1.3913   15.6325   37.9504 O   0  0  0  0  0  0  0  0  0  0  0  0
   -2.3167   15.3838   40.0117 C   0  0  2  0  0  0  0  0  0  0  0  0
   -3.7210   15.4058   40.2446 N   0  0  0  0  0  0  0  0  0  0  0  0
   -3.6467   12.3498   39.2178 C   0  0  2  0  0  0  0  0  0  0  0  0
    3.5362   14.8928   37.0668 C   0  0  2  0  0  0  0  0  0  0  0  0
    3.7783   14.1448   38.2957 N   0  0  0  0  0  0  0  0  0  0  0  0
   -1.8870   16.8008   39.4226 C   0  0  0  0  0  0  0  0  0  0  0  0
   -3.8777   11.3662   40.4137 C   0  0  2  0  0  0  0  0  0  0  0  0
   -3.8358   12.1010   41.6185 O   0  0  0  0  0  0  0  0  0  0  0  0
    4.1864   16.3234   37.1361 C   0  0  0  0  0  0  0  0  0  0  0  0
   -0.3224   16.7814   39.1792 C   0  0  2  0  0  0  0  0  0  0  0  0
    0.0918   18.0797   38.6458 N   0  0  0  0  0  0  0  0  0  0  0  0
   -2.7487   10.2726   40.3854 C   0  0  1  0  0  0  0  0  0  0  0  0
   -2.9366    9.3248   41.5303 N   0  0  0  0  0  0  0  0  0  0  0  0
    3.5536   17.3103   36.0677 C   0  0  0  0  0  0  0  0  0  0  0  0
    0.0217   15.6348   38.1429 C   0  0  2  0  0  0  0  0  0  0  0  0
   -2.8485    9.4515   38.9841 C   0  0  1  0  0  0  0  0  0  0  0  0
   -4.0885    8.7943   38.8111 O   0  0  0  0  0  0  0  0  0  0  0  0
    2.4142   16.9921   35.4065 C   0  0  1  0  0  0  0  0  0  0  0  0
    1.7064   15.7720   35.6079 O   0  0  0  0  0  0  0  0  0  0  0  0
   -0.4314   14.2324   38.7276 C   0  0  2  0  0  0  0  0  0  0  0  0
   -0.1274   13.1964   37.7712 O   0  0  0  0  0  0  0  0  0  0  0  0
   -2.6578   10.4425   37.7970 C   0  0  0  0  0  0  0  0  0  0  0  0
   -3.6564   11.5818   37.9071 O   0  0  0  0  0  0  0  0  0  0  0  0
    1.7762   17.9064   34.3880 C   0  0  0  0  0  0  0  0  0  0  0  0
    0.6427   18.5202   35.0385 O   0  0  0  0  0  0  0  0  0  0  0  0
   -1.9879   14.2567   38.9760 C   0  0  1  0  0  0  0  0  0  0  0  0
   -2.3645   13.0070   39.4990 O   0  0  0  0  0  0  0  0  0  0  0  0
   -1.7942    8.3500   38.8138 C   0  0  0  0  0  0  0  0  0  0  0  0
   -2.3616    9.7422   42.8259 C   0  0  0  0  0  0  0  0  0  0  0  0
  1  2  1  1  0  0  0
  1  6  1  0  0  0  0
  1 21  1  0  0  0  0
  3  4  1  6  0  0  0
  3  8  1  0  0  0  0
  3 28  1  0  0  0  0
  5  9  1  0  0  0  0
  5 25  1  0  0  0  0
  5 29  1  1  0  0  0
  6  7  1  1  0  0  0
  6 11  1  0  0  0  0
  8 12  1  0  0  0  0
  9 10  1  1  0  0  0
  9 14  1  0  0  0  0
 11 16  1  0  0  0  0
 12 13  1  6  0  0  0
 12 17  1  0  0  0  0
 14 15  1  1  0  0  0
 14 18  1  0  0  0  0
 15 31  1  0  0  0  0
 16 20  1  0  0  0  0
 17  2  1  1  0  0  0
 17 22  1  0  0  0  0
 18 19  1  6  0  0  0
 18 24  1  0  0  0  0
 18 30  1  0  0  0  0
 20 21  1  0  0  0  0
 20 26  1  1  0  0  0
 22 23  1  6  0  0  0
 22 28  1  0  0  0  0
 24 25  1  0  0  0  0
 26 27  1  0  0  0  0
 28 29  1  1  0  0  0
M  END
>  <CHROM.1>
-167.38503556,-156.79294908,-84.45506742,-161.74072359,-103.33433407,95.62473437
-0.74533278,13.81767965,38.46387241,-0.80785789,-0.56715227,3.10130231

>  <Name>
ligand

>  <RI>
0

>  <Rbt.Current_Directory>
/home/itssahil/PROJECTS/Mol_Feturizer/New_Systems/rnas/4GPY

>  <Rbt.Executable>
rbdock ($Id: //depot/dev/client3/rdock/2013.1/src/exe/rbdock.cxx#4 $)

>  <Rbt.Library>
libRbt.so (2013.1, Build901 2013/11/27)

>  <Rbt.Parameter_File>
/export/apps/rDock/src/rDock_2013.1_src/data/scripts/dock_solv.prm

>  <Rbt.Receptor>
prm/pocket_docking_2.prm

>  <SCORE>
-17.7438

>  <SCORE.INTER>
-16.7481

>  <SCORE.INTER.CONST>
1

>  <SCORE.INTER.POLAR>
0

>  <SCORE.INTER.ROT>
6

>  <SCORE.INTER.SOLV>
20.8223

>  <SCORE.INTER.VDW>
-25.7062

>  <SCORE.INTER.norm>
-0.540261

>  <SCORE.INTRA>
-0.995703

>  <SCORE.INTRA.DIHEDRAL>
-2.97628

>  <SCORE.INTRA.DIHEDRAL.0>
14.7001

>  <SCORE.INTRA.POLAR>
0

>  <SCORE.INTRA.POLAR.0>
0

>  <SCORE.INTRA.REPUL>
0.000253958

>  <SCORE.INTRA.REPUL.0>
0

>  <SCORE.INTRA.SOLV>
-0.0893305

>  <SCORE.INTRA.SOLV.lig_0>
-65.3082

>  <SCORE.INTRA.VDW>
0.535831

>  <SCORE.INTRA.VDW.0>
-4.21408

>  <SCORE.INTRA.norm>
-0.0321195

>  <SCORE.RESTR>
0

>  <SCORE.RESTR.CAVITY>
0

>  <SCORE.RESTR.norm>
0

>  <SCORE.SYSTEM>
0

>  <SCORE.SYSTEM.CONST>
0

>  <SCORE.SYSTEM.DIHEDRAL>
0

>  <SCORE.SYSTEM.SOLV>
0

>  <SCORE.SYSTEM.norm>
0

>  <SCORE.heavy>
31

>  <SCORE.norm>
-0.572381

>  <RMSD>
0.388

$$$$
ligand
 OpenBabel11021811493D
libRbt.so/2013.1/901 2013/11/27
 31 33  0  0  0  0  0  0  0  0999 V2000
    1.9245   15.0150   36.7927 C   0  0  2  0  0  0  0  0  0  0  0  0
    1.3589   15.6464   37.9253 O   0  0  0  0  0  0  0  0  0  0  0  0
   -2.3234   15.3742   40.0292 C   0  0  2  0  0  0  0  0  0  0  0  0
   -3.7248   15.3924   40.2794 N   0  0  0  0  0  0  0  0  0  0  0  0
   -3.6581   12.3444   39.2205 C   0  0  2  0  0  0  0  0  0  0  0  0
    3.4929   14.8951   37.0251 C   0  0  2  0  0  0  0  0  0  0  0  0
    3.7390   14.1434   38.2510 N   0  0  0  0  0  0  0  0  0  0  0  0
   -1.9026   16.7972   39.4480 C   0  0  0  0  0  0  0  0  0  0  0  0
   -3.8810   11.3582   40.4160 C   0  0  2  0  0  0  0  0  0  0  0  0
   -3.8323   12.0908   41.6219 O   0  0  0  0  0  0  0  0  0  0  0  0
    4.1523   16.3216   37.0923 C   0  0  0  0  0  0  0  0  0  0  0  0
   -0.3410   16.7819   39.1854 C   0  0  2  0  0  0  0  0  0  0  0  0
    0.0653   18.0856   38.6590 N   0  0  0  0  0  0  0  0  0  0  0  0
   -2.7511   10.2658   40.3787 C   0  0  1  0  0  0  0  0  0  0  0  0
   -2.9312    9.3156   41.5229 N   0  0  0  0  0  0  0  0  0  0  0  0
    3.5180   17.3142   36.0301 C   0  0  0  0  0  0  0  0  0  0  0  0
   -0.0082   15.6453   38.1344 C   0  0  2  0  0  0  0  0  0  0  0  0
   -2.8587    9.4472   38.9764 C   0  0  1  0  0  0  0  0  0  0  0  0
   -4.0991    8.7892   38.8097 O   0  0  0  0  0  0  0  0  0  0  0  0
    2.3720   17.0042   35.3765 C   0  0  1  0  0  0  0  0  0  0  0  0
    1.6581   15.7882   35.5808 O   0  0  0  0  0  0  0  0  0  0  0  0
   -0.4527   14.2371   38.7116 C   0  0  2  0  0  0  0  0  0  0  0  0
   -0.1593   13.2103   37.7421 O   0  0  0  0  0  0  0  0  0  0  0  0
   -2.6762   10.4408   37.7901 C   0  0  0  0  0  0  0  0  0  0  0  0
   -3.6751   11.5789   37.9085 O   0  0  0  0  0  0  0  0  0  0  0  0
    1.7324   17.9242   34.3641 C   0  0  0  0  0  0  0  0  0  0  0  0
    0.6214   18.5614   35.0308 O   0  0  0  0  0  0  0  0  0  0  0  0
   -2.0060   14.2571   38.9792 C   0  0  1  0  0  0  0  0  0  0  0  0
   -2.3748   13.0023   39.4952 O   0  0  0  0  0  0  0  0  0  0  0  0
   -1.8044    8.3471   38.7976 C   0  0  0  0  0  0  0  0  0  0  0  0
   -2.3329    9.7225   42.8112 C   0  0  0  0  0  0  0  0  0  0  0  0
  1  2  1  1  0  0  0
  1  6  1  0  0  0  0
  1 21  1  0  0  0  0
  3  4  1  6  0  0  0
  3  8  1  0  0  0  0
  3 28  1  0  0  0  0
  5  9  1  0  0  0  0
  5 25  1  0  0  0  0
  5 29  1  1  0  0  0
  6  7  1  1  0  0  0
  6 11  1  0  0  0  0
  8 12  1  0  0  0  0
  9 10  1  1  0  0  0
  9 14  1  0  0  0  0
 11 16  1  0  0  0  0
 12 13  1  6  0  0  0
 12 17  1  0  0  0  0
 14 15  1  1  0  0  0
 14 18  1  0  0  0  0
 15 31  1  0  0  0  0
 16 20  1  0  0  0  0
 17  2  1  1  0  0  0
 17 22  1  0  0  0  0
 18 19  1  6  0  0  0
 18 24  1  0  0  0  0
 18 30  1  0  0  0  0
 20 21  1  0  0  0  0
 20 26  1  1  0  0  0
 22 23  1  6  0  0  0
 22 28  1  0  0  0  0
 24 25  1  0  0  0  0
 26 27  1  0  0  0  0
 28 29  1  1  0  0  0
M  END
>  <CHROM.1>
-166.73153005,-156.36949809,-85.25726675,-162.43999984,-102.36030384,95.80484219
-0.76507557,13.81933863,38.45343597,-0.80693141,-0.57989940,3.10876430

>  <Name>
ligand

>  <RI>
0

>  <Rbt.Current_Directory>
/home/itssahil/PROJECTS/Mol_Feturizer/New_Systems/rnas/4GPY

>  <Rbt.Executable>
rbdock ($Id: //depot/dev/client3/rdock/2013.1/src/exe/rbdock.cxx#4 $)

>  <Rbt.Library>
libRbt.so (2013.1, Build901 2013/11/27)

>  <Rbt.Parameter_File>
/export/apps/rDock/src/rDock_2013.1_src/data/scripts/dock_solv.prm

>  <Rbt.Receptor>
prm/pocket_docking_2.prm

>  <SCORE>
-17.7165

>  <SCORE.INTER>
-16.7618

>  <SCORE.INTER.CONST>
1

>  <SCORE.INTER.POLAR>
0

>  <SCORE.INTER.ROT>
6

>  <SCORE.INTER.SOLV>
20.9967

>  <SCORE.INTER.VDW>
-25.7734

>  <SCORE.INTER.norm>
-0.540702

>  <SCORE.INTRA>
-0.954716

>  <SCORE.INTRA.DIHEDRAL>
-2.83519

>  <SCORE.INTRA.DIHEDRAL.0>
14.7001

>  <SCORE.INTRA.POLAR>
0

>  <SCORE.INTRA.POLAR.0>
0

>  <SCORE.INTRA.REPUL>
0.000438016

>  <SCORE.INTRA.REPUL.0>
0

>  <SCORE.INTRA.SOLV>
-0.137359

>  <SCORE.INTRA.SOLV.lig_0>
-65.3082

>  <SCORE.INTRA.VDW>
0.529369

>  <SCORE.INTRA.VDW.0>
-4.21408

>  <SCORE.INTRA.norm>
-0.0307973

>  <SCORE.RESTR>
0

>  <SCORE.RESTR.CAVITY>
0

>  <SCORE.RESTR.norm>
0

>  <SCORE.SYSTEM>
0

>  <SCORE.SYSTEM.CONST>
0

>  <SCORE.SYSTEM.DIHEDRAL>
0

>  <SCORE.SYSTEM.SOLV>
0

>  <SCORE.SYSTEM.norm>
0

>  <SCORE.heavy>
31

>  <SCORE.norm>
-0.5715

>  <RMSD>
0.389

$$$$
ligand
 OpenBabel11021811493D
libRbt.so/2013.1/901 2013/11/27
 31 33  0  0  0  0  0  0  0  0999 V2000
    1.9020   14.9023   36.7616 C   0  0  2  0  0  0  0  0  0  0  0  0
    1.3529   15.5217   37.9089 O   0  0  0  0  0  0  0  0  0  0  0  0
   -2.3214   15.3403   40.0364 C   0  0  2  0  0  0  0  0  0  0  0  0
   -3.7212   15.3803   40.2928 N   0  0  0  0  0  0  0  0  0  0  0  0
   -3.6657   12.2755   39.2510 C   0  0  2  0  0  0  0  0  0  0  0  0
    3.4699   14.7560   36.9811 C   0  0  2  0  0  0  0  0  0  0  0  0
    3.7133   13.9793   38.1919 N   0  0  0  0  0  0  0  0  0  0  0  0
   -1.8875   16.7445   39.4203 C   0  0  0  0  0  0  0  0  0  0  0  0
   -3.9124   11.3026   40.4525 C   0  0  2  0  0  0  0  0  0  0  0  0
   -3.9145   12.0524   41.6488 O   0  0  0  0  0  0  0  0  0  0  0  0
    4.1503   16.1715   37.0689 C   0  0  0  0  0  0  0  0  0  0  0  0
   -0.3276   16.7053   39.1505 C   0  0  2  0  0  0  0  0  0  0  0  0
    0.0907   17.9918   38.5920 N   0  0  0  0  0  0  0  0  0  0  0  0
   -2.7652   10.2277   40.4677 C   0  0  1  0  0  0  0  0  0  0  0  0
   -2.9680    9.2907   41.6189 N   0  0  0  0  0  0  0  0  0  0  0  0
    3.5234   17.1917   36.0286 C   0  0  0  0  0  0  0  0  0  0  0  0
   -0.0130   15.5410   38.1246 C   0  0  2  0  0  0  0  0  0  0  0  0
   -2.8143    9.3883   39.0745 C   0  0  1  0  0  0  0  0  0  0  0  0
   -4.0383    8.7084   38.8770 O   0  0  0  0  0  0  0  0  0  0  0  0
    2.3688   16.9097   35.3775 C   0  0  1  0  0  0  0  0  0  0  0  0
    1.6388   15.7006   35.5652 O   0  0  0  0  0  0  0  0  0  0  0  0
   -0.4704   14.1517   38.7364 C   0  0  2  0  0  0  0  0  0  0  0  0
   -0.1935   13.0995   37.7896 O   0  0  0  0  0  0  0  0  0  0  0  0
   -2.6083   10.3681   37.8807 C   0  0  0  0  0  0  0  0  0  0  0  0
   -3.6280   11.4918   37.9502 O   0  0  0  0  0  0  0  0  0  0  0  0
    1.7359   17.8565   34.3858 C   0  0  0  0  0  0  0  0  0  0  0  0
    0.6363   18.4949   35.0700 O   0  0  0  0  0  0  0  0  0  0  0  0
   -2.0220   14.1957   39.0110 C   0  0  1  0  0  0  0  0  0  0  0  0
   -2.4024   12.9573   39.5578 O   0  0  0  0  0  0  0  0  0  0  0  0
   -1.7379    8.3026   38.9458 C   0  0  0  0  0  0  0  0  0  0  0  0
   -2.4837    9.7570   42.9347 C   0  0  0  0  0  0  0  0  0  0  0  0
  1  2  1  1  0  0  0
  1  6  1  0  0  0  0
  1 21  1  0  0  0  0
  3  4  1  6  0  0  0
  3  8  1  0  0  0  0
  3 28  1  0  0  0  0
  5  9  1  0  0  0  0
  5 25  1  0  0  0  0
  5 29  1  1  0  0  0
  6  7  1  1  0  0  0
  6 11  1  0  0  0  0
  8 12  1  0  0  0  0
  9 10  1  1  0  0  0
  9 14  1  0  0  0  0
 11 16  1  0  0  0  0
 12 13  1  6  0  0  0
 12 17  1  0  0  0  0
 14 15  1  1  0  0  0
 14 18  1  0  0  0  0
 15 31  1  0  0  0  0
 16 20  1  0  0  0  0
 17  2  1  1  0  0  0
 17 22  1  0  0  0  0
 18 19  1  6  0  0  0
 18 24  1  0  0  0  0
 18 30  1  0  0  0  0
 20 21  1  0  0  0  0
 20 26  1  1  0  0  0
 22 23  1  6  0  0  0
 22 28  1  0  0  0  0
 24 25  1  0  0  0  0
 26 27  1  0  0  0  0
 28 29  1  1  0  0  0
M  END
>  <CHROM.1>
-166.98991060,-157.96679443,-82.04972187,-159.97227369,-102.51514939,99.05501756
-0.77034397,13.74398990,38.47900315,-0.80562269,-0.58193037,3.09444964

>  <Name>
ligand

>  <RI>
0

>  <Rbt.Current_Directory>
/home/itssahil/PROJECTS/Mol_Feturizer/New_Systems/rnas/4GPY

>  <Rbt.Executable>
rbdock ($Id: //depot/dev/client3/rdock/2013.1/src/exe/rbdock.cxx#4 $)

>  <Rbt.Library>
libRbt.so (2013.1, Build901 2013/11/27)

>  <Rbt.Parameter_File>
/export/apps/rDock/src/rDock_2013.1_src/data/scripts/dock_solv.prm

>  <Rbt.Receptor>
prm/pocket_docking_4.prm

>  <SCORE>
-17.4989

>  <SCORE.INTER>
-16.9524

>  <SCORE.INTER.CONST>
1

>  <SCORE.INTER.POLAR>
0

>  <SCORE.INTER.ROT>
6

>  <SCORE.INTER.SOLV>
20.7546

>  <SCORE.INTER.VDW>
-25.8198

>  <SCORE.INTER.norm>
-0.546853

>  <SCORE.INTRA>
-0.546461

>  <SCORE.INTRA.DIHEDRAL>
-2.29549

>  <SCORE.INTRA.DIHEDRAL.0>
14.7001

>  <SCORE.INTRA.POLAR>
0

>  <SCORE.INTRA.POLAR.0>
0

>  <SCORE.INTRA.REPUL>
0.00339641

>  <SCORE.INTRA.REPUL.0>
0

>  <SCORE.INTRA.SOLV>
0.0650458

>  <SCORE.INTRA.SOLV.lig_0>
-65.3082

>  <SCORE.INTRA.VDW>
0.551777

>  <SCORE.INTRA.VDW.0>
-4.21408

>  <SCORE.INTRA.norm>
-0.0176278

>  <SCORE.RESTR>
0

>  <SCORE.RESTR.CAVITY>
0

>  <SCORE.RESTR.norm>
0

>  <SCORE.SYSTEM>
0

>  <SCORE.SYSTEM.CONST>
0

>  <SCORE.SYSTEM.DIHEDRAL>
0

>  <SCORE.SYSTEM.SOLV>
0

>  <SCORE.SYSTEM.norm>
0

>  <SCORE.heavy>
31

>  <SCORE.norm>
-0.56448

>  <RMSD>
0.390

$$$$
ligand
 OpenBabel11021811493D
libRbt.so/2013.1/901 2013/11/27
 31 33  0  0  0  0  0  0  0  0999 V2000
    1.9400   15.0279   36.7951 C   0  0  2  0  0  0  0  0  0  0  0  0
    1.3660   15.6589   37.9238 O   0  0  0  0  0  0  0  0  0  0  0  0
   -2.3255   15.3759   40.0101 C   0  0  2  0  0  0  0  0  0  0  0  0
   -3.7282   15.3886   40.2532 N   0  0  0  0  0  0  0  0  0  0  0  0
   -3.6503   12.3466   39.2184 C   0  0  2  0  0  0  0  0  0  0  0  0
    3.5065   14.9074   37.0393 C   0  0  2  0  0  0  0  0  0  0  0  0
    3.7432   14.1549   38.2666 N   0  0  0  0  0  0  0  0  0  0  0  0
   -1.9081   16.7992   39.4271 C   0  0  0  0  0  0  0  0  0  0  0  0
   -3.8658   11.3625   40.4169 C   0  0  2  0  0  0  0  0  0  0  0  0
   -3.8064   12.0965   41.6214 O   0  0  0  0  0  0  0  0  0  0  0  0
    4.1659   16.3336   37.1124 C   0  0  0  0  0  0  0  0  0  0  0  0
   -0.3452   16.7901   39.1723 C   0  0  2  0  0  0  0  0  0  0  0  0
    0.0579   18.0942   38.6444 N   0  0  0  0  0  0  0  0  0  0  0  0
   -2.7384   10.2678   40.3723 C   0  0  1  0  0  0  0  0  0  0  0  0
   -2.9115    9.3194   41.5192 N   0  0  0  0  0  0  0  0  0  0  0  0
    3.5400   17.3271   36.0460 C   0  0  0  0  0  0  0  0  0  0  0  0
   -0.0021   15.6522   38.1261 C   0  0  2  0  0  0  0  0  0  0  0  0
   -2.8586    9.4476   38.9720 C   0  0  1  0  0  0  0  0  0  0  0  0
   -4.1015    8.7918   38.8158 O   0  0  0  0  0  0  0  0  0  0  0  0
    2.3989   17.0179   35.3835 C   0  0  1  0  0  0  0  0  0  0  0  0
    1.6831   15.8019   35.5817 O   0  0  0  0  0  0  0  0  0  0  0  0
   -0.4431   14.2436   38.7049 C   0  0  2  0  0  0  0  0  0  0  0  0
   -0.1403   13.2155   37.7397 O   0  0  0  0  0  0  0  0  0  0  0  0
   -2.6833   10.4392   37.7830 C   0  0  0  0  0  0  0  0  0  0  0  0
   -3.6790   11.5795   37.9076 O   0  0  0  0  0  0  0  0  0  0  0  0
    1.7673   17.9387   34.3669 C   0  0  0  0  0  0  0  0  0  0  0  0
    0.6629   18.5898   35.0311 O   0  0  0  0  0  0  0  0  0  0  0  0
   -1.9979   14.2574   38.9647 C   0  0  1  0  0  0  0  0  0  0  0  0
   -2.3637   13.0023   39.4823 O   0  0  0  0  0  0  0  0  0  0  0  0
   -1.8079    8.3451   38.7865 C   0  0  0  0  0  0  0  0  0  0  0  0
   -2.2486    9.6961   42.7849 C   0  0  0  0  0  0  0  0  0  0  0  0
  1  2  1  1  0  0  0
  1  6  1  0  0  0  0
  1 21  1  0  0  0  0
  3  4  1  6  0  0  0
  3  8  1  0  0  0  0
  3 28  1  0  0  0  0
  5  9  1  0  0  0  0
  5 25  1  0  0  0  0
  5 29  1  1  0  0  0
  6  7  1  1  0  0  0
  6 11  1  0  0  0  0
  8 12  1  0  0  0  0
  9 10  1  1  0  0  0
  9 14  1  0  0  0  0
 11 16  1  0  0  0  0
 12 13  1  6  0  0  0
 12 17  1  0  0  0  0
 14 15  1  1  0  0  0
 14 18  1  0  0  0  0
 15 31  1  0  0  0  0
 16 20  1  0  0  0  0
 17  2  1  1  0  0  0
 17 22  1  0  0  0  0
 18 19  1  6  0  0  0
 18 24  1  0  0  0  0
 18 30  1  0  0  0  0
 20 21  1  0  0  0  0
 20 26  1  1  0  0  0
 22 23  1  6  0  0  0
 22 28  1  0  0  0  0
 24 25  1  0  0  0  0
 26 27  1  0  0  0  0
 28 29  1  1  0  0  0
M  END
>  <CHROM.1>
-166.39960917,-156.18767365,-88.04010910,-162.38374309,-101.57800672,94.89358455
-0.75231851,13.82488896,38.44970664,-0.81384807,-0.56951456,3.09954528

>  <Name>
ligand

>  <RI>
0

>  <Rbt.Current_Directory>
/home/itssahil/PROJECTS/Mol_Feturizer/New_Systems/rnas/4GPY

>  <Rbt.Executable>
rbdock ($Id: //depot/dev/client3/rdock/2013.1/src/exe/rbdock.cxx#4 $)

>  <Rbt.Library>
libRbt.so (2013.1, Build901 2013/11/27)

>  <Rbt.Parameter_File>
/export/apps/rDock/src/rDock_2013.1_src/data/scripts/dock_solv.prm

>  <Rbt.Receptor>
prm/pocket_docking_6.prm

>  <SCORE>
-17.7875

>  <SCORE.INTER>
-16.772

>  <SCORE.INTER.CONST>
1

>  <SCORE.INTER.POLAR>
0

>  <SCORE.INTER.ROT>
6

>  <SCORE.INTER.SOLV>
20.9174

>  <SCORE.INTER.VDW>
-25.7538

>  <SCORE.INTER.norm>
-0.541033

>  <SCORE.INTRA>
-1.01545

>  <SCORE.INTRA.DIHEDRAL>
-2.80075

>  <SCORE.INTRA.DIHEDRAL.0>
14.7001

>  <SCORE.INTRA.POLAR>
0

>  <SCORE.INTRA.POLAR.0>
0

>  <SCORE.INTRA.REPUL>
0.00106446

>  <SCORE.INTRA.REPUL.0>
0

>  <SCORE.INTRA.SOLV>
-0.12899

>  <SCORE.INTRA.SOLV.lig_0>
-65.3082

>  <SCORE.INTRA.VDW>
0.444091

>  <SCORE.INTRA.VDW.0>
-4.21408

>  <SCORE.INTRA.norm>
-0.0327566

>  <SCORE.RESTR>
0

>  <SCORE.RESTR.CAVITY>
0

>  <SCORE.RESTR.norm>
0

>  <SCORE.SYSTEM>
0

>  <SCORE.SYSTEM.CONST>
0

>  <SCORE.SYSTEM.DIHEDRAL>
0

>  <SCORE.SYSTEM.SOLV>
0

>  <SCORE.SYSTEM.norm>
0

>  <SCORE.heavy>
31

>  <SCORE.norm>
-0.57379

>  <RMSD>
0.390

$$$$
ligand
 OpenBabel11021811493D
libRbt.so/2013.1/901 2013/11/27
 31 33  0  0  0  0  0  0  0  0999 V2000
    1.9009   15.0192   36.8191 C   0  0  2  0  0  0  0  0  0  0  0  0
    1.3345   15.6754   37.9370 O   0  0  0  0  0  0  0  0  0  0  0  0
   -2.3381   15.3694   40.0534 C   0  0  2  0  0  0  0  0  0  0  0  0
   -3.7384   15.3810   40.3097 N   0  0  0  0  0  0  0  0  0  0  0  0
   -3.6674   12.3446   39.2149 C   0  0  2  0  0  0  0  0  0  0  0  0
    3.4689   14.9031   37.0560 C   0  0  2  0  0  0  0  0  0  0  0  0
    3.7129   14.1778   38.2982 N   0  0  0  0  0  0  0  0  0  0  0  0
   -1.9235   16.8000   39.4865 C   0  0  0  0  0  0  0  0  0  0  0  0
   -3.8963   11.3640   40.4138 C   0  0  2  0  0  0  0  0  0  0  0  0
   -3.8534   12.1020   41.6166 O   0  0  0  0  0  0  0  0  0  0  0  0
    4.1295   16.3300   37.0932 C   0  0  0  0  0  0  0  0  0  0  0  0
   -0.3631   16.7920   39.2171 C   0  0  2  0  0  0  0  0  0  0  0  0
    0.0374   18.1026   38.7037 N   0  0  0  0  0  0  0  0  0  0  0  0
   -2.7664   10.2712   40.3871 C   0  0  1  0  0  0  0  0  0  0  0  0
   -2.9523    9.3263   41.5347 N   0  0  0  0  0  0  0  0  0  0  0  0
    3.4974   17.3001   36.0090 C   0  0  0  0  0  0  0  0  0  0  0  0
   -0.0317   15.6682   38.1520 C   0  0  2  0  0  0  0  0  0  0  0  0
   -2.8674    9.4462   38.9880 C   0  0  1  0  0  0  0  0  0  0  0  0
   -4.1070    8.7876   38.8183 O   0  0  0  0  0  0  0  0  0  0  0  0
    2.3520   16.9770   35.3608 C   0  0  1  0  0  0  0  0  0  0  0  0
    1.6368   15.7663   35.5904 O   0  0  0  0  0  0  0  0  0  0  0  0
   -0.4699   14.2523   38.7151 C   0  0  2  0  0  0  0  0  0  0  0  0
   -0.1779   13.2374   37.7328 O   0  0  0  0  0  0  0  0  0  0  0  0
   -2.6789   10.4342   37.7981 C   0  0  0  0  0  0  0  0  0  0  0  0
   -3.6781   11.5731   37.9064 O   0  0  0  0  0  0  0  0  0  0  0  0
    1.7145   17.8755   34.3280 C   0  0  0  0  0  0  0  0  0  0  0  0
    0.6842   18.6217   35.0110 O   0  0  0  0  0  0  0  0  0  0  0  0
   -2.0222   14.2651   38.9895 C   0  0  1  0  0  0  0  0  0  0  0  0
   -2.3854   13.0035   39.4928 O   0  0  0  0  0  0  0  0  0  0  0  0
   -1.8124    8.3451   38.8194 C   0  0  0  0  0  0  0  0  0  0  0  0
   -2.3990    9.7595   42.8346 C   0  0  0  0  0  0  0  0  0  0  0  0
  1  2  1  1  0  0  0
  1  6  1  0  0  0  0
  1 21  1  0  0  0  0
  3  4  1  6  0  0  0
  3  8  1  0  0  0  0
  3 28  1  0  0  0  0
  5  9  1  0  0  0  0
  5 25  1  0  0  0  0
  5 29  1  1  0  0  0
  6  7  1  1  0  0  0
  6 11  1  0  0  0  0
  8 12  1  0  0  0  0
  9 10  1  1  0  0  0
  9 14  1  0  0  0  0
 11 16  1  0  0  0  0
 12 13  1  6  0  0  0
 12 17  1  0  0  0  0
 14 15  1  1  0  0  0
 14 18  1  0  0  0  0
 15 31  1  0  0  0  0
 16 20  1  0  0  0  0
 17  2  1  1  0  0  0
 17 22  1  0  0  0  0
 18 19  1  6  0  0  0
 18 24  1  0  0  0  0
 18 30  1  0  0  0  0
 20 21  1  0  0  0  0
 20 26  1  1  0  0  0
 22 23  1  6  0  0  0
 22 28  1  0  0  0  0
 24 25  1  0  0  0  0
 26 27  1  0  0  0  0
 28 29  1  1  0  0  0
M  END
>  <CHROM.1>
-166.05327925,-155.34978495,-83.30707806,-164.62124502,-97.05880188,95.87831376
-0.78095793,13.82529677,38.46276817,-0.79777906,-0.59378180,3.12364911

>  <Name>
ligand

>  <RI>
0

>  <Rbt.Current_Directory>
/home/itssahil/PROJECTS/Mol_Feturizer/New_Systems/rnas/4GPY

>  <Rbt.Executable>
rbdock ($Id: //depot/dev/client3/rdock/2013.1/src/exe/rbdock.cxx#4 $)

>  <Rbt.Library>
libRbt.so (2013.1, Build901 2013/11/27)

>  <Rbt.Parameter_File>
/export/apps/rDock/src/rDock_2013.1_src/data/scripts/dock_solv.prm

>  <Rbt.Receptor>
prm/pocket_docking_2.prm

>  <SCORE>
-17.635

>  <SCORE.INTER>
-16.8241

>  <SCORE.INTER.CONST>
1

>  <SCORE.INTER.POLAR>
0

>  <SCORE.INTER.ROT>
6

>  <SCORE.INTER.SOLV>
21.0048

>  <SCORE.INTER.VDW>
-25.8176

>  <SCORE.INTER.norm>
-0.542712

>  <SCORE.INTRA>
-0.810882

>  <SCORE.INTRA.DIHEDRAL>
-2.69349

>  <SCORE.INTRA.DIHEDRAL.0>
14.7001

>  <SCORE.INTRA.POLAR>
0

>  <SCORE.INTRA.POLAR.0>
0

>  <SCORE.INTRA.REPUL>
0.000573641

>  <SCORE.INTRA.REPUL.0>
0

>  <SCORE.INTRA.SOLV>
-0.326422

>  <SCORE.INTRA.SOLV.lig_0>
-65.3082

>  <SCORE.INTRA.VDW>
0.696205

>  <SCORE.INTRA.VDW.0>
-4.21408

>  <SCORE.INTRA.norm>
-0.0261575

>  <SCORE.RESTR>
0

>  <SCORE.RESTR.CAVITY>
0

>  <SCORE.RESTR.norm>
0

>  <SCORE.SYSTEM>
0

>  <SCORE.SYSTEM.CONST>
0

>  <SCORE.SYSTEM.DIHEDRAL>
0

>  <SCORE.SYSTEM.SOLV>
0

>  <SCORE.SYSTEM.norm>
0

>  <SCORE.heavy>
31

>  <SCORE.norm>
-0.56887

>  <RMSD>
0.391

$$$$
ligand
 OpenBabel11021811493D
libRbt.so/2013.1/901 2013/11/27
 31 33  0  0  0  0  0  0  0  0999 V2000
    1.9032   14.9944   36.8019 C   0  0  2  0  0  0  0  0  0  0  0  0
    1.3458   15.6233   37.9399 O   0  0  0  0  0  0  0  0  0  0  0  0
   -2.3412   15.4393   40.0452 C   0  0  2  0  0  0  0  0  0  0  0  0
   -3.7426   15.4780   40.2931 N   0  0  0  0  0  0  0  0  0  0  0  0
   -3.6899   12.3862   39.2755 C   0  0  2  0  0  0  0  0  0  0  0  0
    3.4689   14.8464   37.0358 C   0  0  2  0  0  0  0  0  0  0  0  0
    3.7004   14.0781   38.2543 N   0  0  0  0  0  0  0  0  0  0  0  0
   -1.9050   16.8436   39.4309 C   0  0  0  0  0  0  0  0  0  0  0  0
   -3.8980   11.3665   40.4452 C   0  0  2  0  0  0  0  0  0  0  0  0
   -3.8604   12.0684   41.6696 O   0  0  0  0  0  0  0  0  0  0  0  0
    4.1516   16.2610   37.1189 C   0  0  0  0  0  0  0  0  0  0  0  0
   -0.3434   16.8059   39.1706 C   0  0  2  0  0  0  0  0  0  0  0  0
    0.0769   18.0925   38.6139 N   0  0  0  0  0  0  0  0  0  0  0  0
   -2.7518   10.2924   40.3804 C   0  0  1  0  0  0  0  0  0  0  0  0
   -2.9176    9.3106   41.4998 N   0  0  0  0  0  0  0  0  0  0  0  0
    3.5357   17.2749   36.0659 C   0  0  0  0  0  0  0  0  0  0  0  0
   -0.0214   15.6413   38.1474 C   0  0  2  0  0  0  0  0  0  0  0  0
   -2.8471    9.5086   38.9575 C   0  0  1  0  0  0  0  0  0  0  0  0
   -4.0775    8.8365   38.7734 O   0  0  0  0  0  0  0  0  0  0  0  0
    2.3861   16.9905   35.4071 C   0  0  1  0  0  0  0  0  0  0  0  0
    1.6519   15.7844   35.5976 O   0  0  0  0  0  0  0  0  0  0  0  0
   -0.4810   14.2519   38.7573 C   0  0  2  0  0  0  0  0  0  0  0  0
   -0.1973   13.1994   37.8128 O   0  0  0  0  0  0  0  0  0  0  0  0
   -2.6795   10.5348   37.7972 C   0  0  0  0  0  0  0  0  0  0  0  0
   -3.6954   11.6545   37.9443 O   0  0  0  0  0  0  0  0  0  0  0  0
    1.7636   17.9313   34.4032 C   0  0  0  0  0  0  0  0  0  0  0  0
    0.6374   18.5500   35.0618 O   0  0  0  0  0  0  0  0  0  0  0  0
   -2.0344   14.2944   39.0224 C   0  0  1  0  0  0  0  0  0  0  0  0
   -2.4167   13.0560   39.5675 O   0  0  0  0  0  0  0  0  0  0  0  0
   -1.7764    8.4294   38.7509 C   0  0  0  0  0  0  0  0  0  0  0  0
   -2.2872    9.6729   42.7861 C   0  0  0  0  0  0  0  0  0  0  0  0
  1  2  1  1  0  0  0
  1  6  1  0  0  0  0
  1 21  1  0  0  0  0
  3  4  1  6  0  0  0
  3  8  1  0  0  0  0
  3 28  1  0  0  0  0
  5  9  1  0  0  0  0
  5 25  1  0  0  0  0
  5 29  1  1  0  0  0
  6  7  1  1  0  0  0
  6 11  1  0  0  0  0
  8 12  1  0  0  0  0
  9 10  1  1  0  0  0
  9 14  1  0  0  0  0
 11 16  1  0  0  0  0
 12 13  1  6  0  0  0
 12 17  1  0  0  0  0
 14 15  1  1  0  0  0
 14 18  1  0  0  0  0
 15 31  1  0  0  0  0
 16 20  1  0  0  0  0
 17  2  1  1  0  0  0
 17 22  1  0  0  0  0
 18 19  1  6  0  0  0
 18 24  1  0  0  0  0
 18 30  1  0  0  0  0
 20 21  1  0  0  0  0
 20 26  1  1  0  0  0
 22 23  1  6  0  0  0
 22 28  1  0  0  0  0
 24 25  1  0  0  0  0
 26 27  1  0  0  0  0
 28 29  1  1  0  0  0
M  END
>  <CHROM.1>
-166.66537937,-160.20106761,-87.20539357,-160.49122247,-104.04366454,97.69954334
-0.77094800,13.83205440,38.46804553,-0.80984025,-0.56971870,3.09735657

>  <Name>
ligand

>  <RI>
0

>  <Rbt.Current_Directory>
/home/itssahil/PROJECTS/Mol_Feturizer/New_Systems/rnas/4GPY

>  <Rbt.Executable>
rbdock ($Id: //depot/dev/client3/rdock/2013.1/src/exe/rbdock.cxx#4 $)

>  <Rbt.Library>
libRbt.so (2013.1, Build901 2013/11/27)

>  <Rbt.Parameter_File>
/export/apps/rDock/src/rDock_2013.1_src/data/scripts/dock_solv.prm

>  <Rbt.Receptor>
prm/pocket_docking_2.prm

>  <SCORE>
-17.5906

>  <SCORE.INTER>
-16.5213

>  <SCORE.INTER.CONST>
1

>  <SCORE.INTER.POLAR>
0

>  <SCORE.INTER.ROT>
6

>  <SCORE.INTER.SOLV>
20.8141

>  <SCORE.INTER.VDW>
-25.5522

>  <SCORE.INTER.norm>
-0.532946

>  <SCORE.INTRA>
-1.0693

>  <SCORE.INTRA.DIHEDRAL>
-2.8496

>  <SCORE.INTRA.DIHEDRAL.0>
14.7001

>  <SCORE.INTRA.POLAR>
0

>  <SCORE.INTRA.POLAR.0>
0

>  <SCORE.INTRA.REPUL>
0.00180972

>  <SCORE.INTRA.REPUL.0>
0

>  <SCORE.INTRA.SOLV>
-0.0648001

>  <SCORE.INTRA.SOLV.lig_0>
-65.3082

>  <SCORE.INTRA.VDW>
0.378856

>  <SCORE.INTRA.VDW.0>
-4.21408

>  <SCORE.INTRA.norm>
-0.0344934

>  <SCORE.RESTR>
0

>  <SCORE.RESTR.CAVITY>
0

>  <SCORE.RESTR.norm>
0

>  <SCORE.SYSTEM>
0

>  <SCORE.SYSTEM.CONST>
0

>  <SCORE.SYSTEM.DIHEDRAL>
0

>  <SCORE.SYSTEM.SOLV>
0

>  <SCORE.SYSTEM.norm>
0

>  <SCORE.heavy>
31

>  <SCORE.norm>
-0.567439

>  <RMSD>
0.394

$$$$
ligand
 OpenBabel11021811493D
libRbt.so/2013.1/901 2013/11/27
 31 33  0  0  0  0  0  0  0  0999 V2000
    1.8943   14.9170   36.7452 C   0  0  2  0  0  0  0  0  0  0  0  0
    1.3501   15.5057   37.9108 O   0  0  0  0  0  0  0  0  0  0  0  0
   -2.3292   15.3484   40.0318 C   0  0  2  0  0  0  0  0  0  0  0  0
   -3.7291   15.3984   40.2859 N   0  0  0  0  0  0  0  0  0  0  0  0
   -3.6943   12.2943   39.2388 C   0  0  2  0  0  0  0  0  0  0  0  0
    3.4602   14.7465   36.9623 C   0  0  2  0  0  0  0  0  0  0  0  0
    3.6928   13.9291   38.1482 N   0  0  0  0  0  0  0  0  0  0  0  0
   -1.8838   16.7502   39.4185 C   0  0  0  0  0  0  0  0  0  0  0  0
   -3.9431   11.3105   40.4310 C   0  0  2  0  0  0  0  0  0  0  0  0
   -3.9388   12.0482   41.6348 O   0  0  0  0  0  0  0  0  0  0  0  0
    4.1559   16.1508   37.0959 C   0  0  0  0  0  0  0  0  0  0  0  0
   -0.3237   16.6999   39.1513 C   0  0  2  0  0  0  0  0  0  0  0  0
    0.1051   17.9840   38.5955 N   0  0  0  0  0  0  0  0  0  0  0  0
   -2.8012   10.2300   40.4327 C   0  0  1  0  0  0  0  0  0  0  0  0
   -3.0060    9.2824   41.5749 N   0  0  0  0  0  0  0  0  0  0  0  0
    3.5422   17.2104   36.0877 C   0  0  0  0  0  0  0  0  0  0  0  0
   -0.0161   15.5348   38.1243 C   0  0  2  0  0  0  0  0  0  0  0  0
   -2.8576    9.4049   39.0312 C   0  0  1  0  0  0  0  0  0  0  0  0
   -4.0854    8.7331   38.8297 O   0  0  0  0  0  0  0  0  0  0  0  0
    2.3857   16.9620   35.4263 C   0  0  1  0  0  0  0  0  0  0  0  0
    1.6422   15.7557   35.5745 O   0  0  0  0  0  0  0  0  0  0  0  0
   -0.4847   14.1480   38.7333 C   0  0  2  0  0  0  0  0  0  0  0  0
   -0.2141   13.0951   37.7853 O   0  0  0  0  0  0  0  0  0  0  0  0
   -2.6495   10.3956   37.8469 C   0  0  0  0  0  0  0  0  0  0  0  0
   -3.6634   11.5236   37.9301 O   0  0  0  0  0  0  0  0  0  0  0  0
    1.7651   17.9468   34.4643 C   0  0  0  0  0  0  0  0  0  0  0  0
    0.6105   18.5015   35.1306 O   0  0  0  0  0  0  0  0  0  0  0  0
   -2.0365   14.2031   39.0053 C   0  0  1  0  0  0  0  0  0  0  0  0
   -2.4269   12.9668   39.5495 O   0  0  0  0  0  0  0  0  0  0  0  0
   -1.7869    8.3153   38.8892 C   0  0  0  0  0  0  0  0  0  0  0  0
   -2.4673    9.7089   42.8831 C   0  0  0  0  0  0  0  0  0  0  0  0
  1  2  1  1  0  0  0
  1  6  1  0  0  0  0
  1 21  1  0  0  0  0
  3  4  1  6  0  0  0
  3  8  1  0  0  0  0
  3 28  1  0  0  0  0
  5  9  1  0  0  0  0
  5 25  1  0  0  0  0
  5 29  1  1  0  0  0
  6  7  1  1  0  0  0
  6 11  1  0  0  0  0
  8 12  1  0  0  0  0
  9 10  1  1  0  0  0
  9 14  1  0  0  0  0
 11 16  1  0  0  0  0
 12 13  1  6  0  0  0
 12 17  1  0  0  0  0
 14 15  1  1  0  0  0
 14 18  1  0  0  0  0
 15 31  1  0  0  0  0
 16 20  1  0  0  0  0
 17  2  1  1  0  0  0
 17 22  1  0  0  0  0
 18 19  1  6  0  0  0
 18 24  1  0  0  0  0
 18 30  1  0  0  0  0
 20 21  1  0  0  0  0
 20 26  1  1  0  0  0
 22 23  1  6  0  0  0
 22 28  1  0  0  0  0
 24 25  1  0  0  0  0
 26 27  1  0  0  0  0
 28 29  1  1  0  0  0
M  END
>  <CHROM.1>
-167.07565586,-158.55430383,-84.46436084,-158.18153477,-106.75007207,99.10302855
-0.78413043,13.75189744,38.47250617,-0.80605667,-0.57178746,3.09616384

>  <Name>
ligand

>  <RI>
0

>  <Rbt.Current_Directory>
/home/itssahil/PROJECTS/Mol_Feturizer/New_Systems/rnas/4GPY

>  <Rbt.Executable>
rbdock ($Id: //depot/dev/client3/rdock/2013.1/src/exe/rbdock.cxx#4 $)

>  <Rbt.Library>
libRbt.so (2013.1, Build901 2013/11/27)

>  <Rbt.Parameter_File>
/export/apps/rDock/src/rDock_2013.1_src/data/scripts/dock_solv.prm

>  <Rbt.Receptor>
prm/pocket_docking_4.prm

>  <SCORE>
-17.5432

>  <SCORE.INTER>
-16.9677

>  <SCORE.INTER.CONST>
1

>  <SCORE.INTER.POLAR>
0

>  <SCORE.INTER.ROT>
6

>  <SCORE.INTER.SOLV>
20.7957

>  <SCORE.INTER.VDW>
-25.8437

>  <SCORE.INTER.norm>
-0.547344

>  <SCORE.INTRA>
-0.575582

>  <SCORE.INTRA.DIHEDRAL>
-2.18038

>  <SCORE.INTRA.DIHEDRAL.0>
14.7001

>  <SCORE.INTRA.POLAR>
0

>  <SCORE.INTRA.POLAR.0>
0

>  <SCORE.INTRA.REPUL>
0.00202044

>  <SCORE.INTRA.REPUL.0>
0

>  <SCORE.INTRA.SOLV>
0.230823

>  <SCORE.INTRA.SOLV.lig_0>
-65.3082

>  <SCORE.INTRA.VDW>
0.389095

>  <SCORE.INTRA.VDW.0>
-4.21408

>  <SCORE.INTRA.norm>
-0.0185672

>  <SCORE.RESTR>
0

>  <SCORE.RESTR.CAVITY>
0

>  <SCORE.RESTR.norm>
0

>  <SCORE.SYSTEM>
0

>  <SCORE.SYSTEM.CONST>
0

>  <SCORE.SYSTEM.DIHEDRAL>
0

>  <SCORE.SYSTEM.SOLV>
0

>  <SCORE.SYSTEM.norm>
0

>  <SCORE.heavy>
31

>  <SCORE.norm>
-0.565911

>  <RMSD>
0.394

$$$$
ligand
 OpenBabel11021811493D
libRbt.so/2013.1/901 2013/11/27
 31 33  0  0  0  0  0  0  0  0999 V2000
    1.9785   15.0064   36.8230 C   0  0  2  0  0  0  0  0  0  0  0  0
    1.3969   15.6424   37.9448 O   0  0  0  0  0  0  0  0  0  0  0  0
   -2.3108   15.3843   40.0056 C   0  0  2  0  0  0  0  0  0  0  0  0
   -3.7153   15.4002   40.2377 N   0  0  0  0  0  0  0  0  0  0  0  0
   -3.6347   12.3511   39.2444 C   0  0  2  0  0  0  0  0  0  0  0  0
    3.5475   14.9159   37.0642 C   0  0  2  0  0  0  0  0  0  0  0  0
    3.8003   14.1839   38.3007 N   0  0  0  0  0  0  0  0  0  0  0  0
   -1.8881   16.8008   39.4102 C   0  0  0  0  0  0  0  0  0  0  0  0
   -3.8445   11.3627   40.4403 C   0  0  2  0  0  0  0  0  0  0  0  0
   -3.7781   12.0923   41.6472 O   0  0  0  0  0  0  0  0  0  0  0  0
    4.1826   16.3539   37.1164 C   0  0  0  0  0  0  0  0  0  0  0  0
   -0.3233   16.7882   39.1675 C   0  0  2  0  0  0  0  0  0  0  0  0
    0.0846   18.0862   38.6284 N   0  0  0  0  0  0  0  0  0  0  0  0
   -2.7181   10.2674   40.3857 C   0  0  1  0  0  0  0  0  0  0  0  0
   -2.8856    9.3150   41.5300 N   0  0  0  0  0  0  0  0  0  0  0  0
    3.5370   17.3223   36.0387 C   0  0  0  0  0  0  0  0  0  0  0  0
    0.0272   15.6386   38.1367 C   0  0  2  0  0  0  0  0  0  0  0  0
   -2.8462    9.4524   38.9831 C   0  0  1  0  0  0  0  0  0  0  0  0
   -4.0904    8.7980   38.8311 O   0  0  0  0  0  0  0  0  0  0  0  0
    2.3996   16.9848   35.3838 C   0  0  1  0  0  0  0  0  0  0  0  0
    1.7052   15.7596   35.6002 O   0  0  0  0  0  0  0  0  0  0  0  0
   -0.4190   14.2367   38.7275 C   0  0  2  0  0  0  0  0  0  0  0  0
   -0.1093   13.1979   37.7761 O   0  0  0  0  0  0  0  0  0  0  0  0
   -2.6766   10.4483   37.7968 C   0  0  0  0  0  0  0  0  0  0  0  0
   -3.6709   11.5887   37.9309 O   0  0  0  0  0  0  0  0  0  0  0  0
    1.7496   17.8811   34.3568 C   0  0  0  0  0  0  0  0  0  0  0  0
    0.6858   18.5821   35.0364 O   0  0  0  0  0  0  0  0  0  0  0  0
   -1.9757   14.2541   38.9752 C   0  0  1  0  0  0  0  0  0  0  0  0
   -2.3462   13.0050   39.5037 O   0  0  0  0  0  0  0  0  0  0  0  0
   -1.7972    8.3500   38.7879 C   0  0  0  0  0  0  0  0  0  0  0  0
   -2.2151    9.6863   42.7933 C   0  0  0  0  0  0  0  0  0  0  0  0
  1  2  1  1  0  0  0
  1  6  1  0  0  0  0
  1 21  1  0  0  0  0
  3  4  1  6  0  0  0
  3  8  1  0  0  0  0
  3 28  1  0  0  0  0
  5  9  1  0  0  0  0
  5 25  1  0  0  0  0
  5 29  1  1  0  0  0
  6  7  1  1  0  0  0
  6 11  1  0  0  0  0
  8 12  1  0  0  0  0
  9 10  1  1  0  0  0
  9 14  1  0  0  0  0
 11 16  1  0  0  0  0
 12 13  1  6  0  0  0
 12 17  1  0  0  0  0
 14 15  1  1  0  0  0
 14 18  1  0  0  0  0
 15 31  1  0  0  0  0
 16 20  1  0  0  0  0
 17  2  1  1  0  0  0
 17 22  1  0  0  0  0
 18 19  1  6  0  0  0
 18 24  1  0  0  0  0
 18 30  1  0  0  0  0
 20 21  1  0  0  0  0
 20 26  1  1  0  0  0
 22 23  1  6  0  0  0
 22 28  1  0  0  0  0
 24 25  1  0  0  0  0
 26 27  1  0  0  0  0
 28 29  1  1  0  0  0
M  END
>  <CHROM.1>
-167.74183832,-157.02110565,-88.07330666,-161.96213484,-98.23718721,94.47146426
-0.73218911,13.82043765,38.46079499,-0.81644871,-0.56297224,3.09180228

>  <Name>
ligand

>  <RI>
0

>  <Rbt.Current_Directory>
/home/itssahil/PROJECTS/Mol_Feturizer/New_Systems/rnas/4GPY

>  <Rbt.Executable>
rbdock ($Id: //depot/dev/client3/rdock/2013.1/src/exe/rbdock.cxx#4 $)

>  <Rbt.Library>
libRbt.so (2013.1, Build901 2013/11/27)

>  <Rbt.Parameter_File>
/export/apps/rDock/src/rDock_2013.1_src/data/scripts/dock_solv.prm

>  <Rbt.Receptor>
prm/pocket_docking_2.prm

>  <SCORE>
-17.7312

>  <SCORE.INTER>
-16.6166

>  <SCORE.INTER.CONST>
1

>  <SCORE.INTER.POLAR>
0

>  <SCORE.INTER.ROT>
6

>  <SCORE.INTER.SOLV>
20.7801

>  <SCORE.INTER.VDW>
-25.6044

>  <SCORE.INTER.norm>
-0.53602

>  <SCORE.INTRA>
-1.11455

>  <SCORE.INTRA.DIHEDRAL>
-2.97337

>  <SCORE.INTRA.DIHEDRAL.0>
14.7001

>  <SCORE.INTRA.POLAR>
0

>  <SCORE.INTRA.POLAR.0>
0

>  <SCORE.INTRA.REPUL>
0.00169385

>  <SCORE.INTRA.REPUL.0>
0

>  <SCORE.INTRA.SOLV>
-0.152296

>  <SCORE.INTRA.SOLV.lig_0>
-65.3082

>  <SCORE.INTRA.VDW>
0.439809

>  <SCORE.INTRA.VDW.0>
-4.21408

>  <SCORE.INTRA.norm>
-0.0359533

>  <SCORE.RESTR>
0

>  <SCORE.RESTR.CAVITY>
0

>  <SCORE.RESTR.norm>
0

>  <SCORE.SYSTEM>
0

>  <SCORE.SYSTEM.CONST>
0

>  <SCORE.SYSTEM.DIHEDRAL>
0

>  <SCORE.SYSTEM.SOLV>
0

>  <SCORE.SYSTEM.norm>
0

>  <SCORE.heavy>
31

>  <SCORE.norm>
-0.571973

>  <RMSD>
0.398

$$$$
ligand
 OpenBabel11021811493D
libRbt.so/2013.1/901 2013/11/27
 31 33  0  0  0  0  0  0  0  0999 V2000
    1.9664   15.0028   36.8288 C   0  0  2  0  0  0  0  0  0  0  0  0
    1.3884   15.6313   37.9566 O   0  0  0  0  0  0  0  0  0  0  0  0
   -2.3229   15.3966   40.0136 C   0  0  2  0  0  0  0  0  0  0  0  0
   -3.7276   15.4212   40.2442 N   0  0  0  0  0  0  0  0  0  0  0  0
   -3.6589   12.3648   39.2411 C   0  0  2  0  0  0  0  0  0  0  0  0
    3.5333   14.8897   37.0745 C   0  0  2  0  0  0  0  0  0  0  0  0
    3.7722   14.1386   38.3023 N   0  0  0  0  0  0  0  0  0  0  0  0
   -1.8910   16.8102   39.4180 C   0  0  0  0  0  0  0  0  0  0  0  0
   -3.8861   11.3844   40.4404 C   0  0  2  0  0  0  0  0  0  0  0  0
   -3.8333   12.1213   41.6435 O   0  0  0  0  0  0  0  0  0  0  0  0
    4.1859   16.3189   37.1478 C   0  0  0  0  0  0  0  0  0  0  0  0
   -0.3260   16.7881   39.1770 C   0  0  2  0  0  0  0  0  0  0  0  0
    0.0903   18.0833   38.6378 N   0  0  0  0  0  0  0  0  0  0  0  0
   -2.7617   10.2862   40.4069 C   0  0  1  0  0  0  0  0  0  0  0  0
   -2.9459    9.3413   41.5549 N   0  0  0  0  0  0  0  0  0  0  0  0
    3.5564   17.3092   36.0805 C   0  0  0  0  0  0  0  0  0  0  0  0
    0.0186   15.6360   38.1470 C   0  0  2  0  0  0  0  0  0  0  0  0
   -2.8739    9.4628   39.0078 C   0  0  1  0  0  0  0  0  0  0  0  0
   -4.1176    8.8102   38.8442 O   0  0  0  0  0  0  0  0  0  0  0  0
    2.4174   16.9944   35.4170 C   0  0  1  0  0  0  0  0  0  0  0  0
    1.7071   15.7752   35.6148 O   0  0  0  0  0  0  0  0  0  0  0  0
   -0.4368   14.2370   38.7380 C   0  0  2  0  0  0  0  0  0  0  0  0
   -0.1325   13.1959   37.7874 O   0  0  0  0  0  0  0  0  0  0  0  0
   -2.6870   10.4508   37.8177 C   0  0  0  0  0  0  0  0  0  0  0  0
   -3.6802   11.5943   37.9321 O   0  0  0  0  0  0  0  0  0  0  0  0
    1.7824   17.9120   34.3995 C   0  0  0  0  0  0  0  0  0  0  0  0
    0.6480   18.5250   35.0491 O   0  0  0  0  0  0  0  0  0  0  0  0
   -1.9937   14.2640   38.9840 C   0  0  1  0  0  0  0  0  0  0  0  0
   -2.3723   13.0173   39.5127 O   0  0  0  0  0  0  0  0  0  0  0  0
   -1.8252    8.3568   38.8329 C   0  0  0  0  0  0  0  0  0  0  0  0
   -2.3056    9.7279   42.8292 C   0  0  0  0  0  0  0  0  0  0  0  0
  1  2  1  1  0  0  0
  1  6  1  0  0  0  0
  1 21  1  0  0  0  0
  3  4  1  6  0  0  0
  3  8  1  0  0  0  0
  3 28  1  0  0  0  0
  5  9  1  0  0  0  0
  5 25  1  0  0  0  0
  5 29  1  1  0  0  0
  6  7  1  1  0  0  0
  6 11  1  0  0  0  0
  8 12  1  0  0  0  0
  9 10  1  1  0  0  0
  9 14  1  0  0  0  0
 11 16  1  0  0  0  0
 12 13  1  6  0  0  0
 12 17  1  0  0  0  0
 14 15  1  1  0  0  0
 14 18  1  0  0  0  0
 15 31  1  0  0  0  0
 16 20  1  0  0  0  0
 17  2  1  1  0  0  0
 17 22  1  0  0  0  0
 18 19  1  6  0  0  0
 18 24  1  0  0  0  0
 18 30  1  0  0  0  0
 20 21  1  0  0  0  0
 20 26  1  1  0  0  0
 22 23  1  6  0  0  0
 22 28  1  0  0  0  0
 24 25  1  0  0  0  0
 26 27  1  0  0  0  0
 28 29  1  1  0  0  0
M  END
>  <CHROM.1>
-167.39769201,-156.84364035,-87.28516854,-161.32505256,-103.41505604,95.13247683
-0.75068115,13.82394065,38.47613189,-0.81075745,-0.56030833,3.09279376

>  <Name>
ligand

>  <RI>
0

>  <Rbt.Current_Directory>
/home/itssahil/PROJECTS/Mol_Feturizer/New_Systems/rnas/4GPY

>  <Rbt.Executable>
rbdock ($Id: //depot/dev/client3/rdock/2013.1/src/exe/rbdock.cxx#4 $)

>  <Rbt.Library>
libRbt.so (2013.1, Build901 2013/11/27)

>  <Rbt.Parameter_File>
/export/apps/rDock/src/rDock_2013.1_src/data/scripts/dock_solv.prm

>  <Rbt.Receptor>
prm/pocket_docking_2.prm

>  <SCORE>
-17.8481

>  <SCORE.INTER>
-16.7848

>  <SCORE.INTER.CONST>
1

>  <SCORE.INTER.POLAR>
0

>  <SCORE.INTER.ROT>
6

>  <SCORE.INTER.SOLV>
20.7892

>  <SCORE.INTER.VDW>
-25.7196

>  <SCORE.INTER.norm>
-0.541447

>  <SCORE.INTRA>
-1.06326

>  <SCORE.INTRA.DIHEDRAL>
-2.92756

>  <SCORE.INTRA.DIHEDRAL.0>
14.7001

>  <SCORE.INTRA.POLAR>
0

>  <SCORE.INTRA.POLAR.0>
0

>  <SCORE.INTRA.REPUL>
0.000521406

>  <SCORE.INTRA.REPUL.0>
0

>  <SCORE.INTRA.SOLV>
-0.0567963

>  <SCORE.INTRA.SOLV.lig_0>
-65.3082

>  <SCORE.INTRA.VDW>
0.426312

>  <SCORE.INTRA.VDW.0>
-4.21408

>  <SCORE.INTRA.norm>
-0.0342988

>  <SCORE.RESTR>
0

>  <SCORE.RESTR.CAVITY>
0

>  <SCORE.RESTR.norm>
0

>  <SCORE.SYSTEM>
0

>  <SCORE.SYSTEM.CONST>
0

>  <SCORE.SYSTEM.DIHEDRAL>
0

>  <SCORE.SYSTEM.SOLV>
0

>  <SCORE.SYSTEM.norm>
0

>  <SCORE.heavy>
31

>  <SCORE.norm>
-0.575745

>  <RMSD>
0.399

$$$$
ligand
 OpenBabel11021811493D
libRbt.so/2013.1/901 2013/11/27
 31 33  0  0  0  0  0  0  0  0999 V2000
    1.5405   15.0291   36.6418 C   0  0  2  0  0  0  0  0  0  0  0  0
    1.0553   15.6368   37.8236 O   0  0  0  0  0  0  0  0  0  0  0  0
   -2.4438   15.2158   40.1981 C   0  0  2  0  0  0  0  0  0  0  0  0
   -3.8208   15.2031   40.5595 N   0  0  0  0  0  0  0  0  0  0  0  0
   -3.7519   12.1503   39.2336 C   0  0  2  0  0  0  0  0  0  0  0  0
    3.0904   14.7335   36.8380 C   0  0  2  0  0  0  0  0  0  0  0  0
    3.2704   13.8789   38.0068 N   0  0  0  0  0  0  0  0  0  0  0  0
   -2.0848   16.6701   39.6543 C   0  0  0  0  0  0  0  0  0  0  0  0
   -3.9811   11.1663   40.4297 C   0  0  2  0  0  0  0  0  0  0  0  0
   -4.0206   11.9121   41.6279 O   0  0  0  0  0  0  0  0  0  0  0  0
    3.8946   16.0768   36.9883 C   0  0  0  0  0  0  0  0  0  0  0  0
   -0.5493   16.6885   39.2679 C   0  0  2  0  0  0  0  0  0  0  0  0
   -0.1993   18.0209   38.7740 N   0  0  0  0  0  0  0  0  0  0  0  0
   -2.8005   10.1285   40.4551 C   0  0  1  0  0  0  0  0  0  0  0  0
   -2.9863    9.1821   41.6015 N   0  0  0  0  0  0  0  0  0  0  0  0
    3.3553   17.1992   36.0058 C   0  0  0  0  0  0  0  0  0  0  0  0
   -0.2906   15.6072   38.1405 C   0  0  2  0  0  0  0  0  0  0  0  0
   -2.8070    9.2922   39.0592 C   0  0  1  0  0  0  0  0  0  0  0  0
   -4.0063    8.5743   38.8460 O   0  0  0  0  0  0  0  0  0  0  0  0
    2.1765   17.0535   35.3533 C   0  0  1  0  0  0  0  0  0  0  0  0
    1.3427   15.9061   35.4888 O   0  0  0  0  0  0  0  0  0  0  0  0
   -0.6735   14.1675   38.6829 C   0  0  2  0  0  0  0  0  0  0  0  0
   -0.4486   13.1915   37.6450 O   0  0  0  0  0  0  0  0  0  0  0  0
   -2.6188   10.2816   37.8705 C   0  0  0  0  0  0  0  0  0  0  0  0
   -3.6744   11.3721   37.9313 O   0  0  0  0  0  0  0  0  0  0  0  0
    1.6249   18.1009   34.4157 C   0  0  0  0  0  0  0  0  0  0  0  0
    0.5167   18.7238   35.1003 O   0  0  0  0  0  0  0  0  0  0  0  0
   -2.2006   14.1537   39.0738 C   0  0  1  0  0  0  0  0  0  0  0  0
   -2.5145   12.8711   39.5567 O   0  0  0  0  0  0  0  0  0  0  0  0
   -1.6951    8.2417   38.9400 C   0  0  0  0  0  0  0  0  0  0  0  0
   -2.5317    9.6594   42.9239 C   0  0  0  0  0  0  0  0  0  0  0  0
  1  2  1  1  0  0  0
  1  6  1  0  0  0  0
  1 21  1  0  0  0  0
  3  4  1  6  0  0  0
  3  8  1  0  0  0  0
  3 28  1  0  0  0  0
  5  9  1  0  0  0  0
  5 25  1  0  0  0  0
  5 29  1  1  0  0  0
  6  7  1  1  0  0  0
  6 11  1  0  0  0  0
  8 12  1  0  0  0  0
  9 10  1  1  0  0  0
  9 14  1  0  0  0  0
 11 16  1  0  0  0  0
 12 13  1  6  0  0  0
 12 17  1  0  0  0  0
 14 15  1  1  0  0  0
 14 18  1  0  0  0  0
 15 31  1  0  0  0  0
 16 20  1  0  0  0  0
 17  2  1  1  0  0  0
 17 22  1  0  0  0  0
 18 19  1  6  0  0  0
 18 24  1  0  0  0  0
 18 30  1  0  0  0  0
 20 21  1  0  0  0  0
 20 26  1  1  0  0  0
 22 23  1  6  0  0  0
 22 28  1  0  0  0  0
 24 25  1  0  0  0  0
 26 27  1  0  0  0  0
 28 29  1  1  0  0  0
M  END
>  <CHROM.1>
-158.19313006,-154.41235246,-82.06855187,-164.51685123,-107.21247840,102.66593193
-0.92787576,13.72397402,38.47693596,-0.80773670,-0.65097279,-3.14118470

>  <Name>
ligand

>  <RI>
0

>  <Rbt.Current_Directory>
/home/itssahil/PROJECTS/Mol_Feturizer/New_Systems/rnas/4GPY

>  <Rbt.Executable>
rbdock ($Id: //depot/dev/client3/rdock/2013.1/src/exe/rbdock.cxx#4 $)

>  <Rbt.Library>
libRbt.so (2013.1, Build901 2013/11/27)

>  <Rbt.Parameter_File>
/export/apps/rDock/src/rDock_2013.1_src/data/scripts/dock_solv.prm

>  <Rbt.Receptor>
prm/pocket_docking_3.prm

>  <SCORE>
-16.8332

>  <SCORE.INTER>
-17.4217

>  <SCORE.INTER.CONST>
1

>  <SCORE.INTER.POLAR>
0

>  <SCORE.INTER.ROT>
6

>  <SCORE.INTER.SOLV>
21.1757

>  <SCORE.INTER.VDW>
-26.273

>  <SCORE.INTER.norm>
-0.56199

>  <SCORE.INTRA>
0.376553

>  <SCORE.INTRA.DIHEDRAL>
-0.642994

>  <SCORE.INTRA.DIHEDRAL.0>
14.7001

>  <SCORE.INTRA.POLAR>
0

>  <SCORE.INTRA.POLAR.0>
0

>  <SCORE.INTRA.REPUL>
0.00318551

>  <SCORE.INTRA.REPUL.0>
0

>  <SCORE.INTRA.SOLV>
-0.0919886

>  <SCORE.INTRA.SOLV.lig_0>
-65.3082

>  <SCORE.INTRA.VDW>
0.728117

>  <SCORE.INTRA.VDW.0>
-4.21408

>  <SCORE.INTRA.norm>
0.0121469

>  <SCORE.RESTR>
0.21191

>  <SCORE.RESTR.CAVITY>
0.21191

>  <SCORE.RESTR.norm>
0.0068358

>  <SCORE.SYSTEM>
0

>  <SCORE.SYSTEM.CONST>
0

>  <SCORE.SYSTEM.DIHEDRAL>
0

>  <SCORE.SYSTEM.SOLV>
0

>  <SCORE.SYSTEM.norm>
0

>  <SCORE.heavy>
31

>  <SCORE.norm>
-0.543007

>  <RMSD>
0.400

$$$$
ligand
 OpenBabel11021811493D
libRbt.so/2013.1/901 2013/11/27
 31 33  0  0  0  0  0  0  0  0999 V2000
    1.9986   14.8903   36.8140 C   0  0  2  0  0  0  0  0  0  0  0  0
    1.4299   15.4756   37.9695 O   0  0  0  0  0  0  0  0  0  0  0  0
   -2.2980   15.3570   40.0064 C   0  0  2  0  0  0  0  0  0  0  0  0
   -3.7033   15.4137   40.2271 N   0  0  0  0  0  0  0  0  0  0  0  0
   -3.6644   12.3083   39.2462 C   0  0  2  0  0  0  0  0  0  0  0  0
    3.5648   14.7511   37.0499 C   0  0  2  0  0  0  0  0  0  0  0  0
    3.7994   13.9456   38.2435 N   0  0  0  0  0  0  0  0  0  0  0  0
   -1.8349   16.7489   39.3837 C   0  0  0  0  0  0  0  0  0  0  0  0
   -3.9206   11.3256   40.4379 C   0  0  2  0  0  0  0  0  0  0  0  0
   -3.9081   12.0621   41.6423 O   0  0  0  0  0  0  0  0  0  0  0  0
    4.2321   16.1692   37.1825 C   0  0  0  0  0  0  0  0  0  0  0  0
   -0.2692   16.6913   39.1536 C   0  0  2  0  0  0  0  0  0  0  0  0
    0.1757   17.9663   38.5896 N   0  0  0  0  0  0  0  0  0  0  0  0
   -2.7886   10.2348   40.4370 C   0  0  1  0  0  0  0  0  0  0  0  0
   -3.0006    9.2879   41.5786 N   0  0  0  0  0  0  0  0  0  0  0  0
    3.6099   17.2107   36.1606 C   0  0  0  0  0  0  0  0  0  0  0  0
    0.0593   15.5109   38.1507 C   0  0  2  0  0  0  0  0  0  0  0  0
   -2.8543    9.4116   39.0348 C   0  0  1  0  0  0  0  0  0  0  0  0
   -4.0883    8.7512   38.8342 O   0  0  0  0  0  0  0  0  0  0  0  0
    2.4661   16.9362   35.4877 C   0  0  1  0  0  0  0  0  0  0  0  0
    1.7440   15.7168   35.6351 O   0  0  0  0  0  0  0  0  0  0  0  0
   -0.4270   14.1340   38.7684 C   0  0  2  0  0  0  0  0  0  0  0  0
   -0.1371   13.0670   37.8422 O   0  0  0  0  0  0  0  0  0  0  0  0
   -2.6387   10.4016   37.8512 C   0  0  0  0  0  0  0  0  0  0  0  0
   -3.6422   11.5386   37.9367 O   0  0  0  0  0  0  0  0  0  0  0  0
    1.8379   17.9029   34.5124 C   0  0  0  0  0  0  0  0  0  0  0  0
    0.6900   18.4720   35.1783 O   0  0  0  0  0  0  0  0  0  0  0  0
   -1.9845   14.1964   39.0034 C   0  0  1  0  0  0  0  0  0  0  0  0
   -2.3906   12.9690   39.5560 O   0  0  0  0  0  0  0  0  0  0  0  0
   -1.7936    8.3125   38.8903 C   0  0  0  0  0  0  0  0  0  0  0  0
   -2.4439    9.7017   42.8833 C   0  0  0  0  0  0  0  0  0  0  0  0
  1  2  1  1  0  0  0
  1  6  1  0  0  0  0
  1 21  1  0  0  0  0
  3  4  1  6  0  0  0
  3  8  1  0  0  0  0
  3 28  1  0  0  0  0
  5  9  1  0  0  0  0
  5 25  1  0  0  0  0
  5 29  1  1  0  0  0
  6  7  1  1  0  0  0
  6 11  1  0  0  0  0
  8 12  1  0  0  0  0
  9 10  1  1  0  0  0
  9 14  1  0  0  0  0
 11 16  1  0  0  0  0
 12 13  1  6  0  0  0
 12 17  1  0  0  0  0
 14 15  1  1  0  0  0
 14 18  1  0  0  0  0
 15 31  1  0  0  0  0
 16 20  1  0  0  0  0
 17  2  1  1  0  0  0
 17 22  1  0  0  0  0
 18 19  1  6  0  0  0
 18 24  1  0  0  0  0
 18 30  1  0  0  0  0
 20 21  1  0  0  0  0
 20 26  1  1  0  0  0
 22 23  1  6  0  0  0
 22 28  1  0  0  0  0
 24 25  1  0  0  0  0
 26 27  1  0  0  0  0
 28 29  1  1  0  0  0
M  END
>  <CHROM.1>
-168.77363718,-159.14227023,-85.08704477,-157.04080995,-104.93276740,97.80459514
-0.73406919,13.74715659,38.49654386,-0.80778574,-0.54634706,3.08444167

>  <Name>
ligand

>  <RI>
0

>  <Rbt.Current_Directory>
/home/itssahil/PROJECTS/Mol_Feturizer/New_Systems/rnas/4GPY

>  <Rbt.Executable>
rbdock ($Id: //depot/dev/client3/rdock/2013.1/src/exe/rbdock.cxx#4 $)

>  <Rbt.Library>
libRbt.so (2013.1, Build901 2013/11/27)

>  <Rbt.Parameter_File>
/export/apps/rDock/src/rDock_2013.1_src/data/scripts/dock_solv.prm

>  <Rbt.Receptor>
prm/pocket_docking_4.prm

>  <SCORE>
-17.5152

>  <SCORE.INTER>
-16.8238

>  <SCORE.INTER.CONST>
1

>  <SCORE.INTER.POLAR>
0

>  <SCORE.INTER.ROT>
6

>  <SCORE.INTER.SOLV>
20.3649

>  <SCORE.INTER.VDW>
-25.6042

>  <SCORE.INTER.norm>
-0.542702

>  <SCORE.INTRA>
-0.691436

>  <SCORE.INTRA.DIHEDRAL>
-2.41061

>  <SCORE.INTRA.DIHEDRAL.0>
14.7001

>  <SCORE.INTRA.POLAR>
0

>  <SCORE.INTRA.POLAR.0>
0

>  <SCORE.INTRA.REPUL>
0.00270441

>  <SCORE.INTRA.REPUL.0>
0

>  <SCORE.INTRA.SOLV>
0.318128

>  <SCORE.INTRA.SOLV.lig_0>
-65.3082

>  <SCORE.INTRA.VDW>
0.341282

>  <SCORE.INTRA.VDW.0>
-4.21408

>  <SCORE.INTRA.norm>
-0.0223044

>  <SCORE.RESTR>
0

>  <SCORE.RESTR.CAVITY>
0

>  <SCORE.RESTR.norm>
0

>  <SCORE.SYSTEM>
0

>  <SCORE.SYSTEM.CONST>
0

>  <SCORE.SYSTEM.DIHEDRAL>
0

>  <SCORE.SYSTEM.SOLV>
0

>  <SCORE.SYSTEM.norm>
0

>  <SCORE.heavy>
31

>  <SCORE.norm>
-0.565006

>  <RMSD>
0.407

$$$$
ligand
 OpenBabel11021811493D
libRbt.so/2013.1/901 2013/11/27
 31 33  0  0  0  0  0  0  0  0999 V2000
    1.9618   14.9978   36.8867 C   0  0  2  0  0  0  0  0  0  0  0  0
    1.3843   15.6472   38.0030 O   0  0  0  0  0  0  0  0  0  0  0  0
   -2.3301   15.4814   40.0611 C   0  0  2  0  0  0  0  0  0  0  0  0
   -3.7350   15.5152   40.2889 N   0  0  0  0  0  0  0  0  0  0  0  0
   -3.6595   12.4172   39.3611 C   0  0  2  0  0  0  0  0  0  0  0  0
    3.5268   14.8765   37.1400 C   0  0  2  0  0  0  0  0  0  0  0  0
    3.7555   14.1418   38.3796 N   0  0  0  0  0  0  0  0  0  0  0  0
   -1.8952   16.8755   39.4229 C   0  0  0  0  0  0  0  0  0  0  0  0
   -3.8447   11.3912   40.5291 C   0  0  2  0  0  0  0  0  0  0  0  0
   -3.7864   12.0871   41.7561 O   0  0  0  0  0  0  0  0  0  0  0  0
    4.1899   16.3018   37.1948 C   0  0  0  0  0  0  0  0  0  0  0  0
   -0.3299   16.8435   39.1849 C   0  0  2  0  0  0  0  0  0  0  0  0
    0.0891   18.1209   38.6066 N   0  0  0  0  0  0  0  0  0  0  0  0
   -2.6979   10.3197   40.4383 C   0  0  1  0  0  0  0  0  0  0  0  0
   -2.8418    9.3320   41.5555 N   0  0  0  0  0  0  0  0  0  0  0  0
    3.5719   17.2809   36.1107 C   0  0  0  0  0  0  0  0  0  0  0  0
    0.0142   15.6597   38.1913 C   0  0  2  0  0  0  0  0  0  0  0  0
   -2.8173    9.5429   39.0134 C   0  0  1  0  0  0  0  0  0  0  0  0
   -4.0495    8.8694   38.8480 O   0  0  0  0  0  0  0  0  0  0  0  0
    2.4330   16.9650   35.4476 C   0  0  1  0  0  0  0  0  0  0  0  0
    1.7128   15.7542   35.6606 O   0  0  0  0  0  0  0  0  0  0  0  0
   -0.4441   14.2803   38.8244 C   0  0  2  0  0  0  0  0  0  0  0  0
   -0.1401   13.2100   37.9067 O   0  0  0  0  0  0  0  0  0  0  0  0
   -2.6723   10.5753   37.8555 C   0  0  0  0  0  0  0  0  0  0  0  0
   -3.6875   11.6922   38.0265 O   0  0  0  0  0  0  0  0  0  0  0  0
    1.8088   17.8723   34.4143 C   0  0  0  0  0  0  0  0  0  0  0  0
    0.6720   18.4973   35.0480 O   0  0  0  0  0  0  0  0  0  0  0  0
   -2.0012   14.3172   39.0673 C   0  0  1  0  0  0  0  0  0  0  0  0
   -2.3824   13.0880   39.6336 O   0  0  0  0  0  0  0  0  0  0  0  0
   -1.7484    8.4668   38.7822 C   0  0  0  0  0  0  0  0  0  0  0  0
   -2.2309    9.7112   42.8464 C   0  0  0  0  0  0  0  0  0  0  0  0
  1  2  1  1  0  0  0
  1  6  1  0  0  0  0
  1 21  1  0  0  0  0
  3  4  1  6  0  0  0
  3  8  1  0  0  0  0
  3 28  1  0  0  0  0
  5  9  1  0  0  0  0
  5 25  1  0  0  0  0
  5 29  1  1  0  0  0
  6  7  1  1  0  0  0
  6 11  1  0  0  0  0
  8 12  1  0  0  0  0
  9 10  1  1  0  0  0
  9 14  1  0  0  0  0
 11 16  1  0  0  0  0
 12 13  1  6  0  0  0
 12 17  1  0  0  0  0
 14 15  1  1  0  0  0
 14 18  1  0  0  0  0
 15 31  1  0  0  0  0
 16 20  1  0  0  0  0
 17  2  1  1  0  0  0
 17 22  1  0  0  0  0
 18 19  1  6  0  0  0
 18 24  1  0  0  0  0
 18 30  1  0  0  0  0
 20 21  1  0  0  0  0
 20 26  1  1  0  0  0
 22 23  1  6  0  0  0
 22 28  1  0  0  0  0
 24 25  1  0  0  0  0
 26 27  1  0  0  0  0
 28 29  1  1  0  0  0
M  END
>  <CHROM.1>
-167.10278317,-161.50778277,-85.06875373,-160.51602283,-103.74602392,96.31049062
-0.73308531,13.85208882,38.52174697,-0.81511362,-0.55660377,3.08046857

>  <Name>
ligand

>  <RI>
0

>  <Rbt.Current_Directory>
/home/itssahil/PROJECTS/Mol_Feturizer/New_Systems/rnas/4GPY

>  <Rbt.Executable>
rbdock ($Id: //depot/dev/client3/rdock/2013.1/src/exe/rbdock.cxx#4 $)

>  <Rbt.Library>
libRbt.so (2013.1, Build901 2013/11/27)

>  <Rbt.Parameter_File>
/export/apps/rDock/src/rDock_2013.1_src/data/scripts/dock_solv.prm

>  <Rbt.Receptor>
prm/pocket_docking_2.prm

>  <SCORE>
-17.7507

>  <SCORE.INTER>
-16.4609

>  <SCORE.INTER.CONST>
1

>  <SCORE.INTER.POLAR>
0

>  <SCORE.INTER.ROT>
6

>  <SCORE.INTER.SOLV>
20.2936

>  <SCORE.INTER.VDW>
-25.3385

>  <SCORE.INTER.norm>
-0.530998

>  <SCORE.INTRA>
-1.28972

>  <SCORE.INTRA.DIHEDRAL>
-3.41175

>  <SCORE.INTRA.DIHEDRAL.0>
14.7001

>  <SCORE.INTRA.POLAR>
0

>  <SCORE.INTRA.POLAR.0>
0

>  <SCORE.INTRA.REPUL>
0.00145396

>  <SCORE.INTRA.REPUL.0>
0

>  <SCORE.INTRA.SOLV>
-0.113029

>  <SCORE.INTRA.SOLV.lig_0>
-65.3082

>  <SCORE.INTRA.VDW>
0.465398

>  <SCORE.INTRA.VDW.0>
-4.21408

>  <SCORE.INTRA.norm>
-0.0416039

>  <SCORE.RESTR>
0

>  <SCORE.RESTR.CAVITY>
0

>  <SCORE.RESTR.norm>
0

>  <SCORE.SYSTEM>
0

>  <SCORE.SYSTEM.CONST>
0

>  <SCORE.SYSTEM.DIHEDRAL>
0

>  <SCORE.SYSTEM.SOLV>
0

>  <SCORE.SYSTEM.norm>
0

>  <SCORE.heavy>
31

>  <SCORE.norm>
-0.572602

>  <RMSD>
0.408

$$$$
ligand
 OpenBabel11021811493D
libRbt.so/2013.1/901 2013/11/27
 31 33  0  0  0  0  0  0  0  0999 V2000
    1.9843   15.0399   36.8915 C   0  0  2  0  0  0  0  0  0  0  0  0
    1.3949   15.7035   37.9931 O   0  0  0  0  0  0  0  0  0  0  0  0
   -2.3276   15.4975   40.0328 C   0  0  2  0  0  0  0  0  0  0  0  0
   -3.7338   15.5196   40.2543 N   0  0  0  0  0  0  0  0  0  0  0  0
   -3.6429   12.4415   39.3287 C   0  0  2  0  0  0  0  0  0  0  0  0
    3.5504   14.9473   37.1501 C   0  0  2  0  0  0  0  0  0  0  0  0
    3.7874   14.2417   38.4050 N   0  0  0  0  0  0  0  0  0  0  0  0
   -1.9000   16.8987   39.4056 C   0  0  0  0  0  0  0  0  0  0  0  0
   -3.8309   11.4291   40.5081 C   0  0  2  0  0  0  0  0  0  0  0  0
   -3.7638   12.1375   41.7275 O   0  0  0  0  0  0  0  0  0  0  0  0
    4.1921   16.3831   37.1768 C   0  0  0  0  0  0  0  0  0  0  0  0
   -0.3335   16.8797   39.1746 C   0  0  2  0  0  0  0  0  0  0  0  0
    0.0789   18.1638   38.6064 N   0  0  0  0  0  0  0  0  0  0  0  0
   -2.6916   10.3490   40.4248 C   0  0  1  0  0  0  0  0  0  0  0  0
   -2.8382    9.3741   41.5528 N   0  0  0  0  0  0  0  0  0  0  0  0
    3.5619   17.3304   36.0716 C   0  0  0  0  0  0  0  0  0  0  0  0
    0.0239   15.7048   38.1751 C   0  0  2  0  0  0  0  0  0  0  0  0
   -2.8210    9.5581   39.0086 C   0  0  1  0  0  0  0  0  0  0  0  0
   -4.0582    8.8911   38.8545 O   0  0  0  0  0  0  0  0  0  0  0  0
    2.4293   16.9840   35.4131 C   0  0  1  0  0  0  0  0  0  0  0  0
    1.7267   15.7672   35.6496 O   0  0  0  0  0  0  0  0  0  0  0  0
   -0.4272   14.3181   38.7973 C   0  0  2  0  0  0  0  0  0  0  0  0
   -0.1112   13.2559   37.8742 O   0  0  0  0  0  0  0  0  0  0  0  0
   -2.6732   10.5772   37.8394 C   0  0  0  0  0  0  0  0  0  0  0  0
   -3.6803   11.7026   38.0019 O   0  0  0  0  0  0  0  0  0  0  0  0
    1.7939   17.8604   34.3602 C   0  0  0  0  0  0  0  0  0  0  0  0
    0.7018   18.5516   35.0040 O   0  0  0  0  0  0  0  0  0  0  0  0
   -1.9857   14.3421   39.0332 C   0  0  1  0  0  0  0  0  0  0  0  0
   -2.3605   13.1065   39.5898 O   0  0  0  0  0  0  0  0  0  0  0  0
   -1.7602    8.4725   38.7852 C   0  0  0  0  0  0  0  0  0  0  0  0
   -2.2206    9.7629   42.8376 C   0  0  0  0  0  0  0  0  0  0  0  0
  1  2  1  1  0  0  0
  1  6  1  0  0  0  0
  1 21  1  0  0  0  0
  3  4  1  6  0  0  0
  3  8  1  0  0  0  0
  3 28  1  0  0  0  0
  5  9  1  0  0  0  0
  5 25  1  0  0  0  0
  5 29  1  1  0  0  0
  6  7  1  1  0  0  0
  6 11  1  0  0  0  0
  8 12  1  0  0  0  0
  9 10  1  1  0  0  0
  9 14  1  0  0  0  0
 11 16  1  0  0  0  0
 12 13  1  6  0  0  0
 12 17  1  0  0  0  0
 14 15  1  1  0  0  0
 14 18  1  0  0  0  0
 15 31  1  0  0  0  0
 16 20  1  0  0  0  0
 17  2  1  1  0  0  0
 17 22  1  0  0  0  0
 18 19  1  6  0  0  0
 18 24  1  0  0  0  0
 18 30  1  0  0  0  0
 20 21  1  0  0  0  0
 20 26  1  1  0  0  0
 22 23  1  6  0  0  0
 22 28  1  0  0  0  0
 24 25  1  0  0  0  0
 26 27  1  0  0  0  0
 28 29  1  1  0  0  0
M  END
>  <CHROM.1>
-167.41522439,-159.99062425,-85.05857153,-161.94434032,-99.90035571,94.99822965
-0.72515858,13.88629448,38.50358629,-0.81538969,-0.55734747,3.08174808

>  <Name>
ligand

>  <RI>
0

>  <Rbt.Current_Directory>
/home/itssahil/PROJECTS/Mol_Feturizer/New_Systems/rnas/4GPY

>  <Rbt.Executable>
rbdock ($Id: //depot/dev/client3/rdock/2013.1/src/exe/rbdock.cxx#4 $)

>  <Rbt.Library>
libRbt.so (2013.1, Build901 2013/11/27)

>  <Rbt.Parameter_File>
/export/apps/rDock/src/rDock_2013.1_src/data/scripts/dock_solv.prm

>  <Rbt.Receptor>
prm/pocket_docking_2.prm

>  <SCORE>
-17.7625

>  <SCORE.INTER>
-16.434

>  <SCORE.INTER.CONST>
1

>  <SCORE.INTER.POLAR>
0

>  <SCORE.INTER.ROT>
6

>  <SCORE.INTER.SOLV>
20.4587

>  <SCORE.INTER.VDW>
-25.3755

>  <SCORE.INTER.norm>
-0.530128

>  <SCORE.INTRA>
-1.32855

>  <SCORE.INTRA.DIHEDRAL>
-3.50934

>  <SCORE.INTRA.DIHEDRAL.0>
14.7001

>  <SCORE.INTRA.POLAR>
0

>  <SCORE.INTRA.POLAR.0>
0

>  <SCORE.INTRA.REPUL>
0.00134987

>  <SCORE.INTRA.REPUL.0>
0

>  <SCORE.INTRA.SOLV>
-0.226707

>  <SCORE.INTRA.SOLV.lig_0>
-65.3082

>  <SCORE.INTRA.VDW>
0.532721

>  <SCORE.INTRA.VDW.0>
-4.21408

>  <SCORE.INTRA.norm>
-0.0428565

>  <SCORE.RESTR>
0

>  <SCORE.RESTR.CAVITY>
0

>  <SCORE.RESTR.norm>
0

>  <SCORE.SYSTEM>
0

>  <SCORE.SYSTEM.CONST>
0

>  <SCORE.SYSTEM.DIHEDRAL>
0

>  <SCORE.SYSTEM.SOLV>
0

>  <SCORE.SYSTEM.norm>
0

>  <SCORE.heavy>
31

>  <SCORE.norm>
-0.572984

>  <RMSD>
0.414

$$$$
ligand
 OpenBabel11021811493D
libRbt.so/2013.1/901 2013/11/27
 31 33  0  0  0  0  0  0  0  0999 V2000
    1.9783   15.0079   36.9024 C   0  0  2  0  0  0  0  0  0  0  0  0
    1.3944   15.6422   38.0241 O   0  0  0  0  0  0  0  0  0  0  0  0
   -2.3305   15.4849   40.0637 C   0  0  2  0  0  0  0  0  0  0  0  0
   -3.7368   15.5162   40.2835 N   0  0  0  0  0  0  0  0  0  0  0  0
   -3.6531   12.4178   39.4023 C   0  0  2  0  0  0  0  0  0  0  0  0
    3.5460   14.9109   37.1495 C   0  0  2  0  0  0  0  0  0  0  0  0
    3.7911   14.1738   38.3845 N   0  0  0  0  0  0  0  0  0  0  0  0
   -1.8970   16.8737   39.4133 C   0  0  0  0  0  0  0  0  0  0  0  0
   -3.8218   11.3846   40.5665 C   0  0  2  0  0  0  0  0  0  0  0  0
   -3.7462   12.0729   41.7968 O   0  0  0  0  0  0  0  0  0  0  0  0
    4.1860   16.3465   37.2093 C   0  0  0  0  0  0  0  0  0  0  0  0
   -0.3304   16.8448   39.1841 C   0  0  2  0  0  0  0  0  0  0  0  0
    0.0874   18.1175   38.5948 N   0  0  0  0  0  0  0  0  0  0  0  0
   -2.6764   10.3137   40.4528 C   0  0  1  0  0  0  0  0  0  0  0  0
   -2.8045    9.3191   41.5658 N   0  0  0  0  0  0  0  0  0  0  0  0
    3.5482   17.3209   36.1324 C   0  0  0  0  0  0  0  0  0  0  0  0
    0.0233   15.6519   38.2048 C   0  0  2  0  0  0  0  0  0  0  0  0
   -2.8159    9.5457   39.0250 C   0  0  1  0  0  0  0  0  0  0  0  0
   -4.0503    8.8731   38.8729 O   0  0  0  0  0  0  0  0  0  0  0  0
    2.4122   16.9899   35.4717 C   0  0  1  0  0  0  0  0  0  0  0  0
    1.7125   15.7664   35.6811 O   0  0  0  0  0  0  0  0  0  0  0  0
   -0.4338   14.2775   38.8498 C   0  0  2  0  0  0  0  0  0  0  0  0
   -0.1211   13.1988   37.9449 O   0  0  0  0  0  0  0  0  0  0  0  0
   -2.6874   10.5853   37.8716 C   0  0  0  0  0  0  0  0  0  0  0  0
   -3.7000   11.7010   38.0638 O   0  0  0  0  0  0  0  0  0  0  0  0
    1.7696   17.8920   34.4454 C   0  0  0  0  0  0  0  0  0  0  0  0
    0.6749   18.5584   35.1105 O   0  0  0  0  0  0  0  0  0  0  0  0
   -1.9923   14.3115   39.0839 C   0  0  1  0  0  0  0  0  0  0  0  0
   -2.3724   13.0870   39.6609 O   0  0  0  0  0  0  0  0  0  0  0  0
   -1.7504    8.4712   38.7721 C   0  0  0  0  0  0  0  0  0  0  0  0
   -2.1761    9.6907   42.8505 C   0  0  0  0  0  0  0  0  0  0  0  0
  1  2  1  1  0  0  0
  1  6  1  0  0  0  0
  1 21  1  0  0  0  0
  3  4  1  6  0  0  0
  3  8  1  0  0  0  0
  3 28  1  0  0  0  0
  5  9  1  0  0  0  0
  5 25  1  0  0  0  0
  5 29  1  1  0  0  0
  6  7  1  1  0  0  0
  6 11  1  0  0  0  0
  8 12  1  0  0  0  0
  9 10  1  1  0  0  0
  9 14  1  0  0  0  0
 11 16  1  0  0  0  0
 12 13  1  6  0  0  0
 12 17  1  0  0  0  0
 14 15  1  1  0  0  0
 14 18  1  0  0  0  0
 15 31  1  0  0  0  0
 16 20  1  0  0  0  0
 17  2  1  1  0  0  0
 17 22  1  0  0  0  0
 18 19  1  6  0  0  0
 18 24  1  0  0  0  0
 18 30  1  0  0  0  0
 20 21  1  0  0  0  0
 20 26  1  1  0  0  0
 22 23  1  6  0  0  0
 22 28  1  0  0  0  0
 24 25  1  0  0  0  0
 26 27  1  0  0  0  0
 28 29  1  1  0  0  0
M  END
>  <CHROM.1>
-168.26562292,-162.33684290,-85.03230574,-159.13590037,-100.26622402,95.46021161
-0.72644937,13.85907172,38.53998871,-0.82503150,-0.54688139,3.06951093

>  <Name>
ligand

>  <RI>
0

>  <Rbt.Current_Directory>
/home/itssahil/PROJECTS/Mol_Feturizer/New_Systems/rnas/4GPY

>  <Rbt.Executable>
rbdock ($Id: //depot/dev/client3/rdock/2013.1/src/exe/rbdock.cxx#4 $)

>  <Rbt.Library>
libRbt.so (2013.1, Build901 2013/11/27)

>  <Rbt.Parameter_File>
/export/apps/rDock/src/rDock_2013.1_src/data/scripts/dock_solv.prm

>  <Rbt.Receptor>
prm/pocket_docking_5.prm

>  <SCORE>
-17.7646

>  <SCORE.INTER>
-16.4856

>  <SCORE.INTER.CONST>
1

>  <SCORE.INTER.POLAR>
0

>  <SCORE.INTER.ROT>
6

>  <SCORE.INTER.SOLV>
20.1123

>  <SCORE.INTER.VDW>
-25.2945

>  <SCORE.INTER.norm>
-0.531794

>  <SCORE.INTRA>
-1.27898

>  <SCORE.INTRA.DIHEDRAL>
-3.45603

>  <SCORE.INTRA.DIHEDRAL.0>
14.7001

>  <SCORE.INTRA.POLAR>
0

>  <SCORE.INTRA.POLAR.0>
0

>  <SCORE.INTRA.REPUL>
0.00454985

>  <SCORE.INTRA.REPUL.0>
0

>  <SCORE.INTRA.SOLV>
-0.0164942

>  <SCORE.INTRA.SOLV.lig_0>
-65.3082

>  <SCORE.INTRA.VDW>
0.434531

>  <SCORE.INTRA.VDW.0>
-4.21408

>  <SCORE.INTRA.norm>
-0.0412574

>  <SCORE.RESTR>
0

>  <SCORE.RESTR.CAVITY>
0

>  <SCORE.RESTR.norm>
0

>  <SCORE.SYSTEM>
0

>  <SCORE.SYSTEM.CONST>
0

>  <SCORE.SYSTEM.DIHEDRAL>
0

>  <SCORE.SYSTEM.SOLV>
0

>  <SCORE.SYSTEM.norm>
0

>  <SCORE.heavy>
31

>  <SCORE.norm>
-0.573052

>  <RMSD>
0.414

$$$$
ligand
 OpenBabel11021811493D
libRbt.so/2013.1/901 2013/11/27
 31 33  0  0  0  0  0  0  0  0999 V2000
    1.8729   14.9269   36.9220 C   0  0  2  0  0  0  0  0  0  0  0  0
    1.3115   15.5849   38.0414 O   0  0  0  0  0  0  0  0  0  0  0  0
   -2.3904   15.4769   40.1258 C   0  0  2  0  0  0  0  0  0  0  0  0
   -3.7932   15.5292   40.3630 N   0  0  0  0  0  0  0  0  0  0  0  0
   -3.7328   12.3918   39.4036 C   0  0  2  0  0  0  0  0  0  0  0  0
    3.4359   14.7742   37.1706 C   0  0  2  0  0  0  0  0  0  0  0  0
    3.6535   14.0321   38.4078 N   0  0  0  0  0  0  0  0  0  0  0  0
   -1.9431   16.8616   39.4760 C   0  0  0  0  0  0  0  0  0  0  0  0
   -3.9196   11.3395   40.5477 C   0  0  2  0  0  0  0  0  0  0  0  0
   -3.8983   12.0119   41.7889 O   0  0  0  0  0  0  0  0  0  0  0  0
    4.1272   16.1859   37.2270 C   0  0  0  0  0  0  0  0  0  0  0  0
   -0.3800   16.8092   39.2275 C   0  0  2  0  0  0  0  0  0  0  0  0
    0.0505   18.0778   38.6384 N   0  0  0  0  0  0  0  0  0  0  0  0
   -2.7504   10.2924   40.4582 C   0  0  1  0  0  0  0  0  0  0  0  0
   -2.8957    9.2801   41.5530 N   0  0  0  0  0  0  0  0  0  0  0  0
    3.5256   17.1797   36.1469 C   0  0  0  0  0  0  0  0  0  0  0  0
   -0.0570   15.6152   38.2390 C   0  0  2  0  0  0  0  0  0  0  0  0
   -2.8275    9.5418   39.0164 C   0  0  1  0  0  0  0  0  0  0  0  0
   -4.0428    8.8479   38.8143 O   0  0  0  0  0  0  0  0  0  0  0  0
    2.3789   16.8879   35.4862 C   0  0  1  0  0  0  0  0  0  0  0  0
    1.6355   15.6911   35.6984 O   0  0  0  0  0  0  0  0  0  0  0  0
   -0.5277   14.2454   38.8838 C   0  0  2  0  0  0  0  0  0  0  0  0
   -0.2430   13.1658   37.9707 O   0  0  0  0  0  0  0  0  0  0  0  0
   -2.6813   10.5996   37.8818 C   0  0  0  0  0  0  0  0  0  0  0  0
   -3.7214   11.6930   38.0549 O   0  0  0  0  0  0  0  0  0  0  0  0
    1.7699   17.8098   34.4569 C   0  0  0  0  0  0  0  0  0  0  0  0
    0.6404   18.4470   35.0916 O   0  0  0  0  0  0  0  0  0  0  0  0
   -2.0825   14.3027   39.1371 C   0  0  1  0  0  0  0  0  0  0  0  0
   -2.4747   13.0817   39.7136 O   0  0  0  0  0  0  0  0  0  0  0  0
   -1.7335    8.4914   38.7849 C   0  0  0  0  0  0  0  0  0  0  0  0
   -2.3667    9.6683   42.8769 C   0  0  0  0  0  0  0  0  0  0  0  0
  1  2  1  1  0  0  0
  1  6  1  0  0  0  0
  1 21  1  0  0  0  0
  3  4  1  6  0  0  0
  3  8  1  0  0  0  0
  3 28  1  0  0  0  0
  5  9  1  0  0  0  0
  5 25  1  0  0  0  0
  5 29  1  1  0  0  0
  6  7  1  1  0  0  0
  6 11  1  0  0  0  0
  8 12  1  0  0  0  0
  9 10  1  1  0  0  0
  9 14  1  0  0  0  0
 11 16  1  0  0  0  0
 12 13  1  6  0  0  0
 12 17  1  0  0  0  0
 14 15  1  1  0  0  0
 14 18  1  0  0  0  0
 15 31  1  0  0  0  0
 16 20  1  0  0  0  0
 17  2  1  1  0  0  0
 17 22  1  0  0  0  0
 18 19  1  6  0  0  0
 18 24  1  0  0  0  0
 18 30  1  0  0  0  0
 20 21  1  0  0  0  0
 20 26  1  1  0  0  0
 22 23  1  6  0  0  0
 22 28  1  0  0  0  0
 24 25  1  0  0  0  0
 26 27  1  0  0  0  0
 28 29  1  1  0  0  0
M  END
>  <CHROM.1>
-166.60371691,-164.22315319,-82.61515789,-160.22152717,-104.23031576,99.45757383
-0.79402228,13.81058453,38.55776543,-0.80650003,-0.56646209,3.09016224

>  <Name>
ligand

>  <RI>
0

>  <Rbt.Current_Directory>
/home/itssahil/PROJECTS/Mol_Feturizer/New_Systems/rnas/4GPY

>  <Rbt.Executable>
rbdock ($Id: //depot/dev/client3/rdock/2013.1/src/exe/rbdock.cxx#4 $)

>  <Rbt.Library>
libRbt.so (2013.1, Build901 2013/11/27)

>  <Rbt.Parameter_File>
/export/apps/rDock/src/rDock_2013.1_src/data/scripts/dock_solv.prm

>  <Rbt.Receptor>
prm/pocket_docking_2.prm

>  <SCORE>
-17.537

>  <SCORE.INTER>
-16.3528

>  <SCORE.INTER.CONST>
1

>  <SCORE.INTER.POLAR>
0

>  <SCORE.INTER.ROT>
6

>  <SCORE.INTER.SOLV>
20.3308

>  <SCORE.INTER.VDW>
-25.2788

>  <SCORE.INTER.norm>
-0.527508

>  <SCORE.INTRA>
-1.18423

>  <SCORE.INTRA.DIHEDRAL>
-3.25366

>  <SCORE.INTRA.DIHEDRAL.0>
14.7001

>  <SCORE.INTRA.POLAR>
0

>  <SCORE.INTRA.POLAR.0>
0

>  <SCORE.INTRA.REPUL>
0.00214355

>  <SCORE.INTRA.REPUL.0>
0

>  <SCORE.INTRA.SOLV>
-0.151895

>  <SCORE.INTRA.SOLV.lig_0>
-65.3082

>  <SCORE.INTRA.VDW>
0.507832

>  <SCORE.INTRA.VDW.0>
-4.21408

>  <SCORE.INTRA.norm>
-0.0382008

>  <SCORE.RESTR>
0

>  <SCORE.RESTR.CAVITY>
0

>  <SCORE.RESTR.norm>
0

>  <SCORE.SYSTEM>
0

>  <SCORE.SYSTEM.CONST>
0

>  <SCORE.SYSTEM.DIHEDRAL>
0

>  <SCORE.SYSTEM.SOLV>
0

>  <SCORE.SYSTEM.norm>
0

>  <SCORE.heavy>
31

>  <SCORE.norm>
-0.565709

>  <RMSD>
0.415

$$$$
ligand
 OpenBabel11021811493D
libRbt.so/2013.1/901 2013/11/27
 31 33  0  0  0  0  0  0  0  0999 V2000
    1.9887   15.0355   36.8951 C   0  0  2  0  0  0  0  0  0  0  0  0
    1.4029   15.6865   38.0061 O   0  0  0  0  0  0  0  0  0  0  0  0
   -2.3162   15.4918   40.0530 C   0  0  2  0  0  0  0  0  0  0  0  0
   -3.7220   15.5156   40.2768 N   0  0  0  0  0  0  0  0  0  0  0  0
   -3.6343   12.4334   39.3665 C   0  0  2  0  0  0  0  0  0  0  0  0
    3.5554   14.9386   37.1482 C   0  0  2  0  0  0  0  0  0  0  0  0
    3.7954   14.2182   38.3940 N   0  0  0  0  0  0  0  0  0  0  0  0
   -1.8891   16.8898   39.4183 C   0  0  0  0  0  0  0  0  0  0  0  0
   -3.8037   11.4019   40.5321 C   0  0  2  0  0  0  0  0  0  0  0  0
   -3.7230   12.0911   41.7616 O   0  0  0  0  0  0  0  0  0  0  0  0
    4.1984   16.3735   37.1898 C   0  0  0  0  0  0  0  0  0  0  0  0
   -0.3230   16.8691   39.1848 C   0  0  2  0  0  0  0  0  0  0  0  0
    0.0889   18.1503   38.6098 N   0  0  0  0  0  0  0  0  0  0  0  0
   -2.6620   10.3273   40.4169 C   0  0  1  0  0  0  0  0  0  0  0  0
   -2.7907    9.3341   41.5311 N   0  0  0  0  0  0  0  0  0  0  0  0
    3.5658   17.3342   36.0976 C   0  0  0  0  0  0  0  0  0  0  0  0
    0.0323   15.6893   38.1904 C   0  0  2  0  0  0  0  0  0  0  0  0
   -2.8072    9.5583   38.9901 C   0  0  1  0  0  0  0  0  0  0  0  0
   -4.0441    8.8896   38.8415 O   0  0  0  0  0  0  0  0  0  0  0  0
    2.4310   16.9963   35.4382 C   0  0  1  0  0  0  0  0  0  0  0  0
    1.7281   15.7774   35.6625 O   0  0  0  0  0  0  0  0  0  0  0  0
   -0.4184   14.3057   38.8200 C   0  0  2  0  0  0  0  0  0  0  0  0
   -0.1043   13.2390   37.9014 O   0  0  0  0  0  0  0  0  0  0  0  0
   -2.6779   10.5963   37.8354 C   0  0  0  0  0  0  0  0  0  0  0  0
   -3.6865   11.7155   38.0288 O   0  0  0  0  0  0  0  0  0  0  0  0
    1.7933   17.8855   34.3975 C   0  0  0  0  0  0  0  0  0  0  0  0
    0.6537   18.5073   35.0295 O   0  0  0  0  0  0  0  0  0  0  0  0
   -1.9764   14.3315   39.0583 C   0  0  1  0  0  0  0  0  0  0  0  0
   -2.3508   13.0988   39.6215 O   0  0  0  0  0  0  0  0  0  0  0  0
   -1.7458    8.4801   38.7359 C   0  0  0  0  0  0  0  0  0  0  0  0
   -2.1433    9.6972   42.8088 C   0  0  0  0  0  0  0  0  0  0  0  0
  1  2  1  1  0  0  0
  1  6  1  0  0  0  0
  1 21  1  0  0  0  0
  3  4  1  6  0  0  0
  3  8  1  0  0  0  0
  3 28  1  0  0  0  0
  5  9  1  0  0  0  0
  5 25  1  0  0  0  0
  5 29  1  1  0  0  0
  6  7  1  1  0  0  0
  6 11  1  0  0  0  0
  8 12  1  0  0  0  0
  9 10  1  1  0  0  0
  9 14  1  0  0  0  0
 11 16  1  0  0  0  0
 12 13  1  6  0  0  0
 12 17  1  0  0  0  0
 14 15  1  1  0  0  0
 14 18  1  0  0  0  0
 15 31  1  0  0  0  0
 16 20  1  0  0  0  0
 17  2  1  1  0  0  0
 17 22  1  0  0  0  0
 18 19  1  6  0  0  0
 18 24  1  0  0  0  0
 18 30  1  0  0  0  0
 20 21  1  0  0  0  0
 20 26  1  1  0  0  0
 22 23  1  6  0  0  0
 22 28  1  0  0  0  0
 24 25  1  0  0  0  0
 26 27  1  0  0  0  0
 28 29  1  1  0  0  0
M  END
>  <CHROM.1>
-167.55923163,-161.32749042,-85.79432602,-160.93217001,-103.34786224,94.95253631
-0.71399976,13.87531823,38.51381008,-0.82079072,-0.55348825,3.07815078

>  <Name>
ligand

>  <RI>
0

>  <Rbt.Current_Directory>
/home/itssahil/PROJECTS/Mol_Feturizer/New_Systems/rnas/4GPY

>  <Rbt.Executable>
rbdock ($Id: //depot/dev/client3/rdock/2013.1/src/exe/rbdock.cxx#4 $)

>  <Rbt.Library>
libRbt.so (2013.1, Build901 2013/11/27)

>  <Rbt.Parameter_File>
/export/apps/rDock/src/rDock_2013.1_src/data/scripts/dock_solv.prm

>  <Rbt.Receptor>
prm/pocket_docking_2.prm

>  <SCORE>
-17.7834

>  <SCORE.INTER>
-16.3182

>  <SCORE.INTER.CONST>
1

>  <SCORE.INTER.POLAR>
0

>  <SCORE.INTER.ROT>
6

>  <SCORE.INTER.SOLV>
20.3325

>  <SCORE.INTER.VDW>
-25.2563

>  <SCORE.INTER.norm>
-0.526392

>  <SCORE.INTRA>
-1.46526

>  <SCORE.INTRA.DIHEDRAL>
-3.71003

>  <SCORE.INTRA.DIHEDRAL.0>
14.7001

>  <SCORE.INTRA.POLAR>
0

>  <SCORE.INTRA.POLAR.0>
0

>  <SCORE.INTRA.REPUL>
0.000764907

>  <SCORE.INTRA.REPUL.0>
0

>  <SCORE.INTRA.SOLV>
-0.160073

>  <SCORE.INTRA.SOLV.lig_0>
-65.3082

>  <SCORE.INTRA.VDW>
0.465969

>  <SCORE.INTRA.VDW.0>
-4.21408

>  <SCORE.INTRA.norm>
-0.0472663

>  <SCORE.RESTR>
0

>  <SCORE.RESTR.CAVITY>
0

>  <SCORE.RESTR.norm>
0

>  <SCORE.SYSTEM>
0

>  <SCORE.SYSTEM.CONST>
0

>  <SCORE.SYSTEM.DIHEDRAL>
0

>  <SCORE.SYSTEM.SOLV>
0

>  <SCORE.SYSTEM.norm>
0

>  <SCORE.heavy>
31

>  <SCORE.norm>
-0.573658

>  <RMSD>
0.415

$$$$
ligand
 OpenBabel11021811493D
libRbt.so/2013.1/901 2013/11/27
 31 33  0  0  0  0  0  0  0  0999 V2000
    1.9905   15.0154   36.8908 C   0  0  2  0  0  0  0  0  0  0  0  0
    1.4054   15.6625   38.0044 O   0  0  0  0  0  0  0  0  0  0  0  0
   -2.3175   15.4834   40.0459 C   0  0  2  0  0  0  0  0  0  0  0  0
   -3.7235   15.5116   40.2674 N   0  0  0  0  0  0  0  0  0  0  0  0
   -3.6411   12.4246   39.3616 C   0  0  2  0  0  0  0  0  0  0  0  0
    3.5602   14.9385   37.1318 C   0  0  2  0  0  0  0  0  0  0  0  0
    3.8187   14.2249   38.3779 N   0  0  0  0  0  0  0  0  0  0  0  0
   -1.8855   16.8786   39.4084 C   0  0  0  0  0  0  0  0  0  0  0  0
   -3.8200   11.4013   40.5330 C   0  0  2  0  0  0  0  0  0  0  0  0
   -3.7461   12.0988   41.7583 O   0  0  0  0  0  0  0  0  0  0  0  0
    4.1858   16.3813   37.1642 C   0  0  0  0  0  0  0  0  0  0  0  0
   -0.3191   16.8529   39.1774 C   0  0  2  0  0  0  0  0  0  0  0  0
    0.0973   18.1314   38.5997 N   0  0  0  0  0  0  0  0  0  0  0  0
   -2.6796   10.3239   40.4326 C   0  0  1  0  0  0  0  0  0  0  0  0
   -2.8175    9.3385   41.5526 N   0  0  0  0  0  0  0  0  0  0  0  0
    3.5329   17.3308   36.0742 C   0  0  0  0  0  0  0  0  0  0  0  0
    0.0344   15.6696   38.1865 C   0  0  2  0  0  0  0  0  0  0  0  0
   -2.8169    9.5456   39.0101 C   0  0  1  0  0  0  0  0  0  0  0  0
   -4.0541    8.8781   38.8579 O   0  0  0  0  0  0  0  0  0  0  0  0
    2.3973   16.9771   35.4247 C   0  0  1  0  0  0  0  0  0  0  0  0
    1.7112   15.7503   35.6581 O   0  0  0  0  0  0  0  0  0  0  0  0
   -0.4210   14.2889   38.8189 C   0  0  2  0  0  0  0  0  0  0  0  0
   -0.1084   13.2190   37.9036 O   0  0  0  0  0  0  0  0  0  0  0  0
   -2.6781   10.5755   37.8492 C   0  0  0  0  0  0  0  0  0  0  0  0
   -3.6858   11.6978   38.0285 O   0  0  0  0  0  0  0  0  0  0  0  0
    1.7406   17.8552   34.3864 C   0  0  0  0  0  0  0  0  0  0  0  0
    0.6485   18.5292   35.0481 O   0  0  0  0  0  0  0  0  0  0  0  0
   -1.9794   14.3196   39.0548 C   0  0  1  0  0  0  0  0  0  0  0  0
   -2.3580   13.0893   39.6205 O   0  0  0  0  0  0  0  0  0  0  0  0
   -1.7559    8.4637   38.7701 C   0  0  0  0  0  0  0  0  0  0  0  0
   -2.1756    9.7079   42.8313 C   0  0  0  0  0  0  0  0  0  0  0  0
  1  2  1  1  0  0  0
  1  6  1  0  0  0  0
  1 21  1  0  0  0  0
  3  4  1  6  0  0  0
  3  8  1  0  0  0  0
  3 28  1  0  0  0  0
  5  9  1  0  0  0  0
  5 25  1  0  0  0  0
  5 29  1  1  0  0  0
  6  7  1  1  0  0  0
  6 11  1  0  0  0  0
  8 12  1  0  0  0  0
  9 10  1  1  0  0  0
  9 14  1  0  0  0  0
 11 16  1  0  0  0  0
 12 13  1  6  0  0  0
 12 17  1  0  0  0  0
 14 15  1  1  0  0  0
 14 18  1  0  0  0  0
 15 31  1  0  0  0  0
 16 20  1  0  0  0  0
 17  2  1  1  0  0  0
 17 22  1  0  0  0  0
 18 19  1  6  0  0  0
 18 24  1  0  0  0  0
 18 30  1  0  0  0  0
 20 21  1  0  0  0  0
 20 26  1  1  0  0  0
 22 23  1  6  0  0  0
 22 28  1  0  0  0  0
 24 25  1  0  0  0  0
 26 27  1  0  0  0  0
 28 29  1  1  0  0  0
M  END
>  <CHROM.1>
-168.73359093,-161.11949805,-85.90784028,-160.46522189,-99.84535947,95.17145812
-0.72297648,13.86591076,38.51368357,-0.82085053,-0.55387189,3.07582430

>  <Name>
ligand

>  <RI>
0

>  <Rbt.Current_Directory>
/home/itssahil/PROJECTS/Mol_Feturizer/New_Systems/rnas/4GPY

>  <Rbt.Executable>
rbdock ($Id: //depot/dev/client3/rdock/2013.1/src/exe/rbdock.cxx#4 $)

>  <Rbt.Library>
libRbt.so (2013.1, Build901 2013/11/27)

>  <Rbt.Parameter_File>
/export/apps/rDock/src/rDock_2013.1_src/data/scripts/dock_solv.prm

>  <Rbt.Receptor>
prm/pocket_docking_6.prm

>  <SCORE>
-17.8296

>  <SCORE.INTER>
-16.4541

>  <SCORE.INTER.CONST>
1

>  <SCORE.INTER.POLAR>
0

>  <SCORE.INTER.ROT>
6

>  <SCORE.INTER.SOLV>
20.4003

>  <SCORE.INTER.VDW>
-25.3695

>  <SCORE.INTER.norm>
-0.530776

>  <SCORE.INTRA>
-1.37555

>  <SCORE.INTRA.DIHEDRAL>
-3.54384

>  <SCORE.INTRA.DIHEDRAL.0>
14.7001

>  <SCORE.INTRA.POLAR>
0

>  <SCORE.INTRA.POLAR.0>
0

>  <SCORE.INTRA.REPUL>
0.00184989

>  <SCORE.INTRA.REPUL.0>
0

>  <SCORE.INTRA.SOLV>
-0.125276

>  <SCORE.INTRA.SOLV.lig_0>
-65.3082

>  <SCORE.INTRA.VDW>
0.449759

>  <SCORE.INTRA.VDW.0>
-4.21408

>  <SCORE.INTRA.norm>
-0.0443726

>  <SCORE.RESTR>
0

>  <SCORE.RESTR.CAVITY>
0

>  <SCORE.RESTR.norm>
0

>  <SCORE.SYSTEM>
0

>  <SCORE.SYSTEM.CONST>
0

>  <SCORE.SYSTEM.DIHEDRAL>
0

>  <SCORE.SYSTEM.SOLV>
0

>  <SCORE.SYSTEM.norm>
0

>  <SCORE.heavy>
31

>  <SCORE.norm>
-0.575149

>  <RMSD>
0.416

$$$$
ligand
 OpenBabel11021811493D
libRbt.so/2013.1/901 2013/11/27
 31 33  0  0  0  0  0  0  0  0999 V2000
    1.9838   15.0012   36.8625 C   0  0  2  0  0  0  0  0  0  0  0  0
    1.4083   15.6363   37.9881 O   0  0  0  0  0  0  0  0  0  0  0  0
   -2.3105   15.4901   40.0396 C   0  0  2  0  0  0  0  0  0  0  0  0
   -3.7157   15.5302   40.2648 N   0  0  0  0  0  0  0  0  0  0  0  0
   -3.6544   12.4335   39.3483 C   0  0  2  0  0  0  0  0  0  0  0  0
    3.5522   14.8970   37.1017 C   0  0  2  0  0  0  0  0  0  0  0  0
    3.8003   14.1568   38.3342 N   0  0  0  0  0  0  0  0  0  0  0  0
   -1.8686   16.8810   39.3997 C   0  0  0  0  0  0  0  0  0  0  0  0
   -3.8472   11.4159   40.5224 C   0  0  2  0  0  0  0  0  0  0  0  0
   -3.7833   12.1187   41.7453 O   0  0  0  0  0  0  0  0  0  0  0  0
    4.1989   16.3296   37.1604 C   0  0  0  0  0  0  0  0  0  0  0  0
   -0.3031   16.8420   39.1646 C   0  0  2  0  0  0  0  0  0  0  0  0
    0.1224   18.1166   38.5846 N   0  0  0  0  0  0  0  0  0  0  0  0
   -2.7087   10.3351   40.4378 C   0  0  1  0  0  0  0  0  0  0  0  0
   -2.8600    9.3552   41.5609 N   0  0  0  0  0  0  0  0  0  0  0  0
    3.5599   17.3085   36.0883 C   0  0  0  0  0  0  0  0  0  0  0  0
    0.0380   15.6549   38.1738 C   0  0  2  0  0  0  0  0  0  0  0  0
   -2.8344    9.5508   39.0176 C   0  0  1  0  0  0  0  0  0  0  0  0
   -4.0718    8.8858   38.8565 O   0  0  0  0  0  0  0  0  0  0  0  0
    2.4192   16.9835   35.4328 C   0  0  1  0  0  0  0  0  0  0  0  0
    1.7152   15.7628   35.6437 O   0  0  0  0  0  0  0  0  0  0  0  0
   -0.4273   14.2787   38.8087 C   0  0  2  0  0  0  0  0  0  0  0  0
   -0.1261   13.2053   37.8935 O   0  0  0  0  0  0  0  0  0  0  0  0
   -2.6819   10.5751   37.8535 C   0  0  0  0  0  0  0  0  0  0  0  0
   -3.6883   11.7008   38.0180 O   0  0  0  0  0  0  0  0  0  0  0  0
    1.7754   17.8901   34.4110 C   0  0  0  0  0  0  0  0  0  0  0  0
    0.6417   18.5038   35.0613 O   0  0  0  0  0  0  0  0  0  0  0  0
   -1.9847   14.3226   39.0487 C   0  0  1  0  0  0  0  0  0  0  0  0
   -2.3722   13.0960   39.6165 O   0  0  0  0  0  0  0  0  0  0  0  0
   -1.7740    8.4651   38.7926 C   0  0  0  0  0  0  0  0  0  0  0  0
   -2.2217    9.7244   42.8414 C   0  0  0  0  0  0  0  0  0  0  0  0
  1  2  1  1  0  0  0
  1  6  1  0  0  0  0
  1 21  1  0  0  0  0
  3  4  1  6  0  0  0
  3  8  1  0  0  0  0
  3 28  1  0  0  0  0
  5  9  1  0  0  0  0
  5 25  1  0  0  0  0
  5 29  1  1  0  0  0
  6  7  1  1  0  0  0
  6 11  1  0  0  0  0
  8 12  1  0  0  0  0
  9 10  1  1  0  0  0
  9 14  1  0  0  0  0
 11 16  1  0  0  0  0
 12 13  1  6  0  0  0
 12 17  1  0  0  0  0
 14 15  1  1  0  0  0
 14 18  1  0  0  0  0
 15 31  1  0  0  0  0
 16 20  1  0  0  0  0
 17  2  1  1  0  0  0
 17 22  1  0  0  0  0
 18 19  1  6  0  0  0
 18 24  1  0  0  0  0
 18 30  1  0  0  0  0
 20 21  1  0  0  0  0
 20 26  1  1  0  0  0
 22 23  1  6  0  0  0
 22 28  1  0  0  0  0
 24 25  1  0  0  0  0
 26 27  1  0  0  0  0
 28 29  1  1  0  0  0
M  END
>  <CHROM.1>
-168.44541904,-161.13770302,-86.30254806,-159.46720574,-103.38987738,95.98292126
-0.72837191,13.86219874,38.50875836,-0.81600544,-0.55279635,3.07619110

>  <Name>
ligand

>  <RI>
0

>  <Rbt.Current_Directory>
/home/itssahil/PROJECTS/Mol_Feturizer/New_Systems/rnas/4GPY

>  <Rbt.Executable>
rbdock ($Id: //depot/dev/client3/rdock/2013.1/src/exe/rbdock.cxx#4 $)

>  <Rbt.Library>
libRbt.so (2013.1, Build901 2013/11/27)

>  <Rbt.Parameter_File>
/export/apps/rDock/src/rDock_2013.1_src/data/scripts/dock_solv.prm

>  <Rbt.Receptor>
prm/pocket_docking_2.prm

>  <SCORE>
-17.7928

>  <SCORE.INTER>
-16.5143

>  <SCORE.INTER.CONST>
1

>  <SCORE.INTER.POLAR>
0

>  <SCORE.INTER.ROT>
6

>  <SCORE.INTER.SOLV>
20.4103

>  <SCORE.INTER.VDW>
-25.413

>  <SCORE.INTER.norm>
-0.532718

>  <SCORE.INTRA>
-1.27853

>  <SCORE.INTRA.DIHEDRAL>
-3.34096

>  <SCORE.INTRA.DIHEDRAL.0>
14.7001

>  <SCORE.INTRA.POLAR>
0

>  <SCORE.INTRA.POLAR.0>
0

>  <SCORE.INTRA.REPUL>
0.0013828

>  <SCORE.INTRA.REPUL.0>
0

>  <SCORE.INTRA.SOLV>
-0.0104301

>  <SCORE.INTRA.SOLV.lig_0>
-65.3082

>  <SCORE.INTRA.VDW>
0.390249

>  <SCORE.INTRA.VDW.0>
-4.21408

>  <SCORE.INTRA.norm>
-0.041243

>  <SCORE.RESTR>
0

>  <SCORE.RESTR.CAVITY>
0

>  <SCORE.RESTR.norm>
0

>  <SCORE.SYSTEM>
0

>  <SCORE.SYSTEM.CONST>
0

>  <SCORE.SYSTEM.DIHEDRAL>
0

>  <SCORE.SYSTEM.SOLV>
0

>  <SCORE.SYSTEM.norm>
0

>  <SCORE.heavy>
31

>  <SCORE.norm>
-0.573961

>  <RMSD>
0.417

$$$$
ligand
 OpenBabel11021811493D
libRbt.so/2013.1/901 2013/11/27
 31 33  0  0  0  0  0  0  0  0999 V2000
    1.9976   15.0306   36.8778 C   0  0  2  0  0  0  0  0  0  0  0  0
    1.4078   15.6579   38.0002 O   0  0  0  0  0  0  0  0  0  0  0  0
   -2.3242   15.4975   40.0268 C   0  0  2  0  0  0  0  0  0  0  0  0
   -3.7314   15.5243   40.2412 N   0  0  0  0  0  0  0  0  0  0  0  0
   -3.6386   12.4293   39.3914 C   0  0  2  0  0  0  0  0  0  0  0  0
    3.5637   14.9301   37.1336 C   0  0  2  0  0  0  0  0  0  0  0  0
    3.8007   14.1843   38.3649 N   0  0  0  0  0  0  0  0  0  0  0  0
   -1.8938   16.8841   39.3698 C   0  0  0  0  0  0  0  0  0  0  0  0
   -3.7992   11.3986   40.5590 C   0  0  2  0  0  0  0  0  0  0  0  0
   -3.7123   12.0892   41.7873 O   0  0  0  0  0  0  0  0  0  0  0  0
    4.2050   16.3645   37.2070 C   0  0  0  0  0  0  0  0  0  0  0  0
   -0.3262   16.8602   39.1467 C   0  0  2  0  0  0  0  0  0  0  0  0
    0.0886   18.1312   38.5514 N   0  0  0  0  0  0  0  0  0  0  0  0
   -2.6564   10.3258   40.4379 C   0  0  1  0  0  0  0  0  0  0  0  0
   -2.7768    9.3335   41.5539 N   0  0  0  0  0  0  0  0  0  0  0  0
    3.5747   17.3470   36.1330 C   0  0  0  0  0  0  0  0  0  0  0  0
    0.0360   15.6631   38.1758 C   0  0  2  0  0  0  0  0  0  0  0  0
   -2.8090    9.5553   39.0128 C   0  0  1  0  0  0  0  0  0  0  0  0
   -4.0456    8.8843   38.8723 O   0  0  0  0  0  0  0  0  0  0  0  0
    2.4423   17.0218   35.4633 C   0  0  1  0  0  0  0  0  0  0  0  0
    1.7400   15.7978   35.6601 O   0  0  0  0  0  0  0  0  0  0  0  0
   -0.4179   14.2907   38.8272 C   0  0  2  0  0  0  0  0  0  0  0  0
   -0.0975   13.2079   37.9299 O   0  0  0  0  0  0  0  0  0  0  0  0
   -2.6885   10.5924   37.8563 C   0  0  0  0  0  0  0  0  0  0  0  0
   -3.6977   11.7100   38.0548 O   0  0  0  0  0  0  0  0  0  0  0  0
    1.8068   17.9317   34.4393 C   0  0  0  0  0  0  0  0  0  0  0  0
    0.6862   18.5668   35.0918 O   0  0  0  0  0  0  0  0  0  0  0  0
   -1.9775   14.3197   39.0552 C   0  0  1  0  0  0  0  0  0  0  0  0
   -2.3547   13.0970   39.6380 O   0  0  0  0  0  0  0  0  0  0  0  0
   -1.7473    8.4785   38.7532 C   0  0  0  0  0  0  0  0  0  0  0  0
   -2.0849    9.6785   42.8131 C   0  0  0  0  0  0  0  0  0  0  0  0
  1  2  1  1  0  0  0
  1  6  1  0  0  0  0
  1 21  1  0  0  0  0
  3  4  1  6  0  0  0
  3  8  1  0  0  0  0
  3 28  1  0  0  0  0
  5  9  1  0  0  0  0
  5 25  1  0  0  0  0
  5 29  1  1  0  0  0
  6  7  1  1  0  0  0
  6 11  1  0  0  0  0
  8 12  1  0  0  0  0
  9 10  1  1  0  0  0
  9 14  1  0  0  0  0
 11 16  1  0  0  0  0
 12 13  1  6  0  0  0
 12 17  1  0  0  0  0
 14 15  1  1  0  0  0
 14 18  1  0  0  0  0
 15 31  1  0  0  0  0
 16 20  1  0  0  0  0
 17  2  1  1  0  0  0
 17 22  1  0  0  0  0
 18 19  1  6  0  0  0
 18 24  1  0  0  0  0
 18 30  1  0  0  0  0
 20 21  1  0  0  0  0
 20 26  1  1  0  0  0
 22 23  1  6  0  0  0
 22 28  1  0  0  0  0
 24 25  1  0  0  0  0
 26 27  1  0  0  0  0
 28 29  1  1  0  0  0
M  END
>  <CHROM.1>
-167.99027823,-162.35398760,-87.73682538,-158.51400847,-101.82468432,94.67378790
-0.70876016,13.87303913,38.52046662,-0.83293866,-0.53514827,3.05719080

>  <Name>
ligand

>  <RI>
0

>  <Rbt.Current_Directory>
/home/itssahil/PROJECTS/Mol_Feturizer/New_Systems/rnas/4GPY

>  <Rbt.Executable>
rbdock ($Id: //depot/dev/client3/rdock/2013.1/src/exe/rbdock.cxx#4 $)

>  <Rbt.Library>
libRbt.so (2013.1, Build901 2013/11/27)

>  <Rbt.Parameter_File>
/export/apps/rDock/src/rDock_2013.1_src/data/scripts/dock_solv.prm

>  <Rbt.Receptor>
prm/pocket_docking_7.prm

>  <SCORE>
-17.7498

>  <SCORE.INTER>
-16.4021

>  <SCORE.INTER.CONST>
1

>  <SCORE.INTER.POLAR>
0

>  <SCORE.INTER.ROT>
6

>  <SCORE.INTER.SOLV>
20.1244

>  <SCORE.INTER.VDW>
-25.2428

>  <SCORE.INTER.norm>
-0.529098

>  <SCORE.INTRA>
-1.34775

>  <SCORE.INTRA.DIHEDRAL>
-3.44854

>  <SCORE.INTRA.DIHEDRAL.0>
14.7001

>  <SCORE.INTRA.POLAR>
0

>  <SCORE.INTRA.POLAR.0>
0

>  <SCORE.INTRA.REPUL>
0.00493513

>  <SCORE.INTRA.REPUL.0>
0

>  <SCORE.INTRA.SOLV>
0.0473112

>  <SCORE.INTRA.SOLV.lig_0>
-65.3082

>  <SCORE.INTRA.VDW>
0.328191

>  <SCORE.INTRA.VDW.0>
-4.21408

>  <SCORE.INTRA.norm>
-0.0434758

>  <SCORE.RESTR>
0

>  <SCORE.RESTR.CAVITY>
0

>  <SCORE.RESTR.norm>
0

>  <SCORE.SYSTEM>
0

>  <SCORE.SYSTEM.CONST>
0

>  <SCORE.SYSTEM.DIHEDRAL>
0

>  <SCORE.SYSTEM.SOLV>
0

>  <SCORE.SYSTEM.norm>
0

>  <SCORE.heavy>
31

>  <SCORE.norm>
-0.572574

>  <RMSD>
0.417

$$$$
ligand
 OpenBabel11021811493D
libRbt.so/2013.1/901 2013/11/27
 31 33  0  0  0  0  0  0  0  0999 V2000
    1.9928   15.0370   36.8847 C   0  0  2  0  0  0  0  0  0  0  0  0
    1.4091   15.6780   38.0026 O   0  0  0  0  0  0  0  0  0  0  0  0
   -2.3111   15.4943   40.0487 C   0  0  2  0  0  0  0  0  0  0  0  0
   -3.7169   15.5213   40.2720 N   0  0  0  0  0  0  0  0  0  0  0  0
   -3.6364   12.4389   39.3689 C   0  0  2  0  0  0  0  0  0  0  0  0
    3.5605   14.9414   37.1323 C   0  0  2  0  0  0  0  0  0  0  0  0
    3.8058   14.2117   38.3716 N   0  0  0  0  0  0  0  0  0  0  0  0
   -1.8809   16.8904   39.4120 C   0  0  0  0  0  0  0  0  0  0  0  0
   -3.7981   11.3960   40.5254 C   0  0  2  0  0  0  0  0  0  0  0  0
   -3.7079   12.0730   41.7610 O   0  0  0  0  0  0  0  0  0  0  0  0
    4.2006   16.3772   37.1832 C   0  0  0  0  0  0  0  0  0  0  0  0
   -0.3147   16.8660   39.1789 C   0  0  2  0  0  0  0  0  0  0  0  0
    0.1000   18.1454   38.6020 N   0  0  0  0  0  0  0  0  0  0  0  0
   -2.6582   10.3217   40.3912 C   0  0  1  0  0  0  0  0  0  0  0  0
   -2.7797    9.3176   41.4966 N   0  0  0  0  0  0  0  0  0  0  0  0
    3.5627   17.3452   36.1005 C   0  0  0  0  0  0  0  0  0  0  0  0
    0.0384   15.6839   38.1865 C   0  0  2  0  0  0  0  0  0  0  0  0
   -2.8145    9.5670   38.9580 C   0  0  1  0  0  0  0  0  0  0  0  0
   -4.0531    8.9007   38.8119 O   0  0  0  0  0  0  0  0  0  0  0  0
    2.4267   17.0101   35.4420 C   0  0  1  0  0  0  0  0  0  0  0  0
    1.7270   15.7880   35.6588 O   0  0  0  0  0  0  0  0  0  0  0  0
   -0.4153   14.3023   38.8181 C   0  0  2  0  0  0  0  0  0  0  0  0
   -0.1032   13.2335   37.9013 O   0  0  0  0  0  0  0  0  0  0  0  0
   -2.6928   10.6162   37.8127 C   0  0  0  0  0  0  0  0  0  0  0  0
   -3.6990   11.7343   38.0245 O   0  0  0  0  0  0  0  0  0  0  0  0
    1.7840   17.9061   34.4102 C   0  0  0  0  0  0  0  0  0  0  0  0
    0.6565   18.5355   35.0563 O   0  0  0  0  0  0  0  0  0  0  0  0
   -1.9734   14.3317   39.0560 C   0  0  1  0  0  0  0  0  0  0  0  0
   -2.3505   13.1006   39.6210 O   0  0  0  0  0  0  0  0  0  0  0  0
   -1.7559    8.4904   38.6854 C   0  0  0  0  0  0  0  0  0  0  0  0
   -2.1157    9.6639   42.7704 C   0  0  0  0  0  0  0  0  0  0  0  0
  1  2  1  1  0  0  0
  1  6  1  0  0  0  0
  1 21  1  0  0  0  0
  3  4  1  6  0  0  0
  3  8  1  0  0  0  0
  3 28  1  0  0  0  0
  5  9  1  0  0  0  0
  5 25  1  0  0  0  0
  5 29  1  1  0  0  0
  6  7  1  1  0  0  0
  6 11  1  0  0  0  0
  8 12  1  0  0  0  0
  9 10  1  1  0  0  0
  9 14  1  0  0  0  0
 11 16  1  0  0  0  0
 12 13  1  6  0  0  0
 12 17  1  0  0  0  0
 14 15  1  1  0  0  0
 14 18  1  0  0  0  0
 15 31  1  0  0  0  0
 16 20  1  0  0  0  0
 17  2  1  1  0  0  0
 17 22  1  0  0  0  0
 18 19  1  6  0  0  0
 18 24  1  0  0  0  0
 18 30  1  0  0  0  0
 20 21  1  0  0  0  0
 20 26  1  1  0  0  0
 22 23  1  6  0  0  0
 22 28  1  0  0  0  0
 24 25  1  0  0  0  0
 26 27  1  0  0  0  0
 28 29  1  1  0  0  0
M  END
>  <CHROM.1>
-167.98211227,-162.03844223,-86.15188413,-160.20870659,-102.53270783,94.82200693
-0.71172049,13.87732270,38.50438866,-0.82241192,-0.55043488,3.07860820

>  <Name>
ligand

>  <RI>
0

>  <Rbt.Current_Directory>
/home/itssahil/PROJECTS/Mol_Feturizer/New_Systems/rnas/4GPY

>  <Rbt.Executable>
rbdock ($Id: //depot/dev/client3/rdock/2013.1/src/exe/rbdock.cxx#4 $)

>  <Rbt.Library>
libRbt.so (2013.1, Build901 2013/11/27)

>  <Rbt.Parameter_File>
/export/apps/rDock/src/rDock_2013.1_src/data/scripts/dock_solv.prm

>  <Rbt.Receptor>
prm/pocket_docking_6.prm

>  <SCORE>
-17.8289

>  <SCORE.INTER>
-16.3453

>  <SCORE.INTER.CONST>
1

>  <SCORE.INTER.POLAR>
0

>  <SCORE.INTER.ROT>
6

>  <SCORE.INTER.SOLV>
20.3281

>  <SCORE.INTER.VDW>
-25.2729

>  <SCORE.INTER.norm>
-0.527267

>  <SCORE.INTRA>
-1.48365

>  <SCORE.INTRA.DIHEDRAL>
-3.73221

>  <SCORE.INTRA.DIHEDRAL.0>
14.7001

>  <SCORE.INTRA.POLAR>
0

>  <SCORE.INTRA.POLAR.0>
0

>  <SCORE.INTRA.REPUL>
0.00157116

>  <SCORE.INTRA.REPUL.0>
0

>  <SCORE.INTRA.SOLV>
-0.113638

>  <SCORE.INTRA.SOLV.lig_0>
-65.3082

>  <SCORE.INTRA.VDW>
0.43142

>  <SCORE.INTRA.VDW.0>
-4.21408

>  <SCORE.INTRA.norm>
-0.0478596

>  <SCORE.RESTR>
0

>  <SCORE.RESTR.CAVITY>
0

>  <SCORE.RESTR.norm>
0

>  <SCORE.SYSTEM>
0

>  <SCORE.SYSTEM.CONST>
0

>  <SCORE.SYSTEM.DIHEDRAL>
0

>  <SCORE.SYSTEM.SOLV>
0

>  <SCORE.SYSTEM.norm>
0

>  <SCORE.heavy>
31

>  <SCORE.norm>
-0.575126

>  <RMSD>
0.420

$$$$
ligand
 OpenBabel11021811493D
libRbt.so/2013.1/901 2013/11/27
 31 33  0  0  0  0  0  0  0  0999 V2000
    1.9780   15.0069   36.8885 C   0  0  2  0  0  0  0  0  0  0  0  0
    1.3980   15.6735   37.9933 O   0  0  0  0  0  0  0  0  0  0  0  0
   -2.3118   15.4901   40.0581 C   0  0  2  0  0  0  0  0  0  0  0  0
   -3.7165   15.5175   40.2886 N   0  0  0  0  0  0  0  0  0  0  0  0
   -3.6358   12.4285   39.3725 C   0  0  2  0  0  0  0  0  0  0  0  0
    3.5462   14.9144   37.1343 C   0  0  2  0  0  0  0  0  0  0  0  0
    3.7934   14.2120   38.3890 N   0  0  0  0  0  0  0  0  0  0  0  0
   -1.8844   16.8863   39.4198 C   0  0  0  0  0  0  0  0  0  0  0  0
   -3.8076   11.4007   40.5410 C   0  0  2  0  0  0  0  0  0  0  0  0
   -3.7322   12.0942   41.7684 O   0  0  0  0  0  0  0  0  0  0  0  0
    4.1886   16.3501   37.1519 C   0  0  0  0  0  0  0  0  0  0  0  0
   -0.3195   16.8615   39.1789 C   0  0  2  0  0  0  0  0  0  0  0  0
    0.0928   18.1410   38.6003 N   0  0  0  0  0  0  0  0  0  0  0  0
   -2.6639   10.3274   40.4335 C   0  0  1  0  0  0  0  0  0  0  0  0
   -2.7950    9.3378   41.5507 N   0  0  0  0  0  0  0  0  0  0  0  0
    3.5494   17.2948   36.0496 C   0  0  0  0  0  0  0  0  0  0  0  0
    0.0282   15.6797   38.1841 C   0  0  2  0  0  0  0  0  0  0  0  0
   -2.8030    9.5534   39.0088 C   0  0  1  0  0  0  0  0  0  0  0  0
   -4.0383    8.8822   38.8582 O   0  0  0  0  0  0  0  0  0  0  0  0
    2.4112   16.9470   35.4014 C   0  0  1  0  0  0  0  0  0  0  0  0
    1.7103   15.7311   35.6470 O   0  0  0  0  0  0  0  0  0  0  0  0
   -0.4227   14.2980   38.8175 C   0  0  2  0  0  0  0  0  0  0  0  0
   -0.1155   13.2294   37.8987 O   0  0  0  0  0  0  0  0  0  0  0  0
   -2.6713   10.5876   37.8510 C   0  0  0  0  0  0  0  0  0  0  0  0
   -3.6822   11.7059   38.0371 O   0  0  0  0  0  0  0  0  0  0  0  0
    1.7673   17.8209   34.3516 C   0  0  0  0  0  0  0  0  0  0  0  0
    0.6937   18.5294   35.0076 O   0  0  0  0  0  0  0  0  0  0  0  0
   -1.9795   14.3278   39.0633 C   0  0  1  0  0  0  0  0  0  0  0  0
   -2.3542   13.0966   39.6297 O   0  0  0  0  0  0  0  0  0  0  0  0
   -1.7390    8.4759   38.7619 C   0  0  0  0  0  0  0  0  0  0  0  0
   -2.2313    9.7451   42.8544 C   0  0  0  0  0  0  0  0  0  0  0  0
  1  2  1  1  0  0  0
  1  6  1  0  0  0  0
  1 21  1  0  0  0  0
  3  4  1  6  0  0  0
  3  8  1  0  0  0  0
  3 28  1  0  0  0  0
  5  9  1  0  0  0  0
  5 25  1  0  0  0  0
  5 29  1  1  0  0  0
  6  7  1  1  0  0  0
  6 11  1  0  0  0  0
  8 12  1  0  0  0  0
  9 10  1  1  0  0  0
  9 14  1  0  0  0  0
 11 16  1  0  0  0  0
 12 13  1  6  0  0  0
 12 17  1  0  0  0  0
 14 15  1  1  0  0  0
 14 18  1  0  0  0  0
 15 31  1  0  0  0  0
 16 20  1  0  0  0  0
 17  2  1  1  0  0  0
 17 22  1  0  0  0  0
 18 19  1  6  0  0  0
 18 24  1  0  0  0  0
 18 30  1  0  0  0  0
 20 21  1  0  0  0  0
 20 26  1  1  0  0  0
 22 23  1  6  0  0  0
 22 28  1  0  0  0  0
 24 25  1  0  0  0  0
 26 27  1  0  0  0  0
 28 29  1  1  0  0  0
M  END
>  <CHROM.1>
-167.64733795,-161.34968696,-81.84490567,-161.65084216,-99.04702805,95.50118861
-0.71922961,13.86551038,38.51229764,-0.81253589,-0.56687622,3.08545118

>  <Name>
ligand

>  <RI>
0

>  <Rbt.Current_Directory>
/home/itssahil/PROJECTS/Mol_Feturizer/New_Systems/rnas/4GPY

>  <Rbt.Executable>
rbdock ($Id: //depot/dev/client3/rdock/2013.1/src/exe/rbdock.cxx#4 $)

>  <Rbt.Library>
libRbt.so (2013.1, Build901 2013/11/27)

>  <Rbt.Parameter_File>
/export/apps/rDock/src/rDock_2013.1_src/data/scripts/dock_solv.prm

>  <Rbt.Receptor>
prm/pocket_docking_7.prm

>  <SCORE>
-17.6928

>  <SCORE.INTER>
-16.4001

>  <SCORE.INTER.CONST>
1

>  <SCORE.INTER.POLAR>
0

>  <SCORE.INTER.ROT>
6

>  <SCORE.INTER.SOLV>
20.3377

>  <SCORE.INTER.VDW>
-25.3127

>  <SCORE.INTER.norm>
-0.529037

>  <SCORE.INTRA>
-1.29264

>  <SCORE.INTRA.DIHEDRAL>
-3.67412

>  <SCORE.INTRA.DIHEDRAL.0>
14.7001

>  <SCORE.INTRA.POLAR>
0

>  <SCORE.INTRA.POLAR.0>
0

>  <SCORE.INTRA.REPUL>
0.00187841

>  <SCORE.INTRA.REPUL.0>
0

>  <SCORE.INTRA.SOLV>
-0.238013

>  <SCORE.INTRA.SOLV.lig_0>
-65.3082

>  <SCORE.INTRA.VDW>
0.65404

>  <SCORE.INTRA.VDW.0>
-4.21408

>  <SCORE.INTRA.norm>
-0.041698

>  <SCORE.RESTR>
0

>  <SCORE.RESTR.CAVITY>
0

>  <SCORE.RESTR.norm>
0

>  <SCORE.SYSTEM>
0

>  <SCORE.SYSTEM.CONST>
0

>  <SCORE.SYSTEM.DIHEDRAL>
0

>  <SCORE.SYSTEM.SOLV>
0

>  <SCORE.SYSTEM.norm>
0

>  <SCORE.heavy>
31

>  <SCORE.norm>
-0.570735

>  <RMSD>
0.420

$$$$
ligand
 OpenBabel11021811493D
libRbt.so/2013.1/901 2013/11/27
 31 33  0  0  0  0  0  0  0  0999 V2000
    1.9440   15.0086   36.8640 C   0  0  2  0  0  0  0  0  0  0  0  0
    1.3684   15.6834   37.9661 O   0  0  0  0  0  0  0  0  0  0  0  0
   -2.3327   15.4835   40.0451 C   0  0  2  0  0  0  0  0  0  0  0  0
   -3.7362   15.5108   40.2820 N   0  0  0  0  0  0  0  0  0  0  0  0
   -3.6617   12.4281   39.3248 C   0  0  2  0  0  0  0  0  0  0  0  0
    3.5144   14.9274   37.0991 C   0  0  2  0  0  0  0  0  0  0  0  0
    3.7748   14.2394   38.3591 N   0  0  0  0  0  0  0  0  0  0  0  0
   -1.9055   16.8860   39.4205 C   0  0  0  0  0  0  0  0  0  0  0  0
   -3.8529   11.4165   40.5044 C   0  0  2  0  0  0  0  0  0  0  0  0
   -3.7914   12.1260   41.7234 O   0  0  0  0  0  0  0  0  0  0  0  0
    4.1488   16.3667   37.0971 C   0  0  0  0  0  0  0  0  0  0  0  0
   -0.3417   16.8612   39.1723 C   0  0  2  0  0  0  0  0  0  0  0  0
    0.0702   18.1464   38.6063 N   0  0  0  0  0  0  0  0  0  0  0  0
   -2.7119   10.3379   40.4263 C   0  0  1  0  0  0  0  0  0  0  0  0
   -2.8616    9.3637   41.5546 N   0  0  0  0  0  0  0  0  0  0  0  0
    3.4964   17.2964   35.9899 C   0  0  0  0  0  0  0  0  0  0  0  0
   -0.0005   15.6900   38.1630 C   0  0  2  0  0  0  0  0  0  0  0  0
   -2.8349    9.5455   39.0103 C   0  0  1  0  0  0  0  0  0  0  0  0
   -4.0707    8.8768   38.8521 O   0  0  0  0  0  0  0  0  0  0  0  0
    2.3554   16.9356   35.3537 C   0  0  1  0  0  0  0  0  0  0  0  0
    1.6631   15.7184   35.6170 O   0  0  0  0  0  0  0  0  0  0  0  0
   -0.4512   14.3020   38.7829 C   0  0  2  0  0  0  0  0  0  0  0  0
   -0.1500   13.2433   37.8509 O   0  0  0  0  0  0  0  0  0  0  0  0
   -2.6839   10.5638   37.8408 C   0  0  0  0  0  0  0  0  0  0  0  0
   -3.6931   11.6881   37.9985 O   0  0  0  0  0  0  0  0  0  0  0  0
    1.6990   17.7949   34.2997 C   0  0  0  0  0  0  0  0  0  0  0  0
    0.6324   18.5115   34.9583 O   0  0  0  0  0  0  0  0  0  0  0  0
   -2.0069   14.3318   39.0359 C   0  0  1  0  0  0  0  0  0  0  0  0
   -2.3812   13.0950   39.5902 O   0  0  0  0  0  0  0  0  0  0  0  0
   -1.7718    8.4610   38.7919 C   0  0  0  0  0  0  0  0  0  0  0  0
   -2.1418    9.6928   42.8025 C   0  0  0  0  0  0  0  0  0  0  0  0
  1  2  1  1  0  0  0
  1  6  1  0  0  0  0
  1 21  1  0  0  0  0
  3  4  1  6  0  0  0
  3  8  1  0  0  0  0
  3 28  1  0  0  0  0
  5  9  1  0  0  0  0
  5 25  1  0  0  0  0
  5 29  1  1  0  0  0
  6  7  1  1  0  0  0
  6 11  1  0  0  0  0
  8 12  1  0  0  0  0
  9 10  1  1  0  0  0
  9 14  1  0  0  0  0
 11 16  1  0  0  0  0
 12 13  1  6  0  0  0
 12 17  1  0  0  0  0
 14 15  1  1  0  0  0
 14 18  1  0  0  0  0
 15 31  1  0  0  0  0
 16 20  1  0  0  0  0
 17  2  1  1  0  0  0
 17 22  1  0  0  0  0
 18 19  1  6  0  0  0
 18 24  1  0  0  0  0
 18 30  1  0  0  0  0
 20 21  1  0  0  0  0
 20 26  1  1  0  0  0
 22 23  1  6  0  0  0
 22 28  1  0  0  0  0
 24 25  1  0  0  0  0
 26 27  1  0  0  0  0
 28 29  1  1  0  0  0
M  END
>  <CHROM.1>
-167.98885964,-159.86715272,-90.67902454,-162.75458320,-98.64444605,95.89339085
-0.75036697,13.86484415,38.48585963,-0.81450695,-0.56897680,3.08377544

>  <Name>
ligand

>  <RI>
0

>  <Rbt.Current_Directory>
/home/itssahil/PROJECTS/Mol_Feturizer/New_Systems/rnas/4GPY

>  <Rbt.Executable>
rbdock ($Id: //depot/dev/client3/rdock/2013.1/src/exe/rbdock.cxx#4 $)

>  <Rbt.Library>
libRbt.so (2013.1, Build901 2013/11/27)

>  <Rbt.Parameter_File>
/export/apps/rDock/src/rDock_2013.1_src/data/scripts/dock_solv.prm

>  <Rbt.Receptor>
prm/pocket_docking_5.prm

>  <SCORE>
-17.6522

>  <SCORE.INTER>
-16.2283

>  <SCORE.INTER.CONST>
1

>  <SCORE.INTER.POLAR>
0

>  <SCORE.INTER.ROT>
6

>  <SCORE.INTER.SOLV>
20.8446

>  <SCORE.INTER.VDW>
-25.3671

>  <SCORE.INTER.norm>
-0.523493

>  <SCORE.INTRA>
-1.42393

>  <SCORE.INTRA.DIHEDRAL>
-3.2837

>  <SCORE.INTRA.DIHEDRAL.0>
14.7001

>  <SCORE.INTRA.POLAR>
0

>  <SCORE.INTRA.POLAR.0>
0

>  <SCORE.INTRA.REPUL>
0.000474955

>  <SCORE.INTRA.REPUL.0>
0

>  <SCORE.INTRA.SOLV>
-0.336792

>  <SCORE.INTRA.SOLV.lig_0>
-65.3082

>  <SCORE.INTRA.VDW>
0.383946

>  <SCORE.INTRA.VDW.0>
-4.21408

>  <SCORE.INTRA.norm>
-0.0459331

>  <SCORE.RESTR>
0

>  <SCORE.RESTR.CAVITY>
0

>  <SCORE.RESTR.norm>
0

>  <SCORE.SYSTEM>
0

>  <SCORE.SYSTEM.CONST>
0

>  <SCORE.SYSTEM.DIHEDRAL>
0

>  <SCORE.SYSTEM.SOLV>
0

>  <SCORE.SYSTEM.norm>
0

>  <SCORE.heavy>
31

>  <SCORE.norm>
-0.569426

>  <RMSD>
0.422

$$$$
ligand
 OpenBabel11021811493D
libRbt.so/2013.1/901 2013/11/27
 31 33  0  0  0  0  0  0  0  0999 V2000
    2.0012   14.9132   36.8067 C   0  0  2  0  0  0  0  0  0  0  0  0
    1.4409   15.4993   37.9660 O   0  0  0  0  0  0  0  0  0  0  0  0
   -2.2814   15.4507   40.0158 C   0  0  2  0  0  0  0  0  0  0  0  0
   -3.6856   15.5216   40.2393 N   0  0  0  0  0  0  0  0  0  0  0  0
   -3.6690   12.3937   39.3268 C   0  0  2  0  0  0  0  0  0  0  0  0
    3.5725   14.7977   37.0210 C   0  0  2  0  0  0  0  0  0  0  0  0
    3.8354   14.0048   38.2172 N   0  0  0  0  0  0  0  0  0  0  0  0
   -1.8112   16.8253   39.3607 C   0  0  0  0  0  0  0  0  0  0  0  0
   -3.8837   11.3731   40.4945 C   0  0  2  0  0  0  0  0  0  0  0  0
   -3.8404   12.0723   41.7203 O   0  0  0  0  0  0  0  0  0  0  0  0
    4.2215   16.2261   37.1334 C   0  0  0  0  0  0  0  0  0  0  0  0
   -0.2467   16.7523   39.1274 C   0  0  2  0  0  0  0  0  0  0  0  0
    0.2047   18.0114   38.5337 N   0  0  0  0  0  0  0  0  0  0  0  0
   -2.7453   10.2911   40.4268 C   0  0  1  0  0  0  0  0  0  0  0  0
   -2.9174    9.3082   41.5443 N   0  0  0  0  0  0  0  0  0  0  0  0
    3.5701   17.2509   36.1129 C   0  0  0  0  0  0  0  0  0  0  0  0
    0.0711   15.5476   38.1503 C   0  0  2  0  0  0  0  0  0  0  0  0
   -2.8469    9.5109   39.0024 C   0  0  1  0  0  0  0  0  0  0  0  0
   -4.0822    8.8479   38.8177 O   0  0  0  0  0  0  0  0  0  0  0  0
    2.4207   16.9552   35.4586 C   0  0  1  0  0  0  0  0  0  0  0  0
    1.7180   15.7270   35.6256 O   0  0  0  0  0  0  0  0  0  0  0  0
   -0.4222   14.1881   38.8001 C   0  0  2  0  0  0  0  0  0  0  0  0
   -0.1420   13.0988   37.8973 O   0  0  0  0  0  0  0  0  0  0  0  0
   -2.6726   10.5383   37.8441 C   0  0  0  0  0  0  0  0  0  0  0  0
   -3.6804   11.6648   37.9941 O   0  0  0  0  0  0  0  0  0  0  0  0
    1.7650   17.9055   34.4853 C   0  0  0  0  0  0  0  0  0  0  0  0
    0.6024   18.4416   35.1531 O   0  0  0  0  0  0  0  0  0  0  0  0
   -1.9785   14.2659   39.0382 C   0  0  1  0  0  0  0  0  0  0  0  0
   -2.3908   13.0538   39.6194 O   0  0  0  0  0  0  0  0  0  0  0  0
   -1.7841    8.4244   38.7931 C   0  0  0  0  0  0  0  0  0  0  0  0
   -2.3036    9.6743   42.8376 C   0  0  0  0  0  0  0  0  0  0  0  0
  1  2  1  1  0  0  0
  1  6  1  0  0  0  0
  1 21  1  0  0  0  0
  3  4  1  6  0  0  0
  3  8  1  0  0  0  0
  3 28  1  0  0  0  0
  5  9  1  0  0  0  0
  5 25  1  0  0  0  0
  5 29  1  1  0  0  0
  6  7  1  1  0  0  0
  6 11  1  0  0  0  0
  8 12  1  0  0  0  0
  9 10  1  1  0  0  0
  9 14  1  0  0  0  0
 11 16  1  0  0  0  0
 12 13  1  6  0  0  0
 12 17  1  0  0  0  0
 14 15  1  1  0  0  0
 14 18  1  0  0  0  0
 15 31  1  0  0  0  0
 16 20  1  0  0  0  0
 17  2  1  1  0  0  0
 17 22  1  0  0  0  0
 18 19  1  6  0  0  0
 18 24  1  0  0  0  0
 18 30  1  0  0  0  0
 20 21  1  0  0  0  0
 20 26  1  1  0  0  0
 22 23  1  6  0  0  0
 22 28  1  0  0  0  0
 24 25  1  0  0  0  0
 26 27  1  0  0  0  0
 28 29  1  1  0  0  0
M  END
>  <CHROM.1>
-170.46282242,-162.68136095,-86.18361672,-155.50089622,-106.14609635,97.89661810
-0.72731139,13.80058082,38.49307694,-0.81284493,-0.54470115,3.07322983

>  <Name>
ligand

>  <RI>
0

>  <Rbt.Current_Directory>
/home/itssahil/PROJECTS/Mol_Feturizer/New_Systems/rnas/4GPY

>  <Rbt.Executable>
rbdock ($Id: //depot/dev/client3/rdock/2013.1/src/exe/rbdock.cxx#4 $)

>  <Rbt.Library>
libRbt.so (2013.1, Build901 2013/11/27)

>  <Rbt.Parameter_File>
/export/apps/rDock/src/rDock_2013.1_src/data/scripts/dock_solv.prm

>  <Rbt.Receptor>
prm/pocket_docking_4.prm

>  <SCORE>
-17.4591

>  <SCORE.INTER>
-16.4463

>  <SCORE.INTER.CONST>
1

>  <SCORE.INTER.POLAR>
0

>  <SCORE.INTER.ROT>
6

>  <SCORE.INTER.SOLV>
20.3837

>  <SCORE.INTER.VDW>
-25.3588

>  <SCORE.INTER.norm>
-0.530525

>  <SCORE.INTRA>
-1.01285

>  <SCORE.INTRA.DIHEDRAL>
-2.85349

>  <SCORE.INTRA.DIHEDRAL.0>
14.7001

>  <SCORE.INTRA.POLAR>
0

>  <SCORE.INTRA.POLAR.0>
0

>  <SCORE.INTRA.REPUL>
0.000524369

>  <SCORE.INTRA.REPUL.0>
0

>  <SCORE.INTRA.SOLV>
0.354908

>  <SCORE.INTRA.SOLV.lig_0>
-65.3082

>  <SCORE.INTRA.VDW>
0.233818

>  <SCORE.INTRA.VDW.0>
-4.21408

>  <SCORE.INTRA.norm>
-0.0326725

>  <SCORE.RESTR>
0

>  <SCORE.RESTR.CAVITY>
0

>  <SCORE.RESTR.norm>
0

>  <SCORE.SYSTEM>
0

>  <SCORE.SYSTEM.CONST>
0

>  <SCORE.SYSTEM.DIHEDRAL>
0

>  <SCORE.SYSTEM.SOLV>
0

>  <SCORE.SYSTEM.norm>
0

>  <SCORE.heavy>
31

>  <SCORE.norm>
-0.563198

>  <RMSD>
0.425

$$$$
ligand
 OpenBabel11021811493D
libRbt.so/2013.1/901 2013/11/27
 31 33  0  0  0  0  0  0  0  0999 V2000
    1.9662   14.9835   36.8676 C   0  0  2  0  0  0  0  0  0  0  0  0
    1.3935   15.6290   37.9885 O   0  0  0  0  0  0  0  0  0  0  0  0
   -2.3150   15.4826   40.0588 C   0  0  2  0  0  0  0  0  0  0  0  0
   -3.7192   15.5192   40.2904 N   0  0  0  0  0  0  0  0  0  0  0  0
   -3.6539   12.4203   39.3986 C   0  0  2  0  0  0  0  0  0  0  0  0
    3.5336   14.8703   37.1095 C   0  0  2  0  0  0  0  0  0  0  0  0
    3.7752   14.1359   38.3468 N   0  0  0  0  0  0  0  0  0  0  0  0
   -1.8811   16.8710   39.4078 C   0  0  0  0  0  0  0  0  0  0  0  0
   -3.8174   11.3835   40.5603 C   0  0  2  0  0  0  0  0  0  0  0  0
   -3.7324   12.0674   41.7925 O   0  0  0  0  0  0  0  0  0  0  0  0
    4.1897   16.2989   37.1606 C   0  0  0  0  0  0  0  0  0  0  0  0
   -0.3166   16.8362   39.1655 C   0  0  2  0  0  0  0  0  0  0  0  0
    0.1015   18.1085   38.5754 N   0  0  0  0  0  0  0  0  0  0  0  0
   -2.6752   10.3105   40.4357 C   0  0  1  0  0  0  0  0  0  0  0  0
   -2.7983    9.3123   41.5461 N   0  0  0  0  0  0  0  0  0  0  0  0
    3.5587   17.2757   36.0818 C   0  0  0  0  0  0  0  0  0  0  0  0
    0.0240   15.6440   38.1807 C   0  0  2  0  0  0  0  0  0  0  0  0
   -2.8255    9.5477   39.0061 C   0  0  1  0  0  0  0  0  0  0  0  0
   -4.0624    8.8784   38.8597 O   0  0  0  0  0  0  0  0  0  0  0  0
    2.4167   16.9543   35.4267 C   0  0  1  0  0  0  0  0  0  0  0  0
    1.7044   15.7396   35.6439 O   0  0  0  0  0  0  0  0  0  0  0  0
   -0.4334   14.2701   38.8266 C   0  0  2  0  0  0  0  0  0  0  0  0
   -0.1327   13.1921   37.9168 O   0  0  0  0  0  0  0  0  0  0  0  0
   -2.7021   10.5909   37.8555 C   0  0  0  0  0  0  0  0  0  0  0  0
   -3.7110   11.7082   38.0580 O   0  0  0  0  0  0  0  0  0  0  0  0
    1.7803   17.8590   34.3987 C   0  0  0  0  0  0  0  0  0  0  0  0
    0.6563   18.4924   35.0470 O   0  0  0  0  0  0  0  0  0  0  0  0
   -1.9897   14.3100   39.0737 C   0  0  1  0  0  0  0  0  0  0  0  0
   -2.3700   13.0858   39.6513 O   0  0  0  0  0  0  0  0  0  0  0  0
   -1.7641    8.4717   38.7427 C   0  0  0  0  0  0  0  0  0  0  0  0
   -2.2062    9.7005   42.8430 C   0  0  0  0  0  0  0  0  0  0  0  0
  1  2  1  1  0  0  0
  1  6  1  0  0  0  0
  1 21  1  0  0  0  0
  3  4  1  6  0  0  0
  3  8  1  0  0  0  0
  3 28  1  0  0  0  0
  5  9  1  0  0  0  0
  5 25  1  0  0  0  0
  5 29  1  1  0  0  0
  6  7  1  1  0  0  0
  6 11  1  0  0  0  0
  8 12  1  0  0  0  0
  9 10  1  1  0  0  0
  9 14  1  0  0  0  0
 11 16  1  0  0  0  0
 12 13  1  6  0  0  0
 12 17  1  0  0  0  0
 14 15  1  1  0  0  0
 14 18  1  0  0  0  0
 15 31  1  0  0  0  0
 16 20  1  0  0  0  0
 17  2  1  1  0  0  0
 17 22  1  0  0  0  0
 18 19  1  6  0  0  0
 18 24  1  0  0  0  0
 18 30  1  0  0  0  0
 20 21  1  0  0  0  0
 20 26  1  1  0  0  0
 22 23  1  6  0  0  0
 22 28  1  0  0  0  0
 24 25  1  0  0  0  0
 26 27  1  0  0  0  0
 28 29  1  1  0  0  0
M  END
>  <CHROM.1>
-167.65850963,-162.48315987,-82.75061073,-159.76311440,-102.93172582,95.66200859
-0.72783280,13.84619629,38.51669584,-0.81591395,-0.55892387,3.07773401

>  <Name>
ligand

>  <RI>
0

>  <Rbt.Current_Directory>
/home/itssahil/PROJECTS/Mol_Feturizer/New_Systems/rnas/4GPY

>  <Rbt.Executable>
rbdock ($Id: //depot/dev/client3/rdock/2013.1/src/exe/rbdock.cxx#4 $)

>  <Rbt.Library>
libRbt.so (2013.1, Build901 2013/11/27)

>  <Rbt.Parameter_File>
/export/apps/rDock/src/rDock_2013.1_src/data/scripts/dock_solv.prm

>  <Rbt.Receptor>
prm/pocket_docking_7.prm

>  <SCORE>
-17.7636

>  <SCORE.INTER>
-16.4545

>  <SCORE.INTER.CONST>
1

>  <SCORE.INTER.POLAR>
0

>  <SCORE.INTER.ROT>
6

>  <SCORE.INTER.SOLV>
20.2851

>  <SCORE.INTER.VDW>
-25.3313

>  <SCORE.INTER.norm>
-0.53079

>  <SCORE.INTRA>
-1.30912

>  <SCORE.INTRA.DIHEDRAL>
-3.65617

>  <SCORE.INTRA.DIHEDRAL.0>
14.7001

>  <SCORE.INTRA.POLAR>
0

>  <SCORE.INTRA.POLAR.0>
0

>  <SCORE.INTRA.REPUL>
0.00234607

>  <SCORE.INTRA.REPUL.0>
0

>  <SCORE.INTRA.SOLV>
-0.0674982

>  <SCORE.INTRA.SOLV.lig_0>
-65.3082

>  <SCORE.INTRA.VDW>
0.540984

>  <SCORE.INTRA.VDW.0>
-4.21408

>  <SCORE.INTRA.norm>
-0.0422297

>  <SCORE.RESTR>
0

>  <SCORE.RESTR.CAVITY>
0

>  <SCORE.RESTR.norm>
0

>  <SCORE.SYSTEM>
0

>  <SCORE.SYSTEM.CONST>
0

>  <SCORE.SYSTEM.DIHEDRAL>
0

>  <SCORE.SYSTEM.SOLV>
0

>  <SCORE.SYSTEM.norm>
0

>  <SCORE.heavy>
31

>  <SCORE.norm>
-0.57302

>  <RMSD>
0.426

$$$$
ligand
 OpenBabel11021811493D
libRbt.so/2013.1/901 2013/11/27
 31 33  0  0  0  0  0  0  0  0999 V2000
    1.9218   14.9688   36.8681 C   0  0  2  0  0  0  0  0  0  0  0  0
    1.3591   15.6226   37.9894 O   0  0  0  0  0  0  0  0  0  0  0  0
   -2.3384   15.4984   40.0806 C   0  0  2  0  0  0  0  0  0  0  0  0
   -3.7410   15.5437   40.3202 N   0  0  0  0  0  0  0  0  0  0  0  0
   -3.6886   12.4307   39.4034 C   0  0  2  0  0  0  0  0  0  0  0  0
    3.4862   14.8251   37.1130 C   0  0  2  0  0  0  0  0  0  0  0  0
    3.7111   14.0833   38.3490 N   0  0  0  0  0  0  0  0  0  0  0  0
   -1.8993   16.8845   39.4282 C   0  0  0  0  0  0  0  0  0  0  0  0
   -3.8653   11.3988   40.5675 C   0  0  2  0  0  0  0  0  0  0  0  0
   -3.8010   12.0888   41.7975 O   0  0  0  0  0  0  0  0  0  0  0  0
    4.1694   16.2408   37.1688 C   0  0  0  0  0  0  0  0  0  0  0  0
   -0.3365   16.8398   39.1769 C   0  0  2  0  0  0  0  0  0  0  0  0
    0.0864   18.1098   38.5854 N   0  0  0  0  0  0  0  0  0  0  0  0
   -2.7174   10.3296   40.4648 C   0  0  1  0  0  0  0  0  0  0  0  0
   -2.8532    9.3362   41.5780 N   0  0  0  0  0  0  0  0  0  0  0  0
    3.5594   17.2319   36.0909 C   0  0  0  0  0  0  0  0  0  0  0  0
   -0.0091   15.6462   38.1894 C   0  0  2  0  0  0  0  0  0  0  0  0
   -2.8438    9.5595   39.0368 C   0  0  1  0  0  0  0  0  0  0  0  0
   -4.0759    8.8847   38.8754 O   0  0  0  0  0  0  0  0  0  0  0  0
    2.4129   16.9339   35.4327 C   0  0  1  0  0  0  0  0  0  0  0  0
    1.6770   15.7326   35.6457 O   0  0  0  0  0  0  0  0  0  0  0  0
   -0.4716   14.2748   38.8369 C   0  0  2  0  0  0  0  0  0  0  0  0
   -0.1829   13.1955   37.9247 O   0  0  0  0  0  0  0  0  0  0  0  0
   -2.7073   10.5977   37.8831 C   0  0  0  0  0  0  0  0  0  0  0  0
   -3.7232   11.7121   38.0654 O   0  0  0  0  0  0  0  0  0  0  0  0
    1.7961   17.8530   34.4056 C   0  0  0  0  0  0  0  0  0  0  0  0
    0.6672   18.4867   35.0450 O   0  0  0  0  0  0  0  0  0  0  0  0
   -2.0262   14.3244   39.0929 C   0  0  1  0  0  0  0  0  0  0  0  0
   -2.4110   13.1022   39.6717 O   0  0  0  0  0  0  0  0  0  0  0  0
   -1.7747    8.4862   38.7943 C   0  0  0  0  0  0  0  0  0  0  0  0
   -2.2429    9.7139   42.8696 C   0  0  0  0  0  0  0  0  0  0  0  0
  1  2  1  1  0  0  0
  1  6  1  0  0  0  0
  1 21  1  0  0  0  0
  3  4  1  6  0  0  0
  3  8  1  0  0  0  0
  3 28  1  0  0  0  0
  5  9  1  0  0  0  0
  5 25  1  0  0  0  0
  5 29  1  1  0  0  0
  6  7  1  1  0  0  0
  6 11  1  0  0  0  0
  8 12  1  0  0  0  0
  9 10  1  1  0  0  0
  9 14  1  0  0  0  0
 11 16  1  0  0  0  0
 12 13  1  6  0  0  0
 12 17  1  0  0  0  0
 14 15  1  1  0  0  0
 14 18  1  0  0  0  0
 15 31  1  0  0  0  0
 16 20  1  0  0  0  0
 17  2  1  1  0  0  0
 17 22  1  0  0  0  0
 18 19  1  6  0  0  0
 18 24  1  0  0  0  0
 18 30  1  0  0  0  0
 20 21  1  0  0  0  0
 20 26  1  1  0  0  0
 22 23  1  6  0  0  0
 22 28  1  0  0  0  0
 24 25  1  0  0  0  0
 26 27  1  0  0  0  0
 28 29  1  1  0  0  0
M  END
>  <CHROM.1>
-166.68275682,-162.55412896,-84.69007523,-160.06725469,-104.02949750,97.04453596
-0.75540403,13.84590408,38.53056993,-0.81023070,-0.56356735,3.07978075

>  <Name>
ligand

>  <RI>
0

>  <Rbt.Current_Directory>
/home/itssahil/PROJECTS/Mol_Feturizer/New_Systems/rnas/4GPY

>  <Rbt.Executable>
rbdock ($Id: //depot/dev/client3/rdock/2013.1/src/exe/rbdock.cxx#4 $)

>  <Rbt.Library>
libRbt.so (2013.1, Build901 2013/11/27)

>  <Rbt.Parameter_File>
/export/apps/rDock/src/rDock_2013.1_src/data/scripts/dock_solv.prm

>  <Rbt.Receptor>
prm/pocket_docking_7.prm

>  <SCORE>
-17.6939

>  <SCORE.INTER>
-16.448

>  <SCORE.INTER.CONST>
1

>  <SCORE.INTER.POLAR>
0

>  <SCORE.INTER.ROT>
6

>  <SCORE.INTER.SOLV>
20.3265

>  <SCORE.INTER.VDW>
-25.3408

>  <SCORE.INTER.norm>
-0.53058

>  <SCORE.INTRA>
-1.24594

>  <SCORE.INTRA.DIHEDRAL>
-3.34077

>  <SCORE.INTRA.DIHEDRAL.0>
14.7001

>  <SCORE.INTRA.POLAR>
0

>  <SCORE.INTRA.POLAR.0>
0

>  <SCORE.INTRA.REPUL>
0.00243306

>  <SCORE.INTRA.REPUL.0>
0

>  <SCORE.INTRA.SOLV>
-0.0907758

>  <SCORE.INTRA.SOLV.lig_0>
-65.3082

>  <SCORE.INTRA.VDW>
0.457664

>  <SCORE.INTRA.VDW.0>
-4.21408

>  <SCORE.INTRA.norm>
-0.0401917

>  <SCORE.RESTR>
0

>  <SCORE.RESTR.CAVITY>
0

>  <SCORE.RESTR.norm>
0

>  <SCORE.SYSTEM>
0

>  <SCORE.SYSTEM.CONST>
0

>  <SCORE.SYSTEM.DIHEDRAL>
0

>  <SCORE.SYSTEM.SOLV>
0

>  <SCORE.SYSTEM.norm>
0

>  <SCORE.heavy>
31

>  <SCORE.norm>
-0.570772

>  <RMSD>
0.428

$$$$
ligand
 OpenBabel11021811493D
libRbt.so/2013.1/901 2013/11/27
 31 33  0  0  0  0  0  0  0  0999 V2000
    1.9924   14.9446   36.8561 C   0  0  2  0  0  0  0  0  0  0  0  0
    1.4254   15.5676   37.9926 O   0  0  0  0  0  0  0  0  0  0  0  0
   -2.2930   15.4894   40.0485 C   0  0  2  0  0  0  0  0  0  0  0  0
   -3.6976   15.5457   40.2738 N   0  0  0  0  0  0  0  0  0  0  0  0
   -3.6546   12.4218   39.3939 C   0  0  2  0  0  0  0  0  0  0  0  0
    3.5590   14.8128   37.0942 C   0  0  2  0  0  0  0  0  0  0  0  0
    3.7951   14.0470   38.3134 N   0  0  0  0  0  0  0  0  0  0  0  0
   -1.8395   16.8651   39.3843 C   0  0  0  0  0  0  0  0  0  0  0  0
   -3.8337   11.3827   40.5513 C   0  0  2  0  0  0  0  0  0  0  0  0
   -3.7685   12.0646   41.7858 O   0  0  0  0  0  0  0  0  0  0  0  0
    4.2266   16.2345   37.1793 C   0  0  0  0  0  0  0  0  0  0  0  0
   -0.2745   16.8085   39.1490 C   0  0  2  0  0  0  0  0  0  0  0  0
    0.1616   18.0690   38.5468 N   0  0  0  0  0  0  0  0  0  0  0  0
   -2.6879   10.3119   40.4420 C   0  0  1  0  0  0  0  0  0  0  0  0
   -2.8260    9.3116   41.5487 N   0  0  0  0  0  0  0  0  0  0  0  0
    3.6031   17.2419   36.1246 C   0  0  0  0  0  0  0  0  0  0  0  0
    0.0554   15.6014   38.1788 C   0  0  2  0  0  0  0  0  0  0  0  0
   -2.8153    9.5513   39.0091 C   0  0  1  0  0  0  0  0  0  0  0  0
   -4.0486    8.8801   38.8428 O   0  0  0  0  0  0  0  0  0  0  0  0
    2.4583   16.9457   35.4627 C   0  0  1  0  0  0  0  0  0  0  0  0
    1.7362   15.7319   35.6511 O   0  0  0  0  0  0  0  0  0  0  0  0
   -0.4214   14.2405   38.8377 C   0  0  2  0  0  0  0  0  0  0  0  0
   -0.1302   13.1489   37.9411 O   0  0  0  0  0  0  0  0  0  0  0  0
   -2.6764   10.5968   37.8622 C   0  0  0  0  0  0  0  0  0  0  0  0
   -3.6902   11.7120   38.0514 O   0  0  0  0  0  0  0  0  0  0  0  0
    1.8289   17.8800   34.4571 C   0  0  0  0  0  0  0  0  0  0  0  0
    0.6460   18.4222   35.0829 O   0  0  0  0  0  0  0  0  0  0  0  0
   -1.9782   14.3021   39.0778 C   0  0  1  0  0  0  0  0  0  0  0  0
   -2.3758   13.0890   39.6670 O   0  0  0  0  0  0  0  0  0  0  0  0
   -1.7481    8.4776   38.7599 C   0  0  0  0  0  0  0  0  0  0  0  0
   -2.1247    9.6304   42.8097 C   0  0  0  0  0  0  0  0  0  0  0  0
  1  2  1  1  0  0  0
  1  6  1  0  0  0  0
  1 21  1  0  0  0  0
  3  4  1  6  0  0  0
  3  8  1  0  0  0  0
  3 28  1  0  0  0  0
  5  9  1  0  0  0  0
  5 25  1  0  0  0  0
  5 29  1  1  0  0  0
  6  7  1  1  0  0  0
  6 11  1  0  0  0  0
  8 12  1  0  0  0  0
  9 10  1  1  0  0  0
  9 14  1  0  0  0  0
 11 16  1  0  0  0  0
 12 13  1  6  0  0  0
 12 17  1  0  0  0  0
 14 15  1  1  0  0  0
 14 18  1  0  0  0  0
 15 31  1  0  0  0  0
 16 20  1  0  0  0  0
 17  2  1  1  0  0  0
 17 22  1  0  0  0  0
 18 19  1  6  0  0  0
 18 24  1  0  0  0  0
 18 30  1  0  0  0  0
 20 21  1  0  0  0  0
 20 26  1  1  0  0  0
 22 23  1  6  0  0  0
 22 28  1  0  0  0  0
 24 25  1  0  0  0  0
 26 27  1  0  0  0  0
 28 29  1  1  0  0  0
M  END
>  <CHROM.1>
-168.35023680,-163.75524316,-89.38020529,-157.45832201,-107.60727907,97.04865066
-0.70837823,13.82588790,38.51881865,-0.81931118,-0.54260450,3.06486321

>  <Name>
ligand

>  <RI>
0

>  <Rbt.Current_Directory>
/home/itssahil/PROJECTS/Mol_Feturizer/New_Systems/rnas/4GPY

>  <Rbt.Executable>
rbdock ($Id: //depot/dev/client3/rdock/2013.1/src/exe/rbdock.cxx#4 $)

>  <Rbt.Library>
libRbt.so (2013.1, Build901 2013/11/27)

>  <Rbt.Parameter_File>
/export/apps/rDock/src/rDock_2013.1_src/data/scripts/dock_solv.prm

>  <Rbt.Receptor>
prm/pocket_docking_4.prm

>  <SCORE>
-17.6515

>  <SCORE.INTER>
-16.3246

>  <SCORE.INTER.CONST>
1

>  <SCORE.INTER.POLAR>
0

>  <SCORE.INTER.ROT>
6

>  <SCORE.INTER.SOLV>
20.1518

>  <SCORE.INTER.VDW>
-25.2003

>  <SCORE.INTER.norm>
-0.526601

>  <SCORE.INTRA>
-1.33888

>  <SCORE.INTRA.DIHEDRAL>
-3.24188

>  <SCORE.INTRA.DIHEDRAL.0>
14.7001

>  <SCORE.INTRA.POLAR>
0

>  <SCORE.INTRA.POLAR.0>
0

>  <SCORE.INTRA.REPUL>
0.00035752

>  <SCORE.INTRA.REPUL.0>
0

>  <SCORE.INTRA.SOLV>
0.119779

>  <SCORE.INTRA.SOLV.lig_0>
-65.3082

>  <SCORE.INTRA.VDW>
0.220378

>  <SCORE.INTRA.VDW.0>
-4.21408

>  <SCORE.INTRA.norm>
-0.0431898

>  <SCORE.RESTR>
0.011994

>  <SCORE.RESTR.CAVITY>
0.011994

>  <SCORE.RESTR.norm>
0.000386904

>  <SCORE.SYSTEM>
0

>  <SCORE.SYSTEM.CONST>
0

>  <SCORE.SYSTEM.DIHEDRAL>
0

>  <SCORE.SYSTEM.SOLV>
0

>  <SCORE.SYSTEM.norm>
0

>  <SCORE.heavy>
31

>  <SCORE.norm>
-0.569404

>  <RMSD>
0.430

$$$$
ligand
 OpenBabel11021811493D
libRbt.so/2013.1/901 2013/11/27
 31 33  0  0  0  0  0  0  0  0999 V2000
    2.0321   14.9793   36.8271 C   0  0  2  0  0  0  0  0  0  0  0  0
    1.4563   15.5875   37.9672 O   0  0  0  0  0  0  0  0  0  0  0  0
   -2.2730   15.4906   40.0026 C   0  0  2  0  0  0  0  0  0  0  0  0
   -3.6791   15.5397   40.2201 N   0  0  0  0  0  0  0  0  0  0  0  0
   -3.6283   12.4316   39.3654 C   0  0  2  0  0  0  0  0  0  0  0  0
    3.6012   14.8748   37.0616 C   0  0  2  0  0  0  0  0  0  0  0  0
    3.8535   14.1085   38.2772 N   0  0  0  0  0  0  0  0  0  0  0  0
   -1.8229   16.8685   39.3404 C   0  0  0  0  0  0  0  0  0  0  0  0
   -3.8091   11.4082   40.5364 C   0  0  2  0  0  0  0  0  0  0  0  0
   -3.7285   12.1042   41.7621 O   0  0  0  0  0  0  0  0  0  0  0  0
    4.2434   16.3079   37.1511 C   0  0  0  0  0  0  0  0  0  0  0  0
   -0.2564   16.8198   39.1138 C   0  0  2  0  0  0  0  0  0  0  0  0
    0.1765   18.0824   38.5136 N   0  0  0  0  0  0  0  0  0  0  0  0
   -2.6743   10.3252   40.4319 C   0  0  1  0  0  0  0  0  0  0  0  0
   -2.8141    9.3396   41.5515 N   0  0  0  0  0  0  0  0  0  0  0  0
    3.5997   17.3082   36.1017 C   0  0  0  0  0  0  0  0  0  0  0  0
    0.0851   15.6143   38.1458 C   0  0  2  0  0  0  0  0  0  0  0  0
   -2.8193    9.5488   39.0092 C   0  0  1  0  0  0  0  0  0  0  0  0
   -4.0602    8.8876   38.8597 O   0  0  0  0  0  0  0  0  0  0  0  0
    2.4591   16.9940   35.4408 C   0  0  1  0  0  0  0  0  0  0  0  0
    1.7593   15.7667   35.6258 O   0  0  0  0  0  0  0  0  0  0  0  0
   -0.3883   14.2510   38.8025 C   0  0  2  0  0  0  0  0  0  0  0  0
   -0.0865   13.1607   37.9078 O   0  0  0  0  0  0  0  0  0  0  0  0
   -2.6786   10.5791   37.8488 C   0  0  0  0  0  0  0  0  0  0  0  0
   -3.6803   11.7062   38.0317 O   0  0  0  0  0  0  0  0  0  0  0  0
    1.8109   17.9208   34.4402 C   0  0  0  0  0  0  0  0  0  0  0  0
    0.6327   18.4578   35.0793 O   0  0  0  0  0  0  0  0  0  0  0  0
   -1.9466   14.3047   39.0340 C   0  0  1  0  0  0  0  0  0  0  0  0
   -2.3413   13.0897   39.6214 O   0  0  0  0  0  0  0  0  0  0  0  0
   -1.7643    8.4619   38.7654 C   0  0  0  0  0  0  0  0  0  0  0  0
   -2.1166    9.6761   42.8099 C   0  0  0  0  0  0  0  0  0  0  0  0
  1  2  1  1  0  0  0
  1  6  1  0  0  0  0
  1 21  1  0  0  0  0
  3  4  1  6  0  0  0
  3  8  1  0  0  0  0
  3 28  1  0  0  0  0
  5  9  1  0  0  0  0
  5 25  1  0  0  0  0
  5 29  1  1  0  0  0
  6  7  1  1  0  0  0
  6 11  1  0  0  0  0
  8 12  1  0  0  0  0
  9 10  1  1  0  0  0
  9 14  1  0  0  0  0
 11 16  1  0  0  0  0
 12 13  1  6  0  0  0
 12 17  1  0  0  0  0
 14 15  1  1  0  0  0
 14 18  1  0  0  0  0
 15 31  1  0  0  0  0
 16 20  1  0  0  0  0
 17  2  1  1  0  0  0
 17 22  1  0  0  0  0
 18 19  1  6  0  0  0
 18 24  1  0  0  0  0
 18 30  1  0  0  0  0
 20 21  1  0  0  0  0
 20 26  1  1  0  0  0
 22 23  1  6  0  0  0
 22 28  1  0  0  0  0
 24 25  1  0  0  0  0
 26 27  1  0  0  0  0
 28 29  1  1  0  0  0
M  END
>  <CHROM.1>
-169.37221100,-162.50846924,-88.53978126,-156.79206004,-106.60078740,95.55897147
-0.69113654,13.84737339,38.49559523,-0.82487569,-0.53568450,3.05759251

>  <Name>
ligand

>  <RI>
0

>  <Rbt.Current_Directory>
/home/itssahil/PROJECTS/Mol_Feturizer/New_Systems/rnas/4GPY

>  <Rbt.Executable>
rbdock ($Id: //depot/dev/client3/rdock/2013.1/src/exe/rbdock.cxx#4 $)

>  <Rbt.Library>
libRbt.so (2013.1, Build901 2013/11/27)

>  <Rbt.Parameter_File>
/export/apps/rDock/src/rDock_2013.1_src/data/scripts/dock_solv.prm

>  <Rbt.Receptor>
prm/pocket_docking_4.prm

>  <SCORE>
-17.6594

>  <SCORE.INTER>
-16.3577

>  <SCORE.INTER.CONST>
1

>  <SCORE.INTER.POLAR>
0

>  <SCORE.INTER.ROT>
6

>  <SCORE.INTER.SOLV>
20.247

>  <SCORE.INTER.VDW>
-25.2542

>  <SCORE.INTER.norm>
-0.527669

>  <SCORE.INTRA>
-1.30172

>  <SCORE.INTRA.DIHEDRAL>
-3.30917

>  <SCORE.INTRA.DIHEDRAL.0>
14.7001

>  <SCORE.INTRA.POLAR>
0

>  <SCORE.INTRA.POLAR.0>
0

>  <SCORE.INTRA.REPUL>
0.000523926

>  <SCORE.INTRA.REPUL.0>
0

>  <SCORE.INTRA.SOLV>
0.224301

>  <SCORE.INTRA.SOLV.lig_0>
-65.3082

>  <SCORE.INTRA.VDW>
0.238098

>  <SCORE.INTRA.VDW.0>
-4.21408

>  <SCORE.INTRA.norm>
-0.0419909

>  <SCORE.RESTR>
0

>  <SCORE.RESTR.CAVITY>
0

>  <SCORE.RESTR.norm>
0

>  <SCORE.SYSTEM>
0

>  <SCORE.SYSTEM.CONST>
0

>  <SCORE.SYSTEM.DIHEDRAL>
0

>  <SCORE.SYSTEM.SOLV>
0

>  <SCORE.SYSTEM.norm>
0

>  <SCORE.heavy>
31

>  <SCORE.norm>
-0.56966

>  <RMSD>
0.432

$$$$
ligand
 OpenBabel11021811493D
libRbt.so/2013.1/901 2013/11/27
 31 33  0  0  0  0  0  0  0  0999 V2000
    2.0033   14.9576   36.8316 C   0  0  2  0  0  0  0  0  0  0  0  0
    1.4384   15.5580   37.9813 O   0  0  0  0  0  0  0  0  0  0  0  0
   -2.2803   15.4883   40.0371 C   0  0  2  0  0  0  0  0  0  0  0  0
   -3.6849   15.5471   40.2621 N   0  0  0  0  0  0  0  0  0  0  0  0
   -3.6506   12.4268   39.3946 C   0  0  2  0  0  0  0  0  0  0  0  0
    3.5733   14.8423   37.0547 C   0  0  2  0  0  0  0  0  0  0  0  0
    3.8294   14.0629   38.2612 N   0  0  0  0  0  0  0  0  0  0  0  0
   -1.8247   16.8624   39.3707 C   0  0  0  0  0  0  0  0  0  0  0  0
   -3.8293   11.3914   40.5553 C   0  0  2  0  0  0  0  0  0  0  0  0
   -3.7535   12.0758   41.7878 O   0  0  0  0  0  0  0  0  0  0  0  0
    4.2240   16.2709   37.1536 C   0  0  0  0  0  0  0  0  0  0  0  0
   -0.2598   16.8031   39.1357 C   0  0  2  0  0  0  0  0  0  0  0  0
    0.1782   18.0620   38.5316 N   0  0  0  0  0  0  0  0  0  0  0  0
   -2.6900   10.3140   40.4423 C   0  0  1  0  0  0  0  0  0  0  0  0
   -2.8278    9.3170   41.5521 N   0  0  0  0  0  0  0  0  0  0  0  0
    3.5790   17.2847   36.1182 C   0  0  0  0  0  0  0  0  0  0  0  0
    0.0684   15.5941   38.1673 C   0  0  2  0  0  0  0  0  0  0  0  0
   -2.8295    9.5508   39.0119 C   0  0  1  0  0  0  0  0  0  0  0  0
   -4.0675    8.8862   38.8539 O   0  0  0  0  0  0  0  0  0  0  0  0
    2.4323   16.9832   35.4619 C   0  0  1  0  0  0  0  0  0  0  0  0
    1.7270   15.7580   35.6397 O   0  0  0  0  0  0  0  0  0  0  0  0
   -0.4105   14.2348   38.8283 C   0  0  2  0  0  0  0  0  0  0  0  0
   -0.1208   13.1415   37.9333 O   0  0  0  0  0  0  0  0  0  0  0  0
   -2.6910   10.5928   37.8618 C   0  0  0  0  0  0  0  0  0  0  0  0
   -3.6975   11.7141   38.0539 O   0  0  0  0  0  0  0  0  0  0  0  0
    1.7827   17.9232   34.4746 C   0  0  0  0  0  0  0  0  0  0  0  0
    0.5985   18.4418   35.1176 O   0  0  0  0  0  0  0  0  0  0  0  0
   -1.9672   14.2991   39.0681 C   0  0  1  0  0  0  0  0  0  0  0  0
   -2.3667   13.0875   39.6592 O   0  0  0  0  0  0  0  0  0  0  0  0
   -1.7698    8.4706   38.7594 C   0  0  0  0  0  0  0  0  0  0  0  0
   -2.1981    9.6796   42.8387 C   0  0  0  0  0  0  0  0  0  0  0  0
  1  2  1  1  0  0  0
  1  6  1  0  0  0  0
  1 21  1  0  0  0  0
  3  4  1  6  0  0  0
  3  8  1  0  0  0  0
  3 28  1  0  0  0  0
  5  9  1  0  0  0  0
  5 25  1  0  0  0  0
  5 29  1  1  0  0  0
  6  7  1  1  0  0  0
  6 11  1  0  0  0  0
  8 12  1  0  0  0  0
  9 10  1  1  0  0  0
  9 14  1  0  0  0  0
 11 16  1  0  0  0  0
 12 13  1  6  0  0  0
 12 17  1  0  0  0  0
 14 15  1  1  0  0  0
 14 18  1  0  0  0  0
 15 31  1  0  0  0  0
 16 20  1  0  0  0  0
 17  2  1  1  0  0  0
 17 22  1  0  0  0  0
 18 19  1  6  0  0  0
 18 24  1  0  0  0  0
 18 30  1  0  0  0  0
 20 21  1  0  0  0  0
 20 26  1  1  0  0  0
 22 23  1  6  0  0  0
 22 28  1  0  0  0  0
 24 25  1  0  0  0  0
 26 27  1  0  0  0  0
 28 29  1  1  0  0  0
M  END
>  <CHROM.1>
-169.56737604,-163.54807261,-85.19626758,-156.08794093,-107.61634851,96.57433712
-0.71169685,13.83539410,38.51357414,-0.81928542,-0.54399420,3.06581532

>  <Name>
ligand

>  <RI>
0

>  <Rbt.Current_Directory>
/home/itssahil/PROJECTS/Mol_Feturizer/New_Systems/rnas/4GPY

>  <Rbt.Executable>
rbdock ($Id: //depot/dev/client3/rdock/2013.1/src/exe/rbdock.cxx#4 $)

>  <Rbt.Library>
libRbt.so (2013.1, Build901 2013/11/27)

>  <Rbt.Parameter_File>
/export/apps/rDock/src/rDock_2013.1_src/data/scripts/dock_solv.prm

>  <Rbt.Receptor>
prm/pocket_docking_4.prm

>  <SCORE>
-17.6544

>  <SCORE.INTER>
-16.4539

>  <SCORE.INTER.CONST>
1

>  <SCORE.INTER.POLAR>
0

>  <SCORE.INTER.ROT>
6

>  <SCORE.INTER.SOLV>
20.1863

>  <SCORE.INTER.VDW>
-25.298

>  <SCORE.INTER.norm>
-0.530771

>  <SCORE.INTRA>
-1.20046

>  <SCORE.INTRA.DIHEDRAL>
-3.30929

>  <SCORE.INTRA.DIHEDRAL.0>
14.7001

>  <SCORE.INTRA.POLAR>
0

>  <SCORE.INTRA.POLAR.0>
0

>  <SCORE.INTRA.REPUL>
0

>  <SCORE.INTRA.REPUL.0>
0

>  <SCORE.INTRA.SOLV>
0.275243

>  <SCORE.INTRA.SOLV.lig_0>
-65.3082

>  <SCORE.INTRA.VDW>
0.316565

>  <SCORE.INTRA.VDW.0>
-4.21408

>  <SCORE.INTRA.norm>
-0.0387245

>  <SCORE.RESTR>
0

>  <SCORE.RESTR.CAVITY>
0

>  <SCORE.RESTR.norm>
0

>  <SCORE.SYSTEM>
0

>  <SCORE.SYSTEM.CONST>
0

>  <SCORE.SYSTEM.DIHEDRAL>
0

>  <SCORE.SYSTEM.SOLV>
0

>  <SCORE.SYSTEM.norm>
0

>  <SCORE.heavy>
31

>  <SCORE.norm>
-0.569496

>  <RMSD>
0.433

$$$$
ligand
 OpenBabel11021811493D
libRbt.so/2013.1/901 2013/11/27
 31 33  0  0  0  0  0  0  0  0999 V2000
    2.0137   14.9560   36.8111 C   0  0  2  0  0  0  0  0  0  0  0  0
    1.4478   15.5732   37.9513 O   0  0  0  0  0  0  0  0  0  0  0  0
   -2.2700   15.4925   40.0083 C   0  0  2  0  0  0  0  0  0  0  0  0
   -3.6745   15.5493   40.2342 N   0  0  0  0  0  0  0  0  0  0  0  0
   -3.6413   12.4361   39.3580 C   0  0  2  0  0  0  0  0  0  0  0  0
    3.5842   14.8489   37.0350 C   0  0  2  0  0  0  0  0  0  0  0  0
    3.8433   14.0898   38.2537 N   0  0  0  0  0  0  0  0  0  0  0  0
   -1.8155   16.8697   39.3477 C   0  0  0  0  0  0  0  0  0  0  0  0
   -3.8321   11.4184   40.5324 C   0  0  2  0  0  0  0  0  0  0  0  0
   -3.7590   12.1199   41.7554 O   0  0  0  0  0  0  0  0  0  0  0  0
    4.2308   16.2808   37.1103 C   0  0  0  0  0  0  0  0  0  0  0  0
   -0.2507   16.8123   39.1117 C   0  0  2  0  0  0  0  0  0  0  0  0
    0.1863   18.0741   38.5129 N   0  0  0  0  0  0  0  0  0  0  0  0
   -2.6984   10.3331   40.4411 C   0  0  1  0  0  0  0  0  0  0  0  0
   -2.8478    9.3529   41.5642 N   0  0  0  0  0  0  0  0  0  0  0  0
    3.5822   17.2758   36.0590 C   0  0  0  0  0  0  0  0  0  0  0  0
    0.0779   15.6077   38.1381 C   0  0  2  0  0  0  0  0  0  0  0  0
   -2.8346    9.5503   39.0210 C   0  0  1  0  0  0  0  0  0  0  0  0
   -4.0755    8.8904   38.8658 O   0  0  0  0  0  0  0  0  0  0  0  0
    2.4359   16.9604   35.4085 C   0  0  1  0  0  0  0  0  0  0  0  0
    1.7343   15.7362   35.6066 O   0  0  0  0  0  0  0  0  0  0  0  0
   -0.3999   14.2453   38.7934 C   0  0  2  0  0  0  0  0  0  0  0  0
   -0.1100   13.1560   37.8936 O   0  0  0  0  0  0  0  0  0  0  0  0
   -2.6839   10.5749   37.8569 C   0  0  0  0  0  0  0  0  0  0  0  0
   -3.6850   11.7045   38.0274 O   0  0  0  0  0  0  0  0  0  0  0  0
    1.7829   17.8823   34.4065 C   0  0  0  0  0  0  0  0  0  0  0  0
    0.6544   18.4850   35.0759 O   0  0  0  0  0  0  0  0  0  0  0  0
   -1.9565   14.3076   39.0341 C   0  0  1  0  0  0  0  0  0  0  0  0
   -2.3550   13.0932   39.6202 O   0  0  0  0  0  0  0  0  0  0  0  0
   -1.7797    8.4606   38.7897 C   0  0  0  0  0  0  0  0  0  0  0  0
   -2.1704    9.7010   42.8304 C   0  0  0  0  0  0  0  0  0  0  0  0
  1  2  1  1  0  0  0
  1  6  1  0  0  0  0
  1 21  1  0  0  0  0
  3  4  1  6  0  0  0
  3  8  1  0  0  0  0
  3 28  1  0  0  0  0
  5  9  1  0  0  0  0
  5 25  1  0  0  0  0
  5 29  1  1  0  0  0
  6  7  1  1  0  0  0
  6 11  1  0  0  0  0
  8 12  1  0  0  0  0
  9 10  1  1  0  0  0
  9 14  1  0  0  0  0
 11 16  1  0  0  0  0
 12 13  1  6  0  0  0
 12 17  1  0  0  0  0
 14 15  1  1  0  0  0
 14 18  1  0  0  0  0
 15 31  1  0  0  0  0
 16 20  1  0  0  0  0
 17  2  1  1  0  0  0
 17 22  1  0  0  0  0
 18 19  1  6  0  0  0
 18 24  1  0  0  0  0
 18 30  1  0  0  0  0
 20 21  1  0  0  0  0
 20 26  1  1  0  0  0
 22 23  1  6  0  0  0
 22 28  1  0  0  0  0
 24 25  1  0  0  0  0
 26 27  1  0  0  0  0
 28 29  1  1  0  0  0
M  END
>  <CHROM.1>
-169.52995173,-162.23388974,-87.92026184,-157.28819359,-103.40709396,96.27786253
-0.70439134,13.84255770,38.48947658,-0.81706762,-0.54658786,3.06491648

>  <Name>
ligand

>  <RI>
0

>  <Rbt.Current_Directory>
/home/itssahil/PROJECTS/Mol_Feturizer/New_Systems/rnas/4GPY

>  <Rbt.Executable>
rbdock ($Id: //depot/dev/client3/rdock/2013.1/src/exe/rbdock.cxx#4 $)

>  <Rbt.Library>
libRbt.so (2013.1, Build901 2013/11/27)

>  <Rbt.Parameter_File>
/export/apps/rDock/src/rDock_2013.1_src/data/scripts/dock_solv.prm

>  <Rbt.Receptor>
prm/pocket_docking_4.prm

>  <SCORE>
-17.6931

>  <SCORE.INTER>
-16.4869

>  <SCORE.INTER.CONST>
1

>  <SCORE.INTER.POLAR>
0

>  <SCORE.INTER.ROT>
6

>  <SCORE.INTER.SOLV>
20.3449

>  <SCORE.INTER.VDW>
-25.3729

>  <SCORE.INTER.norm>
-0.531835

>  <SCORE.INTRA>
-1.20626

>  <SCORE.INTRA.DIHEDRAL>
-3.14781

>  <SCORE.INTRA.DIHEDRAL.0>
14.7001

>  <SCORE.INTRA.POLAR>
0

>  <SCORE.INTRA.POLAR.0>
0

>  <SCORE.INTRA.REPUL>
0.0025761

>  <SCORE.INTRA.REPUL.0>
0

>  <SCORE.INTRA.SOLV>
0.175957

>  <SCORE.INTRA.SOLV.lig_0>
-65.3082

>  <SCORE.INTRA.VDW>
0.266787

>  <SCORE.INTRA.VDW.0>
-4.21408

>  <SCORE.INTRA.norm>
-0.0389115

>  <SCORE.RESTR>
0

>  <SCORE.RESTR.CAVITY>
0

>  <SCORE.RESTR.norm>
0

>  <SCORE.SYSTEM>
0

>  <SCORE.SYSTEM.CONST>
0

>  <SCORE.SYSTEM.DIHEDRAL>
0

>  <SCORE.SYSTEM.SOLV>
0

>  <SCORE.SYSTEM.norm>
0

>  <SCORE.heavy>
31

>  <SCORE.norm>
-0.570747

>  <RMSD>
0.438

$$$$
ligand
 OpenBabel11021811493D
libRbt.so/2013.1/901 2013/11/27
 31 33  0  0  0  0  0  0  0  0999 V2000
    2.0039   15.0227   36.9187 C   0  0  2  0  0  0  0  0  0  0  0  0
    1.4057   15.7094   38.0012 O   0  0  0  0  0  0  0  0  0  0  0  0
   -2.3161   15.4549   40.0368 C   0  0  2  0  0  0  0  0  0  0  0  0
   -3.7224   15.4647   40.2579 N   0  0  0  0  0  0  0  0  0  0  0  0
   -3.6170   12.4062   39.3133 C   0  0  2  0  0  0  0  0  0  0  0  0
    3.5737   14.9788   37.1677 C   0  0  2  0  0  0  0  0  0  0  0  0
    3.8376   14.3239   38.4445 N   0  0  0  0  0  0  0  0  0  0  0  0
   -1.8981   16.8658   39.4252 C   0  0  0  0  0  0  0  0  0  0  0  0
   -3.7975   11.3894   40.4901 C   0  0  2  0  0  0  0  0  0  0  0  0
   -3.7206   12.0929   41.7117 O   0  0  0  0  0  0  0  0  0  0  0  0
    4.1788   16.4304   37.1391 C   0  0  0  0  0  0  0  0  0  0  0  0
   -0.3314   16.8604   39.1948 C   0  0  2  0  0  0  0  0  0  0  0  0
    0.0722   18.1535   38.6409 N   0  0  0  0  0  0  0  0  0  0  0  0
   -2.6601   10.3084   40.3941 C   0  0  1  0  0  0  0  0  0  0  0  0
   -2.7996    9.3291   41.5194 N   0  0  0  0  0  0  0  0  0  0  0  0
    3.5166   17.3222   36.0067 C   0  0  0  0  0  0  0  0  0  0  0  0
    0.0347   15.6991   38.1826 C   0  0  2  0  0  0  0  0  0  0  0  0
   -2.8009    9.5231   38.9758 C   0  0  1  0  0  0  0  0  0  0  0  0
   -4.0400    8.8582   38.8282 O   0  0  0  0  0  0  0  0  0  0  0  0
    2.3885   16.9244   35.3698 C   0  0  1  0  0  0  0  0  0  0  0  0
    1.7189   15.6993   35.6543 O   0  0  0  0  0  0  0  0  0  0  0  0
   -0.4069   14.3025   38.7893 C   0  0  2  0  0  0  0  0  0  0  0  0
   -0.0831   13.2528   37.8547 O   0  0  0  0  0  0  0  0  0  0  0  0
   -2.6605   10.5467   37.8095 C   0  0  0  0  0  0  0  0  0  0  0  0
   -3.6650   11.6726   37.9839 O   0  0  0  0  0  0  0  0  0  0  0  0
    1.7234   17.7469   34.2922 C   0  0  0  0  0  0  0  0  0  0  0  0
    1.6453   19.0983   34.7948 O   0  0  0  0  0  0  0  0  0  0  0  0
   -1.9656   14.3129   39.0247 C   0  0  1  0  0  0  0  0  0  0  0  0
   -2.3319   13.0687   39.5676 O   0  0  0  0  0  0  0  0  0  0  0  0
   -1.7430    8.4372   38.7404 C   0  0  0  0  0  0  0  0  0  0  0  0
   -2.1199    9.6835   42.7826 C   0  0  0  0  0  0  0  0  0  0  0  0
  1  2  1  1  0  0  0
  1  6  1  0  0  0  0
  1 21  1  0  0  0  0
  3  4  1  6  0  0  0
  3  8  1  0  0  0  0
  3 28  1  0  0  0  0
  5  9  1  0  0  0  0
  5 25  1  0  0  0  0
  5 29  1  1  0  0  0
  6  7  1  1  0  0  0
  6 11  1  0  0  0  0
  8 12  1  0  0  0  0
  9 10  1  1  0  0  0
  9 14  1  0  0  0  0
 11 16  1  0  0  0  0
 12 13  1  6  0  0  0
 12 17  1  0  0  0  0
 14 15  1  1  0  0  0
 14 18  1  0  0  0  0
 15 31  1  0  0  0  0
 16 20  1  0  0  0  0
 17  2  1  1  0  0  0
 17 22  1  0  0  0  0
 18 19  1  6  0  0  0
 18 24  1  0  0  0  0
 18 30  1  0  0  0  0
 20 21  1  0  0  0  0
 20 26  1  1  0  0  0
 22 23  1  6  0  0  0
 22 28  1  0  0  0  0
 24 25  1  0  0  0  0
 26 27  1  0  0  0  0
 28 29  1  1  0  0  0
M  END
>  <CHROM.1>
-168.39567941,-159.26407036,-87.75676963,-164.18702303,-47.13226899,94.12206462
-0.67725393,13.88027465,38.48263415,-0.80416579,-0.58157499,3.11049423

>  <Name>
ligand

>  <RI>
0

>  <Rbt.Current_Directory>
/home/itssahil/PROJECTS/Mol_Feturizer/New_Systems/rnas/4GPY

>  <Rbt.Executable>
rbdock ($Id: //depot/dev/client3/rdock/2013.1/src/exe/rbdock.cxx#4 $)

>  <Rbt.Library>
libRbt.so (2013.1, Build901 2013/11/27)

>  <Rbt.Parameter_File>
/export/apps/rDock/src/rDock_2013.1_src/data/scripts/dock_solv.prm

>  <Rbt.Receptor>
prm/pocket_docking_2.prm

>  <SCORE>
-16.6125

>  <SCORE.INTER>
-15.9579

>  <SCORE.INTER.CONST>
1

>  <SCORE.INTER.POLAR>
0

>  <SCORE.INTER.ROT>
6

>  <SCORE.INTER.SOLV>
20.0842

>  <SCORE.INTER.VDW>
-24.9334

>  <SCORE.INTER.norm>
-0.514772

>  <SCORE.INTRA>
-0.654581

>  <SCORE.INTRA.DIHEDRAL>
-2.67888

>  <SCORE.INTRA.DIHEDRAL.0>
14.7001

>  <SCORE.INTRA.POLAR>
0

>  <SCORE.INTRA.POLAR.0>
0

>  <SCORE.INTRA.REPUL>
0

>  <SCORE.INTRA.REPUL.0>
0

>  <SCORE.INTRA.SOLV>
-0.893902

>  <SCORE.INTRA.SOLV.lig_0>
-65.3082

>  <SCORE.INTRA.VDW>
1.13181

>  <SCORE.INTRA.VDW.0>
-4.21408

>  <SCORE.INTRA.norm>
-0.0211155

>  <SCORE.RESTR>
0

>  <SCORE.RESTR.CAVITY>
0

>  <SCORE.RESTR.norm>
0

>  <SCORE.SYSTEM>
0

>  <SCORE.SYSTEM.CONST>
0

>  <SCORE.SYSTEM.DIHEDRAL>
0

>  <SCORE.SYSTEM.SOLV>
0

>  <SCORE.SYSTEM.norm>
0

>  <SCORE.heavy>
31

>  <SCORE.norm>
-0.535888

>  <RMSD>
0.471

$$$$
ligand
 OpenBabel11021811493D
libRbt.so/2013.1/901 2013/11/27
 31 33  0  0  0  0  0  0  0  0999 V2000
    2.0415   14.6839   36.7320 C   0  0  2  0  0  0  0  0  0  0  0  0
    1.4866   15.1839   37.9334 O   0  0  0  0  0  0  0  0  0  0  0  0
   -2.2561   15.3316   39.9410 C   0  0  2  0  0  0  0  0  0  0  0  0
   -3.6596   15.4554   40.1456 N   0  0  0  0  0  0  0  0  0  0  0  0
   -3.7023   12.2573   39.3027 C   0  0  2  0  0  0  0  0  0  0  0  0
    3.6147   14.5620   36.9271 C   0  0  2  0  0  0  0  0  0  0  0  0
    3.8900   13.6882   38.0625 N   0  0  0  0  0  0  0  0  0  0  0  0
   -1.7355   16.6645   39.2397 C   0  0  0  0  0  0  0  0  0  0  0  0
   -3.9682   11.2663   40.4853 C   0  0  2  0  0  0  0  0  0  0  0  0
   -3.9789   11.9962   41.6937 O   0  0  0  0  0  0  0  0  0  0  0  0
    4.2576   15.9823   37.1354 C   0  0  0  0  0  0  0  0  0  0  0  0
   -0.1717   16.5332   39.0272 C   0  0  2  0  0  0  0  0  0  0  0  0
    0.3258   17.7538   38.3913 N   0  0  0  0  0  0  0  0  0  0  0  0
   -2.8279   10.1841   40.4951 C   0  0  1  0  0  0  0  0  0  0  0  0
   -3.0491    9.2295   41.6284 N   0  0  0  0  0  0  0  0  0  0  0  0
    3.5940   17.0729   36.1940 C   0  0  0  0  0  0  0  0  0  0  0  0
    0.1172   15.2825   38.1002 C   0  0  2  0  0  0  0  0  0  0  0  0
   -2.8668    9.3681   39.0878 C   0  0  1  0  0  0  0  0  0  0  0  0
   -4.0927    8.6993   38.8657 O   0  0  0  0  0  0  0  0  0  0  0  0
    2.4415   16.8180   35.5283 C   0  0  1  0  0  0  0  0  0  0  0  0
    1.7460   15.5773   35.6130 O   0  0  0  0  0  0  0  0  0  0  0  0
   -0.4260   13.9652   38.7954 C   0  0  2  0  0  0  0  0  0  0  0  0
   -0.1717   12.8338   37.9377 O   0  0  0  0  0  0  0  0  0  0  0  0
   -2.6417   10.3661   37.9127 C   0  0  0  0  0  0  0  0  0  0  0  0
   -3.6551   11.4949   37.9897 O   0  0  0  0  0  0  0  0  0  0  0  0
    1.7743   17.8310   34.6289 C   0  0  0  0  0  0  0  0  0  0  0  0
    0.5905   18.2809   35.3223 O   0  0  0  0  0  0  0  0  0  0  0  0
   -1.9814   14.1013   39.0126 C   0  0  1  0  0  0  0  0  0  0  0  0
   -2.4383   12.9260   39.6346 O   0  0  0  0  0  0  0  0  0  0  0  0
   -1.7958    8.2779   38.9529 C   0  0  0  0  0  0  0  0  0  0  0  0
   -2.4807    9.6222   42.9346 C   0  0  0  0  0  0  0  0  0  0  0  0
  1  2  1  1  0  0  0
  1  6  1  0  0  0  0
  1 21  1  0  0  0  0
  3  4  1  6  0  0  0
  3  8  1  0  0  0  0
  3 28  1  0  0  0  0
  5  9  1  0  0  0  0
  5 25  1  0  0  0  0
  5 29  1  1  0  0  0
  6  7  1  1  0  0  0
  6 11  1  0  0  0  0
  8 12  1  0  0  0  0
  9 10  1  1  0  0  0
  9 14  1  0  0  0  0
 11 16  1  0  0  0  0
 12 13  1  6  0  0  0
 12 17  1  0  0  0  0
 14 15  1  1  0  0  0
 14 18  1  0  0  0  0
 15 31  1  0  0  0  0
 16 20  1  0  0  0  0
 17  2  1  1  0  0  0
 17 22  1  0  0  0  0
 18 19  1  6  0  0  0
 18 24  1  0  0  0  0
 18 30  1  0  0  0  0
 20 21  1  0  0  0  0
 20 26  1  1  0  0  0
 22 23  1  6  0  0  0
 22 28  1  0  0  0  0
 24 25  1  0  0  0  0
 26 27  1  0  0  0  0
 28 29  1  1  0  0  0
M  END
>  <CHROM.1>
-174.17570660,-164.71749499,-86.80066291,-147.74297987,-107.94037672,101.22287193
-0.73028023,13.63146426,38.49767435,-0.81179566,-0.51907670,3.04738388

>  <Name>
ligand

>  <RI>
0

>  <Rbt.Current_Directory>
/home/itssahil/PROJECTS/Mol_Feturizer/New_Systems/rnas/4GPY

>  <Rbt.Executable>
rbdock ($Id: //depot/dev/client3/rdock/2013.1/src/exe/rbdock.cxx#4 $)

>  <Rbt.Library>
libRbt.so (2013.1, Build901 2013/11/27)

>  <Rbt.Parameter_File>
/export/apps/rDock/src/rDock_2013.1_src/data/scripts/dock_solv.prm

>  <Rbt.Receptor>
prm/pocket_docking_3.prm

>  <SCORE>
-16.7333

>  <SCORE.INTER>
-16.6481

>  <SCORE.INTER.CONST>
1

>  <SCORE.INTER.POLAR>
0

>  <SCORE.INTER.ROT>
6

>  <SCORE.INTER.SOLV>
20.1595

>  <SCORE.INTER.VDW>
-25.4186

>  <SCORE.INTER.norm>
-0.537036

>  <SCORE.INTRA>
-0.183773

>  <SCORE.INTRA.DIHEDRAL>
-1.45891

>  <SCORE.INTRA.DIHEDRAL.0>
14.7001

>  <SCORE.INTRA.POLAR>
0

>  <SCORE.INTRA.POLAR.0>
0

>  <SCORE.INTRA.REPUL>
0

>  <SCORE.INTRA.REPUL.0>
0

>  <SCORE.INTRA.SOLV>
1.07778

>  <SCORE.INTRA.SOLV.lig_0>
-65.3082

>  <SCORE.INTRA.VDW>
0.00679065

>  <SCORE.INTRA.VDW.0>
-4.21408

>  <SCORE.INTRA.norm>
-0.00592815

>  <SCORE.RESTR>
0.0986095

>  <SCORE.RESTR.CAVITY>
0.0986095

>  <SCORE.RESTR.norm>
0.00318095

>  <SCORE.SYSTEM>
0

>  <SCORE.SYSTEM.CONST>
0

>  <SCORE.SYSTEM.DIHEDRAL>
0

>  <SCORE.SYSTEM.SOLV>
0

>  <SCORE.SYSTEM.norm>
0

>  <SCORE.heavy>
31

>  <SCORE.norm>
-0.539783

>  <RMSD>
0.504

$$$$
ligand
 OpenBabel11021811493D
libRbt.so/2013.1/901 2013/11/27
 31 33  0  0  0  0  0  0  0  0999 V2000
    1.9529   14.9868   36.8846 C   0  0  2  0  0  0  0  0  0  0  0  0
    1.3777   15.6660   37.9841 O   0  0  0  0  0  0  0  0  0  0  0  0
   -2.3179   15.4807   40.0742 C   0  0  2  0  0  0  0  0  0  0  0  0
   -3.7211   15.5054   40.3138 N   0  0  0  0  0  0  0  0  0  0  0  0
   -3.6437   12.4194   39.4177 C   0  0  2  0  0  0  0  0  0  0  0  0
    3.5247   14.9163   37.1141 C   0  0  2  0  0  0  0  0  0  0  0  0
    3.7939   14.2388   38.3779 N   0  0  0  0  0  0  0  0  0  0  0  0
   -1.8982   16.8757   39.4281 C   0  0  0  0  0  0  0  0  0  0  0  0
   -3.8007   11.3954   40.5916 C   0  0  2  0  0  0  0  0  0  0  0  0
   -3.7063   12.0925   41.8157 O   0  0  0  0  0  0  0  0  0  0  0  0
    4.1507   16.3592   37.0995 C   0  0  0  0  0  0  0  0  0  0  0  0
   -0.3349   16.8540   39.1769 C   0  0  2  0  0  0  0  0  0  0  0  0
    0.0703   18.1325   38.5912 N   0  0  0  0  0  0  0  0  0  0  0  0
   -2.6609   10.3195   40.4708 C   0  0  1  0  0  0  0  0  0  0  0  0
   -2.7779    9.3335   41.5928 N   0  0  0  0  0  0  0  0  0  0  0  0
    3.4886   17.2772   35.9883 C   0  0  0  0  0  0  0  0  0  0  0  0
    0.0092   15.6695   38.1840 C   0  0  2  0  0  0  0  0  0  0  0  0
   -2.8221    9.5415   39.0507 C   0  0  1  0  0  0  0  0  0  0  0  0
   -4.0609    8.8725   38.9199 O   0  0  0  0  0  0  0  0  0  0  0  0
    2.3473   16.9054   35.3592 C   0  0  1  0  0  0  0  0  0  0  0  0
    1.6631   15.6861   35.6337 O   0  0  0  0  0  0  0  0  0  0  0  0
   -0.4341   14.2889   38.8252 C   0  0  2  0  0  0  0  0  0  0  0  0
   -0.1304   13.2179   37.9081 O   0  0  0  0  0  0  0  0  0  0  0  0
   -2.7050   10.5720   37.8880 C   0  0  0  0  0  0  0  0  0  0  0  0
   -3.7109   11.6930   38.0853 O   0  0  0  0  0  0  0  0  0  0  0  0
    1.6818   17.7535   34.3018 C   0  0  0  0  0  0  0  0  0  0  0  0
    1.9155   19.1298   34.6704 O   0  0  0  0  0  0  0  0  0  0  0  0
   -1.9894   14.3157   39.0812 C   0  0  1  0  0  0  0  0  0  0  0  0
   -2.3572   13.0856   39.6544 O   0  0  0  0  0  0  0  0  0  0  0  0
   -1.7640    8.4611   38.7917 C   0  0  0  0  0  0  0  0  0  0  0  0
   -2.1015    9.6964   42.8554 C   0  0  0  0  0  0  0  0  0  0  0  0
  1  2  1  1  0  0  0
  1  6  1  0  0  0  0
  1 21  1  0  0  0  0
  3  4  1  6  0  0  0
  3  8  1  0  0  0  0
  3 28  1  0  0  0  0
  5  9  1  0  0  0  0
  5 25  1  0  0  0  0
  5 29  1  1  0  0  0
  6  7  1  1  0  0  0
  6 11  1  0  0  0  0
  8 12  1  0  0  0  0
  9 10  1  1  0  0  0
  9 14  1  0  0  0  0
 11 16  1  0  0  0  0
 12 13  1  6  0  0  0
 12 17  1  0  0  0  0
 14 15  1  1  0  0  0
 14 18  1  0  0  0  0
 15 31  1  0  0  0  0
 16 20  1  0  0  0  0
 17  2  1  1  0  0  0
 17 22  1  0  0  0  0
 18 19  1  6  0  0  0
 18 24  1  0  0  0  0
 18 30  1  0  0  0  0
 20 21  1  0  0  0  0
 20 26  1  1  0  0  0
 22 23  1  6  0  0  0
 22 28  1  0  0  0  0
 24 25  1  0  0  0  0
 26 27  1  0  0  0  0
 28 29  1  1  0  0  0
M  END
>  <CHROM.1>
-168.19591353,-161.20627682,-86.56155681,-162.23032890,-33.57481578,94.91782832
-0.68847339,13.87419609,38.50923247,-0.79810546,-0.59422594,3.10477513

>  <Name>
ligand

>  <RI>
0

>  <Rbt.Current_Directory>
/home/itssahil/PROJECTS/Mol_Feturizer/New_Systems/rnas/4GPY

>  <Rbt.Executable>
rbdock ($Id: //depot/dev/client3/rdock/2013.1/src/exe/rbdock.cxx#4 $)

>  <Rbt.Library>
libRbt.so (2013.1, Build901 2013/11/27)

>  <Rbt.Parameter_File>
/export/apps/rDock/src/rDock_2013.1_src/data/scripts/dock_solv.prm

>  <Rbt.Receptor>
prm/pocket_docking_2.prm

>  <SCORE>
-16.5808

>  <SCORE.INTER>
-16.0071

>  <SCORE.INTER.CONST>
1

>  <SCORE.INTER.POLAR>
0

>  <SCORE.INTER.ROT>
6

>  <SCORE.INTER.SOLV>
19.9572

>  <SCORE.INTER.VDW>
-24.9238

>  <SCORE.INTER.norm>
-0.516358

>  <SCORE.INTRA>
-0.573663

>  <SCORE.INTRA.DIHEDRAL>
-3.15154

>  <SCORE.INTRA.DIHEDRAL.0>
14.7001

>  <SCORE.INTRA.POLAR>
0

>  <SCORE.INTRA.POLAR.0>
0

>  <SCORE.INTRA.REPUL>
0

>  <SCORE.INTRA.REPUL.0>
0

>  <SCORE.INTRA.SOLV>
-0.829677

>  <SCORE.INTRA.SOLV.lig_0>
-65.3082

>  <SCORE.INTRA.VDW>
1.41695

>  <SCORE.INTRA.VDW.0>
-4.21408

>  <SCORE.INTRA.norm>
-0.0185052

>  <SCORE.RESTR>
0

>  <SCORE.RESTR.CAVITY>
0

>  <SCORE.RESTR.norm>
0

>  <SCORE.SYSTEM>
0

>  <SCORE.SYSTEM.CONST>
0

>  <SCORE.SYSTEM.DIHEDRAL>
0

>  <SCORE.SYSTEM.SOLV>
0

>  <SCORE.SYSTEM.norm>
0

>  <SCORE.heavy>
31

>  <SCORE.norm>
-0.534863

>  <RMSD>
0.517

$$$$
ligand
 OpenBabel11021811493D
libRbt.so/2013.1/901 2013/11/27
 31 33  0  0  0  0  0  0  0  0999 V2000
    2.0384   14.6315   36.8103 C   0  0  2  0  0  0  0  0  0  0  0  0
    1.4814   15.1418   38.0064 O   0  0  0  0  0  0  0  0  0  0  0  0
   -2.2686   15.3788   39.9916 C   0  0  2  0  0  0  0  0  0  0  0  0
   -3.6718   15.5198   40.1861 N   0  0  0  0  0  0  0  0  0  0  0  0
   -3.7172   12.2751   39.4105 C   0  0  2  0  0  0  0  0  0  0  0  0
    3.6124   14.5201   37.0058 C   0  0  2  0  0  0  0  0  0  0  0  0
    3.8928   13.6604   38.1508 N   0  0  0  0  0  0  0  0  0  0  0  0
   -1.7340   16.6862   39.2537 C   0  0  0  0  0  0  0  0  0  0  0  0
   -3.9525   11.2461   40.5667 C   0  0  2  0  0  0  0  0  0  0  0  0
   -3.9762   11.9427   41.7945 O   0  0  0  0  0  0  0  0  0  0  0  0
    4.2478   15.9460   37.1982 C   0  0  0  0  0  0  0  0  0  0  0  0
   -0.1705   16.5360   39.0523 C   0  0  2  0  0  0  0  0  0  0  0  0
    0.3397   17.7333   38.3830 N   0  0  0  0  0  0  0  0  0  0  0  0
   -2.7850   10.1935   40.5429 C   0  0  1  0  0  0  0  0  0  0  0  0
   -2.9767    9.2034   41.6507 N   0  0  0  0  0  0  0  0  0  0  0  0
    3.5780   17.0227   36.2452 C   0  0  0  0  0  0  0  0  0  0  0  0
    0.1122   15.2563   38.1639 C   0  0  2  0  0  0  0  0  0  0  0  0
   -2.8095    9.4150   39.1141 C   0  0  1  0  0  0  0  0  0  0  0  0
   -4.0190    8.7215   38.8787 O   0  0  0  0  0  0  0  0  0  0  0  0
    2.4266   16.7542   35.5829 C   0  0  1  0  0  0  0  0  0  0  0  0
    1.7377   15.5109   35.6816 O   0  0  0  0  0  0  0  0  0  0  0  0
   -0.4447   13.9645   38.8951 C   0  0  2  0  0  0  0  0  0  0  0  0
   -0.1960   12.8062   38.0723 O   0  0  0  0  0  0  0  0  0  0  0  0
   -2.6152   10.4498   37.9656 C   0  0  0  0  0  0  0  0  0  0  0  0
   -3.6566   11.5499   38.0770 O   0  0  0  0  0  0  0  0  0  0  0  0
    1.7536   17.7537   34.6726 C   0  0  0  0  0  0  0  0  0  0  0  0
    0.5724   18.2115   35.3654 O   0  0  0  0  0  0  0  0  0  0  0  0
   -1.9999   14.1194   39.1011 C   0  0  1  0  0  0  0  0  0  0  0  0
   -2.4691   12.9667   39.7554 O   0  0  0  0  0  0  0  0  0  0  0  0
   -1.7118    8.3566   38.9456 C   0  0  0  0  0  0  0  0  0  0  0  0
   -2.4744    9.6051   42.9810 C   0  0  0  0  0  0  0  0  0  0  0  0
  1  2  1  1  0  0  0
  1  6  1  0  0  0  0
  1 21  1  0  0  0  0
  3  4  1  6  0  0  0
  3  8  1  0  0  0  0
  3 28  1  0  0  0  0
  5  9  1  0  0  0  0
  5 25  1  0  0  0  0
  5 29  1  1  0  0  0
  6  7  1  1  0  0  0
  6 11  1  0  0  0  0
  8 12  1  0  0  0  0
  9 10  1  1  0  0  0
  9 14  1  0  0  0  0
 11 16  1  0  0  0  0
 12 13  1  6  0  0  0
 12 17  1  0  0  0  0
 14 15  1  1  0  0  0
 14 18  1  0  0  0  0
 15 31  1  0  0  0  0
 16 20  1  0  0  0  0
 17  2  1  1  0  0  0
 17 22  1  0  0  0  0
 18 19  1  6  0  0  0
 18 24  1  0  0  0  0
 18 30  1  0  0  0  0
 20 21  1  0  0  0  0
 20 26  1  1  0  0  0
 22 23  1  6  0  0  0
 22 28  1  0  0  0  0
 24 25  1  0  0  0  0
 26 27  1  0  0  0  0
 28 29  1  1  0  0  0
M  END
>  <CHROM.1>
-175.29145018,-169.24770767,-83.74090213,-146.23230870,-107.57331508,103.15901624
-0.72507285,13.62427847,38.55780017,-0.81434580,-0.51390955,3.03592977

>  <Name>
ligand

>  <RI>
0

>  <Rbt.Current_Directory>
/home/itssahil/PROJECTS/Mol_Feturizer/New_Systems/rnas/4GPY

>  <Rbt.Executable>
rbdock ($Id: //depot/dev/client3/rdock/2013.1/src/exe/rbdock.cxx#4 $)

>  <Rbt.Library>
libRbt.so (2013.1, Build901 2013/11/27)

>  <Rbt.Parameter_File>
/export/apps/rDock/src/rDock_2013.1_src/data/scripts/dock_solv.prm

>  <Rbt.Receptor>
prm/pocket_docking_3.prm

>  <SCORE>
-16.6122

>  <SCORE.INTER>
-16.4712

>  <SCORE.INTER.CONST>
1

>  <SCORE.INTER.POLAR>
0

>  <SCORE.INTER.ROT>
6

>  <SCORE.INTER.SOLV>
19.6411

>  <SCORE.INTER.VDW>
-25.1278

>  <SCORE.INTER.norm>
-0.531329

>  <SCORE.INTRA>
-0.219672

>  <SCORE.INTRA.DIHEDRAL>
-1.56146

>  <SCORE.INTRA.DIHEDRAL.0>
14.7001

>  <SCORE.INTRA.POLAR>
0

>  <SCORE.INTRA.POLAR.0>
0

>  <SCORE.INTRA.REPUL>
0

>  <SCORE.INTRA.REPUL.0>
0

>  <SCORE.INTRA.SOLV>
1.10877

>  <SCORE.INTRA.SOLV.lig_0>
-65.3082

>  <SCORE.INTRA.VDW>
0.0066718

>  <SCORE.INTRA.VDW.0>
-4.21408

>  <SCORE.INTRA.norm>
-0.00708619

>  <SCORE.RESTR>
0.078713

>  <SCORE.RESTR.CAVITY>
0.078713

>  <SCORE.RESTR.norm>
0.00253913

>  <SCORE.SYSTEM>
0

>  <SCORE.SYSTEM.CONST>
0

>  <SCORE.SYSTEM.DIHEDRAL>
0

>  <SCORE.SYSTEM.SOLV>
0

>  <SCORE.SYSTEM.norm>
0

>  <SCORE.heavy>
31

>  <SCORE.norm>
-0.535876

>  <RMSD>
0.519

$$$$
ligand
 OpenBabel11021811493D
libRbt.so/2013.1/901 2013/11/27
 31 33  0  0  0  0  0  0  0  0999 V2000
    2.0318   15.0110   36.9907 C   0  0  2  0  0  0  0  0  0  0  0  0
    1.4168   15.7032   38.0602 O   0  0  0  0  0  0  0  0  0  0  0  0
   -2.3414   15.4926   40.0330 C   0  0  2  0  0  0  0  0  0  0  0  0
   -3.7515   15.5086   40.2285 N   0  0  0  0  0  0  0  0  0  0  0  0
   -3.6357   12.4340   39.3462 C   0  0  2  0  0  0  0  0  0  0  0  0
    3.6025   15.0146   37.2374 C   0  0  2  0  0  0  0  0  0  0  0  0
    3.8859   14.3932   38.5267 N   0  0  0  0  0  0  0  0  0  0  0  0
   -1.9100   16.8911   39.4023 C   0  0  0  0  0  0  0  0  0  0  0  0
   -3.8217   11.4156   40.5207 C   0  0  2  0  0  0  0  0  0  0  0  0
   -3.7529   12.1177   41.7436 O   0  0  0  0  0  0  0  0  0  0  0  0
    4.1681   16.4811   37.1781 C   0  0  0  0  0  0  0  0  0  0  0  0
   -0.3394   16.8791   39.2003 C   0  0  2  0  0  0  0  0  0  0  0  0
    0.0763   18.1609   38.6294 N   0  0  0  0  0  0  0  0  0  0  0  0
   -2.6822   10.3362   40.4302 C   0  0  1  0  0  0  0  0  0  0  0  0
   -2.8269    9.3555   41.5534 N   0  0  0  0  0  0  0  0  0  0  0  0
    3.4805   17.3314   36.0291 C   0  0  0  0  0  0  0  0  0  0  0  0
    0.0427   15.6983   38.2170 C   0  0  2  0  0  0  0  0  0  0  0  0
   -2.8135    9.5525   39.0101 C   0  0  1  0  0  0  0  0  0  0  0  0
   -4.0508    8.8860   38.8545 O   0  0  0  0  0  0  0  0  0  0  0  0
    2.3626   16.8904   35.4027 C   0  0  1  0  0  0  0  0  0  0  0  0
    1.7268   15.6537   35.7134 O   0  0  0  0  0  0  0  0  0  0  0  0
   -0.4122   14.3141   38.8421 C   0  0  2  0  0  0  0  0  0  0  0  0
   -0.0735   13.2463   37.9335 O   0  0  0  0  0  0  0  0  0  0  0  0
   -2.6678   10.5776   37.8459 C   0  0  0  0  0  0  0  0  0  0  0  0
   -3.6749   11.7019   38.0158 O   0  0  0  0  0  0  0  0  0  0  0  0
    1.6740   17.6726   34.3098 C   0  0  0  0  0  0  0  0  0  0  0  0
    1.9349   19.0677   34.5750 O   0  0  0  0  0  0  0  0  0  0  0  0
   -1.9749   14.3312   39.0491 C   0  0  1  0  0  0  0  0  0  0  0  0
   -2.3531   13.0980   39.6088 O   0  0  0  0  0  0  0  0  0  0  0  0
   -1.7528    8.4683   38.7796 C   0  0  0  0  0  0  0  0  0  0  0  0
   -2.0812    9.6643   42.7912 C   0  0  0  0  0  0  0  0  0  0  0  0
  1  2  1  1  0  0  0
  1  6  1  0  0  0  0
  1 21  1  0  0  0  0
  3  4  1  6  0  0  0
  3  8  1  0  0  0  0
  3 28  1  0  0  0  0
  5  9  1  0  0  0  0
  5 25  1  0  0  0  0
  5 29  1  1  0  0  0
  6  7  1  1  0  0  0
  6 11  1  0  0  0  0
  8 12  1  0  0  0  0
  9 10  1  1  0  0  0
  9 14  1  0  0  0  0
 11 16  1  0  0  0  0
 12 13  1  6  0  0  0
 12 17  1  0  0  0  0
 14 15  1  1  0  0  0
 14 18  1  0  0  0  0
 15 31  1  0  0  0  0
 16 20  1  0  0  0  0
 17  2  1  1  0  0  0
 17 22  1  0  0  0  0
 18 19  1  6  0  0  0
 18 24  1  0  0  0  0
 18 30  1  0  0  0  0
 20 21  1  0  0  0  0
 20 26  1  1  0  0  0
 22 23  1  6  0  0  0
 22 28  1  0  0  0  0
 24 25  1  0  0  0  0
 26 27  1  0  0  0  0
 28 29  1  1  0  0  0
M  END
>  <CHROM.1>
-170.69904094,-160.54246588,-91.71158794,-163.27235523,-29.20394444,93.98790264
-0.67374159,13.89297863,38.50599189,-0.80267872,-0.57257568,3.10033331

>  <Name>
ligand

>  <RI>
0

>  <Rbt.Current_Directory>
/home/itssahil/PROJECTS/Mol_Feturizer/New_Systems/rnas/4GPY

>  <Rbt.Executable>
rbdock ($Id: //depot/dev/client3/rdock/2013.1/src/exe/rbdock.cxx#4 $)

>  <Rbt.Library>
libRbt.so (2013.1, Build901 2013/11/27)

>  <Rbt.Parameter_File>
/export/apps/rDock/src/rDock_2013.1_src/data/scripts/dock_solv.prm

>  <Rbt.Receptor>
prm/pocket_docking_6.prm

>  <SCORE>
-16.6131

>  <SCORE.INTER>
-15.7397

>  <SCORE.INTER.CONST>
1

>  <SCORE.INTER.POLAR>
0

>  <SCORE.INTER.ROT>
6

>  <SCORE.INTER.SOLV>
20.2573

>  <SCORE.INTER.VDW>
-24.8456

>  <SCORE.INTER.norm>
-0.507733

>  <SCORE.INTRA>
-0.873402

>  <SCORE.INTRA.DIHEDRAL>
-3.6755

>  <SCORE.INTRA.DIHEDRAL.0>
14.7001

>  <SCORE.INTRA.POLAR>
0

>  <SCORE.INTRA.POLAR.0>
0

>  <SCORE.INTRA.REPUL>
0

>  <SCORE.INTRA.REPUL.0>
0

>  <SCORE.INTRA.SOLV>
-0.93514

>  <SCORE.INTRA.SOLV.lig_0>
-65.3082

>  <SCORE.INTRA.VDW>
1.43192

>  <SCORE.INTRA.VDW.0>
-4.21408

>  <SCORE.INTRA.norm>
-0.0281743

>  <SCORE.RESTR>
0

>  <SCORE.RESTR.CAVITY>
0

>  <SCORE.RESTR.norm>
0

>  <SCORE.SYSTEM>
0

>  <SCORE.SYSTEM.CONST>
0

>  <SCORE.SYSTEM.DIHEDRAL>
0

>  <SCORE.SYSTEM.SOLV>
0

>  <SCORE.SYSTEM.norm>
0

>  <SCORE.heavy>
31

>  <SCORE.norm>
-0.535907

>  <RMSD>
0.519

$$$$
ligand
 OpenBabel11021811493D
libRbt.so/2013.1/901 2013/11/27
 31 33  0  0  0  0  0  0  0  0999 V2000
    1.9986   14.6405   36.7786 C   0  0  2  0  0  0  0  0  0  0  0  0
    1.4628   15.1633   37.9790 O   0  0  0  0  0  0  0  0  0  0  0  0
   -2.2574   15.4247   40.0165 C   0  0  2  0  0  0  0  0  0  0  0  0
   -3.6567   15.5766   40.2307 N   0  0  0  0  0  0  0  0  0  0  0  0
   -3.7287   12.3222   39.4309 C   0  0  2  0  0  0  0  0  0  0  0  0
    3.5699   14.4841   36.9652 C   0  0  2  0  0  0  0  0  0  0  0  0
    3.8320   13.6138   38.1065 N   0  0  0  0  0  0  0  0  0  0  0  0
   -1.7223   16.7300   39.2753 C   0  0  0  0  0  0  0  0  0  0  0  0
   -3.9517   11.2790   40.5768 C   0  0  2  0  0  0  0  0  0  0  0  0
   -3.9701   11.9613   41.8127 O   0  0  0  0  0  0  0  0  0  0  0  0
    4.2464   15.8909   37.1575 C   0  0  0  0  0  0  0  0  0  0  0  0
   -0.1630   16.5677   39.0520 C   0  0  2  0  0  0  0  0  0  0  0  0
    0.3479   17.7629   38.3795 N   0  0  0  0  0  0  0  0  0  0  0  0
   -2.7800   10.2318   40.5330 C   0  0  1  0  0  0  0  0  0  0  0  0
   -2.9601    9.2281   41.6307 N   0  0  0  0  0  0  0  0  0  0  0  0
    3.6022   16.9885   36.2107 C   0  0  0  0  0  0  0  0  0  0  0  0
    0.0969   15.2885   38.1557 C   0  0  2  0  0  0  0  0  0  0  0  0
   -2.8109    9.4696   39.0955 C   0  0  1  0  0  0  0  0  0  0  0  0
   -4.0190    8.7736   38.8603 O   0  0  0  0  0  0  0  0  0  0  0  0
    2.4400   16.7545   35.5542 C   0  0  1  0  0  0  0  0  0  0  0  0
    1.7168   15.5309   35.6538 O   0  0  0  0  0  0  0  0  0  0  0  0
   -0.4607   13.9990   38.8905 C   0  0  2  0  0  0  0  0  0  0  0  0
   -0.2329   12.8414   38.0607 O   0  0  0  0  0  0  0  0  0  0  0  0
   -2.6287   10.5184   37.9578 C   0  0  0  0  0  0  0  0  0  0  0  0
   -3.6740   11.6127   38.0888 O   0  0  0  0  0  0  0  0  0  0  0  0
    1.7907   17.7749   34.6501 C   0  0  0  0  0  0  0  0  0  0  0  0
    0.6247   18.2616   35.3490 O   0  0  0  0  0  0  0  0  0  0  0  0
   -2.0115   14.1661   39.1184 C   0  0  1  0  0  0  0  0  0  0  0  0
   -2.4812   13.0151   39.7754 O   0  0  0  0  0  0  0  0  0  0  0  0
   -1.7098    8.4179   38.9075 C   0  0  0  0  0  0  0  0  0  0  0  0
   -2.4560    9.6192   42.9634 C   0  0  0  0  0  0  0  0  0  0  0  0
  1  2  1  1  0  0  0
  1  6  1  0  0  0  0
  1 21  1  0  0  0  0
  3  4  1  6  0  0  0
  3  8  1  0  0  0  0
  3 28  1  0  0  0  0
  5  9  1  0  0  0  0
  5 25  1  0  0  0  0
  5 29  1  1  0  0  0
  6  7  1  1  0  0  0
  6 11  1  0  0  0  0
  8 12  1  0  0  0  0
  9 10  1  1  0  0  0
  9 14  1  0  0  0  0
 11 16  1  0  0  0  0
 12 13  1  6  0  0  0
 12 17  1  0  0  0  0
 14 15  1  1  0  0  0
 14 18  1  0  0  0  0
 15 31  1  0  0  0  0
 16 20  1  0  0  0  0
 17  2  1  1  0  0  0
 17 22  1  0  0  0  0
 18 19  1  6  0  0  0
 18 24  1  0  0  0  0
 18 30  1  0  0  0  0
 20 21  1  0  0  0  0
 20 26  1  1  0  0  0
 22 23  1  6  0  0  0
 22 28  1  0  0  0  0
 24 25  1  0  0  0  0
 26 27  1  0  0  0  0
 28 29  1  1  0  0  0
M  END
>  <CHROM.1>
-173.84873389,-170.21983206,-83.47470072,-146.83797871,-107.72204138,104.21083175
-0.72788580,13.65143821,38.54856053,-0.80532825,-0.52871995,3.04633541

>  <Name>
ligand

>  <RI>
0

>  <Rbt.Current_Directory>
/home/itssahil/PROJECTS/Mol_Feturizer/New_Systems/rnas/4GPY

>  <Rbt.Executable>
rbdock ($Id: //depot/dev/client3/rdock/2013.1/src/exe/rbdock.cxx#4 $)

>  <Rbt.Library>
libRbt.so (2013.1, Build901 2013/11/27)

>  <Rbt.Parameter_File>
/export/apps/rDock/src/rDock_2013.1_src/data/scripts/dock_solv.prm

>  <Rbt.Receptor>
prm/pocket_docking_3.prm

>  <SCORE>
-16.6425

>  <SCORE.INTER>
-16.5444

>  <SCORE.INTER.CONST>
1

>  <SCORE.INTER.POLAR>
0

>  <SCORE.INTER.ROT>
6

>  <SCORE.INTER.SOLV>
19.5779

>  <SCORE.INTER.VDW>
-25.1556

>  <SCORE.INTER.norm>
-0.533691

>  <SCORE.INTRA>
-0.197584

>  <SCORE.INTRA.DIHEDRAL>
-1.55449

>  <SCORE.INTRA.DIHEDRAL.0>
14.7001

>  <SCORE.INTRA.POLAR>
0

>  <SCORE.INTRA.POLAR.0>
0

>  <SCORE.INTRA.REPUL>
0

>  <SCORE.INTRA.REPUL.0>
0

>  <SCORE.INTRA.SOLV>
1.03225

>  <SCORE.INTRA.SOLV.lig_0>
-65.3082

>  <SCORE.INTRA.VDW>
0.0635397

>  <SCORE.INTRA.VDW.0>
-4.21408

>  <SCORE.INTRA.norm>
-0.00637367

>  <SCORE.RESTR>
0.0995065

>  <SCORE.RESTR.CAVITY>
0.0995065

>  <SCORE.RESTR.norm>
0.00320989

>  <SCORE.SYSTEM>
0

>  <SCORE.SYSTEM.CONST>
0

>  <SCORE.SYSTEM.DIHEDRAL>
0

>  <SCORE.SYSTEM.SOLV>
0

>  <SCORE.SYSTEM.norm>
0

>  <SCORE.heavy>
31

>  <SCORE.norm>
-0.536855

>  <RMSD>
0.521

$$$$
ligand
 OpenBabel11021811493D
libRbt.so/2013.1/901 2013/11/27
 31 33  0  0  0  0  0  0  0  0999 V2000
    2.0160   14.6463   36.7444 C   0  0  2  0  0  0  0  0  0  0  0  0
    1.4721   15.1592   37.9454 O   0  0  0  0  0  0  0  0  0  0  0  0
   -2.2554   15.3417   39.9782 C   0  0  2  0  0  0  0  0  0  0  0  0
   -3.6568   15.4740   40.1917 N   0  0  0  0  0  0  0  0  0  0  0  0
   -3.7169   12.2645   39.3696 C   0  0  2  0  0  0  0  0  0  0  0  0
    3.5880   14.5027   36.9351 C   0  0  2  0  0  0  0  0  0  0  0  0
    3.8543   13.6298   38.0734 N   0  0  0  0  0  0  0  0  0  0  0  0
   -1.7333   16.6663   39.2622 C   0  0  0  0  0  0  0  0  0  0  0  0
   -3.9596   11.2532   40.5398 C   0  0  2  0  0  0  0  0  0  0  0  0
   -3.9556   11.9636   41.7599 O   0  0  0  0  0  0  0  0  0  0  0  0
    4.2518   15.9146   37.1355 C   0  0  0  0  0  0  0  0  0  0  0  0
   -0.1718   16.5255   39.0397 C   0  0  2  0  0  0  0  0  0  0  0  0
    0.3271   17.7384   38.3903 N   0  0  0  0  0  0  0  0  0  0  0  0
   -2.8138   10.1771   40.5149 C   0  0  1  0  0  0  0  0  0  0  0  0
   -3.0127    9.2033   41.6358 N   0  0  0  0  0  0  0  0  0  0  0  0
    3.6009   17.0107   36.1916 C   0  0  0  0  0  0  0  0  0  0  0  0
    0.1044   15.2659   38.1210 C   0  0  2  0  0  0  0  0  0  0  0  0
   -2.8700    9.3836   39.0953 C   0  0  1  0  0  0  0  0  0  0  0  0
   -4.0957    8.7120   38.8811 O   0  0  0  0  0  0  0  0  0  0  0  0
    2.4427   16.7694   35.5305 C   0  0  1  0  0  0  0  0  0  0  0  0
    1.7298   15.5392   35.6226 O   0  0  0  0  0  0  0  0  0  0  0  0
   -0.4401   13.9570   38.8309 C   0  0  2  0  0  0  0  0  0  0  0  0
   -0.1974   12.8174   37.9808 O   0  0  0  0  0  0  0  0  0  0  0  0
   -2.6680   10.4016   37.9332 C   0  0  0  0  0  0  0  0  0  0  0  0
   -3.6858   11.5236   38.0438 O   0  0  0  0  0  0  0  0  0  0  0  0
    1.7873   17.7882   34.6289 C   0  0  0  0  0  0  0  0  0  0  0  0
    0.5940   18.2331   35.3093 O   0  0  0  0  0  0  0  0  0  0  0  0
   -1.9933   14.1025   39.0580 C   0  0  1  0  0  0  0  0  0  0  0  0
   -2.4514   12.9346   39.6929 O   0  0  0  0  0  0  0  0  0  0  0  0
   -1.7955    8.3015   38.9266 C   0  0  0  0  0  0  0  0  0  0  0  0
   -2.5728    9.6483   42.9744 C   0  0  0  0  0  0  0  0  0  0  0  0
  1  2  1  1  0  0  0
  1  6  1  0  0  0  0
  1 21  1  0  0  0  0
  3  4  1  6  0  0  0
  3  8  1  0  0  0  0
  3 28  1  0  0  0  0
  5  9  1  0  0  0  0
  5 25  1  0  0  0  0
  5 29  1  1  0  0  0
  6  7  1  1  0  0  0
  6 11  1  0  0  0  0
  8 12  1  0  0  0  0
  9 10  1  1  0  0  0
  9 14  1  0  0  0  0
 11 16  1  0  0  0  0
 12 13  1  6  0  0  0
 12 17  1  0  0  0  0
 14 15  1  1  0  0  0
 14 18  1  0  0  0  0
 15 31  1  0  0  0  0
 16 20  1  0  0  0  0
 17  2  1  1  0  0  0
 17 22  1  0  0  0  0
 18 19  1  6  0  0  0
 18 24  1  0  0  0  0
 18 30  1  0  0  0  0
 20 21  1  0  0  0  0
 20 26  1  1  0  0  0
 22 23  1  6  0  0  0
 22 28  1  0  0  0  0
 24 25  1  0  0  0  0
 26 27  1  0  0  0  0
 28 29  1  1  0  0  0
M  END
>  <CHROM.1>
-173.53566361,-166.49146507,-79.60983107,-147.75884435,-109.35429831,101.63337434
-0.73886081,13.61736598,38.51995771,-0.80251311,-0.53103634,3.05447243

>  <Name>
ligand

>  <RI>
0

>  <Rbt.Current_Directory>
/home/itssahil/PROJECTS/Mol_Feturizer/New_Systems/rnas/4GPY

>  <Rbt.Executable>
rbdock ($Id: //depot/dev/client3/rdock/2013.1/src/exe/rbdock.cxx#4 $)

>  <Rbt.Library>
libRbt.so (2013.1, Build901 2013/11/27)

>  <Rbt.Parameter_File>
/export/apps/rDock/src/rDock_2013.1_src/data/scripts/dock_solv.prm

>  <Rbt.Receptor>
prm/pocket_docking_3.prm

>  <SCORE>
-16.6871

>  <SCORE.INTER>
-16.6887

>  <SCORE.INTER.CONST>
1

>  <SCORE.INTER.POLAR>
0

>  <SCORE.INTER.ROT>
6

>  <SCORE.INTER.SOLV>
19.994

>  <SCORE.INTER.VDW>
-25.3905

>  <SCORE.INTER.norm>
-0.538345

>  <SCORE.INTRA>
-0.0845509

>  <SCORE.INTRA.DIHEDRAL>
-1.83895

>  <SCORE.INTRA.DIHEDRAL.0>
14.7001

>  <SCORE.INTRA.POLAR>
0

>  <SCORE.INTRA.POLAR.0>
0

>  <SCORE.INTRA.REPUL>
0

>  <SCORE.INTRA.REPUL.0>
0

>  <SCORE.INTRA.SOLV>
1.04697

>  <SCORE.INTRA.SOLV.lig_0>
-65.3082

>  <SCORE.INTRA.VDW>
0.311435

>  <SCORE.INTRA.VDW.0>
-4.21408

>  <SCORE.INTRA.norm>
-0.00272745

>  <SCORE.RESTR>
0.0861053

>  <SCORE.RESTR.CAVITY>
0.0861053

>  <SCORE.RESTR.norm>
0.00277759

>  <SCORE.SYSTEM>
0

>  <SCORE.SYSTEM.CONST>
0

>  <SCORE.SYSTEM.DIHEDRAL>
0

>  <SCORE.SYSTEM.SOLV>
0

>  <SCORE.SYSTEM.norm>
0

>  <SCORE.heavy>
31

>  <SCORE.norm>
-0.538294

>  <RMSD>
0.528

$$$$
ligand
 OpenBabel11021811493D
libRbt.so/2013.1/901 2013/11/27
 31 33  0  0  0  0  0  0  0  0999 V2000
    1.7342   15.1313   36.8010 C   0  0  2  0  0  0  0  0  0  0  0  0
    1.1821   15.6294   38.0045 O   0  0  0  0  0  0  0  0  0  0  0  0
   -2.4606   15.2106   40.1528 C   0  0  2  0  0  0  0  0  0  0  0  0
   -3.8581   15.1898   40.4240 N   0  0  0  0  0  0  0  0  0  0  0  0
   -3.7246   12.1615   39.2376 C   0  0  2  0  0  0  0  0  0  0  0  0
    3.2822   14.8597   37.0422 C   0  0  2  0  0  0  0  0  0  0  0  0
    3.4367   13.9185   38.1462 N   0  0  0  0  0  0  0  0  0  0  0  0
   -2.0799   16.6597   39.6100 C   0  0  0  0  0  0  0  0  0  0  0  0
   -3.9450   11.1604   40.4210 C   0  0  2  0  0  0  0  0  0  0  0  0
   -3.9461   11.8853   41.6325 O   0  0  0  0  0  0  0  0  0  0  0  0
    4.0406   16.2063   37.3345 C   0  0  0  0  0  0  0  0  0  0  0  0
   -0.5226   16.6874   39.3241 C   0  0  2  0  0  0  0  0  0  0  0  0
   -0.1530   18.0154   38.8325 N   0  0  0  0  0  0  0  0  0  0  0  0
   -2.7821   10.1027   40.4027 C   0  0  1  0  0  0  0  0  0  0  0  0
   -2.9595    9.1393   41.5362 N   0  0  0  0  0  0  0  0  0  0  0  0
    3.5117   17.3904   36.4211 C   0  0  0  0  0  0  0  0  0  0  0  0
   -0.1813   15.5913   38.2336 C   0  0  2  0  0  0  0  0  0  0  0  0
   -2.8328    9.2915   38.9930 C   0  0  1  0  0  0  0  0  0  0  0  0
   -4.0486    8.5977   38.7933 O   0  0  0  0  0  0  0  0  0  0  0  0
    2.3663   17.2683   35.7071 C   0  0  1  0  0  0  0  0  0  0  0  0
    1.5607   16.0931   35.7137 O   0  0  0  0  0  0  0  0  0  0  0  0
   -0.5859   14.1565   38.7732 C   0  0  2  0  0  0  0  0  0  0  0  0
   -0.2851   13.1668   37.7680 O   0  0  0  0  0  0  0  0  0  0  0  0
   -2.6532   10.2986   37.8178 C   0  0  0  0  0  0  0  0  0  0  0  0
   -3.6884   11.4054   37.9205 O   0  0  0  0  0  0  0  0  0  0  0  0
    1.8253   18.3737   34.8320 C   0  0  0  0  0  0  0  0  0  0  0  0
    1.7206   17.8296   33.4987 O   0  0  0  0  0  0  0  0  0  0  0  0
   -2.1351   14.1336   39.0641 C   0  0  1  0  0  0  0  0  0  0  0  0
   -2.4684   12.8556   39.5462 O   0  0  0  0  0  0  0  0  0  0  0  0
   -1.7419    8.2249   38.8314 C   0  0  0  0  0  0  0  0  0  0  0  0
   -2.4438    9.5741   42.8509 C   0  0  0  0  0  0  0  0  0  0  0  0
  1  2  1  1  0  0  0
  1  6  1  0  0  0  0
  1 21  1  0  0  0  0
  3  4  1  6  0  0  0
  3  8  1  0  0  0  0
  3 28  1  0  0  0  0
  5  9  1  0  0  0  0
  5 25  1  0  0  0  0
  5 29  1  1  0  0  0
  6  7  1  1  0  0  0
  6 11  1  0  0  0  0
  8 12  1  0  0  0  0
  9 10  1  1  0  0  0
  9 14  1  0  0  0  0
 11 16  1  0  0  0  0
 12 13  1  6  0  0  0
 12 17  1  0  0  0  0
 14 15  1  1  0  0  0
 14 18  1  0  0  0  0
 15 31  1  0  0  0  0
 16 20  1  0  0  0  0
 17  2  1  1  0  0  0
 17 22  1  0  0  0  0
 18 19  1  6  0  0  0
 18 24  1  0  0  0  0
 18 30  1  0  0  0  0
 20 21  1  0  0  0  0
 20 26  1  1  0  0  0
 22 23  1  6  0  0  0
 22 28  1  0  0  0  0
 24 25  1  0  0  0  0
 26 27  1  0  0  0  0
 28 29  1  1  0  0  0
M  END
>  <CHROM.1>
-160.92818060,-155.32356431,-83.26801209,-157.87811946,122.03138431,97.68944472
-0.81342234,13.72346922,38.48675386,-0.75576426,-0.66254384,-3.08469162

>  <Name>
ligand

>  <RI>
0

>  <Rbt.Current_Directory>
/home/itssahil/PROJECTS/Mol_Feturizer/New_Systems/rnas/4GPY

>  <Rbt.Executable>
rbdock ($Id: //depot/dev/client3/rdock/2013.1/src/exe/rbdock.cxx#4 $)

>  <Rbt.Library>
libRbt.so (2013.1, Build901 2013/11/27)

>  <Rbt.Parameter_File>
/export/apps/rDock/src/rDock_2013.1_src/data/scripts/dock_solv.prm

>  <Rbt.Receptor>
prm/pocket_docking_3.prm

>  <SCORE>
-16.231

>  <SCORE.INTER>
-16.4573

>  <SCORE.INTER.CONST>
1

>  <SCORE.INTER.POLAR>
0

>  <SCORE.INTER.ROT>
6

>  <SCORE.INTER.SOLV>
21.482

>  <SCORE.INTER.VDW>
-25.7322

>  <SCORE.INTER.norm>
-0.530879

>  <SCORE.INTRA>
-0.0283489

>  <SCORE.INTRA.DIHEDRAL>
-1.19578

>  <SCORE.INTRA.DIHEDRAL.0>
14.7001

>  <SCORE.INTRA.POLAR>
0

>  <SCORE.INTRA.POLAR.0>
0

>  <SCORE.INTRA.REPUL>
0

>  <SCORE.INTRA.REPUL.0>
0

>  <SCORE.INTRA.SOLV>
-0.132951

>  <SCORE.INTRA.SOLV.lig_0>
-65.3082

>  <SCORE.INTRA.VDW>
0.636015

>  <SCORE.INTRA.VDW.0>
-4.21408

>  <SCORE.INTRA.norm>
-0.00091448

>  <SCORE.RESTR>
0.254608

>  <SCORE.RESTR.CAVITY>
0.254608

>  <SCORE.RESTR.norm>
0.00821315

>  <SCORE.SYSTEM>
0

>  <SCORE.SYSTEM.CONST>
0

>  <SCORE.SYSTEM.DIHEDRAL>
0

>  <SCORE.SYSTEM.SOLV>
0

>  <SCORE.SYSTEM.norm>
0

>  <SCORE.heavy>
31

>  <SCORE.norm>
-0.523581

>  <RMSD>
0.535

$$$$
ligand
 OpenBabel11021811493D
libRbt.so/2013.1/901 2013/11/27
 31 33  0  0  0  0  0  0  0  0999 V2000
    2.0062   14.6325   36.7249 C   0  0  2  0  0  0  0  0  0  0  0  0
    1.4680   15.1149   37.9410 O   0  0  0  0  0  0  0  0  0  0  0  0
   -2.2512   15.3162   39.9871 C   0  0  2  0  0  0  0  0  0  0  0  0
   -3.6512   15.4549   40.2056 N   0  0  0  0  0  0  0  0  0  0  0  0
   -3.7250   12.2406   39.3824 C   0  0  2  0  0  0  0  0  0  0  0  0
    3.5790   14.4836   36.9047 C   0  0  2  0  0  0  0  0  0  0  0  0
    3.8501   13.5821   38.0193 N   0  0  0  0  0  0  0  0  0  0  0  0
   -1.7259   16.6376   39.2677 C   0  0  0  0  0  0  0  0  0  0  0  0
   -3.9593   11.2169   40.5436 C   0  0  2  0  0  0  0  0  0  0  0  0
   -3.9497   11.9149   41.7708 O   0  0  0  0  0  0  0  0  0  0  0  0
    4.2442   15.8898   37.1378 C   0  0  0  0  0  0  0  0  0  0  0  0
   -0.1659   16.4897   39.0397 C   0  0  2  0  0  0  0  0  0  0  0  0
    0.3360   17.6996   38.3870 N   0  0  0  0  0  0  0  0  0  0  0  0
   -2.8117   10.1433   40.5013 C   0  0  1  0  0  0  0  0  0  0  0  0
   -3.0026    9.1578   41.6134 N   0  0  0  0  0  0  0  0  0  0  0  0
    3.5895   17.0096   36.2250 C   0  0  0  0  0  0  0  0  0  0  0  0
    0.1015   15.2278   38.1215 C   0  0  2  0  0  0  0  0  0  0  0  0
   -2.8744    9.3642   39.0741 C   0  0  1  0  0  0  0  0  0  0  0  0
   -4.1001    8.6925   38.8599 O   0  0  0  0  0  0  0  0  0  0  0  0
    2.4283   16.7855   35.5633 C   0  0  1  0  0  0  0  0  0  0  0  0
    1.7153   15.5536   35.6274 O   0  0  0  0  0  0  0  0  0  0  0  0
   -0.4463   13.9221   38.8349 C   0  0  2  0  0  0  0  0  0  0  0  0
   -0.2117   12.7805   37.9853 O   0  0  0  0  0  0  0  0  0  0  0  0
   -2.6808   10.3943   37.9213 C   0  0  0  0  0  0  0  0  0  0  0  0
   -3.7000   11.5132   38.0490 O   0  0  0  0  0  0  0  0  0  0  0  0
    1.7691   17.8270   34.6908 C   0  0  0  0  0  0  0  0  0  0  0  0
    0.5685   18.2402   35.3782 O   0  0  0  0  0  0  0  0  0  0  0  0
   -1.9979   14.0748   39.0675 C   0  0  1  0  0  0  0  0  0  0  0  0
   -2.4589   12.9096   39.7054 O   0  0  0  0  0  0  0  0  0  0  0  0
   -1.7990    8.2858   38.8884 C   0  0  0  0  0  0  0  0  0  0  0  0
   -2.5395    9.5829   42.9506 C   0  0  0  0  0  0  0  0  0  0  0  0
  1  2  1  1  0  0  0
  1  6  1  0  0  0  0
  1 21  1  0  0  0  0
  3  4  1  6  0  0  0
  3  8  1  0  0  0  0
  3 28  1  0  0  0  0
  5  9  1  0  0  0  0
  5 25  1  0  0  0  0
  5 29  1  1  0  0  0
  6  7  1  1  0  0  0
  6 11  1  0  0  0  0
  8 12  1  0  0  0  0
  9 10  1  1  0  0  0
  9 14  1  0  0  0  0
 11 16  1  0  0  0  0
 12 13  1  6  0  0  0
 12 17  1  0  0  0  0
 14 15  1  1  0  0  0
 14 18  1  0  0  0  0
 15 31  1  0  0  0  0
 16 20  1  0  0  0  0
 17  2  1  1  0  0  0
 17 22  1  0  0  0  0
 18 19  1  6  0  0  0
 18 24  1  0  0  0  0
 18 30  1  0  0  0  0
 20 21  1  0  0  0  0
 20 26  1  1  0  0  0
 22 23  1  6  0  0  0
 22 28  1  0  0  0  0
 24 25  1  0  0  0  0
 26 27  1  0  0  0  0
 28 29  1  1  0  0  0
M  END
>  <CHROM.1>
-174.07182032,-167.38011026,-80.39876324,-146.01373490,-110.19858553,101.98888150
-0.74278622,13.59447361,38.52127624,-0.80566979,-0.52940558,3.05611059

>  <Name>
ligand

>  <RI>
0

>  <Rbt.Current_Directory>
/home/itssahil/PROJECTS/Mol_Feturizer/New_Systems/rnas/4GPY

>  <Rbt.Executable>
rbdock ($Id: //depot/dev/client3/rdock/2013.1/src/exe/rbdock.cxx#4 $)

>  <Rbt.Library>
libRbt.so (2013.1, Build901 2013/11/27)

>  <Rbt.Parameter_File>
/export/apps/rDock/src/rDock_2013.1_src/data/scripts/dock_solv.prm

>  <Rbt.Receptor>
prm/pocket_docking_3.prm

>  <SCORE>
-16.4999

>  <SCORE.INTER>
-16.5594

>  <SCORE.INTER.CONST>
1

>  <SCORE.INTER.POLAR>
0

>  <SCORE.INTER.ROT>
6

>  <SCORE.INTER.SOLV>
19.9243

>  <SCORE.INTER.VDW>
-25.2811

>  <SCORE.INTER.norm>
-0.534174

>  <SCORE.INTRA>
0.00501844

>  <SCORE.INTRA.DIHEDRAL>
-1.5984

>  <SCORE.INTRA.DIHEDRAL.0>
14.7001

>  <SCORE.INTRA.POLAR>
0

>  <SCORE.INTRA.POLAR.0>
0

>  <SCORE.INTRA.REPUL>
0

>  <SCORE.INTRA.REPUL.0>
0

>  <SCORE.INTRA.SOLV>
1.19396

>  <SCORE.INTRA.SOLV.lig_0>
-65.3082

>  <SCORE.INTRA.VDW>
0.207241

>  <SCORE.INTRA.VDW.0>
-4.21408

>  <SCORE.INTRA.norm>
0.000161885

>  <SCORE.RESTR>
0.0545029

>  <SCORE.RESTR.CAVITY>
0.0545029

>  <SCORE.RESTR.norm>
0.00175816

>  <SCORE.SYSTEM>
0

>  <SCORE.SYSTEM.CONST>
0

>  <SCORE.SYSTEM.DIHEDRAL>
0

>  <SCORE.SYSTEM.SOLV>
0

>  <SCORE.SYSTEM.norm>
0

>  <SCORE.heavy>
31

>  <SCORE.norm>
-0.532254

>  <RMSD>
0.538

$$$$
ligand
 OpenBabel11021811493D
libRbt.so/2013.1/901 2013/11/27
 31 33  0  0  0  0  0  0  0  0999 V2000
    1.7483   15.0996   36.7858 C   0  0  2  0  0  0  0  0  0  0  0  0
    1.2197   15.5988   37.9994 O   0  0  0  0  0  0  0  0  0  0  0  0
   -2.4154   15.2901   40.1789 C   0  0  2  0  0  0  0  0  0  0  0  0
   -3.8108   15.3060   40.4607 N   0  0  0  0  0  0  0  0  0  0  0  0
   -3.7391   12.2425   39.2648 C   0  0  2  0  0  0  0  0  0  0  0  0
    3.3051   14.8495   36.9902 C   0  0  2  0  0  0  0  0  0  0  0  0
    3.4990   13.9178   38.0961 N   0  0  0  0  0  0  0  0  0  0  0  0
   -2.0038   16.7241   39.6187 C   0  0  0  0  0  0  0  0  0  0  0  0
   -3.9948   11.2549   40.4525 C   0  0  2  0  0  0  0  0  0  0  0  0
   -4.0187   11.9918   41.6565 O   0  0  0  0  0  0  0  0  0  0  0  0
    4.0531   16.2076   37.2549 C   0  0  0  0  0  0  0  0  0  0  0  0
   -0.4486   16.7110   39.3210 C   0  0  2  0  0  0  0  0  0  0  0  0
   -0.0506   18.0246   38.8134 N   0  0  0  0  0  0  0  0  0  0  0  0
   -2.8401   10.1883   40.4718 C   0  0  1  0  0  0  0  0  0  0  0  0
   -3.0515    9.2375   41.6101 N   0  0  0  0  0  0  0  0  0  0  0  0
    3.4865   17.3786   36.3474 C   0  0  0  0  0  0  0  0  0  0  0  0
   -0.1424   15.5962   38.2390 C   0  0  2  0  0  0  0  0  0  0  0  0
   -2.8641    9.3635   39.0692 C   0  0  1  0  0  0  0  0  0  0  0  0
   -4.0803    8.6770   38.8478 O   0  0  0  0  0  0  0  0  0  0  0  0
    2.3255   17.2371   35.6628 C   0  0  1  0  0  0  0  0  0  0  0  0
    1.5355   16.0519   35.6969 O   0  0  0  0  0  0  0  0  0  0  0  0
   -0.5776   14.1771   38.7960 C   0  0  2  0  0  0  0  0  0  0  0  0
   -0.3086   13.1704   37.7986 O   0  0  0  0  0  0  0  0  0  0  0  0
   -2.6492   10.3576   37.8888 C   0  0  0  0  0  0  0  0  0  0  0  0
   -3.6780   11.4731   37.9564 O   0  0  0  0  0  0  0  0  0  0  0  0
    1.7489   18.3296   34.7943 C   0  0  0  0  0  0  0  0  0  0  0  0
    1.6875   17.7999   33.4525 O   0  0  0  0  0  0  0  0  0  0  0  0
   -2.1245   14.1948   39.0986 C   0  0  1  0  0  0  0  0  0  0  0  0
   -2.4851   12.9301   39.5960 O   0  0  0  0  0  0  0  0  0  0  0  0
   -1.7781    8.2871   38.9437 C   0  0  0  0  0  0  0  0  0  0  0  0
   -2.5367    9.6686   42.9264 C   0  0  0  0  0  0  0  0  0  0  0  0
  1  2  1  1  0  0  0
  1  6  1  0  0  0  0
  1 21  1  0  0  0  0
  3  4  1  6  0  0  0
  3  8  1  0  0  0  0
  3 28  1  0  0  0  0
  5  9  1  0  0  0  0
  5 25  1  0  0  0  0
  5 29  1  1  0  0  0
  6  7  1  1  0  0  0
  6 11  1  0  0  0  0
  8 12  1  0  0  0  0
  9 10  1  1  0  0  0
  9 14  1  0  0  0  0
 11 16  1  0  0  0  0
 12 13  1  6  0  0  0
 12 17  1  0  0  0  0
 14 15  1  1  0  0  0
 14 18  1  0  0  0  0
 15 31  1  0  0  0  0
 16 20  1  0  0  0  0
 17  2  1  1  0  0  0
 17 22  1  0  0  0  0
 18 19  1  6  0  0  0
 18 24  1  0  0  0  0
 18 30  1  0  0  0  0
 20 21  1  0  0  0  0
 20 26  1  1  0  0  0
 22 23  1  6  0  0  0
 22 28  1  0  0  0  0
 24 25  1  0  0  0  0
 26 27  1  0  0  0  0
 28 29  1  1  0  0  0
M  END
>  <CHROM.1>
-163.66933637,-155.99858578,-84.57519171,-156.62099418,118.92196567,100.00550390
-0.81927255,13.75967412,38.50066270,-0.73736455,-0.67245654,-3.08091684

>  <Name>
ligand

>  <RI>
0

>  <Rbt.Current_Directory>
/home/itssahil/PROJECTS/Mol_Feturizer/New_Systems/rnas/4GPY

>  <Rbt.Executable>
rbdock ($Id: //depot/dev/client3/rdock/2013.1/src/exe/rbdock.cxx#4 $)

>  <Rbt.Library>
libRbt.so (2013.1, Build901 2013/11/27)

>  <Rbt.Parameter_File>
/export/apps/rDock/src/rDock_2013.1_src/data/scripts/dock_solv.prm

>  <Rbt.Receptor>
prm/pocket_docking_2.prm

>  <SCORE>
-16.7896

>  <SCORE.INTER>
-16.7088

>  <SCORE.INTER.CONST>
1

>  <SCORE.INTER.POLAR>
0

>  <SCORE.INTER.ROT>
6

>  <SCORE.INTER.SOLV>
21.6671

>  <SCORE.INTER.VDW>
-25.9615

>  <SCORE.INTER.norm>
-0.538992

>  <SCORE.INTRA>
-0.0808758

>  <SCORE.INTRA.DIHEDRAL>
-1.08584

>  <SCORE.INTRA.DIHEDRAL.0>
14.7001

>  <SCORE.INTRA.POLAR>
0

>  <SCORE.INTRA.POLAR.0>
0

>  <SCORE.INTRA.REPUL>
0

>  <SCORE.INTRA.REPUL.0>
0

>  <SCORE.INTRA.SOLV>
-0.13007

>  <SCORE.INTRA.SOLV.lig_0>
-65.3082

>  <SCORE.INTRA.VDW>
0.52708

>  <SCORE.INTRA.VDW.0>
-4.21408

>  <SCORE.INTRA.norm>
-0.0026089

>  <SCORE.RESTR>
0

>  <SCORE.RESTR.CAVITY>
0

>  <SCORE.RESTR.norm>
0

>  <SCORE.SYSTEM>
0

>  <SCORE.SYSTEM.CONST>
0

>  <SCORE.SYSTEM.DIHEDRAL>
0

>  <SCORE.SYSTEM.SOLV>
0

>  <SCORE.SYSTEM.norm>
0

>  <SCORE.heavy>
31

>  <SCORE.norm>
-0.541601

>  <RMSD>
0.543

$$$$
ligand
 OpenBabel11021811493D
libRbt.so/2013.1/901 2013/11/27
 31 33  0  0  0  0  0  0  0  0999 V2000
    1.6197   15.0875   36.7503 C   0  0  2  0  0  0  0  0  0  0  0  0
    1.1074   15.5660   37.9791 O   0  0  0  0  0  0  0  0  0  0  0  0
   -2.4963   15.2880   40.2143 C   0  0  2  0  0  0  0  0  0  0  0  0
   -3.8880   15.3007   40.5140 N   0  0  0  0  0  0  0  0  0  0  0  0
   -3.7781   12.1783   39.3524 C   0  0  2  0  0  0  0  0  0  0  0  0
    3.1799   14.8382   36.9284 C   0  0  2  0  0  0  0  0  0  0  0  0
    3.3918   13.8895   38.0164 N   0  0  0  0  0  0  0  0  0  0  0  0
   -2.1037   16.7095   39.6103 C   0  0  0  0  0  0  0  0  0  0  0  0
   -3.9826   11.1494   40.5146 C   0  0  2  0  0  0  0  0  0  0  0  0
   -4.0325   11.8525   41.7379 O   0  0  0  0  0  0  0  0  0  0  0  0
    3.9284   16.1938   37.2040 C   0  0  0  0  0  0  0  0  0  0  0  0
   -0.5525   16.7005   39.2923 C   0  0  2  0  0  0  0  0  0  0  0  0
   -0.1719   18.0030   38.7443 N   0  0  0  0  0  0  0  0  0  0  0  0
   -2.7811   10.1356   40.5004 C   0  0  1  0  0  0  0  0  0  0  0  0
   -2.9432    9.1467   41.6141 N   0  0  0  0  0  0  0  0  0  0  0  0
    3.3461   17.3776   36.3234 C   0  0  0  0  0  0  0  0  0  0  0  0
   -0.2514   15.5593   38.2368 C   0  0  2  0  0  0  0  0  0  0  0  0
   -2.7761    9.3478   39.0766 C   0  0  1  0  0  0  0  0  0  0  0  0
   -3.9616    8.6133   38.8426 O   0  0  0  0  0  0  0  0  0  0  0  0
    2.1758   17.2441   35.6533 C   0  0  1  0  0  0  0  0  0  0  0  0
    1.3891   16.0564   35.6799 O   0  0  0  0  0  0  0  0  0  0  0  0
   -0.6677   14.1524   38.8375 C   0  0  2  0  0  0  0  0  0  0  0  0
   -0.4036   13.1213   37.8641 O   0  0  0  0  0  0  0  0  0  0  0  0
   -2.6128   10.3811   37.9220 C   0  0  0  0  0  0  0  0  0  0  0  0
   -3.6901   11.4471   38.0238 O   0  0  0  0  0  0  0  0  0  0  0  0
    1.5842   18.3488   34.8107 C   0  0  0  0  0  0  0  0  0  0  0  0
    1.6803   17.9152   33.4368 O   0  0  0  0  0  0  0  0  0  0  0  0
   -2.2107   14.1663   39.1601 C   0  0  1  0  0  0  0  0  0  0  0  0
   -2.5544   12.9127   39.6961 O   0  0  0  0  0  0  0  0  0  0  0  0
   -1.6437    8.3249   38.9176 C   0  0  0  0  0  0  0  0  0  0  0  0
   -2.4518    9.5705   42.9416 C   0  0  0  0  0  0  0  0  0  0  0  0
  1  2  1  1  0  0  0
  1  6  1  0  0  0  0
  1 21  1  0  0  0  0
  3  4  1  6  0  0  0
  3  8  1  0  0  0  0
  3 28  1  0  0  0  0
  5  9  1  0  0  0  0
  5 25  1  0  0  0  0
  5 29  1  1  0  0  0
  6  7  1  1  0  0  0
  6 11  1  0  0  0  0
  8 12  1  0  0  0  0
  9 10  1  1  0  0  0
  9 14  1  0  0  0  0
 11 16  1  0  0  0  0
 12 13  1  6  0  0  0
 12 17  1  0  0  0  0
 14 15  1  1  0  0  0
 14 18  1  0  0  0  0
 15 31  1  0  0  0  0
 16 20  1  0  0  0  0
 17  2  1  1  0  0  0
 17 22  1  0  0  0  0
 18 19  1  6  0  0  0
 18 24  1  0  0  0  0
 18 30  1  0  0  0  0
 20 21  1  0  0  0  0
 20 26  1  1  0  0  0
 22 23  1  6  0  0  0
 22 28  1  0  0  0  0
 24 25  1  0  0  0  0
 26 27  1  0  0  0  0
 28 29  1  1  0  0  0
M  END
>  <CHROM.1>
-163.83566271,-160.49719419,-84.03901687,-154.06116710,110.94882555,102.95338526
-0.86861631,13.73523591,38.51114434,-0.77024347,-0.67340555,-3.11614864

>  <Name>
ligand

>  <RI>
0

>  <Rbt.Current_Directory>
/home/itssahil/PROJECTS/Mol_Feturizer/New_Systems/rnas/4GPY

>  <Rbt.Executable>
rbdock ($Id: //depot/dev/client3/rdock/2013.1/src/exe/rbdock.cxx#4 $)

>  <Rbt.Library>
libRbt.so (2013.1, Build901 2013/11/27)

>  <Rbt.Parameter_File>
/export/apps/rDock/src/rDock_2013.1_src/data/scripts/dock_solv.prm

>  <Rbt.Receptor>
prm/pocket_docking_3.prm

>  <SCORE>
-16.0999

>  <SCORE.INTER>
-16.3065

>  <SCORE.INTER.CONST>
1

>  <SCORE.INTER.POLAR>
0

>  <SCORE.INTER.ROT>
6

>  <SCORE.INTER.SOLV>
21.5331

>  <SCORE.INTER.VDW>
-25.6487

>  <SCORE.INTER.norm>
-0.526016

>  <SCORE.INTRA>
-0.0229559

>  <SCORE.INTRA.DIHEDRAL>
-0.86987

>  <SCORE.INTRA.DIHEDRAL.0>
14.7001

>  <SCORE.INTRA.POLAR>
0

>  <SCORE.INTRA.POLAR.0>
0

>  <SCORE.INTRA.REPUL>
0

>  <SCORE.INTRA.REPUL.0>
0

>  <SCORE.INTRA.SOLV>
-0.117977

>  <SCORE.INTRA.SOLV.lig_0>
-65.3082

>  <SCORE.INTRA.VDW>
0.470968

>  <SCORE.INTRA.VDW.0>
-4.21408

>  <SCORE.INTRA.norm>
-0.000740514

>  <SCORE.RESTR>
0.229537

>  <SCORE.RESTR.CAVITY>
0.229537

>  <SCORE.RESTR.norm>
0.00740443

>  <SCORE.SYSTEM>
0

>  <SCORE.SYSTEM.CONST>
0

>  <SCORE.SYSTEM.DIHEDRAL>
0

>  <SCORE.SYSTEM.SOLV>
0

>  <SCORE.SYSTEM.norm>
0

>  <SCORE.heavy>
31

>  <SCORE.norm>
-0.519352

>  <RMSD>
0.543

$$$$
ligand
 OpenBabel11021811493D
libRbt.so/2013.1/901 2013/11/27
 31 33  0  0  0  0  0  0  0  0999 V2000
    2.0531   14.6167   36.8190 C   0  0  2  0  0  0  0  0  0  0  0  0
    1.4966   15.1405   38.0095 O   0  0  0  0  0  0  0  0  0  0  0  0
   -2.2551   15.4002   39.9886 C   0  0  2  0  0  0  0  0  0  0  0  0
   -3.6581   15.5472   40.1805 N   0  0  0  0  0  0  0  0  0  0  0  0
   -3.7254   12.3123   39.4347 C   0  0  2  0  0  0  0  0  0  0  0  0
    3.6272   14.5075   37.0151 C   0  0  2  0  0  0  0  0  0  0  0  0
    3.9081   13.6608   38.1695 N   0  0  0  0  0  0  0  0  0  0  0  0
   -1.7148   16.7022   39.2453 C   0  0  0  0  0  0  0  0  0  0  0  0
   -3.9468   11.2701   40.5819 C   0  0  2  0  0  0  0  0  0  0  0  0
   -3.9391   11.9504   41.8190 O   0  0  0  0  0  0  0  0  0  0  0  0
    4.2626   15.9355   37.1910 C   0  0  0  0  0  0  0  0  0  0  0  0
   -0.1516   16.5455   39.0467 C   0  0  2  0  0  0  0  0  0  0  0  0
    0.3638   17.7378   38.3726 N   0  0  0  0  0  0  0  0  0  0  0  0
   -2.7900   10.2073   40.5203 C   0  0  1  0  0  0  0  0  0  0  0  0
   -2.9685    9.2042   41.6187 N   0  0  0  0  0  0  0  0  0  0  0  0
    3.5924   17.0013   36.2262 C   0  0  0  0  0  0  0  0  0  0  0  0
    0.1276   15.2606   38.1646 C   0  0  2  0  0  0  0  0  0  0  0  0
   -2.8507    9.4483   39.0822 C   0  0  1  0  0  0  0  0  0  0  0  0
   -4.0712    8.7690   38.8624 O   0  0  0  0  0  0  0  0  0  0  0  0
    2.4407   16.7254   35.5675 C   0  0  1  0  0  0  0  0  0  0  0  0
    1.7519   15.4833   35.6806 O   0  0  0  0  0  0  0  0  0  0  0  0
   -0.4350   13.9742   38.9011 C   0  0  2  0  0  0  0  0  0  0  0  0
   -0.1894   12.8113   38.0840 O   0  0  0  0  0  0  0  0  0  0  0  0
   -2.6700   10.4965   37.9437 C   0  0  0  0  0  0  0  0  0  0  0  0
   -3.6986   11.6045   38.0909 O   0  0  0  0  0  0  0  0  0  0  0  0
    1.7673   17.7145   34.6463 C   0  0  0  0  0  0  0  0  0  0  0  0
    0.5913   18.1869   35.3381 O   0  0  0  0  0  0  0  0  0  0  0  0
   -1.9899   14.1358   39.1043 C   0  0  1  0  0  0  0  0  0  0  0  0
   -2.4641   12.9878   39.7632 O   0  0  0  0  0  0  0  0  0  0  0  0
   -1.7666    8.3822   38.8774 C   0  0  0  0  0  0  0  0  0  0  0  0
   -2.5218    9.6212   42.9641 C   0  0  0  0  0  0  0  0  0  0  0  0
  1  2  1  1  0  0  0
  1  6  1  0  0  0  0
  1 21  1  0  0  0  0
  3  4  1  6  0  0  0
  3  8  1  0  0  0  0
  3 28  1  0  0  0  0
  5  9  1  0  0  0  0
  5 25  1  0  0  0  0
  5 29  1  1  0  0  0
  6  7  1  1  0  0  0
  6 11  1  0  0  0  0
  8 12  1  0  0  0  0
  9 10  1  1  0  0  0
  9 14  1  0  0  0  0
 11 16  1  0  0  0  0
 12 13  1  6  0  0  0
 12 17  1  0  0  0  0
 14 15  1  1  0  0  0
 14 18  1  0  0  0  0
 15 31  1  0  0  0  0
 16 20  1  0  0  0  0
 17  2  1  1  0  0  0
 17 22  1  0  0  0  0
 18 19  1  6  0  0  0
 18 24  1  0  0  0  0
 18 30  1  0  0  0  0
 20 21  1  0  0  0  0
 20 26  1  1  0  0  0
 22 23  1  6  0  0  0
 22 28  1  0  0  0  0
 24 25  1  0  0  0  0
 26 27  1  0  0  0  0
 28 29  1  1  0  0  0
M  END
>  <CHROM.1>
-175.49809596,-170.02867777,-79.57746490,-146.53620881,-107.19219648,102.08784699
-0.72434694,13.63278540,38.55164230,-0.80490212,-0.51597168,3.04184118

>  <Name>
ligand

>  <RI>
0

>  <Rbt.Current_Directory>
/home/itssahil/PROJECTS/Mol_Feturizer/New_Systems/rnas/4GPY

>  <Rbt.Executable>
rbdock ($Id: //depot/dev/client3/rdock/2013.1/src/exe/rbdock.cxx#4 $)

>  <Rbt.Library>
libRbt.so (2013.1, Build901 2013/11/27)

>  <Rbt.Parameter_File>
/export/apps/rDock/src/rDock_2013.1_src/data/scripts/dock_solv.prm

>  <Rbt.Receptor>
prm/pocket_docking_3.prm

>  <SCORE>
-16.5728

>  <SCORE.INTER>
-16.416

>  <SCORE.INTER.CONST>
1

>  <SCORE.INTER.POLAR>
0

>  <SCORE.INTER.ROT>
6

>  <SCORE.INTER.SOLV>
19.6733

>  <SCORE.INTER.VDW>
-25.1017

>  <SCORE.INTER.norm>
-0.529547

>  <SCORE.INTRA>
-0.234036

>  <SCORE.INTRA.DIHEDRAL>
-1.96848

>  <SCORE.INTRA.DIHEDRAL.0>
14.7001

>  <SCORE.INTRA.POLAR>
0

>  <SCORE.INTRA.POLAR.0>
0

>  <SCORE.INTRA.REPUL>
0

>  <SCORE.INTRA.REPUL.0>
0

>  <SCORE.INTRA.SOLV>
1.06894

>  <SCORE.INTRA.SOLV.lig_0>
-65.3082

>  <SCORE.INTRA.VDW>
0.215739

>  <SCORE.INTRA.VDW.0>
-4.21408

>  <SCORE.INTRA.norm>
-0.00754954

>  <SCORE.RESTR>
0.0771967

>  <SCORE.RESTR.CAVITY>
0.0771967

>  <SCORE.RESTR.norm>
0.00249022

>  <SCORE.SYSTEM>
0

>  <SCORE.SYSTEM.CONST>
0

>  <SCORE.SYSTEM.DIHEDRAL>
0

>  <SCORE.SYSTEM.SOLV>
0

>  <SCORE.SYSTEM.norm>
0

>  <SCORE.heavy>
31

>  <SCORE.norm>
-0.534606

>  <RMSD>
0.544

$$$$
ligand
 OpenBabel11021811493D
libRbt.so/2013.1/901 2013/11/27
 31 33  0  0  0  0  0  0  0  0999 V2000
    1.9617   15.0258   36.9241 C   0  0  2  0  0  0  0  0  0  0  0  0
    1.3718   15.6976   38.0205 O   0  0  0  0  0  0  0  0  0  0  0  0
   -2.3467   15.4850   40.0667 C   0  0  2  0  0  0  0  0  0  0  0  0
   -3.7526   15.5039   40.2906 N   0  0  0  0  0  0  0  0  0  0  0  0
   -3.6465   12.4143   39.3510 C   0  0  2  0  0  0  0  0  0  0  0  0
    3.5293   14.9465   37.1780 C   0  0  2  0  0  0  0  0  0  0  0  0
    3.7756   14.2566   38.4397 N   0  0  0  0  0  0  0  0  0  0  0  0
   -1.9236   16.8865   39.4371 C   0  0  0  0  0  0  0  0  0  0  0  0
   -3.8290   11.3888   40.5199 C   0  0  2  0  0  0  0  0  0  0  0  0
   -3.7789   12.0867   41.7461 O   0  0  0  0  0  0  0  0  0  0  0  0
    4.1615   16.3868   37.1863 C   0  0  0  0  0  0  0  0  0  0  0  0
   -0.3574   16.8710   39.2035 C   0  0  2  0  0  0  0  0  0  0  0  0
    0.0509   18.1554   38.6331 N   0  0  0  0  0  0  0  0  0  0  0  0
   -2.6752   10.3243   40.4342 C   0  0  1  0  0  0  0  0  0  0  0  0
   -2.8165    9.3372   41.5524 N   0  0  0  0  0  0  0  0  0  0  0  0
    3.5209   17.3175   36.0730 C   0  0  0  0  0  0  0  0  0  0  0  0
    0.0012   15.6958   38.2048 C   0  0  2  0  0  0  0  0  0  0  0  0
   -2.7853    9.5448   39.0100 C   0  0  1  0  0  0  0  0  0  0  0  0
   -4.0127    8.8633   38.8418 O   0  0  0  0  0  0  0  0  0  0  0  0
    2.3883   16.9562   35.4225 C   0  0  1  0  0  0  0  0  0  0  0  0
    1.6948   15.7374   35.6752 O   0  0  0  0  0  0  0  0  0  0  0  0
   -0.4456   14.3087   38.8294 C   0  0  2  0  0  0  0  0  0  0  0  0
   -0.1285   13.2462   37.9069 O   0  0  0  0  0  0  0  0  0  0  0  0
   -2.6432   10.5765   37.8511 C   0  0  0  0  0  0  0  0  0  0  0  0
   -3.6658   11.6872   38.0174 O   0  0  0  0  0  0  0  0  0  0  0  0
    1.7432   17.8165   34.3623 C   0  0  0  0  0  0  0  0  0  0  0  0
    2.4376   19.0823   34.3804 O   0  0  0  0  0  0  0  0  0  0  0  0
   -2.0037   14.3292   39.0679 C   0  0  1  0  0  0  0  0  0  0  0  0
   -2.3746   13.0934   39.6266 O   0  0  0  0  0  0  0  0  0  0  0  0
   -1.7090    8.4751   38.7838 C   0  0  0  0  0  0  0  0  0  0  0  0
   -2.1729    9.7017   42.8316 C   0  0  0  0  0  0  0  0  0  0  0  0
  1  2  1  1  0  0  0
  1  6  1  0  0  0  0
  1 21  1  0  0  0  0
  3  4  1  6  0  0  0
  3  8  1  0  0  0  0
  3 28  1  0  0  0  0
  5  9  1  0  0  0  0
  5 25  1  0  0  0  0
  5 29  1  1  0  0  0
  6  7  1  1  0  0  0
  6 11  1  0  0  0  0
  8 12  1  0  0  0  0
  9 10  1  1  0  0  0
  9 14  1  0  0  0  0
 11 16  1  0  0  0  0
 12 13  1  6  0  0  0
 12 17  1  0  0  0  0
 14 15  1  1  0  0  0
 14 18  1  0  0  0  0
 15 31  1  0  0  0  0
 16 20  1  0  0  0  0
 17  2  1  1  0  0  0
 17 22  1  0  0  0  0
 18 19  1  6  0  0  0
 18 24  1  0  0  0  0
 18 30  1  0  0  0  0
 20 21  1  0  0  0  0
 20 26  1  1  0  0  0
 22 23  1  6  0  0  0
 22 28  1  0  0  0  0
 24 25  1  0  0  0  0
 26 27  1  0  0  0  0
 28 29  1  1  0  0  0
M  END
>  <CHROM.1>
-167.64992074,-160.99179736,-87.05761893,-162.42155928,-8.60585900,96.05456882
-0.66907202,13.88857526,38.49886889,-0.78411389,-0.59784316,3.12377876

>  <Name>
ligand

>  <RI>
0

>  <Rbt.Current_Directory>
/home/itssahil/PROJECTS/Mol_Feturizer/New_Systems/rnas/4GPY

>  <Rbt.Executable>
rbdock ($Id: //depot/dev/client3/rdock/2013.1/src/exe/rbdock.cxx#4 $)

>  <Rbt.Library>
libRbt.so (2013.1, Build901 2013/11/27)

>  <Rbt.Parameter_File>
/export/apps/rDock/src/rDock_2013.1_src/data/scripts/dock_solv.prm

>  <Rbt.Receptor>
prm/pocket_docking_2.prm

>  <SCORE>
-16.6008

>  <SCORE.INTER>
-16.1832

>  <SCORE.INTER.CONST>
1

>  <SCORE.INTER.POLAR>
0

>  <SCORE.INTER.ROT>
6

>  <SCORE.INTER.SOLV>
20.2275

>  <SCORE.INTER.VDW>
-25.1313

>  <SCORE.INTER.norm>
-0.522038

>  <SCORE.INTRA>
-0.417597

>  <SCORE.INTRA.DIHEDRAL>
-3.90746

>  <SCORE.INTRA.DIHEDRAL.0>
14.7001

>  <SCORE.INTRA.POLAR>
0

>  <SCORE.INTRA.POLAR.0>
0

>  <SCORE.INTRA.REPUL>
0

>  <SCORE.INTRA.REPUL.0>
0

>  <SCORE.INTRA.SOLV>
-0.821715

>  <SCORE.INTRA.SOLV.lig_0>
-65.3082

>  <SCORE.INTRA.VDW>
1.94699

>  <SCORE.INTRA.VDW.0>
-4.21408

>  <SCORE.INTRA.norm>
-0.0134709

>  <SCORE.RESTR>
0

>  <SCORE.RESTR.CAVITY>
0

>  <SCORE.RESTR.norm>
0

>  <SCORE.SYSTEM>
0

>  <SCORE.SYSTEM.CONST>
0

>  <SCORE.SYSTEM.DIHEDRAL>
0

>  <SCORE.SYSTEM.SOLV>
0

>  <SCORE.SYSTEM.norm>
0

>  <SCORE.heavy>
31

>  <SCORE.norm>
-0.535509

>  <RMSD>
0.547

$$$$
ligand
 OpenBabel11021811493D
libRbt.so/2013.1/901 2013/11/27
 31 33  0  0  0  0  0  0  0  0999 V2000
    2.0648   14.6270   36.7928 C   0  0  2  0  0  0  0  0  0  0  0  0
    1.5077   15.1330   37.9907 O   0  0  0  0  0  0  0  0  0  0  0  0
   -2.2442   15.4065   39.9675 C   0  0  2  0  0  0  0  0  0  0  0  0
   -3.6471   15.5564   40.1584 N   0  0  0  0  0  0  0  0  0  0  0  0
   -3.7238   12.3245   39.4327 C   0  0  2  0  0  0  0  0  0  0  0  0
    3.6393   14.5195   36.9864 C   0  0  2  0  0  0  0  0  0  0  0  0
    3.9234   13.6580   38.1291 N   0  0  0  0  0  0  0  0  0  0  0  0
   -1.7018   16.7047   39.2191 C   0  0  0  0  0  0  0  0  0  0  0  0
   -3.9480   11.2914   40.5876 C   0  0  2  0  0  0  0  0  0  0  0  0
   -3.9310   11.9797   41.8201 O   0  0  0  0  0  0  0  0  0  0  0  0
    4.2710   15.9468   37.1813 C   0  0  0  0  0  0  0  0  0  0  0  0
   -0.1388   16.5448   39.0216 C   0  0  2  0  0  0  0  0  0  0  0  0
    0.3787   17.7335   38.3427 N   0  0  0  0  0  0  0  0  0  0  0  0
   -2.7987   10.2204   40.5288 C   0  0  1  0  0  0  0  0  0  0  0  0
   -2.9799    9.2258   41.6344 N   0  0  0  0  0  0  0  0  0  0  0  0
    3.5971   17.0236   36.2314 C   0  0  0  0  0  0  0  0  0  0  0  0
    0.1388   15.2559   38.1449 C   0  0  2  0  0  0  0  0  0  0  0  0
   -2.8700    9.4523   39.0959 C   0  0  1  0  0  0  0  0  0  0  0  0
   -4.0959    8.7799   38.8851 O   0  0  0  0  0  0  0  0  0  0  0  0
    2.4457   16.7535   35.5698 C   0  0  1  0  0  0  0  0  0  0  0  0
    1.7604   15.5080   35.6665 O   0  0  0  0  0  0  0  0  0  0  0  0
   -0.4259   13.9733   38.8865 C   0  0  2  0  0  0  0  0  0  0  0  0
   -0.1817   12.8067   38.0743 O   0  0  0  0  0  0  0  0  0  0  0  0
   -2.6864   10.4918   37.9499 C   0  0  0  0  0  0  0  0  0  0  0  0
   -3.7069   11.6077   38.0935 O   0  0  0  0  0  0  0  0  0  0  0  0
    1.7689   17.7531   34.6625 C   0  0  0  0  0  0  0  0  0  0  0  0
    0.5823   18.1992   35.3537 O   0  0  0  0  0  0  0  0  0  0  0  0
   -1.9806   14.1380   39.0885 C   0  0  1  0  0  0  0  0  0  0  0  0
   -2.4567   12.9935   39.7521 O   0  0  0  0  0  0  0  0  0  0  0  0
   -1.7939    8.3775   38.8942 C   0  0  0  0  0  0  0  0  0  0  0  0
   -2.4595    9.6197   42.9601 C   0  0  0  0  0  0  0  0  0  0  0  0
  1  2  1  1  0  0  0
  1  6  1  0  0  0  0
  1 21  1  0  0  0  0
  3  4  1  6  0  0  0
  3  8  1  0  0  0  0
  3 28  1  0  0  0  0
  5  9  1  0  0  0  0
  5 25  1  0  0  0  0
  5 29  1  1  0  0  0
  6  7  1  1  0  0  0
  6 11  1  0  0  0  0
  8 12  1  0  0  0  0
  9 10  1  1  0  0  0
  9 14  1  0  0  0  0
 11 16  1  0  0  0  0
 12 13  1  6  0  0  0
 12 17  1  0  0  0  0
 14 15  1  1  0  0  0
 14 18  1  0  0  0  0
 15 31  1  0  0  0  0
 16 20  1  0  0  0  0
 17  2  1  1  0  0  0
 17 22  1  0  0  0  0
 18 19  1  6  0  0  0
 18 24  1  0  0  0  0
 18 30  1  0  0  0  0
 20 21  1  0  0  0  0
 20 26  1  1  0  0  0
 22 23  1  6  0  0  0
 22 28  1  0  0  0  0
 24 25  1  0  0  0  0
 26 27  1  0  0  0  0
 28 29  1  1  0  0  0
M  END
>  <CHROM.1>
-175.94554175,-169.67446221,-82.75587539,-145.33472123,-107.96136664,101.60328081
-0.72013613,13.64130081,38.54527631,-0.80849483,-0.50928839,3.03391525

>  <Name>
ligand

>  <RI>
0

>  <Rbt.Current_Directory>
/home/itssahil/PROJECTS/Mol_Feturizer/New_Systems/rnas/4GPY

>  <Rbt.Executable>
rbdock ($Id: //depot/dev/client3/rdock/2013.1/src/exe/rbdock.cxx#4 $)

>  <Rbt.Library>
libRbt.so (2013.1, Build901 2013/11/27)

>  <Rbt.Parameter_File>
/export/apps/rDock/src/rDock_2013.1_src/data/scripts/dock_solv.prm

>  <Rbt.Receptor>
prm/pocket_docking_3.prm

>  <SCORE>
-16.519

>  <SCORE.INTER>
-16.3396

>  <SCORE.INTER.CONST>
1

>  <SCORE.INTER.POLAR>
0

>  <SCORE.INTER.ROT>
6

>  <SCORE.INTER.SOLV>
19.6972

>  <SCORE.INTER.VDW>
-25.0588

>  <SCORE.INTER.norm>
-0.527082

>  <SCORE.INTRA>
-0.239512

>  <SCORE.INTRA.DIHEDRAL>
-1.74056

>  <SCORE.INTRA.DIHEDRAL.0>
14.7001

>  <SCORE.INTRA.POLAR>
0

>  <SCORE.INTRA.POLAR.0>
0

>  <SCORE.INTRA.REPUL>
0

>  <SCORE.INTRA.REPUL.0>
0

>  <SCORE.INTRA.SOLV>
1.18735

>  <SCORE.INTRA.SOLV.lig_0>
-65.3082

>  <SCORE.INTRA.VDW>
0.0370899

>  <SCORE.INTRA.VDW.0>
-4.21408

>  <SCORE.INTRA.norm>
-0.00772619

>  <SCORE.RESTR>
0.0600509

>  <SCORE.RESTR.CAVITY>
0.0600509

>  <SCORE.RESTR.norm>
0.00193713

>  <SCORE.SYSTEM>
0

>  <SCORE.SYSTEM.CONST>
0

>  <SCORE.SYSTEM.DIHEDRAL>
0

>  <SCORE.SYSTEM.SOLV>
0

>  <SCORE.SYSTEM.norm>
0

>  <SCORE.heavy>
31

>  <SCORE.norm>
-0.532871

>  <RMSD>
0.549

$$$$
ligand
 OpenBabel11021811493D
libRbt.so/2013.1/901 2013/11/27
 31 33  0  0  0  0  0  0  0  0999 V2000
    1.8976   14.9758   36.7267 C   0  0  2  0  0  0  0  0  0  0  0  0
    1.3591   15.4486   37.9464 O   0  0  0  0  0  0  0  0  0  0  0  0
   -2.3234   15.2882   40.0615 C   0  0  2  0  0  0  0  0  0  0  0  0
   -3.7235   15.3410   40.3141 N   0  0  0  0  0  0  0  0  0  0  0  0
   -3.6882   12.2346   39.2285 C   0  0  2  0  0  0  0  0  0  0  0  0
    3.4543   14.7288   36.9361 C   0  0  2  0  0  0  0  0  0  0  0  0
    3.6456   13.7764   38.0247 N   0  0  0  0  0  0  0  0  0  0  0  0
   -1.8726   16.6930   39.4589 C   0  0  0  0  0  0  0  0  0  0  0  0
   -3.9597   11.2558   40.4200 C   0  0  2  0  0  0  0  0  0  0  0  0
   -3.9809   11.9990   41.6202 O   0  0  0  0  0  0  0  0  0  0  0  0
    4.1942   16.0849   37.2322 C   0  0  0  0  0  0  0  0  0  0  0  0
   -0.3123   16.6394   39.1934 C   0  0  2  0  0  0  0  0  0  0  0  0
    0.1214   17.9260   38.6474 N   0  0  0  0  0  0  0  0  0  0  0  0
   -2.8164   10.1771   40.4498 C   0  0  1  0  0  0  0  0  0  0  0  0
   -3.0429    9.2344   41.5920 N   0  0  0  0  0  0  0  0  0  0  0  0
    3.6279   17.2709   36.3442 C   0  0  0  0  0  0  0  0  0  0  0  0
   -0.0072   15.4807   38.1583 C   0  0  2  0  0  0  0  0  0  0  0  0
   -2.8430    9.3456   39.0513 C   0  0  1  0  0  0  0  0  0  0  0  0
   -4.0654    8.6709   38.8280 O   0  0  0  0  0  0  0  0  0  0  0  0
    2.4719   17.1376   35.6496 C   0  0  1  0  0  0  0  0  0  0  0  0
    1.6873   15.9482   35.6554 O   0  0  0  0  0  0  0  0  0  0  0  0
   -0.4813   14.0911   38.7567 C   0  0  2  0  0  0  0  0  0  0  0  0
   -0.2129   13.0442   37.8015 O   0  0  0  0  0  0  0  0  0  0  0  0
   -2.6124   10.3313   37.8669 C   0  0  0  0  0  0  0  0  0  0  0  0
   -3.6295   11.4579   37.9243 O   0  0  0  0  0  0  0  0  0  0  0  0
    1.8956   18.2443   34.7991 C   0  0  0  0  0  0  0  0  0  0  0  0
    1.7131   17.6947   33.4764 O   0  0  0  0  0  0  0  0  0  0  0  0
   -2.0332   14.1494   39.0271 C   0  0  1  0  0  0  0  0  0  0  0  0
   -2.4284   12.9105   39.5619 O   0  0  0  0  0  0  0  0  0  0  0  0
   -1.7680    8.2571   38.9360 C   0  0  0  0  0  0  0  0  0  0  0  0
   -2.5492    9.6766   42.9126 C   0  0  0  0  0  0  0  0  0  0  0  0
  1  2  1  1  0  0  0
  1  6  1  0  0  0  0
  1 21  1  0  0  0  0
  3  4  1  6  0  0  0
  3  8  1  0  0  0  0
  3 28  1  0  0  0  0
  5  9  1  0  0  0  0
  5 25  1  0  0  0  0
  5 29  1  1  0  0  0
  6  7  1  1  0  0  0
  6 11  1  0  0  0  0
  8 12  1  0  0  0  0
  9 10  1  1  0  0  0
  9 14  1  0  0  0  0
 11 16  1  0  0  0  0
 12 13  1  6  0  0  0
 12 17  1  0  0  0  0
 14 15  1  1  0  0  0
 14 18  1  0  0  0  0
 15 31  1  0  0  0  0
 16 20  1  0  0  0  0
 17  2  1  1  0  0  0
 17 22  1  0  0  0  0
 18 19  1  6  0  0  0
 18 24  1  0  0  0  0
 18 30  1  0  0  0  0
 20 21  1  0  0  0  0
 20 26  1  1  0  0  0
 22 23  1  6  0  0  0
 22 28  1  0  0  0  0
 24 25  1  0  0  0  0
 26 27  1  0  0  0  0
 28 29  1  1  0  0  0
M  END
>  <CHROM.1>
-166.06220341,-158.09253263,-83.59709417,-152.48054859,124.84347412,100.10009971
-0.73298617,13.70076528,38.45387841,-0.74400796,-0.63766514,-3.11427103

>  <Name>
ligand

>  <RI>
0

>  <Rbt.Current_Directory>
/home/itssahil/PROJECTS/Mol_Feturizer/New_Systems/rnas/4GPY

>  <Rbt.Executable>
rbdock ($Id: //depot/dev/client3/rdock/2013.1/src/exe/rbdock.cxx#4 $)

>  <Rbt.Library>
libRbt.so (2013.1, Build901 2013/11/27)

>  <Rbt.Parameter_File>
/export/apps/rDock/src/rDock_2013.1_src/data/scripts/dock_solv.prm

>  <Rbt.Receptor>
prm/pocket_docking_2.prm

>  <SCORE>
-16.8089

>  <SCORE.INTER>
-16.8616

>  <SCORE.INTER.CONST>
1

>  <SCORE.INTER.POLAR>
0

>  <SCORE.INTER.ROT>
6

>  <SCORE.INTER.SOLV>
21.5392

>  <SCORE.INTER.VDW>
-26.0208

>  <SCORE.INTER.norm>
-0.543922

>  <SCORE.INTRA>
0.0527373

>  <SCORE.INTRA.DIHEDRAL>
-1.00242

>  <SCORE.INTRA.DIHEDRAL.0>
14.7001

>  <SCORE.INTRA.POLAR>
0

>  <SCORE.INTRA.POLAR.0>
0

>  <SCORE.INTRA.REPUL>
0

>  <SCORE.INTRA.REPUL.0>
0

>  <SCORE.INTRA.SOLV>
0.0720404

>  <SCORE.INTRA.SOLV.lig_0>
-65.3082

>  <SCORE.INTRA.VDW>
0.517928

>  <SCORE.INTRA.VDW.0>
-4.21408

>  <SCORE.INTRA.norm>
0.0017012

>  <SCORE.RESTR>
0

>  <SCORE.RESTR.CAVITY>
0

>  <SCORE.RESTR.norm>
0

>  <SCORE.SYSTEM>
0

>  <SCORE.SYSTEM.CONST>
0

>  <SCORE.SYSTEM.DIHEDRAL>
0

>  <SCORE.SYSTEM.SOLV>
0

>  <SCORE.SYSTEM.norm>
0

>  <SCORE.heavy>
31

>  <SCORE.norm>
-0.542221

>  <RMSD>
0.562

$$$$
ligand
 OpenBabel11021811493D
libRbt.so/2013.1/901 2013/11/27
 31 33  0  0  0  0  0  0  0  0999 V2000
    1.8788   14.9609   36.7630 C   0  0  2  0  0  0  0  0  0  0  0  0
    1.3400   15.4447   37.9783 O   0  0  0  0  0  0  0  0  0  0  0  0
   -2.3428   15.2966   40.0937 C   0  0  2  0  0  0  0  0  0  0  0  0
   -3.7429   15.3508   40.3459 N   0  0  0  0  0  0  0  0  0  0  0  0
   -3.7073   12.2379   39.2779 C   0  0  2  0  0  0  0  0  0  0  0  0
    3.4385   14.7317   36.9702 C   0  0  2  0  0  0  0  0  0  0  0  0
    3.6428   13.7958   38.0706 N   0  0  0  0  0  0  0  0  0  0  0  0
   -1.8919   16.6978   39.4831 C   0  0  0  0  0  0  0  0  0  0  0  0
   -3.9683   11.2509   40.4649 C   0  0  2  0  0  0  0  0  0  0  0  0
   -3.9849   11.9866   41.6698 O   0  0  0  0  0  0  0  0  0  0  0  0
    4.1664   16.0986   37.2455 C   0  0  0  0  0  0  0  0  0  0  0  0
   -0.3316   16.6427   39.2181 C   0  0  2  0  0  0  0  0  0  0  0  0
    0.1022   17.9262   38.6648 N   0  0  0  0  0  0  0  0  0  0  0  0
   -2.8214   10.1759   40.4811 C   0  0  1  0  0  0  0  0  0  0  0  0
   -3.0379    9.2254   41.6188 N   0  0  0  0  0  0  0  0  0  0  0  0
    3.5855   17.2672   36.3439 C   0  0  0  0  0  0  0  0  0  0  0  0
   -0.0264   15.4781   38.1898 C   0  0  2  0  0  0  0  0  0  0  0  0
   -2.8536    9.3529   39.0777 C   0  0  1  0  0  0  0  0  0  0  0  0
   -4.0751    8.6755   38.8575 O   0  0  0  0  0  0  0  0  0  0  0  0
    2.4285   17.1135   35.6552 C   0  0  1  0  0  0  0  0  0  0  0  0
    1.6554   15.9169   35.6796 O   0  0  0  0  0  0  0  0  0  0  0  0
   -0.5005   14.0920   38.7961 C   0  0  2  0  0  0  0  0  0  0  0  0
   -0.2320   13.0396   37.8470 O   0  0  0  0  0  0  0  0  0  0  0  0
   -2.6334   10.3467   37.8980 C   0  0  0  0  0  0  0  0  0  0  0  0
   -3.6539   11.4696   37.9685 O   0  0  0  0  0  0  0  0  0  0  0  0
    1.8387   18.2032   34.7921 C   0  0  0  0  0  0  0  0  0  0  0  0
    1.6831   17.6429   33.4705 O   0  0  0  0  0  0  0  0  0  0  0  0
   -2.0525   14.1518   39.0659 C   0  0  1  0  0  0  0  0  0  0  0  0
   -2.4478   12.9160   39.6078 O   0  0  0  0  0  0  0  0  0  0  0  0
   -1.7757    8.2688   38.9492 C   0  0  0  0  0  0  0  0  0  0  0  0
   -2.4911    9.6375   42.9282 C   0  0  0  0  0  0  0  0  0  0  0  0
  1  2  1  1  0  0  0
  1  6  1  0  0  0  0
  1 21  1  0  0  0  0
  3  4  1  6  0  0  0
  3  8  1  0  0  0  0
  3 28  1  0  0  0  0
  5  9  1  0  0  0  0
  5 25  1  0  0  0  0
  5 29  1  1  0  0  0
  6  7  1  1  0  0  0
  6 11  1  0  0  0  0
  8 12  1  0  0  0  0
  9 10  1  1  0  0  0
  9 14  1  0  0  0  0
 11 16  1  0  0  0  0
 12 13  1  6  0  0  0
 12 17  1  0  0  0  0
 14 15  1  1  0  0  0
 14 18  1  0  0  0  0
 15 31  1  0  0  0  0
 16 20  1  0  0  0  0
 17  2  1  1  0  0  0
 17 22  1  0  0  0  0
 18 19  1  6  0  0  0
 18 24  1  0  0  0  0
 18 30  1  0  0  0  0
 20 21  1  0  0  0  0
 20 26  1  1  0  0  0
 22 23  1  6  0  0  0
 22 28  1  0  0  0  0
 24 25  1  0  0  0  0
 26 27  1  0  0  0  0
 28 29  1  1  0  0  0
M  END
>  <CHROM.1>
-166.66539404,-158.89836033,-85.90305047,-152.68643696,123.67018278,100.12249825
-0.74992667,13.69654822,38.48197327,-0.74559060,-0.63950645,-3.11764931

>  <Name>
ligand

>  <RI>
0

>  <Rbt.Current_Directory>
/home/itssahil/PROJECTS/Mol_Feturizer/New_Systems/rnas/4GPY

>  <Rbt.Executable>
rbdock ($Id: //depot/dev/client3/rdock/2013.1/src/exe/rbdock.cxx#4 $)

>  <Rbt.Library>
libRbt.so (2013.1, Build901 2013/11/27)

>  <Rbt.Parameter_File>
/export/apps/rDock/src/rDock_2013.1_src/data/scripts/dock_solv.prm

>  <Rbt.Receptor>
prm/pocket_docking_2.prm

>  <SCORE>
-16.9075

>  <SCORE.INTER>
-16.7493

>  <SCORE.INTER.CONST>
1

>  <SCORE.INTER.POLAR>
0

>  <SCORE.INTER.ROT>
6

>  <SCORE.INTER.SOLV>
21.5298

>  <SCORE.INTER.VDW>
-25.9428

>  <SCORE.INTER.norm>
-0.5403

>  <SCORE.INTRA>
-0.158161

>  <SCORE.INTRA.DIHEDRAL>
-1.19221

>  <SCORE.INTRA.DIHEDRAL.0>
14.7001

>  <SCORE.INTRA.POLAR>
0

>  <SCORE.INTRA.POLAR.0>
0

>  <SCORE.INTRA.REPUL>
0

>  <SCORE.INTRA.REPUL.0>
0

>  <SCORE.INTRA.SOLV>
0.0188399

>  <SCORE.INTRA.SOLV.lig_0>
-65.3082

>  <SCORE.INTRA.VDW>
0.428526

>  <SCORE.INTRA.VDW.0>
-4.21408

>  <SCORE.INTRA.norm>
-0.00510195

>  <SCORE.RESTR>
0

>  <SCORE.RESTR.CAVITY>
0

>  <SCORE.RESTR.norm>
0

>  <SCORE.SYSTEM>
0

>  <SCORE.SYSTEM.CONST>
0

>  <SCORE.SYSTEM.DIHEDRAL>
0

>  <SCORE.SYSTEM.SOLV>
0

>  <SCORE.SYSTEM.norm>
0

>  <SCORE.heavy>
31

>  <SCORE.norm>
-0.545402

>  <RMSD>
0.566

$$$$
ligand
 OpenBabel11021811493D
libRbt.so/2013.1/901 2013/11/27
 31 33  0  0  0  0  0  0  0  0999 V2000
    2.0165   15.0850   36.7974 C   0  0  2  0  0  0  0  0  0  0  0  0
    1.4350   15.5861   37.9857 O   0  0  0  0  0  0  0  0  0  0  0  0
   -2.3005   15.3786   40.0013 C   0  0  2  0  0  0  0  0  0  0  0  0
   -3.7077   15.4081   40.2152 N   0  0  0  0  0  0  0  0  0  0  0  0
   -3.6361   12.3448   39.2475 C   0  0  2  0  0  0  0  0  0  0  0  0
    3.5697   14.8687   37.0599 C   0  0  2  0  0  0  0  0  0  0  0  0
    3.7424   13.9528   38.1824 N   0  0  0  0  0  0  0  0  0  0  0  0
   -1.8588   16.7855   39.3971 C   0  0  0  0  0  0  0  0  0  0  0  0
   -3.8653   11.3592   40.4423 C   0  0  2  0  0  0  0  0  0  0  0  0
   -3.8124   12.0906   41.6487 O   0  0  0  0  0  0  0  0  0  0  0  0
    4.2806   16.2444   37.3358 C   0  0  0  0  0  0  0  0  0  0  0  0
   -0.2912   16.7580   39.1747 C   0  0  2  0  0  0  0  0  0  0  0  0
    0.1341   18.0471   38.6277 N   0  0  0  0  0  0  0  0  0  0  0  0
   -2.7421   10.2599   40.4045 C   0  0  1  0  0  0  0  0  0  0  0  0
   -2.9282    9.3101   41.5480 N   0  0  0  0  0  0  0  0  0  0  0  0
    3.7236   17.3940   36.3955 C   0  0  0  0  0  0  0  0  0  0  0  0
    0.0631   15.5952   38.1600 C   0  0  2  0  0  0  0  0  0  0  0  0
   -2.8544    9.4430   39.0016 C   0  0  1  0  0  0  0  0  0  0  0  0
   -4.0987    8.7927   38.8341 O   0  0  0  0  0  0  0  0  0  0  0  0
    2.5909   17.2218   35.6717 C   0  0  1  0  0  0  0  0  0  0  0  0
    1.8240   16.0212   35.6910 O   0  0  0  0  0  0  0  0  0  0  0  0
   -0.4021   14.2030   38.7592 C   0  0  2  0  0  0  0  0  0  0  0  0
   -0.0887   13.1521   37.8223 O   0  0  0  0  0  0  0  0  0  0  0  0
   -2.6655   10.4363   37.8160 C   0  0  0  0  0  0  0  0  0  0  0  0
   -3.6575   11.5804   37.9350 O   0  0  0  0  0  0  0  0  0  0  0  0
    2.0241   18.2932   34.7710 C   0  0  0  0  0  0  0  0  0  0  0  0
    1.6925   17.6485   33.5224 O   0  0  0  0  0  0  0  0  0  0  0  0
   -1.9616   14.2354   38.9867 C   0  0  1  0  0  0  0  0  0  0  0  0
   -2.3489   12.9947   39.5230 O   0  0  0  0  0  0  0  0  0  0  0  0
   -1.8068    8.3366   38.8222 C   0  0  0  0  0  0  0  0  0  0  0  0
   -2.2776    9.6837   42.8209 C   0  0  0  0  0  0  0  0  0  0  0  0
  1  2  1  1  0  0  0
  1  6  1  0  0  0  0
  1 21  1  0  0  0  0
  3  4  1  6  0  0  0
  3  8  1  0  0  0  0
  3 28  1  0  0  0  0
  5  9  1  0  0  0  0
  5 25  1  0  0  0  0
  5 29  1  1  0  0  0
  6  7  1  1  0  0  0
  6 11  1  0  0  0  0
  8 12  1  0  0  0  0
  9 10  1  1  0  0  0
  9 14  1  0  0  0  0
 11 16  1  0  0  0  0
 12 13  1  6  0  0  0
 12 17  1  0  0  0  0
 14 15  1  1  0  0  0
 14 18  1  0  0  0  0
 15 31  1  0  0  0  0
 16 20  1  0  0  0  0
 17  2  1  1  0  0  0
 17 22  1  0  0  0  0
 18 19  1  6  0  0  0
 18 24  1  0  0  0  0
 18 30  1  0  0  0  0
 20 21  1  0  0  0  0
 20 26  1  1  0  0  0
 22 23  1  6  0  0  0
 22 28  1  0  0  0  0
 24 25  1  0  0  0  0
 26 27  1  0  0  0  0
 28 29  1  1  0  0  0
M  END
>  <CHROM.1>
-165.62758298,-157.68805129,-87.84890014,-153.85124283,133.65547714,94.84137216
-0.66585397,13.79661326,38.45406096,-0.75952856,-0.60704702,-3.13382464

>  <Name>
ligand

>  <RI>
0

>  <Rbt.Current_Directory>
/home/itssahil/PROJECTS/Mol_Feturizer/New_Systems/rnas/4GPY

>  <Rbt.Executable>
rbdock ($Id: //depot/dev/client3/rdock/2013.1/src/exe/rbdock.cxx#4 $)

>  <Rbt.Library>
libRbt.so (2013.1, Build901 2013/11/27)

>  <Rbt.Parameter_File>
/export/apps/rDock/src/rDock_2013.1_src/data/scripts/dock_solv.prm

>  <Rbt.Receptor>
prm/pocket_docking_6.prm

>  <SCORE>
-16.7892

>  <SCORE.INTER>
-16.4111

>  <SCORE.INTER.CONST>
1

>  <SCORE.INTER.POLAR>
0

>  <SCORE.INTER.ROT>
6

>  <SCORE.INTER.SOLV>
21.4024

>  <SCORE.INTER.VDW>
-25.6748

>  <SCORE.INTER.norm>
-0.52939

>  <SCORE.INTRA>
-0.378115

>  <SCORE.INTRA.DIHEDRAL>
-1.70884

>  <SCORE.INTRA.DIHEDRAL.0>
14.7001

>  <SCORE.INTRA.POLAR>
0

>  <SCORE.INTRA.POLAR.0>
0

>  <SCORE.INTRA.REPUL>
0

>  <SCORE.INTRA.REPUL.0>
0

>  <SCORE.INTRA.SOLV>
-0.00448

>  <SCORE.INTRA.SOLV.lig_0>
-65.3082

>  <SCORE.INTRA.VDW>
0.478545

>  <SCORE.INTRA.VDW.0>
-4.21408

>  <SCORE.INTRA.norm>
-0.0121973

>  <SCORE.RESTR>
0

>  <SCORE.RESTR.CAVITY>
0

>  <SCORE.RESTR.norm>
0

>  <SCORE.SYSTEM>
0

>  <SCORE.SYSTEM.CONST>
0

>  <SCORE.SYSTEM.DIHEDRAL>
0

>  <SCORE.SYSTEM.SOLV>
0

>  <SCORE.SYSTEM.norm>
0

>  <SCORE.heavy>
31

>  <SCORE.norm>
-0.541587

>  <RMSD>
0.566

$$$$
ligand
 OpenBabel11021811493D
libRbt.so/2013.1/901 2013/11/27
 31 33  0  0  0  0  0  0  0  0999 V2000
    1.8739   14.9575   36.7498 C   0  0  2  0  0  0  0  0  0  0  0  0
    1.3393   15.4365   37.9688 O   0  0  0  0  0  0  0  0  0  0  0  0
   -2.3451   15.3463   40.0847 C   0  0  2  0  0  0  0  0  0  0  0  0
   -3.7448   15.4152   40.3356 N   0  0  0  0  0  0  0  0  0  0  0  0
   -3.7242   12.2778   39.2946 C   0  0  2  0  0  0  0  0  0  0  0  0
    3.4290   14.7006   36.9587 C   0  0  2  0  0  0  0  0  0  0  0  0
    3.6147   13.7494   38.0493 N   0  0  0  0  0  0  0  0  0  0  0  0
   -1.8829   16.7356   39.4553 C   0  0  0  0  0  0  0  0  0  0  0  0
   -3.9836   11.2839   40.4761 C   0  0  2  0  0  0  0  0  0  0  0  0
   -4.0068   12.0136   41.6845 O   0  0  0  0  0  0  0  0  0  0  0  0
    4.1781   16.0524   37.2514 C   0  0  0  0  0  0  0  0  0  0  0  0
   -0.3231   16.6645   39.1917 C   0  0  2  0  0  0  0  0  0  0  0  0
    0.1211   17.9368   38.6212 N   0  0  0  0  0  0  0  0  0  0  0  0
   -2.8315   10.2143   40.4903 C   0  0  1  0  0  0  0  0  0  0  0  0
   -3.0464    9.2573   41.6228 N   0  0  0  0  0  0  0  0  0  0  0  0
    3.6190   17.2402   36.3611 C   0  0  0  0  0  0  0  0  0  0  0  0
   -0.0268   15.4836   38.1794 C   0  0  2  0  0  0  0  0  0  0  0  0
   -2.8562    9.3979   39.0828 C   0  0  1  0  0  0  0  0  0  0  0  0
   -4.0738    8.7157   38.8562 O   0  0  0  0  0  0  0  0  0  0  0  0
    2.4618   17.1130   35.6676 C   0  0  1  0  0  0  0  0  0  0  0  0
    1.6692   15.9290   35.6765 O   0  0  0  0  0  0  0  0  0  0  0  0
   -0.5121   14.1096   38.8042 C   0  0  2  0  0  0  0  0  0  0  0  0
   -0.2517   13.0424   37.8696 O   0  0  0  0  0  0  0  0  0  0  0  0
   -2.6377   10.3984   37.9085 C   0  0  0  0  0  0  0  0  0  0  0  0
   -3.6637   11.5160   37.9817 O   0  0  0  0  0  0  0  0  0  0  0  0
    1.8922   18.2217   34.8150 C   0  0  0  0  0  0  0  0  0  0  0  0
    1.6690   17.6597   33.5038 O   0  0  0  0  0  0  0  0  0  0  0  0
   -2.0636   14.1854   39.0726 C   0  0  1  0  0  0  0  0  0  0  0  0
   -2.4689   12.9603   39.6311 O   0  0  0  0  0  0  0  0  0  0  0  0
   -1.7727    8.3196   38.9520 C   0  0  0  0  0  0  0  0  0  0  0  0
   -2.5491    9.6878   42.9459 C   0  0  0  0  0  0  0  0  0  0  0  0
  1  2  1  1  0  0  0
  1  6  1  0  0  0  0
  1 21  1  0  0  0  0
  3  4  1  6  0  0  0
  3  8  1  0  0  0  0
  3 28  1  0  0  0  0
  5  9  1  0  0  0  0
  5 25  1  0  0  0  0
  5 29  1  1  0  0  0
  6  7  1  1  0  0  0
  6 11  1  0  0  0  0
  8 12  1  0  0  0  0
  9 10  1  1  0  0  0
  9 14  1  0  0  0  0
 11 16  1  0  0  0  0
 12 13  1  6  0  0  0
 12 17  1  0  0  0  0
 14 15  1  1  0  0  0
 14 18  1  0  0  0  0
 15 31  1  0  0  0  0
 16 20  1  0  0  0  0
 17  2  1  1  0  0  0
 17 22  1  0  0  0  0
 18 19  1  6  0  0  0
 18 24  1  0  0  0  0
 18 30  1  0  0  0  0
 20 21  1  0  0  0  0
 20 26  1  1  0  0  0
 22 23  1  6  0  0  0
 22 28  1  0  0  0  0
 24 25  1  0  0  0  0
 26 27  1  0  0  0  0
 28 29  1  1  0  0  0
M  END
>  <CHROM.1>
-166.34422428,-160.44885816,-83.72684343,-151.37879865,126.46516293,101.09372754
-0.75302533,13.71693977,38.48466444,-0.74595905,-0.63114287,-3.12770483

>  <Name>
ligand

>  <RI>
0

>  <Rbt.Current_Directory>
/home/itssahil/PROJECTS/Mol_Feturizer/New_Systems/rnas/4GPY

>  <Rbt.Executable>
rbdock ($Id: //depot/dev/client3/rdock/2013.1/src/exe/rbdock.cxx#4 $)

>  <Rbt.Library>
libRbt.so (2013.1, Build901 2013/11/27)

>  <Rbt.Parameter_File>
/export/apps/rDock/src/rDock_2013.1_src/data/scripts/dock_solv.prm

>  <Rbt.Receptor>
prm/pocket_docking_7.prm

>  <SCORE>
-16.8543

>  <SCORE.INTER>
-16.8815

>  <SCORE.INTER.CONST>
1

>  <SCORE.INTER.POLAR>
0

>  <SCORE.INTER.ROT>
6

>  <SCORE.INTER.SOLV>
21.4052

>  <SCORE.INTER.VDW>
-25.9894

>  <SCORE.INTER.norm>
-0.544563

>  <SCORE.INTRA>
0.0271717

>  <SCORE.INTRA.DIHEDRAL>
-1.03708

>  <SCORE.INTRA.DIHEDRAL.0>
14.7001

>  <SCORE.INTRA.POLAR>
0

>  <SCORE.INTRA.POLAR.0>
0

>  <SCORE.INTRA.REPUL>
0

>  <SCORE.INTRA.REPUL.0>
0

>  <SCORE.INTRA.SOLV>
0.0763562

>  <SCORE.INTRA.SOLV.lig_0>
-65.3082

>  <SCORE.INTRA.VDW>
0.507534

>  <SCORE.INTRA.VDW.0>
-4.21408

>  <SCORE.INTRA.norm>
0.000876507

>  <SCORE.RESTR>
0

>  <SCORE.RESTR.CAVITY>
0

>  <SCORE.RESTR.norm>
0

>  <SCORE.SYSTEM>
0

>  <SCORE.SYSTEM.CONST>
0

>  <SCORE.SYSTEM.DIHEDRAL>
0

>  <SCORE.SYSTEM.SOLV>
0

>  <SCORE.SYSTEM.norm>
0

>  <SCORE.heavy>
31

>  <SCORE.norm>
-0.543687

>  <RMSD>
0.568

$$$$
ligand
 OpenBabel11021811493D
libRbt.so/2013.1/901 2013/11/27
 31 33  0  0  0  0  0  0  0  0999 V2000
    1.9698   15.2009   36.9205 C   0  0  2  0  0  0  0  0  0  0  0  0
    1.3702   15.7393   38.0833 O   0  0  0  0  0  0  0  0  0  0  0  0
   -2.3643   15.4791   40.0948 C   0  0  2  0  0  0  0  0  0  0  0  0
   -3.7724   15.4768   40.3049 N   0  0  0  0  0  0  0  0  0  0  0  0
   -3.6271   12.4056   39.4210 C   0  0  2  0  0  0  0  0  0  0  0  0
    3.5303   15.0582   37.1896 C   0  0  2  0  0  0  0  0  0  0  0  0
    3.7390   14.2083   38.3570 N   0  0  0  0  0  0  0  0  0  0  0  0
   -1.9575   16.8835   39.4607 C   0  0  0  0  0  0  0  0  0  0  0  0
   -3.7707   11.3606   40.5781 C   0  0  2  0  0  0  0  0  0  0  0  0
   -3.6857   12.0389   41.8134 O   0  0  0  0  0  0  0  0  0  0  0  0
    4.1877   16.4726   37.3930 C   0  0  0  0  0  0  0  0  0  0  0  0
   -0.3891   16.8918   39.2424 C   0  0  2  0  0  0  0  0  0  0  0  0
    0.0041   18.1792   38.6681 N   0  0  0  0  0  0  0  0  0  0  0  0
   -2.6167   10.3020   40.4402 C   0  0  1  0  0  0  0  0  0  0  0  0
   -2.7208    9.2965   41.5459 N   0  0  0  0  0  0  0  0  0  0  0  0
    3.5862   17.5504   36.3968 C   0  0  0  0  0  0  0  0  0  0  0  0
   -0.0020   15.7166   38.2543 C   0  0  2  0  0  0  0  0  0  0  0  0
   -2.7673    9.5452   39.0075 C   0  0  1  0  0  0  0  0  0  0  0  0
   -3.9971    8.8620   38.8654 O   0  0  0  0  0  0  0  0  0  0  0  0
    2.4605   17.2979   35.6857 C   0  0  1  0  0  0  0  0  0  0  0  0
    1.7405   16.0712   35.7683 O   0  0  0  0  0  0  0  0  0  0  0  0
   -0.4326   14.3263   38.8830 C   0  0  2  0  0  0  0  0  0  0  0  0
   -0.0896   13.2635   37.9702 O   0  0  0  0  0  0  0  0  0  0  0  0
   -2.6638   10.5959   37.8618 C   0  0  0  0  0  0  0  0  0  0  0  0
   -3.6844   11.7001   38.0769 O   0  0  0  0  0  0  0  0  0  0  0  0
    1.8522   18.2992   34.7330 C   0  0  0  0  0  0  0  0  0  0  0  0
    1.6638   17.6113   33.4775 O   0  0  0  0  0  0  0  0  0  0  0  0
   -1.9931   14.3231   39.1063 C   0  0  1  0  0  0  0  0  0  0  0  0
   -2.3495   13.0849   39.6690 O   0  0  0  0  0  0  0  0  0  0  0  0
   -1.6950    8.4832   38.7314 C   0  0  0  0  0  0  0  0  0  0  0  0
   -2.1349    9.6893   42.8443 C   0  0  0  0  0  0  0  0  0  0  0  0
  1  2  1  1  0  0  0
  1  6  1  0  0  0  0
  1 21  1  0  0  0  0
  3  4  1  6  0  0  0
  3  8  1  0  0  0  0
  3 28  1  0  0  0  0
  5  9  1  0  0  0  0
  5 25  1  0  0  0  0
  5 29  1  1  0  0  0
  6  7  1  1  0  0  0
  6 11  1  0  0  0  0
  8 12  1  0  0  0  0
  9 10  1  1  0  0  0
  9 14  1  0  0  0  0
 11 16  1  0  0  0  0
 12 13  1  6  0  0  0
 12 17  1  0  0  0  0
 14 15  1  1  0  0  0
 14 18  1  0  0  0  0
 15 31  1  0  0  0  0
 16 20  1  0  0  0  0
 17  2  1  1  0  0  0
 17 22  1  0  0  0  0
 18 19  1  6  0  0  0
 18 24  1  0  0  0  0
 18 30  1  0  0  0  0
 20 21  1  0  0  0  0
 20 26  1  1  0  0  0
 22 23  1  6  0  0  0
 22 28  1  0  0  0  0
 24 25  1  0  0  0  0
 26 27  1  0  0  0  0
 28 29  1  1  0  0  0
M  END
>  <CHROM.1>
-166.28721884,-161.81111671,-82.25512117,-155.25646402,128.26164873,93.88065544
-0.67775861,13.88897871,38.52634664,-0.77235994,-0.62547262,-3.13345278

>  <Name>
ligand

>  <RI>
0

>  <Rbt.Current_Directory>
/home/itssahil/PROJECTS/Mol_Feturizer/New_Systems/rnas/4GPY

>  <Rbt.Executable>
rbdock ($Id: //depot/dev/client3/rdock/2013.1/src/exe/rbdock.cxx#4 $)

>  <Rbt.Library>
libRbt.so (2013.1, Build901 2013/11/27)

>  <Rbt.Parameter_File>
/export/apps/rDock/src/rDock_2013.1_src/data/scripts/dock_solv.prm

>  <Rbt.Receptor>
prm/pocket_docking_2.prm

>  <SCORE>
-16.8174

>  <SCORE.INTER>
-15.7783

>  <SCORE.INTER.CONST>
1

>  <SCORE.INTER.POLAR>
0

>  <SCORE.INTER.ROT>
6

>  <SCORE.INTER.SOLV>
21.0785

>  <SCORE.INTER.VDW>
-25.1451

>  <SCORE.INTER.norm>
-0.508978

>  <SCORE.INTRA>
-1.03912

>  <SCORE.INTRA.DIHEDRAL>
-3.2183

>  <SCORE.INTRA.DIHEDRAL.0>
14.7001

>  <SCORE.INTRA.POLAR>
0

>  <SCORE.INTRA.POLAR.0>
0

>  <SCORE.INTRA.REPUL>
0

>  <SCORE.INTRA.REPUL.0>
0

>  <SCORE.INTRA.SOLV>
-0.242455

>  <SCORE.INTRA.SOLV.lig_0>
-65.3082

>  <SCORE.INTRA.VDW>
0.691261

>  <SCORE.INTRA.VDW.0>
-4.21408

>  <SCORE.INTRA.norm>
-0.0335199

>  <SCORE.RESTR>
0

>  <SCORE.RESTR.CAVITY>
0

>  <SCORE.RESTR.norm>
0

>  <SCORE.SYSTEM>
0

>  <SCORE.SYSTEM.CONST>
0

>  <SCORE.SYSTEM.DIHEDRAL>
0

>  <SCORE.SYSTEM.SOLV>
0

>  <SCORE.SYSTEM.norm>
0

>  <SCORE.heavy>
31

>  <SCORE.norm>
-0.542498

>  <RMSD>
0.569

$$$$
ligand
 OpenBabel11021811493D
libRbt.so/2013.1/901 2013/11/27
 31 33  0  0  0  0  0  0  0  0999 V2000
    2.0192   15.1397   36.7461 C   0  0  2  0  0  0  0  0  0  0  0  0
    1.4500   15.6282   37.9456 O   0  0  0  0  0  0  0  0  0  0  0  0
   -2.2661   15.4435   39.9990 C   0  0  2  0  0  0  0  0  0  0  0  0
   -3.6712   15.4748   40.2259 N   0  0  0  0  0  0  0  0  0  0  0  0
   -3.6052   12.3983   39.2936 C   0  0  2  0  0  0  0  0  0  0  0  0
    3.5761   14.9267   36.9884 C   0  0  2  0  0  0  0  0  0  0  0  0
    3.7653   14.0017   38.1006 N   0  0  0  0  0  0  0  0  0  0  0  0
   -1.8312   16.8431   39.3731 C   0  0  0  0  0  0  0  0  0  0  0  0
   -3.7967   11.3864   40.4729 C   0  0  2  0  0  0  0  0  0  0  0  0
   -3.7203   12.0932   41.6926 O   0  0  0  0  0  0  0  0  0  0  0  0
    4.2853   16.3025   37.2679 C   0  0  0  0  0  0  0  0  0  0  0  0
   -0.2657   16.8138   39.1362 C   0  0  2  0  0  0  0  0  0  0  0  0
    0.1533   18.0962   38.5692 N   0  0  0  0  0  0  0  0  0  0  0  0
   -2.6656   10.2981   40.3848 C   0  0  1  0  0  0  0  0  0  0  0  0
   -2.8156    9.3233   41.5125 N   0  0  0  0  0  0  0  0  0  0  0  0
    3.7133   17.4583   36.3445 C   0  0  0  0  0  0  0  0  0  0  0  0
    0.0798   15.6386   38.1328 C   0  0  2  0  0  0  0  0  0  0  0  0
   -2.8056    9.5093   38.9684 C   0  0  1  0  0  0  0  0  0  0  0  0
   -4.0481    8.8515   38.8179 O   0  0  0  0  0  0  0  0  0  0  0  0
    2.5727   17.2884   35.6326 C   0  0  1  0  0  0  0  0  0  0  0  0
    1.8102   16.0848   35.6504 O   0  0  0  0  0  0  0  0  0  0  0  0
   -0.3786   14.2537   38.7537 C   0  0  2  0  0  0  0  0  0  0  0  0
   -0.0733   13.1914   37.8271 O   0  0  0  0  0  0  0  0  0  0  0  0
   -2.6542   10.5283   37.7995 C   0  0  0  0  0  0  0  0  0  0  0  0
   -3.6525   11.6609   37.9664 O   0  0  0  0  0  0  0  0  0  0  0  0
    1.9914   18.3655   34.7482 C   0  0  0  0  0  0  0  0  0  0  0  0
    1.6803   17.7382   33.4854 O   0  0  0  0  0  0  0  0  0  0  0  0
   -1.9359   14.2879   38.9956 C   0  0  1  0  0  0  0  0  0  0  0  0
   -2.3171   13.0537   39.5510 O   0  0  0  0  0  0  0  0  0  0  0  0
   -1.7534    8.4161   38.7406 C   0  0  0  0  0  0  0  0  0  0  0  0
   -2.0876    9.6462   42.7572 C   0  0  0  0  0  0  0  0  0  0  0  0
  1  2  1  1  0  0  0
  1  6  1  0  0  0  0
  1 21  1  0  0  0  0
  3  4  1  6  0  0  0
  3  8  1  0  0  0  0
  3 28  1  0  0  0  0
  5  9  1  0  0  0  0
  5 25  1  0  0  0  0
  5 29  1  1  0  0  0
  6  7  1  1  0  0  0
  6 11  1  0  0  0  0
  8 12  1  0  0  0  0
  9 10  1  1  0  0  0
  9 14  1  0  0  0  0
 11 16  1  0  0  0  0
 12 13  1  6  0  0  0
 12 17  1  0  0  0  0
 14 15  1  1  0  0  0
 14 18  1  0  0  0  0
 15 31  1  0  0  0  0
 16 20  1  0  0  0  0
 17  2  1  1  0  0  0
 17 22  1  0  0  0  0
 18 19  1  6  0  0  0
 18 24  1  0  0  0  0
 18 30  1  0  0  0  0
 20 21  1  0  0  0  0
 20 26  1  1  0  0  0
 22 23  1  6  0  0  0
 22 28  1  0  0  0  0
 24 25  1  0  0  0  0
 26 27  1  0  0  0  0
 28 29  1  1  0  0  0
M  END
>  <CHROM.1>
-166.03820205,-159.89643133,-90.48517259,-152.45360553,132.16313210,94.97804505
-0.63470690,13.84913940,38.43114618,-0.77279422,-0.60722627,3.13511087

>  <Name>
ligand

>  <RI>
0

>  <Rbt.Current_Directory>
/home/itssahil/PROJECTS/Mol_Feturizer/New_Systems/rnas/4GPY

>  <Rbt.Executable>
rbdock ($Id: //depot/dev/client3/rdock/2013.1/src/exe/rbdock.cxx#4 $)

>  <Rbt.Library>
libRbt.so (2013.1, Build901 2013/11/27)

>  <Rbt.Parameter_File>
/export/apps/rDock/src/rDock_2013.1_src/data/scripts/dock_solv.prm

>  <Rbt.Receptor>
prm/pocket_docking_2.prm

>  <SCORE>
-16.7632

>  <SCORE.INTER>
-16.2259

>  <SCORE.INTER.CONST>
1

>  <SCORE.INTER.POLAR>
0

>  <SCORE.INTER.ROT>
6

>  <SCORE.INTER.SOLV>
21.2821

>  <SCORE.INTER.VDW>
-25.5113

>  <SCORE.INTER.norm>
-0.523416

>  <SCORE.INTRA>
-0.537291

>  <SCORE.INTRA.DIHEDRAL>
-1.81362

>  <SCORE.INTRA.DIHEDRAL.0>
14.7001

>  <SCORE.INTRA.POLAR>
0

>  <SCORE.INTRA.POLAR.0>
0

>  <SCORE.INTRA.REPUL>
0

>  <SCORE.INTRA.REPUL.0>
0

>  <SCORE.INTRA.SOLV>
0.0109521

>  <SCORE.INTRA.SOLV.lig_0>
-65.3082

>  <SCORE.INTRA.VDW>
0.36404

>  <SCORE.INTRA.VDW.0>
-4.21408

>  <SCORE.INTRA.norm>
-0.017332

>  <SCORE.RESTR>
0

>  <SCORE.RESTR.CAVITY>
0

>  <SCORE.RESTR.norm>
0

>  <SCORE.SYSTEM>
0

>  <SCORE.SYSTEM.CONST>
0

>  <SCORE.SYSTEM.DIHEDRAL>
0

>  <SCORE.SYSTEM.SOLV>
0

>  <SCORE.SYSTEM.norm>
0

>  <SCORE.heavy>
31

>  <SCORE.norm>
-0.540748

>  <RMSD>
0.569

$$$$
ligand
 OpenBabel11021811493D
libRbt.so/2013.1/901 2013/11/27
 31 33  0  0  0  0  0  0  0  0999 V2000
    2.0068   14.5888   36.7681 C   0  0  2  0  0  0  0  0  0  0  0  0
    1.4752   15.0763   37.9851 O   0  0  0  0  0  0  0  0  0  0  0  0
   -2.2408   15.3681   40.0262 C   0  0  2  0  0  0  0  0  0  0  0  0
   -3.6383   15.5333   40.2419 N   0  0  0  0  0  0  0  0  0  0  0  0
   -3.7542   12.2953   39.4461 C   0  0  2  0  0  0  0  0  0  0  0  0
    3.5796   14.4337   36.9423 C   0  0  2  0  0  0  0  0  0  0  0  0
    3.8511   13.5336   38.0580 N   0  0  0  0  0  0  0  0  0  0  0  0
   -1.6931   16.6705   39.2890 C   0  0  0  0  0  0  0  0  0  0  0  0
   -3.9786   11.2453   40.5855 C   0  0  2  0  0  0  0  0  0  0  0  0
   -3.9649   11.9157   41.8279 O   0  0  0  0  0  0  0  0  0  0  0  0
    4.2516   15.8375   37.1696 C   0  0  0  0  0  0  0  0  0  0  0  0
   -0.1357   16.4933   39.0639 C   0  0  2  0  0  0  0  0  0  0  0  0
    0.3866   17.6856   38.3950 N   0  0  0  0  0  0  0  0  0  0  0  0
   -2.8274   10.1771   40.5132 C   0  0  1  0  0  0  0  0  0  0  0  0
   -3.0089    9.1663   41.6040 N   0  0  0  0  0  0  0  0  0  0  0  0
    3.5982   16.9580   36.2567 C   0  0  0  0  0  0  0  0  0  0  0  0
    0.1107   15.2146   38.1633 C   0  0  2  0  0  0  0  0  0  0  0  0
   -2.8951    9.4297   39.0693 C   0  0  1  0  0  0  0  0  0  0  0  0
   -4.1195    8.7584   38.8467 O   0  0  0  0  0  0  0  0  0  0  0  0
    2.4335   16.7374   35.5999 C   0  0  1  0  0  0  0  0  0  0  0  0
    1.7156   15.5086   35.6696 O   0  0  0  0  0  0  0  0  0  0  0  0
   -0.4591   13.9283   38.8942 C   0  0  2  0  0  0  0  0  0  0  0  0
   -0.2435   12.7713   38.0604 O   0  0  0  0  0  0  0  0  0  0  0  0
   -2.7112   10.4860   37.9387 C   0  0  0  0  0  0  0  0  0  0  0  0
   -3.7338   11.5980   38.0967 O   0  0  0  0  0  0  0  0  0  0  0  0
    1.7754   17.7796   34.7275 C   0  0  0  0  0  0  0  0  0  0  0  0
    0.5996   18.2270   35.4361 O   0  0  0  0  0  0  0  0  0  0  0  0
   -2.0081   14.1101   39.1237 C   0  0  1  0  0  0  0  0  0  0  0  0
   -2.4888   12.9617   39.7773 O   0  0  0  0  0  0  0  0  0  0  0  0
   -1.8168    8.3597   38.8539 C   0  0  0  0  0  0  0  0  0  0  0  0
   -2.4902    9.5413   42.9358 C   0  0  0  0  0  0  0  0  0  0  0  0
  1  2  1  1  0  0  0
  1  6  1  0  0  0  0
  1 21  1  0  0  0  0
  3  4  1  6  0  0  0
  3  8  1  0  0  0  0
  3 28  1  0  0  0  0
  5  9  1  0  0  0  0
  5 25  1  0  0  0  0
  5 29  1  1  0  0  0
  6  7  1  1  0  0  0
  6 11  1  0  0  0  0
  8 12  1  0  0  0  0
  9 10  1  1  0  0  0
  9 14  1  0  0  0  0
 11 16  1  0  0  0  0
 12 13  1  6  0  0  0
 12 17  1  0  0  0  0
 14 15  1  1  0  0  0
 14 18  1  0  0  0  0
 15 31  1  0  0  0  0
 16 20  1  0  0  0  0
 17  2  1  1  0  0  0
 17 22  1  0  0  0  0
 18 19  1  6  0  0  0
 18 24  1  0  0  0  0
 18 30  1  0  0  0  0
 20 21  1  0  0  0  0
 20 26  1  1  0  0  0
 22 23  1  6  0  0  0
 22 28  1  0  0  0  0
 24 25  1  0  0  0  0
 26 27  1  0  0  0  0
 28 29  1  1  0  0  0
M  END
>  <CHROM.1>
-175.06588071,-170.22627066,-82.81246427,-144.97241076,-108.60262265,103.15723766
-0.74386797,13.60259830,38.55367513,-0.79820203,-0.52559233,3.05616733

>  <Name>
ligand

>  <RI>
0

>  <Rbt.Current_Directory>
/home/itssahil/PROJECTS/Mol_Feturizer/New_Systems/rnas/4GPY

>  <Rbt.Executable>
rbdock ($Id: //depot/dev/client3/rdock/2013.1/src/exe/rbdock.cxx#4 $)

>  <Rbt.Library>
libRbt.so (2013.1, Build901 2013/11/27)

>  <Rbt.Parameter_File>
/export/apps/rDock/src/rDock_2013.1_src/data/scripts/dock_solv.prm

>  <Rbt.Receptor>
prm/pocket_docking_3.prm

>  <SCORE>
-16.4265

>  <SCORE.INTER>
-16.364

>  <SCORE.INTER.CONST>
1

>  <SCORE.INTER.POLAR>
0

>  <SCORE.INTER.ROT>
6

>  <SCORE.INTER.SOLV>
19.6301

>  <SCORE.INTER.VDW>
-25.0527

>  <SCORE.INTER.norm>
-0.52787

>  <SCORE.INTRA>
-0.109151

>  <SCORE.INTRA.DIHEDRAL>
-1.47205

>  <SCORE.INTRA.DIHEDRAL.0>
14.7001

>  <SCORE.INTRA.POLAR>
0

>  <SCORE.INTRA.POLAR.0>
0

>  <SCORE.INTRA.REPUL>
0

>  <SCORE.INTRA.REPUL.0>
0

>  <SCORE.INTRA.SOLV>
1.21592

>  <SCORE.INTRA.SOLV.lig_0>
-65.3082

>  <SCORE.INTRA.VDW>
0.0189132

>  <SCORE.INTRA.VDW.0>
-4.21408

>  <SCORE.INTRA.norm>
-0.00352099

>  <SCORE.RESTR>
0.0466063

>  <SCORE.RESTR.CAVITY>
0.0466063

>  <SCORE.RESTR.norm>
0.00150343

>  <SCORE.SYSTEM>
0

>  <SCORE.SYSTEM.CONST>
0

>  <SCORE.SYSTEM.DIHEDRAL>
0

>  <SCORE.SYSTEM.SOLV>
0

>  <SCORE.SYSTEM.norm>
0

>  <SCORE.heavy>
31

>  <SCORE.norm>
-0.529888

>  <RMSD>
0.569

$$$$
ligand
 OpenBabel11021811493D
libRbt.so/2013.1/901 2013/11/27
 31 33  0  0  0  0  0  0  0  0999 V2000
    1.9963   15.1446   36.7212 C   0  0  2  0  0  0  0  0  0  0  0  0
    1.4275   15.6217   37.9254 O   0  0  0  0  0  0  0  0  0  0  0  0
   -2.2808   15.3772   39.9867 C   0  0  2  0  0  0  0  0  0  0  0  0
   -3.6853   15.3962   40.2186 N   0  0  0  0  0  0  0  0  0  0  0  0
   -3.6174   12.3528   39.2536 C   0  0  2  0  0  0  0  0  0  0  0  0
    3.5568   14.9493   36.9547 C   0  0  2  0  0  0  0  0  0  0  0  0
    3.7627   14.0223   38.0623 N   0  0  0  0  0  0  0  0  0  0  0  0
   -1.8558   16.7907   39.3860 C   0  0  0  0  0  0  0  0  0  0  0  0
   -3.8274   11.3818   40.4637 C   0  0  2  0  0  0  0  0  0  0  0  0
   -3.7430   12.1257   41.6607 O   0  0  0  0  0  0  0  0  0  0  0  0
    4.2510   16.3324   37.2360 C   0  0  0  0  0  0  0  0  0  0  0  0
   -0.2910   16.7748   39.1436 C   0  0  2  0  0  0  0  0  0  0  0  0
    0.1190   18.0701   38.5996 N   0  0  0  0  0  0  0  0  0  0  0  0
   -2.7132   10.2739   40.4135 C   0  0  1  0  0  0  0  0  0  0  0  0
   -2.8811    9.3378   41.5711 N   0  0  0  0  0  0  0  0  0  0  0  0
    3.6605   17.4848   36.3200 C   0  0  0  0  0  0  0  0  0  0  0  0
    0.0578   15.6208   38.1171 C   0  0  2  0  0  0  0  0  0  0  0  0
   -2.8620    9.4428   39.0223 C   0  0  1  0  0  0  0  0  0  0  0  0
   -4.1143    8.7999   38.8892 O   0  0  0  0  0  0  0  0  0  0  0  0
    2.5185   17.3040   35.6132 C   0  0  1  0  0  0  0  0  0  0  0  0
    1.7705   16.0914   35.6302 O   0  0  0  0  0  0  0  0  0  0  0  0
   -0.3907   14.2218   38.7133 C   0  0  2  0  0  0  0  0  0  0  0  0
   -0.0826   13.1789   37.7658 O   0  0  0  0  0  0  0  0  0  0  0  0
   -2.6920   10.4218   37.8222 C   0  0  0  0  0  0  0  0  0  0  0  0
   -3.6729   11.5745   37.9503 O   0  0  0  0  0  0  0  0  0  0  0  0
    1.9199   18.3775   34.7360 C   0  0  0  0  0  0  0  0  0  0  0  0
    1.6529   17.7629   33.4571 O   0  0  0  0  0  0  0  0  0  0  0  0
   -1.9474   14.2426   38.9606 C   0  0  1  0  0  0  0  0  0  0  0  0
   -2.3199   12.9960   39.4938 O   0  0  0  0  0  0  0  0  0  0  0  0
   -1.8264    8.3269   38.8323 C   0  0  0  0  0  0  0  0  0  0  0  0
   -2.0565    9.6192   42.7645 C   0  0  0  0  0  0  0  0  0  0  0  0
  1  2  1  1  0  0  0
  1  6  1  0  0  0  0
  1 21  1  0  0  0  0
  3  4  1  6  0  0  0
  3  8  1  0  0  0  0
  3 28  1  0  0  0  0
  5  9  1  0  0  0  0
  5 25  1  0  0  0  0
  5 29  1  1  0  0  0
  6  7  1  1  0  0  0
  6 11  1  0  0  0  0
  8 12  1  0  0  0  0
  9 10  1  1  0  0  0
  9 14  1  0  0  0  0
 11 16  1  0  0  0  0
 12 13  1  6  0  0  0
 12 17  1  0  0  0  0
 14 15  1  1  0  0  0
 14 18  1  0  0  0  0
 15 31  1  0  0  0  0
 16 20  1  0  0  0  0
 17  2  1  1  0  0  0
 17 22  1  0  0  0  0
 18 19  1  6  0  0  0
 18 24  1  0  0  0  0
 18 30  1  0  0  0  0
 20 21  1  0  0  0  0
 20 26  1  1  0  0  0
 22 23  1  6  0  0  0
 22 28  1  0  0  0  0
 24 25  1  0  0  0  0
 26 27  1  0  0  0  0
 28 29  1  1  0  0  0
M  END
>  <CHROM.1>
-166.34155786,-156.15302423,-95.88862974,-153.19704171,130.21162060,93.48480580
-0.66421147,13.82587762,38.42460367,-0.77657034,-0.61010119,3.13385109

>  <Name>
ligand

>  <RI>
0

>  <Rbt.Current_Directory>
/home/itssahil/PROJECTS/Mol_Feturizer/New_Systems/rnas/4GPY

>  <Rbt.Executable>
rbdock ($Id: //depot/dev/client3/rdock/2013.1/src/exe/rbdock.cxx#4 $)

>  <Rbt.Library>
libRbt.so (2013.1, Build901 2013/11/27)

>  <Rbt.Parameter_File>
/export/apps/rDock/src/rDock_2013.1_src/data/scripts/dock_solv.prm

>  <Rbt.Receptor>
prm/pocket_docking_5.prm

>  <SCORE>
-16.7002

>  <SCORE.INTER>
-16.2431

>  <SCORE.INTER.CONST>
1

>  <SCORE.INTER.POLAR>
0

>  <SCORE.INTER.ROT>
6

>  <SCORE.INTER.SOLV>
21.5761

>  <SCORE.INTER.VDW>
-25.6208

>  <SCORE.INTER.norm>
-0.523971

>  <SCORE.INTRA>
-0.45713

>  <SCORE.INTRA.DIHEDRAL>
-1.5083

>  <SCORE.INTRA.DIHEDRAL.0>
14.7001

>  <SCORE.INTRA.POLAR>
0

>  <SCORE.INTRA.POLAR.0>
0

>  <SCORE.INTRA.REPUL>
0

>  <SCORE.INTRA.REPUL.0>
0

>  <SCORE.INTRA.SOLV>
0.0583862

>  <SCORE.INTRA.SOLV.lig_0>
-65.3082

>  <SCORE.INTRA.VDW>
0.267827

>  <SCORE.INTRA.VDW.0>
-4.21408

>  <SCORE.INTRA.norm>
-0.0147461

>  <SCORE.RESTR>
0

>  <SCORE.RESTR.CAVITY>
0

>  <SCORE.RESTR.norm>
0

>  <SCORE.SYSTEM>
0

>  <SCORE.SYSTEM.CONST>
0

>  <SCORE.SYSTEM.DIHEDRAL>
0

>  <SCORE.SYSTEM.SOLV>
0

>  <SCORE.SYSTEM.norm>
0

>  <SCORE.heavy>
31

>  <SCORE.norm>
-0.538717

>  <RMSD>
0.569

$$$$
ligand
 OpenBabel11021811493D
libRbt.so/2013.1/901 2013/11/27
 31 33  0  0  0  0  0  0  0  0999 V2000
    1.8144   14.9509   36.7379 C   0  0  2  0  0  0  0  0  0  0  0  0
    1.2904   15.4279   37.9623 O   0  0  0  0  0  0  0  0  0  0  0  0
   -2.3757   15.3281   40.1095 C   0  0  2  0  0  0  0  0  0  0  0  0
   -3.7731   15.3960   40.3728 N   0  0  0  0  0  0  0  0  0  0  0  0
   -3.7525   12.2535   39.3007 C   0  0  2  0  0  0  0  0  0  0  0  0
    3.3714   14.6946   36.9328 C   0  0  2  0  0  0  0  0  0  0  0  0
    3.5673   13.7419   38.0203 N   0  0  0  0  0  0  0  0  0  0  0  0
   -1.9186   16.7203   39.4830 C   0  0  0  0  0  0  0  0  0  0  0  0
   -4.0091   11.2528   40.4771 C   0  0  2  0  0  0  0  0  0  0  0  0
   -4.0430   11.9774   41.6883 O   0  0  0  0  0  0  0  0  0  0  0  0
    4.1224   16.0463   37.2207 C   0  0  0  0  0  0  0  0  0  0  0  0
   -0.3611   16.6502   39.2055 C   0  0  2  0  0  0  0  0  0  0  0  0
    0.0785   17.9252   38.6374 N   0  0  0  0  0  0  0  0  0  0  0  0
   -2.8488   10.1921   40.4918 C   0  0  1  0  0  0  0  0  0  0  0  0
   -3.0610    9.2289   41.6195 N   0  0  0  0  0  0  0  0  0  0  0  0
    3.5549   17.2351   36.3371 C   0  0  0  0  0  0  0  0  0  0  0  0
   -0.0738   15.4742   38.1849 C   0  0  2  0  0  0  0  0  0  0  0  0
   -2.8613    9.3813   39.0809 C   0  0  1  0  0  0  0  0  0  0  0  0
   -4.0726    8.6907   38.8464 O   0  0  0  0  0  0  0  0  0  0  0  0
    2.3916   17.1083   35.6536 C   0  0  1  0  0  0  0  0  0  0  0  0
    1.5998   15.9238   35.6679 O   0  0  0  0  0  0  0  0  0  0  0  0
   -0.5541   14.0973   38.8072 C   0  0  2  0  0  0  0  0  0  0  0  0
   -0.3020   13.0346   37.8651 O   0  0  0  0  0  0  0  0  0  0  0  0
   -2.6456   10.3882   37.9116 C   0  0  0  0  0  0  0  0  0  0  0  0
   -3.6806   11.4976   37.9850 O   0  0  0  0  0  0  0  0  0  0  0  0
    1.8140   18.2178   34.8077 C   0  0  0  0  0  0  0  0  0  0  0  0
    1.6740   17.6872   33.4722 O   0  0  0  0  0  0  0  0  0  0  0  0
   -2.1032   14.1721   39.0893 C   0  0  1  0  0  0  0  0  0  0  0  0
   -2.5039   12.9444   39.6452 O   0  0  0  0  0  0  0  0  0  0  0  0
   -1.7689    8.3120   38.9503 C   0  0  0  0  0  0  0  0  0  0  0  0
   -2.5080    9.6256   42.9310 C   0  0  0  0  0  0  0  0  0  0  0  0
  1  2  1  1  0  0  0
  1  6  1  0  0  0  0
  1 21  1  0  0  0  0
  3  4  1  6  0  0  0
  3  8  1  0  0  0  0
  3 28  1  0  0  0  0
  5  9  1  0  0  0  0
  5 25  1  0  0  0  0
  5 29  1  1  0  0  0
  6  7  1  1  0  0  0
  6 11  1  0  0  0  0
  8 12  1  0  0  0  0
  9 10  1  1  0  0  0
  9 14  1  0  0  0  0
 11 16  1  0  0  0  0
 12 13  1  6  0  0  0
 12 17  1  0  0  0  0
 14 15  1  1  0  0  0
 14 18  1  0  0  0  0
 15 31  1  0  0  0  0
 16 20  1  0  0  0  0
 17  2  1  1  0  0  0
 17 22  1  0  0  0  0
 18 19  1  6  0  0  0
 18 24  1  0  0  0  0
 18 30  1  0  0  0  0
 20 21  1  0  0  0  0
 20 26  1  1  0  0  0
 22 23  1  6  0  0  0
 22 28  1  0  0  0  0
 24 25  1  0  0  0  0
 26 27  1  0  0  0  0
 28 29  1  1  0  0  0
M  END
>  <CHROM.1>
-166.35707186,-160.72538276,-86.91735777,-151.57623718,122.23040070,102.08414852
-0.78620561,13.70260500,38.48289274,-0.74810980,-0.63958117,-3.12538750

>  <Name>
ligand

>  <RI>
0

>  <Rbt.Current_Directory>
/home/itssahil/PROJECTS/Mol_Feturizer/New_Systems/rnas/4GPY

>  <Rbt.Executable>
rbdock ($Id: //depot/dev/client3/rdock/2013.1/src/exe/rbdock.cxx#4 $)

>  <Rbt.Library>
libRbt.so (2013.1, Build901 2013/11/27)

>  <Rbt.Parameter_File>
/export/apps/rDock/src/rDock_2013.1_src/data/scripts/dock_solv.prm

>  <Rbt.Receptor>
prm/pocket_docking_2.prm

>  <SCORE>
-16.8575

>  <SCORE.INTER>
-16.7824

>  <SCORE.INTER.CONST>
1

>  <SCORE.INTER.POLAR>
0

>  <SCORE.INTER.ROT>
6

>  <SCORE.INTER.SOLV>
21.5804

>  <SCORE.INTER.VDW>
-25.9817

>  <SCORE.INTER.norm>
-0.541367

>  <SCORE.INTRA>
-0.0751309

>  <SCORE.INTRA.DIHEDRAL>
-0.918144

>  <SCORE.INTRA.DIHEDRAL.0>
14.7001

>  <SCORE.INTRA.POLAR>
0

>  <SCORE.INTRA.POLAR.0>
0

>  <SCORE.INTRA.REPUL>
0

>  <SCORE.INTRA.REPUL.0>
0

>  <SCORE.INTRA.SOLV>
0.0344963

>  <SCORE.INTRA.SOLV.lig_0>
-65.3082

>  <SCORE.INTRA.VDW>
0.366693

>  <SCORE.INTRA.VDW.0>
-4.21408

>  <SCORE.INTRA.norm>
-0.00242358

>  <SCORE.RESTR>
0

>  <SCORE.RESTR.CAVITY>
0

>  <SCORE.RESTR.norm>
0

>  <SCORE.SYSTEM>
0

>  <SCORE.SYSTEM.CONST>
0

>  <SCORE.SYSTEM.DIHEDRAL>
0

>  <SCORE.SYSTEM.SOLV>
0

>  <SCORE.SYSTEM.norm>
0

>  <SCORE.heavy>
31

>  <SCORE.norm>
-0.54379

>  <RMSD>
0.570

$$$$
ligand
 OpenBabel11021811493D
libRbt.so/2013.1/901 2013/11/27
 31 33  0  0  0  0  0  0  0  0999 V2000
    1.8908   14.9442   36.7466 C   0  0  2  0  0  0  0  0  0  0  0  0
    1.3480   15.4299   37.9593 O   0  0  0  0  0  0  0  0  0  0  0  0
   -2.3458   15.3228   40.0579 C   0  0  2  0  0  0  0  0  0  0  0  0
   -3.7470   15.3852   40.3022 N   0  0  0  0  0  0  0  0  0  0  0  0
   -3.7162   12.2574   39.2756 C   0  0  2  0  0  0  0  0  0  0  0  0
    3.4437   14.6850   36.9684 C   0  0  2  0  0  0  0  0  0  0  0  0
    3.6192   13.7385   38.0647 N   0  0  0  0  0  0  0  0  0  0  0  0
   -1.8870   16.7141   39.4308 C   0  0  0  0  0  0  0  0  0  0  0  0
   -3.9758   11.2716   40.4638 C   0  0  2  0  0  0  0  0  0  0  0  0
   -3.9913   12.0085   41.6680 O   0  0  0  0  0  0  0  0  0  0  0  0
    4.1935   16.0366   37.2605 C   0  0  0  0  0  0  0  0  0  0  0  0
   -0.3257   16.6502   39.1744 C   0  0  2  0  0  0  0  0  0  0  0  0
    0.1154   17.9246   38.6060 N   0  0  0  0  0  0  0  0  0  0  0  0
   -2.8285   10.1969   40.4801 C   0  0  1  0  0  0  0  0  0  0  0  0
   -3.0436    9.2475   41.6189 N   0  0  0  0  0  0  0  0  0  0  0  0
    3.6436   17.2214   36.3607 C   0  0  0  0  0  0  0  0  0  0  0  0
   -0.0192   15.4707   38.1635 C   0  0  2  0  0  0  0  0  0  0  0  0
   -2.8619    9.3725   39.0775 C   0  0  1  0  0  0  0  0  0  0  0  0
   -4.0834    8.6945   38.8592 O   0  0  0  0  0  0  0  0  0  0  0  0
    2.4913   17.0935   35.6589 C   0  0  1  0  0  0  0  0  0  0  0  0
    1.6963   15.9111   35.6673 O   0  0  0  0  0  0  0  0  0  0  0  0
   -0.5012   14.0945   38.7860 C   0  0  2  0  0  0  0  0  0  0  0  0
   -0.2316   13.0285   37.8526 O   0  0  0  0  0  0  0  0  0  0  0  0
   -2.6432   10.3651   37.8966 C   0  0  0  0  0  0  0  0  0  0  0  0
   -3.6639   11.4878   37.9670 O   0  0  0  0  0  0  0  0  0  0  0  0
    1.9306   18.1993   34.7970 C   0  0  0  0  0  0  0  0  0  0  0  0
    1.6640   17.6177   33.5026 O   0  0  0  0  0  0  0  0  0  0  0  0
   -2.0543   14.1632   39.0471 C   0  0  1  0  0  0  0  0  0  0  0  0
   -2.4566   12.9362   39.6036 O   0  0  0  0  0  0  0  0  0  0  0  0
   -1.7838    8.2885   38.9490 C   0  0  0  0  0  0  0  0  0  0  0  0
   -2.4670    9.6455   42.9198 C   0  0  0  0  0  0  0  0  0  0  0  0
  1  2  1  1  0  0  0
  1  6  1  0  0  0  0
  1 21  1  0  0  0  0
  3  4  1  6  0  0  0
  3  8  1  0  0  0  0
  3 28  1  0  0  0  0
  5  9  1  0  0  0  0
  5 25  1  0  0  0  0
  5 29  1  1  0  0  0
  6  7  1  1  0  0  0
  6 11  1  0  0  0  0
  8 12  1  0  0  0  0
  9 10  1  1  0  0  0
  9 14  1  0  0  0  0
 11 16  1  0  0  0  0
 12 13  1  6  0  0  0
 12 17  1  0  0  0  0
 14 15  1  1  0  0  0
 14 18  1  0  0  0  0
 15 31  1  0  0  0  0
 16 20  1  0  0  0  0
 17  2  1  1  0  0  0
 17 22  1  0  0  0  0
 18 19  1  6  0  0  0
 18 24  1  0  0  0  0
 18 30  1  0  0  0  0
 20 21  1  0  0  0  0
 20 26  1  1  0  0  0
 22 23  1  6  0  0  0
 22 28  1  0  0  0  0
 24 25  1  0  0  0  0
 26 27  1  0  0  0  0
 28 29  1  1  0  0  0
M  END
>  <CHROM.1>
-165.81797769,-159.74997896,-87.35117705,-151.85091215,128.79416937,100.17713489
-0.74296867,13.69685043,38.47314766,-0.75139242,-0.62293362,-3.13566323

>  <Name>
ligand

>  <RI>
0

>  <Rbt.Current_Directory>
/home/itssahil/PROJECTS/Mol_Feturizer/New_Systems/rnas/4GPY

>  <Rbt.Executable>
rbdock ($Id: //depot/dev/client3/rdock/2013.1/src/exe/rbdock.cxx#4 $)

>  <Rbt.Library>
libRbt.so (2013.1, Build901 2013/11/27)

>  <Rbt.Parameter_File>
/export/apps/rDock/src/rDock_2013.1_src/data/scripts/dock_solv.prm

>  <Rbt.Receptor>
prm/pocket_docking_2.prm

>  <SCORE>
-16.8307

>  <SCORE.INTER>
-16.8013

>  <SCORE.INTER.CONST>
1

>  <SCORE.INTER.POLAR>
0

>  <SCORE.INTER.ROT>
6

>  <SCORE.INTER.SOLV>
21.4824

>  <SCORE.INTER.VDW>
-25.9617

>  <SCORE.INTER.norm>
-0.541979

>  <SCORE.INTRA>
-0.0293363

>  <SCORE.INTRA.DIHEDRAL>
-0.936126

>  <SCORE.INTRA.DIHEDRAL.0>
14.7001

>  <SCORE.INTRA.POLAR>
0

>  <SCORE.INTRA.POLAR.0>
0

>  <SCORE.INTRA.REPUL>
0

>  <SCORE.INTRA.REPUL.0>
0

>  <SCORE.INTRA.SOLV>
0.0627598

>  <SCORE.INTRA.SOLV.lig_0>
-65.3082

>  <SCORE.INTRA.VDW>
0.407347

>  <SCORE.INTRA.VDW.0>
-4.21408

>  <SCORE.INTRA.norm>
-0.000946331

>  <SCORE.RESTR>
0

>  <SCORE.RESTR.CAVITY>
0

>  <SCORE.RESTR.norm>
0

>  <SCORE.SYSTEM>
0

>  <SCORE.SYSTEM.CONST>
0

>  <SCORE.SYSTEM.DIHEDRAL>
0

>  <SCORE.SYSTEM.SOLV>
0

>  <SCORE.SYSTEM.norm>
0

>  <SCORE.heavy>
31

>  <SCORE.norm>
-0.542925

>  <RMSD>
0.573

$$$$
ligand
 OpenBabel11021811493D
libRbt.so/2013.1/901 2013/11/27
 31 33  0  0  0  0  0  0  0  0999 V2000
    1.8692   14.9514   36.7422 C   0  0  2  0  0  0  0  0  0  0  0  0
    1.3358   15.4358   37.9596 O   0  0  0  0  0  0  0  0  0  0  0  0
   -2.3410   15.3192   40.0876 C   0  0  2  0  0  0  0  0  0  0  0  0
   -3.7402   15.3796   40.3434 N   0  0  0  0  0  0  0  0  0  0  0  0
   -3.7140   12.2540   39.3056 C   0  0  2  0  0  0  0  0  0  0  0  0
    3.4276   14.7108   36.9461 C   0  0  2  0  0  0  0  0  0  0  0  0
    3.6272   13.7707   38.0438 N   0  0  0  0  0  0  0  0  0  0  0  0
   -1.8884   16.7128   39.4609 C   0  0  0  0  0  0  0  0  0  0  0  0
   -3.9626   11.2624   40.4915 C   0  0  2  0  0  0  0  0  0  0  0  0
   -3.9705   11.9939   41.6989 O   0  0  0  0  0  0  0  0  0  0  0  0
    4.1654   16.0719   37.2238 C   0  0  0  0  0  0  0  0  0  0  0  0
   -0.3291   16.6509   39.1918 C   0  0  2  0  0  0  0  0  0  0  0  0
    0.1063   17.9274   38.6237 N   0  0  0  0  0  0  0  0  0  0  0  0
   -2.8130   10.1900   40.4942 C   0  0  1  0  0  0  0  0  0  0  0  0
   -3.0176    9.2351   41.6304 N   0  0  0  0  0  0  0  0  0  0  0  0
    3.5912   17.2469   36.3262 C   0  0  0  0  0  0  0  0  0  0  0  0
   -0.0298   15.4748   38.1749 C   0  0  2  0  0  0  0  0  0  0  0  0
   -2.8554    9.3717   39.0883 C   0  0  1  0  0  0  0  0  0  0  0  0
   -4.0772    8.6922   38.8763 O   0  0  0  0  0  0  0  0  0  0  0  0
    2.4320   17.1030   35.6391 C   0  0  1  0  0  0  0  0  0  0  0  0
    1.6506   15.9117   35.6617 O   0  0  0  0  0  0  0  0  0  0  0  0
   -0.5056   14.0963   38.7972 C   0  0  2  0  0  0  0  0  0  0  0  0
   -0.2426   13.0333   37.8584 O   0  0  0  0  0  0  0  0  0  0  0  0
   -2.6477   10.3699   37.9102 C   0  0  0  0  0  0  0  0  0  0  0  0
   -3.6701   11.4902   37.9933 O   0  0  0  0  0  0  0  0  0  0  0  0
    1.8482   18.1990   34.7798 C   0  0  0  0  0  0  0  0  0  0  0  0
    1.7191   17.6542   33.4489 O   0  0  0  0  0  0  0  0  0  0  0  0
   -2.0566   14.1629   39.0710 C   0  0  1  0  0  0  0  0  0  0  0  0
   -2.4533   12.9339   39.6271 O   0  0  0  0  0  0  0  0  0  0  0  0
   -1.7761    8.2905   38.9469 C   0  0  0  0  0  0  0  0  0  0  0  0
   -2.4460    9.6363   42.9327 C   0  0  0  0  0  0  0  0  0  0  0  0
  1  2  1  1  0  0  0
  1  6  1  0  0  0  0
  1 21  1  0  0  0  0
  3  4  1  6  0  0  0
  3  8  1  0  0  0  0
  3 28  1  0  0  0  0
  5  9  1  0  0  0  0
  5 25  1  0  0  0  0
  5 29  1  1  0  0  0
  6  7  1  1  0  0  0
  6 11  1  0  0  0  0
  8 12  1  0  0  0  0
  9 10  1  1  0  0  0
  9 14  1  0  0  0  0
 11 16  1  0  0  0  0
 12 13  1  6  0  0  0
 12 17  1  0  0  0  0
 14 15  1  1  0  0  0
 14 18  1  0  0  0  0
 15 31  1  0  0  0  0
 16 20  1  0  0  0  0
 17  2  1  1  0  0  0
 17 22  1  0  0  0  0
 18 19  1  6  0  0  0
 18 24  1  0  0  0  0
 18 30  1  0  0  0  0
 20 21  1  0  0  0  0
 20 26  1  1  0  0  0
 22 23  1  6  0  0  0
 22 28  1  0  0  0  0
 24 25  1  0  0  0  0
 26 27  1  0  0  0  0
 28 29  1  1  0  0  0
M  END
>  <CHROM.1>
-166.49545429,-159.87799080,-86.63411026,-151.99065126,122.20677741,100.27603836
-0.74824595,13.70105589,38.47911177,-0.74788731,-0.63768614,-3.12708703

>  <Name>
ligand

>  <RI>
0

>  <Rbt.Current_Directory>
/home/itssahil/PROJECTS/Mol_Feturizer/New_Systems/rnas/4GPY

>  <Rbt.Executable>
rbdock ($Id: //depot/dev/client3/rdock/2013.1/src/exe/rbdock.cxx#4 $)

>  <Rbt.Library>
libRbt.so (2013.1, Build901 2013/11/27)

>  <Rbt.Parameter_File>
/export/apps/rDock/src/rDock_2013.1_src/data/scripts/dock_solv.prm

>  <Rbt.Receptor>
prm/pocket_docking_2.prm

>  <SCORE>
-16.8886

>  <SCORE.INTER>
-16.7195

>  <SCORE.INTER.CONST>
1

>  <SCORE.INTER.POLAR>
0

>  <SCORE.INTER.ROT>
6

>  <SCORE.INTER.SOLV>
21.5376

>  <SCORE.INTER.VDW>
-25.9255

>  <SCORE.INTER.norm>
-0.539337

>  <SCORE.INTRA>
-0.169137

>  <SCORE.INTRA.DIHEDRAL>
-1.16815

>  <SCORE.INTRA.DIHEDRAL.0>
14.7001

>  <SCORE.INTRA.POLAR>
0

>  <SCORE.INTRA.POLAR.0>
0

>  <SCORE.INTRA.REPUL>
0

>  <SCORE.INTRA.REPUL.0>
0

>  <SCORE.INTRA.SOLV>
0.0333549

>  <SCORE.INTRA.SOLV.lig_0>
-65.3082

>  <SCORE.INTRA.VDW>
0.398262

>  <SCORE.INTRA.VDW.0>
-4.21408

>  <SCORE.INTRA.norm>
-0.00545603

>  <SCORE.RESTR>
0

>  <SCORE.RESTR.CAVITY>
0

>  <SCORE.RESTR.norm>
0

>  <SCORE.SYSTEM>
0

>  <SCORE.SYSTEM.CONST>
0

>  <SCORE.SYSTEM.DIHEDRAL>
0

>  <SCORE.SYSTEM.SOLV>
0

>  <SCORE.SYSTEM.norm>
0

>  <SCORE.heavy>
31

>  <SCORE.norm>
-0.544793

>  <RMSD>
0.576

$$$$
ligand
 OpenBabel11021811493D
libRbt.so/2013.1/901 2013/11/27
 31 33  0  0  0  0  0  0  0  0999 V2000
    1.9891   15.1378   36.8159 C   0  0  2  0  0  0  0  0  0  0  0  0
    1.4129   15.6561   37.9994 O   0  0  0  0  0  0  0  0  0  0  0  0
   -2.3096   15.4741   40.0415 C   0  0  2  0  0  0  0  0  0  0  0  0
   -3.7156   15.5024   40.2633 N   0  0  0  0  0  0  0  0  0  0  0  0
   -3.6362   12.4193   39.3542 C   0  0  2  0  0  0  0  0  0  0  0  0
    3.5504   14.9639   37.0609 C   0  0  2  0  0  0  0  0  0  0  0  0
    3.7603   14.0818   38.2039 N   0  0  0  0  0  0  0  0  0  0  0  0
   -1.8772   16.8704   39.4067 C   0  0  0  0  0  0  0  0  0  0  0  0
   -3.8142   11.3944   40.5243 C   0  0  2  0  0  0  0  0  0  0  0  0
   -3.7359   12.0896   41.7506 O   0  0  0  0  0  0  0  0  0  0  0  0
    4.2329   16.3623   37.2909 C   0  0  0  0  0  0  0  0  0  0  0  0
   -0.3108   16.8446   39.1753 C   0  0  2  0  0  0  0  0  0  0  0  0
    0.1059   18.1242   38.6003 N   0  0  0  0  0  0  0  0  0  0  0  0
   -2.6763   10.3148   40.4192 C   0  0  1  0  0  0  0  0  0  0  0  0
   -2.8134    9.3279   41.5380 N   0  0  0  0  0  0  0  0  0  0  0  0
    3.6361   17.4741   36.3298 C   0  0  0  0  0  0  0  0  0  0  0  0
    0.0420   15.6633   38.1819 C   0  0  2  0  0  0  0  0  0  0  0  0
   -2.8188    9.5392   38.9958 C   0  0  1  0  0  0  0  0  0  0  0  0
   -4.0577    8.8744   38.8456 O   0  0  0  0  0  0  0  0  0  0  0  0
    2.4976   17.2572   35.6274 C   0  0  1  0  0  0  0  0  0  0  0  0
    1.7591   16.0402   35.6888 O   0  0  0  0  0  0  0  0  0  0  0  0
   -0.4138   14.2814   38.8115 C   0  0  2  0  0  0  0  0  0  0  0  0
   -0.1019   13.2133   37.8938 O   0  0  0  0  0  0  0  0  0  0  0  0
   -2.6808   10.5707   37.8363 C   0  0  0  0  0  0  0  0  0  0  0  0
   -3.6858   11.6948   38.0200 O   0  0  0  0  0  0  0  0  0  0  0  0
    1.8932   18.2915   34.7080 C   0  0  0  0  0  0  0  0  0  0  0  0
    1.6673   17.6353   33.4418 O   0  0  0  0  0  0  0  0  0  0  0  0
   -1.9721   14.3122   39.0478 C   0  0  1  0  0  0  0  0  0  0  0  0
   -2.3511   13.0809   39.6110 O   0  0  0  0  0  0  0  0  0  0  0  0
   -1.7605    8.4555   38.7514 C   0  0  0  0  0  0  0  0  0  0  0  0
   -2.1338    9.6751   42.8033 C   0  0  0  0  0  0  0  0  0  0  0  0
  1  2  1  1  0  0  0
  1  6  1  0  0  0  0
  1 21  1  0  0  0  0
  3  4  1  6  0  0  0
  3  8  1  0  0  0  0
  3 28  1  0  0  0  0
  5  9  1  0  0  0  0
  5 25  1  0  0  0  0
  5 29  1  1  0  0  0
  6  7  1  1  0  0  0
  6 11  1  0  0  0  0
  8 12  1  0  0  0  0
  9 10  1  1  0  0  0
  9 14  1  0  0  0  0
 11 16  1  0  0  0  0
 12 13  1  6  0  0  0
 12 17  1  0  0  0  0
 14 15  1  1  0  0  0
 14 18  1  0  0  0  0
 15 31  1  0  0  0  0
 16 20  1  0  0  0  0
 17  2  1  1  0  0  0
 17 22  1  0  0  0  0
 18 19  1  6  0  0  0
 18 24  1  0  0  0  0
 18 30  1  0  0  0  0
 20 21  1  0  0  0  0
 20 26  1  1  0  0  0
 22 23  1  6  0  0  0
 22 28  1  0  0  0  0
 24 25  1  0  0  0  0
 26 27  1  0  0  0  0
 28 29  1  1  0  0  0
M  END
>  <CHROM.1>
-166.96557588,-161.03098548,-87.66203220,-153.64093945,128.74248437,94.97642514
-0.66907722,13.86398614,38.46834809,-0.76432448,-0.62048852,-3.13804163

>  <Name>
ligand

>  <RI>
0

>  <Rbt.Current_Directory>
/home/itssahil/PROJECTS/Mol_Feturizer/New_Systems/rnas/4GPY

>  <Rbt.Executable>
rbdock ($Id: //depot/dev/client3/rdock/2013.1/src/exe/rbdock.cxx#4 $)

>  <Rbt.Library>
libRbt.so (2013.1, Build901 2013/11/27)

>  <Rbt.Parameter_File>
/export/apps/rDock/src/rDock_2013.1_src/data/scripts/dock_solv.prm

>  <Rbt.Receptor>
prm/pocket_docking_6.prm

>  <SCORE>
-16.7934

>  <SCORE.INTER>
-15.9246

>  <SCORE.INTER.CONST>
1

>  <SCORE.INTER.POLAR>
0

>  <SCORE.INTER.ROT>
6

>  <SCORE.INTER.SOLV>
21.3822

>  <SCORE.INTER.VDW>
-25.3438

>  <SCORE.INTER.norm>
-0.513697

>  <SCORE.INTRA>
-0.868779

>  <SCORE.INTRA.DIHEDRAL>
-2.50872

>  <SCORE.INTRA.DIHEDRAL.0>
14.7001

>  <SCORE.INTRA.POLAR>
0

>  <SCORE.INTRA.POLAR.0>
0

>  <SCORE.INTRA.REPUL>
0

>  <SCORE.INTRA.REPUL.0>
0

>  <SCORE.INTRA.SOLV>
-0.116504

>  <SCORE.INTRA.SOLV.lig_0>
-65.3082

>  <SCORE.INTRA.VDW>
0.443833

>  <SCORE.INTRA.VDW.0>
-4.21408

>  <SCORE.INTRA.norm>
-0.0280251

>  <SCORE.RESTR>
0

>  <SCORE.RESTR.CAVITY>
0

>  <SCORE.RESTR.norm>
0

>  <SCORE.SYSTEM>
0

>  <SCORE.SYSTEM.CONST>
0

>  <SCORE.SYSTEM.DIHEDRAL>
0

>  <SCORE.SYSTEM.SOLV>
0

>  <SCORE.SYSTEM.norm>
0

>  <SCORE.heavy>
31

>  <SCORE.norm>
-0.541722

>  <RMSD>
0.576

$$$$
ligand
 OpenBabel11021811493D
libRbt.so/2013.1/901 2013/11/27
 31 33  0  0  0  0  0  0  0  0999 V2000
    2.1572   14.6318   36.8298 C   0  0  2  0  0  0  0  0  0  0  0  0
    1.5780   15.0924   38.0355 O   0  0  0  0  0  0  0  0  0  0  0  0
   -2.2076   15.4353   39.9359 C   0  0  2  0  0  0  0  0  0  0  0  0
   -3.6123   15.6016   40.0976 N   0  0  0  0  0  0  0  0  0  0  0  0
   -3.7150   12.3690   39.4378 C   0  0  2  0  0  0  0  0  0  0  0  0
    3.7320   14.5557   37.0352 C   0  0  2  0  0  0  0  0  0  0  0  0
    4.0263   13.6707   38.1571 N   0  0  0  0  0  0  0  0  0  0  0  0
   -1.6387   16.7151   39.1756 C   0  0  0  0  0  0  0  0  0  0  0  0
   -3.9503   11.3339   40.5886 C   0  0  2  0  0  0  0  0  0  0  0  0
   -3.9232   12.0169   41.8240 O   0  0  0  0  0  0  0  0  0  0  0  0
    4.3283   15.9915   37.2739 C   0  0  0  0  0  0  0  0  0  0  0  0
   -0.0738   16.5372   39.0106 C   0  0  2  0  0  0  0  0  0  0  0  0
    0.4678   17.7091   38.3213 N   0  0  0  0  0  0  0  0  0  0  0  0
   -2.8143   10.2491   40.5237 C   0  0  1  0  0  0  0  0  0  0  0  0
   -3.0062    9.2522   41.6255 N   0  0  0  0  0  0  0  0  0  0  0  0
    3.6377   17.0776   36.3468 C   0  0  0  0  0  0  0  0  0  0  0  0
    0.2077   15.2307   38.1616 C   0  0  2  0  0  0  0  0  0  0  0  0
   -2.8971    9.4879   39.0878 C   0  0  1  0  0  0  0  0  0  0  0  0
   -4.1315    8.8316   38.8760 O   0  0  0  0  0  0  0  0  0  0  0  0
    2.4987   16.7986   35.6675 C   0  0  1  0  0  0  0  0  0  0  0  0
    1.8420   15.5355   35.7246 O   0  0  0  0  0  0  0  0  0  0  0  0
   -0.3833   13.9666   38.9144 C   0  0  2  0  0  0  0  0  0  0  0  0
   -0.1352   12.7838   38.1271 O   0  0  0  0  0  0  0  0  0  0  0  0
   -2.7024   10.5298   37.9458 C   0  0  0  0  0  0  0  0  0  0  0  0
   -3.7088   11.6576   38.0956 O   0  0  0  0  0  0  0  0  0  0  0  0
    1.8066   17.8063   34.7809 C   0  0  0  0  0  0  0  0  0  0  0  0
    0.5257   18.0788   35.3891 O   0  0  0  0  0  0  0  0  0  0  0  0
   -1.9398   14.1493   39.0841 C   0  0  1  0  0  0  0  0  0  0  0  0
   -2.4394   13.0210   39.7581 O   0  0  0  0  0  0  0  0  0  0  0  0
   -1.8346    8.4009   38.8801 C   0  0  0  0  0  0  0  0  0  0  0  0
   -2.4902    9.6394   42.9549 C   0  0  0  0  0  0  0  0  0  0  0  0
  1  2  1  1  0  0  0
  1  6  1  0  0  0  0
  1 21  1  0  0  0  0
  3  4  1  6  0  0  0
  3  8  1  0  0  0  0
  3 28  1  0  0  0  0
  5  9  1  0  0  0  0
  5 25  1  0  0  0  0
  5 29  1  1  0  0  0
  6  7  1  1  0  0  0
  6 11  1  0  0  0  0
  8 12  1  0  0  0  0
  9 10  1  1  0  0  0
  9 14  1  0  0  0  0
 11 16  1  0  0  0  0
 12 13  1  6  0  0  0
 12 17  1  0  0  0  0
 14 15  1  1  0  0  0
 14 18  1  0  0  0  0
 15 31  1  0  0  0  0
 16 20  1  0  0  0  0
 17  2  1  1  0  0  0
 17 22  1  0  0  0  0
 18 19  1  6  0  0  0
 18 24  1  0  0  0  0
 18 30  1  0  0  0  0
 20 21  1  0  0  0  0
 20 26  1  1  0  0  0
 22 23  1  6  0  0  0
 22 28  1  0  0  0  0
 24 25  1  0  0  0  0
 26 27  1  0  0  0  0
 28 29  1  1  0  0  0
M  END
>  <CHROM.1>
-178.59372941,-170.76066157,-82.21534372,-141.71201947,-115.04572631,100.77062286
-0.69208691,13.65841154,38.56374559,-0.80819489,-0.48088514,3.02181632

>  <Name>
ligand

>  <RI>
0

>  <Rbt.Current_Directory>
/home/itssahil/PROJECTS/Mol_Feturizer/New_Systems/rnas/4GPY

>  <Rbt.Executable>
rbdock ($Id: //depot/dev/client3/rdock/2013.1/src/exe/rbdock.cxx#4 $)

>  <Rbt.Library>
libRbt.so (2013.1, Build901 2013/11/27)

>  <Rbt.Parameter_File>
/export/apps/rDock/src/rDock_2013.1_src/data/scripts/dock_solv.prm

>  <Rbt.Receptor>
prm/pocket_docking_3.prm

>  <SCORE>
-16.359

>  <SCORE.INTER>
-16.3143

>  <SCORE.INTER.CONST>
1

>  <SCORE.INTER.POLAR>
0

>  <SCORE.INTER.ROT>
6

>  <SCORE.INTER.SOLV>
19.4484

>  <SCORE.INTER.VDW>
-24.959

>  <SCORE.INTER.norm>
-0.526266

>  <SCORE.INTRA>
-0.0791083

>  <SCORE.INTRA.DIHEDRAL>
-1.5681

>  <SCORE.INTRA.DIHEDRAL.0>
14.7001

>  <SCORE.INTRA.POLAR>
0

>  <SCORE.INTRA.POLAR.0>
0

>  <SCORE.INTRA.REPUL>
0

>  <SCORE.INTRA.REPUL.0>
0

>  <SCORE.INTRA.SOLV>
1.50168

>  <SCORE.INTRA.SOLV.lig_0>
-65.3082

>  <SCORE.INTRA.VDW>
-0.045902

>  <SCORE.INTRA.VDW.0>
-4.21408

>  <SCORE.INTRA.norm>
-0.00255188

>  <SCORE.RESTR>
0.0343327

>  <SCORE.RESTR.CAVITY>
0.0343327

>  <SCORE.RESTR.norm>
0.00110751

>  <SCORE.SYSTEM>
0

>  <SCORE.SYSTEM.CONST>
0

>  <SCORE.SYSTEM.DIHEDRAL>
0

>  <SCORE.SYSTEM.SOLV>
0

>  <SCORE.SYSTEM.norm>
0

>  <SCORE.heavy>
31

>  <SCORE.norm>
-0.527711

>  <RMSD>
0.580

$$$$
ligand
 OpenBabel11021811493D
libRbt.so/2013.1/901 2013/11/27
 31 33  0  0  0  0  0  0  0  0999 V2000
    1.9848   15.0192   36.9358 C   0  0  2  0  0  0  0  0  0  0  0  0
    1.3940   15.6952   38.0291 O   0  0  0  0  0  0  0  0  0  0  0  0
   -2.3257   15.4850   40.0734 C   0  0  2  0  0  0  0  0  0  0  0  0
   -3.7317   15.5042   40.2965 N   0  0  0  0  0  0  0  0  0  0  0  0
   -3.6362   12.4262   39.3809 C   0  0  2  0  0  0  0  0  0  0  0  0
    3.5541   14.9547   37.1837 C   0  0  2  0  0  0  0  0  0  0  0  0
    3.8112   14.2771   38.4499 N   0  0  0  0  0  0  0  0  0  0  0  0
   -1.9021   16.8857   39.4426 C   0  0  0  0  0  0  0  0  0  0  0  0
   -3.8051   11.3956   40.5473 C   0  0  2  0  0  0  0  0  0  0  0  0
   -3.7255   12.0860   41.7762 O   0  0  0  0  0  0  0  0  0  0  0  0
    4.1745   16.4001   37.1776 C   0  0  0  0  0  0  0  0  0  0  0  0
   -0.3358   16.8699   39.2099 C   0  0  2  0  0  0  0  0  0  0  0  0
    0.0729   18.1537   38.6384 N   0  0  0  0  0  0  0  0  0  0  0  0
   -2.6624   10.3219   40.4335 C   0  0  1  0  0  0  0  0  0  0  0  0
   -2.7907    9.3296   41.5486 N   0  0  0  0  0  0  0  0  0  0  0  0
    3.5217   17.3164   36.0595 C   0  0  0  0  0  0  0  0  0  0  0  0
    0.0233   15.6937   38.2126 C   0  0  2  0  0  0  0  0  0  0  0  0
   -2.8064    9.5515   39.0073 C   0  0  1  0  0  0  0  0  0  0  0  0
   -4.0426    8.8815   38.8588 O   0  0  0  0  0  0  0  0  0  0  0  0
    2.3894   16.9407   35.4167 C   0  0  1  0  0  0  0  0  0  0  0  0
    1.7068   15.7184   35.6822 O   0  0  0  0  0  0  0  0  0  0  0  0
   -0.4239   14.3073   38.8384 C   0  0  2  0  0  0  0  0  0  0  0  0
   -0.1064   13.2438   37.9173 O   0  0  0  0  0  0  0  0  0  0  0  0
   -2.6776   10.5887   37.8517 C   0  0  0  0  0  0  0  0  0  0  0  0
   -3.6873   11.7071   38.0438 O   0  0  0  0  0  0  0  0  0  0  0  0
    1.7329   17.7870   34.3523 C   0  0  0  0  0  0  0  0  0  0  0  0
    2.5326   18.9825   34.2254 O   0  0  0  0  0  0  0  0  0  0  0  0
   -1.9822   14.3281   39.0760 C   0  0  1  0  0  0  0  0  0  0  0  0
   -2.3534   13.0929   39.6358 O   0  0  0  0  0  0  0  0  0  0  0  0
   -1.7439    8.4740   38.7544 C   0  0  0  0  0  0  0  0  0  0  0  0
   -2.1891    9.7172   42.8413 C   0  0  0  0  0  0  0  0  0  0  0  0
  1  2  1  1  0  0  0
  1  6  1  0  0  0  0
  1 21  1  0  0  0  0
  3  4  1  6  0  0  0
  3  8  1  0  0  0  0
  3 28  1  0  0  0  0
  5  9  1  0  0  0  0
  5 25  1  0  0  0  0
  5 29  1  1  0  0  0
  6  7  1  1  0  0  0
  6 11  1  0  0  0  0
  8 12  1  0  0  0  0
  9 10  1  1  0  0  0
  9 14  1  0  0  0  0
 11 16  1  0  0  0  0
 12 13  1  6  0  0  0
 12 17  1  0  0  0  0
 14 15  1  1  0  0  0
 14 18  1  0  0  0  0
 15 31  1  0  0  0  0
 16 20  1  0  0  0  0
 17  2  1  1  0  0  0
 17 22  1  0  0  0  0
 18 19  1  6  0  0  0
 18 24  1  0  0  0  0
 18 30  1  0  0  0  0
 20 21  1  0  0  0  0
 20 26  1  1  0  0  0
 22 23  1  6  0  0  0
 22 28  1  0  0  0  0
 24 25  1  0  0  0  0
 26 27  1  0  0  0  0
 28 29  1  1  0  0  0
M  END
>  <CHROM.1>
-168.22569816,-161.05722258,-83.51457065,-162.58981672,-0.69228722,94.80094806
-0.65598271,13.88617976,38.49931919,-0.77170087,-0.60880458,3.13549199

>  <Name>
ligand

>  <RI>
0

>  <Rbt.Current_Directory>
/home/itssahil/PROJECTS/Mol_Feturizer/New_Systems/rnas/4GPY

>  <Rbt.Executable>
rbdock ($Id: //depot/dev/client3/rdock/2013.1/src/exe/rbdock.cxx#4 $)

>  <Rbt.Library>
libRbt.so (2013.1, Build901 2013/11/27)

>  <Rbt.Parameter_File>
/export/apps/rDock/src/rDock_2013.1_src/data/scripts/dock_solv.prm

>  <Rbt.Receptor>
prm/pocket_docking_5.prm

>  <SCORE>
-16.5569

>  <SCORE.INTER>
-16.0665

>  <SCORE.INTER.CONST>
1

>  <SCORE.INTER.POLAR>
0

>  <SCORE.INTER.ROT>
6

>  <SCORE.INTER.SOLV>
20.4234

>  <SCORE.INTER.VDW>
-25.1188

>  <SCORE.INTER.norm>
-0.518273

>  <SCORE.INTRA>
-0.490432

>  <SCORE.INTRA.DIHEDRAL>
-4.43579

>  <SCORE.INTRA.DIHEDRAL.0>
14.7001

>  <SCORE.INTRA.POLAR>
0

>  <SCORE.INTRA.POLAR.0>
0

>  <SCORE.INTRA.REPUL>
0

>  <SCORE.INTRA.REPUL.0>
0

>  <SCORE.INTRA.SOLV>
-0.835652

>  <SCORE.INTRA.SOLV.lig_0>
-65.3082

>  <SCORE.INTRA.VDW>
2.14529

>  <SCORE.INTRA.VDW.0>
-4.21408

>  <SCORE.INTRA.norm>
-0.0158204

>  <SCORE.RESTR>
0

>  <SCORE.RESTR.CAVITY>
0

>  <SCORE.RESTR.norm>
0

>  <SCORE.SYSTEM>
0

>  <SCORE.SYSTEM.CONST>
0

>  <SCORE.SYSTEM.DIHEDRAL>
0

>  <SCORE.SYSTEM.SOLV>
0

>  <SCORE.SYSTEM.norm>
0

>  <SCORE.heavy>
31

>  <SCORE.norm>
-0.534094

>  <RMSD>
0.580

$$$$
ligand
 OpenBabel11021811493D
libRbt.so/2013.1/901 2013/11/27
 31 33  0  0  0  0  0  0  0  0999 V2000
    1.8931   14.9104   36.7759 C   0  0  2  0  0  0  0  0  0  0  0  0
    1.3535   15.4101   37.9844 O   0  0  0  0  0  0  0  0  0  0  0  0
   -2.3381   15.3151   40.0874 C   0  0  2  0  0  0  0  0  0  0  0  0
   -3.7387   15.3829   40.3336 N   0  0  0  0  0  0  0  0  0  0  0  0
   -3.7168   12.2510   39.2941 C   0  0  2  0  0  0  0  0  0  0  0  0
    3.4475   14.6579   36.9955 C   0  0  2  0  0  0  0  0  0  0  0  0
    3.6293   13.7257   38.1030 N   0  0  0  0  0  0  0  0  0  0  0  0
   -1.8744   16.7055   39.4617 C   0  0  0  0  0  0  0  0  0  0  0  0
   -3.9790   11.2585   40.4763 C   0  0  2  0  0  0  0  0  0  0  0  0
   -3.9995   11.9889   41.6843 O   0  0  0  0  0  0  0  0  0  0  0  0
    4.1949   16.0149   37.2678 C   0  0  0  0  0  0  0  0  0  0  0  0
   -0.3137   16.6355   39.2033 C   0  0  2  0  0  0  0  0  0  0  0  0
    0.1319   17.9089   38.6362 N   0  0  0  0  0  0  0  0  0  0  0  0
   -2.8304   10.1853   40.4905 C   0  0  1  0  0  0  0  0  0  0  0  0
   -3.0480    9.2295   41.6236 N   0  0  0  0  0  0  0  0  0  0  0  0
    3.6390   17.1869   36.3550 C   0  0  0  0  0  0  0  0  0  0  0  0
   -0.0133   15.4562   38.1903 C   0  0  2  0  0  0  0  0  0  0  0  0
   -2.8581    9.3683   39.0835 C   0  0  1  0  0  0  0  0  0  0  0  0
   -4.0779    8.6899   38.8576 O   0  0  0  0  0  0  0  0  0  0  0  0
    2.4845   17.0473   35.6591 C   0  0  1  0  0  0  0  0  0  0  0  0
    1.6924   15.8632   35.6853 O   0  0  0  0  0  0  0  0  0  0  0  0
   -0.5001   14.0811   38.8115 C   0  0  2  0  0  0  0  0  0  0  0  0
   -0.2360   13.0154   37.8762 O   0  0  0  0  0  0  0  0  0  0  0  0
   -2.6367   10.3675   37.9086 C   0  0  0  0  0  0  0  0  0  0  0  0
   -3.6592   11.4884   37.9816 O   0  0  0  0  0  0  0  0  0  0  0  0
    1.9180   18.1409   34.7853 C   0  0  0  0  0  0  0  0  0  0  0  0
    1.6490   17.5425   33.4991 O   0  0  0  0  0  0  0  0  0  0  0  0
   -2.0526   14.1558   39.0747 C   0  0  1  0  0  0  0  0  0  0  0  0
   -2.4592   12.9297   39.6299 O   0  0  0  0  0  0  0  0  0  0  0  0
   -1.7781    8.2864   38.9528 C   0  0  0  0  0  0  0  0  0  0  0  0
   -2.5501    9.6596   42.9466 C   0  0  0  0  0  0  0  0  0  0  0  0
  1  2  1  1  0  0  0
  1  6  1  0  0  0  0
  1 21  1  0  0  0  0
  3  4  1  6  0  0  0
  3  8  1  0  0  0  0
  3 28  1  0  0  0  0
  5  9  1  0  0  0  0
  5 25  1  0  0  0  0
  5 29  1  1  0  0  0
  6  7  1  1  0  0  0
  6 11  1  0  0  0  0
  8 12  1  0  0  0  0
  9 10  1  1  0  0  0
  9 14  1  0  0  0  0
 11 16  1  0  0  0  0
 12 13  1  6  0  0  0
 12 17  1  0  0  0  0
 14 15  1  1  0  0  0
 14 18  1  0  0  0  0
 15 31  1  0  0  0  0
 16 20  1  0  0  0  0
 17  2  1  1  0  0  0
 17 22  1  0  0  0  0
 18 19  1  6  0  0  0
 18 24  1  0  0  0  0
 18 30  1  0  0  0  0
 20 21  1  0  0  0  0
 20 26  1  1  0  0  0
 22 23  1  6  0  0  0
 22 28  1  0  0  0  0
 24 25  1  0  0  0  0
 26 27  1  0  0  0  0
 28 29  1  1  0  0  0
M  END
>  <CHROM.1>
-166.13692880,-160.18941132,-83.66488734,-152.54069593,128.75764746,100.70929853
-0.74446105,13.67915601,38.49006900,-0.73977730,-0.63244579,-3.12237383

>  <Name>
ligand

>  <RI>
0

>  <Rbt.Current_Directory>
/home/itssahil/PROJECTS/Mol_Feturizer/New_Systems/rnas/4GPY

>  <Rbt.Executable>
rbdock ($Id: //depot/dev/client3/rdock/2013.1/src/exe/rbdock.cxx#4 $)

>  <Rbt.Library>
libRbt.so (2013.1, Build901 2013/11/27)

>  <Rbt.Parameter_File>
/export/apps/rDock/src/rDock_2013.1_src/data/scripts/dock_solv.prm

>  <Rbt.Receptor>
prm/pocket_docking_2.prm

>  <SCORE>
-16.8535

>  <SCORE.INTER>
-16.7881

>  <SCORE.INTER.CONST>
1

>  <SCORE.INTER.POLAR>
0

>  <SCORE.INTER.ROT>
6

>  <SCORE.INTER.SOLV>
21.4387

>  <SCORE.INTER.VDW>
-25.9383

>  <SCORE.INTER.norm>
-0.541553

>  <SCORE.INTRA>
-0.0653999

>  <SCORE.INTRA.DIHEDRAL>
-1.20499

>  <SCORE.INTRA.DIHEDRAL.0>
14.7001

>  <SCORE.INTRA.POLAR>
0

>  <SCORE.INTRA.POLAR.0>
0

>  <SCORE.INTRA.REPUL>
0

>  <SCORE.INTRA.REPUL.0>
0

>  <SCORE.INTRA.SOLV>
0.00708564

>  <SCORE.INTRA.SOLV.lig_0>
-65.3082

>  <SCORE.INTRA.VDW>
0.533551

>  <SCORE.INTRA.VDW.0>
-4.21408

>  <SCORE.INTRA.norm>
-0.00210967

>  <SCORE.RESTR>
0

>  <SCORE.RESTR.CAVITY>
0

>  <SCORE.RESTR.norm>
0

>  <SCORE.SYSTEM>
0

>  <SCORE.SYSTEM.CONST>
0

>  <SCORE.SYSTEM.DIHEDRAL>
0

>  <SCORE.SYSTEM.SOLV>
0

>  <SCORE.SYSTEM.norm>
0

>  <SCORE.heavy>
31

>  <SCORE.norm>
-0.543662

>  <RMSD>
0.582

$$$$
ligand
 OpenBabel11021811493D
libRbt.so/2013.1/901 2013/11/27
 31 33  0  0  0  0  0  0  0  0999 V2000
    2.0216   14.9478   36.8067 C   0  0  2  0  0  0  0  0  0  0  0  0
    1.4447   15.4372   38.0021 O   0  0  0  0  0  0  0  0  0  0  0  0
   -2.3043   15.3536   40.0016 C   0  0  2  0  0  0  0  0  0  0  0  0
   -3.7118   15.4145   40.2067 N   0  0  0  0  0  0  0  0  0  0  0  0
   -3.6673   12.2966   39.2832 C   0  0  2  0  0  0  0  0  0  0  0  0
    3.5810   14.7574   37.0519 C   0  0  2  0  0  0  0  0  0  0  0  0
    3.7814   13.8430   38.1709 N   0  0  0  0  0  0  0  0  0  0  0  0
   -1.8340   16.7349   39.3608 C   0  0  0  0  0  0  0  0  0  0  0  0
   -3.9140   11.3052   40.4695 C   0  0  2  0  0  0  0  0  0  0  0  0
   -3.8963   12.0334   41.6789 O   0  0  0  0  0  0  0  0  0  0  0  0
    4.2715   16.1446   37.3224 C   0  0  0  0  0  0  0  0  0  0  0  0
   -0.2660   16.6729   39.1480 C   0  0  2  0  0  0  0  0  0  0  0  0
    0.1853   17.9383   38.5676 N   0  0  0  0  0  0  0  0  0  0  0  0
   -2.7792   10.2173   40.4545 C   0  0  1  0  0  0  0  0  0  0  0  0
   -2.9821    9.2621   41.5908 N   0  0  0  0  0  0  0  0  0  0  0  0
    3.6849   17.2860   36.3901 C   0  0  0  0  0  0  0  0  0  0  0  0
    0.0723   15.4759   38.1683 C   0  0  2  0  0  0  0  0  0  0  0  0
   -2.8510    9.4035   39.0471 C   0  0  1  0  0  0  0  0  0  0  0  0
   -4.0846    8.7413   38.8492 O   0  0  0  0  0  0  0  0  0  0  0  0
    2.5475   17.0957   35.6784 C   0  0  1  0  0  0  0  0  0  0  0  0
    1.8012   15.8823   35.7040 O   0  0  0  0  0  0  0  0  0  0  0  0
   -0.4211   14.1096   38.8037 C   0  0  2  0  0  0  0  0  0  0  0  0
   -0.1221   13.0274   37.8983 O   0  0  0  0  0  0  0  0  0  0  0  0
   -2.6449   10.4022   37.8691 C   0  0  0  0  0  0  0  0  0  0  0  0
   -3.6508   11.5360   37.9683 O   0  0  0  0  0  0  0  0  0  0  0  0
    1.9529   18.1587   34.7857 C   0  0  0  0  0  0  0  0  0  0  0  0
    1.6619   17.5209   33.5234 O   0  0  0  0  0  0  0  0  0  0  0  0
   -1.9809   14.1764   39.0213 C   0  0  1  0  0  0  0  0  0  0  0  0
   -2.3934   12.9584   39.5900 O   0  0  0  0  0  0  0  0  0  0  0  0
   -1.7885    8.3082   38.8889 C   0  0  0  0  0  0  0  0  0  0  0  0
   -2.4429    9.6809   42.9013 C   0  0  0  0  0  0  0  0  0  0  0  0
  1  2  1  1  0  0  0
  1  6  1  0  0  0  0
  1 21  1  0  0  0  0
  3  4  1  6  0  0  0
  3  8  1  0  0  0  0
  3 28  1  0  0  0  0
  5  9  1  0  0  0  0
  5 25  1  0  0  0  0
  5 29  1  1  0  0  0
  6  7  1  1  0  0  0
  6 11  1  0  0  0  0
  8 12  1  0  0  0  0
  9 10  1  1  0  0  0
  9 14  1  0  0  0  0
 11 16  1  0  0  0  0
 12 13  1  6  0  0  0
 12 17  1  0  0  0  0
 14 15  1  1  0  0  0
 14 18  1  0  0  0  0
 15 31  1  0  0  0  0
 16 20  1  0  0  0  0
 17  2  1  1  0  0  0
 17 22  1  0  0  0  0
 18 19  1  6  0  0  0
 18 24  1  0  0  0  0
 18 30  1  0  0  0  0
 20 21  1  0  0  0  0
 20 26  1  1  0  0  0
 22 23  1  6  0  0  0
 22 28  1  0  0  0  0
 24 25  1  0  0  0  0
 26 27  1  0  0  0  0
 28 29  1  1  0  0  0
M  END
>  <CHROM.1>
-168.42543743,-160.57949414,-83.88109596,-150.98604947,131.69513041,97.47505746
-0.68332375,13.71929298,38.47411646,-0.75600258,-0.60195823,3.13683758

>  <Name>
ligand

>  <RI>
0

>  <Rbt.Current_Directory>
/home/itssahil/PROJECTS/Mol_Feturizer/New_Systems/rnas/4GPY

>  <Rbt.Executable>
rbdock ($Id: //depot/dev/client3/rdock/2013.1/src/exe/rbdock.cxx#4 $)

>  <Rbt.Library>
libRbt.so (2013.1, Build901 2013/11/27)

>  <Rbt.Parameter_File>
/export/apps/rDock/src/rDock_2013.1_src/data/scripts/dock_solv.prm

>  <Rbt.Receptor>
prm/pocket_docking_5.prm

>  <SCORE>
-16.7069

>  <SCORE.INTER>
-16.4451

>  <SCORE.INTER.CONST>
1

>  <SCORE.INTER.POLAR>
0

>  <SCORE.INTER.ROT>
6

>  <SCORE.INTER.SOLV>
21.3184

>  <SCORE.INTER.VDW>
-25.6696

>  <SCORE.INTER.norm>
-0.530488

>  <SCORE.INTRA>
-0.26176

>  <SCORE.INTRA.DIHEDRAL>
-1.70086

>  <SCORE.INTRA.DIHEDRAL.0>
14.7001

>  <SCORE.INTRA.POLAR>
0

>  <SCORE.INTRA.POLAR.0>
0

>  <SCORE.INTRA.REPUL>
0

>  <SCORE.INTRA.REPUL.0>
0

>  <SCORE.INTRA.SOLV>
0.101976

>  <SCORE.INTRA.SOLV.lig_0>
-65.3082

>  <SCORE.INTRA.VDW>
0.537683

>  <SCORE.INTRA.VDW.0>
-4.21408

>  <SCORE.INTRA.norm>
-0.00844386

>  <SCORE.RESTR>
0

>  <SCORE.RESTR.CAVITY>
0

>  <SCORE.RESTR.norm>
0

>  <SCORE.SYSTEM>
0

>  <SCORE.SYSTEM.CONST>
0

>  <SCORE.SYSTEM.DIHEDRAL>
0

>  <SCORE.SYSTEM.SOLV>
0

>  <SCORE.SYSTEM.norm>
0

>  <SCORE.heavy>
31

>  <SCORE.norm>
-0.538932

>  <RMSD>
0.582

$$$$
ligand
 OpenBabel11021811493D
libRbt.so/2013.1/901 2013/11/27
 31 33  0  0  0  0  0  0  0  0999 V2000
    2.0469   15.0854   36.8590 C   0  0  2  0  0  0  0  0  0  0  0  0
    1.4575   15.6009   38.0373 O   0  0  0  0  0  0  0  0  0  0  0  0
   -2.2998   15.4905   40.0197 C   0  0  2  0  0  0  0  0  0  0  0  0
   -3.7090   15.5361   40.2175 N   0  0  0  0  0  0  0  0  0  0  0  0
   -3.6418   12.4331   39.3577 C   0  0  2  0  0  0  0  0  0  0  0  0
    3.5928   14.8459   37.1433 C   0  0  2  0  0  0  0  0  0  0  0  0
    3.7360   13.9325   38.2719 N   0  0  0  0  0  0  0  0  0  0  0  0
   -1.8432   16.8713   39.3681 C   0  0  0  0  0  0  0  0  0  0  0  0
   -3.8451   11.4201   40.5340 C   0  0  2  0  0  0  0  0  0  0  0  0
   -3.7840   12.1263   41.7550 O   0  0  0  0  0  0  0  0  0  0  0  0
    4.3215   16.2115   37.4228 C   0  0  0  0  0  0  0  0  0  0  0  0
   -0.2736   16.8264   39.1633 C   0  0  2  0  0  0  0  0  0  0  0  0
    0.1652   18.0917   38.5732 N   0  0  0  0  0  0  0  0  0  0  0  0
   -2.7111   10.3339   40.4584 C   0  0  1  0  0  0  0  0  0  0  0  0
   -2.8724    9.3581   41.5837 N   0  0  0  0  0  0  0  0  0  0  0  0
    3.7954   17.3655   36.4703 C   0  0  0  0  0  0  0  0  0  0  0  0
    0.0839   15.6245   38.1966 C   0  0  2  0  0  0  0  0  0  0  0  0
   -2.8333    9.5457   39.0400 C   0  0  1  0  0  0  0  0  0  0  0  0
   -4.0729    8.8858   38.8748 O   0  0  0  0  0  0  0  0  0  0  0  0
    2.6700   17.2079   35.7320 C   0  0  1  0  0  0  0  0  0  0  0  0
    1.8839   16.0196   35.7462 O   0  0  0  0  0  0  0  0  0  0  0  0
   -0.3959   14.2583   38.8425 C   0  0  2  0  0  0  0  0  0  0  0  0
   -0.0794   13.1713   37.9489 O   0  0  0  0  0  0  0  0  0  0  0  0
   -2.6703   10.5657   37.8735 C   0  0  0  0  0  0  0  0  0  0  0  0
   -3.6724   11.6965   38.0296 O   0  0  0  0  0  0  0  0  0  0  0  0
    2.1322   18.2840   34.8192 C   0  0  0  0  0  0  0  0  0  0  0  0
    1.6843   17.6194   33.6182 O   0  0  0  0  0  0  0  0  0  0  0  0
   -1.9575   14.3082   39.0521 C   0  0  1  0  0  0  0  0  0  0  0  0
   -2.3579   13.0907   39.6303 O   0  0  0  0  0  0  0  0  0  0  0  0
   -1.7767    8.4545   38.8237 C   0  0  0  0  0  0  0  0  0  0  0  0
   -2.1808    9.6948   42.8453 C   0  0  0  0  0  0  0  0  0  0  0  0
  1  2  1  1  0  0  0
  1  6  1  0  0  0  0
  1 21  1  0  0  0  0
  3  4  1  6  0  0  0
  3  8  1  0  0  0  0
  3 28  1  0  0  0  0
  5  9  1  0  0  0  0
  5 25  1  0  0  0  0
  5 29  1  1  0  0  0
  6  7  1  1  0  0  0
  6 11  1  0  0  0  0
  8 12  1  0  0  0  0
  9 10  1  1  0  0  0
  9 14  1  0  0  0  0
 11 16  1  0  0  0  0
 12 13  1  6  0  0  0
 12 17  1  0  0  0  0
 14 15  1  1  0  0  0
 14 18  1  0  0  0  0
 15 31  1  0  0  0  0
 16 20  1  0  0  0  0
 17  2  1  1  0  0  0
 17 22  1  0  0  0  0
 18 19  1  6  0  0  0
 18 24  1  0  0  0  0
 18 30  1  0  0  0  0
 20 21  1  0  0  0  0
 20 26  1  1  0  0  0
 22 23  1  6  0  0  0
 22 28  1  0  0  0  0
 24 25  1  0  0  0  0
 26 27  1  0  0  0  0
 28 29  1  1  0  0  0
M  END
>  <CHROM.1>
-165.20643233,-161.68261288,-89.34155659,-152.12083394,139.19820827,95.34113303
-0.64013947,13.84290472,38.50997660,-0.77149519,-0.57819732,3.11460459

>  <Name>
ligand

>  <RI>
0

>  <Rbt.Current_Directory>
/home/itssahil/PROJECTS/Mol_Feturizer/New_Systems/rnas/4GPY

>  <Rbt.Executable>
rbdock ($Id: //depot/dev/client3/rdock/2013.1/src/exe/rbdock.cxx#4 $)

>  <Rbt.Library>
libRbt.so (2013.1, Build901 2013/11/27)

>  <Rbt.Parameter_File>
/export/apps/rDock/src/rDock_2013.1_src/data/scripts/dock_solv.prm

>  <Rbt.Receptor>
prm/pocket_docking_8.prm

>  <SCORE>
-16.7332

>  <SCORE.INTER>
-16.3602

>  <SCORE.INTER.CONST>
1

>  <SCORE.INTER.POLAR>
0

>  <SCORE.INTER.ROT>
6

>  <SCORE.INTER.SOLV>
20.8399

>  <SCORE.INTER.VDW>
-25.4534

>  <SCORE.INTER.norm>
-0.527748

>  <SCORE.INTRA>
-0.37296

>  <SCORE.INTRA.DIHEDRAL>
-1.64095

>  <SCORE.INTRA.DIHEDRAL.0>
14.7001

>  <SCORE.INTRA.POLAR>
0

>  <SCORE.INTRA.POLAR.0>
0

>  <SCORE.INTRA.REPUL>
0

>  <SCORE.INTRA.REPUL.0>
0

>  <SCORE.INTRA.SOLV>
0.00216837

>  <SCORE.INTRA.SOLV.lig_0>
-65.3082

>  <SCORE.INTRA.VDW>
0.446432

>  <SCORE.INTRA.VDW.0>
-4.21408

>  <SCORE.INTRA.norm>
-0.012031

>  <SCORE.RESTR>
0

>  <SCORE.RESTR.CAVITY>
0

>  <SCORE.RESTR.norm>
0

>  <SCORE.SYSTEM>
0

>  <SCORE.SYSTEM.CONST>
0

>  <SCORE.SYSTEM.DIHEDRAL>
0

>  <SCORE.SYSTEM.SOLV>
0

>  <SCORE.SYSTEM.norm>
0

>  <SCORE.heavy>
31

>  <SCORE.norm>
-0.539779

>  <RMSD>
0.584

$$$$
ligand
 OpenBabel11021811493D
libRbt.so/2013.1/901 2013/11/27
 31 33  0  0  0  0  0  0  0  0999 V2000
    1.8509   14.8916   36.7210 C   0  0  2  0  0  0  0  0  0  0  0  0
    1.3223   15.3577   37.9477 O   0  0  0  0  0  0  0  0  0  0  0  0
   -2.3612   15.3296   40.0669 C   0  0  2  0  0  0  0  0  0  0  0  0
   -3.7600   15.4147   40.3178 N   0  0  0  0  0  0  0  0  0  0  0  0
   -3.7540   12.2474   39.2949 C   0  0  2  0  0  0  0  0  0  0  0  0
    3.4084   14.6394   36.9177 C   0  0  2  0  0  0  0  0  0  0  0  0
    3.6051   13.6796   37.9987 N   0  0  0  0  0  0  0  0  0  0  0  0
   -1.8866   16.7061   39.4190 C   0  0  0  0  0  0  0  0  0  0  0  0
   -4.0140   11.2450   40.4691 C   0  0  2  0  0  0  0  0  0  0  0  0
   -4.0532   11.9680   41.6811 O   0  0  0  0  0  0  0  0  0  0  0  0
    4.1538   15.9917   37.2173 C   0  0  0  0  0  0  0  0  0  0  0  0
   -0.3277   16.6171   39.1552 C   0  0  2  0  0  0  0  0  0  0  0  0
    0.1278   17.8776   38.5676 N   0  0  0  0  0  0  0  0  0  0  0  0
   -2.8527   10.1854   40.4867 C   0  0  1  0  0  0  0  0  0  0  0  0
   -3.0682    9.2205   41.6124 N   0  0  0  0  0  0  0  0  0  0  0  0
    3.5840   17.1849   36.3411 C   0  0  0  0  0  0  0  0  0  0  0  0
   -0.0432   15.4202   38.1584 C   0  0  2  0  0  0  0  0  0  0  0  0
   -2.8591    9.3764   39.0748 C   0  0  1  0  0  0  0  0  0  0  0  0
   -4.0689    8.6849   38.8349 O   0  0  0  0  0  0  0  0  0  0  0  0
    2.4228   17.0589   35.6539 C   0  0  1  0  0  0  0  0  0  0  0  0
    1.6352   15.8715   35.6576 O   0  0  0  0  0  0  0  0  0  0  0  0
   -0.5407   14.0592   38.8017 C   0  0  2  0  0  0  0  0  0  0  0  0
   -0.2909   12.9773   37.8812 O   0  0  0  0  0  0  0  0  0  0  0  0
   -2.6401   10.3850   37.9076 C   0  0  0  0  0  0  0  0  0  0  0  0
   -3.6764   11.4933   37.9785 O   0  0  0  0  0  0  0  0  0  0  0  0
    1.8431   18.1725   34.8147 C   0  0  0  0  0  0  0  0  0  0  0  0
    1.6848   17.6433   33.4807 O   0  0  0  0  0  0  0  0  0  0  0  0
   -2.0912   14.1529   39.0701 C   0  0  1  0  0  0  0  0  0  0  0  0
   -2.5074   12.9391   39.6450 O   0  0  0  0  0  0  0  0  0  0  0  0
   -1.7652    8.3083   38.9469 C   0  0  0  0  0  0  0  0  0  0  0  0
   -2.5567    9.6345   42.9354 C   0  0  0  0  0  0  0  0  0  0  0  0
  1  2  1  1  0  0  0
  1  6  1  0  0  0  0
  1 21  1  0  0  0  0
  3  4  1  6  0  0  0
  3  8  1  0  0  0  0
  3 28  1  0  0  0  0
  5  9  1  0  0  0  0
  5 25  1  0  0  0  0
  5 29  1  1  0  0  0
  6  7  1  1  0  0  0
  6 11  1  0  0  0  0
  8 12  1  0  0  0  0
  9 10  1  1  0  0  0
  9 14  1  0  0  0  0
 11 16  1  0  0  0  0
 12 13  1  6  0  0  0
 12 17  1  0  0  0  0
 14 15  1  1  0  0  0
 14 18  1  0  0  0  0
 15 31  1  0  0  0  0
 16 20  1  0  0  0  0
 17  2  1  1  0  0  0
 17 22  1  0  0  0  0
 18 19  1  6  0  0  0
 18 24  1  0  0  0  0
 18 30  1  0  0  0  0
 20 21  1  0  0  0  0
 20 26  1  1  0  0  0
 22 23  1  6  0  0  0
 22 28  1  0  0  0  0
 24 25  1  0  0  0  0
 26 27  1  0  0  0  0
 28 29  1  1  0  0  0
M  END
>  <CHROM.1>
-167.53862789,-162.22104447,-85.11772706,-149.65072569,123.27472582,102.62115383
-0.77174357,13.67538253,38.46922653,-0.74991582,-0.62645266,-3.13881598

>  <Name>
ligand

>  <RI>
0

>  <Rbt.Current_Directory>
/home/itssahil/PROJECTS/Mol_Feturizer/New_Systems/rnas/4GPY

>  <Rbt.Executable>
rbdock ($Id: //depot/dev/client3/rdock/2013.1/src/exe/rbdock.cxx#4 $)

>  <Rbt.Library>
libRbt.so (2013.1, Build901 2013/11/27)

>  <Rbt.Parameter_File>
/export/apps/rDock/src/rDock_2013.1_src/data/scripts/dock_solv.prm

>  <Rbt.Receptor>
prm/pocket_docking_2.prm

>  <SCORE>
-16.9267

>  <SCORE.INTER>
-16.9151

>  <SCORE.INTER.CONST>
1

>  <SCORE.INTER.POLAR>
0

>  <SCORE.INTER.ROT>
6

>  <SCORE.INTER.SOLV>
21.5277

>  <SCORE.INTER.VDW>
-26.0526

>  <SCORE.INTER.norm>
-0.545648

>  <SCORE.INTRA>
-0.0116383

>  <SCORE.INTRA.DIHEDRAL>
-0.895816

>  <SCORE.INTRA.DIHEDRAL.0>
14.7001

>  <SCORE.INTRA.POLAR>
0

>  <SCORE.INTRA.POLAR.0>
0

>  <SCORE.INTRA.REPUL>
0

>  <SCORE.INTRA.REPUL.0>
0

>  <SCORE.INTRA.SOLV>
0.127073

>  <SCORE.INTRA.SOLV.lig_0>
-65.3082

>  <SCORE.INTRA.VDW>
0.372733

>  <SCORE.INTRA.VDW.0>
-4.21408

>  <SCORE.INTRA.norm>
-0.00037543

>  <SCORE.RESTR>
0

>  <SCORE.RESTR.CAVITY>
0

>  <SCORE.RESTR.norm>
0

>  <SCORE.SYSTEM>
0

>  <SCORE.SYSTEM.CONST>
0

>  <SCORE.SYSTEM.DIHEDRAL>
0

>  <SCORE.SYSTEM.SOLV>
0

>  <SCORE.SYSTEM.norm>
0

>  <SCORE.heavy>
31

>  <SCORE.norm>
-0.546024

>  <RMSD>
0.586

$$$$
ligand
 OpenBabel11021811493D
libRbt.so/2013.1/901 2013/11/27
 31 33  0  0  0  0  0  0  0  0999 V2000
    1.9847   14.9723   36.8009 C   0  0  2  0  0  0  0  0  0  0  0  0
    1.4110   15.5904   37.9367 O   0  0  0  0  0  0  0  0  0  0  0  0
   -2.3017   15.3890   39.9947 C   0  0  2  0  0  0  0  0  0  0  0  0
   -3.7063   15.4218   40.2248 N   0  0  0  0  0  0  0  0  0  0  0  0
   -3.6497   12.3552   39.2429 C   0  0  2  0  0  0  0  0  0  0  0  0
    3.5571   14.8921   37.0228 C   0  0  2  0  0  0  0  0  0  0  0  0
    3.8303   14.1479   38.2476 N   0  0  0  0  0  0  0  0  0  0  0  0
   -1.8633   16.7959   39.3879 C   0  0  0  0  0  0  0  0  0  0  0  0
   -3.8715   11.3672   40.4370 C   0  0  2  0  0  0  0  0  0  0  0  0
   -3.8132   12.0964   41.6445 O   0  0  0  0  0  0  0  0  0  0  0  0
    4.1810   16.3346   37.0845 C   0  0  0  0  0  0  0  0  0  0  0  0
   -0.2984   16.7646   39.1475 C   0  0  2  0  0  0  0  0  0  0  0  0
    0.1239   18.0536   38.5979 N   0  0  0  0  0  0  0  0  0  0  0  0
   -2.7472   10.2692   40.3913 C   0  0  1  0  0  0  0  0  0  0  0  0
   -2.9263    9.3170   41.5340 N   0  0  0  0  0  0  0  0  0  0  0  0
    3.5149   17.3101   36.0259 C   0  0  0  0  0  0  0  0  0  0  0  0
    0.0411   15.6027   38.1268 C   0  0  2  0  0  0  0  0  0  0  0  0
   -2.8659    9.4548   38.9875 C   0  0  1  0  0  0  0  0  0  0  0  0
   -4.1103    8.8033   38.8253 O   0  0  0  0  0  0  0  0  0  0  0  0
    2.3727   16.9709   35.3802 C   0  0  1  0  0  0  0  0  0  0  0  0
    1.6909   15.7375   35.5902 O   0  0  0  0  0  0  0  0  0  0  0  0
   -0.4207   14.2107   38.7289 C   0  0  2  0  0  0  0  0  0  0  0  0
   -0.1209   13.1606   37.7866 O   0  0  0  0  0  0  0  0  0  0  0  0
   -2.6843   10.4504   37.8029 C   0  0  0  0  0  0  0  0  0  0  0  0
   -3.6770   11.5932   37.9291 O   0  0  0  0  0  0  0  0  0  0  0  0
    1.7035   17.8736   34.3714 C   0  0  0  0  0  0  0  0  0  0  0  0
    2.6212   18.9590   34.1174 O   0  0  0  0  0  0  0  0  0  0  0  0
   -1.9775   14.2467   38.9743 C   0  0  1  0  0  0  0  0  0  0  0  0
   -2.3618   13.0061   39.5129 O   0  0  0  0  0  0  0  0  0  0  0  0
   -1.8179    8.3500   38.8007 C   0  0  0  0  0  0  0  0  0  0  0  0
   -2.2765    9.6933   42.8067 C   0  0  0  0  0  0  0  0  0  0  0  0
  1  2  1  1  0  0  0
  1  6  1  0  0  0  0
  1 21  1  0  0  0  0
  3  4  1  6  0  0  0
  3  8  1  0  0  0  0
  3 28  1  0  0  0  0
  5  9  1  0  0  0  0
  5 25  1  0  0  0  0
  5 29  1  1  0  0  0
  6  7  1  1  0  0  0
  6 11  1  0  0  0  0
  8 12  1  0  0  0  0
  9 10  1  1  0  0  0
  9 14  1  0  0  0  0
 11 16  1  0  0  0  0
 12 13  1  6  0  0  0
 12 17  1  0  0  0  0
 14 15  1  1  0  0  0
 14 18  1  0  0  0  0
 15 31  1  0  0  0  0
 16 20  1  0  0  0  0
 17  2  1  1  0  0  0
 17 22  1  0  0  0  0
 18 19  1  6  0  0  0
 18 24  1  0  0  0  0
 18 30  1  0  0  0  0
 20 21  1  0  0  0  0
 20 26  1  1  0  0  0
 22 23  1  6  0  0  0
 22 28  1  0  0  0  0
 24 25  1  0  0  0  0
 26 27  1  0  0  0  0
 28 29  1  1  0  0  0
M  END
>  <CHROM.1>
-169.41900622,-157.84713461,-87.47581507,-160.10430914,9.36267429,95.32966546
-0.66989296,13.82375716,38.42043442,-0.76548262,-0.60995469,-3.14117621

>  <Name>
ligand

>  <RI>
0

>  <Rbt.Current_Directory>
/home/itssahil/PROJECTS/Mol_Feturizer/New_Systems/rnas/4GPY

>  <Rbt.Executable>
rbdock ($Id: //depot/dev/client3/rdock/2013.1/src/exe/rbdock.cxx#4 $)

>  <Rbt.Library>
libRbt.so (2013.1, Build901 2013/11/27)

>  <Rbt.Parameter_File>
/export/apps/rDock/src/rDock_2013.1_src/data/scripts/dock_solv.prm

>  <Rbt.Receptor>
prm/pocket_docking_2.prm

>  <SCORE>
-16.4677

>  <SCORE.INTER>
-16.3959

>  <SCORE.INTER.CONST>
1

>  <SCORE.INTER.POLAR>
0

>  <SCORE.INTER.ROT>
6

>  <SCORE.INTER.SOLV>
21.0344

>  <SCORE.INTER.VDW>
-25.5421

>  <SCORE.INTER.norm>
-0.5289

>  <SCORE.INTRA>
-0.0717768

>  <SCORE.INTRA.DIHEDRAL>
-3.3107

>  <SCORE.INTRA.DIHEDRAL.0>
14.7001

>  <SCORE.INTRA.POLAR>
0

>  <SCORE.INTRA.POLAR.0>
0

>  <SCORE.INTRA.REPUL>
0

>  <SCORE.INTRA.REPUL.0>
0

>  <SCORE.INTRA.SOLV>
-0.561963

>  <SCORE.INTRA.SOLV.lig_0>
-65.3082

>  <SCORE.INTRA.VDW>
1.86455

>  <SCORE.INTRA.VDW.0>
-4.21408

>  <SCORE.INTRA.norm>
-0.00231538

>  <SCORE.RESTR>
0

>  <SCORE.RESTR.CAVITY>
0

>  <SCORE.RESTR.norm>
0

>  <SCORE.SYSTEM>
0

>  <SCORE.SYSTEM.CONST>
0

>  <SCORE.SYSTEM.DIHEDRAL>
0

>  <SCORE.SYSTEM.SOLV>
0

>  <SCORE.SYSTEM.norm>
0

>  <SCORE.heavy>
31

>  <SCORE.norm>
-0.531215

>  <RMSD>
0.588

$$$$
ligand
 OpenBabel11021811493D
libRbt.so/2013.1/901 2013/11/27
 31 33  0  0  0  0  0  0  0  0999 V2000
    1.9020   14.8998   36.7391 C   0  0  2  0  0  0  0  0  0  0  0  0
    1.3622   15.3790   37.9558 O   0  0  0  0  0  0  0  0  0  0  0  0
   -2.3317   15.3210   40.0562 C   0  0  2  0  0  0  0  0  0  0  0  0
   -3.7325   15.3931   40.2996 N   0  0  0  0  0  0  0  0  0  0  0  0
   -3.7168   12.2513   39.3265 C   0  0  2  0  0  0  0  0  0  0  0  0
    3.4596   14.6598   36.9496 C   0  0  2  0  0  0  0  0  0  0  0  0
    3.6548   13.7156   38.0446 N   0  0  0  0  0  0  0  0  0  0  0  0
   -1.8672   16.7001   39.4067 C   0  0  0  0  0  0  0  0  0  0  0  0
   -3.9546   11.2516   40.5078 C   0  0  2  0  0  0  0  0  0  0  0  0
   -3.9500   11.9747   41.7204 O   0  0  0  0  0  0  0  0  0  0  0  0
    4.1948   16.0205   37.2361 C   0  0  0  0  0  0  0  0  0  0  0  0
   -0.3062   16.6256   39.1513 C   0  0  2  0  0  0  0  0  0  0  0  0
    0.1400   17.8888   38.5624 N   0  0  0  0  0  0  0  0  0  0  0  0
   -2.8060   10.1783   40.4918 C   0  0  1  0  0  0  0  0  0  0  0  0
   -3.0003    9.2157   41.6233 N   0  0  0  0  0  0  0  0  0  0  0  0
    3.6238   17.1984   36.3402 C   0  0  0  0  0  0  0  0  0  0  0  0
   -0.0048   15.4288   38.1594 C   0  0  2  0  0  0  0  0  0  0  0  0
   -2.8630    9.3699   39.0807 C   0  0  1  0  0  0  0  0  0  0  0  0
   -4.0873    8.6929   38.8759 O   0  0  0  0  0  0  0  0  0  0  0  0
    2.4681   17.0561   35.6469 C   0  0  1  0  0  0  0  0  0  0  0  0
    1.6877   15.8641   35.6612 O   0  0  0  0  0  0  0  0  0  0  0  0
   -0.4924   14.0648   38.8040 C   0  0  2  0  0  0  0  0  0  0  0  0
   -0.2273   12.9828   37.8878 O   0  0  0  0  0  0  0  0  0  0  0  0
   -2.6658   10.3762   37.9076 C   0  0  0  0  0  0  0  0  0  0  0  0
   -3.6864   11.4967   38.0085 O   0  0  0  0  0  0  0  0  0  0  0  0
    1.8875   18.1549   34.7891 C   0  0  0  0  0  0  0  0  0  0  0  0
    1.6341   17.5740   33.4917 O   0  0  0  0  0  0  0  0  0  0  0  0
   -2.0452   14.1441   39.0642 C   0  0  1  0  0  0  0  0  0  0  0  0
   -2.4524   12.9279   39.6403 O   0  0  0  0  0  0  0  0  0  0  0  0
   -1.7860    8.2888   38.9212 C   0  0  0  0  0  0  0  0  0  0  0  0
   -2.4912    9.6455   42.9422 C   0  0  0  0  0  0  0  0  0  0  0  0
  1  2  1  1  0  0  0
  1  6  1  0  0  0  0
  1 21  1  0  0  0  0
  3  4  1  6  0  0  0
  3  8  1  0  0  0  0
  3 28  1  0  0  0  0
  5  9  1  0  0  0  0
  5 25  1  0  0  0  0
  5 29  1  1  0  0  0
  6  7  1  1  0  0  0
  6 11  1  0  0  0  0
  8 12  1  0  0  0  0
  9 10  1  1  0  0  0
  9 14  1  0  0  0  0
 11 16  1  0  0  0  0
 12 13  1  6  0  0  0
 12 17  1  0  0  0  0
 14 15  1  1  0  0  0
 14 18  1  0  0  0  0
 15 31  1  0  0  0  0
 16 20  1  0  0  0  0
 17  2  1  1  0  0  0
 17 22  1  0  0  0  0
 18 19  1  6  0  0  0
 18 24  1  0  0  0  0
 18 30  1  0  0  0  0
 20 21  1  0  0  0  0
 20 26  1  1  0  0  0
 22 23  1  6  0  0  0
 22 28  1  0  0  0  0
 24 25  1  0  0  0  0
 26 27  1  0  0  0  0
 28 29  1  1  0  0  0
M  END
>  <CHROM.1>
-167.16432303,-161.51575367,-82.87591198,-150.40421136,128.09475339,99.97886717
-0.73890028,13.67535272,38.47707527,-0.75112656,-0.62422852,-3.14065029

>  <Name>
ligand

>  <RI>
0

>  <Rbt.Current_Directory>
/home/itssahil/PROJECTS/Mol_Feturizer/New_Systems/rnas/4GPY

>  <Rbt.Executable>
rbdock ($Id: //depot/dev/client3/rdock/2013.1/src/exe/rbdock.cxx#4 $)

>  <Rbt.Library>
libRbt.so (2013.1, Build901 2013/11/27)

>  <Rbt.Parameter_File>
/export/apps/rDock/src/rDock_2013.1_src/data/scripts/dock_solv.prm

>  <Rbt.Receptor>
prm/pocket_docking_2.prm

>  <SCORE>
-16.8668

>  <SCORE.INTER>
-16.8189

>  <SCORE.INTER.CONST>
1

>  <SCORE.INTER.POLAR>
0

>  <SCORE.INTER.ROT>
6

>  <SCORE.INTER.SOLV>
21.4046

>  <SCORE.INTER.VDW>
-25.9474

>  <SCORE.INTER.norm>
-0.542544

>  <SCORE.INTRA>
-0.0479307

>  <SCORE.INTRA.DIHEDRAL>
-1.29431

>  <SCORE.INTRA.DIHEDRAL.0>
14.7001

>  <SCORE.INTRA.POLAR>
0

>  <SCORE.INTRA.POLAR.0>
0

>  <SCORE.INTRA.REPUL>
0

>  <SCORE.INTRA.REPUL.0>
0

>  <SCORE.INTRA.SOLV>
0.115111

>  <SCORE.INTRA.SOLV.lig_0>
-65.3082

>  <SCORE.INTRA.VDW>
0.541671

>  <SCORE.INTRA.VDW.0>
-4.21408

>  <SCORE.INTRA.norm>
-0.00154615

>  <SCORE.RESTR>
0

>  <SCORE.RESTR.CAVITY>
0

>  <SCORE.RESTR.norm>
0

>  <SCORE.SYSTEM>
0

>  <SCORE.SYSTEM.CONST>
0

>  <SCORE.SYSTEM.DIHEDRAL>
0

>  <SCORE.SYSTEM.SOLV>
0

>  <SCORE.SYSTEM.norm>
0

>  <SCORE.heavy>
31

>  <SCORE.norm>
-0.54409

>  <RMSD>
0.589

$$$$
ligand
 OpenBabel11021811493D
libRbt.so/2013.1/901 2013/11/27
 31 33  0  0  0  0  0  0  0  0999 V2000
    1.9963   15.0022   36.9293 C   0  0  2  0  0  0  0  0  0  0  0  0
    1.4009   15.6798   38.0191 O   0  0  0  0  0  0  0  0  0  0  0  0
   -2.3326   15.4833   40.0395 C   0  0  2  0  0  0  0  0  0  0  0  0
   -3.7399   15.5075   40.2535 N   0  0  0  0  0  0  0  0  0  0  0  0
   -3.6481   12.4275   39.3375 C   0  0  2  0  0  0  0  0  0  0  0  0
    3.5656   14.9472   37.1788 C   0  0  2  0  0  0  0  0  0  0  0  0
    3.8253   14.2767   38.4483 N   0  0  0  0  0  0  0  0  0  0  0  0
   -1.9001   16.8824   39.4109 C   0  0  0  0  0  0  0  0  0  0  0  0
   -3.8412   11.4159   40.5167 C   0  0  2  0  0  0  0  0  0  0  0  0
   -3.7773   12.1247   41.7360 O   0  0  0  0  0  0  0  0  0  0  0  0
    4.1783   16.3959   37.1668 C   0  0  0  0  0  0  0  0  0  0  0  0
   -0.3324   16.8610   39.1883 C   0  0  2  0  0  0  0  0  0  0  0  0
    0.0844   18.1432   38.6190 N   0  0  0  0  0  0  0  0  0  0  0  0
   -2.7029   10.3345   40.4376 C   0  0  1  0  0  0  0  0  0  0  0  0
   -2.8544    9.3602   41.5656 N   0  0  0  0  0  0  0  0  0  0  0  0
    3.5216   17.3037   36.0440 C   0  0  0  0  0  0  0  0  0  0  0  0
    0.0290   15.6832   38.1938 C   0  0  2  0  0  0  0  0  0  0  0  0
   -2.8286    9.5430   39.0213 C   0  0  1  0  0  0  0  0  0  0  0  0
   -4.0660    8.8774   38.8634 O   0  0  0  0  0  0  0  0  0  0  0  0
    2.3919   16.9190   35.4020 C   0  0  1  0  0  0  0  0  0  0  0  0
    1.7157   15.6943   35.6724 O   0  0  0  0  0  0  0  0  0  0  0  0
   -0.4270   14.2985   38.8172 C   0  0  2  0  0  0  0  0  0  0  0  0
   -0.1072   13.2336   37.8985 O   0  0  0  0  0  0  0  0  0  0  0  0
   -2.6757   10.5615   37.8522 C   0  0  0  0  0  0  0  0  0  0  0  0
   -3.6820   11.6881   38.0109 O   0  0  0  0  0  0  0  0  0  0  0  0
    1.7318   17.7570   34.3332 C   0  0  0  0  0  0  0  0  0  0  0  0
    2.5666   18.9205   34.1482 O   0  0  0  0  0  0  0  0  0  0  0  0
   -1.9867   14.3249   39.0447 C   0  0  1  0  0  0  0  0  0  0  0  0
   -2.3658   13.0912   39.6026 O   0  0  0  0  0  0  0  0  0  0  0  0
   -1.7683    8.4561   38.8020 C   0  0  0  0  0  0  0  0  0  0  0  0
   -2.2016    9.7276   42.8392 C   0  0  0  0  0  0  0  0  0  0  0  0
  1  2  1  1  0  0  0
  1  6  1  0  0  0  0
  1 21  1  0  0  0  0
  3  4  1  6  0  0  0
  3  8  1  0  0  0  0
  3 28  1  0  0  0  0
  5  9  1  0  0  0  0
  5 25  1  0  0  0  0
  5 29  1  1  0  0  0
  6  7  1  1  0  0  0
  6 11  1  0  0  0  0
  8 12  1  0  0  0  0
  9 10  1  1  0  0  0
  9 14  1  0  0  0  0
 11 16  1  0  0  0  0
 12 13  1  6  0  0  0
 12 17  1  0  0  0  0
 14 15  1  1  0  0  0
 14 18  1  0  0  0  0
 15 31  1  0  0  0  0
 16 20  1  0  0  0  0
 17  2  1  1  0  0  0
 17 22  1  0  0  0  0
 18 19  1  6  0  0  0
 18 24  1  0  0  0  0
 18 30  1  0  0  0  0
 20 21  1  0  0  0  0
 20 26  1  1  0  0  0
 22 23  1  6  0  0  0
 22 28  1  0  0  0  0
 24 25  1  0  0  0  0
 26 27  1  0  0  0  0
 28 29  1  1  0  0  0
M  END
>  <CHROM.1>
-168.89001200,-160.11198127,-87.06106113,-162.54626054,2.47580989,94.93199949
-0.66235946,13.87905607,38.48278897,-0.76887355,-0.60417334,3.13153033

>  <Name>
ligand

>  <RI>
0

>  <Rbt.Current_Directory>
/home/itssahil/PROJECTS/Mol_Feturizer/New_Systems/rnas/4GPY

>  <Rbt.Executable>
rbdock ($Id: //depot/dev/client3/rdock/2013.1/src/exe/rbdock.cxx#4 $)

>  <Rbt.Library>
libRbt.so (2013.1, Build901 2013/11/27)

>  <Rbt.Parameter_File>
/export/apps/rDock/src/rDock_2013.1_src/data/scripts/dock_solv.prm

>  <Rbt.Receptor>
prm/pocket_docking_2.prm

>  <SCORE>
-16.5509

>  <SCORE.INTER>
-16.0456

>  <SCORE.INTER.CONST>
1

>  <SCORE.INTER.POLAR>
0

>  <SCORE.INTER.ROT>
6

>  <SCORE.INTER.SOLV>
20.7252

>  <SCORE.INTER.VDW>
-25.2055

>  <SCORE.INTER.norm>
-0.5176

>  <SCORE.INTRA>
-0.505285

>  <SCORE.INTRA.DIHEDRAL>
-4.20911

>  <SCORE.INTRA.DIHEDRAL.0>
14.7001

>  <SCORE.INTRA.POLAR>
0

>  <SCORE.INTRA.POLAR.0>
0

>  <SCORE.INTRA.REPUL>
0

>  <SCORE.INTRA.REPUL.0>
0

>  <SCORE.INTRA.SOLV>
-0.820112

>  <SCORE.INTRA.SOLV.lig_0>
-65.3082

>  <SCORE.INTRA.VDW>
2.00933

>  <SCORE.INTRA.VDW.0>
-4.21408

>  <SCORE.INTRA.norm>
-0.0162995

>  <SCORE.RESTR>
0

>  <SCORE.RESTR.CAVITY>
0

>  <SCORE.RESTR.norm>
0

>  <SCORE.SYSTEM>
0

>  <SCORE.SYSTEM.CONST>
0

>  <SCORE.SYSTEM.DIHEDRAL>
0

>  <SCORE.SYSTEM.SOLV>
0

>  <SCORE.SYSTEM.norm>
0

>  <SCORE.heavy>
31

>  <SCORE.norm>
-0.5339

>  <RMSD>
0.589

$$$$
ligand
 OpenBabel11021811493D
libRbt.so/2013.1/901 2013/11/27
 31 33  0  0  0  0  0  0  0  0999 V2000
    1.6780   14.9786   36.7156 C   0  0  2  0  0  0  0  0  0  0  0  0
    1.1924   15.4481   37.9586 O   0  0  0  0  0  0  0  0  0  0  0  0
   -2.4244   15.4690   40.1899 C   0  0  2  0  0  0  0  0  0  0  0  0
   -3.8138   15.5702   40.4831 N   0  0  0  0  0  0  0  0  0  0  0  0
   -3.8332   12.3564   39.4175 C   0  0  2  0  0  0  0  0  0  0  0  0
    3.2391   14.7146   36.8623 C   0  0  2  0  0  0  0  0  0  0  0  0
    3.4629   13.7527   37.9362 N   0  0  0  0  0  0  0  0  0  0  0  0
   -1.9554   16.8374   39.5211 C   0  0  0  0  0  0  0  0  0  0  0  0
   -4.0469   11.3014   40.5545 C   0  0  2  0  0  0  0  0  0  0  0  0
   -4.1006   11.9761   41.7935 O   0  0  0  0  0  0  0  0  0  0  0  0
    4.0038   16.0611   37.1383 C   0  0  0  0  0  0  0  0  0  0  0  0
   -0.4064   16.7305   39.2101 C   0  0  2  0  0  0  0  0  0  0  0  0
    0.0442   17.9834   38.6028 N   0  0  0  0  0  0  0  0  0  0  0  0
   -2.8487   10.2841   40.5226 C   0  0  1  0  0  0  0  0  0  0  0  0
   -3.0197    9.2702   41.6122 N   0  0  0  0  0  0  0  0  0  0  0  0
    3.4154   17.2589   36.2811 C   0  0  0  0  0  0  0  0  0  0  0  0
   -0.1652   15.5262   38.2109 C   0  0  2  0  0  0  0  0  0  0  0  0
   -2.8393    9.5296   39.0809 C   0  0  1  0  0  0  0  0  0  0  0  0
   -4.0260    8.8049   38.8241 O   0  0  0  0  0  0  0  0  0  0  0  0
    2.2319   17.1421   35.6313 C   0  0  1  0  0  0  0  0  0  0  0  0
    1.4360   15.9607   35.6599 O   0  0  0  0  0  0  0  0  0  0  0  0
   -0.6571   14.1735   38.8756 C   0  0  2  0  0  0  0  0  0  0  0  0
   -0.4471   13.0848   37.9531 O   0  0  0  0  0  0  0  0  0  0  0  0
   -2.6667   10.5889   37.9515 C   0  0  0  0  0  0  0  0  0  0  0  0
   -3.7409   11.6559   38.0727 O   0  0  0  0  0  0  0  0  0  0  0  0
    1.6342   18.2605   34.8114 C   0  0  0  0  0  0  0  0  0  0  0  0
    1.6806   17.8312   33.4336 O   0  0  0  0  0  0  0  0  0  0  0  0
   -2.1976   14.2850   39.1910 C   0  0  1  0  0  0  0  0  0  0  0  0
   -2.6087   13.0783   39.7842 O   0  0  0  0  0  0  0  0  0  0  0  0
   -1.7095    8.5068   38.9038 C   0  0  0  0  0  0  0  0  0  0  0  0
   -2.4999    9.6466   42.9432 C   0  0  0  0  0  0  0  0  0  0  0  0
  1  2  1  1  0  0  0
  1  6  1  0  0  0  0
  1 21  1  0  0  0  0
  3  4  1  6  0  0  0
  3  8  1  0  0  0  0
  3 28  1  0  0  0  0
  5  9  1  0  0  0  0
  5 25  1  0  0  0  0
  5 29  1  1  0  0  0
  6  7  1  1  0  0  0
  6 11  1  0  0  0  0
  8 12  1  0  0  0  0
  9 10  1  1  0  0  0
  9 14  1  0  0  0  0
 11 16  1  0  0  0  0
 12 13  1  6  0  0  0
 12 17  1  0  0  0  0
 14 15  1  1  0  0  0
 14 18  1  0  0  0  0
 15 31  1  0  0  0  0
 16 20  1  0  0  0  0
 17  2  1  1  0  0  0
 17 22  1  0  0  0  0
 18 19  1  6  0  0  0
 18 24  1  0  0  0  0
 18 30  1  0  0  0  0
 20 21  1  0  0  0  0
 20 26  1  1  0  0  0
 22 23  1  6  0  0  0
 22 28  1  0  0  0  0
 24 25  1  0  0  0  0
 26 27  1  0  0  0  0
 28 29  1  1  0  0  0
M  END
>  <CHROM.1>
-167.81606313,-166.48284086,-85.67014266,-149.25616257,111.90951552,106.48949740
-0.85203817,13.78306988,38.50363245,-0.74888226,-0.65670519,-3.13176139

>  <Name>
ligand

>  <RI>
0

>  <Rbt.Current_Directory>
/home/itssahil/PROJECTS/Mol_Feturizer/New_Systems/rnas/4GPY

>  <Rbt.Executable>
rbdock ($Id: //depot/dev/client3/rdock/2013.1/src/exe/rbdock.cxx#4 $)

>  <Rbt.Library>
libRbt.so (2013.1, Build901 2013/11/27)

>  <Rbt.Parameter_File>
/export/apps/rDock/src/rDock_2013.1_src/data/scripts/dock_solv.prm

>  <Rbt.Receptor>
prm/pocket_docking_7.prm

>  <SCORE>
-16.6348

>  <SCORE.INTER>
-16.4862

>  <SCORE.INTER.CONST>
1

>  <SCORE.INTER.POLAR>
0

>  <SCORE.INTER.ROT>
6

>  <SCORE.INTER.SOLV>
21.4876

>  <SCORE.INTER.VDW>
-25.7533

>  <SCORE.INTER.norm>
-0.531812

>  <SCORE.INTRA>
-0.148679

>  <SCORE.INTRA.DIHEDRAL>
-0.826238

>  <SCORE.INTRA.DIHEDRAL.0>
14.7001

>  <SCORE.INTRA.POLAR>
0

>  <SCORE.INTRA.POLAR.0>
0

>  <SCORE.INTRA.REPUL>
0

>  <SCORE.INTRA.REPUL.0>
0

>  <SCORE.INTRA.SOLV>
-0.00552015

>  <SCORE.INTRA.SOLV.lig_0>
-65.3082

>  <SCORE.INTRA.VDW>
0.2672

>  <SCORE.INTRA.VDW.0>
-4.21408

>  <SCORE.INTRA.norm>
-0.00479611

>  <SCORE.RESTR>
0

>  <SCORE.RESTR.CAVITY>
0

>  <SCORE.RESTR.norm>
0

>  <SCORE.SYSTEM>
0

>  <SCORE.SYSTEM.CONST>
0

>  <SCORE.SYSTEM.DIHEDRAL>
0

>  <SCORE.SYSTEM.SOLV>
0

>  <SCORE.SYSTEM.norm>
0

>  <SCORE.heavy>
31

>  <SCORE.norm>
-0.536608

>  <RMSD>
0.589

$$$$
ligand
 OpenBabel11021811493D
libRbt.so/2013.1/901 2013/11/27
 31 33  0  0  0  0  0  0  0  0999 V2000
    2.0203   15.1043   36.8568 C   0  0  2  0  0  0  0  0  0  0  0  0
    1.4363   15.6266   38.0347 O   0  0  0  0  0  0  0  0  0  0  0  0
   -2.3031   15.4893   40.0490 C   0  0  2  0  0  0  0  0  0  0  0  0
   -3.7109   15.5240   40.2587 N   0  0  0  0  0  0  0  0  0  0  0  0
   -3.6351   12.4312   39.4198 C   0  0  2  0  0  0  0  0  0  0  0  0
    3.5742   14.8995   37.1240 C   0  0  2  0  0  0  0  0  0  0  0  0
    3.7502   14.0069   38.2645 N   0  0  0  0  0  0  0  0  0  0  0  0
   -1.8631   16.8726   39.3915 C   0  0  0  0  0  0  0  0  0  0  0  0
   -3.7959   11.3933   40.5809 C   0  0  2  0  0  0  0  0  0  0  0  0
   -3.6973   12.0745   41.8136 O   0  0  0  0  0  0  0  0  0  0  0  0
    4.2794   16.2833   37.3726 C   0  0  0  0  0  0  0  0  0  0  0  0
   -0.2950   16.8400   39.1736 C   0  0  2  0  0  0  0  0  0  0  0  0
    0.1287   18.1078   38.5779 N   0  0  0  0  0  0  0  0  0  0  0  0
   -2.6612   10.3137   40.4457 C   0  0  1  0  0  0  0  0  0  0  0  0
   -2.7818    9.3143   41.5553 N   0  0  0  0  0  0  0  0  0  0  0  0
    3.7182   17.4117   36.4095 C   0  0  0  0  0  0  0  0  0  0  0  0
    0.0640   15.6394   38.2057 C   0  0  2  0  0  0  0  0  0  0  0  0
   -2.8271    9.5544   39.0160 C   0  0  1  0  0  0  0  0  0  0  0  0
   -4.0691    8.8927   38.8779 O   0  0  0  0  0  0  0  0  0  0  0  0
    2.5865   17.2205   35.6889 C   0  0  1  0  0  0  0  0  0  0  0  0
    1.8244   16.0175   35.7319 O   0  0  0  0  0  0  0  0  0  0  0  0
   -0.3995   14.2705   38.8576 C   0  0  2  0  0  0  0  0  0  0  0  0
   -0.0819   13.1847   37.9629 O   0  0  0  0  0  0  0  0  0  0  0  0
   -2.7062   10.5988   37.8662 C   0  0  0  0  0  0  0  0  0  0  0  0
   -3.7067   11.7218   38.0784 O   0  0  0  0  0  0  0  0  0  0  0  0
    2.0157   18.2715   34.7669 C   0  0  0  0  0  0  0  0  0  0  0  0
    1.6670   17.5966   33.5390 O   0  0  0  0  0  0  0  0  0  0  0  0
   -1.9596   14.3082   39.0804 C   0  0  1  0  0  0  0  0  0  0  0  0
   -2.3454   13.0885   39.6637 O   0  0  0  0  0  0  0  0  0  0  0  0
   -1.7742    8.4724   38.7426 C   0  0  0  0  0  0  0  0  0  0  0  0
   -2.1690    9.6926   42.8455 C   0  0  0  0  0  0  0  0  0  0  0  0
  1  2  1  1  0  0  0
  1  6  1  0  0  0  0
  1 21  1  0  0  0  0
  3  4  1  6  0  0  0
  3  8  1  0  0  0  0
  3 28  1  0  0  0  0
  5  9  1  0  0  0  0
  5 25  1  0  0  0  0
  5 29  1  1  0  0  0
  6  7  1  1  0  0  0
  6 11  1  0  0  0  0
  8 12  1  0  0  0  0
  9 10  1  1  0  0  0
  9 14  1  0  0  0  0
 11 16  1  0  0  0  0
 12 13  1  6  0  0  0
 12 17  1  0  0  0  0
 14 15  1  1  0  0  0
 14 18  1  0  0  0  0
 15 31  1  0  0  0  0
 16 20  1  0  0  0  0
 17  2  1  1  0  0  0
 17 22  1  0  0  0  0
 18 19  1  6  0  0  0
 18 24  1  0  0  0  0
 18 30  1  0  0  0  0
 20 21  1  0  0  0  0
 20 26  1  1  0  0  0
 22 23  1  6  0  0  0
 22 28  1  0  0  0  0
 24 25  1  0  0  0  0
 26 27  1  0  0  0  0
 28 29  1  1  0  0  0
M  END
>  <CHROM.1>
-165.93602150,-162.80002178,-83.17508109,-152.62797093,134.56733539,94.30686592
-0.64998601,13.85121143,38.50810210,-0.76713690,-0.60174964,3.13014222

>  <Name>
ligand

>  <RI>
0

>  <Rbt.Current_Directory>
/home/itssahil/PROJECTS/Mol_Feturizer/New_Systems/rnas/4GPY

>  <Rbt.Executable>
rbdock ($Id: //depot/dev/client3/rdock/2013.1/src/exe/rbdock.cxx#4 $)

>  <Rbt.Library>
libRbt.so (2013.1, Build901 2013/11/27)

>  <Rbt.Parameter_File>
/export/apps/rDock/src/rDock_2013.1_src/data/scripts/dock_solv.prm

>  <Rbt.Receptor>
prm/pocket_docking_2.prm

>  <SCORE>
-16.8329

>  <SCORE.INTER>
-16.1557

>  <SCORE.INTER.CONST>
1

>  <SCORE.INTER.POLAR>
0

>  <SCORE.INTER.ROT>
6

>  <SCORE.INTER.SOLV>
20.9394

>  <SCORE.INTER.VDW>
-25.3503

>  <SCORE.INTER.norm>
-0.521153

>  <SCORE.INTRA>
-0.677175

>  <SCORE.INTRA.DIHEDRAL>
-2.55598

>  <SCORE.INTRA.DIHEDRAL.0>
14.7001

>  <SCORE.INTRA.POLAR>
0

>  <SCORE.INTRA.POLAR.0>
0

>  <SCORE.INTRA.REPUL>
0

>  <SCORE.INTRA.REPUL.0>
0

>  <SCORE.INTRA.SOLV>
-0.0684949

>  <SCORE.INTRA.SOLV.lig_0>
-65.3082

>  <SCORE.INTRA.VDW>
0.635063

>  <SCORE.INTRA.VDW.0>
-4.21408

>  <SCORE.INTRA.norm>
-0.0218444

>  <SCORE.RESTR>
0

>  <SCORE.RESTR.CAVITY>
0

>  <SCORE.RESTR.norm>
0

>  <SCORE.SYSTEM>
0

>  <SCORE.SYSTEM.CONST>
0

>  <SCORE.SYSTEM.DIHEDRAL>
0

>  <SCORE.SYSTEM.SOLV>
0

>  <SCORE.SYSTEM.norm>
0

>  <SCORE.heavy>
31

>  <SCORE.norm>
-0.542997

>  <RMSD>
0.590

$$$$
ligand
 OpenBabel11021811493D
libRbt.so/2013.1/901 2013/11/27
 31 33  0  0  0  0  0  0  0  0999 V2000
    1.8533   14.9029   36.7224 C   0  0  2  0  0  0  0  0  0  0  0  0
    1.3319   15.3705   37.9515 O   0  0  0  0  0  0  0  0  0  0  0  0
   -2.3451   15.3689   40.0822 C   0  0  2  0  0  0  0  0  0  0  0  0
   -3.7425   15.4640   40.3374 N   0  0  0  0  0  0  0  0  0  0  0  0
   -3.7645   12.2991   39.3184 C   0  0  2  0  0  0  0  0  0  0  0  0
    3.4113   14.6477   36.9112 C   0  0  2  0  0  0  0  0  0  0  0  0
    3.6117   13.6879   37.9916 N   0  0  0  0  0  0  0  0  0  0  0  0
   -1.8628   16.7419   39.4326 C   0  0  0  0  0  0  0  0  0  0  0  0
   -4.0190   11.2886   40.4869 C   0  0  2  0  0  0  0  0  0  0  0  0
   -4.0406   12.0018   41.7052 O   0  0  0  0  0  0  0  0  0  0  0  0
    4.1609   15.9987   37.2065 C   0  0  0  0  0  0  0  0  0  0  0  0
   -0.3054   16.6417   39.1641 C   0  0  2  0  0  0  0  0  0  0  0  0
    0.1573   17.8989   38.5749 N   0  0  0  0  0  0  0  0  0  0  0  0
   -2.8648   10.2212   40.4835 C   0  0  1  0  0  0  0  0  0  0  0  0
   -3.0750    9.2484   41.6034 N   0  0  0  0  0  0  0  0  0  0  0  0
    3.5890   17.1926   36.3327 C   0  0  0  0  0  0  0  0  0  0  0  0
   -0.0324   15.4428   38.1666 C   0  0  2  0  0  0  0  0  0  0  0  0
   -2.8915    9.4241   39.0651 C   0  0  1  0  0  0  0  0  0  0  0  0
   -4.1084    8.7427   38.8322 O   0  0  0  0  0  0  0  0  0  0  0  0
    2.4240   17.0687   35.6515 C   0  0  1  0  0  0  0  0  0  0  0  0
    1.6342   15.8828   35.6597 O   0  0  0  0  0  0  0  0  0  0  0  0
   -0.5376   14.0854   38.8116 C   0  0  2  0  0  0  0  0  0  0  0  0
   -0.2984   13.0017   37.8903 O   0  0  0  0  0  0  0  0  0  0  0  0
   -2.6779   10.4409   37.9041 C   0  0  0  0  0  0  0  0  0  0  0  0
   -3.7059   11.5555   37.9951 O   0  0  0  0  0  0  0  0  0  0  0  0
    1.8423   18.1831   34.8149 C   0  0  0  0  0  0  0  0  0  0  0  0
    1.6583   17.6479   33.4866 O   0  0  0  0  0  0  0  0  0  0  0  0
   -2.0866   14.1902   39.0848 C   0  0  1  0  0  0  0  0  0  0  0  0
   -2.5096   12.9794   39.6611 O   0  0  0  0  0  0  0  0  0  0  0  0
   -1.8063    8.3498   38.9168 C   0  0  0  0  0  0  0  0  0  0  0  0
   -2.5464    9.6476   42.9242 C   0  0  0  0  0  0  0  0  0  0  0  0
  1  2  1  1  0  0  0
  1  6  1  0  0  0  0
  1 21  1  0  0  0  0
  3  4  1  6  0  0  0
  3  8  1  0  0  0  0
  3 28  1  0  0  0  0
  5  9  1  0  0  0  0
  5 25  1  0  0  0  0
  5 29  1  1  0  0  0
  6  7  1  1  0  0  0
  6 11  1  0  0  0  0
  8 12  1  0  0  0  0
  9 10  1  1  0  0  0
  9 14  1  0  0  0  0
 11 16  1  0  0  0  0
 12 13  1  6  0  0  0
 12 17  1  0  0  0  0
 14 15  1  1  0  0  0
 14 18  1  0  0  0  0
 15 31  1  0  0  0  0
 16 20  1  0  0  0  0
 17  2  1  1  0  0  0
 17 22  1  0  0  0  0
 18 19  1  6  0  0  0
 18 24  1  0  0  0  0
 18 30  1  0  0  0  0
 20 21  1  0  0  0  0
 20 26  1  1  0  0  0
 22 23  1  6  0  0  0
 22 28  1  0  0  0  0
 24 25  1  0  0  0  0
 26 27  1  0  0  0  0
 28 29  1  1  0  0  0
M  END
>  <CHROM.1>
-167.90018095,-162.70826111,-85.14294895,-149.53063341,124.07575473,102.39415752
-0.77427144,13.70389877,38.47294396,-0.74228476,-0.62982415,-3.13189309

>  <Name>
ligand

>  <RI>
0

>  <Rbt.Current_Directory>
/home/itssahil/PROJECTS/Mol_Feturizer/New_Systems/rnas/4GPY

>  <Rbt.Executable>
rbdock ($Id: //depot/dev/client3/rdock/2013.1/src/exe/rbdock.cxx#4 $)

>  <Rbt.Library>
libRbt.so (2013.1, Build901 2013/11/27)

>  <Rbt.Parameter_File>
/export/apps/rDock/src/rDock_2013.1_src/data/scripts/dock_solv.prm

>  <Rbt.Receptor>
prm/pocket_docking_4.prm

>  <SCORE>
-16.7986

>  <SCORE.INTER>
-16.727

>  <SCORE.INTER.CONST>
1

>  <SCORE.INTER.POLAR>
0

>  <SCORE.INTER.ROT>
6

>  <SCORE.INTER.SOLV>
21.5183

>  <SCORE.INTER.VDW>
-25.9241

>  <SCORE.INTER.norm>
-0.539579

>  <SCORE.INTRA>
-0.0716096

>  <SCORE.INTRA.DIHEDRAL>
-1.01236

>  <SCORE.INTRA.DIHEDRAL.0>
14.7001

>  <SCORE.INTRA.POLAR>
0

>  <SCORE.INTRA.POLAR.0>
0

>  <SCORE.INTRA.REPUL>
0

>  <SCORE.INTRA.REPUL.0>
0

>  <SCORE.INTRA.SOLV>
0.120776

>  <SCORE.INTRA.SOLV.lig_0>
-65.3082

>  <SCORE.INTRA.VDW>
0.374183

>  <SCORE.INTRA.VDW.0>
-4.21408

>  <SCORE.INTRA.norm>
-0.00230999

>  <SCORE.RESTR>
0

>  <SCORE.RESTR.CAVITY>
0

>  <SCORE.RESTR.norm>
0

>  <SCORE.SYSTEM>
0

>  <SCORE.SYSTEM.CONST>
0

>  <SCORE.SYSTEM.DIHEDRAL>
0

>  <SCORE.SYSTEM.SOLV>
0

>  <SCORE.SYSTEM.norm>
0

>  <SCORE.heavy>
31

>  <SCORE.norm>
-0.541889

>  <RMSD>
0.593

$$$$
ligand
 OpenBabel11021811493D
libRbt.so/2013.1/901 2013/11/27
 31 33  0  0  0  0  0  0  0  0999 V2000
    1.9420   14.8937   36.7723 C   0  0  2  0  0  0  0  0  0  0  0  0
    1.3939   15.3650   37.9884 O   0  0  0  0  0  0  0  0  0  0  0  0
   -2.3160   15.3355   40.0610 C   0  0  2  0  0  0  0  0  0  0  0  0
   -3.7186   15.4120   40.2929 N   0  0  0  0  0  0  0  0  0  0  0  0
   -3.7033   12.2637   39.3631 C   0  0  2  0  0  0  0  0  0  0  0  0
    3.4846   14.5905   37.0097 C   0  0  2  0  0  0  0  0  0  0  0  0
    3.6206   13.6149   38.0859 N   0  0  0  0  0  0  0  0  0  0  0  0
   -1.8449   16.7065   39.3991 C   0  0  0  0  0  0  0  0  0  0  0  0
   -3.9297   11.2521   40.5365 C   0  0  2  0  0  0  0  0  0  0  0  0
   -3.9144   11.9631   41.7561 O   0  0  0  0  0  0  0  0  0  0  0  0
    4.2634   15.9157   37.3436 C   0  0  0  0  0  0  0  0  0  0  0  0
   -0.2821   16.6273   39.1565 C   0  0  2  0  0  0  0  0  0  0  0  0
    0.1702   17.8831   38.5564 N   0  0  0  0  0  0  0  0  0  0  0  0
   -2.7808   10.1797   40.4992 C   0  0  1  0  0  0  0  0  0  0  0  0
   -2.9642    9.2058   41.6227 N   0  0  0  0  0  0  0  0  0  0  0  0
    3.7563   17.1343   36.4640 C   0  0  0  0  0  0  0  0  0  0  0  0
    0.0254   15.4186   38.1809 C   0  0  2  0  0  0  0  0  0  0  0  0
   -2.8502    9.3854   39.0807 C   0  0  1  0  0  0  0  0  0  0  0  0
   -4.0761    8.7098   38.8804 O   0  0  0  0  0  0  0  0  0  0  0  0
    2.6115   17.0516   35.7435 C   0  0  1  0  0  0  0  0  0  0  0  0
    1.7873   15.8897   35.7132 O   0  0  0  0  0  0  0  0  0  0  0  0
   -0.4687   14.0628   38.8376 C   0  0  2  0  0  0  0  0  0  0  0  0
   -0.1980   12.9699   37.9361 O   0  0  0  0  0  0  0  0  0  0  0  0
   -2.6644   10.4035   37.9160 C   0  0  0  0  0  0  0  0  0  0  0  0
   -3.6846   11.5223   38.0374 O   0  0  0  0  0  0  0  0  0  0  0  0
    2.0910   18.1907   34.8998 C   0  0  0  0  0  0  0  0  0  0  0  0
    1.7577   17.6303   33.6116 O   0  0  0  0  0  0  0  0  0  0  0  0
   -2.0233   14.1469   39.0850 C   0  0  1  0  0  0  0  0  0  0  0  0
   -2.4364   12.9379   39.6721 O   0  0  0  0  0  0  0  0  0  0  0  0
   -1.7743    8.3067   38.9005 C   0  0  0  0  0  0  0  0  0  0  0  0
   -2.4116    9.6073   42.9330 C   0  0  0  0  0  0  0  0  0  0  0  0
  1  2  1  1  0  0  0
  1  6  1  0  0  0  0
  1 21  1  0  0  0  0
  3  4  1  6  0  0  0
  3  8  1  0  0  0  0
  3 28  1  0  0  0  0
  5  9  1  0  0  0  0
  5 25  1  0  0  0  0
  5 29  1  1  0  0  0
  6  7  1  1  0  0  0
  6 11  1  0  0  0  0
  8 12  1  0  0  0  0
  9 10  1  1  0  0  0
  9 14  1  0  0  0  0
 11 16  1  0  0  0  0
 12 13  1  6  0  0  0
 12 17  1  0  0  0  0
 14 15  1  1  0  0  0
 14 18  1  0  0  0  0
 15 31  1  0  0  0  0
 16 20  1  0  0  0  0
 17  2  1  1  0  0  0
 17 22  1  0  0  0  0
 18 19  1  6  0  0  0
 18 24  1  0  0  0  0
 18 30  1  0  0  0  0
 20 21  1  0  0  0  0
 20 26  1  1  0  0  0
 22 23  1  6  0  0  0
 22 28  1  0  0  0  0
 24 25  1  0  0  0  0
 26 27  1  0  0  0  0
 28 29  1  1  0  0  0
M  END
>  <CHROM.1>
-164.94117424,-162.80916059,-84.43778510,-149.24789897,131.95354582,99.55331380
-0.69609063,13.67055453,38.51110026,-0.75858215,-0.59882713,3.12628436

>  <Name>
ligand

>  <RI>
0

>  <Rbt.Current_Directory>
/home/itssahil/PROJECTS/Mol_Feturizer/New_Systems/rnas/4GPY

>  <Rbt.Executable>
rbdock ($Id: //depot/dev/client3/rdock/2013.1/src/exe/rbdock.cxx#4 $)

>  <Rbt.Library>
libRbt.so (2013.1, Build901 2013/11/27)

>  <Rbt.Parameter_File>
/export/apps/rDock/src/rDock_2013.1_src/data/scripts/dock_solv.prm

>  <Rbt.Receptor>
prm/pocket_docking_2.prm

>  <SCORE>
-16.7798

>  <SCORE.INTER>
-16.8692

>  <SCORE.INTER.CONST>
1

>  <SCORE.INTER.POLAR>
0

>  <SCORE.INTER.ROT>
6

>  <SCORE.INTER.SOLV>
20.7534

>  <SCORE.INTER.VDW>
-25.764

>  <SCORE.INTER.norm>
-0.544169

>  <SCORE.INTRA>
0.0894083

>  <SCORE.INTRA.DIHEDRAL>
-0.919387

>  <SCORE.INTRA.DIHEDRAL.0>
14.7001

>  <SCORE.INTRA.POLAR>
0

>  <SCORE.INTRA.POLAR.0>
0

>  <SCORE.INTRA.REPUL>
0

>  <SCORE.INTRA.REPUL.0>
0

>  <SCORE.INTRA.SOLV>
0.166408

>  <SCORE.INTRA.SOLV.lig_0>
-65.3082

>  <SCORE.INTRA.VDW>
0.465898

>  <SCORE.INTRA.VDW.0>
-4.21408

>  <SCORE.INTRA.norm>
0.00288414

>  <SCORE.RESTR>
0

>  <SCORE.RESTR.CAVITY>
0

>  <SCORE.RESTR.norm>
0

>  <SCORE.SYSTEM>
0

>  <SCORE.SYSTEM.CONST>
0

>  <SCORE.SYSTEM.DIHEDRAL>
0

>  <SCORE.SYSTEM.SOLV>
0

>  <SCORE.SYSTEM.norm>
0

>  <SCORE.heavy>
31

>  <SCORE.norm>
-0.541285

>  <RMSD>
0.601

$$$$
ligand
 OpenBabel11021811493D
libRbt.so/2013.1/901 2013/11/27
 31 33  0  0  0  0  0  0  0  0999 V2000
    1.9419   14.8565   36.7862 C   0  0  2  0  0  0  0  0  0  0  0  0
    1.3924   15.3267   38.0021 O   0  0  0  0  0  0  0  0  0  0  0  0
   -2.3259   15.3326   40.0598 C   0  0  2  0  0  0  0  0  0  0  0  0
   -3.7288   15.4203   40.2856 N   0  0  0  0  0  0  0  0  0  0  0  0
   -3.7238   12.2580   39.3543 C   0  0  2  0  0  0  0  0  0  0  0  0
    3.5047   14.6521   36.9961 C   0  0  2  0  0  0  0  0  0  0  0  0
    3.7218   13.7154   38.0934 N   0  0  0  0  0  0  0  0  0  0  0  0
   -1.8422   16.6975   39.3943 C   0  0  0  0  0  0  0  0  0  0  0  0
   -3.9665   11.2495   40.5269 C   0  0  2  0  0  0  0  0  0  0  0  0
   -3.9699   11.9638   41.7447 O   0  0  0  0  0  0  0  0  0  0  0  0
    4.2093   16.0297   37.2784 C   0  0  0  0  0  0  0  0  0  0  0  0
   -0.2790   16.6058   39.1584 C   0  0  2  0  0  0  0  0  0  0  0  0
    0.1848   17.8559   38.5551 N   0  0  0  0  0  0  0  0  0  0  0  0
   -2.8161   10.1782   40.5097 C   0  0  1  0  0  0  0  0  0  0  0  0
   -3.0150    9.2071   41.6331 N   0  0  0  0  0  0  0  0  0  0  0  0
    3.6114   17.1921   36.3800 C   0  0  0  0  0  0  0  0  0  0  0  0
    0.0236   15.3911   38.1889 C   0  0  2  0  0  0  0  0  0  0  0  0
   -2.8637    9.3798   39.0925 C   0  0  1  0  0  0  0  0  0  0  0  0
   -4.0858    8.7023   38.8760 O   0  0  0  0  0  0  0  0  0  0  0  0
    2.4586   17.0222   35.6881 C   0  0  1  0  0  0  0  0  0  0  0  0
    1.7052   15.8130   35.7061 O   0  0  0  0  0  0  0  0  0  0  0  0
   -0.4831   14.0415   38.8490 C   0  0  2  0  0  0  0  0  0  0  0  0
   -0.2167   12.9431   37.9530 O   0  0  0  0  0  0  0  0  0  0  0  0
   -2.6617   10.3949   37.9278 C   0  0  0  0  0  0  0  0  0  0  0  0
   -3.6847   11.5129   38.0310 O   0  0  0  0  0  0  0  0  0  0  0  0
    1.8528   18.1055   34.8279 C   0  0  0  0  0  0  0  0  0  0  0  0
    1.6564   17.5298   33.5184 O   0  0  0  0  0  0  0  0  0  0  0  0
   -2.0380   14.1379   39.0897 C   0  0  1  0  0  0  0  0  0  0  0  0
   -2.4623   12.9344   39.6800 O   0  0  0  0  0  0  0  0  0  0  0  0
   -1.7841    8.3017   38.9312 C   0  0  0  0  0  0  0  0  0  0  0  0
   -2.4626    9.6030   42.9451 C   0  0  0  0  0  0  0  0  0  0  0  0
  1  2  1  1  0  0  0
  1  6  1  0  0  0  0
  1 21  1  0  0  0  0
  3  4  1  6  0  0  0
  3  8  1  0  0  0  0
  3 28  1  0  0  0  0
  5  9  1  0  0  0  0
  5 25  1  0  0  0  0
  5 29  1  1  0  0  0
  6  7  1  1  0  0  0
  6 11  1  0  0  0  0
  8 12  1  0  0  0  0
  9 10  1  1  0  0  0
  9 14  1  0  0  0  0
 11 16  1  0  0  0  0
 12 13  1  6  0  0  0
 12 17  1  0  0  0  0
 14 15  1  1  0  0  0
 14 18  1  0  0  0  0
 15 31  1  0  0  0  0
 16 20  1  0  0  0  0
 17  2  1  1  0  0  0
 17 22  1  0  0  0  0
 18 19  1  6  0  0  0
 18 24  1  0  0  0  0
 18 30  1  0  0  0  0
 20 21  1  0  0  0  0
 20 26  1  1  0  0  0
 22 23  1  6  0  0  0
 22 28  1  0  0  0  0
 24 25  1  0  0  0  0
 26 27  1  0  0  0  0
 28 29  1  1  0  0  0
M  END
>  <CHROM.1>
-169.49740356,-163.21288803,-85.41448591,-148.73738282,126.06506977,100.48511782
-0.72911723,13.66251764,38.50215692,-0.75550055,-0.61011087,3.13056787

>  <Name>
ligand

>  <RI>
0

>  <Rbt.Current_Directory>
/home/itssahil/PROJECTS/Mol_Feturizer/New_Systems/rnas/4GPY

>  <Rbt.Executable>
rbdock ($Id: //depot/dev/client3/rdock/2013.1/src/exe/rbdock.cxx#4 $)

>  <Rbt.Library>
libRbt.so (2013.1, Build901 2013/11/27)

>  <Rbt.Parameter_File>
/export/apps/rDock/src/rDock_2013.1_src/data/scripts/dock_solv.prm

>  <Rbt.Receptor>
prm/pocket_docking_4.prm

>  <SCORE>
-16.8883

>  <SCORE.INTER>
-16.6577

>  <SCORE.INTER.CONST>
1

>  <SCORE.INTER.POLAR>
0

>  <SCORE.INTER.ROT>
6

>  <SCORE.INTER.SOLV>
21.2043

>  <SCORE.INTER.VDW>
-25.7732

>  <SCORE.INTER.norm>
-0.537344

>  <SCORE.INTRA>
-0.230609

>  <SCORE.INTRA.DIHEDRAL>
-1.36682

>  <SCORE.INTRA.DIHEDRAL.0>
14.7001

>  <SCORE.INTRA.POLAR>
0

>  <SCORE.INTRA.POLAR.0>
0

>  <SCORE.INTRA.REPUL>
0

>  <SCORE.INTRA.REPUL.0>
0

>  <SCORE.INTRA.SOLV>
0.160479

>  <SCORE.INTRA.SOLV.lig_0>
-65.3082

>  <SCORE.INTRA.VDW>
0.372562

>  <SCORE.INTRA.VDW.0>
-4.21408

>  <SCORE.INTRA.norm>
-0.00743899

>  <SCORE.RESTR>
0

>  <SCORE.RESTR.CAVITY>
0

>  <SCORE.RESTR.norm>
0

>  <SCORE.SYSTEM>
0

>  <SCORE.SYSTEM.CONST>
0

>  <SCORE.SYSTEM.DIHEDRAL>
0

>  <SCORE.SYSTEM.SOLV>
0

>  <SCORE.SYSTEM.norm>
0

>  <SCORE.heavy>
31

>  <SCORE.norm>
-0.544783

>  <RMSD>
0.601

$$$$
ligand
 OpenBabel11021811493D
libRbt.so/2013.1/901 2013/11/27
 31 33  0  0  0  0  0  0  0  0999 V2000
    2.0233   14.9964   36.7799 C   0  0  2  0  0  0  0  0  0  0  0  0
    1.4604   15.4566   37.9935 O   0  0  0  0  0  0  0  0  0  0  0  0
   -2.2742   15.4902   40.0212 C   0  0  2  0  0  0  0  0  0  0  0  0
   -3.6796   15.5718   40.2334 N   0  0  0  0  0  0  0  0  0  0  0  0
   -3.6675   12.4168   39.4428 C   0  0  2  0  0  0  0  0  0  0  0  0
    3.5894   14.8255   36.9947 C   0  0  2  0  0  0  0  0  0  0  0  0
    3.8231   13.8952   38.0941 N   0  0  0  0  0  0  0  0  0  0  0  0
   -1.7974   16.8388   39.3188 C   0  0  0  0  0  0  0  0  0  0  0  0
   -3.8405   11.3694   40.5935 C   0  0  2  0  0  0  0  0  0  0  0  0
   -3.7666   12.0421   41.8326 O   0  0  0  0  0  0  0  0  0  0  0  0
    4.2639   16.2181   37.2770 C   0  0  0  0  0  0  0  0  0  0  0  0
   -0.2316   16.7545   39.0978 C   0  0  2  0  0  0  0  0  0  0  0  0
    0.2259   17.9901   38.4608 N   0  0  0  0  0  0  0  0  0  0  0  0
   -2.6967   10.2981   40.4691 C   0  0  1  0  0  0  0  0  0  0  0  0
   -2.8290    9.2898   41.5692 N   0  0  0  0  0  0  0  0  0  0  0  0
    3.6441   17.3663   36.3750 C   0  0  0  0  0  0  0  0  0  0  0  0
    0.0896   15.5140   38.1676 C   0  0  2  0  0  0  0  0  0  0  0  0
   -2.8343    9.5483   39.0314 C   0  0  1  0  0  0  0  0  0  0  0  0
   -4.0695    8.8798   38.8681 O   0  0  0  0  0  0  0  0  0  0  0  0
    2.4973   17.1709   35.6800 C   0  0  1  0  0  0  0  0  0  0  0  0
    1.7696   15.9460   35.6976 O   0  0  0  0  0  0  0  0  0  0  0  0
   -0.4103   14.1803   38.8640 C   0  0  2  0  0  0  0  0  0  0  0  0
   -0.1270   13.0580   38.0035 O   0  0  0  0  0  0  0  0  0  0  0  0
   -2.7014   10.6020   37.8914 C   0  0  0  0  0  0  0  0  0  0  0  0
   -3.7125   11.7170   38.0953 O   0  0  0  0  0  0  0  0  0  0  0  0
    1.8712   18.2398   34.8163 C   0  0  0  0  0  0  0  0  0  0  0  0
    1.7496   17.6796   33.4911 O   0  0  0  0  0  0  0  0  0  0  0  0
   -1.9679   14.2697   39.0897 C   0  0  1  0  0  0  0  0  0  0  0  0
   -2.3862   13.0805   39.7126 O   0  0  0  0  0  0  0  0  0  0  0  0
   -1.7701    8.4752   38.7674 C   0  0  0  0  0  0  0  0  0  0  0  0
   -2.1721    9.6282   42.8488 C   0  0  0  0  0  0  0  0  0  0  0  0
  1  2  1  1  0  0  0
  1  6  1  0  0  0  0
  1 21  1  0  0  0  0
  3  4  1  6  0  0  0
  3  8  1  0  0  0  0
  3 28  1  0  0  0  0
  5  9  1  0  0  0  0
  5 25  1  0  0  0  0
  5 29  1  1  0  0  0
  6  7  1  1  0  0  0
  6 11  1  0  0  0  0
  8 12  1  0  0  0  0
  9 10  1  1  0  0  0
  9 14  1  0  0  0  0
 11 16  1  0  0  0  0
 12 13  1  6  0  0  0
 12 17  1  0  0  0  0
 14 15  1  1  0  0  0
 14 18  1  0  0  0  0
 15 31  1  0  0  0  0
 16 20  1  0  0  0  0
 17  2  1  1  0  0  0
 17 22  1  0  0  0  0
 18 19  1  6  0  0  0
 18 24  1  0  0  0  0
 18 30  1  0  0  0  0
 20 21  1  0  0  0  0
 20 26  1  1  0  0  0
 22 23  1  6  0  0  0
 22 28  1  0  0  0  0
 24 25  1  0  0  0  0
 26 27  1  0  0  0  0
 28 29  1  1  0  0  0
M  END
>  <CHROM.1>
-170.62918330,-166.40573155,-86.61037309,-146.63916115,123.39940604,97.50629828
-0.65695484,13.80586557,38.48721565,-0.77486404,-0.59101419,3.10438601

>  <Name>
ligand

>  <RI>
0

>  <Rbt.Current_Directory>
/home/itssahil/PROJECTS/Mol_Feturizer/New_Systems/rnas/4GPY

>  <Rbt.Executable>
rbdock ($Id: //depot/dev/client3/rdock/2013.1/src/exe/rbdock.cxx#4 $)

>  <Rbt.Library>
libRbt.so (2013.1, Build901 2013/11/27)

>  <Rbt.Parameter_File>
/export/apps/rDock/src/rDock_2013.1_src/data/scripts/dock_solv.prm

>  <Rbt.Receptor>
prm/pocket_docking_7.prm

>  <SCORE>
-16.7524

>  <SCORE.INTER>
-16.1495

>  <SCORE.INTER.CONST>
1

>  <SCORE.INTER.POLAR>
0

>  <SCORE.INTER.ROT>
6

>  <SCORE.INTER.SOLV>
20.8952

>  <SCORE.INTER.VDW>
-25.3314

>  <SCORE.INTER.norm>
-0.520951

>  <SCORE.INTRA>
-0.602917

>  <SCORE.INTRA.DIHEDRAL>
-2.00493

>  <SCORE.INTRA.DIHEDRAL.0>
14.7001

>  <SCORE.INTRA.POLAR>
0

>  <SCORE.INTRA.POLAR.0>
0

>  <SCORE.INTRA.REPUL>
0

>  <SCORE.INTRA.REPUL.0>
0

>  <SCORE.INTRA.SOLV>
0.202999

>  <SCORE.INTRA.SOLV.lig_0>
-65.3082

>  <SCORE.INTRA.VDW>
0.298048

>  <SCORE.INTRA.VDW.0>
-4.21408

>  <SCORE.INTRA.norm>
-0.0194489

>  <SCORE.RESTR>
0

>  <SCORE.RESTR.CAVITY>
0

>  <SCORE.RESTR.norm>
0

>  <SCORE.SYSTEM>
0

>  <SCORE.SYSTEM.CONST>
0

>  <SCORE.SYSTEM.DIHEDRAL>
0

>  <SCORE.SYSTEM.SOLV>
0

>  <SCORE.SYSTEM.norm>
0

>  <SCORE.heavy>
31

>  <SCORE.norm>
-0.5404

>  <RMSD>
0.608

$$$$
ligand
 OpenBabel11021811493D
libRbt.so/2013.1/901 2013/11/27
 31 33  0  0  0  0  0  0  0  0999 V2000
    1.9767   14.9041   36.8693 C   0  0  2  0  0  0  0  0  0  0  0  0
    1.4084   15.5268   38.0053 O   0  0  0  0  0  0  0  0  0  0  0  0
   -2.3226   15.4922   40.0396 C   0  0  2  0  0  0  0  0  0  0  0  0
   -3.7281   15.5609   40.2560 N   0  0  0  0  0  0  0  0  0  0  0  0
   -3.6921   12.4165   39.3795 C   0  0  2  0  0  0  0  0  0  0  0  0
    3.5499   14.8227   37.0851 C   0  0  2  0  0  0  0  0  0  0  0  0
    3.8272   14.0824   38.3113 N   0  0  0  0  0  0  0  0  0  0  0  0
   -1.8546   16.8595   39.3679 C   0  0  0  0  0  0  0  0  0  0  0  0
   -3.8872   11.3769   40.5339 C   0  0  2  0  0  0  0  0  0  0  0  0
   -3.8474   12.0596   41.7691 O   0  0  0  0  0  0  0  0  0  0  0  0
    4.1757   16.2647   37.1393 C   0  0  0  0  0  0  0  0  0  0  0  0
   -0.2888   16.7891   39.1423 C   0  0  2  0  0  0  0  0  0  0  0  0
    0.1606   18.0418   38.5335 N   0  0  0  0  0  0  0  0  0  0  0  0
   -2.7346   10.3115   40.4458 C   0  0  1  0  0  0  0  0  0  0  0  0
   -2.8879    9.3110   41.5503 N   0  0  0  0  0  0  0  0  0  0  0  0
    3.5065   17.2374   36.0800 C   0  0  0  0  0  0  0  0  0  0  0  0
    0.0376   15.5724   38.1831 C   0  0  2  0  0  0  0  0  0  0  0  0
   -2.8326    9.5498   39.0112 C   0  0  1  0  0  0  0  0  0  0  0  0
   -4.0596    8.8727   38.8231 O   0  0  0  0  0  0  0  0  0  0  0  0
    2.3613   16.8973   35.4401 C   0  0  1  0  0  0  0  0  0  0  0  0
    1.6789   15.6655   35.6572 O   0  0  0  0  0  0  0  0  0  0  0  0
   -0.4535   14.2201   38.8492 C   0  0  2  0  0  0  0  0  0  0  0  0
   -0.1655   13.1197   37.9624 O   0  0  0  0  0  0  0  0  0  0  0  0
   -2.6779   10.5955   37.8665 C   0  0  0  0  0  0  0  0  0  0  0  0
   -3.7002   11.7060   38.0369 O   0  0  0  0  0  0  0  0  0  0  0  0
    1.6890   17.7974   34.4310 C   0  0  0  0  0  0  0  0  0  0  0  0
    2.6634   18.7943   34.0549 O   0  0  0  0  0  0  0  0  0  0  0  0
   -2.0112   14.2954   39.0795 C   0  0  1  0  0  0  0  0  0  0  0  0
   -2.4217   13.0898   39.6753 O   0  0  0  0  0  0  0  0  0  0  0  0
   -1.7561    8.4810   38.7817 C   0  0  0  0  0  0  0  0  0  0  0  0
   -2.3306    9.6960   42.8635 C   0  0  0  0  0  0  0  0  0  0  0  0
  1  2  1  1  0  0  0
  1  6  1  0  0  0  0
  1 21  1  0  0  0  0
  3  4  1  6  0  0  0
  3  8  1  0  0  0  0
  3 28  1  0  0  0  0
  5  9  1  0  0  0  0
  5 25  1  0  0  0  0
  5 29  1  1  0  0  0
  6  7  1  1  0  0  0
  6 11  1  0  0  0  0
  8 12  1  0  0  0  0
  9 10  1  1  0  0  0
  9 14  1  0  0  0  0
 11 16  1  0  0  0  0
 12 13  1  6  0  0  0
 12 17  1  0  0  0  0
 14 15  1  1  0  0  0
 14 18  1  0  0  0  0
 15 31  1  0  0  0  0
 16 20  1  0  0  0  0
 17  2  1  1  0  0  0
 17 22  1  0  0  0  0
 18 19  1  6  0  0  0
 18 24  1  0  0  0  0
 18 30  1  0  0  0  0
 20 21  1  0  0  0  0
 20 26  1  1  0  0  0
 22 23  1  6  0  0  0
 22 28  1  0  0  0  0
 24 25  1  0  0  0  0
 26 27  1  0  0  0  0
 28 29  1  1  0  0  0
M  END
>  <CHROM.1>
-171.15064520,-164.63800171,-83.29300704,-156.74180455,15.75065201,98.32233730
-0.67512351,13.83001352,38.47770313,-0.76318991,-0.60071782,3.12304109

>  <Name>
ligand

>  <RI>
0

>  <Rbt.Current_Directory>
/home/itssahil/PROJECTS/Mol_Feturizer/New_Systems/rnas/4GPY

>  <Rbt.Executable>
rbdock ($Id: //depot/dev/client3/rdock/2013.1/src/exe/rbdock.cxx#4 $)

>  <Rbt.Library>
libRbt.so (2013.1, Build901 2013/11/27)

>  <Rbt.Parameter_File>
/export/apps/rDock/src/rDock_2013.1_src/data/scripts/dock_solv.prm

>  <Rbt.Receptor>
prm/pocket_docking_4.prm

>  <SCORE>
-16.2531

>  <SCORE.INTER>
-16.0925

>  <SCORE.INTER.CONST>
1

>  <SCORE.INTER.POLAR>
0

>  <SCORE.INTER.ROT>
6

>  <SCORE.INTER.SOLV>
20.6607

>  <SCORE.INTER.VDW>
-25.2152

>  <SCORE.INTER.norm>
-0.519112

>  <SCORE.INTRA>
-0.160667

>  <SCORE.INTRA.DIHEDRAL>
-3.36119

>  <SCORE.INTRA.DIHEDRAL.0>
14.7001

>  <SCORE.INTRA.POLAR>
0

>  <SCORE.INTRA.POLAR.0>
0

>  <SCORE.INTRA.REPUL>
0

>  <SCORE.INTRA.REPUL.0>
0

>  <SCORE.INTRA.SOLV>
-0.523519

>  <SCORE.INTRA.SOLV.lig_0>
-65.3082

>  <SCORE.INTRA.VDW>
1.78169

>  <SCORE.INTRA.VDW.0>
-4.21408

>  <SCORE.INTRA.norm>
-0.0051828

>  <SCORE.RESTR>
0

>  <SCORE.RESTR.CAVITY>
0

>  <SCORE.RESTR.norm>
0

>  <SCORE.SYSTEM>
0

>  <SCORE.SYSTEM.CONST>
0

>  <SCORE.SYSTEM.DIHEDRAL>
0

>  <SCORE.SYSTEM.SOLV>
0

>  <SCORE.SYSTEM.norm>
0

>  <SCORE.heavy>
31

>  <SCORE.norm>
-0.524295

>  <RMSD>
0.611

$$$$
ligand
 OpenBabel11021811493D
libRbt.so/2013.1/901 2013/11/27
 31 33  0  0  0  0  0  0  0  0999 V2000
    2.0199   14.8491   36.7921 C   0  0  2  0  0  0  0  0  0  0  0  0
    1.4560   15.3051   38.0067 O   0  0  0  0  0  0  0  0  0  0  0  0
   -2.2911   15.3573   40.0109 C   0  0  2  0  0  0  0  0  0  0  0  0
   -3.6965   15.4560   40.2157 N   0  0  0  0  0  0  0  0  0  0  0  0
   -3.7094   12.2965   39.3390 C   0  0  2  0  0  0  0  0  0  0  0  0
    3.5723   14.6008   37.0300 C   0  0  2  0  0  0  0  0  0  0  0  0
    3.7425   13.6343   38.1096 N   0  0  0  0  0  0  0  0  0  0  0  0
   -1.7895   16.7114   39.3368 C   0  0  0  0  0  0  0  0  0  0  0  0
   -3.9581   11.2907   40.5128 C   0  0  2  0  0  0  0  0  0  0  0  0
   -3.9441   12.0045   41.7308 O   0  0  0  0  0  0  0  0  0  0  0  0
    4.3043   15.9536   37.3592 C   0  0  0  0  0  0  0  0  0  0  0  0
   -0.2237   16.6076   39.1242 C   0  0  2  0  0  0  0  0  0  0  0  0
    0.2563   17.8478   38.5133 N   0  0  0  0  0  0  0  0  0  0  0  0
   -2.8223   10.2041   40.4877 C   0  0  1  0  0  0  0  0  0  0  0  0
   -3.0271    9.2353   41.6120 N   0  0  0  0  0  0  0  0  0  0  0  0
    3.7547   17.1507   36.4756 C   0  0  0  0  0  0  0  0  0  0  0  0
    0.0850   15.3799   38.1732 C   0  0  2  0  0  0  0  0  0  0  0  0
   -2.8898    9.4071   39.0705 C   0  0  1  0  0  0  0  0  0  0  0  0
   -4.1222    8.7462   38.8617 O   0  0  0  0  0  0  0  0  0  0  0  0
    2.6134   17.0255   35.7557 C   0  0  1  0  0  0  0  0  0  0  0  0
    1.8303   15.8355   35.7297 O   0  0  0  0  0  0  0  0  0  0  0  0
   -0.4393   14.0412   38.8415 C   0  0  2  0  0  0  0  0  0  0  0  0
   -0.1670   12.9308   37.9621 O   0  0  0  0  0  0  0  0  0  0  0  0
   -2.6817   10.4199   37.9050 C   0  0  0  0  0  0  0  0  0  0  0  0
   -3.6889   11.5516   38.0152 O   0  0  0  0  0  0  0  0  0  0  0  0
    2.0532   18.1429   34.9083 C   0  0  0  0  0  0  0  0  0  0  0  0
    1.7626   17.5723   33.6142 O   0  0  0  0  0  0  0  0  0  0  0  0
   -1.9968   14.1498   39.0589 C   0  0  1  0  0  0  0  0  0  0  0  0
   -2.4369   12.9557   39.6569 O   0  0  0  0  0  0  0  0  0  0  0  0
   -1.8259    8.3147   38.9019 C   0  0  0  0  0  0  0  0  0  0  0  0
   -2.4627    9.6239   42.9211 C   0  0  0  0  0  0  0  0  0  0  0  0
  1  2  1  1  0  0  0
  1  6  1  0  0  0  0
  1 21  1  0  0  0  0
  3  4  1  6  0  0  0
  3  8  1  0  0  0  0
  3 28  1  0  0  0  0
  5  9  1  0  0  0  0
  5 25  1  0  0  0  0
  5 29  1  1  0  0  0
  6  7  1  1  0  0  0
  6 11  1  0  0  0  0
  8 12  1  0  0  0  0
  9 10  1  1  0  0  0
  9 14  1  0  0  0  0
 11 16  1  0  0  0  0
 12 13  1  6  0  0  0
 12 17  1  0  0  0  0
 14 15  1  1  0  0  0
 14 18  1  0  0  0  0
 15 31  1  0  0  0  0
 16 20  1  0  0  0  0
 17  2  1  1  0  0  0
 17 22  1  0  0  0  0
 18 19  1  6  0  0  0
 18 24  1  0  0  0  0
 18 30  1  0  0  0  0
 20 21  1  0  0  0  0
 20 26  1  1  0  0  0
 22 23  1  6  0  0  0
 22 28  1  0  0  0  0
 24 25  1  0  0  0  0
 26 27  1  0  0  0  0
 28 29  1  1  0  0  0
M  END
>  <CHROM.1>
-168.48575546,-163.58635714,-85.32941007,-147.14128538,130.91644709,99.29709246
-0.68330575,13.67097885,38.50165278,-0.75647321,-0.58041748,3.11671726

>  <Name>
ligand

>  <RI>
0

>  <Rbt.Current_Directory>
/home/itssahil/PROJECTS/Mol_Feturizer/New_Systems/rnas/4GPY

>  <Rbt.Executable>
rbdock ($Id: //depot/dev/client3/rdock/2013.1/src/exe/rbdock.cxx#4 $)

>  <Rbt.Library>
libRbt.so (2013.1, Build901 2013/11/27)

>  <Rbt.Parameter_File>
/export/apps/rDock/src/rDock_2013.1_src/data/scripts/dock_solv.prm

>  <Rbt.Receptor>
prm/pocket_docking_2.prm

>  <SCORE>
-16.6925

>  <SCORE.INTER>
-16.6615

>  <SCORE.INTER.CONST>
1

>  <SCORE.INTER.POLAR>
0

>  <SCORE.INTER.ROT>
6

>  <SCORE.INTER.SOLV>
20.8711

>  <SCORE.INTER.VDW>
-25.6647

>  <SCORE.INTER.norm>
-0.537468

>  <SCORE.INTRA>
-0.0310218

>  <SCORE.INTRA.DIHEDRAL>
-1.10969

>  <SCORE.INTRA.DIHEDRAL.0>
14.7001

>  <SCORE.INTRA.POLAR>
0

>  <SCORE.INTRA.POLAR.0>
0

>  <SCORE.INTRA.REPUL>
0

>  <SCORE.INTRA.REPUL.0>
0

>  <SCORE.INTRA.SOLV>
0.276194

>  <SCORE.INTRA.SOLV.lig_0>
-65.3082

>  <SCORE.INTRA.VDW>
0.385728

>  <SCORE.INTRA.VDW.0>
-4.21408

>  <SCORE.INTRA.norm>
-0.0010007

>  <SCORE.RESTR>
0

>  <SCORE.RESTR.CAVITY>
0

>  <SCORE.RESTR.norm>
0

>  <SCORE.SYSTEM>
0

>  <SCORE.SYSTEM.CONST>
0

>  <SCORE.SYSTEM.DIHEDRAL>
0

>  <SCORE.SYSTEM.SOLV>
0

>  <SCORE.SYSTEM.norm>
0

>  <SCORE.heavy>
31

>  <SCORE.norm>
-0.538469

>  <RMSD>
0.624

$$$$
ligand
 OpenBabel11021811493D
libRbt.so/2013.1/901 2013/11/27
 31 33  0  0  0  0  0  0  0  0999 V2000
    2.0807   14.6201   36.8013 C   0  0  2  0  0  0  0  0  0  0  0  0
    1.5182   15.1312   37.9945 O   0  0  0  0  0  0  0  0  0  0  0  0
   -2.2378   15.3170   39.9737 C   0  0  2  0  0  0  0  0  0  0  0  0
   -3.6424   15.4465   40.1667 N   0  0  0  0  0  0  0  0  0  0  0  0
   -3.6900   12.2411   39.3804 C   0  0  2  0  0  0  0  0  0  0  0  0
    3.6580   14.5498   36.9885 C   0  0  2  0  0  0  0  0  0  0  0  0
    3.9662   13.7114   38.1421 N   0  0  0  0  0  0  0  0  0  0  0  0
   -1.7099   16.6379   39.2551 C   0  0  0  0  0  0  0  0  0  0  0  0
   -3.9336   11.2273   40.5483 C   0  0  2  0  0  0  0  0  0  0  0  0
   -3.9262   11.9345   41.7703 O   0  0  0  0  0  0  0  0  0  0  0  0
    4.2592   15.9932   37.1596 C   0  0  0  0  0  0  0  0  0  0  0  0
   -0.1450   16.5004   39.0555 C   0  0  2  0  0  0  0  0  0  0  0  0
    0.3592   17.7100   38.4040 N   0  0  0  0  0  0  0  0  0  0  0  0
   -2.7904   10.1485   40.5190 C   0  0  1  0  0  0  0  0  0  0  0  0
   -2.9902    9.1722   41.6376 N   0  0  0  0  0  0  0  0  0  0  0  0
    3.5575   17.0412   36.1977 C   0  0  0  0  0  0  0  0  0  0  0  0
    0.1479   15.2348   38.1502 C   0  0  2  0  0  0  0  0  0  0  0  0
   -2.8505    9.3589   39.0974 C   0  0  1  0  0  0  0  0  0  0  0  0
   -4.0781    8.6908   38.8831 O   0  0  0  0  0  0  0  0  0  0  0  0
    2.4092   16.7364   35.5458 C   0  0  1  0  0  0  0  0  0  0  0  0
    1.7518   15.4778   35.6639 O   0  0  0  0  0  0  0  0  0  0  0  0
   -0.4025   13.9296   38.8622 C   0  0  2  0  0  0  0  0  0  0  0  0
   -0.1445   12.7844   38.0242 O   0  0  0  0  0  0  0  0  0  0  0  0
   -2.6476   10.3795   37.9377 C   0  0  0  0  0  0  0  0  0  0  0  0
   -3.6626   11.5037   38.0526 O   0  0  0  0  0  0  0  0  0  0  0  0
    1.7065   17.7078   34.6276 C   0  0  0  0  0  0  0  0  0  0  0  0
    2.6500   18.7635   34.3450 O   0  0  0  0  0  0  0  0  0  0  0  0
   -1.9591   14.0718   39.0666 C   0  0  1  0  0  0  0  0  0  0  0  0
   -2.4225   12.9072   39.7038 O   0  0  0  0  0  0  0  0  0  0  0  0
   -1.7789    8.2747   38.9243 C   0  0  0  0  0  0  0  0  0  0  0  0
   -2.4823    9.5834   42.9629 C   0  0  0  0  0  0  0  0  0  0  0  0
  1  2  1  1  0  0  0
  1  6  1  0  0  0  0
  1 21  1  0  0  0  0
  3  4  1  6  0  0  0
  3  8  1  0  0  0  0
  3 28  1  0  0  0  0
  5  9  1  0  0  0  0
  5 25  1  0  0  0  0
  5 29  1  1  0  0  0
  6  7  1  1  0  0  0
  6 11  1  0  0  0  0
  8 12  1  0  0  0  0
  9 10  1  1  0  0  0
  9 14  1  0  0  0  0
 11 16  1  0  0  0  0
 12 13  1  6  0  0  0
 12 17  1  0  0  0  0
 14 15  1  1  0  0  0
 14 18  1  0  0  0  0
 15 31  1  0  0  0  0
 16 20  1  0  0  0  0
 17  2  1  1  0  0  0
 17 22  1  0  0  0  0
 18 19  1  6  0  0  0
 18 24  1  0  0  0  0
 18 30  1  0  0  0  0
 20 21  1  0  0  0  0
 20 26  1  1  0  0  0
 22 23  1  6  0  0  0
 22 28  1  0  0  0  0
 24 25  1  0  0  0  0
 26 27  1  0  0  0  0
 28 29  1  1  0  0  0
M  END
>  <CHROM.1>
-176.38838296,-166.83273884,-82.75344499,-147.29935761,14.79482799,100.76361343
-0.63835865,13.61719894,38.49998224,-0.77622962,-0.55840490,3.08335191

>  <Name>
ligand

>  <RI>
0

>  <Rbt.Current_Directory>
/home/itssahil/PROJECTS/Mol_Feturizer/New_Systems/rnas/4GPY

>  <Rbt.Executable>
rbdock ($Id: //depot/dev/client3/rdock/2013.1/src/exe/rbdock.cxx#4 $)

>  <Rbt.Library>
libRbt.so (2013.1, Build901 2013/11/27)

>  <Rbt.Parameter_File>
/export/apps/rDock/src/rDock_2013.1_src/data/scripts/dock_solv.prm

>  <Rbt.Receptor>
prm/pocket_docking_3.prm

>  <SCORE>
-15.5142

>  <SCORE.INTER>
-16.3211

>  <SCORE.INTER.CONST>
1

>  <SCORE.INTER.POLAR>
0

>  <SCORE.INTER.ROT>
6

>  <SCORE.INTER.SOLV>
19.9217

>  <SCORE.INTER.VDW>
-25.1213

>  <SCORE.INTER.norm>
-0.526488

>  <SCORE.INTRA>
0.737206

>  <SCORE.INTRA.DIHEDRAL>
-1.85371

>  <SCORE.INTRA.DIHEDRAL.0>
14.7001

>  <SCORE.INTRA.POLAR>
0

>  <SCORE.INTRA.POLAR.0>
0

>  <SCORE.INTRA.REPUL>
0

>  <SCORE.INTRA.REPUL.0>
0

>  <SCORE.INTRA.SOLV>
0.102914

>  <SCORE.INTRA.SOLV.lig_0>
-65.3082

>  <SCORE.INTRA.VDW>
1.61261

>  <SCORE.INTRA.VDW.0>
-4.21408

>  <SCORE.INTRA.norm>
0.0237809

>  <SCORE.RESTR>
0.0696758

>  <SCORE.RESTR.CAVITY>
0.0696758

>  <SCORE.RESTR.norm>
0.00224761

>  <SCORE.SYSTEM>
0

>  <SCORE.SYSTEM.CONST>
0

>  <SCORE.SYSTEM.DIHEDRAL>
0

>  <SCORE.SYSTEM.SOLV>
0

>  <SCORE.SYSTEM.norm>
0

>  <SCORE.heavy>
31

>  <SCORE.norm>
-0.500459

>  <RMSD>
0.667

$$$$
ligand
 OpenBabel11021811493D
libRbt.so/2013.1/901 2013/11/27
 31 33  0  0  0  0  0  0  0  0999 V2000
    2.0430   14.5846   36.8062 C   0  0  2  0  0  0  0  0  0  0  0  0
    1.4906   15.1072   37.9992 O   0  0  0  0  0  0  0  0  0  0  0  0
   -2.2564   15.3752   39.9860 C   0  0  2  0  0  0  0  0  0  0  0  0
   -3.6585   15.5268   40.1810 N   0  0  0  0  0  0  0  0  0  0  0  0
   -3.7371   12.2920   39.4236 C   0  0  2  0  0  0  0  0  0  0  0  0
    3.6193   14.4897   36.9912 C   0  0  2  0  0  0  0  0  0  0  0  0
    3.9160   13.6489   38.1460 N   0  0  0  0  0  0  0  0  0  0  0  0
   -1.7127   16.6773   39.2454 C   0  0  0  0  0  0  0  0  0  0  0  0
   -3.9675   11.2561   40.5748 C   0  0  2  0  0  0  0  0  0  0  0  0
   -3.9626   11.9423   41.8086 O   0  0  0  0  0  0  0  0  0  0  0  0
    4.2436   15.9237   37.1582 C   0  0  0  0  0  0  0  0  0  0  0  0
   -0.1505   16.5154   39.0435 C   0  0  2  0  0  0  0  0  0  0  0  0
    0.3681   17.7076   38.3717 N   0  0  0  0  0  0  0  0  0  0  0  0
   -2.8145   10.1887   40.5234 C   0  0  1  0  0  0  0  0  0  0  0  0
   -3.0016    9.1916   41.6258 N   0  0  0  0  0  0  0  0  0  0  0  0
    3.5572   16.9807   36.1952 C   0  0  0  0  0  0  0  0  0  0  0  0
    0.1224   15.2319   38.1572 C   0  0  2  0  0  0  0  0  0  0  0  0
   -2.8719    9.4230   39.0887 C   0  0  1  0  0  0  0  0  0  0  0  0
   -4.0940    8.7472   38.8668 O   0  0  0  0  0  0  0  0  0  0  0  0
    2.4031   16.6928   35.5457 C   0  0  1  0  0  0  0  0  0  0  0  0
    1.7259   15.4451   35.6675 O   0  0  0  0  0  0  0  0  0  0  0  0
   -0.4436   13.9456   38.8912 C   0  0  2  0  0  0  0  0  0  0  0  0
   -0.2038   12.7841   38.0704 O   0  0  0  0  0  0  0  0  0  0  0  0
   -2.6822   10.4650   37.9460 C   0  0  0  0  0  0  0  0  0  0  0  0
   -3.7072   11.5776   38.0833 O   0  0  0  0  0  0  0  0  0  0  0  0
    1.7145   17.6733   34.6266 C   0  0  0  0  0  0  0  0  0  0  0  0
    2.5720   18.8319   34.5433 O   0  0  0  0  0  0  0  0  0  0  0  0
   -1.9975   14.1123   39.0977 C   0  0  1  0  0  0  0  0  0  0  0  0
   -2.4747   12.9642   39.7544 O   0  0  0  0  0  0  0  0  0  0  0  0
   -1.7909    8.3518   38.8938 C   0  0  0  0  0  0  0  0  0  0  0  0
   -2.5038    9.5896   42.9589 C   0  0  0  0  0  0  0  0  0  0  0  0
  1  2  1  1  0  0  0
  1  6  1  0  0  0  0
  1 21  1  0  0  0  0
  3  4  1  6  0  0  0
  3  8  1  0  0  0  0
  3 28  1  0  0  0  0
  5  9  1  0  0  0  0
  5 25  1  0  0  0  0
  5 29  1  1  0  0  0
  6  7  1  1  0  0  0
  6 11  1  0  0  0  0
  8 12  1  0  0  0  0
  9 10  1  1  0  0  0
  9 14  1  0  0  0  0
 11 16  1  0  0  0  0
 12 13  1  6  0  0  0
 12 17  1  0  0  0  0
 14 15  1  1  0  0  0
 14 18  1  0  0  0  0
 15 31  1  0  0  0  0
 16 20  1  0  0  0  0
 17  2  1  1  0  0  0
 17 22  1  0  0  0  0
 18 19  1  6  0  0  0
 18 24  1  0  0  0  0
 18 30  1  0  0  0  0
 20 21  1  0  0  0  0
 20 26  1  1  0  0  0
 22 23  1  6  0  0  0
 22 28  1  0  0  0  0
 24 25  1  0  0  0  0
 26 27  1  0  0  0  0
 28 29  1  1  0  0  0
M  END
>  <CHROM.1>
-176.33897496,-169.59701045,-82.23301417,-146.53805430,4.16500482,102.28001409
-0.66548999,13.63236087,38.51492095,-0.77404366,-0.55285344,3.07871212

>  <Name>
ligand

>  <RI>
0

>  <Rbt.Current_Directory>
/home/itssahil/PROJECTS/Mol_Feturizer/New_Systems/rnas/4GPY

>  <Rbt.Executable>
rbdock ($Id: //depot/dev/client3/rdock/2013.1/src/exe/rbdock.cxx#4 $)

>  <Rbt.Library>
libRbt.so (2013.1, Build901 2013/11/27)

>  <Rbt.Parameter_File>
/export/apps/rDock/src/rDock_2013.1_src/data/scripts/dock_solv.prm

>  <Rbt.Receptor>
prm/pocket_docking_3.prm

>  <SCORE>
-15.3234

>  <SCORE.INTER>
-16.0987

>  <SCORE.INTER.CONST>
1

>  <SCORE.INTER.POLAR>
0

>  <SCORE.INTER.ROT>
6

>  <SCORE.INTER.SOLV>
19.6009

>  <SCORE.INTER.VDW>
-24.8661

>  <SCORE.INTER.norm>
-0.519312

>  <SCORE.INTRA>
0.720937

>  <SCORE.INTRA.DIHEDRAL>
-2.04357

>  <SCORE.INTRA.DIHEDRAL.0>
14.7001

>  <SCORE.INTRA.POLAR>
0

>  <SCORE.INTRA.POLAR.0>
0

>  <SCORE.INTRA.REPUL>
0

>  <SCORE.INTRA.REPUL.0>
0

>  <SCORE.INTRA.SOLV>
0.0902061

>  <SCORE.INTRA.SOLV.lig_0>
-65.3082

>  <SCORE.INTRA.VDW>
1.69762

>  <SCORE.INTRA.VDW.0>
-4.21408

>  <SCORE.INTRA.norm>
0.023256

>  <SCORE.RESTR>
0.0543502

>  <SCORE.RESTR.CAVITY>
0.0543502

>  <SCORE.RESTR.norm>
0.00175323

>  <SCORE.SYSTEM>
0

>  <SCORE.SYSTEM.CONST>
0

>  <SCORE.SYSTEM.DIHEDRAL>
0

>  <SCORE.SYSTEM.SOLV>
0

>  <SCORE.SYSTEM.norm>
0

>  <SCORE.heavy>
31

>  <SCORE.norm>
-0.494302

>  <RMSD>
0.670

$$$$
ligand
 OpenBabel11021811493D
libRbt.so/2013.1/901 2013/11/27
 31 33  0  0  0  0  0  0  0  0999 V2000
    2.0405   14.6726   36.7272 C   0  0  2  0  0  0  0  0  0  0  0  0
    1.4990   15.0567   37.9764 O   0  0  0  0  0  0  0  0  0  0  0  0
   -2.2239   15.4037   39.9962 C   0  0  2  0  0  0  0  0  0  0  0  0
   -3.6210   15.5833   40.2033 N   0  0  0  0  0  0  0  0  0  0  0  0
   -3.7423   12.3150   39.4195 C   0  0  2  0  0  0  0  0  0  0  0  0
    3.6007   14.4323   36.9174 C   0  0  2  0  0  0  0  0  0  0  0  0
    3.8068   13.4126   37.9402 N   0  0  0  0  0  0  0  0  0  0  0  0
   -1.6616   16.6928   39.2467 C   0  0  0  0  0  0  0  0  0  0  0  0
   -3.9760   11.2639   40.5561 C   0  0  2  0  0  0  0  0  0  0  0  0
   -3.9941   11.9363   41.7974 O   0  0  0  0  0  0  0  0  0  0  0  0
    4.3240   15.7752   37.3014 C   0  0  0  0  0  0  0  0  0  0  0  0
   -0.1047   16.4997   39.0312 C   0  0  2  0  0  0  0  0  0  0  0  0
    0.4310   17.6797   38.3511 N   0  0  0  0  0  0  0  0  0  0  0  0
   -2.8111   10.2094   40.5076 C   0  0  1  0  0  0  0  0  0  0  0  0
   -3.0014    9.1981   41.5965 N   0  0  0  0  0  0  0  0  0  0  0  0
    3.7405   17.0100   36.4947 C   0  0  0  0  0  0  0  0  0  0  0  0
    0.1349   15.2087   38.1464 C   0  0  2  0  0  0  0  0  0  0  0  0
   -2.8421    9.4592   39.0639 C   0  0  1  0  0  0  0  0  0  0  0  0
   -4.0540    8.7731   38.8190 O   0  0  0  0  0  0  0  0  0  0  0  0
    2.5846   16.9081   35.7946 C   0  0  1  0  0  0  0  0  0  0  0  0
    1.8152   15.7110   35.7229 O   0  0  0  0  0  0  0  0  0  0  0  0
   -0.4494   13.9357   38.8893 C   0  0  2  0  0  0  0  0  0  0  0  0
   -0.2399   12.7674   38.0699 O   0  0  0  0  0  0  0  0  0  0  0  0
   -2.6492   10.5159   37.9353 C   0  0  0  0  0  0  0  0  0  0  0  0
   -3.6877   11.6160   38.0719 O   0  0  0  0  0  0  0  0  0  0  0  0
    1.9922   18.0611   35.0201 C   0  0  0  0  0  0  0  0  0  0  0  0
    1.7537   17.5781   33.6805 O   0  0  0  0  0  0  0  0  0  0  0  0
   -1.9978   14.1334   39.1094 C   0  0  1  0  0  0  0  0  0  0  0  0
   -2.4914   12.9968   39.7737 O   0  0  0  0  0  0  0  0  0  0  0  0
   -1.7473    8.4018   38.8710 C   0  0  0  0  0  0  0  0  0  0  0  0
   -2.5074    9.5787   42.9361 C   0  0  0  0  0  0  0  0  0  0  0  0
  1  2  1  1  0  0  0
  1  6  1  0  0  0  0
  1 21  1  0  0  0  0
  3  4  1  6  0  0  0
  3  8  1  0  0  0  0
  3 28  1  0  0  0  0
  5  9  1  0  0  0  0
  5 25  1  0  0  0  0
  5 29  1  1  0  0  0
  6  7  1  1  0  0  0
  6 11  1  0  0  0  0
  8 12  1  0  0  0  0
  9 10  1  1  0  0  0
  9 14  1  0  0  0  0
 11 16  1  0  0  0  0
 12 13  1  6  0  0  0
 12 17  1  0  0  0  0
 14 15  1  1  0  0  0
 14 18  1  0  0  0  0
 15 31  1  0  0  0  0
 16 20  1  0  0  0  0
 17  2  1  1  0  0  0
 17 22  1  0  0  0  0
 18 19  1  6  0  0  0
 18 24  1  0  0  0  0
 18 30  1  0  0  0  0
 20 21  1  0  0  0  0
 20 26  1  1  0  0  0
 22 23  1  6  0  0  0
 22 28  1  0  0  0  0
 24 25  1  0  0  0  0
 26 27  1  0  0  0  0
 28 29  1  1  0  0  0
M  END
>  <CHROM.1>
-173.72195952,-171.62012248,-83.07817139,-138.88206633,127.54002164,104.96482275
-0.66379762,13.61269207,38.50114707,-0.75829830,-0.56441800,3.08745512

>  <Name>
ligand

>  <RI>
0

>  <Rbt.Current_Directory>
/home/itssahil/PROJECTS/Mol_Feturizer/New_Systems/rnas/4GPY

>  <Rbt.Executable>
rbdock ($Id: //depot/dev/client3/rdock/2013.1/src/exe/rbdock.cxx#4 $)

>  <Rbt.Library>
libRbt.so (2013.1, Build901 2013/11/27)

>  <Rbt.Parameter_File>
/export/apps/rDock/src/rDock_2013.1_src/data/scripts/dock_solv.prm

>  <Rbt.Receptor>
prm/pocket_docking_3.prm

>  <SCORE>
-16.2317

>  <SCORE.INTER>
-16.6255

>  <SCORE.INTER.CONST>
1

>  <SCORE.INTER.POLAR>
0

>  <SCORE.INTER.ROT>
6

>  <SCORE.INTER.SOLV>
20.2566

>  <SCORE.INTER.VDW>
-25.4359

>  <SCORE.INTER.norm>
-0.536307

>  <SCORE.INTRA>
0.367595

>  <SCORE.INTRA.DIHEDRAL>
-0.309501

>  <SCORE.INTRA.DIHEDRAL.0>
14.7001

>  <SCORE.INTRA.POLAR>
0

>  <SCORE.INTRA.POLAR.0>
0

>  <SCORE.INTRA.REPUL>
0

>  <SCORE.INTRA.REPUL.0>
0

>  <SCORE.INTRA.SOLV>
0.643283

>  <SCORE.INTRA.SOLV.lig_0>
-65.3082

>  <SCORE.INTRA.VDW>
0.200704

>  <SCORE.INTRA.VDW.0>
-4.21408

>  <SCORE.INTRA.norm>
0.0118579

>  <SCORE.RESTR>
0.0261879

>  <SCORE.RESTR.CAVITY>
0.0261879

>  <SCORE.RESTR.norm>
0.000844769

>  <SCORE.SYSTEM>
0

>  <SCORE.SYSTEM.CONST>
0

>  <SCORE.SYSTEM.DIHEDRAL>
0

>  <SCORE.SYSTEM.SOLV>
0

>  <SCORE.SYSTEM.norm>
0

>  <SCORE.heavy>
31

>  <SCORE.norm>
-0.523604

>  <RMSD>
0.685

$$$$
ligand
 OpenBabel11021811493D
libRbt.so/2013.1/901 2013/11/27
 31 33  0  0  0  0  0  0  0  0999 V2000
    2.0625   14.6592   36.7376 C   0  0  2  0  0  0  0  0  0  0  0  0
    1.5086   15.0290   37.9857 O   0  0  0  0  0  0  0  0  0  0  0  0
   -2.2308   15.3906   39.9722 C   0  0  2  0  0  0  0  0  0  0  0  0
   -3.6295   15.5710   40.1665 N   0  0  0  0  0  0  0  0  0  0  0  0
   -3.7442   12.2980   39.4116 C   0  0  2  0  0  0  0  0  0  0  0  0
    3.6265   14.4500   36.9330 C   0  0  2  0  0  0  0  0  0  0  0  0
    3.8493   13.4320   37.9541 N   0  0  0  0  0  0  0  0  0  0  0  0
   -1.6632   16.6737   39.2164 C   0  0  0  0  0  0  0  0  0  0  0  0
   -3.9857   11.2561   40.5550 C   0  0  2  0  0  0  0  0  0  0  0  0
   -4.0107   11.9383   41.7908 O   0  0  0  0  0  0  0  0  0  0  0  0
    4.3211   15.8062   37.3232 C   0  0  0  0  0  0  0  0  0  0  0  0
   -0.1045   16.4798   39.0151 C   0  0  2  0  0  0  0  0  0  0  0  0
    0.4360   17.6544   38.3295 N   0  0  0  0  0  0  0  0  0  0  0  0
   -2.8213   10.2004   40.5219 C   0  0  1  0  0  0  0  0  0  0  0  0
   -3.0190    9.1978   41.6175 N   0  0  0  0  0  0  0  0  0  0  0  0
    3.7157   17.0311   36.5174 C   0  0  0  0  0  0  0  0  0  0  0  0
    0.1431   15.1815   38.1433 C   0  0  2  0  0  0  0  0  0  0  0  0
   -2.8442    9.4389   39.0839 C   0  0  1  0  0  0  0  0  0  0  0  0
   -4.0551    8.7518   38.8371 O   0  0  0  0  0  0  0  0  0  0  0  0
    2.5648   16.9076   35.8127 C   0  0  1  0  0  0  0  0  0  0  0  0
    1.8200   15.6955   35.7351 O   0  0  0  0  0  0  0  0  0  0  0  0
   -0.4464   13.9145   38.8922 C   0  0  2  0  0  0  0  0  0  0  0  0
   -0.2295   12.7394   38.0845 O   0  0  0  0  0  0  0  0  0  0  0  0
   -2.6436   10.4865   37.9483 C   0  0  0  0  0  0  0  0  0  0  0  0
   -3.6820   11.5884   38.0698 O   0  0  0  0  0  0  0  0  0  0  0  0
    1.9521   18.0505   35.0388 C   0  0  0  0  0  0  0  0  0  0  0  0
    1.7498   17.5736   33.6911 O   0  0  0  0  0  0  0  0  0  0  0  0
   -1.9967   14.1130   39.0980 C   0  0  1  0  0  0  0  0  0  0  0  0
   -2.4949   12.9817   39.7680 O   0  0  0  0  0  0  0  0  0  0  0  0
   -1.7491    8.3792   38.9060 C   0  0  0  0  0  0  0  0  0  0  0  0
   -2.4997    9.5733   42.9489 C   0  0  0  0  0  0  0  0  0  0  0  0
  1  2  1  1  0  0  0
  1  6  1  0  0  0  0
  1 21  1  0  0  0  0
  3  4  1  6  0  0  0
  3  8  1  0  0  0  0
  3 28  1  0  0  0  0
  5  9  1  0  0  0  0
  5 25  1  0  0  0  0
  5 29  1  1  0  0  0
  6  7  1  1  0  0  0
  6 11  1  0  0  0  0
  8 12  1  0  0  0  0
  9 10  1  1  0  0  0
  9 14  1  0  0  0  0
 11 16  1  0  0  0  0
 12 13  1  6  0  0  0
 12 17  1  0  0  0  0
 14 15  1  1  0  0  0
 14 18  1  0  0  0  0
 15 31  1  0  0  0  0
 16 20  1  0  0  0  0
 17  2  1  1  0  0  0
 17 22  1  0  0  0  0
 18 19  1  6  0  0  0
 18 24  1  0  0  0  0
 18 30  1  0  0  0  0
 20 21  1  0  0  0  0
 20 26  1  1  0  0  0
 22 23  1  6  0  0  0
 22 28  1  0  0  0  0
 24 25  1  0  0  0  0
 26 27  1  0  0  0  0
 28 29  1  1  0  0  0
M  END
>  <CHROM.1>
-175.15140252,-171.59403462,-84.69133383,-137.68071872,126.56935606,104.80299255
-0.66446129,13.60144302,38.50580450,-0.76646586,-0.55249063,3.07434407

>  <Name>
ligand

>  <RI>
0

>  <Rbt.Current_Directory>
/home/itssahil/PROJECTS/Mol_Feturizer/New_Systems/rnas/4GPY

>  <Rbt.Executable>
rbdock ($Id: //depot/dev/client3/rdock/2013.1/src/exe/rbdock.cxx#4 $)

>  <Rbt.Library>
libRbt.so (2013.1, Build901 2013/11/27)

>  <Rbt.Parameter_File>
/export/apps/rDock/src/rDock_2013.1_src/data/scripts/dock_solv.prm

>  <Rbt.Receptor>
prm/pocket_docking_3.prm

>  <SCORE>
-16.2118

>  <SCORE.INTER>
-16.5721

>  <SCORE.INTER.CONST>
1

>  <SCORE.INTER.POLAR>
0

>  <SCORE.INTER.ROT>
6

>  <SCORE.INTER.SOLV>
20.2449

>  <SCORE.INTER.VDW>
-25.3964

>  <SCORE.INTER.norm>
-0.534583

>  <SCORE.INTRA>
0.358502

>  <SCORE.INTRA.DIHEDRAL>
-0.190979

>  <SCORE.INTRA.DIHEDRAL.0>
14.7001

>  <SCORE.INTRA.POLAR>
0

>  <SCORE.INTRA.POLAR.0>
0

>  <SCORE.INTRA.REPUL>
0

>  <SCORE.INTRA.REPUL.0>
0

>  <SCORE.INTRA.SOLV>
0.72299

>  <SCORE.INTRA.SOLV.lig_0>
-65.3082

>  <SCORE.INTRA.VDW>
0.0924957

>  <SCORE.INTRA.VDW.0>
-4.21408

>  <SCORE.INTRA.norm>
0.0115646

>  <SCORE.RESTR>
0.00172713

>  <SCORE.RESTR.CAVITY>
0.00172713

>  <SCORE.RESTR.norm>
5.57139e-05

>  <SCORE.SYSTEM>
0

>  <SCORE.SYSTEM.CONST>
0

>  <SCORE.SYSTEM.DIHEDRAL>
0

>  <SCORE.SYSTEM.SOLV>
0

>  <SCORE.SYSTEM.norm>
0

>  <SCORE.heavy>
31

>  <SCORE.norm>
-0.522963

>  <RMSD>
0.687

$$$$
ligand
 OpenBabel11021811493D
libRbt.so/2013.1/901 2013/11/27
 31 33  0  0  0  0  0  0  0  0999 V2000
    2.3020   15.4480   36.6773 C   0  0  2  0  0  0  0  0  0  0  0  0
    1.6111   16.0438   37.7585 O   0  0  0  0  0  0  0  0  0  0  0  0
   -1.9919   15.0619   39.7869 C   0  0  2  0  0  0  0  0  0  0  0  0
   -3.3807   14.8526   40.0198 N   0  0  0  0  0  0  0  0  0  0  0  0
   -2.9959   12.0933   39.1522 C   0  0  2  0  0  0  0  0  0  0  0  0
    3.8621   15.5787   36.9550 C   0  0  2  0  0  0  0  0  0  0  0  0
    4.1774   14.9366   38.2266 N   0  0  0  0  0  0  0  0  0  0  0  0
   -1.7862   16.5735   39.3262 C   0  0  0  0  0  0  0  0  0  0  0  0
   -2.9941   11.3596   40.5353 C   0  0  2  0  0  0  0  0  0  0  0  0
   -2.7393   12.3076   41.5500 O   0  0  0  0  0  0  0  0  0  0  0  0
    4.2980   17.0900   36.9593 C   0  0  0  0  0  0  0  0  0  0  0  0
   -0.2394   16.8103   39.0832 C   0  0  2  0  0  0  0  0  0  0  0  0
   -0.0305   18.1979   38.6674 N   0  0  0  0  0  0  0  0  0  0  0  0
   -1.8785   10.2522   40.5110 C   0  0  1  0  0  0  0  0  0  0  0  0
   -1.8439    9.5430   41.8302 N   0  0  0  0  0  0  0  0  0  0  0  0
    3.5578   17.9197   35.8281 C   0  0  0  0  0  0  0  0  0  0  0  0
    0.2591   15.8238   37.9495 C   0  0  2  0  0  0  0  0  0  0  0  0
   -2.2253    9.1838   39.3336 C   0  0  1  0  0  0  0  0  0  0  0  0
   -3.4693    8.5373   39.5173 O   0  0  0  0  0  0  0  0  0  0  0  0
    2.4933   17.4069   35.1643 C   0  0  1  0  0  0  0  0  0  0  0  0
    1.9631   16.1090   35.4180 O   0  0  0  0  0  0  0  0  0  0  0  0
    0.0279   14.3235   38.4070 C   0  0  2  0  0  0  0  0  0  0  0  0
    0.4712   13.4328   37.3627 O   0  0  0  0  0  0  0  0  0  0  0  0
   -2.2652    9.9274   37.9651 C   0  0  0  0  0  0  0  0  0  0  0  0
   -3.2380   11.0919   38.0358 O   0  0  0  0  0  0  0  0  0  0  0  0
    1.7571   18.1666   34.0868 C   0  0  0  0  0  0  0  0  0  0  0  0
    0.6130   18.7772   34.7218 O   0  0  0  0  0  0  0  0  0  0  0  0
   -1.5115   14.0922   38.6555 C   0  0  1  0  0  0  0  0  0  0  0  0
   -1.6905   12.7592   39.0652 O   0  0  0  0  0  0  0  0  0  0  0  0
   -1.2090    8.0437   39.1875 C   0  0  0  0  0  0  0  0  0  0  0  0
   -3.1528    9.2580   42.4539 C   0  0  0  0  0  0  0  0  0  0  0  0
  1  2  1  1  0  0  0
  1  6  1  0  0  0  0
  1 21  1  0  0  0  0
  3  4  1  6  0  0  0
  3  8  1  0  0  0  0
  3 28  1  0  0  0  0
  5  9  1  0  0  0  0
  5 25  1  0  0  0  0
  5 29  1  6  0  0  0
  6  7  1  1  0  0  0
  6 11  1  0  0  0  0
  8 12  1  0  0  0  0
  9 10  1  1  0  0  0
  9 14  1  0  0  0  0
 11 16  1  0  0  0  0
 12 13  1  6  0  0  0
 12 17  1  0  0  0  0
 14 15  1  1  0  0  0
 14 18  1  0  0  0  0
 15 31  1  0  0  0  0
 16 20  1  0  0  0  0
 17  2  1  1  0  0  0
 17 22  1  0  0  0  0
 18 19  1  1  0  0  0
 18 24  1  0  0  0  0
 18 30  1  0  0  0  0
 20 21  1  0  0  0  0
 20 26  1  1  0  0  0
 22 23  1  6  0  0  0
 22 28  1  0  0  0  0
 24 25  1  0  0  0  0
 26 27  1  0  0  0  0
 28 29  1  1  0  0  0
M  END
>  <CHROM.1>
-165.35152626,-133.87815288,39.88244096,-170.84300492,-96.58124516,73.30566577
-0.38176776,13.87883556,38.38189106,-0.91203239,-0.57062096,3.02947715

>  <Name>
ligand

>  <RI>
0

>  <Rbt.Current_Directory>
/home/itssahil/PROJECTS/Mol_Feturizer/New_Systems/rnas/4GPY

>  <Rbt.Executable>
rbdock ($Id: //depot/dev/client3/rdock/2013.1/src/exe/rbdock.cxx#4 $)

>  <Rbt.Library>
libRbt.so (2013.1, Build901 2013/11/27)

>  <Rbt.Parameter_File>
/export/apps/rDock/src/rDock_2013.1_src/data/scripts/dock_solv.prm

>  <Rbt.Receptor>
prm/pocket_docking_2.prm

>  <SCORE>
-12.7764

>  <SCORE.INTER>
-14.7015

>  <SCORE.INTER.CONST>
1

>  <SCORE.INTER.POLAR>
0

>  <SCORE.INTER.ROT>
6

>  <SCORE.INTER.SOLV>
19.6899

>  <SCORE.INTER.VDW>
-23.9643

>  <SCORE.INTER.norm>
-0.474243

>  <SCORE.INTRA>
1.53238

>  <SCORE.INTRA.DIHEDRAL>
-3.52897

>  <SCORE.INTRA.DIHEDRAL.0>
14.7001

>  <SCORE.INTRA.POLAR>
0

>  <SCORE.INTRA.POLAR.0>
0

>  <SCORE.INTRA.REPUL>
0

>  <SCORE.INTRA.REPUL.0>
0

>  <SCORE.INTRA.SOLV>
0.0829239

>  <SCORE.INTRA.SOLV.lig_0>
-65.3082

>  <SCORE.INTRA.VDW>
3.2554

>  <SCORE.INTRA.VDW.0>
-4.21408

>  <SCORE.INTRA.norm>
0.0494315

>  <SCORE.RESTR>
0.392789

>  <SCORE.RESTR.CAVITY>
0.392789

>  <SCORE.RESTR.norm>
0.0126706

>  <SCORE.SYSTEM>
0

>  <SCORE.SYSTEM.CONST>
0

>  <SCORE.SYSTEM.DIHEDRAL>
0

>  <SCORE.SYSTEM.SOLV>
0

>  <SCORE.SYSTEM.norm>
0

>  <SCORE.heavy>
31

>  <SCORE.norm>
-0.412141

>  <RMSD>
0.716

$$$$
ligand
 OpenBabel11021811493D
libRbt.so/2013.1/901 2013/11/27
 31 33  0  0  0  0  0  0  0  0999 V2000
    2.0404   14.6279   36.7526 C   0  0  2  0  0  0  0  0  0  0  0  0
    1.4990   15.0044   38.0042 O   0  0  0  0  0  0  0  0  0  0  0  0
   -2.2216   15.4025   40.0186 C   0  0  2  0  0  0  0  0  0  0  0  0
   -3.6174   15.5945   40.2233 N   0  0  0  0  0  0  0  0  0  0  0  0
   -3.7670   12.3243   39.4864 C   0  0  2  0  0  0  0  0  0  0  0  0
    3.6030   14.4002   36.9379 C   0  0  2  0  0  0  0  0  0  0  0  0
    3.8204   13.3797   37.9577 N   0  0  0  0  0  0  0  0  0  0  0  0
   -1.6501   16.6783   39.2536 C   0  0  0  0  0  0  0  0  0  0  0  0
   -3.9849   11.2597   40.6135 C   0  0  2  0  0  0  0  0  0  0  0  0
   -3.9760   11.9158   41.8636 O   0  0  0  0  0  0  0  0  0  0  0  0
    4.3162   15.7481   37.3232 C   0  0  0  0  0  0  0  0  0  0  0  0
   -0.0946   16.4716   39.0408 C   0  0  2  0  0  0  0  0  0  0  0  0
    0.4496   17.6393   38.3464 N   0  0  0  0  0  0  0  0  0  0  0  0
   -2.8267   10.1999   40.5294 C   0  0  1  0  0  0  0  0  0  0  0  0
   -3.0019    9.1755   41.6084 N   0  0  0  0  0  0  0  0  0  0  0  0
    3.7201   16.9799   36.5211 C   0  0  0  0  0  0  0  0  0  0  0  0
    0.1360   15.1681   38.1720 C   0  0  2  0  0  0  0  0  0  0  0  0
   -2.8890    9.4688   39.0769 C   0  0  1  0  0  0  0  0  0  0  0  0
   -4.1089    8.7922   38.8461 O   0  0  0  0  0  0  0  0  0  0  0  0
    2.5632   16.8701   35.8239 C   0  0  1  0  0  0  0  0  0  0  0  0
    1.8036   15.6668   35.7514 O   0  0  0  0  0  0  0  0  0  0  0  0
   -0.4574   13.9086   38.9303 C   0  0  2  0  0  0  0  0  0  0  0  0
   -0.2559   12.7288   38.1253 O   0  0  0  0  0  0  0  0  0  0  0  0
   -2.7118   10.5392   37.9586 C   0  0  0  0  0  0  0  0  0  0  0  0
   -3.7416   11.6427   38.1291 O   0  0  0  0  0  0  0  0  0  0  0  0
    1.9591   18.0200   35.0538 C   0  0  0  0  0  0  0  0  0  0  0  0
    1.7636   17.5526   33.7018 O   0  0  0  0  0  0  0  0  0  0  0  0
   -2.0044   14.1199   39.1475 C   0  0  1  0  0  0  0  0  0  0  0  0
   -2.5061   12.9950   39.8257 O   0  0  0  0  0  0  0  0  0  0  0  0
   -1.8037    8.4085   38.8496 C   0  0  0  0  0  0  0  0  0  0  0  0
   -2.4611    9.5270   42.9378 C   0  0  0  0  0  0  0  0  0  0  0  0
  1  2  1  1  0  0  0
  1  6  1  0  0  0  0
  1 21  1  0  0  0  0
  3  4  1  6  0  0  0
  3  8  1  0  0  0  0
  3 28  1  0  0  0  0
  5  9  1  0  0  0  0
  5 25  1  0  0  0  0
  5 29  1  1  0  0  0
  6  7  1  1  0  0  0
  6 11  1  0  0  0  0
  8 12  1  0  0  0  0
  9 10  1  1  0  0  0
  9 14  1  0  0  0  0
 11 16  1  0  0  0  0
 12 13  1  6  0  0  0
 12 17  1  0  0  0  0
 14 15  1  1  0  0  0
 14 18  1  0  0  0  0
 15 31  1  0  0  0  0
 16 20  1  0  0  0  0
 17  2  1  1  0  0  0
 17 22  1  0  0  0  0
 18 19  1  6  0  0  0
 18 24  1  0  0  0  0
 18 30  1  0  0  0  0
 20 21  1  0  0  0  0
 20 26  1  1  0  0  0
 22 23  1  6  0  0  0
 22 28  1  0  0  0  0
 24 25  1  0  0  0  0
 26 27  1  0  0  0  0
 28 29  1  1  0  0  0
M  END
>  <CHROM.1>
-174.90202373,-173.10191874,-84.03778936,-137.57014154,125.61299680,104.45230416
-0.67442132,13.59405718,38.52865148,-0.75729977,-0.55960889,3.08228775

>  <Name>
ligand

>  <RI>
0

>  <Rbt.Current_Directory>
/home/itssahil/PROJECTS/Mol_Feturizer/New_Systems/rnas/4GPY

>  <Rbt.Executable>
rbdock ($Id: //depot/dev/client3/rdock/2013.1/src/exe/rbdock.cxx#4 $)

>  <Rbt.Library>
libRbt.so (2013.1, Build901 2013/11/27)

>  <Rbt.Parameter_File>
/export/apps/rDock/src/rDock_2013.1_src/data/scripts/dock_solv.prm

>  <Rbt.Receptor>
prm/pocket_docking_3.prm

>  <SCORE>
-16.1168

>  <SCORE.INTER>
-16.3991

>  <SCORE.INTER.CONST>
1

>  <SCORE.INTER.POLAR>
0

>  <SCORE.INTER.ROT>
6

>  <SCORE.INTER.SOLV>
20.1253

>  <SCORE.INTER.VDW>
-25.2412

>  <SCORE.INTER.norm>
-0.529005

>  <SCORE.INTRA>
0.28232

>  <SCORE.INTRA.DIHEDRAL>
-0.355392

>  <SCORE.INTRA.DIHEDRAL.0>
14.7001

>  <SCORE.INTRA.POLAR>
0

>  <SCORE.INTRA.POLAR.0>
0

>  <SCORE.INTRA.REPUL>
0

>  <SCORE.INTRA.REPUL.0>
0

>  <SCORE.INTRA.SOLV>
0.699903

>  <SCORE.INTRA.SOLV.lig_0>
-65.3082

>  <SCORE.INTRA.VDW>
0.110064

>  <SCORE.INTRA.VDW.0>
-4.21408

>  <SCORE.INTRA.norm>
0.00910708

>  <SCORE.RESTR>
0

>  <SCORE.RESTR.CAVITY>
0

>  <SCORE.RESTR.norm>
0

>  <SCORE.SYSTEM>
0

>  <SCORE.SYSTEM.CONST>
0

>  <SCORE.SYSTEM.DIHEDRAL>
0

>  <SCORE.SYSTEM.SOLV>
0

>  <SCORE.SYSTEM.norm>
0

>  <SCORE.heavy>
31

>  <SCORE.norm>
-0.519898

>  <RMSD>
0.716

$$$$
ligand
 OpenBabel11021811493D
libRbt.so/2013.1/901 2013/11/27
 31 33  0  0  0  0  0  0  0  0999 V2000
    2.2355   14.6709   36.8187 C   0  0  2  0  0  0  0  0  0  0  0  0
    1.6378   15.0769   38.0349 O   0  0  0  0  0  0  0  0  0  0  0  0
   -2.1684   15.3973   39.8977 C   0  0  2  0  0  0  0  0  0  0  0  0
   -3.5757   15.5540   40.0454 N   0  0  0  0  0  0  0  0  0  0  0  0
   -3.6645   12.3387   39.4138 C   0  0  2  0  0  0  0  0  0  0  0  0
    3.7976   14.5069   37.0659 C   0  0  2  0  0  0  0  0  0  0  0  0
    4.0140   13.5360   38.1332 N   0  0  0  0  0  0  0  0  0  0  0  0
   -1.6012   16.6793   39.1399 C   0  0  0  0  0  0  0  0  0  0  0  0
   -3.9053   11.3162   40.5747 C   0  0  2  0  0  0  0  0  0  0  0  0
   -3.8667   12.0097   41.8038 O   0  0  0  0  0  0  0  0  0  0  0  0
    4.4498   15.8938   37.4199 C   0  0  0  0  0  0  0  0  0  0  0  0
   -0.0336   16.5122   38.9905 C   0  0  2  0  0  0  0  0  0  0  0  0
    0.5063   17.6863   38.3036 N   0  0  0  0  0  0  0  0  0  0  0  0
   -2.7802   10.2197   40.5150 C   0  0  1  0  0  0  0  0  0  0  0  0
   -2.9775    9.2345   41.6263 N   0  0  0  0  0  0  0  0  0  0  0  0
    3.8402   17.0707   36.5486 C   0  0  0  0  0  0  0  0  0  0  0  0
    0.2654   15.2057   38.1474 C   0  0  2  0  0  0  0  0  0  0  0  0
   -2.8761    9.4468   39.0862 C   0  0  1  0  0  0  0  0  0  0  0  0
   -4.1176    8.8007   38.8850 O   0  0  0  0  0  0  0  0  0  0  0  0
    2.7131   16.8919   35.8177 C   0  0  1  0  0  0  0  0  0  0  0  0
    1.9985   15.6602   35.7686 O   0  0  0  0  0  0  0  0  0  0  0  0
   -0.3238   13.9393   38.8974 C   0  0  2  0  0  0  0  0  0  0  0  0
   -0.0598   12.7564   38.1155 O   0  0  0  0  0  0  0  0  0  0  0  0
   -2.6756   10.4767   37.9343 C   0  0  0  0  0  0  0  0  0  0  0  0
   -3.6704   11.6155   38.0779 O   0  0  0  0  0  0  0  0  0  0  0  0
    2.0972   17.9881   34.9814 C   0  0  0  0  0  0  0  0  0  0  0  0
    1.6820   17.3760   33.7413 O   0  0  0  0  0  0  0  0  0  0  0  0
   -1.8832   14.1113   39.0516 C   0  0  1  0  0  0  0  0  0  0  0  0
   -2.3813   12.9810   39.7234 O   0  0  0  0  0  0  0  0  0  0  0  0
   -1.8250    8.3476   38.8840 C   0  0  0  0  0  0  0  0  0  0  0  0
   -2.4302    9.6173   42.9444 C   0  0  0  0  0  0  0  0  0  0  0  0
  1  2  1  1  0  0  0
  1  6  1  0  0  0  0
  1 21  1  0  0  0  0
  3  4  1  6  0  0  0
  3  8  1  0  0  0  0
  3 28  1  0  0  0  0
  5  9  1  0  0  0  0
  5 25  1  0  0  0  0
  5 29  1  1  0  0  0
  6  7  1  1  0  0  0
  6 11  1  0  0  0  0
  8 12  1  0  0  0  0
  9 10  1  1  0  0  0
  9 14  1  0  0  0  0
 11 16  1  0  0  0  0
 12 13  1  6  0  0  0
 12 17  1  0  0  0  0
 14 15  1  1  0  0  0
 14 18  1  0  0  0  0
 15 31  1  0  0  0  0
 16 20  1  0  0  0  0
 17  2  1  1  0  0  0
 17 22  1  0  0  0  0
 18 19  1  6  0  0  0
 18 24  1  0  0  0  0
 18 30  1  0  0  0  0
 20 21  1  0  0  0  0
 20 26  1  1  0  0  0
 22 23  1  6  0  0  0
 22 28  1  0  0  0  0
 24 25  1  0  0  0  0
 26 27  1  0  0  0  0
 28 29  1  1  0  0  0
M  END
>  <CHROM.1>
-175.28921721,-169.70630635,-83.32180726,-139.05784718,138.54814007,99.22383273
-0.58378268,13.61588113,38.51538713,-0.77070482,-0.51725047,3.05291257

>  <Name>
ligand

>  <RI>
0

>  <Rbt.Current_Directory>
/home/itssahil/PROJECTS/Mol_Feturizer/New_Systems/rnas/4GPY

>  <Rbt.Executable>
rbdock ($Id: //depot/dev/client3/rdock/2013.1/src/exe/rbdock.cxx#4 $)

>  <Rbt.Library>
libRbt.so (2013.1, Build901 2013/11/27)

>  <Rbt.Parameter_File>
/export/apps/rDock/src/rDock_2013.1_src/data/scripts/dock_solv.prm

>  <Rbt.Receptor>
prm/pocket_docking_3.prm

>  <SCORE>
-15.9998

>  <SCORE.INTER>
-16.3156

>  <SCORE.INTER.CONST>
1

>  <SCORE.INTER.POLAR>
0

>  <SCORE.INTER.ROT>
6

>  <SCORE.INTER.SOLV>
20.2479

>  <SCORE.INTER.VDW>
-25.2264

>  <SCORE.INTER.norm>
-0.52631

>  <SCORE.INTRA>
0.300339

>  <SCORE.INTRA.DIHEDRAL>
-0.76692

>  <SCORE.INTRA.DIHEDRAL.0>
14.7001

>  <SCORE.INTRA.POLAR>
0

>  <SCORE.INTRA.POLAR.0>
0

>  <SCORE.INTRA.REPUL>
0

>  <SCORE.INTRA.REPUL.0>
0

>  <SCORE.INTRA.SOLV>
0.69002

>  <SCORE.INTRA.SOLV.lig_0>
-65.3082

>  <SCORE.INTRA.VDW>
0.338789

>  <SCORE.INTRA.VDW.0>
-4.21408

>  <SCORE.INTRA.norm>
0.00968836

>  <SCORE.RESTR>
0.0155211

>  <SCORE.RESTR.CAVITY>
0.0155211

>  <SCORE.RESTR.norm>
0.000500682

>  <SCORE.SYSTEM>
0

>  <SCORE.SYSTEM.CONST>
0

>  <SCORE.SYSTEM.DIHEDRAL>
0

>  <SCORE.SYSTEM.SOLV>
0

>  <SCORE.SYSTEM.norm>
0

>  <SCORE.heavy>
31

>  <SCORE.norm>
-0.516121

>  <RMSD>
0.719

$$$$
ligand
 OpenBabel11021811493D
libRbt.so/2013.1/901 2013/11/27
 31 33  0  0  0  0  0  0  0  0999 V2000
    2.3690   15.2299   37.0197 C   0  0  2  0  0  0  0  0  0  0  0  0
    1.6982   15.8635   38.0921 O   0  0  0  0  0  0  0  0  0  0  0  0
   -2.1157   15.6810   39.9577 C   0  0  2  0  0  0  0  0  0  0  0  0
   -3.5312   15.6474   40.1061 N   0  0  0  0  0  0  0  0  0  0  0  0
   -3.3342   12.6439   39.7685 C   0  0  2  0  0  0  0  0  0  0  0  0
    3.9337   15.3462   37.2773 C   0  0  2  0  0  0  0  0  0  0  0  0
    4.2541   14.7335   38.5620 N   0  0  0  0  0  0  0  0  0  0  0  0
   -1.7269   17.0223   39.1900 C   0  0  0  0  0  0  0  0  0  0  0  0
   -3.3003   11.5231   40.8612 C   0  0  2  0  0  0  0  0  0  0  0  0
   -2.9415   12.1058   42.0961 O   0  0  0  0  0  0  0  0  0  0  0  0
    4.3902   16.8509   37.2369 C   0  0  0  0  0  0  0  0  0  0  0  0
   -0.1512   17.0671   39.0396 C   0  0  2  0  0  0  0  0  0  0  0  0
    0.2252   18.2982   38.3437 N   0  0  0  0  0  0  0  0  0  0  0  0
   -2.2497   10.4365   40.4288 C   0  0  1  0  0  0  0  0  0  0  0  0
   -2.1852    9.3573   41.4659 N   0  0  0  0  0  0  0  0  0  0  0  0
    3.6489   17.6607   36.0921 C   0  0  0  0  0  0  0  0  0  0  0  0
    0.3210   15.8068   38.2055 C   0  0  2  0  0  0  0  0  0  0  0  0
   -2.7154    9.7922   39.0089 C   0  0  1  0  0  0  0  0  0  0  0  0
   -3.9816    9.1660   39.0703 O   0  0  0  0  0  0  0  0  0  0  0  0
    2.5704   17.1455   35.4534 C   0  0  1  0  0  0  0  0  0  0  0  0
    2.0253   15.8622   35.7470 O   0  0  0  0  0  0  0  0  0  0  0  0
   -0.0917   14.4779   38.9653 C   0  0  2  0  0  0  0  0  0  0  0  0
    0.3293   13.3358   38.1915 O   0  0  0  0  0  0  0  0  0  0  0  0
   -2.7860   10.9195   37.9356 C   0  0  0  0  0  0  0  0  0  0  0  0
   -3.6886   12.0410   38.4200 O   0  0  0  0  0  0  0  0  0  0  0  0
    1.8327   17.8867   34.3640 C   0  0  0  0  0  0  0  0  0  0  0  0
    0.6557   18.4555   34.9772 O   0  0  0  0  0  0  0  0  0  0  0  0
   -1.6599   14.4391   39.1203 C   0  0  1  0  0  0  0  0  0  0  0  0
   -2.0007   13.2568   39.8009 O   0  0  0  0  0  0  0  0  0  0  0  0
   -1.7720    8.7154   38.4573 C   0  0  0  0  0  0  0  0  0  0  0  0
   -1.2528    9.5850   42.5894 C   0  0  0  0  0  0  0  0  0  0  0  0
  1  2  1  1  0  0  0
  1  6  1  0  0  0  0
  1 21  1  0  0  0  0
  3  4  1  6  0  0  0
  3  8  1  0  0  0  0
  3 28  1  0  0  0  0
  5  9  1  0  0  0  0
  5 25  1  0  0  0  0
  5 29  1  6  0  0  0
  6  7  1  1  0  0  0
  6 11  1  0  0  0  0
  8 12  1  0  0  0  0
  9 10  1  1  0  0  0
  9 14  1  0  0  0  0
 11 16  1  0  0  0  0
 12 13  1  6  0  0  0
 12 17  1  0  0  0  0
 14 15  1  1  0  0  0
 14 18  1  0  0  0  0
 15 31  1  0  0  0  0
 16 20  1  0  0  0  0
 17  2  1  1  0  0  0
 17 22  1  0  0  0  0
 18 19  1  1  0  0  0
 18 24  1  0  0  0  0
 18 30  1  0  0  0  0
 20 21  1  0  0  0  0
 20 26  1  1  0  0  0
 22 23  1  6  0  0  0
 22 28  1  0  0  0  0
 24 25  1  0  0  0  0
 26 27  1  0  0  0  0
 28 29  1  1  0  0  0
M  END
>  <CHROM.1>
-173.67062512,-169.97194218,-87.09613820,-154.96809780,-100.31842417,81.83787414
-0.44372188,14.05017373,38.56840358,-0.89545047,-0.42861622,2.94561017

>  <Name>
ligand

>  <RI>
0

>  <Rbt.Current_Directory>
/home/itssahil/PROJECTS/Mol_Feturizer/New_Systems/rnas/4GPY

>  <Rbt.Executable>
rbdock ($Id: //depot/dev/client3/rdock/2013.1/src/exe/rbdock.cxx#4 $)

>  <Rbt.Library>
libRbt.so (2013.1, Build901 2013/11/27)

>  <Rbt.Parameter_File>
/export/apps/rDock/src/rDock_2013.1_src/data/scripts/dock_solv.prm

>  <Rbt.Receptor>
prm/pocket_docking_5.prm

>  <SCORE>
-16.7632

>  <SCORE.INTER>
-14.0333

>  <SCORE.INTER.CONST>
1

>  <SCORE.INTER.POLAR>
0

>  <SCORE.INTER.ROT>
6

>  <SCORE.INTER.SOLV>
19.2852

>  <SCORE.INTER.VDW>
-23.3839

>  <SCORE.INTER.norm>
-0.452688

>  <SCORE.INTRA>
-2.72991

>  <SCORE.INTRA.DIHEDRAL>
-6.57654

>  <SCORE.INTRA.DIHEDRAL.0>
14.7001

>  <SCORE.INTRA.POLAR>
0

>  <SCORE.INTRA.POLAR.0>
0

>  <SCORE.INTRA.REPUL>
0.001229

>  <SCORE.INTRA.REPUL.0>
0

>  <SCORE.INTRA.SOLV>
0.333384

>  <SCORE.INTRA.SOLV.lig_0>
-65.3082

>  <SCORE.INTRA.VDW>
0.385529

>  <SCORE.INTRA.VDW.0>
-4.21408

>  <SCORE.INTRA.norm>
-0.0880615

>  <SCORE.RESTR>
0

>  <SCORE.RESTR.CAVITY>
0

>  <SCORE.RESTR.norm>
0

>  <SCORE.SYSTEM>
0

>  <SCORE.SYSTEM.CONST>
0

>  <SCORE.SYSTEM.DIHEDRAL>
0

>  <SCORE.SYSTEM.SOLV>
0

>  <SCORE.SYSTEM.norm>
0

>  <SCORE.heavy>
31

>  <SCORE.norm>
-0.54075

>  <RMSD>
0.733

$$$$
ligand
 OpenBabel11021811493D
libRbt.so/2013.1/901 2013/11/27
 31 33  0  0  0  0  0  0  0  0999 V2000
    2.2138   15.2714   36.7669 C   0  0  2  0  0  0  0  0  0  0  0  0
    1.4998   15.8435   37.8459 O   0  0  0  0  0  0  0  0  0  0  0  0
   -2.0871   14.7254   39.8320 C   0  0  2  0  0  0  0  0  0  0  0  0
   -3.4716   14.4786   40.0535 N   0  0  0  0  0  0  0  0  0  0  0  0
   -3.0211   11.7520   39.1063 C   0  0  2  0  0  0  0  0  0  0  0  0
    3.7679   15.4249   37.0656 C   0  0  2  0  0  0  0  0  0  0  0  0
    4.0782   14.7739   38.3339 N   0  0  0  0  0  0  0  0  0  0  0  0
   -1.9139   16.2534   39.4139 C   0  0  0  0  0  0  0  0  0  0  0  0
   -3.0623   11.0770   40.5183 C   0  0  2  0  0  0  0  0  0  0  0  0
   -2.8792   12.0733   41.5017 O   0  0  0  0  0  0  0  0  0  0  0  0
    4.1784   16.9430   37.0920 C   0  0  0  0  0  0  0  0  0  0  0  0
   -0.3721   16.5315   39.1837 C   0  0  2  0  0  0  0  0  0  0  0  0
   -0.1931   17.9343   38.8071 N   0  0  0  0  0  0  0  0  0  0  0  0
   -1.9175   10.0019   40.5908 C   0  0  1  0  0  0  0  0  0  0  0  0
   -1.9238    9.3495   41.9394 N   0  0  0  0  0  0  0  0  0  0  0  0
    3.4384   17.7729   35.9607 C   0  0  0  0  0  0  0  0  0  0  0  0
    0.1524   15.5880   38.0253 C   0  0  2  0  0  0  0  0  0  0  0  0
   -2.1820    8.8758   39.4462 C   0  0  1  0  0  0  0  0  0  0  0  0
   -3.4154    8.2022   39.6024 O   0  0  0  0  0  0  0  0  0  0  0  0
    2.3910   17.2500   35.2781 C   0  0  1  0  0  0  0  0  0  0  0  0
    1.8794   15.9407   35.5108 O   0  0  0  0  0  0  0  0  0  0  0  0
   -0.0464   14.0709   38.4405 C   0  0  2  0  0  0  0  0  0  0  0  0
    0.4203   13.2195   37.3738 O   0  0  0  0  0  0  0  0  0  0  0  0
   -2.1799    9.5604   38.0466 C   0  0  0  0  0  0  0  0  0  0  0  0
   -3.1856   10.6985   38.0243 O   0  0  0  0  0  0  0  0  0  0  0  0
    1.6555   18.0094   34.1998 C   0  0  0  0  0  0  0  0  0  0  0  0
    2.5127   19.1035   33.8088 O   0  0  0  0  0  0  0  0  0  0  0  0
   -1.5811   13.7983   38.6763 C   0  0  1  0  0  0  0  0  0  0  0  0
   -1.7314   12.4508   39.0485 O   0  0  0  0  0  0  0  0  0  0  0  0
   -1.1301    7.7602   39.3940 C   0  0  0  0  0  0  0  0  0  0  0  0
   -3.2433    9.2003   42.5876 C   0  0  0  0  0  0  0  0  0  0  0  0
  1  2  1  1  0  0  0
  1  6  1  0  0  0  0
  1 21  1  0  0  0  0
  3  4  1  6  0  0  0
  3  8  1  0  0  0  0
  3 28  1  0  0  0  0
  5  9  1  0  0  0  0
  5 25  1  0  0  0  0
  5 29  1  6  0  0  0
  6  7  1  1  0  0  0
  6 11  1  0  0  0  0
  8 12  1  0  0  0  0
  9 10  1  1  0  0  0
  9 14  1  0  0  0  0
 11 16  1  0  0  0  0
 12 13  1  6  0  0  0
 12 17  1  0  0  0  0
 14 15  1  1  0  0  0
 14 18  1  0  0  0  0
 15 31  1  0  0  0  0
 16 20  1  0  0  0  0
 17  2  1  1  0  0  0
 17 22  1  0  0  0  0
 18 19  1  1  0  0  0
 18 24  1  0  0  0  0
 18 30  1  0  0  0  0
 20 21  1  0  0  0  0
 20 26  1  1  0  0  0
 22 23  1  6  0  0  0
 22 28  1  0  0  0  0
 24 25  1  0  0  0  0
 26 27  1  0  0  0  0
 28 29  1  1  0  0  0
M  END
>  <CHROM.1>
-164.68418765,-129.38618968,32.81244767,-172.14950090,17.17639797,73.57926273
-0.37603187,13.65341097,38.41852561,-0.87165152,-0.63883904,3.08958012

>  <Name>
ligand

>  <RI>
0

>  <Rbt.Current_Directory>
/home/itssahil/PROJECTS/Mol_Feturizer/New_Systems/rnas/4GPY

>  <Rbt.Executable>
rbdock ($Id: //depot/dev/client3/rdock/2013.1/src/exe/rbdock.cxx#4 $)

>  <Rbt.Library>
libRbt.so (2013.1, Build901 2013/11/27)

>  <Rbt.Parameter_File>
/export/apps/rDock/src/rDock_2013.1_src/data/scripts/dock_solv.prm

>  <Rbt.Receptor>
prm/pocket_docking_2.prm

>  <SCORE>
-10.3062

>  <SCORE.INTER>
-14.0587

>  <SCORE.INTER.CONST>
1

>  <SCORE.INTER.POLAR>
0

>  <SCORE.INTER.ROT>
6

>  <SCORE.INTER.SOLV>
19.2203

>  <SCORE.INTER.VDW>
-23.3792

>  <SCORE.INTER.norm>
-0.453506

>  <SCORE.INTRA>
3.65972

>  <SCORE.INTRA.DIHEDRAL>
-3.094

>  <SCORE.INTRA.DIHEDRAL.0>
14.7001

>  <SCORE.INTRA.POLAR>
0

>  <SCORE.INTRA.POLAR.0>
0

>  <SCORE.INTRA.REPUL>
0

>  <SCORE.INTRA.REPUL.0>
0

>  <SCORE.INTRA.SOLV>
-0.0421381

>  <SCORE.INTRA.SOLV.lig_0>
-65.3082

>  <SCORE.INTRA.VDW>
5.22779

>  <SCORE.INTRA.VDW.0>
-4.21408

>  <SCORE.INTRA.norm>
0.118055

>  <SCORE.RESTR>
0.0927591

>  <SCORE.RESTR.CAVITY>
0.0927591

>  <SCORE.RESTR.norm>
0.00299223

>  <SCORE.SYSTEM>
0

>  <SCORE.SYSTEM.CONST>
0

>  <SCORE.SYSTEM.DIHEDRAL>
0

>  <SCORE.SYSTEM.SOLV>
0

>  <SCORE.SYSTEM.norm>
0

>  <SCORE.heavy>
31

>  <SCORE.norm>
-0.332459

>  <RMSD>
0.838

$$$$
ligand
 OpenBabel11021811493D
libRbt.so/2013.1/901 2013/11/27
 31 33  0  0  0  0  0  0  0  0999 V2000
    2.5187   15.4405   36.9907 C   0  0  2  0  0  0  0  0  0  0  0  0
    1.8180   16.0713   38.0454 O   0  0  0  0  0  0  0  0  0  0  0  0
   -1.9478   15.6343   39.9658 C   0  0  2  0  0  0  0  0  0  0  0  0
   -3.3560   15.5112   40.1350 N   0  0  0  0  0  0  0  0  0  0  0  0
   -2.9971   12.5677   39.8269 C   0  0  2  0  0  0  0  0  0  0  0  0
    4.0756   15.6496   37.2367 C   0  0  2  0  0  0  0  0  0  0  0  0
    4.4329   15.0971   38.5388 N   0  0  0  0  0  0  0  0  0  0  0  0
   -1.6552   17.0041   39.2058 C   0  0  0  0  0  0  0  0  0  0  0  0
   -2.9579   11.6488   41.0938 C   0  0  2  0  0  0  0  0  0  0  0  0
   -2.6504   12.4432   42.2197 O   0  0  0  0  0  0  0  0  0  0  0  0
    4.4497   17.1747   37.1456 C   0  0  0  0  0  0  0  0  0  0  0  0
   -0.0878   17.1485   39.0324 C   0  0  2  0  0  0  0  0  0  0  0  0
    0.2003   18.4070   38.3432 N   0  0  0  0  0  0  0  0  0  0  0  0
   -1.8630   10.5422   40.8736 C   0  0  1  0  0  0  0  0  0  0  0  0
   -1.7930    9.6559   42.0795 N   0  0  0  0  0  0  0  0  0  0  0  0
    3.6619   17.9056   35.9790 C   0  0  0  0  0  0  0  0  0  0  0  0
    0.4489   15.9277   38.1788 C   0  0  2  0  0  0  0  0  0  0  0  0
   -2.2704    9.6523   39.5736 C   0  0  1  0  0  0  0  0  0  0  0  0
   -3.5179    9.0015   39.7133 O   0  0  0  0  0  0  0  0  0  0  0  0
    2.6109   17.3124   35.3626 C   0  0  1  0  0  0  0  0  0  0  0  0
    2.1372   16.0117   35.7001 O   0  0  0  0  0  0  0  0  0  0  0  0
    0.1316   14.5689   38.9315 C   0  0  2  0  0  0  0  0  0  0  0  0
    0.6108   13.4623   38.1401 O   0  0  0  0  0  0  0  0  0  0  0  0
   -2.3471   10.5797   38.3239 C   0  0  0  0  0  0  0  0  0  0  0  0
   -3.2966   11.7345   38.5925 O   0  0  0  0  0  0  0  0  0  0  0  0
    1.8306   17.9769   34.2536 C   0  0  0  0  0  0  0  0  0  0  0  0
    0.6751   18.5849   34.8701 O   0  0  0  0  0  0  0  0  0  0  0  0
   -1.4286   14.4309   39.1095 C   0  0  1  0  0  0  0  0  0  0  0  0
   -1.6845   13.2236   39.7833 O   0  0  0  0  0  0  0  0  0  0  0  0
   -1.2799    8.5316   39.2321 C   0  0  0  0  0  0  0  0  0  0  0  0
   -3.0854    9.2633   42.6784 C   0  0  0  0  0  0  0  0  0  0  0  0
  1  2  1  1  0  0  0
  1  6  1  0  0  0  0
  1 21  1  0  0  0  0
  3  4  1  6  0  0  0
  3  8  1  0  0  0  0
  3 28  1  0  0  0  0
  5  9  1  0  0  0  0
  5 25  1  0  0  0  0
  5 29  1  6  0  0  0
  6  7  1  1  0  0  0
  6 11  1  0  0  0  0
  8 12  1  0  0  0  0
  9 10  1  1  0  0  0
  9 14  1  0  0  0  0
 11 16  1  0  0  0  0
 12 13  1  6  0  0  0
 12 17  1  0  0  0  0
 14 15  1  1  0  0  0
 14 18  1  0  0  0  0
 15 31  1  0  0  0  0
 16 20  1  0  0  0  0
 17  2  1  1  0  0  0
 17 22  1  0  0  0  0
 18 19  1  1  0  0  0
 18 24  1  0  0  0  0
 18 30  1  0  0  0  0
 20 21  1  0  0  0  0
 20 26  1  1  0  0  0
 22 23  1  6  0  0  0
 22 28  1  0  0  0  0
 24 25  1  0  0  0  0
 26 27  1  0  0  0  0
 28 29  1  1  0  0  0
M  END
>  <CHROM.1>
-172.70835313,-157.75441974,41.98886359,-157.84712641,-96.23655314,78.26549849
-0.29769022,14.10697034,38.67530304,-0.91298572,-0.49630496,2.94296322

>  <Name>
ligand

>  <RI>
0

>  <Rbt.Current_Directory>
/home/itssahil/PROJECTS/Mol_Feturizer/New_Systems/rnas/4GPY

>  <Rbt.Executable>
rbdock ($Id: //depot/dev/client3/rdock/2013.1/src/exe/rbdock.cxx#4 $)

>  <Rbt.Library>
libRbt.so (2013.1, Build901 2013/11/27)

>  <Rbt.Parameter_File>
/export/apps/rDock/src/rDock_2013.1_src/data/scripts/dock_solv.prm

>  <Rbt.Receptor>
prm/pocket_docking_7.prm

>  <SCORE>
-13.8444

>  <SCORE.INTER>
-13.7728

>  <SCORE.INTER.CONST>
1

>  <SCORE.INTER.POLAR>
0

>  <SCORE.INTER.ROT>
6

>  <SCORE.INTER.SOLV>
18.7254

>  <SCORE.INTER.VDW>
-23.0237

>  <SCORE.INTER.norm>
-0.444284

>  <SCORE.INTRA>
-0.0715609

>  <SCORE.INTRA.DIHEDRAL>
-5.98929

>  <SCORE.INTRA.DIHEDRAL.0>
14.7001

>  <SCORE.INTRA.POLAR>
0

>  <SCORE.INTRA.POLAR.0>
0

>  <SCORE.INTRA.REPUL>
0.00168175

>  <SCORE.INTRA.REPUL.0>
0

>  <SCORE.INTRA.SOLV>
0.469803

>  <SCORE.INTRA.SOLV.lig_0>
-65.3082

>  <SCORE.INTRA.VDW>
2.67977

>  <SCORE.INTRA.VDW.0>
-4.21408

>  <SCORE.INTRA.norm>
-0.00230842

>  <SCORE.RESTR>
0

>  <SCORE.RESTR.CAVITY>
0

>  <SCORE.RESTR.norm>
0

>  <SCORE.SYSTEM>
0

>  <SCORE.SYSTEM.CONST>
0

>  <SCORE.SYSTEM.DIHEDRAL>
0

>  <SCORE.SYSTEM.SOLV>
0

>  <SCORE.SYSTEM.norm>
0

>  <SCORE.heavy>
31

>  <SCORE.norm>
-0.446593

>  <RMSD>
0.857

$$$$
ligand
 OpenBabel11021811493D
libRbt.so/2013.1/901 2013/11/27
 31 33  0  0  0  0  0  0  0  0999 V2000
    2.4912   15.5024   36.9542 C   0  0  2  0  0  0  0  0  0  0  0  0
    1.7959   16.1314   38.0136 O   0  0  0  0  0  0  0  0  0  0  0  0
   -1.9574   15.6863   39.9564 C   0  0  2  0  0  0  0  0  0  0  0  0
   -3.3644   15.5607   40.1341 N   0  0  0  0  0  0  0  0  0  0  0  0
   -3.0062   12.6264   39.8339 C   0  0  2  0  0  0  0  0  0  0  0  0
    4.0501   15.6832   37.2097 C   0  0  2  0  0  0  0  0  0  0  0  0
    4.3924   15.1089   38.5065 N   0  0  0  0  0  0  0  0  0  0  0  0
   -1.6717   17.0574   39.1962 C   0  0  0  0  0  0  0  0  0  0  0  0
   -2.9412   11.6853   41.0834 C   0  0  2  0  0  0  0  0  0  0  0  0
   -2.6020   12.4583   42.2150 O   0  0  0  0  0  0  0  0  0  0  0  0
    4.4492   17.2030   37.1393 C   0  0  0  0  0  0  0  0  0  0  0  0
   -0.1056   17.2045   39.0134 C   0  0  2  0  0  0  0  0  0  0  0  0
    0.1763   18.4642   38.3238 N   0  0  0  0  0  0  0  0  0  0  0  0
   -1.8582   10.5772   40.8174 C   0  0  1  0  0  0  0  0  0  0  0  0
   -1.7638    9.6696   42.0056 N   0  0  0  0  0  0  0  0  0  0  0  0
    3.6788   17.9611   35.9784 C   0  0  0  0  0  0  0  0  0  0  0  0
    0.4279   15.9855   38.1552 C   0  0  2  0  0  0  0  0  0  0  0  0
   -2.3021    9.7122   39.5125 C   0  0  1  0  0  0  0  0  0  0  0  0
   -3.5494    9.0654   39.6713 O   0  0  0  0  0  0  0  0  0  0  0  0
    2.6212   17.3926   35.3500 C   0  0  1  0  0  0  0  0  0  0  0  0
    2.1250   16.0956   35.6691 O   0  0  0  0  0  0  0  0  0  0  0  0
    0.1173   14.6253   38.9082 C   0  0  2  0  0  0  0  0  0  0  0  0
    0.5934   13.5204   38.1128 O   0  0  0  0  0  0  0  0  0  0  0  0
   -2.4040   10.6616   38.2813 C   0  0  0  0  0  0  0  0  0  0  0  0
   -3.3402   11.8164   38.5930 O   0  0  0  0  0  0  0  0  0  0  0  0
    1.8569   18.0833   34.2459 C   0  0  0  0  0  0  0  0  0  0  0  0
    0.6615   18.6243   34.8485 O   0  0  0  0  0  0  0  0  0  0  0  0
   -1.4416   14.4846   39.0956 C   0  0  1  0  0  0  0  0  0  0  0  0
   -1.6914   13.2762   39.7696 O   0  0  0  0  0  0  0  0  0  0  0  0
   -1.3264    8.5925   39.1275 C   0  0  0  0  0  0  0  0  0  0  0  0
   -3.0433    9.2756   42.6308 C   0  0  0  0  0  0  0  0  0  0  0  0
  1  2  1  1  0  0  0
  1  6  1  0  0  0  0
  1 21  1  0  0  0  0
  3  4  1  6  0  0  0
  3  8  1  0  0  0  0
  3 28  1  0  0  0  0
  5  9  1  0  0  0  0
  5 25  1  0  0  0  0
  5 29  1  6  0  0  0
  6  7  1  1  0  0  0
  6 11  1  0  0  0  0
  8 12  1  0  0  0  0
  9 10  1  1  0  0  0
  9 14  1  0  0  0  0
 11 16  1  0  0  0  0
 12 13  1  6  0  0  0
 12 17  1  0  0  0  0
 14 15  1  1  0  0  0
 14 18  1  0  0  0  0
 15 31  1  0  0  0  0
 16 20  1  0  0  0  0
 17  2  1  1  0  0  0
 17 22  1  0  0  0  0
 18 19  1  1  0  0  0
 18 24  1  0  0  0  0
 18 30  1  0  0  0  0
 20 21  1  0  0  0  0
 20 26  1  1  0  0  0
 22 23  1  6  0  0  0
 22 28  1  0  0  0  0
 24 25  1  0  0  0  0
 26 27  1  0  0  0  0
 28 29  1  1  0  0  0
M  END
>  <CHROM.1>
-171.34349429,-158.64380544,41.86498048,-157.87308050,-100.06911459,77.50555899
-0.30783252,14.15951740,38.64935130,-0.91323364,-0.49718373,2.94636264

>  <Name>
ligand

>  <RI>
0

>  <Rbt.Current_Directory>
/home/itssahil/PROJECTS/Mol_Feturizer/New_Systems/rnas/4GPY

>  <Rbt.Executable>
rbdock ($Id: //depot/dev/client3/rdock/2013.1/src/exe/rbdock.cxx#4 $)

>  <Rbt.Library>
libRbt.so (2013.1, Build901 2013/11/27)

>  <Rbt.Parameter_File>
/export/apps/rDock/src/rDock_2013.1_src/data/scripts/dock_solv.prm

>  <Rbt.Receptor>
prm/pocket_docking_5.prm

>  <SCORE>
-13.9287

>  <SCORE.INTER>
-13.7096

>  <SCORE.INTER.CONST>
1

>  <SCORE.INTER.POLAR>
0

>  <SCORE.INTER.ROT>
6

>  <SCORE.INTER.SOLV>
18.8715

>  <SCORE.INTER.VDW>
-23.0302

>  <SCORE.INTER.norm>
-0.442245

>  <SCORE.INTRA>
-0.21909

>  <SCORE.INTRA.DIHEDRAL>
-6.32903

>  <SCORE.INTRA.DIHEDRAL.0>
14.7001

>  <SCORE.INTRA.POLAR>
0

>  <SCORE.INTRA.POLAR.0>
0

>  <SCORE.INTRA.REPUL>
0.00160994

>  <SCORE.INTRA.REPUL.0>
0

>  <SCORE.INTRA.SOLV>
0.484095

>  <SCORE.INTRA.SOLV.lig_0>
-65.3082

>  <SCORE.INTRA.VDW>
2.69533

>  <SCORE.INTRA.VDW.0>
-4.21408

>  <SCORE.INTRA.norm>
-0.00706743

>  <SCORE.RESTR>
0

>  <SCORE.RESTR.CAVITY>
0

>  <SCORE.RESTR.norm>
0

>  <SCORE.SYSTEM>
0

>  <SCORE.SYSTEM.CONST>
0

>  <SCORE.SYSTEM.DIHEDRAL>
0

>  <SCORE.SYSTEM.SOLV>
0

>  <SCORE.SYSTEM.norm>
0

>  <SCORE.heavy>
31

>  <SCORE.norm>
-0.449313

>  <RMSD>
0.867

$$$$
ligand
 OpenBabel11021811493D
libRbt.so/2013.1/901 2013/11/27
 31 33  0  0  0  0  0  0  0  0999 V2000
    2.0512   15.2927   36.7459 C   0  0  2  0  0  0  0  0  0  0  0  0
    1.4334   15.9324   37.8461 O   0  0  0  0  0  0  0  0  0  0  0  0
   -2.2033   15.3138   39.9559 C   0  0  2  0  0  0  0  0  0  0  0  0
   -3.6004   15.2210   40.2135 N   0  0  0  0  0  0  0  0  0  0  0  0
   -3.3370   12.2425   39.0664 C   0  0  2  0  0  0  0  0  0  0  0  0
    3.6206   15.2767   37.0005 C   0  0  2  0  0  0  0  0  0  0  0  0
    3.8945   14.5893   38.2579 N   0  0  0  0  0  0  0  0  0  0  0  0
   -1.8907   16.7848   39.4284 C   0  0  0  0  0  0  0  0  0  0  0  0
   -3.2134   10.9009   39.8640 C   0  0  2  0  0  0  0  0  0  0  0  0
   -2.9743   11.2024   41.2224 O   0  0  0  0  0  0  0  0  0  0  0  0
    4.1926   16.7418   37.0188 C   0  0  0  0  0  0  0  0  0  0  0  0
   -0.3342   16.8926   39.1577 C   0  0  2  0  0  0  0  0  0  0  0  0
   -0.0271   18.2415   38.6803 N   0  0  0  0  0  0  0  0  0  0  0  0
   -2.0256   10.0681   39.2581 C   0  0  1  0  0  0  0  0  0  0  0  0
   -1.8743    8.7833   40.0136 N   0  0  0  0  0  0  0  0  0  0  0  0
    3.5148   17.6525   35.9111 C   0  0  0  0  0  0  0  0  0  0  0  0
    0.0716   15.8243   38.0618 C   0  0  2  0  0  0  0  0  0  0  0  0
   -2.3562    9.7406   37.6987 C   0  0  1  0  0  0  0  0  0  0  0  0
   -3.5409    8.9881   37.5270 O   0  0  0  0  0  0  0  0  0  0  0  0
    2.3984   17.2489   35.2573 C   0  0  1  0  0  0  0  0  0  0  0  0
    1.7557   16.0009   35.5014 O   0  0  0  0  0  0  0  0  0  0  0  0
   -0.2656   14.3665   38.5860 C   0  0  2  0  0  0  0  0  0  0  0  0
    0.0936   13.4016   37.5759 O   0  0  0  0  0  0  0  0  0  0  0  0
   -2.5178   11.0799   36.9191 C   0  0  0  0  0  0  0  0  0  0  0  0
   -3.5649   11.9494   37.5934 O   0  0  0  0  0  0  0  0  0  0  0  0
    1.7189   18.0888   34.2022 C   0  0  0  0  0  0  0  0  0  0  0  0
    0.6159   18.7551   34.8535 O   0  0  0  0  0  0  0  0  0  0  0  0
   -1.8143   14.2638   38.8618 C   0  0  1  0  0  0  0  0  0  0  0  0
   -2.0876   12.9666   39.3304 O   0  0  0  0  0  0  0  0  0  0  0  0
   -1.2713    8.9347   36.9725 C   0  0  0  0  0  0  0  0  0  0  0  0
   -0.5081    8.2252   40.0877 C   0  0  0  0  0  0  0  0  0  0  0  0
  1  2  1  1  0  0  0
  1  6  1  0  0  0  0
  1 21  1  0  0  0  0
  3  4  1  6  0  0  0
  3  8  1  0  0  0  0
  3 28  1  0  0  0  0
  5  9  1  0  0  0  0
  5 25  1  0  0  0  0
  5 29  1  6  0  0  0
  6  7  1  1  0  0  0
  6 11  1  0  0  0  0
  8 12  1  0  0  0  0
  9 10  1  1  0  0  0
  9 14  1  0  0  0  0
 11 16  1  0  0  0  0
 12 13  1  6  0  0  0
 12 17  1  0  0  0  0
 14 15  1  1  0  0  0
 14 18  1  0  0  0  0
 15 31  1  0  0  0  0
 16 20  1  0  0  0  0
 17  2  1  1  0  0  0
 17 22  1  0  0  0  0
 18 19  1  6  0  0  0
 18 24  1  0  0  0  0
 18 30  1  0  0  0  0
 20 21  1  0  0  0  0
 20 26  1  1  0  0  0
 22 23  1  6  0  0  0
 22 28  1  0  0  0  0
 24 25  1  0  0  0  0
 26 27  1  0  0  0  0
 28 29  1  1  0  0  0
M  END
>  <CHROM.1>
-164.80347834,-176.26746659,-149.87839336,-167.77203310,-98.53945354,94.10674831
-0.46707487,13.87689438,38.00474853,-0.89837500,-0.55946066,-3.09968123

>  <Name>
ligand

>  <RI>
0

>  <Rbt.Current_Directory>
/home/itssahil/PROJECTS/Mol_Feturizer/New_Systems/rnas/4GPY

>  <Rbt.Executable>
rbdock ($Id: //depot/dev/client3/rdock/2013.1/src/exe/rbdock.cxx#4 $)

>  <Rbt.Library>
libRbt.so (2013.1, Build901 2013/11/27)

>  <Rbt.Parameter_File>
/export/apps/rDock/src/rDock_2013.1_src/data/scripts/dock_solv.prm

>  <Rbt.Receptor>
prm/pocket_docking_2.prm

>  <SCORE>
-13.3227

>  <SCORE.INTER>
-10.9073

>  <SCORE.INTER.CONST>
1

>  <SCORE.INTER.POLAR>
0

>  <SCORE.INTER.ROT>
6

>  <SCORE.INTER.SOLV>
20.4739

>  <SCORE.INTER.VDW>
-21.6962

>  <SCORE.INTER.norm>
-0.351848

>  <SCORE.INTRA>
-2.55673

>  <SCORE.INTRA.DIHEDRAL>
-5.63951

>  <SCORE.INTRA.DIHEDRAL.0>
14.7001

>  <SCORE.INTRA.POLAR>
0

>  <SCORE.INTRA.POLAR.0>
0

>  <SCORE.INTRA.REPUL>
0

>  <SCORE.INTRA.REPUL.0>
0

>  <SCORE.INTRA.SOLV>
-1.20347

>  <SCORE.INTRA.SOLV.lig_0>
-65.3082

>  <SCORE.INTRA.VDW>
0.864763

>  <SCORE.INTRA.VDW.0>
-4.21408

>  <SCORE.INTRA.norm>
-0.0824752

>  <SCORE.RESTR>
0.141338

>  <SCORE.RESTR.CAVITY>
0.141338

>  <SCORE.RESTR.norm>
0.00455928

>  <SCORE.SYSTEM>
0

>  <SCORE.SYSTEM.CONST>
0

>  <SCORE.SYSTEM.DIHEDRAL>
0

>  <SCORE.SYSTEM.SOLV>
0

>  <SCORE.SYSTEM.norm>
0

>  <SCORE.heavy>
31

>  <SCORE.norm>
-0.429764

>  <RMSD>
1.049

$$$$
ligand
 OpenBabel11021811493D
libRbt.so/2013.1/901 2013/11/27
 31 33  0  0  0  0  0  0  0  0999 V2000
    2.0830   15.3371   36.8092 C   0  0  2  0  0  0  0  0  0  0  0  0
    1.4598   16.0184   37.8811 O   0  0  0  0  0  0  0  0  0  0  0  0
   -2.2113   15.5020   39.9586 C   0  0  2  0  0  0  0  0  0  0  0  0
   -3.6126   15.4351   40.2006 N   0  0  0  0  0  0  0  0  0  0  0  0
   -3.3026   12.3594   38.9992 C   0  0  2  0  0  0  0  0  0  0  0  0
    3.6531   15.3524   37.0596 C   0  0  2  0  0  0  0  0  0  0  0  0
    3.9388   14.7265   38.3461 N   0  0  0  0  0  0  0  0  0  0  0  0
   -1.8709   16.9554   39.4005 C   0  0  0  0  0  0  0  0  0  0  0  0
   -3.1785   11.0049   39.7745 C   0  0  2  0  0  0  0  0  0  0  0  0
   -3.0771   11.2815   41.1552 O   0  0  0  0  0  0  0  0  0  0  0  0
    4.2065   16.8239   37.0093 C   0  0  0  0  0  0  0  0  0  0  0  0
   -0.3097   17.0346   39.1470 C   0  0  2  0  0  0  0  0  0  0  0  0
    0.0228   18.3673   38.6418 N   0  0  0  0  0  0  0  0  0  0  0  0
   -1.8990   10.2506   39.2592 C   0  0  1  0  0  0  0  0  0  0  0  0
   -1.7468    8.9553   39.9964 N   0  0  0  0  0  0  0  0  0  0  0  0
    3.5143   17.6746   35.8633 C   0  0  0  0  0  0  0  0  0  0  0  0
    0.0940   15.9348   38.0819 C   0  0  2  0  0  0  0  0  0  0  0  0
   -2.0724    9.9489   37.6696 C   0  0  1  0  0  0  0  0  0  0  0  0
   -3.1954    9.1416   37.3754 O   0  0  0  0  0  0  0  0  0  0  0  0
    2.4016   17.2276   35.2320 C   0  0  1  0  0  0  0  0  0  0  0  0
    1.7754   15.9840   35.5347 O   0  0  0  0  0  0  0  0  0  0  0  0
   -0.2707   14.4949   38.6362 C   0  0  2  0  0  0  0  0  0  0  0  0
    0.0869   13.5012   37.6538 O   0  0  0  0  0  0  0  0  0  0  0  0
   -2.2356   11.2987   36.9086 C   0  0  0  0  0  0  0  0  0  0  0  0
   -3.3832   12.0949   37.5055 O   0  0  0  0  0  0  0  0  0  0  0  0
    1.7088   18.0099   34.1418 C   0  0  0  0  0  0  0  0  0  0  0  0
    2.0035   19.4026   34.3835 O   0  0  0  0  0  0  0  0  0  0  0  0
   -1.8240   14.4207   38.8947 C   0  0  1  0  0  0  0  0  0  0  0  0
   -2.1219   13.1391   39.3904 O   0  0  0  0  0  0  0  0  0  0  0  0
   -0.8861    9.2194   37.0258 C   0  0  0  0  0  0  0  0  0  0  0  0
   -2.8209    7.9600   39.7983 C   0  0  0  0  0  0  0  0  0  0  0  0
  1  2  1  1  0  0  0
  1  6  1  0  0  0  0
  1 21  1  0  0  0  0
  3  4  1  6  0  0  0
  3  8  1  0  0  0  0
  3 28  1  0  0  0  0
  5  9  1  0  0  0  0
  5 25  1  0  0  0  0
  5 29  1  6  0  0  0
  6  7  1  1  0  0  0
  6 11  1  0  0  0  0
  8 12  1  0  0  0  0
  9 10  1  1  0  0  0
  9 14  1  0  0  0  0
 11 16  1  0  0  0  0
 12 13  1  6  0  0  0
 12 17  1  0  0  0  0
 14 15  1  1  0  0  0
 14 18  1  0  0  0  0
 15 31  1  0  0  0  0
 16 20  1  0  0  0  0
 17  2  1  1  0  0  0
 17 22  1  0  0  0  0
 18 19  1  6  0  0  0
 18 24  1  0  0  0  0
 18 30  1  0  0  0  0
 20 21  1  0  0  0  0
 20 26  1  1  0  0  0
 22 23  1  6  0  0  0
 22 28  1  0  0  0  0
 24 25  1  0  0  0  0
 26 27  1  0  0  0  0
 28 29  1  1  0  0  0
M  END
>  <CHROM.1>
-166.73787465,178.49848988,63.76586532,-168.18075665,-26.89268251,101.82783383
-0.43416516,14.00333430,37.97182679,-0.81845792,-0.64069199,-2.99854492

>  <Name>
ligand

>  <RI>
0

>  <Rbt.Current_Directory>
/home/itssahil/PROJECTS/Mol_Feturizer/New_Systems/rnas/4GPY

>  <Rbt.Executable>
rbdock ($Id: //depot/dev/client3/rdock/2013.1/src/exe/rbdock.cxx#4 $)

>  <Rbt.Library>
libRbt.so (2013.1, Build901 2013/11/27)

>  <Rbt.Parameter_File>
/export/apps/rDock/src/rDock_2013.1_src/data/scripts/dock_solv.prm

>  <Rbt.Receptor>
prm/pocket_docking_2.prm

>  <SCORE>
-9.21834

>  <SCORE.INTER>
-10.1081

>  <SCORE.INTER.CONST>
1

>  <SCORE.INTER.POLAR>
0

>  <SCORE.INTER.ROT>
6

>  <SCORE.INTER.SOLV>
20.4224

>  <SCORE.INTER.VDW>
-21.1462

>  <SCORE.INTER.norm>
-0.326067

>  <SCORE.INTRA>
0.833823

>  <SCORE.INTRA.DIHEDRAL>
-5.00489

>  <SCORE.INTRA.DIHEDRAL.0>
14.7001

>  <SCORE.INTRA.POLAR>
0

>  <SCORE.INTRA.POLAR.0>
0

>  <SCORE.INTRA.REPUL>
0

>  <SCORE.INTRA.REPUL.0>
0

>  <SCORE.INTRA.SOLV>
-1.52015

>  <SCORE.INTRA.SOLV.lig_0>
-65.3082

>  <SCORE.INTRA.VDW>
4.09634

>  <SCORE.INTRA.VDW.0>
-4.21408

>  <SCORE.INTRA.norm>
0.0268975

>  <SCORE.RESTR>
0.0559132

>  <SCORE.RESTR.CAVITY>
0.0559132

>  <SCORE.RESTR.norm>
0.00180365

>  <SCORE.SYSTEM>
0

>  <SCORE.SYSTEM.CONST>
0

>  <SCORE.SYSTEM.DIHEDRAL>
0

>  <SCORE.SYSTEM.SOLV>
0

>  <SCORE.SYSTEM.norm>
0

>  <SCORE.heavy>
31

>  <SCORE.norm>
-0.297366

>  <RMSD>
1.115

$$$$
ligand
 OpenBabel11021811493D
libRbt.so/2013.1/901 2013/11/27
 31 33  0  0  0  0  0  0  0  0999 V2000
    2.0587   15.4193   36.7973 C   0  0  2  0  0  0  0  0  0  0  0  0
    1.4591   15.9770   37.9509 O   0  0  0  0  0  0  0  0  0  0  0  0
   -2.2228   15.5146   40.0222 C   0  0  2  0  0  0  0  0  0  0  0  0
   -3.6254   15.4635   40.2606 N   0  0  0  0  0  0  0  0  0  0  0  0
   -3.3310   12.3657   39.0723 C   0  0  2  0  0  0  0  0  0  0  0  0
    3.6004   15.1832   37.1064 C   0  0  2  0  0  0  0  0  0  0  0  0
    3.7274   14.3082   38.2669 N   0  0  0  0  0  0  0  0  0  0  0  0
   -1.8667   16.9596   39.4522 C   0  0  0  0  0  0  0  0  0  0  0  0
   -3.1998   11.0008   39.8279 C   0  0  2  0  0  0  0  0  0  0  0  0
   -3.1002   11.2578   41.2125 O   0  0  0  0  0  0  0  0  0  0  0  0
    4.3322   16.5545   37.3471 C   0  0  0  0  0  0  0  0  0  0  0  0
   -0.3042   17.0216   39.2026 C   0  0  2  0  0  0  0  0  0  0  0  0
    0.0427   18.3464   38.6866 N   0  0  0  0  0  0  0  0  0  0  0  0
   -1.9162   10.2610   39.3021 C   0  0  1  0  0  0  0  0  0  0  0  0
   -1.7571    8.9559   40.0205 N   0  0  0  0  0  0  0  0  0  0  0  0
    3.8215   17.6775   36.3502 C   0  0  0  0  0  0  0  0  0  0  0  0
    0.0919   15.9085   38.1485 C   0  0  2  0  0  0  0  0  0  0  0  0
   -2.0875    9.9814   37.7082 C   0  0  1  0  0  0  0  0  0  0  0  0
   -3.2060    9.1725   37.4020 O   0  0  0  0  0  0  0  0  0  0  0  0
    2.7033   17.4995   35.6055 C   0  0  1  0  0  0  0  0  0  0  0  0
    1.9119   16.3155   35.6516 O   0  0  0  0  0  0  0  0  0  0  0  0
   -0.2883   14.4771   38.7144 C   0  0  2  0  0  0  0  0  0  0  0  0
    0.0625   13.4713   37.7419 O   0  0  0  0  0  0  0  0  0  0  0  0
   -2.2579   11.3412   36.9669 C   0  0  0  0  0  0  0  0  0  0  0  0
   -3.4099   12.1225   37.5749 O   0  0  0  0  0  0  0  0  0  0  0  0
    2.1802   18.5460   34.6508 C   0  0  0  0  0  0  0  0  0  0  0  0
    1.7126   17.8398   33.4815 O   0  0  0  0  0  0  0  0  0  0  0  0
   -1.8430   14.4203   38.9690 C   0  0  1  0  0  0  0  0  0  0  0  0
   -2.1547   13.1461   39.4751 O   0  0  0  0  0  0  0  0  0  0  0  0
   -0.8971    9.2678   37.0543 C   0  0  0  0  0  0  0  0  0  0  0  0
   -2.8250    7.9574   39.8066 C   0  0  0  0  0  0  0  0  0  0  0  0
  1  2  1  1  0  0  0
  1  6  1  0  0  0  0
  1 21  1  0  0  0  0
  3  4  1  6  0  0  0
  3  8  1  0  0  0  0
  3 28  1  0  0  0  0
  5  9  1  0  0  0  0
  5 25  1  0  0  0  0
  5 29  1  6  0  0  0
  6  7  1  1  0  0  0
  6 11  1  0  0  0  0
  8 12  1  0  0  0  0
  9 10  1  1  0  0  0
  9 14  1  0  0  0  0
 11 16  1  0  0  0  0
 12 13  1  6  0  0  0
 12 17  1  0  0  0  0
 14 15  1  1  0  0  0
 14 18  1  0  0  0  0
 15 31  1  0  0  0  0
 16 20  1  0  0  0  0
 17  2  1  1  0  0  0
 17 22  1  0  0  0  0
 18 19  1  6  0  0  0
 18 24  1  0  0  0  0
 18 30  1  0  0  0  0
 20 21  1  0  0  0  0
 20 26  1  1  0  0  0
 22 23  1  6  0  0  0
 22 28  1  0  0  0  0
 24 25  1  0  0  0  0
 26 27  1  0  0  0  0
 28 29  1  1  0  0  0
M  END
>  <CHROM.1>
-159.55662681,176.56916878,63.82633113,-160.29828551,140.54567495,102.79148425
-0.42022326,13.96142193,38.03477714,-0.78136647,-0.64629686,-2.96967684

>  <Name>
ligand

>  <RI>
0

>  <Rbt.Current_Directory>
/home/itssahil/PROJECTS/Mol_Feturizer/New_Systems/rnas/4GPY

>  <Rbt.Executable>
rbdock ($Id: //depot/dev/client3/rdock/2013.1/src/exe/rbdock.cxx#4 $)

>  <Rbt.Library>
libRbt.so (2013.1, Build901 2013/11/27)

>  <Rbt.Parameter_File>
/export/apps/rDock/src/rDock_2013.1_src/data/scripts/dock_solv.prm

>  <Rbt.Receptor>
prm/pocket_docking_2.prm

>  <SCORE>
-9.2299

>  <SCORE.INTER>
-10.412

>  <SCORE.INTER.CONST>
1

>  <SCORE.INTER.POLAR>
0

>  <SCORE.INTER.ROT>
6

>  <SCORE.INTER.SOLV>
20.8597

>  <SCORE.INTER.VDW>
-21.4946

>  <SCORE.INTER.norm>
-0.335871

>  <SCORE.INTRA>
1.11218

>  <SCORE.INTRA.DIHEDRAL>
-2.98887

>  <SCORE.INTRA.DIHEDRAL.0>
14.7001

>  <SCORE.INTRA.POLAR>
0

>  <SCORE.INTRA.POLAR.0>
0

>  <SCORE.INTRA.REPUL>
0

>  <SCORE.INTRA.REPUL.0>
0

>  <SCORE.INTRA.SOLV>
-0.804939

>  <SCORE.INTRA.SOLV.lig_0>
-65.3082

>  <SCORE.INTRA.VDW>
3.00909

>  <SCORE.INTRA.VDW.0>
-4.21408

>  <SCORE.INTRA.norm>
0.0358768

>  <SCORE.RESTR>
0.0699314

>  <SCORE.RESTR.CAVITY>
0.0699314

>  <SCORE.RESTR.norm>
0.00225585

>  <SCORE.SYSTEM>
0

>  <SCORE.SYSTEM.CONST>
0

>  <SCORE.SYSTEM.DIHEDRAL>
0

>  <SCORE.SYSTEM.SOLV>
0

>  <SCORE.SYSTEM.norm>
0

>  <SCORE.heavy>
31

>  <SCORE.norm>
-0.297739

>  <RMSD>
1.119

$$$$
ligand
 OpenBabel11021811493D
libRbt.so/2013.1/901 2013/11/27
 31 33  0  0  0  0  0  0  0  0999 V2000
    2.3688   15.5604   36.8124 C   0  0  2  0  0  0  0  0  0  0  0  0
    1.7004   16.2047   37.8798 O   0  0  0  0  0  0  0  0  0  0  0  0
   -1.9212   15.5491   40.0045 C   0  0  2  0  0  0  0  0  0  0  0  0
   -3.3123   15.3788   40.2549 N   0  0  0  0  0  0  0  0  0  0  0  0
   -2.9297   12.5488   39.8882 C   0  0  2  0  0  0  0  0  0  0  0  0
    3.9343   15.6956   37.0556 C   0  0  2  0  0  0  0  0  0  0  0  0
    4.2707   15.1067   38.3473 N   0  0  0  0  0  0  0  0  0  0  0  0
   -1.7091   16.9714   39.3176 C   0  0  0  0  0  0  0  0  0  0  0  0
   -2.6316   11.2303   40.6781 C   0  0  2  0  0  0  0  0  0  0  0  0
   -1.9045   11.5557   41.8438 O   0  0  0  0  0  0  0  0  0  0  0  0
    4.3760   17.2037   36.9875 C   0  0  0  0  0  0  0  0  0  0  0  0
   -0.1600   17.1673   39.0542 C   0  0  2  0  0  0  0  0  0  0  0  0
    0.0548   18.4739   38.4310 N   0  0  0  0  0  0  0  0  0  0  0  0
   -1.8016   10.2699   39.7506 C   0  0  1  0  0  0  0  0  0  0  0  0
   -1.4884    9.0039   40.4878 N   0  0  0  0  0  0  0  0  0  0  0  0
    3.6180   17.9880   35.8358 C   0  0  0  0  0  0  0  0  0  0  0  0
    0.3465   16.0173   38.0908 C   0  0  2  0  0  0  0  0  0  0  0  0
   -2.6872    9.9202   38.4309 C   0  0  1  0  0  0  0  0  0  0  0  0
   -3.9084    9.2755   38.7349 O   0  0  0  0  0  0  0  0  0  0  0  0
    2.5395   17.4523   35.2141 C   0  0  1  0  0  0  0  0  0  0  0  0
    2.0091   16.1688   35.5326 O   0  0  0  0  0  0  0  0  0  0  0  0
    0.1089   14.6058   38.7725 C   0  0  2  0  0  0  0  0  0  0  0  0
    0.5595   13.5643   37.8822 O   0  0  0  0  0  0  0  0  0  0  0  0
   -3.0145   11.2405   37.6712 C   0  0  0  0  0  0  0  0  0  0  0  0
   -3.6864   12.2267   38.6110 O   0  0  0  0  0  0  0  0  0  0  0  0
    1.7862   18.1689   34.1190 C   0  0  0  0  0  0  0  0  0  0  0  0
    0.6530   18.8060   34.7473 O   0  0  0  0  0  0  0  0  0  0  0  0
   -1.4329   14.4161   39.0405 C   0  0  1  0  0  0  0  0  0  0  0  0
   -1.6176   13.1624   39.6496 O   0  0  0  0  0  0  0  0  0  0  0  0
   -1.9938    8.9919   37.4252 C   0  0  0  0  0  0  0  0  0  0  0  0
   -0.1737    8.9467   41.1599 C   0  0  0  0  0  0  0  0  0  0  0  0
  1  2  1  1  0  0  0
  1  6  1  0  0  0  0
  1 21  1  0  0  0  0
  3  4  1  6  0  0  0
  3  8  1  0  0  0  0
  3 28  1  0  0  0  0
  5  9  1  0  0  0  0
  5 25  1  0  0  0  0
  5 29  1  6  0  0  0
  6  7  1  1  0  0  0
  6 11  1  0  0  0  0
  8 12  1  0  0  0  0
  9 10  1  1  0  0  0
  9 14  1  0  0  0  0
 11 16  1  0  0  0  0
 12 13  1  6  0  0  0
 12 17  1  0  0  0  0
 14 15  1  1  0  0  0
 14 18  1  0  0  0  0
 15 31  1  0  0  0  0
 16 20  1  0  0  0  0
 17  2  1  1  0  0  0
 17 22  1  0  0  0  0
 18 19  1  1  0  0  0
 18 24  1  0  0  0  0
 18 30  1  0  0  0  0
 20 21  1  0  0  0  0
 20 26  1  1  0  0  0
 22 23  1  6  0  0  0
 22 28  1  0  0  0  0
 24 25  1  0  0  0  0
 26 27  1  0  0  0  0
 28 29  1  1  0  0  0
M  END
>  <CHROM.1>
-166.48136410,-175.73610343,-95.17857709,-163.69865234,-96.84154803,70.08287037
-0.27367288,14.13144556,38.30303237,-0.94430205,-0.44967636,2.99591488

>  <Name>
ligand

>  <RI>
0

>  <Rbt.Current_Directory>
/home/itssahil/PROJECTS/Mol_Feturizer/New_Systems/rnas/4GPY

>  <Rbt.Executable>
rbdock ($Id: //depot/dev/client3/rdock/2013.1/src/exe/rbdock.cxx#4 $)

>  <Rbt.Library>
libRbt.so (2013.1, Build901 2013/11/27)

>  <Rbt.Parameter_File>
/export/apps/rDock/src/rDock_2013.1_src/data/scripts/dock_solv.prm

>  <Rbt.Receptor>
prm/pocket_docking_5.prm

>  <SCORE>
-16.4528

>  <SCORE.INTER>
-12.5168

>  <SCORE.INTER.CONST>
1

>  <SCORE.INTER.POLAR>
0

>  <SCORE.INTER.ROT>
6

>  <SCORE.INTER.SOLV>
19.5546

>  <SCORE.INTER.VDW>
-22.4628

>  <SCORE.INTER.norm>
-0.403769

>  <SCORE.INTRA>
-3.93595

>  <SCORE.INTRA.DIHEDRAL>
-8.94887

>  <SCORE.INTRA.DIHEDRAL.0>
14.7001

>  <SCORE.INTRA.POLAR>
0

>  <SCORE.INTRA.POLAR.0>
0

>  <SCORE.INTRA.REPUL>
0.00121945

>  <SCORE.INTRA.REPUL.0>
0

>  <SCORE.INTRA.SOLV>
-0.417497

>  <SCORE.INTRA.SOLV.lig_0>
-65.3082

>  <SCORE.INTRA.VDW>
0.741135

>  <SCORE.INTRA.VDW.0>
-4.21408

>  <SCORE.INTRA.norm>
-0.126966

>  <SCORE.RESTR>
0

>  <SCORE.RESTR.CAVITY>
0

>  <SCORE.RESTR.norm>
0

>  <SCORE.SYSTEM>
0

>  <SCORE.SYSTEM.CONST>
0

>  <SCORE.SYSTEM.DIHEDRAL>
0

>  <SCORE.SYSTEM.SOLV>
0

>  <SCORE.SYSTEM.norm>
0

>  <SCORE.heavy>
31

>  <SCORE.norm>
-0.530735

>  <RMSD>
1.136

$$$$
ligand
 OpenBabel11021811493D
libRbt.so/2013.1/901 2013/11/27
 31 33  0  0  0  0  0  0  0  0999 V2000
    2.0705   15.1590   37.0240 C   0  0  2  0  0  0  0  0  0  0  0  0
    1.4511   15.8388   38.0989 O   0  0  0  0  0  0  0  0  0  0  0  0
   -2.1423   15.3430   40.3129 C   0  0  2  0  0  0  0  0  0  0  0  0
   -3.5326   15.2269   40.5967 N   0  0  0  0  0  0  0  0  0  0  0  0
   -3.2440   12.2880   40.0837 C   0  0  2  0  0  0  0  0  0  0  0  0
    3.6396   15.1526   37.2813 C   0  0  2  0  0  0  0  0  0  0  0  0
    3.9117   14.5122   38.5637 N   0  0  0  0  0  0  0  0  0  0  0  0
   -1.8945   16.7478   39.6025 C   0  0  0  0  0  0  0  0  0  0  0  0
   -2.9560   10.8804   40.7058 C   0  0  2  0  0  0  0  0  0  0  0  0
   -2.2821   11.0577   41.9337 O   0  0  0  0  0  0  0  0  0  0  0  0
    4.2114   16.6175   37.2463 C   0  0  0  0  0  0  0  0  0  0  0  0
   -0.3457   16.8835   39.3018 C   0  0  2  0  0  0  0  0  0  0  0  0
   -0.0979   18.1735   38.6565 N   0  0  0  0  0  0  0  0  0  0  0  0
   -2.0732   10.0601   39.6962 C   0  0  1  0  0  0  0  0  0  0  0  0
   -1.7688    8.7116   40.2736 N   0  0  0  0  0  0  0  0  0  0  0  0
    3.5351   17.4865   36.1047 C   0  0  0  0  0  0  0  0  0  0  0  0
    0.0964   15.7038   38.3427 C   0  0  2  0  0  0  0  0  0  0  0  0
   -2.8989    9.8771   38.3059 C   0  0  1  0  0  0  0  0  0  0  0  0
   -4.1203    9.1842   38.4709 O   0  0  0  0  0  0  0  0  0  0  0  0
    2.4197   17.0589   35.4646 C   0  0  1  0  0  0  0  0  0  0  0  0
    1.7768   15.8207   35.7537 O   0  0  0  0  0  0  0  0  0  0  0  0
   -0.1766   14.3105   39.0484 C   0  0  2  0  0  0  0  0  0  0  0  0
    0.2153   13.2422   38.1622 O   0  0  0  0  0  0  0  0  0  0  0  0
   -3.2174   11.2822   37.7127 C   0  0  0  0  0  0  0  0  0  0  0  0
   -3.9431   12.1284   38.7445 O   0  0  0  0  0  0  0  0  0  0  0  0
    1.7417   17.8591   34.3782 C   0  0  0  0  0  0  0  0  0  0  0  0
    0.6905   18.6143   35.0181 O   0  0  0  0  0  0  0  0  0  0  0  0
   -1.7177   14.1809   39.3534 C   0  0  1  0  0  0  0  0  0  0  0  0
   -1.9339   12.9425   39.9833 O   0  0  0  0  0  0  0  0  0  0  0  0
   -2.1500    9.0973   37.2174 C   0  0  0  0  0  0  0  0  0  0  0  0
   -0.4383    8.1509   39.9594 C   0  0  0  0  0  0  0  0  0  0  0  0
  1  2  1  1  0  0  0
  1  6  1  0  0  0  0
  1 21  1  0  0  0  0
  3  4  1  6  0  0  0
  3  8  1  0  0  0  0
  3 28  1  0  0  0  0
  5  9  1  0  0  0  0
  5 25  1  0  0  0  0
  5 29  1  6  0  0  0
  6  7  1  1  0  0  0
  6 11  1  0  0  0  0
  8 12  1  0  0  0  0
  9 10  1  1  0  0  0
  9 14  1  0  0  0  0
 11 16  1  0  0  0  0
 12 13  1  6  0  0  0
 12 17  1  0  0  0  0
 14 15  1  1  0  0  0
 14 18  1  0  0  0  0
 15 31  1  0  0  0  0
 16 20  1  0  0  0  0
 17  2  1  1  0  0  0
 17 22  1  0  0  0  0
 18 19  1  1  0  0  0
 18 24  1  0  0  0  0
 18 30  1  0  0  0  0
 20 21  1  0  0  0  0
 20 26  1  1  0  0  0
 22 23  1  6  0  0  0
 22 28  1  0  0  0  0
 24 25  1  0  0  0  0
 26 27  1  0  0  0  0
 28 29  1  1  0  0  0
M  END
>  <CHROM.1>
-162.66730732,173.49306647,-144.94747304,-163.58170048,-94.99982012,79.48551465
-0.50330231,13.83235790,38.41862619,-0.87808063,-0.53543303,3.12520154

>  <Name>
ligand

>  <RI>
0

>  <Rbt.Current_Directory>
/home/itssahil/PROJECTS/Mol_Feturizer/New_Systems/rnas/4GPY

>  <Rbt.Executable>
rbdock ($Id: //depot/dev/client3/rdock/2013.1/src/exe/rbdock.cxx#4 $)

>  <Rbt.Library>
libRbt.so (2013.1, Build901 2013/11/27)

>  <Rbt.Parameter_File>
/export/apps/rDock/src/rDock_2013.1_src/data/scripts/dock_solv.prm

>  <Rbt.Receptor>
prm/pocket_docking_2.prm

>  <SCORE>
-14.7163

>  <SCORE.INTER>
-12.1411

>  <SCORE.INTER.CONST>
1

>  <SCORE.INTER.POLAR>
0

>  <SCORE.INTER.ROT>
6

>  <SCORE.INTER.SOLV>
18.7134

>  <SCORE.INTER.VDW>
-21.9319

>  <SCORE.INTER.norm>
-0.391648

>  <SCORE.INTRA>
-3.05999

>  <SCORE.INTRA.DIHEDRAL>
-6.98771

>  <SCORE.INTRA.DIHEDRAL.0>
14.7001

>  <SCORE.INTRA.POLAR>
0

>  <SCORE.INTRA.POLAR.0>
0

>  <SCORE.INTRA.REPUL>
0.00604384

>  <SCORE.INTRA.REPUL.0>
0

>  <SCORE.INTRA.SOLV>
-0.55665

>  <SCORE.INTRA.SOLV.lig_0>
-65.3082

>  <SCORE.INTRA.VDW>
0.681974

>  <SCORE.INTRA.VDW.0>
-4.21408

>  <SCORE.INTRA.norm>
-0.0987093

>  <SCORE.RESTR>
0.484802

>  <SCORE.RESTR.CAVITY>
0.484802

>  <SCORE.RESTR.norm>
0.0156388

>  <SCORE.SYSTEM>
0

>  <SCORE.SYSTEM.CONST>
0

>  <SCORE.SYSTEM.DIHEDRAL>
0

>  <SCORE.SYSTEM.SOLV>
0

>  <SCORE.SYSTEM.norm>
0

>  <SCORE.heavy>
31

>  <SCORE.norm>
-0.474718

>  <RMSD>
1.146

$$$$
ligand
 OpenBabel11021811493D
libRbt.so/2013.1/901 2013/11/27
 31 33  0  0  0  0  0  0  0  0999 V2000
    2.0626   15.1779   37.0091 C   0  0  2  0  0  0  0  0  0  0  0  0
    1.4381   15.8452   38.0889 O   0  0  0  0  0  0  0  0  0  0  0  0
   -2.1569   15.3285   40.2955 C   0  0  2  0  0  0  0  0  0  0  0  0
   -3.5469   15.2029   40.5763 N   0  0  0  0  0  0  0  0  0  0  0  0
   -3.2339   12.2606   40.0633 C   0  0  2  0  0  0  0  0  0  0  0  0
    3.6307   15.1713   37.2721 C   0  0  2  0  0  0  0  0  0  0  0  0
    3.8992   14.5177   38.5486 N   0  0  0  0  0  0  0  0  0  0  0  0
   -1.9177   16.7334   39.5822 C   0  0  0  0  0  0  0  0  0  0  0  0
   -2.9350   10.8543   40.6833 C   0  0  2  0  0  0  0  0  0  0  0  0
   -2.2702   11.0352   41.9156 O   0  0  0  0  0  0  0  0  0  0  0  0
    4.2003   16.6374   37.2547 C   0  0  0  0  0  0  0  0  0  0  0  0
   -0.3692   16.8797   39.2849 C   0  0  2  0  0  0  0  0  0  0  0  0
   -0.1293   18.1698   38.6369 N   0  0  0  0  0  0  0  0  0  0  0  0
   -2.0378   10.0459   39.6767 C   0  0  1  0  0  0  0  0  0  0  0  0
   -1.7229    8.6991   40.2523 N   0  0  0  0  0  0  0  0  0  0  0  0
    3.5266   17.5174   36.1199 C   0  0  0  0  0  0  0  0  0  0  0  0
    0.0839   15.7009   38.3298 C   0  0  2  0  0  0  0  0  0  0  0  0
   -2.8533    9.8583   38.2811 C   0  0  1  0  0  0  0  0  0  0  0  0
   -4.0685    9.1524   38.4369 O   0  0  0  0  0  0  0  0  0  0  0  0
    2.4143   17.0948   35.4713 C   0  0  1  0  0  0  0  0  0  0  0  0
    1.7724   15.8525   35.7449 O   0  0  0  0  0  0  0  0  0  0  0  0
   -0.1805   14.3074   39.0384 C   0  0  2  0  0  0  0  0  0  0  0  0
    0.2214   13.2398   38.1558 O   0  0  0  0  0  0  0  0  0  0  0  0
   -3.1828   11.2617   37.6898 C   0  0  0  0  0  0  0  0  0  0  0  0
   -3.9233   12.0975   38.7195 O   0  0  0  0  0  0  0  0  0  0  0  0
    1.7389   17.9053   34.3910 C   0  0  0  0  0  0  0  0  0  0  0  0
    0.6280   18.5821   35.0176 O   0  0  0  0  0  0  0  0  0  0  0  0
   -1.7214   14.1672   39.3400 C   0  0  1  0  0  0  0  0  0  0  0  0
   -1.9300   12.9289   39.9724 O   0  0  0  0  0  0  0  0  0  0  0  0
   -2.0899    9.0894   37.1949 C   0  0  0  0  0  0  0  0  0  0  0  0
   -0.4173    8.1171   39.8782 C   0  0  0  0  0  0  0  0  0  0  0  0
  1  2  1  1  0  0  0
  1  6  1  0  0  0  0
  1 21  1  0  0  0  0
  3  4  1  6  0  0  0
  3  8  1  0  0  0  0
  3 28  1  0  0  0  0
  5  9  1  0  0  0  0
  5 25  1  0  0  0  0
  5 29  1  6  0  0  0
  6  7  1  1  0  0  0
  6 11  1  0  0  0  0
  8 12  1  0  0  0  0
  9 10  1  1  0  0  0
  9 14  1  0  0  0  0
 11 16  1  0  0  0  0
 12 13  1  6  0  0  0
 12 17  1  0  0  0  0
 14 15  1  1  0  0  0
 14 18  1  0  0  0  0
 15 31  1  0  0  0  0
 16 20  1  0  0  0  0
 17  2  1  1  0  0  0
 17 22  1  0  0  0  0
 18 19  1  1  0  0  0
 18 24  1  0  0  0  0
 18 30  1  0  0  0  0
 20 21  1  0  0  0  0
 20 26  1  1  0  0  0
 22 23  1  6  0  0  0
 22 28  1  0  0  0  0
 24 25  1  0  0  0  0
 26 27  1  0  0  0  0
 28 29  1  1  0  0  0
M  END
>  <CHROM.1>
-162.38468340,173.08009786,-148.49755248,-162.94092684,-98.78173886,79.92621504
-0.49995183,13.82688050,38.40314977,-0.88731219,-0.53322599,3.12262468

>  <Name>
ligand

>  <RI>
0

>  <Rbt.Current_Directory>
/home/itssahil/PROJECTS/Mol_Feturizer/New_Systems/rnas/4GPY

>  <Rbt.Executable>
rbdock ($Id: //depot/dev/client3/rdock/2013.1/src/exe/rbdock.cxx#4 $)

>  <Rbt.Library>
libRbt.so (2013.1, Build901 2013/11/27)

>  <Rbt.Parameter_File>
/export/apps/rDock/src/rDock_2013.1_src/data/scripts/dock_solv.prm

>  <Rbt.Receptor>
prm/pocket_docking_2.prm

>  <SCORE>
-14.6763

>  <SCORE.INTER>
-12.19

>  <SCORE.INTER.CONST>
1

>  <SCORE.INTER.POLAR>
0

>  <SCORE.INTER.ROT>
6

>  <SCORE.INTER.SOLV>
18.652

>  <SCORE.INTER.VDW>
-21.944

>  <SCORE.INTER.norm>
-0.393227

>  <SCORE.INTRA>
-2.97235

>  <SCORE.INTRA.DIHEDRAL>
-7.04209

>  <SCORE.INTRA.DIHEDRAL.0>
14.7001

>  <SCORE.INTRA.POLAR>
0

>  <SCORE.INTRA.POLAR.0>
0

>  <SCORE.INTRA.REPUL>
0.00714339

>  <SCORE.INTRA.REPUL.0>
0

>  <SCORE.INTRA.SOLV>
-0.475894

>  <SCORE.INTRA.SOLV.lig_0>
-65.3082

>  <SCORE.INTRA.VDW>
0.750923

>  <SCORE.INTRA.VDW.0>
-4.21408

>  <SCORE.INTRA.norm>
-0.0958823

>  <SCORE.RESTR>
0.486101

>  <SCORE.RESTR.CAVITY>
0.486101

>  <SCORE.RESTR.norm>
0.0156807

>  <SCORE.SYSTEM>
0

>  <SCORE.SYSTEM.CONST>
0

>  <SCORE.SYSTEM.DIHEDRAL>
0

>  <SCORE.SYSTEM.SOLV>
0

>  <SCORE.SYSTEM.norm>
0

>  <SCORE.heavy>
31

>  <SCORE.norm>
-0.473428

>  <RMSD>
1.151

$$$$
ligand
 OpenBabel11021811493D
libRbt.so/2013.1/901 2013/11/27
 31 33  0  0  0  0  0  0  0  0999 V2000
    2.3981   15.4329   36.9924 C   0  0  2  0  0  0  0  0  0  0  0  0
    1.7019   16.0825   38.0387 O   0  0  0  0  0  0  0  0  0  0  0  0
   -1.9545   15.4158   40.0993 C   0  0  2  0  0  0  0  0  0  0  0  0
   -3.3484   15.2337   40.3242 N   0  0  0  0  0  0  0  0  0  0  0  0
   -2.9257   12.3877   39.9729 C   0  0  2  0  0  0  0  0  0  0  0  0
    3.9569   15.5840   37.2671 C   0  0  2  0  0  0  0  0  0  0  0  0
    4.2707   15.0113   38.5718 N   0  0  0  0  0  0  0  0  0  0  0  0
   -1.7438   16.8310   39.3976 C   0  0  0  0  0  0  0  0  0  0  0  0
   -2.6148   11.0013   40.6305 C   0  0  2  0  0  0  0  0  0  0  0  0
   -1.8787   11.2176   41.8157 O   0  0  0  0  0  0  0  0  0  0  0  0
    4.3874   17.0950   37.1925 C   0  0  0  0  0  0  0  0  0  0  0  0
   -0.1918   17.0403   39.1626 C   0  0  2  0  0  0  0  0  0  0  0  0
    0.0215   18.3408   38.5262 N   0  0  0  0  0  0  0  0  0  0  0  0
   -1.7890   10.1383   39.6084 C   0  0  1  0  0  0  0  0  0  0  0  0
   -1.4638    8.8092   40.2185 N   0  0  0  0  0  0  0  0  0  0  0  0
    3.6475   17.8608   36.0169 C   0  0  0  0  0  0  0  0  0  0  0  0
    0.3461   15.8832   38.2251 C   0  0  2  0  0  0  0  0  0  0  0  0
   -2.6849    9.9117   38.2690 C   0  0  1  0  0  0  0  0  0  0  0  0
   -3.9006    9.2346   38.5203 O   0  0  0  0  0  0  0  0  0  0  0  0
    2.5869   17.3096   35.3783 C   0  0  1  0  0  0  0  0  0  0  0  0
    2.0606   16.0250   35.6990 O   0  0  0  0  0  0  0  0  0  0  0  0
    0.1099   14.4784   38.9210 C   0  0  2  0  0  0  0  0  0  0  0  0
    0.5894   13.4302   38.0539 O   0  0  0  0  0  0  0  0  0  0  0  0
   -3.0247   11.2968   37.6417 C   0  0  0  0  0  0  0  0  0  0  0  0
   -3.6924   12.1853   38.6772 O   0  0  0  0  0  0  0  0  0  0  0  0
    1.8511   18.0084   34.2600 C   0  0  0  0  0  0  0  0  0  0  0  0
    0.6840   18.6178   34.8526 O   0  0  0  0  0  0  0  0  0  0  0  0
   -1.4348   14.2755   39.1607 C   0  0  1  0  0  0  0  0  0  0  0  0
   -1.6184   13.0281   39.7829 O   0  0  0  0  0  0  0  0  0  0  0  0
   -1.9966    9.0874   37.1732 C   0  0  0  0  0  0  0  0  0  0  0  0
   -0.0776    8.3295   40.0404 C   0  0  0  0  0  0  0  0  0  0  0  0
  1  2  1  1  0  0  0
  1  6  1  0  0  0  0
  1 21  1  0  0  0  0
  3  4  1  6  0  0  0
  3  8  1  0  0  0  0
  3 28  1  0  0  0  0
  5  9  1  0  0  0  0
  5 25  1  0  0  0  0
  5 29  1  6  0  0  0
  6  7  1  1  0  0  0
  6 11  1  0  0  0  0
  8 12  1  0  0  0  0
  9 10  1  1  0  0  0
  9 14  1  0  0  0  0
 11 16  1  0  0  0  0
 12 13  1  6  0  0  0
 12 17  1  0  0  0  0
 14 15  1  1  0  0  0
 14 18  1  0  0  0  0
 15 31  1  0  0  0  0
 16 20  1  0  0  0  0
 17  2  1  1  0  0  0
 17 22  1  0  0  0  0
 18 19  1  1  0  0  0
 18 24  1  0  0  0  0
 18 30  1  0  0  0  0
 20 21  1  0  0  0  0
 20 26  1  1  0  0  0
 22 23  1  6  0  0  0
 22 28  1  0  0  0  0
 24 25  1  0  0  0  0
 26 27  1  0  0  0  0
 28 29  1  1  0  0  0
M  END
>  <CHROM.1>
-166.31564792,177.01684084,-135.32438705,-163.60706949,-98.06022113,71.70973988
-0.26281763,13.99190896,38.32558902,-0.92570700,-0.46805133,3.06397770

>  <Name>
ligand

>  <RI>
0

>  <Rbt.Current_Directory>
/home/itssahil/PROJECTS/Mol_Feturizer/New_Systems/rnas/4GPY

>  <Rbt.Executable>
rbdock ($Id: //depot/dev/client3/rdock/2013.1/src/exe/rbdock.cxx#4 $)

>  <Rbt.Library>
libRbt.so (2013.1, Build901 2013/11/27)

>  <Rbt.Parameter_File>
/export/apps/rDock/src/rDock_2013.1_src/data/scripts/dock_solv.prm

>  <Rbt.Receptor>
prm/pocket_docking_5.prm

>  <SCORE>
-16.5601

>  <SCORE.INTER>
-12.6517

>  <SCORE.INTER.CONST>
1

>  <SCORE.INTER.POLAR>
0

>  <SCORE.INTER.ROT>
6

>  <SCORE.INTER.SOLV>
18.7583

>  <SCORE.INTER.VDW>
-22.2873

>  <SCORE.INTER.norm>
-0.40812

>  <SCORE.INTRA>
-3.90836

>  <SCORE.INTRA.DIHEDRAL>
-8.59623

>  <SCORE.INTRA.DIHEDRAL.0>
14.7001

>  <SCORE.INTRA.POLAR>
0

>  <SCORE.INTRA.POLAR.0>
0

>  <SCORE.INTRA.REPUL>
0.00109887

>  <SCORE.INTRA.REPUL.0>
0

>  <SCORE.INTRA.SOLV>
-0.461334

>  <SCORE.INTRA.SOLV.lig_0>
-65.3082

>  <SCORE.INTRA.VDW>
0.614934

>  <SCORE.INTRA.VDW.0>
-4.21408

>  <SCORE.INTRA.norm>
-0.126076

>  <SCORE.RESTR>
0

>  <SCORE.RESTR.CAVITY>
0

>  <SCORE.RESTR.norm>
0

>  <SCORE.SYSTEM>
0

>  <SCORE.SYSTEM.CONST>
0

>  <SCORE.SYSTEM.DIHEDRAL>
0

>  <SCORE.SYSTEM.SOLV>
0

>  <SCORE.SYSTEM.norm>
0

>  <SCORE.heavy>
31

>  <SCORE.norm>
-0.534196

>  <RMSD>
1.244

$$$$
ligand
 OpenBabel11021811493D
libRbt.so/2013.1/901 2013/11/27
 31 33  0  0  0  0  0  0  0  0999 V2000
    2.4122   15.5428   36.8714 C   0  0  2  0  0  0  0  0  0  0  0  0
    1.7274   16.1894   37.9270 O   0  0  0  0  0  0  0  0  0  0  0  0
   -1.9134   15.5316   40.0180 C   0  0  2  0  0  0  0  0  0  0  0  0
   -3.3058   15.3527   40.2545 N   0  0  0  0  0  0  0  0  0  0  0  0
   -2.8965   12.5407   39.9699 C   0  0  2  0  0  0  0  0  0  0  0  0
    3.9737   15.7154   37.1159 C   0  0  2  0  0  0  0  0  0  0  0  0
    4.3193   15.1541   38.4174 N   0  0  0  0  0  0  0  0  0  0  0  0
   -1.7053   16.9461   39.3140 C   0  0  0  0  0  0  0  0  0  0  0  0
   -2.5874   11.1752   40.6707 C   0  0  2  0  0  0  0  0  0  0  0  0
   -1.7977   11.4223   41.8147 O   0  0  0  0  0  0  0  0  0  0  0  0
    4.3832   17.2313   37.0251 C   0  0  0  0  0  0  0  0  0  0  0  0
   -0.1549   17.1518   39.0661 C   0  0  2  0  0  0  0  0  0  0  0  0
    0.0560   18.4515   38.4273 N   0  0  0  0  0  0  0  0  0  0  0  0
   -1.8237   10.2532   39.6519 C   0  0  1  0  0  0  0  0  0  0  0  0
   -1.5011    8.9427   40.3023 N   0  0  0  0  0  0  0  0  0  0  0  0
    3.6116   17.9810   35.8595 C   0  0  0  0  0  0  0  0  0  0  0  0
    0.3727   15.9931   38.1247 C   0  0  2  0  0  0  0  0  0  0  0  0
   -2.7797    9.9932   38.3609 C   0  0  1  0  0  0  0  0  0  0  0  0
   -3.9976    9.3546   38.6898 O   0  0  0  0  0  0  0  0  0  0  0  0
    2.5464   17.4127   35.2439 C   0  0  1  0  0  0  0  0  0  0  0  0
    2.0428   16.1233   35.5813 O   0  0  0  0  0  0  0  0  0  0  0  0
    0.1392   14.5891   38.8232 C   0  0  2  0  0  0  0  0  0  0  0  0
    0.6092   13.5395   37.9527 O   0  0  0  0  0  0  0  0  0  0  0  0
   -3.1164   11.3593   37.6917 C   0  0  0  0  0  0  0  0  0  0  0  0
   -3.7211   12.3037   38.7163 O   0  0  0  0  0  0  0  0  0  0  0  0
    1.7808   18.0958   34.1359 C   0  0  0  0  0  0  0  0  0  0  0  0
    0.7188   18.8420   34.7685 O   0  0  0  0  0  0  0  0  0  0  0  0
   -1.4040   14.3898   39.0757 C   0  0  1  0  0  0  0  0  0  0  0  0
   -1.5852   13.1430   39.7000 O   0  0  0  0  0  0  0  0  0  0  0  0
   -2.1555    9.1100   37.2727 C   0  0  0  0  0  0  0  0  0  0  0  0
   -0.0663    8.6265   40.4599 C   0  0  0  0  0  0  0  0  0  0  0  0
  1  2  1  1  0  0  0
  1  6  1  0  0  0  0
  1 21  1  0  0  0  0
  3  4  1  6  0  0  0
  3  8  1  0  0  0  0
  3 28  1  0  0  0  0
  5  9  1  0  0  0  0
  5 25  1  0  0  0  0
  5 29  1  6  0  0  0
  6  7  1  1  0  0  0
  6 11  1  0  0  0  0
  8 12  1  0  0  0  0
  9 10  1  1  0  0  0
  9 14  1  0  0  0  0
 11 16  1  0  0  0  0
 12 13  1  6  0  0  0
 12 17  1  0  0  0  0
 14 15  1  1  0  0  0
 14 18  1  0  0  0  0
 15 31  1  0  0  0  0
 16 20  1  0  0  0  0
 17  2  1  1  0  0  0
 17 22  1  0  0  0  0
 18 19  1  1  0  0  0
 18 24  1  0  0  0  0
 18 30  1  0  0  0  0
 20 21  1  0  0  0  0
 20 26  1  1  0  0  0
 22 23  1  6  0  0  0
 22 28  1  0  0  0  0
 24 25  1  0  0  0  0
 26 27  1  0  0  0  0
 28 29  1  1  0  0  0
M  END
>  <CHROM.1>
-167.53618114,-179.86525009,-116.68738773,-163.29213912,-90.55679294,68.06421049
-0.26577307,14.11772064,38.28896844,-0.93664719,-0.44156764,3.01452414

>  <Name>
ligand

>  <RI>
0

>  <Rbt.Current_Directory>
/home/itssahil/PROJECTS/Mol_Feturizer/New_Systems/rnas/4GPY

>  <Rbt.Executable>
rbdock ($Id: //depot/dev/client3/rdock/2013.1/src/exe/rbdock.cxx#4 $)

>  <Rbt.Library>
libRbt.so (2013.1, Build901 2013/11/27)

>  <Rbt.Parameter_File>
/export/apps/rDock/src/rDock_2013.1_src/data/scripts/dock_solv.prm

>  <Rbt.Receptor>
prm/pocket_docking_6.prm

>  <SCORE>
-16.4048

>  <SCORE.INTER>
-12.584

>  <SCORE.INTER.CONST>
1

>  <SCORE.INTER.POLAR>
0

>  <SCORE.INTER.ROT>
6

>  <SCORE.INTER.SOLV>
19.4564

>  <SCORE.INTER.VDW>
-22.4748

>  <SCORE.INTER.norm>
-0.405934

>  <SCORE.INTRA>
-3.8208

>  <SCORE.INTRA.DIHEDRAL>
-8.53979

>  <SCORE.INTRA.DIHEDRAL.0>
14.7001

>  <SCORE.INTRA.POLAR>
0

>  <SCORE.INTRA.POLAR.0>
0

>  <SCORE.INTRA.REPUL>
0.000964513

>  <SCORE.INTRA.REPUL.0>
0

>  <SCORE.INTRA.SOLV>
-0.408732

>  <SCORE.INTRA.SOLV.lig_0>
-65.3082

>  <SCORE.INTRA.VDW>
0.648638

>  <SCORE.INTRA.VDW.0>
-4.21408

>  <SCORE.INTRA.norm>
-0.123252

>  <SCORE.RESTR>
0

>  <SCORE.RESTR.CAVITY>
0

>  <SCORE.RESTR.norm>
0

>  <SCORE.SYSTEM>
0

>  <SCORE.SYSTEM.CONST>
0

>  <SCORE.SYSTEM.DIHEDRAL>
0

>  <SCORE.SYSTEM.SOLV>
0

>  <SCORE.SYSTEM.norm>
0

>  <SCORE.heavy>
31

>  <SCORE.norm>
-0.529186

>  <RMSD>
1.245

$$$$
ligand
 OpenBabel11021811493D
libRbt.so/2013.1/901 2013/11/27
 31 33  0  0  0  0  0  0  0  0999 V2000
    2.4686   15.4896   36.6694 C   0  0  2  0  0  0  0  0  0  0  0  0
    1.7879   16.0801   37.7600 O   0  0  0  0  0  0  0  0  0  0  0  0
   -1.8461   15.3476   39.8380 C   0  0  2  0  0  0  0  0  0  0  0  0
   -3.2371   15.1545   40.0715 N   0  0  0  0  0  0  0  0  0  0  0  0
   -2.8018   12.2974   39.5985 C   0  0  2  0  0  0  0  0  0  0  0  0
    4.0308   15.6639   36.9086 C   0  0  2  0  0  0  0  0  0  0  0  0
    4.3924   15.0451   38.1794 N   0  0  0  0  0  0  0  0  0  0  0  0
   -1.6473   16.7809   39.1702 C   0  0  0  0  0  0  0  0  0  0  0  0
   -2.4899   10.9447   40.3223 C   0  0  2  0  0  0  0  0  0  0  0  0
   -1.8286   11.2239   41.5380 O   0  0  0  0  0  0  0  0  0  0  0  0
    4.4271   17.1858   36.8856 C   0  0  0  0  0  0  0  0  0  0  0  0
   -0.0984   17.0020   38.9256 C   0  0  2  0  0  0  0  0  0  0  0  0
    0.1040   18.3188   38.3201 N   0  0  0  0  0  0  0  0  0  0  0  0
   -1.5835   10.0720   39.3797 C   0  0  1  0  0  0  0  0  0  0  0  0
   -1.2562    8.7752   40.0548 N   0  0  0  0  0  0  0  0  0  0  0  0
    3.6392   17.9827   35.7631 C   0  0  0  0  0  0  0  0  0  0  0  0
    0.4346   15.8709   37.9543 C   0  0  2  0  0  0  0  0  0  0  0  0
   -2.3953    9.7722   38.0016 C   0  0  1  0  0  0  0  0  0  0  0  0
   -3.6037    9.0680   38.2092 O   0  0  0  0  0  0  0  0  0  0  0  0
    2.5732   17.4348   35.1305 C   0  0  1  0  0  0  0  0  0  0  0  0
    2.0831   16.1267   35.4112 O   0  0  0  0  0  0  0  0  0  0  0  0
    0.2103   14.4481   38.6169 C   0  0  2  0  0  0  0  0  0  0  0  0
    0.6852   13.4238   37.7192 O   0  0  0  0  0  0  0  0  0  0  0  0
   -2.7378   11.1240   37.3066 C   0  0  0  0  0  0  0  0  0  0  0  0
   -3.4878   12.0273   38.2703 O   0  0  0  0  0  0  0  0  0  0  0  0
    1.7923   18.1625   34.0623 C   0  0  0  0  0  0  0  0  0  0  0  0
    0.6952   18.8214   34.7309 O   0  0  0  0  0  0  0  0  0  0  0  0
   -1.3314   14.2333   38.8661 C   0  0  1  0  0  0  0  0  0  0  0  0
   -1.5044   12.9699   39.4585 O   0  0  0  0  0  0  0  0  0  0  0  0
   -1.6230    8.9316   36.9765 C   0  0  0  0  0  0  0  0  0  0  0  0
    0.1292    8.6254   40.5464 C   0  0  0  0  0  0  0  0  0  0  0  0
  1  2  1  1  0  0  0
  1  6  1  0  0  0  0
  1 21  1  0  0  0  0
  3  4  1  6  0  0  0
  3  8  1  0  0  0  0
  3 28  1  0  0  0  0
  5  9  1  0  0  0  0
  5 25  1  0  0  0  0
  5 29  1  6  0  0  0
  6  7  1  1  0  0  0
  6 11  1  0  0  0  0
  8 12  1  0  0  0  0
  9 10  1  1  0  0  0
  9 14  1  0  0  0  0
 11 16  1  0  0  0  0
 12 13  1  6  0  0  0
 12 17  1  0  0  0  0
 14 15  1  1  0  0  0
 14 18  1  0  0  0  0
 15 31  1  0  0  0  0
 16 20  1  0  0  0  0
 17  2  1  1  0  0  0
 17 22  1  0  0  0  0
 18 19  1  1  0  0  0
 18 24  1  0  0  0  0
 18 30  1  0  0  0  0
 20 21  1  0  0  0  0
 20 26  1  1  0  0  0
 22 23  1  6  0  0  0
 22 28  1  0  0  0  0
 24 25  1  0  0  0  0
 26 27  1  0  0  0  0
 28 29  1  1  0  0  0
M  END
>  <CHROM.1>
-167.99968980,-179.41874588,-107.11737117,-161.81505780,-93.01753184,74.14867558
-0.14295578,13.98712337,38.07401071,-0.96507838,-0.45599137,3.03296903

>  <Name>
ligand

>  <RI>
0

>  <Rbt.Current_Directory>
/home/itssahil/PROJECTS/Mol_Feturizer/New_Systems/rnas/4GPY

>  <Rbt.Executable>
rbdock ($Id: //depot/dev/client3/rdock/2013.1/src/exe/rbdock.cxx#4 $)

>  <Rbt.Library>
libRbt.so (2013.1, Build901 2013/11/27)

>  <Rbt.Parameter_File>
/export/apps/rDock/src/rDock_2013.1_src/data/scripts/dock_solv.prm

>  <Rbt.Receptor>
prm/pocket_docking_3.prm

>  <SCORE>
-15.6596

>  <SCORE.INTER>
-12.1453

>  <SCORE.INTER.CONST>
1

>  <SCORE.INTER.POLAR>
0

>  <SCORE.INTER.ROT>
6

>  <SCORE.INTER.SOLV>
19.2224

>  <SCORE.INTER.VDW>
-22.1043

>  <SCORE.INTER.norm>
-0.391785

>  <SCORE.INTRA>
-3.73434

>  <SCORE.INTRA.DIHEDRAL>
-7.9895

>  <SCORE.INTRA.DIHEDRAL.0>
14.7001

>  <SCORE.INTRA.POLAR>
0

>  <SCORE.INTRA.POLAR.0>
0

>  <SCORE.INTRA.REPUL>
0.00283458

>  <SCORE.INTRA.REPUL.0>
0

>  <SCORE.INTRA.SOLV>
-0.36651

>  <SCORE.INTRA.SOLV.lig_0>
-65.3082

>  <SCORE.INTRA.VDW>
0.429488

>  <SCORE.INTRA.VDW.0>
-4.21408

>  <SCORE.INTRA.norm>
-0.120463

>  <SCORE.RESTR>
0.2201

>  <SCORE.RESTR.CAVITY>
0.2201

>  <SCORE.RESTR.norm>
0.00710001

>  <SCORE.SYSTEM>
0

>  <SCORE.SYSTEM.CONST>
0

>  <SCORE.SYSTEM.DIHEDRAL>
0

>  <SCORE.SYSTEM.SOLV>
0

>  <SCORE.SYSTEM.norm>
0

>  <SCORE.heavy>
31

>  <SCORE.norm>
-0.505147

>  <RMSD>
1.257

$$$$
ligand
 OpenBabel11021811493D
libRbt.so/2013.1/901 2013/11/27
 31 33  0  0  0  0  0  0  0  0999 V2000
    2.4062   15.4128   36.9517 C   0  0  2  0  0  0  0  0  0  0  0  0
    1.7183   16.0679   38.0000 O   0  0  0  0  0  0  0  0  0  0  0  0
   -1.9176   15.3769   40.0887 C   0  0  2  0  0  0  0  0  0  0  0  0
   -3.3097   15.1956   40.3257 N   0  0  0  0  0  0  0  0  0  0  0  0
   -2.8999   12.3489   39.9067 C   0  0  2  0  0  0  0  0  0  0  0  0
    3.9670   15.5928   37.1961 C   0  0  2  0  0  0  0  0  0  0  0  0
    4.3130   15.0459   38.5037 N   0  0  0  0  0  0  0  0  0  0  0  0
   -1.7095   16.8038   39.4102 C   0  0  0  0  0  0  0  0  0  0  0  0
   -2.5876   10.9589   40.5560 C   0  0  2  0  0  0  0  0  0  0  0  0
   -1.8565   11.1690   41.7453 O   0  0  0  0  0  0  0  0  0  0  0  0
    4.3718   17.1091   37.0903 C   0  0  0  0  0  0  0  0  0  0  0  0
   -0.1595   17.0119   39.1617 C   0  0  2  0  0  0  0  0  0  0  0  0
    0.0515   18.3228   38.5463 N   0  0  0  0  0  0  0  0  0  0  0  0
   -1.7558   10.1052   39.5310 C   0  0  1  0  0  0  0  0  0  0  0  0
   -1.4291    8.7728   40.1331 N   0  0  0  0  0  0  0  0  0  0  0  0
    3.5991   17.8444   35.9163 C   0  0  0  0  0  0  0  0  0  0  0  0
    0.3639   15.8700   38.1978 C   0  0  2  0  0  0  0  0  0  0  0  0
   -2.6461    9.8853   38.1867 C   0  0  1  0  0  0  0  0  0  0  0  0
   -3.8608    9.2033   38.4289 O   0  0  0  0  0  0  0  0  0  0  0  0
    2.5364   17.2665   35.3054 C   0  0  1  0  0  0  0  0  0  0  0  0
    2.0365   15.9790   35.6554 O   0  0  0  0  0  0  0  0  0  0  0  0
    0.1303   14.4537   38.8711 C   0  0  2  0  0  0  0  0  0  0  0  0
    0.5964   13.4195   37.9802 O   0  0  0  0  0  0  0  0  0  0  0  0
   -2.9874   11.2739   37.5678 C   0  0  0  0  0  0  0  0  0  0  0  0
   -3.6613   12.1533   38.6069 O   0  0  0  0  0  0  0  0  0  0  0  0
    1.7698   17.9358   34.1897 C   0  0  0  0  0  0  0  0  0  0  0  0
    0.6606   18.6238   34.8071 O   0  0  0  0  0  0  0  0  0  0  0  0
   -1.4125   14.2519   39.1242 C   0  0  1  0  0  0  0  0  0  0  0  0
   -1.5937   12.9941   39.7260 O   0  0  0  0  0  0  0  0  0  0  0  0
   -1.9515    9.0705   37.0879 C   0  0  0  0  0  0  0  0  0  0  0  0
   -0.0208    8.3372   40.0323 C   0  0  0  0  0  0  0  0  0  0  0  0
  1  2  1  1  0  0  0
  1  6  1  0  0  0  0
  1 21  1  0  0  0  0
  3  4  1  6  0  0  0
  3  8  1  0  0  0  0
  3 28  1  0  0  0  0
  5  9  1  0  0  0  0
  5 25  1  0  0  0  0
  5 29  1  6  0  0  0
  6  7  1  1  0  0  0
  6 11  1  0  0  0  0
  8 12  1  0  0  0  0
  9 10  1  1  0  0  0
  9 14  1  0  0  0  0
 11 16  1  0  0  0  0
 12 13  1  6  0  0  0
 12 17  1  0  0  0  0
 14 15  1  1  0  0  0
 14 18  1  0  0  0  0
 15 31  1  0  0  0  0
 16 20  1  0  0  0  0
 17  2  1  1  0  0  0
 17 22  1  0  0  0  0
 18 19  1  1  0  0  0
 18 24  1  0  0  0  0
 18 30  1  0  0  0  0
 20 21  1  0  0  0  0
 20 26  1  1  0  0  0
 22 23  1  6  0  0  0
 22 28  1  0  0  0  0
 24 25  1  0  0  0  0
 26 27  1  0  0  0  0
 28 29  1  1  0  0  0
M  END
>  <CHROM.1>
-167.56967014,177.62983381,-131.54940651,-164.94353756,-93.69244140,72.35556577
-0.24712044,13.96854014,38.27177569,-0.92359741,-0.48876743,3.08025775

>  <Name>
ligand

>  <RI>
0

>  <Rbt.Current_Directory>
/home/itssahil/PROJECTS/Mol_Feturizer/New_Systems/rnas/4GPY

>  <Rbt.Executable>
rbdock ($Id: //depot/dev/client3/rdock/2013.1/src/exe/rbdock.cxx#4 $)

>  <Rbt.Library>
libRbt.so (2013.1, Build901 2013/11/27)

>  <Rbt.Parameter_File>
/export/apps/rDock/src/rDock_2013.1_src/data/scripts/dock_solv.prm

>  <Rbt.Receptor>
prm/pocket_docking_5.prm

>  <SCORE>
-16.5021

>  <SCORE.INTER>
-12.4897

>  <SCORE.INTER.CONST>
1

>  <SCORE.INTER.POLAR>
0

>  <SCORE.INTER.ROT>
6

>  <SCORE.INTER.SOLV>
18.9294

>  <SCORE.INTER.VDW>
-22.2362

>  <SCORE.INTER.norm>
-0.402892

>  <SCORE.INTRA>
-4.01245

>  <SCORE.INTRA.DIHEDRAL>
-8.5893

>  <SCORE.INTRA.DIHEDRAL.0>
14.7001

>  <SCORE.INTRA.POLAR>
0

>  <SCORE.INTRA.POLAR.0>
0

>  <SCORE.INTRA.REPUL>
0.00017719

>  <SCORE.INTRA.REPUL.0>
0

>  <SCORE.INTRA.SOLV>
-0.662559

>  <SCORE.INTRA.SOLV.lig_0>
-65.3082

>  <SCORE.INTRA.VDW>
0.612593

>  <SCORE.INTRA.VDW.0>
-4.21408

>  <SCORE.INTRA.norm>
-0.129434

>  <SCORE.RESTR>
0

>  <SCORE.RESTR.CAVITY>
0

>  <SCORE.RESTR.norm>
0

>  <SCORE.SYSTEM>
0

>  <SCORE.SYSTEM.CONST>
0

>  <SCORE.SYSTEM.DIHEDRAL>
0

>  <SCORE.SYSTEM.SOLV>
0

>  <SCORE.SYSTEM.norm>
0

>  <SCORE.heavy>
31

>  <SCORE.norm>
-0.532326

>  <RMSD>
1.260

$$$$
ligand
 OpenBabel11021811493D
libRbt.so/2013.1/901 2013/11/27
 31 33  0  0  0  0  0  0  0  0999 V2000
    2.4788   15.3811   37.0265 C   0  0  2  0  0  0  0  0  0  0  0  0
    1.7588   16.0072   38.0709 O   0  0  0  0  0  0  0  0  0  0  0  0
   -1.9351   15.3255   40.0584 C   0  0  2  0  0  0  0  0  0  0  0  0
   -3.3315   15.1295   40.2545 N   0  0  0  0  0  0  0  0  0  0  0  0
   -2.8699   12.2978   39.9811 C   0  0  2  0  0  0  0  0  0  0  0  0
    4.0309   15.5878   37.3027 C   0  0  2  0  0  0  0  0  0  0  0  0
    4.3633   15.0286   38.6086 N   0  0  0  0  0  0  0  0  0  0  0  0
   -1.7256   16.7329   39.3407 C   0  0  0  0  0  0  0  0  0  0  0  0
   -2.5555   10.9046   40.6224 C   0  0  2  0  0  0  0  0  0  0  0  0
   -1.8082   11.1082   41.8028 O   0  0  0  0  0  0  0  0  0  0  0  0
    4.4077   17.1130   37.2261 C   0  0  0  0  0  0  0  0  0  0  0  0
   -0.1713   16.9579   39.1375 C   0  0  2  0  0  0  0  0  0  0  0  0
    0.0407   18.2514   38.4867 N   0  0  0  0  0  0  0  0  0  0  0  0
   -1.7407   10.0501   39.5844 C   0  0  1  0  0  0  0  0  0  0  0  0
   -1.4123    8.7147   40.1787 N   0  0  0  0  0  0  0  0  0  0  0  0
    3.6425   17.8502   36.0485 C   0  0  0  0  0  0  0  0  0  0  0  0
    0.4016   15.7939   38.2297 C   0  0  2  0  0  0  0  0  0  0  0  0
   -2.6493    9.8380   38.2512 C   0  0  1  0  0  0  0  0  0  0  0  0
   -3.8637    9.1606   38.5071 O   0  0  0  0  0  0  0  0  0  0  0  0
    2.6028   17.2608   35.4096 C   0  0  1  0  0  0  0  0  0  0  0  0
    2.1220   15.9588   35.7317 O   0  0  0  0  0  0  0  0  0  0  0  0
    0.1666   14.3966   38.9410 C   0  0  2  0  0  0  0  0  0  0  0  0
    0.6782   13.3418   38.1007 O   0  0  0  0  0  0  0  0  0  0  0  0
   -2.9923   11.2298   37.6405 C   0  0  0  0  0  0  0  0  0  0  0  0
   -3.6488   12.1093   38.6906 O   0  0  0  0  0  0  0  0  0  0  0  0
    1.8439   17.9313   34.2893 C   0  0  0  0  0  0  0  0  0  0  0  0
    0.6781   18.5382   34.8871 O   0  0  0  0  0  0  0  0  0  0  0  0
   -1.3807   14.1782   39.1488 C   0  0  1  0  0  0  0  0  0  0  0  0
   -1.5633   12.9378   39.7853 O   0  0  0  0  0  0  0  0  0  0  0  0
   -1.9725    9.0232   37.1413 C   0  0  0  0  0  0  0  0  0  0  0  0
   -0.0045    8.2791   40.0703 C   0  0  0  0  0  0  0  0  0  0  0  0
  1  2  1  1  0  0  0
  1  6  1  0  0  0  0
  1 21  1  0  0  0  0
  3  4  1  6  0  0  0
  3  8  1  0  0  0  0
  3 28  1  0  0  0  0
  5  9  1  0  0  0  0
  5 25  1  0  0  0  0
  5 29  1  6  0  0  0
  6  7  1  1  0  0  0
  6 11  1  0  0  0  0
  8 12  1  0  0  0  0
  9 10  1  1  0  0  0
  9 14  1  0  0  0  0
 11 16  1  0  0  0  0
 12 13  1  6  0  0  0
 12 17  1  0  0  0  0
 14 15  1  1  0  0  0
 14 18  1  0  0  0  0
 15 31  1  0  0  0  0
 16 20  1  0  0  0  0
 17  2  1  1  0  0  0
 17 22  1  0  0  0  0
 18 19  1  1  0  0  0
 18 24  1  0  0  0  0
 18 30  1  0  0  0  0
 20 21  1  0  0  0  0
 20 26  1  1  0  0  0
 22 23  1  6  0  0  0
 22 28  1  0  0  0  0
 24 25  1  0  0  0  0
 26 27  1  0  0  0  0
 28 29  1  1  0  0  0
M  END
>  <CHROM.1>
-168.43266156,175.64646274,-130.96353925,-161.75556320,-96.18718790,70.32651475
-0.22006861,13.92177698,38.32827356,-0.93988597,-0.43280539,3.04127025

>  <Name>
ligand

>  <RI>
0

>  <Rbt.Current_Directory>
/home/itssahil/PROJECTS/Mol_Feturizer/New_Systems/rnas/4GPY

>  <Rbt.Executable>
rbdock ($Id: //depot/dev/client3/rdock/2013.1/src/exe/rbdock.cxx#4 $)

>  <Rbt.Library>
libRbt.so (2013.1, Build901 2013/11/27)

>  <Rbt.Parameter_File>
/export/apps/rDock/src/rDock_2013.1_src/data/scripts/dock_solv.prm

>  <Rbt.Receptor>
prm/pocket_docking_8.prm

>  <SCORE>
-16.5858

>  <SCORE.INTER>
-12.7675

>  <SCORE.INTER.CONST>
1

>  <SCORE.INTER.POLAR>
0

>  <SCORE.INTER.ROT>
6

>  <SCORE.INTER.SOLV>
18.454

>  <SCORE.INTER.VDW>
-22.263

>  <SCORE.INTER.norm>
-0.411854

>  <SCORE.INTRA>
-3.81827

>  <SCORE.INTRA.DIHEDRAL>
-8.48457

>  <SCORE.INTRA.DIHEDRAL.0>
14.7001

>  <SCORE.INTRA.POLAR>
0

>  <SCORE.INTRA.POLAR.0>
0

>  <SCORE.INTRA.REPUL>
0.001953

>  <SCORE.INTRA.REPUL.0>
0

>  <SCORE.INTRA.SOLV>
-0.264241

>  <SCORE.INTRA.SOLV.lig_0>
-65.3082

>  <SCORE.INTRA.VDW>
0.546365

>  <SCORE.INTRA.VDW.0>
-4.21408

>  <SCORE.INTRA.norm>
-0.12317

>  <SCORE.RESTR>
0

>  <SCORE.RESTR.CAVITY>
0

>  <SCORE.RESTR.norm>
0

>  <SCORE.SYSTEM>
0

>  <SCORE.SYSTEM.CONST>
0

>  <SCORE.SYSTEM.DIHEDRAL>
0

>  <SCORE.SYSTEM.SOLV>
0

>  <SCORE.SYSTEM.norm>
0

>  <SCORE.heavy>
31

>  <SCORE.norm>
-0.535025

>  <RMSD>
1.269

$$$$
ligand
 OpenBabel11021811493D
libRbt.so/2013.1/901 2013/11/27
 31 33  0  0  0  0  0  0  0  0999 V2000
    2.4881   15.4816   36.8987 C   0  0  2  0  0  0  0  0  0  0  0  0
    1.7844   16.1195   37.9471 O   0  0  0  0  0  0  0  0  0  0  0  0
   -1.8786   15.4395   39.9917 C   0  0  2  0  0  0  0  0  0  0  0  0
   -3.2723   15.2481   40.2099 N   0  0  0  0  0  0  0  0  0  0  0  0
   -2.8286   12.4215   39.9185 C   0  0  2  0  0  0  0  0  0  0  0  0
    4.0441   15.6963   37.1450 C   0  0  2  0  0  0  0  0  0  0  0  0
    4.4009   15.1555   38.4522 N   0  0  0  0  0  0  0  0  0  0  0  0
   -1.6749   16.8510   39.2805 C   0  0  0  0  0  0  0  0  0  0  0  0
   -2.5126   11.0418   40.5876 C   0  0  2  0  0  0  0  0  0  0  0  0
   -1.7528   11.2688   41.7556 O   0  0  0  0  0  0  0  0  0  0  0  0
    4.4148   17.2214   37.0418 C   0  0  0  0  0  0  0  0  0  0  0  0
   -0.1233   17.0707   39.0527 C   0  0  2  0  0  0  0  0  0  0  0  0
    0.0835   18.3680   38.4076 N   0  0  0  0  0  0  0  0  0  0  0  0
   -1.7112   10.1614   39.5608 C   0  0  1  0  0  0  0  0  0  0  0  0
   -1.3814    8.8383   40.1814 N   0  0  0  0  0  0  0  0  0  0  0  0
    3.6270   17.9409   35.8680 C   0  0  0  0  0  0  0  0  0  0  0  0
    0.4291   15.9109   38.1272 C   0  0  2  0  0  0  0  0  0  0  0  0
   -2.6338    9.9230   38.2417 C   0  0  1  0  0  0  0  0  0  0  0  0
   -3.8480    9.2559   38.5248 O   0  0  0  0  0  0  0  0  0  0  0  0
    2.5782   17.3401   35.2552 C   0  0  1  0  0  0  0  0  0  0  0  0
    2.1071   16.0411   35.6028 O   0  0  0  0  0  0  0  0  0  0  0  0
    0.2000   14.5095   38.8325 C   0  0  2  0  0  0  0  0  0  0  0  0
    0.6927   13.4586   37.9763 O   0  0  0  0  0  0  0  0  0  0  0  0
   -2.9782   11.3021   37.6037 C   0  0  0  0  0  0  0  0  0  0  0  0
   -3.6211   12.2071   38.6404 O   0  0  0  0  0  0  0  0  0  0  0  0
    1.7980   17.9935   34.1396 C   0  0  0  0  0  0  0  0  0  0  0  0
    0.6955   18.6890   34.7605 O   0  0  0  0  0  0  0  0  0  0  0  0
   -1.3445   14.2963   39.0648 C   0  0  1  0  0  0  0  0  0  0  0  0
   -1.5219   13.0522   39.6955 O   0  0  0  0  0  0  0  0  0  0  0  0
   -1.9710    9.0812   37.1436 C   0  0  0  0  0  0  0  0  0  0  0  0
    0.0527    8.4900   40.2552 C   0  0  0  0  0  0  0  0  0  0  0  0
  1  2  1  1  0  0  0
  1  6  1  0  0  0  0
  1 21  1  0  0  0  0
  3  4  1  6  0  0  0
  3  8  1  0  0  0  0
  3 28  1  0  0  0  0
  5  9  1  0  0  0  0
  5 25  1  0  0  0  0
  5 29  1  6  0  0  0
  6  7  1  1  0  0  0
  6 11  1  0  0  0  0
  8 12  1  0  0  0  0
  9 10  1  1  0  0  0
  9 14  1  0  0  0  0
 11 16  1  0  0  0  0
 12 13  1  6  0  0  0
 12 17  1  0  0  0  0
 14 15  1  1  0  0  0
 14 18  1  0  0  0  0
 15 31  1  0  0  0  0
 16 20  1  0  0  0  0
 17  2  1  1  0  0  0
 17 22  1  0  0  0  0
 18 19  1  1  0  0  0
 18 24  1  0  0  0  0
 18 30  1  0  0  0  0
 20 21  1  0  0  0  0
 20 26  1  1  0  0  0
 22 23  1  6  0  0  0
 22 28  1  0  0  0  0
 24 25  1  0  0  0  0
 26 27  1  0  0  0  0
 28 29  1  1  0  0  0
M  END
>  <CHROM.1>
-168.83727587,177.61018945,-121.82324015,-162.73375180,-92.01314143,69.80744929
-0.19593987,14.03366396,38.25171181,-0.94291782,-0.44219618,3.02735521

>  <Name>
ligand

>  <RI>
0

>  <Rbt.Current_Directory>
/home/itssahil/PROJECTS/Mol_Feturizer/New_Systems/rnas/4GPY

>  <Rbt.Executable>
rbdock ($Id: //depot/dev/client3/rdock/2013.1/src/exe/rbdock.cxx#4 $)

>  <Rbt.Library>
libRbt.so (2013.1, Build901 2013/11/27)

>  <Rbt.Parameter_File>
/export/apps/rDock/src/rDock_2013.1_src/data/scripts/dock_solv.prm

>  <Rbt.Receptor>
prm/pocket_docking_5.prm

>  <SCORE>
-16.5344

>  <SCORE.INTER>
-12.6537

>  <SCORE.INTER.CONST>
1

>  <SCORE.INTER.POLAR>
0

>  <SCORE.INTER.ROT>
6

>  <SCORE.INTER.SOLV>
18.9995

>  <SCORE.INTER.VDW>
-22.369

>  <SCORE.INTER.norm>
-0.408185

>  <SCORE.INTRA>
-3.8807

>  <SCORE.INTRA.DIHEDRAL>
-8.49108

>  <SCORE.INTRA.DIHEDRAL.0>
14.7001

>  <SCORE.INTRA.POLAR>
0

>  <SCORE.INTRA.POLAR.0>
0

>  <SCORE.INTRA.REPUL>
0.000960301

>  <SCORE.INTRA.REPUL.0>
0

>  <SCORE.INTRA.SOLV>
-0.388619

>  <SCORE.INTRA.SOLV.lig_0>
-65.3082

>  <SCORE.INTRA.VDW>
0.554347

>  <SCORE.INTRA.VDW.0>
-4.21408

>  <SCORE.INTRA.norm>
-0.125184

>  <SCORE.RESTR>
0

>  <SCORE.RESTR.CAVITY>
0

>  <SCORE.RESTR.norm>
0

>  <SCORE.SYSTEM>
0

>  <SCORE.SYSTEM.CONST>
0

>  <SCORE.SYSTEM.DIHEDRAL>
0

>  <SCORE.SYSTEM.SOLV>
0

>  <SCORE.SYSTEM.norm>
0

>  <SCORE.heavy>
31

>  <SCORE.norm>
-0.533369

>  <RMSD>
1.281

$$$$
ligand
 OpenBabel11021811493D
libRbt.so/2013.1/901 2013/11/27
 31 33  0  0  0  0  0  0  0  0999 V2000
    2.3921   15.4779   36.9339 C   0  0  2  0  0  0  0  0  0  0  0  0
    1.7299   15.9955   38.0719 O   0  0  0  0  0  0  0  0  0  0  0  0
   -1.9190   15.3213   40.1434 C   0  0  2  0  0  0  0  0  0  0  0  0
   -3.3119   15.1365   40.3725 N   0  0  0  0  0  0  0  0  0  0  0  0
   -2.8856   12.2948   40.0255 C   0  0  2  0  0  0  0  0  0  0  0  0
    3.9576   15.5289   37.2069 C   0  0  2  0  0  0  0  0  0  0  0  0
    4.2587   14.7624   38.4112 N   0  0  0  0  0  0  0  0  0  0  0  0
   -1.7130   16.7371   39.4416 C   0  0  0  0  0  0  0  0  0  0  0  0
   -2.5687   10.8957   40.6527 C   0  0  2  0  0  0  0  0  0  0  0  0
   -1.8120   11.0881   41.8290 O   0  0  0  0  0  0  0  0  0  0  0  0
    4.4465   17.0175   37.3449 C   0  0  0  0  0  0  0  0  0  0  0  0
   -0.1622   16.9494   39.2018 C   0  0  2  0  0  0  0  0  0  0  0  0
    0.0468   18.2504   38.5652 N   0  0  0  0  0  0  0  0  0  0  0  0
   -1.7632   10.0487   39.6014 C   0  0  1  0  0  0  0  0  0  0  0  0
   -1.4325    8.7077   40.1818 N   0  0  0  0  0  0  0  0  0  0  0  0
    3.7283   17.9724   36.3017 C   0  0  0  0  0  0  0  0  0  0  0  0
    0.3750   15.7936   38.2623 C   0  0  2  0  0  0  0  0  0  0  0  0
   -2.6822    9.8493   38.2733 C   0  0  1  0  0  0  0  0  0  0  0  0
   -3.8958    9.1717   38.5327 O   0  0  0  0  0  0  0  0  0  0  0  0
    2.6420   17.5596   35.6045 C   0  0  1  0  0  0  0  0  0  0  0  0
    2.0681   16.2629   35.7437 O   0  0  0  0  0  0  0  0  0  0  0  0
    0.1436   14.3881   38.9585 C   0  0  2  0  0  0  0  0  0  0  0  0
    0.6223   13.3410   38.0897 O   0  0  0  0  0  0  0  0  0  0  0  0
   -3.0275   11.2467   37.6770 C   0  0  0  0  0  0  0  0  0  0  0  0
   -3.6746   12.1184   38.7395 O   0  0  0  0  0  0  0  0  0  0  0  0
    1.9257   18.4398   34.6082 C   0  0  0  0  0  0  0  0  0  0  0  0
    1.6677   17.6218   33.4467 O   0  0  0  0  0  0  0  0  0  0  0  0
   -1.4001   14.1823   39.2028 C   0  0  1  0  0  0  0  0  0  0  0  0
   -1.5795   12.9343   39.8252 O   0  0  0  0  0  0  0  0  0  0  0  0
   -2.0152    9.0428   37.1515 C   0  0  0  0  0  0  0  0  0  0  0  0
   -0.0243    8.4950   40.5759 C   0  0  0  0  0  0  0  0  0  0  0  0
  1  2  1  1  0  0  0
  1  6  1  0  0  0  0
  1 21  1  0  0  0  0
  3  4  1  6  0  0  0
  3  8  1  0  0  0  0
  3 28  1  0  0  0  0
  5  9  1  0  0  0  0
  5 25  1  0  0  0  0
  5 29  1  6  0  0  0
  6  7  1  1  0  0  0
  6 11  1  0  0  0  0
  8 12  1  0  0  0  0
  9 10  1  1  0  0  0
  9 14  1  0  0  0  0
 11 16  1  0  0  0  0
 12 13  1  6  0  0  0
 12 17  1  0  0  0  0
 14 15  1  1  0  0  0
 14 18  1  0  0  0  0
 15 31  1  0  0  0  0
 16 20  1  0  0  0  0
 17  2  1  1  0  0  0
 17 22  1  0  0  0  0
 18 19  1  1  0  0  0
 18 24  1  0  0  0  0
 18 30  1  0  0  0  0
 20 21  1  0  0  0  0
 20 26  1  1  0  0  0
 22 23  1  6  0  0  0
 22 28  1  0  0  0  0
 24 25  1  0  0  0  0
 26 27  1  0  0  0  0
 28 29  1  1  0  0  0
M  END
>  <CHROM.1>
-164.66502168,175.92184695,-106.41418883,-155.97037382,135.55794790,71.36129747
-0.19865280,13.92557491,38.33620495,-0.88172805,-0.54214537,3.11199671

>  <Name>
ligand

>  <RI>
0

>  <Rbt.Current_Directory>
/home/itssahil/PROJECTS/Mol_Feturizer/New_Systems/rnas/4GPY

>  <Rbt.Executable>
rbdock ($Id: //depot/dev/client3/rdock/2013.1/src/exe/rbdock.cxx#4 $)

>  <Rbt.Library>
libRbt.so (2013.1, Build901 2013/11/27)

>  <Rbt.Parameter_File>
/export/apps/rDock/src/rDock_2013.1_src/data/scripts/dock_solv.prm

>  <Rbt.Receptor>
prm/pocket_docking_6.prm

>  <SCORE>
-14.9305

>  <SCORE.INTER>
-11.6986

>  <SCORE.INTER.CONST>
1

>  <SCORE.INTER.POLAR>
0

>  <SCORE.INTER.ROT>
6

>  <SCORE.INTER.SOLV>
19.4028

>  <SCORE.INTER.VDW>
-21.8667

>  <SCORE.INTER.norm>
-0.377376

>  <SCORE.INTRA>
-3.23181

>  <SCORE.INTRA.DIHEDRAL>
-7.36389

>  <SCORE.INTRA.DIHEDRAL.0>
14.7001

>  <SCORE.INTRA.POLAR>
0

>  <SCORE.INTRA.POLAR.0>
0

>  <SCORE.INTRA.REPUL>
0

>  <SCORE.INTRA.REPUL.0>
0

>  <SCORE.INTRA.SOLV>
-0.213704

>  <SCORE.INTRA.SOLV.lig_0>
-65.3082

>  <SCORE.INTRA.VDW>
0.556989

>  <SCORE.INTRA.VDW.0>
-4.21408

>  <SCORE.INTRA.norm>
-0.104252

>  <SCORE.RESTR>
0

>  <SCORE.RESTR.CAVITY>
0

>  <SCORE.RESTR.norm>
0

>  <SCORE.SYSTEM>
0

>  <SCORE.SYSTEM.CONST>
0

>  <SCORE.SYSTEM.DIHEDRAL>
0

>  <SCORE.SYSTEM.SOLV>
0

>  <SCORE.SYSTEM.norm>
0

>  <SCORE.heavy>
31

>  <SCORE.norm>
-0.481628

>  <RMSD>
1.284

$$$$
ligand
 OpenBabel11021811493D
libRbt.so/2013.1/901 2013/11/27
 31 33  0  0  0  0  0  0  0  0999 V2000
    2.4733   15.2721   36.9274 C   0  0  2  0  0  0  0  0  0  0  0  0
    1.7707   15.8581   38.0064 O   0  0  0  0  0  0  0  0  0  0  0  0
   -1.9260   15.1752   39.9883 C   0  0  2  0  0  0  0  0  0  0  0  0
   -3.3244   14.9936   40.1843 N   0  0  0  0  0  0  0  0  0  0  0  0
   -2.8929   12.1245   39.7540 C   0  0  2  0  0  0  0  0  0  0  0  0
    4.0305   15.4236   37.2108 C   0  0  2  0  0  0  0  0  0  0  0  0
    4.3498   14.7852   38.4832 N   0  0  0  0  0  0  0  0  0  0  0  0
   -1.6989   16.5983   39.3080 C   0  0  0  0  0  0  0  0  0  0  0  0
   -2.5921   10.7246   40.3874 C   0  0  2  0  0  0  0  0  0  0  0  0
   -1.9212   10.9180   41.6145 O   0  0  0  0  0  0  0  0  0  0  0  0
    4.4462   16.9406   37.2171 C   0  0  0  0  0  0  0  0  0  0  0  0
   -0.1422   16.8067   39.1053 C   0  0  2  0  0  0  0  0  0  0  0  0
    0.0860   18.1143   38.4889 N   0  0  0  0  0  0  0  0  0  0  0  0
   -1.7005    9.9048   39.3851 C   0  0  1  0  0  0  0  0  0  0  0  0
   -1.3839    8.5639   39.9735 N   0  0  0  0  0  0  0  0  0  0  0  0
    3.6989   17.7607   36.0836 C   0  0  0  0  0  0  0  0  0  0  0  0
    0.4111   15.6598   38.1644 C   0  0  2  0  0  0  0  0  0  0  0  0
   -2.5230    9.7031   37.9956 C   0  0  1  0  0  0  0  0  0  0  0  0
   -3.7380    8.9999   38.1648 O   0  0  0  0  0  0  0  0  0  0  0  0
    2.6438   17.2341   35.4159 C   0  0  1  0  0  0  0  0  0  0  0  0
    2.1301   15.9290   35.6672 O   0  0  0  0  0  0  0  0  0  0  0  0
    0.1587   14.2472   38.8386 C   0  0  2  0  0  0  0  0  0  0  0  0
    0.6525   13.2084   37.9683 O   0  0  0  0  0  0  0  0  0  0  0  0
   -2.8543   11.1004   37.3910 C   0  0  0  0  0  0  0  0  0  0  0  0
   -3.5891   11.9477   38.4154 O   0  0  0  0  0  0  0  0  0  0  0  0
    1.9013   17.9843   34.3360 C   0  0  0  0  0  0  0  0  0  0  0  0
    0.6914   18.4880   34.9420 O   0  0  0  0  0  0  0  0  0  0  0  0
   -1.3908   14.0451   39.0461 C   0  0  1  0  0  0  0  0  0  0  0  0
   -1.5890   12.7907   39.6496 O   0  0  0  0  0  0  0  0  0  0  0  0
   -1.7656    8.9219   36.9139 C   0  0  0  0  0  0  0  0  0  0  0  0
    0.0031    8.0848   39.8002 C   0  0  0  0  0  0  0  0  0  0  0  0
  1  2  1  1  0  0  0
  1  6  1  0  0  0  0
  1 21  1  0  0  0  0
  3  4  1  6  0  0  0
  3  8  1  0  0  0  0
  3 28  1  0  0  0  0
  5  9  1  0  0  0  0
  5 25  1  0  0  0  0
  5 29  1  6  0  0  0
  6  7  1  1  0  0  0
  6 11  1  0  0  0  0
  8 12  1  0  0  0  0
  9 10  1  1  0  0  0
  9 14  1  0  0  0  0
 11 16  1  0  0  0  0
 12 13  1  6  0  0  0
 12 17  1  0  0  0  0
 14 15  1  1  0  0  0
 14 18  1  0  0  0  0
 15 31  1  0  0  0  0
 16 20  1  0  0  0  0
 17  2  1  1  0  0  0
 17 22  1  0  0  0  0
 18 19  1  1  0  0  0
 18 24  1  0  0  0  0
 18 30  1  0  0  0  0
 20 21  1  0  0  0  0
 20 26  1  1  0  0  0
 22 23  1  6  0  0  0
 22 28  1  0  0  0  0
 24 25  1  0  0  0  0
 26 27  1  0  0  0  0
 28 29  1  1  0  0  0
M  END
>  <CHROM.1>
-167.75331811,175.52098019,-137.97551986,-160.47113733,-101.12270221,74.52045469
-0.19368922,13.78948130,38.20697775,-0.93824941,-0.44900158,3.08172520

>  <Name>
ligand

>  <RI>
0

>  <Rbt.Current_Directory>
/home/itssahil/PROJECTS/Mol_Feturizer/New_Systems/rnas/4GPY

>  <Rbt.Executable>
rbdock ($Id: //depot/dev/client3/rdock/2013.1/src/exe/rbdock.cxx#4 $)

>  <Rbt.Library>
libRbt.so (2013.1, Build901 2013/11/27)

>  <Rbt.Parameter_File>
/export/apps/rDock/src/rDock_2013.1_src/data/scripts/dock_solv.prm

>  <Rbt.Receptor>
prm/pocket_docking_4.prm

>  <SCORE>
-16.2678

>  <SCORE.INTER>
-12.6152

>  <SCORE.INTER.CONST>
1

>  <SCORE.INTER.POLAR>
0

>  <SCORE.INTER.ROT>
6

>  <SCORE.INTER.SOLV>
18.3246

>  <SCORE.INTER.VDW>
-22.1184

>  <SCORE.INTER.norm>
-0.406943

>  <SCORE.INTRA>
-3.66681

>  <SCORE.INTRA.DIHEDRAL>
-8.09845

>  <SCORE.INTRA.DIHEDRAL.0>
14.7001

>  <SCORE.INTRA.POLAR>
0

>  <SCORE.INTRA.POLAR.0>
0

>  <SCORE.INTRA.REPUL>
0.0023842

>  <SCORE.INTRA.REPUL.0>
0

>  <SCORE.INTRA.SOLV>
-0.20659

>  <SCORE.INTRA.SOLV.lig_0>
-65.3082

>  <SCORE.INTRA.VDW>
0.473796

>  <SCORE.INTRA.VDW.0>
-4.21408

>  <SCORE.INTRA.norm>
-0.118284

>  <SCORE.RESTR>
0.0142776

>  <SCORE.RESTR.CAVITY>
0.0142776

>  <SCORE.RESTR.norm>
0.000460569

>  <SCORE.SYSTEM>
0

>  <SCORE.SYSTEM.CONST>
0

>  <SCORE.SYSTEM.DIHEDRAL>
0

>  <SCORE.SYSTEM.SOLV>
0

>  <SCORE.SYSTEM.norm>
0

>  <SCORE.heavy>
31

>  <SCORE.norm>
-0.524767

>  <RMSD>
1.285

$$$$
ligand
 OpenBabel11021811493D
libRbt.so/2013.1/901 2013/11/27
 31 33  0  0  0  0  0  0  0  0999 V2000
    2.5272   15.2432   36.9669 C   0  0  2  0  0  0  0  0  0  0  0  0
    1.8307   15.8214   38.0540 O   0  0  0  0  0  0  0  0  0  0  0  0
   -1.8907   15.2608   40.0280 C   0  0  2  0  0  0  0  0  0  0  0  0
   -3.2921   15.0967   40.2177 N   0  0  0  0  0  0  0  0  0  0  0  0
   -2.8797   12.2327   39.9863 C   0  0  2  0  0  0  0  0  0  0  0  0
    4.0851   15.4381   37.2178 C   0  0  2  0  0  0  0  0  0  0  0  0
    4.4460   14.8209   38.4897 N   0  0  0  0  0  0  0  0  0  0  0  0
   -1.6484   16.6456   39.2773 C   0  0  0  0  0  0  0  0  0  0  0  0
   -2.5874   10.8129   40.5778 C   0  0  2  0  0  0  0  0  0  0  0  0
   -1.8408   10.9629   41.7666 O   0  0  0  0  0  0  0  0  0  0  0  0
    4.4609   16.9653   37.2016 C   0  0  0  0  0  0  0  0  0  0  0  0
   -0.0886   16.8354   39.0812 C   0  0  2  0  0  0  0  0  0  0  0  0
    0.1536   18.1080   38.4003 N   0  0  0  0  0  0  0  0  0  0  0  0
   -1.7818    9.9846   39.5117 C   0  0  1  0  0  0  0  0  0  0  0  0
   -1.4744    8.6240   40.0582 N   0  0  0  0  0  0  0  0  0  0  0  0
    3.6703   17.7544   36.0754 C   0  0  0  0  0  0  0  0  0  0  0  0
    0.4684   15.6384   38.2071 C   0  0  2  0  0  0  0  0  0  0  0  0
   -2.6892    9.8339   38.1694 C   0  0  1  0  0  0  0  0  0  0  0  0
   -3.9141    9.1654   38.3976 O   0  0  0  0  0  0  0  0  0  0  0  0
    2.6165   17.1938   35.4337 C   0  0  1  0  0  0  0  0  0  0  0  0
    2.1422   15.8783   35.7075 O   0  0  0  0  0  0  0  0  0  0  0  0
    0.2009   14.2640   38.9508 C   0  0  2  0  0  0  0  0  0  0  0  0
    0.6981   13.1789   38.1410 O   0  0  0  0  0  0  0  0  0  0  0  0
   -3.0103   11.2516   37.6084 C   0  0  0  0  0  0  0  0  0  0  0  0
   -3.6573   12.1021   38.6879 O   0  0  0  0  0  0  0  0  0  0  0  0
    1.8335   17.9135   34.3617 C   0  0  0  0  0  0  0  0  0  0  0  0
    0.6549   18.4485   35.0016 O   0  0  0  0  0  0  0  0  0  0  0  0
   -1.3519   14.0807   39.1516 C   0  0  1  0  0  0  0  0  0  0  0  0
   -1.5635   12.8603   39.8170 O   0  0  0  0  0  0  0  0  0  0  0  0
   -2.0208    9.0498   37.0325 C   0  0  0  0  0  0  0  0  0  0  0  0
   -0.0731    8.1715   39.9362 C   0  0  0  0  0  0  0  0  0  0  0  0
  1  2  1  1  0  0  0
  1  6  1  0  0  0  0
  1 21  1  0  0  0  0
  3  4  1  6  0  0  0
  3  8  1  0  0  0  0
  3 28  1  0  0  0  0
  5  9  1  0  0  0  0
  5 25  1  0  0  0  0
  5 29  1  6  0  0  0
  6  7  1  1  0  0  0
  6 11  1  0  0  0  0
  8 12  1  0  0  0  0
  9 10  1  1  0  0  0
  9 14  1  0  0  0  0
 11 16  1  0  0  0  0
 12 13  1  6  0  0  0
 12 17  1  0  0  0  0
 14 15  1  1  0  0  0
 14 18  1  0  0  0  0
 15 31  1  0  0  0  0
 16 20  1  0  0  0  0
 17  2  1  1  0  0  0
 17 22  1  0  0  0  0
 18 19  1  1  0  0  0
 18 24  1  0  0  0  0
 18 30  1  0  0  0  0
 20 21  1  0  0  0  0
 20 26  1  1  0  0  0
 22 23  1  6  0  0  0
 22 28  1  0  0  0  0
 24 25  1  0  0  0  0
 26 27  1  0  0  0  0
 28 29  1  1  0  0  0
M  END
>  <CHROM.1>
-170.68804160,171.46922892,-131.03999374,-156.54009699,-98.35286677,72.06097076
-0.20700682,13.83218866,38.29565535,-0.93109445,-0.41565196,3.03947229

>  <Name>
ligand

>  <RI>
0

>  <Rbt.Current_Directory>
/home/itssahil/PROJECTS/Mol_Feturizer/New_Systems/rnas/4GPY

>  <Rbt.Executable>
rbdock ($Id: //depot/dev/client3/rdock/2013.1/src/exe/rbdock.cxx#4 $)

>  <Rbt.Library>
libRbt.so (2013.1, Build901 2013/11/27)

>  <Rbt.Parameter_File>
/export/apps/rDock/src/rDock_2013.1_src/data/scripts/dock_solv.prm

>  <Rbt.Receptor>
prm/pocket_docking_4.prm

>  <SCORE>
-16.1368

>  <SCORE.INTER>
-12.8958

>  <SCORE.INTER.CONST>
1

>  <SCORE.INTER.POLAR>
0

>  <SCORE.INTER.ROT>
6

>  <SCORE.INTER.SOLV>
18.2307

>  <SCORE.INTER.VDW>
-22.2741

>  <SCORE.INTER.norm>
-0.415995

>  <SCORE.INTRA>
-3.24899

>  <SCORE.INTRA.DIHEDRAL>
-7.49788

>  <SCORE.INTRA.DIHEDRAL.0>
14.7001

>  <SCORE.INTRA.POLAR>
0

>  <SCORE.INTRA.POLAR.0>
0

>  <SCORE.INTRA.REPUL>
0.00622311

>  <SCORE.INTRA.REPUL.0>
0

>  <SCORE.INTRA.SOLV>
0.312301

>  <SCORE.INTRA.SOLV.lig_0>
-65.3082

>  <SCORE.INTRA.VDW>
0.312682

>  <SCORE.INTRA.VDW.0>
-4.21408

>  <SCORE.INTRA.norm>
-0.104806

>  <SCORE.RESTR>
0.00800123

>  <SCORE.RESTR.CAVITY>
0.00800123

>  <SCORE.RESTR.norm>
0.000258104

>  <SCORE.SYSTEM>
0

>  <SCORE.SYSTEM.CONST>
0

>  <SCORE.SYSTEM.DIHEDRAL>
0

>  <SCORE.SYSTEM.SOLV>
0

>  <SCORE.SYSTEM.norm>
0

>  <SCORE.heavy>
31

>  <SCORE.norm>
-0.520543

>  <RMSD>
1.295

$$$$
ligand
 OpenBabel11021811493D
libRbt.so/2013.1/901 2013/11/27
 31 33  0  0  0  0  0  0  0  0999 V2000
    2.6275   15.3954   36.7557 C   0  0  2  0  0  0  0  0  0  0  0  0
    1.9328   15.9288   37.8666 O   0  0  0  0  0  0  0  0  0  0  0  0
   -1.7961   15.3513   39.8216 C   0  0  2  0  0  0  0  0  0  0  0  0
   -3.1980   15.1833   40.0044 N   0  0  0  0  0  0  0  0  0  0  0  0
   -2.7790   12.3237   39.7661 C   0  0  2  0  0  0  0  0  0  0  0  0
    4.1858   15.5808   37.0114 C   0  0  2  0  0  0  0  0  0  0  0  0
    4.5493   14.9130   38.2566 N   0  0  0  0  0  0  0  0  0  0  0  0
   -1.5535   16.7399   39.0783 C   0  0  0  0  0  0  0  0  0  0  0  0
   -2.4954   10.9458   40.4534 C   0  0  2  0  0  0  0  0  0  0  0  0
   -1.7896   11.1760   41.6543 O   0  0  0  0  0  0  0  0  0  0  0  0
    4.5607   17.1077   37.0561 C   0  0  0  0  0  0  0  0  0  0  0  0
    0.0068   16.9340   38.8899 C   0  0  2  0  0  0  0  0  0  0  0  0
    0.2492   18.2102   38.2159 N   0  0  0  0  0  0  0  0  0  0  0  0
   -1.6486   10.0614   39.4673 C   0  0  1  0  0  0  0  0  0  0  0  0
   -1.3490    8.7401   40.1066 N   0  0  0  0  0  0  0  0  0  0  0  0
    3.7676   17.9412   35.9642 C   0  0  0  0  0  0  0  0  0  0  0  0
    0.5702   15.7422   38.0129 C   0  0  2  0  0  0  0  0  0  0  0  0
   -2.5101    9.8196   38.1081 C   0  0  1  0  0  0  0  0  0  0  0  0
   -3.7366    9.1545   38.3373 O   0  0  0  0  0  0  0  0  0  0  0  0
    2.7128   17.4063   35.3024 C   0  0  1  0  0  0  0  0  0  0  0  0
    2.2397   16.0806   35.5238 O   0  0  0  0  0  0  0  0  0  0  0  0
    0.3024   14.3638   38.7492 C   0  0  2  0  0  0  0  0  0  0  0  0
    0.8055   13.2835   37.9367 O   0  0  0  0  0  0  0  0  0  0  0  0
   -2.8234   11.1969   37.4505 C   0  0  0  0  0  0  0  0  0  0  0  0
   -3.5123   12.1058   38.4537 O   0  0  0  0  0  0  0  0  0  0  0  0
    1.9274   18.1683   34.2619 C   0  0  0  0  0  0  0  0  0  0  0  0
    0.7077   18.6013   34.9019 O   0  0  0  0  0  0  0  0  0  0  0  0
   -1.2508   14.1763   38.9422 C   0  0  1  0  0  0  0  0  0  0  0  0
   -1.4627   12.9525   39.6012 O   0  0  0  0  0  0  0  0  0  0  0  0
   -1.7985    8.9736   37.0442 C   0  0  0  0  0  0  0  0  0  0  0  0
    0.0795    8.3845   40.2345 C   0  0  0  0  0  0  0  0  0  0  0  0
  1  2  1  1  0  0  0
  1  6  1  0  0  0  0
  1 21  1  0  0  0  0
  3  4  1  6  0  0  0
  3  8  1  0  0  0  0
  3 28  1  0  0  0  0
  5  9  1  0  0  0  0
  5 25  1  0  0  0  0
  5 29  1  6  0  0  0
  6  7  1  1  0  0  0
  6 11  1  0  0  0  0
  8 12  1  0  0  0  0
  9 10  1  1  0  0  0
  9 14  1  0  0  0  0
 11 16  1  0  0  0  0
 12 13  1  6  0  0  0
 12 17  1  0  0  0  0
 14 15  1  1  0  0  0
 14 18  1  0  0  0  0
 15 31  1  0  0  0  0
 16 20  1  0  0  0  0
 17  2  1  1  0  0  0
 17 22  1  0  0  0  0
 18 19  1  1  0  0  0
 18 24  1  0  0  0  0
 18 30  1  0  0  0  0
 20 21  1  0  0  0  0
 20 26  1  1  0  0  0
 22 23  1  6  0  0  0
 22 28  1  0  0  0  0
 24 25  1  0  0  0  0
 26 27  1  0  0  0  0
 28 29  1  1  0  0  0
M  END
>  <CHROM.1>
-170.87016446,175.74285719,-122.43390165,-154.36398861,-102.04035734,71.82633399
-0.09417843,13.93894605,38.15850288,-0.95720775,-0.38363451,2.99870241

>  <Name>
ligand

>  <RI>
0

>  <Rbt.Current_Directory>
/home/itssahil/PROJECTS/Mol_Feturizer/New_Systems/rnas/4GPY

>  <Rbt.Executable>
rbdock ($Id: //depot/dev/client3/rdock/2013.1/src/exe/rbdock.cxx#4 $)

>  <Rbt.Library>
libRbt.so (2013.1, Build901 2013/11/27)

>  <Rbt.Parameter_File>
/export/apps/rDock/src/rDock_2013.1_src/data/scripts/dock_solv.prm

>  <Rbt.Receptor>
prm/pocket_docking_3.prm

>  <SCORE>
-15.6193

>  <SCORE.INTER>
-12.4439

>  <SCORE.INTER.CONST>
1

>  <SCORE.INTER.POLAR>
0

>  <SCORE.INTER.ROT>
6

>  <SCORE.INTER.SOLV>
18.6143

>  <SCORE.INTER.VDW>
-22.1007

>  <SCORE.INTER.norm>
-0.401415

>  <SCORE.INTRA>
-3.29134

>  <SCORE.INTRA.DIHEDRAL>
-7.4774

>  <SCORE.INTRA.DIHEDRAL.0>
14.7001

>  <SCORE.INTRA.POLAR>
0

>  <SCORE.INTRA.POLAR.0>
0

>  <SCORE.INTRA.REPUL>
0.00631047

>  <SCORE.INTRA.REPUL.0>
0

>  <SCORE.INTRA.SOLV>
0.499724

>  <SCORE.INTRA.SOLV.lig_0>
-65.3082

>  <SCORE.INTRA.VDW>
0.165951

>  <SCORE.INTRA.VDW.0>
-4.21408

>  <SCORE.INTRA.norm>
-0.106172

>  <SCORE.RESTR>
0.115909

>  <SCORE.RESTR.CAVITY>
0.115909

>  <SCORE.RESTR.norm>
0.003739

>  <SCORE.SYSTEM>
0

>  <SCORE.SYSTEM.CONST>
0

>  <SCORE.SYSTEM.DIHEDRAL>
0

>  <SCORE.SYSTEM.SOLV>
0

>  <SCORE.SYSTEM.norm>
0

>  <SCORE.heavy>
31

>  <SCORE.norm>
-0.503849

>  <RMSD>
1.298

$$$$
ligand
 OpenBabel11021811493D
libRbt.so/2013.1/901 2013/11/27
 31 33  0  0  0  0  0  0  0  0999 V2000
    2.3906   15.4413   36.9353 C   0  0  2  0  0  0  0  0  0  0  0  0
    1.7284   15.9622   38.0717 O   0  0  0  0  0  0  0  0  0  0  0  0
   -1.9253   15.3013   40.1389 C   0  0  2  0  0  0  0  0  0  0  0  0
   -3.3191   15.1210   40.3663 N   0  0  0  0  0  0  0  0  0  0  0  0
   -2.8985   12.2664   40.0013 C   0  0  2  0  0  0  0  0  0  0  0  0
    3.9562   15.4939   37.2078 C   0  0  2  0  0  0  0  0  0  0  0  0
    4.2578   14.7315   38.4146 N   0  0  0  0  0  0  0  0  0  0  0  0
   -1.7141   16.7158   39.4359 C   0  0  0  0  0  0  0  0  0  0  0  0
   -2.5836   10.8606   40.6141 C   0  0  2  0  0  0  0  0  0  0  0  0
   -1.8408   11.0406   41.8012 O   0  0  0  0  0  0  0  0  0  0  0  0
    4.4444   16.9832   37.3408 C   0  0  0  0  0  0  0  0  0  0  0  0
   -0.1623   16.9231   39.1981 C   0  0  2  0  0  0  0  0  0  0  0  0
    0.0514   18.2228   38.5603 N   0  0  0  0  0  0  0  0  0  0  0  0
   -1.7634   10.0299   39.5612 C   0  0  1  0  0  0  0  0  0  0  0  0
   -1.4343    8.6827   40.1282 N   0  0  0  0  0  0  0  0  0  0  0  0
    3.7255   17.9343   36.2946 C   0  0  0  0  0  0  0  0  0  0  0  0
    0.3726   15.7647   38.2605 C   0  0  2  0  0  0  0  0  0  0  0  0
   -2.6668    9.8442   38.2205 C   0  0  1  0  0  0  0  0  0  0  0  0
   -3.8808    9.1592   38.4577 O   0  0  0  0  0  0  0  0  0  0  0  0
    2.6393   17.5186   35.5989 C   0  0  1  0  0  0  0  0  0  0  0  0
    2.0661   16.2221   35.7426 O   0  0  0  0  0  0  0  0  0  0  0  0
    0.1360   14.3606   38.9579 C   0  0  2  0  0  0  0  0  0  0  0  0
    0.6128   13.3112   38.0908 O   0  0  0  0  0  0  0  0  0  0  0  0
   -3.0105   11.2479   37.6382 C   0  0  0  0  0  0  0  0  0  0  0  0
   -3.6725   12.1037   38.7043 O   0  0  0  0  0  0  0  0  0  0  0  0
    1.9223   18.3952   34.5999 C   0  0  0  0  0  0  0  0  0  0  0  0
    1.6732   17.5759   33.4374 O   0  0  0  0  0  0  0  0  0  0  0  0
   -1.4086   14.1597   39.2003 C   0  0  1  0  0  0  0  0  0  0  0  0
   -1.5926   12.9130   39.8237 O   0  0  0  0  0  0  0  0  0  0  0  0
   -1.9844    9.0544   37.0961 C   0  0  0  0  0  0  0  0  0  0  0  0
   -0.0022    8.4037   40.3618 C   0  0  0  0  0  0  0  0  0  0  0  0
  1  2  1  1  0  0  0
  1  6  1  0  0  0  0
  1 21  1  0  0  0  0
  3  4  1  6  0  0  0
  3  8  1  0  0  0  0
  3 28  1  0  0  0  0
  5  9  1  0  0  0  0
  5 25  1  0  0  0  0
  5 29  1  6  0  0  0
  6  7  1  1  0  0  0
  6 11  1  0  0  0  0
  8 12  1  0  0  0  0
  9 10  1  1  0  0  0
  9 14  1  0  0  0  0
 11 16  1  0  0  0  0
 12 13  1  6  0  0  0
 12 17  1  0  0  0  0
 14 15  1  1  0  0  0
 14 18  1  0  0  0  0
 15 31  1  0  0  0  0
 16 20  1  0  0  0  0
 17  2  1  1  0  0  0
 17 22  1  0  0  0  0
 18 19  1  1  0  0  0
 18 24  1  0  0  0  0
 18 30  1  0  0  0  0
 20 21  1  0  0  0  0
 20 26  1  1  0  0  0
 22 23  1  6  0  0  0
 22 28  1  0  0  0  0
 24 25  1  0  0  0  0
 26 27  1  0  0  0  0
 28 29  1  1  0  0  0
M  END
>  <CHROM.1>
-164.91356158,174.86634773,-114.54157601,-155.98413568,135.14918017,72.51682714
-0.19926155,13.89673779,38.31259362,-0.87421632,-0.55234200,3.12955781

>  <Name>
ligand

>  <RI>
0

>  <Rbt.Current_Directory>
/home/itssahil/PROJECTS/Mol_Feturizer/New_Systems/rnas/4GPY

>  <Rbt.Executable>
rbdock ($Id: //depot/dev/client3/rdock/2013.1/src/exe/rbdock.cxx#4 $)

>  <Rbt.Library>
libRbt.so (2013.1, Build901 2013/11/27)

>  <Rbt.Parameter_File>
/export/apps/rDock/src/rDock_2013.1_src/data/scripts/dock_solv.prm

>  <Rbt.Receptor>
prm/pocket_docking_5.prm

>  <SCORE>
-15.0181

>  <SCORE.INTER>
-11.8273

>  <SCORE.INTER.CONST>
1

>  <SCORE.INTER.POLAR>
0

>  <SCORE.INTER.ROT>
6

>  <SCORE.INTER.SOLV>
19.4094

>  <SCORE.INTER.VDW>
-21.9547

>  <SCORE.INTER.norm>
-0.381526

>  <SCORE.INTRA>
-3.19081

>  <SCORE.INTRA.DIHEDRAL>
-7.11885

>  <SCORE.INTRA.DIHEDRAL.0>
14.7001

>  <SCORE.INTRA.POLAR>
0

>  <SCORE.INTRA.POLAR.0>
0

>  <SCORE.INTRA.REPUL>
0

>  <SCORE.INTRA.REPUL.0>
0

>  <SCORE.INTRA.SOLV>
-0.252205

>  <SCORE.INTRA.SOLV.lig_0>
-65.3082

>  <SCORE.INTRA.VDW>
0.494724

>  <SCORE.INTRA.VDW.0>
-4.21408

>  <SCORE.INTRA.norm>
-0.102929

>  <SCORE.RESTR>
0

>  <SCORE.RESTR.CAVITY>
0

>  <SCORE.RESTR.norm>
0

>  <SCORE.SYSTEM>
0

>  <SCORE.SYSTEM.CONST>
0

>  <SCORE.SYSTEM.DIHEDRAL>
0

>  <SCORE.SYSTEM.SOLV>
0

>  <SCORE.SYSTEM.norm>
0

>  <SCORE.heavy>
31

>  <SCORE.norm>
-0.484455

>  <RMSD>
1.300

$$$$
ligand
 OpenBabel11021811493D
libRbt.so/2013.1/901 2013/11/27
 31 33  0  0  0  0  0  0  0  0999 V2000
    2.4413   15.3420   37.0035 C   0  0  2  0  0  0  0  0  0  0  0  0
    1.7383   15.9845   38.0496 O   0  0  0  0  0  0  0  0  0  0  0  0
   -1.9320   15.3263   40.0882 C   0  0  2  0  0  0  0  0  0  0  0  0
   -3.3270   15.1412   40.3040 N   0  0  0  0  0  0  0  0  0  0  0  0
   -2.8908   12.2953   39.9922 C   0  0  2  0  0  0  0  0  0  0  0  0
    3.9969   15.5708   37.2396 C   0  0  2  0  0  0  0  0  0  0  0  0
    4.3646   15.0452   38.5500 N   0  0  0  0  0  0  0  0  0  0  0  0
   -1.7212   16.7344   39.3725 C   0  0  0  0  0  0  0  0  0  0  0  0
   -2.5773   10.9014   40.6326 C   0  0  2  0  0  0  0  0  0  0  0  0
   -1.8339   11.1040   41.8157 O   0  0  0  0  0  0  0  0  0  0  0  0
    4.3554   17.0977   37.1200 C   0  0  0  0  0  0  0  0  0  0  0  0
   -0.1682   16.9473   39.1475 C   0  0  2  0  0  0  0  0  0  0  0  0
    0.0452   18.2413   38.4982 N   0  0  0  0  0  0  0  0  0  0  0  0
   -1.7585   10.0490   39.5961 C   0  0  1  0  0  0  0  0  0  0  0  0
   -1.4308    8.7130   40.1895 N   0  0  0  0  0  0  0  0  0  0  0  0
    3.5561   17.7999   35.9437 C   0  0  0  0  0  0  0  0  0  0  0  0
    0.3818   15.7819   38.2274 C   0  0  2  0  0  0  0  0  0  0  0  0
   -2.6626    9.8380   38.2596 C   0  0  1  0  0  0  0  0  0  0  0  0
   -3.8773    9.1593   38.5107 O   0  0  0  0  0  0  0  0  0  0  0  0
    2.5087   17.1854   35.3421 C   0  0  1  0  0  0  0  0  0  0  0  0
    2.0492   15.8863   35.7044 O   0  0  0  0  0  0  0  0  0  0  0  0
    0.1455   14.3840   38.9371 C   0  0  2  0  0  0  0  0  0  0  0  0
    0.6360   13.3281   38.0858 O   0  0  0  0  0  0  0  0  0  0  0  0
   -3.0048   11.2303   37.6498 C   0  0  0  0  0  0  0  0  0  0  0  0
   -3.6654   12.1079   38.6990 O   0  0  0  0  0  0  0  0  0  0  0  0
    1.7177   17.8223   34.2245 C   0  0  0  0  0  0  0  0  0  0  0  0
    2.3977   19.0504   33.8866 O   0  0  0  0  0  0  0  0  0  0  0  0
   -1.4004   14.1777   39.1667 C   0  0  1  0  0  0  0  0  0  0  0  0
   -1.5841   12.9366   39.8014 O   0  0  0  0  0  0  0  0  0  0  0  0
   -1.9816    9.0253   37.1508 C   0  0  0  0  0  0  0  0  0  0  0  0
    0.0051    8.3978   40.3379 C   0  0  0  0  0  0  0  0  0  0  0  0
  1  2  1  1  0  0  0
  1  6  1  0  0  0  0
  1 21  1  0  0  0  0
  3  4  1  6  0  0  0
  3  8  1  0  0  0  0
  3 28  1  0  0  0  0
  5  9  1  0  0  0  0
  5 25  1  0  0  0  0
  5 29  1  6  0  0  0
  6  7  1  1  0  0  0
  6 11  1  0  0  0  0
  8 12  1  0  0  0  0
  9 10  1  1  0  0  0
  9 14  1  0  0  0  0
 11 16  1  0  0  0  0
 12 13  1  6  0  0  0
 12 17  1  0  0  0  0
 14 15  1  1  0  0  0
 14 18  1  0  0  0  0
 15 31  1  0  0  0  0
 16 20  1  0  0  0  0
 17  2  1  1  0  0  0
 17 22  1  0  0  0  0
 18 19  1  1  0  0  0
 18 24  1  0  0  0  0
 18 30  1  0  0  0  0
 20 21  1  0  0  0  0
 20 26  1  1  0  0  0
 22 23  1  6  0  0  0
 22 28  1  0  0  0  0
 24 25  1  0  0  0  0
 26 27  1  0  0  0  0
 28 29  1  1  0  0  0
M  END
>  <CHROM.1>
-169.75013594,175.61454792,-118.79623957,-162.61604050,6.37042413,71.49365428
-0.18282301,13.93017975,38.29163063,-0.89182999,-0.53048873,3.09385526

>  <Name>
ligand

>  <RI>
0

>  <Rbt.Current_Directory>
/home/itssahil/PROJECTS/Mol_Feturizer/New_Systems/rnas/4GPY

>  <Rbt.Executable>
rbdock ($Id: //depot/dev/client3/rdock/2013.1/src/exe/rbdock.cxx#4 $)

>  <Rbt.Library>
libRbt.so (2013.1, Build901 2013/11/27)

>  <Rbt.Parameter_File>
/export/apps/rDock/src/rDock_2013.1_src/data/scripts/dock_solv.prm

>  <Rbt.Receptor>
prm/pocket_docking_5.prm

>  <SCORE>
-15.5484

>  <SCORE.INTER>
-12.4979

>  <SCORE.INTER.CONST>
1

>  <SCORE.INTER.POLAR>
0

>  <SCORE.INTER.ROT>
6

>  <SCORE.INTER.SOLV>
18.8503

>  <SCORE.INTER.VDW>
-22.2154

>  <SCORE.INTER.norm>
-0.403159

>  <SCORE.INTRA>
-3.05044

>  <SCORE.INTRA.DIHEDRAL>
-9.13614

>  <SCORE.INTRA.DIHEDRAL.0>
14.7001

>  <SCORE.INTRA.POLAR>
0

>  <SCORE.INTRA.POLAR.0>
0

>  <SCORE.INTRA.REPUL>
0

>  <SCORE.INTRA.REPUL.0>
0

>  <SCORE.INTRA.SOLV>
-0.864935

>  <SCORE.INTRA.SOLV.lig_0>
-65.3082

>  <SCORE.INTRA.VDW>
1.9501

>  <SCORE.INTRA.VDW.0>
-4.21408

>  <SCORE.INTRA.norm>
-0.0984012

>  <SCORE.RESTR>
0

>  <SCORE.RESTR.CAVITY>
0

>  <SCORE.RESTR.norm>
0

>  <SCORE.SYSTEM>
0

>  <SCORE.SYSTEM.CONST>
0

>  <SCORE.SYSTEM.DIHEDRAL>
0

>  <SCORE.SYSTEM.SOLV>
0

>  <SCORE.SYSTEM.norm>
0

>  <SCORE.heavy>
31

>  <SCORE.norm>
-0.50156

>  <RMSD>
1.306

$$$$
ligand
 OpenBabel11021811493D
libRbt.so/2013.1/901 2013/11/27
 31 33  0  0  0  0  0  0  0  0999 V2000
    2.3906   15.4613   36.9257 C   0  0  2  0  0  0  0  0  0  0  0  0
    1.7306   15.9849   38.0621 O   0  0  0  0  0  0  0  0  0  0  0  0
   -1.9128   15.3249   40.1477 C   0  0  2  0  0  0  0  0  0  0  0  0
   -3.3049   15.1396   40.3815 N   0  0  0  0  0  0  0  0  0  0  0  0
   -2.8735   12.2962   40.0651 C   0  0  2  0  0  0  0  0  0  0  0  0
    3.9564   15.5076   37.1981 C   0  0  2  0  0  0  0  0  0  0  0  0
    4.2551   14.7441   38.4049 N   0  0  0  0  0  0  0  0  0  0  0  0
   -1.7112   16.7337   39.4307 C   0  0  0  0  0  0  0  0  0  0  0  0
   -2.5507   10.8891   40.6712 C   0  0  2  0  0  0  0  0  0  0  0  0
   -1.7772   11.0661   41.8389 O   0  0  0  0  0  0  0  0  0  0  0  0
    4.4506   16.9949   37.3310 C   0  0  0  0  0  0  0  0  0  0  0  0
   -0.1613   16.9467   39.1857 C   0  0  2  0  0  0  0  0  0  0  0  0
    0.0437   18.2414   38.5351 N   0  0  0  0  0  0  0  0  0  0  0  0
   -1.7620   10.0530   39.5987 C   0  0  1  0  0  0  0  0  0  0  0  0
   -1.4260    8.7046   40.1585 N   0  0  0  0  0  0  0  0  0  0  0  0
    3.7354   17.9488   36.2848 C   0  0  0  0  0  0  0  0  0  0  0  0
    0.3765   15.7822   38.2573 C   0  0  2  0  0  0  0  0  0  0  0  0
   -2.7001    9.8712   38.2815 C   0  0  1  0  0  0  0  0  0  0  0  0
   -3.9114    9.1930   38.5500 O   0  0  0  0  0  0  0  0  0  0  0  0
    2.6475   17.5376   35.5892 C   0  0  1  0  0  0  0  0  0  0  0  0
    2.0691   16.2434   35.7330 O   0  0  0  0  0  0  0  0  0  0  0  0
    0.1494   14.3836   38.9686 C   0  0  2  0  0  0  0  0  0  0  0  0
    0.6286   13.3285   38.1099 O   0  0  0  0  0  0  0  0  0  0  0  0
   -3.0508   11.2762   37.7067 C   0  0  0  0  0  0  0  0  0  0  0  0
   -3.6809   12.1365   38.7883 O   0  0  0  0  0  0  0  0  0  0  0  0
    1.9340   18.4169   34.5903 C   0  0  0  0  0  0  0  0  0  0  0  0
    1.7105   17.6081   33.4153 O   0  0  0  0  0  0  0  0  0  0  0  0
   -1.3934   14.1772   39.2181 C   0  0  1  0  0  0  0  0  0  0  0  0
   -1.5689   12.9354   39.8539 O   0  0  0  0  0  0  0  0  0  0  0  0
   -2.0507    9.0767   37.1409 C   0  0  0  0  0  0  0  0  0  0  0  0
    0.0029    8.4488   40.4347 C   0  0  0  0  0  0  0  0  0  0  0  0
  1  2  1  1  0  0  0
  1  6  1  0  0  0  0
  1 21  1  0  0  0  0
  3  4  1  6  0  0  0
  3  8  1  0  0  0  0
  3 28  1  0  0  0  0
  5  9  1  0  0  0  0
  5 25  1  0  0  0  0
  5 29  1  6  0  0  0
  6  7  1  1  0  0  0
  6 11  1  0  0  0  0
  8 12  1  0  0  0  0
  9 10  1  1  0  0  0
  9 14  1  0  0  0  0
 11 16  1  0  0  0  0
 12 13  1  6  0  0  0
 12 17  1  0  0  0  0
 14 15  1  1  0  0  0
 14 18  1  0  0  0  0
 15 31  1  0  0  0  0
 16 20  1  0  0  0  0
 17  2  1  1  0  0  0
 17 22  1  0  0  0  0
 18 19  1  1  0  0  0
 18 24  1  0  0  0  0
 18 30  1  0  0  0  0
 20 21  1  0  0  0  0
 20 26  1  1  0  0  0
 22 23  1  6  0  0  0
 22 28  1  0  0  0  0
 24 25  1  0  0  0  0
 26 27  1  0  0  0  0
 28 29  1  1  0  0  0
M  END
>  <CHROM.1>
-164.30643138,174.49924592,-110.87473644,-155.72487684,133.78772214,71.27268931
-0.19494065,13.91974241,38.33226148,-0.87775888,-0.54551859,3.11317837

>  <Name>
ligand

>  <RI>
0

>  <Rbt.Current_Directory>
/home/itssahil/PROJECTS/Mol_Feturizer/New_Systems/rnas/4GPY

>  <Rbt.Executable>
rbdock ($Id: //depot/dev/client3/rdock/2013.1/src/exe/rbdock.cxx#4 $)

>  <Rbt.Library>
libRbt.so (2013.1, Build901 2013/11/27)

>  <Rbt.Parameter_File>
/export/apps/rDock/src/rDock_2013.1_src/data/scripts/dock_solv.prm

>  <Rbt.Receptor>
prm/pocket_docking_8.prm

>  <SCORE>
-14.9789

>  <SCORE.INTER>
-11.8019

>  <SCORE.INTER.CONST>
1

>  <SCORE.INTER.POLAR>
0

>  <SCORE.INTER.ROT>
6

>  <SCORE.INTER.SOLV>
19.3971

>  <SCORE.INTER.VDW>
-21.9336

>  <SCORE.INTER.norm>
-0.380705

>  <SCORE.INTRA>
-3.177

>  <SCORE.INTRA.DIHEDRAL>
-7.19712

>  <SCORE.INTRA.DIHEDRAL.0>
14.7001

>  <SCORE.INTRA.POLAR>
0

>  <SCORE.INTRA.POLAR.0>
0

>  <SCORE.INTRA.REPUL>
0

>  <SCORE.INTRA.REPUL.0>
0

>  <SCORE.INTRA.SOLV>
-0.185047

>  <SCORE.INTRA.SOLV.lig_0>
-65.3082

>  <SCORE.INTRA.VDW>
0.514085

>  <SCORE.INTRA.VDW.0>
-4.21408

>  <SCORE.INTRA.norm>
-0.102484

>  <SCORE.RESTR>
0

>  <SCORE.RESTR.CAVITY>
0

>  <SCORE.RESTR.norm>
0

>  <SCORE.SYSTEM>
0

>  <SCORE.SYSTEM.CONST>
0

>  <SCORE.SYSTEM.DIHEDRAL>
0

>  <SCORE.SYSTEM.SOLV>
0

>  <SCORE.SYSTEM.norm>
0

>  <SCORE.heavy>
31

>  <SCORE.norm>
-0.483189

>  <RMSD>
1.309

$$$$
ligand
 OpenBabel11021811493D
libRbt.so/2013.1/901 2013/11/27
 31 33  0  0  0  0  0  0  0  0999 V2000
    2.5081   15.3677   36.7810 C   0  0  2  0  0  0  0  0  0  0  0  0
    1.8198   15.9617   37.8649 O   0  0  0  0  0  0  0  0  0  0  0  0
   -1.8762   15.3713   39.8776 C   0  0  2  0  0  0  0  0  0  0  0  0
   -3.2752   15.2063   40.0829 N   0  0  0  0  0  0  0  0  0  0  0  0
   -2.8723   12.3473   39.7941 C   0  0  2  0  0  0  0  0  0  0  0  0
    4.0664   15.5944   37.0008 C   0  0  2  0  0  0  0  0  0  0  0  0
    4.4583   15.0156   38.2814 N   0  0  0  0  0  0  0  0  0  0  0  0
   -1.6408   16.7694   39.1499 C   0  0  0  0  0  0  0  0  0  0  0  0
   -2.5845   10.9708   40.4823 C   0  0  2  0  0  0  0  0  0  0  0  0
   -1.8691   11.2030   41.6771 O   0  0  0  0  0  0  0  0  0  0  0  0
    4.4161   17.1267   36.9402 C   0  0  0  0  0  0  0  0  0  0  0  0
   -0.0834   16.9599   38.9364 C   0  0  2  0  0  0  0  0  0  0  0  0
    0.1524   18.2446   38.2763 N   0  0  0  0  0  0  0  0  0  0  0  0
   -1.7464   10.0834   39.4916 C   0  0  1  0  0  0  0  0  0  0  0  0
   -1.4428    8.7632   40.1315 N   0  0  0  0  0  0  0  0  0  0  0  0
    3.5940   17.8740   35.8081 C   0  0  0  0  0  0  0  0  0  0  0  0
    0.4593   15.7784   38.0327 C   0  0  2  0  0  0  0  0  0  0  0  0
   -2.6187    9.8391   38.1398 C   0  0  1  0  0  0  0  0  0  0  0  0
   -3.8440    9.1756   38.3802 O   0  0  0  0  0  0  0  0  0  0  0  0
    2.5394   17.2802   35.1983 C   0  0  1  0  0  0  0  0  0  0  0  0
    2.0919   15.9645   35.5128 O   0  0  0  0  0  0  0  0  0  0  0  0
    0.1988   14.3908   38.7541 C   0  0  2  0  0  0  0  0  0  0  0  0
    0.6828   13.3202   37.9175 O   0  0  0  0  0  0  0  0  0  0  0  0
   -2.9361   11.2152   37.4815 C   0  0  0  0  0  0  0  0  0  0  0  0
   -3.6162   12.1271   38.4881 O   0  0  0  0  0  0  0  0  0  0  0  0
    1.7270   17.9597   34.1220 C   0  0  0  0  0  0  0  0  0  0  0  0
    1.7912   19.3770   34.3906 O   0  0  0  0  0  0  0  0  0  0  0  0
   -1.3516   14.2068   38.9721 C   0  0  1  0  0  0  0  0  0  0  0  0
   -1.5569   12.9745   39.6174 O   0  0  0  0  0  0  0  0  0  0  0  0
   -1.9163    8.9901   37.0722 C   0  0  0  0  0  0  0  0  0  0  0  0
   -0.0598    8.2657   39.9800 C   0  0  0  0  0  0  0  0  0  0  0  0
  1  2  1  1  0  0  0
  1  6  1  0  0  0  0
  1 21  1  0  0  0  0
  3  4  1  6  0  0  0
  3  8  1  0  0  0  0
  3 28  1  0  0  0  0
  5  9  1  0  0  0  0
  5 25  1  0  0  0  0
  5 29  1  6  0  0  0
  6  7  1  1  0  0  0
  6 11  1  0  0  0  0
  8 12  1  0  0  0  0
  9 10  1  1  0  0  0
  9 14  1  0  0  0  0
 11 16  1  0  0  0  0
 12 13  1  6  0  0  0
 12 17  1  0  0  0  0
 14 15  1  1  0  0  0
 14 18  1  0  0  0  0
 15 31  1  0  0  0  0
 16 20  1  0  0  0  0
 17  2  1  1  0  0  0
 17 22  1  0  0  0  0
 18 19  1  1  0  0  0
 18 24  1  0  0  0  0
 18 30  1  0  0  0  0
 20 21  1  0  0  0  0
 20 26  1  1  0  0  0
 22 23  1  6  0  0  0
 22 28  1  0  0  0  0
 24 25  1  0  0  0  0
 26 27  1  0  0  0  0
 28 29  1  1  0  0  0
M  END
>  <CHROM.1>
-171.77639846,176.77296021,-135.74533770,-158.55073752,-29.19953535,71.96993544
-0.16373620,13.96707651,38.13662800,-0.92834543,-0.47260041,3.05396615

>  <Name>
ligand

>  <RI>
0

>  <Rbt.Current_Directory>
/home/itssahil/PROJECTS/Mol_Feturizer/New_Systems/rnas/4GPY

>  <Rbt.Executable>
rbdock ($Id: //depot/dev/client3/rdock/2013.1/src/exe/rbdock.cxx#4 $)

>  <Rbt.Library>
libRbt.so (2013.1, Build901 2013/11/27)

>  <Rbt.Parameter_File>
/export/apps/rDock/src/rDock_2013.1_src/data/scripts/dock_solv.prm

>  <Rbt.Receptor>
prm/pocket_docking_3.prm

>  <SCORE>
-14.8244

>  <SCORE.INTER>
-12.1921

>  <SCORE.INTER.CONST>
1

>  <SCORE.INTER.POLAR>
0

>  <SCORE.INTER.ROT>
6

>  <SCORE.INTER.SOLV>
18.8564

>  <SCORE.INTER.VDW>
-22.0135

>  <SCORE.INTER.norm>
-0.393292

>  <SCORE.INTRA>
-2.80871

>  <SCORE.INTRA.DIHEDRAL>
-7.98106

>  <SCORE.INTRA.DIHEDRAL.0>
14.7001

>  <SCORE.INTRA.POLAR>
0

>  <SCORE.INTRA.POLAR.0>
0

>  <SCORE.INTRA.REPUL>
0

>  <SCORE.INTRA.REPUL.0>
0

>  <SCORE.INTRA.SOLV>
-0.620902

>  <SCORE.INTRA.SOLV.lig_0>
-65.3082

>  <SCORE.INTRA.VDW>
1.49228

>  <SCORE.INTRA.VDW.0>
-4.21408

>  <SCORE.INTRA.norm>
-0.0906035

>  <SCORE.RESTR>
0.17634

>  <SCORE.RESTR.CAVITY>
0.17634

>  <SCORE.RESTR.norm>
0.0056884

>  <SCORE.SYSTEM>
0

>  <SCORE.SYSTEM.CONST>
0

>  <SCORE.SYSTEM.DIHEDRAL>
0

>  <SCORE.SYSTEM.SOLV>
0

>  <SCORE.SYSTEM.norm>
0

>  <SCORE.heavy>
31

>  <SCORE.norm>
-0.478207

>  <RMSD>
1.310

$$$$
ligand
 OpenBabel11021811493D
libRbt.so/2013.1/901 2013/11/27
 31 33  0  0  0  0  0  0  0  0999 V2000
    2.6282   15.5059   36.7333 C   0  0  2  0  0  0  0  0  0  0  0  0
    1.9197   16.0537   37.8284 O   0  0  0  0  0  0  0  0  0  0  0  0
   -1.7819   15.3764   39.8030 C   0  0  2  0  0  0  0  0  0  0  0  0
   -3.1783   15.1748   39.9935 N   0  0  0  0  0  0  0  0  0  0  0  0
   -2.6993   12.3456   39.7656 C   0  0  2  0  0  0  0  0  0  0  0  0
    4.1829   15.7046   37.0007 C   0  0  2  0  0  0  0  0  0  0  0  0
    4.5381   15.0598   38.2603 N   0  0  0  0  0  0  0  0  0  0  0  0
   -1.5763   16.7754   39.0681 C   0  0  0  0  0  0  0  0  0  0  0  0
   -2.3821   10.9682   40.4390 C   0  0  2  0  0  0  0  0  0  0  0  0
   -1.6426   11.2011   41.6189 O   0  0  0  0  0  0  0  0  0  0  0  0
    4.5487   17.2342   37.0236 C   0  0  0  0  0  0  0  0  0  0  0  0
   -0.0222   17.0069   38.8711 C   0  0  2  0  0  0  0  0  0  0  0  0
    0.1862   18.2930   38.2047 N   0  0  0  0  0  0  0  0  0  0  0  0
   -1.5571   10.0953   39.4246 C   0  0  1  0  0  0  0  0  0  0  0  0
   -1.2258    8.7747   40.0497 N   0  0  0  0  0  0  0  0  0  0  0  0
    3.7615   18.0448   35.9104 C   0  0  0  0  0  0  0  0  0  0  0  0
    0.5629   15.8345   37.9821 C   0  0  2  0  0  0  0  0  0  0  0  0
   -2.4569    9.8498   38.0910 C   0  0  1  0  0  0  0  0  0  0  0  0
   -3.6696    9.1722   38.3547 O   0  0  0  0  0  0  0  0  0  0  0  0
    2.7162   17.4928   35.2475 C   0  0  1  0  0  0  0  0  0  0  0  0
    2.2485   16.1683   35.4864 O   0  0  0  0  0  0  0  0  0  0  0  0
    0.3318   14.4453   38.7102 C   0  0  2  0  0  0  0  0  0  0  0  0
    0.8544   13.3826   37.8868 O   0  0  0  0  0  0  0  0  0  0  0  0
   -2.8029   11.2262   37.4482 C   0  0  0  0  0  0  0  0  0  0  0  0
   -3.4698   12.1252   38.4751 O   0  0  0  0  0  0  0  0  0  0  0  0
    1.9366   18.2329   34.1869 C   0  0  0  0  0  0  0  0  0  0  0  0
    0.7104   18.6732   34.8091 O   0  0  0  0  0  0  0  0  0  0  0  0
   -1.2154   14.2205   38.9118 C   0  0  1  0  0  0  0  0  0  0  0  0
   -1.3947   12.9875   39.5634 O   0  0  0  0  0  0  0  0  0  0  0  0
   -1.7697    9.0143   37.0031 C   0  0  0  0  0  0  0  0  0  0  0  0
    0.1179    8.6553   40.6525 C   0  0  0  0  0  0  0  0  0  0  0  0
  1  2  1  1  0  0  0
  1  6  1  0  0  0  0
  1 21  1  0  0  0  0
  3  4  1  6  0  0  0
  3  8  1  0  0  0  0
  3 28  1  0  0  0  0
  5  9  1  0  0  0  0
  5 25  1  0  0  0  0
  5 29  1  6  0  0  0
  6  7  1  1  0  0  0
  6 11  1  0  0  0  0
  8 12  1  0  0  0  0
  9 10  1  1  0  0  0
  9 14  1  0  0  0  0
 11 16  1  0  0  0  0
 12 13  1  6  0  0  0
 12 17  1  0  0  0  0
 14 15  1  1  0  0  0
 14 18  1  0  0  0  0
 15 31  1  0  0  0  0
 16 20  1  0  0  0  0
 17  2  1  1  0  0  0
 17 22  1  0  0  0  0
 18 19  1  1  0  0  0
 18 24  1  0  0  0  0
 18 30  1  0  0  0  0
 20 21  1  0  0  0  0
 20 26  1  1  0  0  0
 22 23  1  6  0  0  0
 22 28  1  0  0  0  0
 24 25  1  0  0  0  0
 26 27  1  0  0  0  0
 28 29  1  1  0  0  0
M  END
>  <CHROM.1>
-169.29093772,176.25074465,-97.48459889,-156.54225348,-101.85510861,70.02096197
-0.06532872,14.00873893,38.14539620,-0.97440422,-0.36668285,2.97260142

>  <Name>
ligand

>  <RI>
0

>  <Rbt.Current_Directory>
/home/itssahil/PROJECTS/Mol_Feturizer/New_Systems/rnas/4GPY

>  <Rbt.Executable>
rbdock ($Id: //depot/dev/client3/rdock/2013.1/src/exe/rbdock.cxx#4 $)

>  <Rbt.Library>
libRbt.so (2013.1, Build901 2013/11/27)

>  <Rbt.Parameter_File>
/export/apps/rDock/src/rDock_2013.1_src/data/scripts/dock_solv.prm

>  <Rbt.Receptor>
prm/pocket_docking_3.prm

>  <SCORE>
-15.593

>  <SCORE.INTER>
-12.1868

>  <SCORE.INTER.CONST>
1

>  <SCORE.INTER.POLAR>
0

>  <SCORE.INTER.ROT>
6

>  <SCORE.INTER.SOLV>
18.6927

>  <SCORE.INTER.VDW>
-21.9554

>  <SCORE.INTER.norm>
-0.393123

>  <SCORE.INTRA>
-3.51085

>  <SCORE.INTRA.DIHEDRAL>
-8.28521

>  <SCORE.INTRA.DIHEDRAL.0>
14.7001

>  <SCORE.INTRA.POLAR>
0

>  <SCORE.INTRA.POLAR.0>
0

>  <SCORE.INTRA.REPUL>
0.0060921

>  <SCORE.INTRA.REPUL.0>
0

>  <SCORE.INTRA.SOLV>
0.365781

>  <SCORE.INTRA.SOLV.lig_0>
-65.3082

>  <SCORE.INTRA.VDW>
0.418399

>  <SCORE.INTRA.VDW.0>
-4.21408

>  <SCORE.INTRA.norm>
-0.113253

>  <SCORE.RESTR>
0.104703

>  <SCORE.RESTR.CAVITY>
0.104703

>  <SCORE.RESTR.norm>
0.00337751

>  <SCORE.SYSTEM>
0

>  <SCORE.SYSTEM.CONST>
0

>  <SCORE.SYSTEM.DIHEDRAL>
0

>  <SCORE.SYSTEM.SOLV>
0

>  <SCORE.SYSTEM.norm>
0

>  <SCORE.heavy>
31

>  <SCORE.norm>
-0.502999

>  <RMSD>
1.312

$$$$
ligand
 OpenBabel11021811493D
libRbt.so/2013.1/901 2013/11/27
 31 33  0  0  0  0  0  0  0  0999 V2000
    2.4610   15.4937   36.9182 C   0  0  2  0  0  0  0  0  0  0  0  0
    1.7581   16.1427   37.9603 O   0  0  0  0  0  0  0  0  0  0  0  0
   -1.9037   15.4584   40.0056 C   0  0  2  0  0  0  0  0  0  0  0  0
   -3.2979   15.2716   40.2249 N   0  0  0  0  0  0  0  0  0  0  0  0
   -2.8699   12.4514   39.9113 C   0  0  2  0  0  0  0  0  0  0  0  0
    4.0168   15.7212   37.1546 C   0  0  2  0  0  0  0  0  0  0  0  0
    4.3823   15.2016   38.4680 N   0  0  0  0  0  0  0  0  0  0  0  0
   -1.6945   16.8767   39.3097 C   0  0  0  0  0  0  0  0  0  0  0  0
   -2.5629   11.0898   40.6205 C   0  0  2  0  0  0  0  0  0  0  0  0
   -1.8122   11.3470   41.7883 O   0  0  0  0  0  0  0  0  0  0  0  0
    4.3780   17.2468   37.0276 C   0  0  0  0  0  0  0  0  0  0  0  0
   -0.1423   17.0912   39.0808 C   0  0  2  0  0  0  0  0  0  0  0  0
    0.0695   18.3945   38.4497 N   0  0  0  0  0  0  0  0  0  0  0  0
   -1.7551   10.1799   39.6250 C   0  0  1  0  0  0  0  0  0  0  0  0
   -1.4338    8.8735   40.2843 N   0  0  0  0  0  0  0  0  0  0  0  0
    3.5809   17.9443   35.8469 C   0  0  0  0  0  0  0  0  0  0  0  0
    0.4022   15.9389   38.1412 C   0  0  2  0  0  0  0  0  0  0  0  0
   -2.6673    9.9075   38.3053 C   0  0  1  0  0  0  0  0  0  0  0  0
   -3.8855    9.2512   38.5963 O   0  0  0  0  0  0  0  0  0  0  0  0
    2.5331   17.3285   35.2474 C   0  0  1  0  0  0  0  0  0  0  0  0
    2.0711   16.0320   35.6159 O   0  0  0  0  0  0  0  0  0  0  0  0
    0.1675   14.5310   38.8314 C   0  0  2  0  0  0  0  0  0  0  0  0
    0.6530   13.4872   37.9624 O   0  0  0  0  0  0  0  0  0  0  0  0
   -3.0030   11.2694   37.6268 C   0  0  0  0  0  0  0  0  0  0  0  0
   -3.6523   12.2039   38.6329 O   0  0  0  0  0  0  0  0  0  0  0  0
    1.7442   17.9610   34.1258 C   0  0  0  0  0  0  0  0  0  0  0  0
    2.4148   19.1966   33.7964 O   0  0  0  0  0  0  0  0  0  0  0  0
   -1.3775   14.3229   39.0649 C   0  0  1  0  0  0  0  0  0  0  0  0
   -1.5598   13.0728   39.6821 O   0  0  0  0  0  0  0  0  0  0  0  0
   -1.9975    9.0345   37.2361 C   0  0  0  0  0  0  0  0  0  0  0  0
   -0.0129    8.4679   40.2740 C   0  0  0  0  0  0  0  0  0  0  0  0
  1  2  1  1  0  0  0
  1  6  1  0  0  0  0
  1 21  1  0  0  0  0
  3  4  1  6  0  0  0
  3  8  1  0  0  0  0
  3 28  1  0  0  0  0
  5  9  1  0  0  0  0
  5 25  1  0  0  0  0
  5 29  1  6  0  0  0
  6  7  1  1  0  0  0
  6 11  1  0  0  0  0
  8 12  1  0  0  0  0
  9 10  1  1  0  0  0
  9 14  1  0  0  0  0
 11 16  1  0  0  0  0
 12 13  1  6  0  0  0
 12 17  1  0  0  0  0
 14 15  1  1  0  0  0
 14 18  1  0  0  0  0
 15 31  1  0  0  0  0
 16 20  1  0  0  0  0
 17  2  1  1  0  0  0
 17 22  1  0  0  0  0
 18 19  1  1  0  0  0
 18 24  1  0  0  0  0
 18 30  1  0  0  0  0
 20 21  1  0  0  0  0
 20 26  1  1  0  0  0
 22 23  1  6  0  0  0
 22 28  1  0  0  0  0
 24 25  1  0  0  0  0
 26 27  1  0  0  0  0
 28 29  1  1  0  0  0
M  END
>  <CHROM.1>
-169.47871918,-179.83662237,-127.02400878,-163.91209542,5.49445356,69.26674414
-0.16746751,14.06511100,38.23627099,-0.89464285,-0.53189274,3.08617646

>  <Name>
ligand

>  <RI>
0

>  <Rbt.Current_Directory>
/home/itssahil/PROJECTS/Mol_Feturizer/New_Systems/rnas/4GPY

>  <Rbt.Executable>
rbdock ($Id: //depot/dev/client3/rdock/2013.1/src/exe/rbdock.cxx#4 $)

>  <Rbt.Library>
libRbt.so (2013.1, Build901 2013/11/27)

>  <Rbt.Parameter_File>
/export/apps/rDock/src/rDock_2013.1_src/data/scripts/dock_solv.prm

>  <Rbt.Receptor>
prm/pocket_docking_5.prm

>  <SCORE>
-15.5664

>  <SCORE.INTER>
-12.3784

>  <SCORE.INTER.CONST>
1

>  <SCORE.INTER.POLAR>
0

>  <SCORE.INTER.ROT>
6

>  <SCORE.INTER.SOLV>
19.5178

>  <SCORE.INTER.VDW>
-22.3582

>  <SCORE.INTER.norm>
-0.399302

>  <SCORE.INTRA>
-3.18805

>  <SCORE.INTRA.DIHEDRAL>
-9.66055

>  <SCORE.INTRA.DIHEDRAL.0>
14.7001

>  <SCORE.INTRA.POLAR>
0

>  <SCORE.INTRA.POLAR.0>
0

>  <SCORE.INTRA.REPUL>
0

>  <SCORE.INTRA.REPUL.0>
0

>  <SCORE.INTRA.SOLV>
-0.967684

>  <SCORE.INTRA.SOLV.lig_0>
-65.3082

>  <SCORE.INTRA.VDW>
2.12607

>  <SCORE.INTRA.VDW.0>
-4.21408

>  <SCORE.INTRA.norm>
-0.10284

>  <SCORE.RESTR>
0

>  <SCORE.RESTR.CAVITY>
0

>  <SCORE.RESTR.norm>
0

>  <SCORE.SYSTEM>
0

>  <SCORE.SYSTEM.CONST>
0

>  <SCORE.SYSTEM.DIHEDRAL>
0

>  <SCORE.SYSTEM.SOLV>
0

>  <SCORE.SYSTEM.norm>
0

>  <SCORE.heavy>
31

>  <SCORE.norm>
-0.502142

>  <RMSD>
1.322

$$$$
ligand
 OpenBabel11021811493D
libRbt.so/2013.1/901 2013/11/27
 31 33  0  0  0  0  0  0  0  0999 V2000
    2.4820   15.3361   36.8271 C   0  0  2  0  0  0  0  0  0  0  0  0
    1.7894   15.8922   37.9282 O   0  0  0  0  0  0  0  0  0  0  0  0
   -1.8508   15.1002   39.9732 C   0  0  2  0  0  0  0  0  0  0  0  0
   -3.2409   14.8865   40.1944 N   0  0  0  0  0  0  0  0  0  0  0  0
   -2.7650   12.0514   39.7431 C   0  0  2  0  0  0  0  0  0  0  0  0
    4.0416   15.4928   37.0937 C   0  0  2  0  0  0  0  0  0  0  0  0
    4.3822   14.8281   38.3470 N   0  0  0  0  0  0  0  0  0  0  0  0
   -1.6670   16.5387   39.3123 C   0  0  0  0  0  0  0  0  0  0  0  0
   -2.4248   10.6438   40.3383 C   0  0  2  0  0  0  0  0  0  0  0  0
   -1.6975   10.8224   41.5351 O   0  0  0  0  0  0  0  0  0  0  0  0
    4.4464   17.0123   37.1293 C   0  0  0  0  0  0  0  0  0  0  0  0
   -0.1195   16.7828   39.0815 C   0  0  2  0  0  0  0  0  0  0  0  0
    0.0691   18.1046   38.4824 N   0  0  0  0  0  0  0  0  0  0  0  0
   -1.5764    9.8472   39.2813 C   0  0  1  0  0  0  0  0  0  0  0  0
   -1.2229    8.4993   39.8317 N   0  0  0  0  0  0  0  0  0  0  0  0
    3.6785   17.8524   36.0246 C   0  0  0  0  0  0  0  0  0  0  0  0
    0.4377   15.6630   38.1105 C   0  0  2  0  0  0  0  0  0  0  0  0
   -2.4627    9.6617   37.9293 C   0  0  1  0  0  0  0  0  0  0  0  0
   -3.6633    8.9465   38.1444 O   0  0  0  0  0  0  0  0  0  0  0  0
    2.6185   17.3332   35.3587 C   0  0  1  0  0  0  0  0  0  0  0  0
    2.1176   16.0189   35.5867 O   0  0  0  0  0  0  0  0  0  0  0  0
    0.2282   14.2347   38.7660 C   0  0  2  0  0  0  0  0  0  0  0  0
    0.7250   13.2207   37.8686 O   0  0  0  0  0  0  0  0  0  0  0  0
   -2.8319   11.0660   37.3643 C   0  0  0  0  0  0  0  0  0  0  0  0
   -3.5229   11.8909   38.4363 O   0  0  0  0  0  0  0  0  0  0  0  0
    1.8565   18.1021   34.3059 C   0  0  0  0  0  0  0  0  0  0  0  0
    0.6569   18.5931   34.9420 O   0  0  0  0  0  0  0  0  0  0  0  0
   -1.3122   13.9970   39.0016 C   0  0  1  0  0  0  0  0  0  0  0  0
   -1.4721   12.7291   39.5879 O   0  0  0  0  0  0  0  0  0  0  0  0
   -1.7523    8.9039   36.8001 C   0  0  0  0  0  0  0  0  0  0  0  0
    0.2098    8.2582   40.1011 C   0  0  0  0  0  0  0  0  0  0  0  0
  1  2  1  1  0  0  0
  1  6  1  0  0  0  0
  1 21  1  0  0  0  0
  3  4  1  6  0  0  0
  3  8  1  0  0  0  0
  3 28  1  0  0  0  0
  5  9  1  0  0  0  0
  5 25  1  0  0  0  0
  5 29  1  6  0  0  0
  6  7  1  1  0  0  0
  6 11  1  0  0  0  0
  8 12  1  0  0  0  0
  9 10  1  1  0  0  0
  9 14  1  0  0  0  0
 11 16  1  0  0  0  0
 12 13  1  6  0  0  0
 12 17  1  0  0  0  0
 14 15  1  1  0  0  0
 14 18  1  0  0  0  0
 15 31  1  0  0  0  0
 16 20  1  0  0  0  0
 17  2  1  1  0  0  0
 17 22  1  0  0  0  0
 18 19  1  1  0  0  0
 18 24  1  0  0  0  0
 18 30  1  0  0  0  0
 20 21  1  0  0  0  0
 20 26  1  1  0  0  0
 22 23  1  6  0  0  0
 22 28  1  0  0  0  0
 24 25  1  0  0  0  0
 26 27  1  0  0  0  0
 28 29  1  1  0  0  0
M  END
>  <CHROM.1>
-166.74295218,175.79850037,-113.33893248,-160.61210303,-100.61888306,72.64988775
-0.13709435,13.79026727,38.16272282,-0.96351802,-0.43707837,3.05925280

>  <Name>
ligand

>  <RI>
0

>  <Rbt.Current_Directory>
/home/itssahil/PROJECTS/Mol_Feturizer/New_Systems/rnas/4GPY

>  <Rbt.Executable>
rbdock ($Id: //depot/dev/client3/rdock/2013.1/src/exe/rbdock.cxx#4 $)

>  <Rbt.Library>
libRbt.so (2013.1, Build901 2013/11/27)

>  <Rbt.Parameter_File>
/export/apps/rDock/src/rDock_2013.1_src/data/scripts/dock_solv.prm

>  <Rbt.Receptor>
prm/pocket_docking_4.prm

>  <SCORE>
-16.2164

>  <SCORE.INTER>
-12.5191

>  <SCORE.INTER.CONST>
1

>  <SCORE.INTER.POLAR>
0

>  <SCORE.INTER.ROT>
6

>  <SCORE.INTER.SOLV>
18.1575

>  <SCORE.INTER.VDW>
-21.9985

>  <SCORE.INTER.norm>
-0.40384

>  <SCORE.INTRA>
-3.702

>  <SCORE.INTRA.DIHEDRAL>
-8.01279

>  <SCORE.INTRA.DIHEDRAL.0>
14.7001

>  <SCORE.INTRA.POLAR>
0

>  <SCORE.INTRA.POLAR.0>
0

>  <SCORE.INTRA.REPUL>
0.00407215

>  <SCORE.INTRA.REPUL.0>
0

>  <SCORE.INTRA.SOLV>
-0.131231

>  <SCORE.INTRA.SOLV.lig_0>
-65.3082

>  <SCORE.INTRA.VDW>
0.349651

>  <SCORE.INTRA.VDW.0>
-4.21408

>  <SCORE.INTRA.norm>
-0.119419

>  <SCORE.RESTR>
0.00461256

>  <SCORE.RESTR.CAVITY>
0.00461256

>  <SCORE.RESTR.norm>
0.000148792

>  <SCORE.SYSTEM>
0

>  <SCORE.SYSTEM.CONST>
0

>  <SCORE.SYSTEM.DIHEDRAL>
0

>  <SCORE.SYSTEM.SOLV>
0

>  <SCORE.SYSTEM.norm>
0

>  <SCORE.heavy>
31

>  <SCORE.norm>
-0.523111

>  <RMSD>
1.331

$$$$
ligand
 OpenBabel11021811493D
libRbt.so/2013.1/901 2013/11/27
 31 33  0  0  0  0  0  0  0  0999 V2000
    2.4750   15.3512   36.8092 C   0  0  2  0  0  0  0  0  0  0  0  0
    1.7765   15.9052   37.9076 O   0  0  0  0  0  0  0  0  0  0  0  0
   -1.8551   15.0579   39.9456 C   0  0  2  0  0  0  0  0  0  0  0  0
   -3.2436   14.8333   40.1660 N   0  0  0  0  0  0  0  0  0  0  0  0
   -2.7564   12.0143   39.6721 C   0  0  2  0  0  0  0  0  0  0  0  0
    4.0332   15.5081   37.0841 C   0  0  2  0  0  0  0  0  0  0  0  0
    4.3675   14.8415   38.3380 N   0  0  0  0  0  0  0  0  0  0  0  0
   -1.6798   16.5091   39.3110 C   0  0  0  0  0  0  0  0  0  0  0  0
   -2.4109   10.6068   40.2645 C   0  0  2  0  0  0  0  0  0  0  0  0
   -1.6821   10.7857   41.4604 O   0  0  0  0  0  0  0  0  0  0  0  0
    4.4372   17.0277   37.1242 C   0  0  0  0  0  0  0  0  0  0  0  0
   -0.1340   16.7650   39.0813 C   0  0  2  0  0  0  0  0  0  0  0  0
    0.0469   18.0986   38.5064 N   0  0  0  0  0  0  0  0  0  0  0  0
   -1.5620    9.8144   39.2049 C   0  0  1  0  0  0  0  0  0  0  0  0
   -1.2035    8.4667   39.7526 N   0  0  0  0  0  0  0  0  0  0  0  0
    3.6746   17.8692   36.0169 C   0  0  0  0  0  0  0  0  0  0  0  0
    0.4264   15.6661   38.0886 C   0  0  2  0  0  0  0  0  0  0  0  0
   -2.4500    9.6283   37.8541 C   0  0  1  0  0  0  0  0  0  0  0  0
   -3.6482    8.9093   38.0702 O   0  0  0  0  0  0  0  0  0  0  0  0
    2.6183   17.3506   35.3447 C   0  0  1  0  0  0  0  0  0  0  0  0
    2.1167   16.0358   35.5680 O   0  0  0  0  0  0  0  0  0  0  0  0
    0.2253   14.2249   38.7180 C   0  0  2  0  0  0  0  0  0  0  0  0
    0.7250   13.2301   37.8010 O   0  0  0  0  0  0  0  0  0  0  0  0
   -2.8245   11.0324   37.2920 C   0  0  0  0  0  0  0  0  0  0  0  0
   -3.5160   11.8536   38.3664 O   0  0  0  0  0  0  0  0  0  0  0  0
    1.8614   18.1209   34.2892 C   0  0  0  0  0  0  0  0  0  0  0  0
    0.6285   18.5562   34.9017 O   0  0  0  0  0  0  0  0  0  0  0  0
   -1.3134   13.9754   38.9526 C   0  0  1  0  0  0  0  0  0  0  0  0
   -1.4658   12.6961   39.5158 O   0  0  0  0  0  0  0  0  0  0  0  0
   -1.7393    8.8745   36.7225 C   0  0  0  0  0  0  0  0  0  0  0  0
    0.1860    8.3025   40.2278 C   0  0  0  0  0  0  0  0  0  0  0  0
  1  2  1  1  0  0  0
  1  6  1  0  0  0  0
  1 21  1  0  0  0  0
  3  4  1  6  0  0  0
  3  8  1  0  0  0  0
  3 28  1  0  0  0  0
  5  9  1  0  0  0  0
  5 25  1  0  0  0  0
  5 29  1  6  0  0  0
  6  7  1  1  0  0  0
  6 11  1  0  0  0  0
  8 12  1  0  0  0  0
  9 10  1  1  0  0  0
  9 14  1  0  0  0  0
 11 16  1  0  0  0  0
 12 13  1  6  0  0  0
 12 17  1  0  0  0  0
 14 15  1  1  0  0  0
 14 18  1  0  0  0  0
 15 31  1  0  0  0  0
 16 20  1  0  0  0  0
 17  2  1  1  0  0  0
 17 22  1  0  0  0  0
 18 19  1  1  0  0  0
 18 24  1  0  0  0  0
 18 30  1  0  0  0  0
 20 21  1  0  0  0  0
 20 26  1  1  0  0  0
 22 23  1  6  0  0  0
 22 28  1  0  0  0  0
 24 25  1  0  0  0  0
 26 27  1  0  0  0  0
 28 29  1  1  0  0  0
M  END
>  <CHROM.1>
-166.20243952,176.96988310,-103.57780152,-161.87293364,-103.28938321,72.08508990
-0.13853095,13.77742363,38.12802589,-0.96692817,-0.43514536,3.06293710

>  <Name>
ligand

>  <RI>
0

>  <Rbt.Current_Directory>
/home/itssahil/PROJECTS/Mol_Feturizer/New_Systems/rnas/4GPY

>  <Rbt.Executable>
rbdock ($Id: //depot/dev/client3/rdock/2013.1/src/exe/rbdock.cxx#4 $)

>  <Rbt.Library>
libRbt.so (2013.1, Build901 2013/11/27)

>  <Rbt.Parameter_File>
/export/apps/rDock/src/rDock_2013.1_src/data/scripts/dock_solv.prm

>  <Rbt.Receptor>
prm/pocket_docking_4.prm

>  <SCORE>
-16.1883

>  <SCORE.INTER>
-12.2731

>  <SCORE.INTER.CONST>
1

>  <SCORE.INTER.POLAR>
0

>  <SCORE.INTER.ROT>
6

>  <SCORE.INTER.SOLV>
18.3118

>  <SCORE.INTER.VDW>
-21.886

>  <SCORE.INTER.norm>
-0.395907

>  <SCORE.INTRA>
-3.91938

>  <SCORE.INTRA.DIHEDRAL>
-8.53073

>  <SCORE.INTRA.DIHEDRAL.0>
14.7001

>  <SCORE.INTRA.POLAR>
0

>  <SCORE.INTRA.POLAR.0>
0

>  <SCORE.INTRA.REPUL>
0.00102899

>  <SCORE.INTRA.REPUL.0>
0

>  <SCORE.INTRA.SOLV>
-0.219236

>  <SCORE.INTRA.SOLV.lig_0>
-65.3082

>  <SCORE.INTRA.VDW>
0.450465

>  <SCORE.INTRA.VDW.0>
-4.21408

>  <SCORE.INTRA.norm>
-0.126431

>  <SCORE.RESTR>
0.00419371

>  <SCORE.RESTR.CAVITY>
0.00419371

>  <SCORE.RESTR.norm>
0.000135281

>  <SCORE.SYSTEM>
0

>  <SCORE.SYSTEM.CONST>
0

>  <SCORE.SYSTEM.DIHEDRAL>
0

>  <SCORE.SYSTEM.SOLV>
0

>  <SCORE.SYSTEM.norm>
0

>  <SCORE.heavy>
31

>  <SCORE.norm>
-0.522203

>  <RMSD>
1.336

$$$$
ligand
 OpenBabel11021811493D
libRbt.so/2013.1/901 2013/11/27
 31 33  0  0  0  0  0  0  0  0999 V2000
    2.6433   15.3436   36.8071 C   0  0  2  0  0  0  0  0  0  0  0  0
    1.9487   15.7856   37.9575 O   0  0  0  0  0  0  0  0  0  0  0  0
   -1.8259   15.2885   39.8456 C   0  0  2  0  0  0  0  0  0  0  0  0
   -3.2320   15.1295   40.0020 N   0  0  0  0  0  0  0  0  0  0  0  0
   -2.8092   12.2463   39.8574 C   0  0  2  0  0  0  0  0  0  0  0  0
    4.2009   15.3839   37.1239 C   0  0  2  0  0  0  0  0  0  0  0  0
    4.4750   14.5445   38.2853 N   0  0  0  0  0  0  0  0  0  0  0  0
   -1.5629   16.6473   39.0556 C   0  0  0  0  0  0  0  0  0  0  0  0
   -2.5294   10.8489   40.5056 C   0  0  2  0  0  0  0  0  0  0  0  0
   -1.8365   11.0441   41.7201 O   0  0  0  0  0  0  0  0  0  0  0  0
    4.6772   16.8630   37.3680 C   0  0  0  0  0  0  0  0  0  0  0  0
    0.0017   16.8319   38.8964 C   0  0  2  0  0  0  0  0  0  0  0  0
    0.2626   18.0810   38.1798 N   0  0  0  0  0  0  0  0  0  0  0  0
   -1.6705    9.9965   39.5020 C   0  0  1  0  0  0  0  0  0  0  0  0
   -1.3743    8.6570   40.1041 N   0  0  0  0  0  0  0  0  0  0  0  0
    3.9807   17.8785   36.3683 C   0  0  0  0  0  0  0  0  0  0  0  0
    0.5827   15.6065   38.0790 C   0  0  2  0  0  0  0  0  0  0  0  0
   -2.5175    9.7940   38.1273 C   0  0  1  0  0  0  0  0  0  0  0  0
   -3.7447    9.1197   38.3238 O   0  0  0  0  0  0  0  0  0  0  0  0
    2.9154   17.5058   35.6181 C   0  0  1  0  0  0  0  0  0  0  0  0
    2.3459   16.2005   35.6604 O   0  0  0  0  0  0  0  0  0  0  0  0
    0.2947   14.2578   38.8610 C   0  0  2  0  0  0  0  0  0  0  0  0
    0.8142   13.1465   38.1024 O   0  0  0  0  0  0  0  0  0  0  0  0
   -2.8274   11.1899   37.5084 C   0  0  0  0  0  0  0  0  0  0  0  0
   -3.5286   12.0667   38.5315 O   0  0  0  0  0  0  0  0  0  0  0  0
    2.2201   18.4439   34.6606 C   0  0  0  0  0  0  0  0  0  0  0  0
    1.7960   17.6442   33.5356 O   0  0  0  0  0  0  0  0  0  0  0  0
   -1.2630   14.0799   39.0248 C   0  0  1  0  0  0  0  0  0  0  0  0
   -1.4929   12.8825   39.7251 O   0  0  0  0  0  0  0  0  0  0  0  0
   -1.7931    8.9820   37.0457 C   0  0  0  0  0  0  0  0  0  0  0  0
    0.0403    8.3872   40.4349 C   0  0  0  0  0  0  0  0  0  0  0  0
  1  2  1  1  0  0  0
  1  6  1  0  0  0  0
  1 21  1  0  0  0  0
  3  4  1  6  0  0  0
  3  8  1  0  0  0  0
  3 28  1  0  0  0  0
  5  9  1  0  0  0  0
  5 25  1  0  0  0  0
  5 29  1  6  0  0  0
  6  7  1  1  0  0  0
  6 11  1  0  0  0  0
  8 12  1  0  0  0  0
  9 10  1  1  0  0  0
  9 14  1  0  0  0  0
 11 16  1  0  0  0  0
 12 13  1  6  0  0  0
 12 17  1  0  0  0  0
 14 15  1  1  0  0  0
 14 18  1  0  0  0  0
 15 31  1  0  0  0  0
 16 20  1  0  0  0  0
 17  2  1  1  0  0  0
 17 22  1  0  0  0  0
 18 19  1  1  0  0  0
 18 24  1  0  0  0  0
 18 30  1  0  0  0  0
 20 21  1  0  0  0  0
 20 26  1  1  0  0  0
 22 23  1  6  0  0  0
 22 28  1  0  0  0  0
 24 25  1  0  0  0  0
 26 27  1  0  0  0  0
 28 29  1  1  0  0  0
M  END
>  <CHROM.1>
-166.87251229,171.11143649,-113.02318978,-146.93386613,145.01484858,73.27429682
-0.03612300,13.83706034,38.20418033,-0.91608384,-0.41486904,3.02013161

>  <Name>
ligand

>  <RI>
0

>  <Rbt.Current_Directory>
/home/itssahil/PROJECTS/Mol_Feturizer/New_Systems/rnas/4GPY

>  <Rbt.Executable>
rbdock ($Id: //depot/dev/client3/rdock/2013.1/src/exe/rbdock.cxx#4 $)

>  <Rbt.Library>
libRbt.so (2013.1, Build901 2013/11/27)

>  <Rbt.Parameter_File>
/export/apps/rDock/src/rDock_2013.1_src/data/scripts/dock_solv.prm

>  <Rbt.Receptor>
prm/pocket_docking_3.prm

>  <SCORE>
-14.2195

>  <SCORE.INTER>
-12.4883

>  <SCORE.INTER.CONST>
1

>  <SCORE.INTER.POLAR>
0

>  <SCORE.INTER.ROT>
6

>  <SCORE.INTER.SOLV>
19.0417

>  <SCORE.INTER.VDW>
-22.2728

>  <SCORE.INTER.norm>
-0.402847

>  <SCORE.INTRA>
-1.81109

>  <SCORE.INTRA.DIHEDRAL>
-4.92949

>  <SCORE.INTRA.DIHEDRAL.0>
14.7001

>  <SCORE.INTRA.POLAR>
0

>  <SCORE.INTRA.POLAR.0>
0

>  <SCORE.INTRA.REPUL>
0

>  <SCORE.INTRA.REPUL.0>
0

>  <SCORE.INTRA.SOLV>
0.427412

>  <SCORE.INTRA.SOLV.lig_0>
-65.3082

>  <SCORE.INTRA.VDW>
0.439943

>  <SCORE.INTRA.VDW.0>
-4.21408

>  <SCORE.INTRA.norm>
-0.0584224

>  <SCORE.RESTR>
0.0798349

>  <SCORE.RESTR.CAVITY>
0.0798349

>  <SCORE.RESTR.norm>
0.00257532

>  <SCORE.SYSTEM>
0

>  <SCORE.SYSTEM.CONST>
0

>  <SCORE.SYSTEM.DIHEDRAL>
0

>  <SCORE.SYSTEM.SOLV>
0

>  <SCORE.SYSTEM.norm>
0

>  <SCORE.heavy>
31

>  <SCORE.norm>
-0.458695

>  <RMSD>
1.341

$$$$
ligand
 OpenBabel11021811493D
libRbt.so/2013.1/901 2013/11/27
 31 33  0  0  0  0  0  0  0  0999 V2000
    2.5292   15.3603   37.0131 C   0  0  2  0  0  0  0  0  0  0  0  0
    1.8035   15.9716   38.0624 O   0  0  0  0  0  0  0  0  0  0  0  0
   -1.9194   15.3113   40.0025 C   0  0  2  0  0  0  0  0  0  0  0  0
   -3.3192   15.1225   40.1808 N   0  0  0  0  0  0  0  0  0  0  0  0
   -2.8692   12.2928   39.9263 C   0  0  2  0  0  0  0  0  0  0  0  0
    4.0753   15.6476   37.2484 C   0  0  2  0  0  0  0  0  0  0  0  0
    4.4644   15.1314   38.5564 N   0  0  0  0  0  0  0  0  0  0  0  0
   -1.6935   16.7165   39.2856 C   0  0  0  0  0  0  0  0  0  0  0  0
   -2.5715   10.9030   40.5827 C   0  0  2  0  0  0  0  0  0  0  0  0
   -1.8342   11.1112   41.7686 O   0  0  0  0  0  0  0  0  0  0  0  0
    4.3750   17.1874   37.1342 C   0  0  0  0  0  0  0  0  0  0  0  0
   -0.1357   16.9334   39.1024 C   0  0  2  0  0  0  0  0  0  0  0  0
    0.0913   18.2249   38.4525 N   0  0  0  0  0  0  0  0  0  0  0  0
   -1.7532   10.0334   39.5602 C   0  0  1  0  0  0  0  0  0  0  0  0
   -1.4406    8.7007   40.1691 N   0  0  0  0  0  0  0  0  0  0  0  0
    3.5480   17.8630   35.9614 C   0  0  0  0  0  0  0  0  0  0  0  0
    0.4432   15.7653   38.2038 C   0  0  2  0  0  0  0  0  0  0  0  0
   -2.6503    9.8165   38.2200 C   0  0  1  0  0  0  0  0  0  0  0  0
   -3.8723    9.1504   38.4699 O   0  0  0  0  0  0  0  0  0  0  0  0
    2.5241   17.2112   35.3586 C   0  0  1  0  0  0  0  0  0  0  0  0
    2.1151   15.8941   35.7165 O   0  0  0  0  0  0  0  0  0  0  0  0
    0.1921   14.3702   38.9140 C   0  0  2  0  0  0  0  0  0  0  0  0
    0.7093   13.3116   38.0820 O   0  0  0  0  0  0  0  0  0  0  0  0
   -2.9769   11.2054   37.5940 C   0  0  0  0  0  0  0  0  0  0  0  0
   -3.6370   12.0988   38.6300 O   0  0  0  0  0  0  0  0  0  0  0  0
    1.7080   17.8215   34.2443 C   0  0  0  0  0  0  0  0  0  0  0  0
    2.4346   18.9839   33.7906 O   0  0  0  0  0  0  0  0  0  0  0  0
   -1.3589   14.1598   39.1020 C   0  0  1  0  0  0  0  0  0  0  0  0
   -1.5560   12.9213   39.7378 O   0  0  0  0  0  0  0  0  0  0  0  0
   -1.9690    8.9870   37.1238 C   0  0  0  0  0  0  0  0  0  0  0  0
   -0.0459    8.2314   40.0350 C   0  0  0  0  0  0  0  0  0  0  0  0
  1  2  1  1  0  0  0
  1  6  1  0  0  0  0
  1 21  1  0  0  0  0
  3  4  1  6  0  0  0
  3  8  1  0  0  0  0
  3 28  1  0  0  0  0
  5  9  1  0  0  0  0
  5 25  1  0  0  0  0
  5 29  1  6  0  0  0
  6  7  1  1  0  0  0
  6 11  1  0  0  0  0
  8 12  1  0  0  0  0
  9 10  1  1  0  0  0
  9 14  1  0  0  0  0
 11 16  1  0  0  0  0
 12 13  1  6  0  0  0
 12 17  1  0  0  0  0
 14 15  1  1  0  0  0
 14 18  1  0  0  0  0
 15 31  1  0  0  0  0
 16 20  1  0  0  0  0
 17  2  1  1  0  0  0
 17 22  1  0  0  0  0
 18 19  1  1  0  0  0
 18 24  1  0  0  0  0
 18 30  1  0  0  0  0
 20 21  1  0  0  0  0
 20 26  1  1  0  0  0
 22 23  1  6  0  0  0
 22 28  1  0  0  0  0
 24 25  1  0  0  0  0
 26 27  1  0  0  0  0
 28 29  1  1  0  0  0
M  END
>  <CHROM.1>
-172.77141362,176.17946407,-133.11981547,-160.54460313,13.74761469,69.85121140
-0.15425413,13.92396032,38.24912806,-0.89512989,-0.51534969,3.09542718

>  <Name>
ligand

>  <RI>
0

>  <Rbt.Current_Directory>
/home/itssahil/PROJECTS/Mol_Feturizer/New_Systems/rnas/4GPY

>  <Rbt.Executable>
rbdock ($Id: //depot/dev/client3/rdock/2013.1/src/exe/rbdock.cxx#4 $)

>  <Rbt.Library>
libRbt.so (2013.1, Build901 2013/11/27)

>  <Rbt.Parameter_File>
/export/apps/rDock/src/rDock_2013.1_src/data/scripts/dock_solv.prm

>  <Rbt.Receptor>
prm/pocket_docking_5.prm

>  <SCORE>
-15.4441

>  <SCORE.INTER>
-12.4319

>  <SCORE.INTER.CONST>
1

>  <SCORE.INTER.POLAR>
0

>  <SCORE.INTER.ROT>
6

>  <SCORE.INTER.SOLV>
19.1066

>  <SCORE.INTER.VDW>
-22.2568

>  <SCORE.INTER.norm>
-0.401031

>  <SCORE.INTRA>
-3.01217

>  <SCORE.INTRA.DIHEDRAL>
-9.20253

>  <SCORE.INTRA.DIHEDRAL.0>
14.7001

>  <SCORE.INTRA.POLAR>
0

>  <SCORE.INTRA.POLAR.0>
0

>  <SCORE.INTRA.REPUL>
0

>  <SCORE.INTRA.REPUL.0>
0

>  <SCORE.INTRA.SOLV>
-0.728652

>  <SCORE.INTRA.SOLV.lig_0>
-65.3082

>  <SCORE.INTRA.VDW>
1.95342

>  <SCORE.INTRA.VDW.0>
-4.21408

>  <SCORE.INTRA.norm>
-0.0971669

>  <SCORE.RESTR>
0

>  <SCORE.RESTR.CAVITY>
0

>  <SCORE.RESTR.norm>
0

>  <SCORE.SYSTEM>
0

>  <SCORE.SYSTEM.CONST>
0

>  <SCORE.SYSTEM.DIHEDRAL>
0

>  <SCORE.SYSTEM.SOLV>
0

>  <SCORE.SYSTEM.norm>
0

>  <SCORE.heavy>
31

>  <SCORE.norm>
-0.498198

>  <RMSD>
1.346

$$$$
ligand
 OpenBabel11021811493D
libRbt.so/2013.1/901 2013/11/27
 31 33  0  0  0  0  0  0  0  0999 V2000
    2.5345   15.2546   36.9872 C   0  0  2  0  0  0  0  0  0  0  0  0
    1.8262   15.8407   38.0624 O   0  0  0  0  0  0  0  0  0  0  0  0
   -1.8817   15.1995   40.0374 C   0  0  2  0  0  0  0  0  0  0  0  0
   -3.2803   15.0145   40.2284 N   0  0  0  0  0  0  0  0  0  0  0  0
   -2.8353   12.1711   39.9666 C   0  0  2  0  0  0  0  0  0  0  0  0
    4.0873   15.4995   37.2259 C   0  0  2  0  0  0  0  0  0  0  0  0
    4.4703   14.9256   38.5114 N   0  0  0  0  0  0  0  0  0  0  0  0
   -1.6591   16.5998   39.3099 C   0  0  0  0  0  0  0  0  0  0  0  0
   -2.5283   10.7562   40.5623 C   0  0  2  0  0  0  0  0  0  0  0  0
   -1.7738   10.9170   41.7448 O   0  0  0  0  0  0  0  0  0  0  0  0
    4.4197   17.0358   37.1689 C   0  0  0  0  0  0  0  0  0  0  0  0
   -0.1024   16.8126   39.1125 C   0  0  2  0  0  0  0  0  0  0  0  0
    0.1216   18.0997   38.4528 N   0  0  0  0  0  0  0  0  0  0  0  0
   -1.7249    9.9287   39.4940 C   0  0  1  0  0  0  0  0  0  0  0  0
   -1.4037    8.5728   40.0444 N   0  0  0  0  0  0  0  0  0  0  0  0
    3.6028   17.7731   36.0266 C   0  0  0  0  0  0  0  0  0  0  0  0
    0.4668   15.6379   38.2164 C   0  0  2  0  0  0  0  0  0  0  0  0
   -2.6414    9.7652   38.1593 C   0  0  1  0  0  0  0  0  0  0  0  0
   -3.8597    9.0891   38.4000 O   0  0  0  0  0  0  0  0  0  0  0  0
    2.5627   17.1668   35.4043 C   0  0  1  0  0  0  0  0  0  0  0  0
    2.1269   15.8461   35.7139 O   0  0  0  0  0  0  0  0  0  0  0  0
    0.2190   14.2477   38.9372 C   0  0  2  0  0  0  0  0  0  0  0  0
    0.7273   13.1830   38.1075 O   0  0  0  0  0  0  0  0  0  0  0  0
   -2.9769   11.1779   37.5943 C   0  0  0  0  0  0  0  0  0  0  0  0
   -3.6218   12.0289   38.6748 O   0  0  0  0  0  0  0  0  0  0  0  0
    1.7556   17.8365   34.3179 C   0  0  0  0  0  0  0  0  0  0  0  0
    2.2366   19.1948   34.2254 O   0  0  0  0  0  0  0  0  0  0  0  0
   -1.3307   14.0414   39.1393 C   0  0  1  0  0  0  0  0  0  0  0  0
   -1.5249   12.8072   39.7844 O   0  0  0  0  0  0  0  0  0  0  0  0
   -1.9761    8.9807   37.0210 C   0  0  0  0  0  0  0  0  0  0  0  0
    0.0279    8.2103   40.0958 C   0  0  0  0  0  0  0  0  0  0  0  0
  1  2  1  1  0  0  0
  1  6  1  0  0  0  0
  1 21  1  0  0  0  0
  3  4  1  6  0  0  0
  3  8  1  0  0  0  0
  3 28  1  0  0  0  0
  5  9  1  0  0  0  0
  5 25  1  0  0  0  0
  5 29  1  6  0  0  0
  6  7  1  1  0  0  0
  6 11  1  0  0  0  0
  8 12  1  0  0  0  0
  9 10  1  1  0  0  0
  9 14  1  0  0  0  0
 11 16  1  0  0  0  0
 12 13  1  6  0  0  0
 12 17  1  0  0  0  0
 14 15  1  1  0  0  0
 14 18  1  0  0  0  0
 15 31  1  0  0  0  0
 16 20  1  0  0  0  0
 17  2  1  1  0  0  0
 17 22  1  0  0  0  0
 18 19  1  1  0  0  0
 18 24  1  0  0  0  0
 18 30  1  0  0  0  0
 20 21  1  0  0  0  0
 20 26  1  1  0  0  0
 22 23  1  6  0  0  0
 22 28  1  0  0  0  0
 24 25  1  0  0  0  0
 26 27  1  0  0  0  0
 28 29  1  1  0  0  0
M  END
>  <CHROM.1>
-171.55589694,173.03685446,-122.34000690,-158.59239275,-5.43723300,70.98566974
-0.13409846,13.83451908,38.26710747,-0.91622430,-0.47492132,3.07079905

>  <Name>
ligand

>  <RI>
0

>  <Rbt.Current_Directory>
/home/itssahil/PROJECTS/Mol_Feturizer/New_Systems/rnas/4GPY

>  <Rbt.Executable>
rbdock ($Id: //depot/dev/client3/rdock/2013.1/src/exe/rbdock.cxx#4 $)

>  <Rbt.Library>
libRbt.so (2013.1, Build901 2013/11/27)

>  <Rbt.Parameter_File>
/export/apps/rDock/src/rDock_2013.1_src/data/scripts/dock_solv.prm

>  <Rbt.Receptor>
prm/pocket_docking_4.prm

>  <SCORE>
-15.0645

>  <SCORE.INTER>
-12.3899

>  <SCORE.INTER.CONST>
1

>  <SCORE.INTER.POLAR>
0

>  <SCORE.INTER.ROT>
6

>  <SCORE.INTER.SOLV>
18.0047

>  <SCORE.INTER.VDW>
-21.8615

>  <SCORE.INTER.norm>
-0.399673

>  <SCORE.INTRA>
-2.67464

>  <SCORE.INTRA.DIHEDRAL>
-8.58216

>  <SCORE.INTRA.DIHEDRAL.0>
14.7001

>  <SCORE.INTRA.POLAR>
0

>  <SCORE.INTRA.POLAR.0>
0

>  <SCORE.INTRA.REPUL>
0

>  <SCORE.INTRA.REPUL.0>
0

>  <SCORE.INTRA.SOLV>
-0.512292

>  <SCORE.INTRA.SOLV.lig_0>
-65.3082

>  <SCORE.INTRA.VDW>
1.87259

>  <SCORE.INTRA.VDW.0>
-4.21408

>  <SCORE.INTRA.norm>
-0.0862787

>  <SCORE.RESTR>
0

>  <SCORE.RESTR.CAVITY>
0

>  <SCORE.RESTR.norm>
0

>  <SCORE.SYSTEM>
0

>  <SCORE.SYSTEM.CONST>
0

>  <SCORE.SYSTEM.DIHEDRAL>
0

>  <SCORE.SYSTEM.SOLV>
0

>  <SCORE.SYSTEM.norm>
0

>  <SCORE.heavy>
31

>  <SCORE.norm>
-0.485952

>  <RMSD>
1.348

$$$$
ligand
 OpenBabel11021811493D
libRbt.so/2013.1/901 2013/11/27
 31 33  0  0  0  0  0  0  0  0999 V2000
    1.9252   15.2761   37.0017 C   0  0  2  0  0  0  0  0  0  0  0  0
    1.2959   15.7890   38.1602 O   0  0  0  0  0  0  0  0  0  0  0  0
   -2.2045   14.8812   40.3926 C   0  0  2  0  0  0  0  0  0  0  0  0
   -3.5765   14.6453   40.6904 N   0  0  0  0  0  0  0  0  0  0  0  0
   -3.0931   11.7826   39.9760 C   0  0  2  0  0  0  0  0  0  0  0  0
    3.4949   15.2662   37.2549 C   0  0  2  0  0  0  0  0  0  0  0  0
    3.7840   14.4612   38.4368 N   0  0  0  0  0  0  0  0  0  0  0  0
   -2.0726   16.3464   39.7797 C   0  0  0  0  0  0  0  0  0  0  0  0
   -2.6857   10.3376   40.4203 C   0  0  2  0  0  0  0  0  0  0  0  0
   -1.9592   10.4235   41.6279 O   0  0  0  0  0  0  0  0  0  0  0  0
    4.0372   16.7333   37.4212 C   0  0  0  0  0  0  0  0  0  0  0  0
   -0.5442   16.6145   39.4639 C   0  0  2  0  0  0  0  0  0  0  0  0
   -0.4028   17.9608   38.9078 N   0  0  0  0  0  0  0  0  0  0  0  0
   -1.8093    9.6950   39.2844 C   0  0  1  0  0  0  0  0  0  0  0  0
   -1.3917    8.3146   39.6903 N   0  0  0  0  0  0  0  0  0  0  0  0
    3.3398   17.7371   36.4103 C   0  0  0  0  0  0  0  0  0  0  0  0
   -0.0402   15.5396   38.4162 C   0  0  2  0  0  0  0  0  0  0  0  0
   -2.6954    9.6112   37.9220 C   0  0  1  0  0  0  0  0  0  0  0  0
   -3.8611    8.8236   38.0637 O   0  0  0  0  0  0  0  0  0  0  0  0
    2.2311   17.3790   35.7182 C   0  0  1  0  0  0  0  0  0  0  0  0
    1.6140   16.1000   35.8347 O   0  0  0  0  0  0  0  0  0  0  0  0
   -0.1981   14.0845   39.0256 C   0  0  2  0  0  0  0  0  0  0  0  0
    0.2495   13.1117   38.0594 O   0  0  0  0  0  0  0  0  0  0  0  0
   -3.1314   11.0484   37.5075 C   0  0  0  0  0  0  0  0  0  0  0  0
   -3.8516   11.7248   38.6612 O   0  0  0  0  0  0  0  0  0  0  0  0
    1.5335   18.3070   34.7525 C   0  0  0  0  0  0  0  0  0  0  0  0
    1.6587   17.7096   33.4440 O   0  0  0  0  0  0  0  0  0  0  0  0
   -1.7192   13.8226   39.3461 C   0  0  1  0  0  0  0  0  0  0  0  0
   -1.8331   12.5310   39.8899 O   0  0  0  0  0  0  0  0  0  0  0  0
   -1.9591    9.0084   36.7185 C   0  0  0  0  0  0  0  0  0  0  0  0
    0.0253    8.1464   40.0741 C   0  0  0  0  0  0  0  0  0  0  0  0
  1  2  1  1  0  0  0
  1  6  1  0  0  0  0
  1 21  1  0  0  0  0
  3  4  1  6  0  0  0
  3  8  1  0  0  0  0
  3 28  1  0  0  0  0
  5  9  1  0  0  0  0
  5 25  1  0  0  0  0
  5 29  1  6  0  0  0
  6  7  1  1  0  0  0
  6 11  1  0  0  0  0
  8 12  1  0  0  0  0
  9 10  1  1  0  0  0
  9 14  1  0  0  0  0
 11 16  1  0  0  0  0
 12 13  1  6  0  0  0
 12 17  1  0  0  0  0
 14 15  1  1  0  0  0
 14 18  1  0  0  0  0
 15 31  1  0  0  0  0
 16 20  1  0  0  0  0
 17  2  1  1  0  0  0
 17 22  1  0  0  0  0
 18 19  1  1  0  0  0
 18 24  1  0  0  0  0
 18 30  1  0  0  0  0
 20 21  1  0  0  0  0
 20 26  1  1  0  0  0
 22 23  1  6  0  0  0
 22 28  1  0  0  0  0
 24 25  1  0  0  0  0
 26 27  1  0  0  0  0
 28 29  1  1  0  0  0
M  END
>  <CHROM.1>
-159.51035838,170.83607387,-106.83863304,-161.04498440,115.49326159,78.92515484
-0.45312260,13.62341248,38.31214446,-0.85481497,-0.66514793,-3.03408704

>  <Name>
ligand

>  <RI>
0

>  <Rbt.Current_Directory>
/home/itssahil/PROJECTS/Mol_Feturizer/New_Systems/rnas/4GPY

>  <Rbt.Executable>
rbdock ($Id: //depot/dev/client3/rdock/2013.1/src/exe/rbdock.cxx#4 $)

>  <Rbt.Library>
libRbt.so (2013.1, Build901 2013/11/27)

>  <Rbt.Parameter_File>
/export/apps/rDock/src/rDock_2013.1_src/data/scripts/dock_solv.prm

>  <Rbt.Receptor>
prm/pocket_docking_3.prm

>  <SCORE>
-13.6959

>  <SCORE.INTER>
-10.5557

>  <SCORE.INTER.CONST>
1

>  <SCORE.INTER.POLAR>
0

>  <SCORE.INTER.ROT>
6

>  <SCORE.INTER.SOLV>
18.0404

>  <SCORE.INTER.VDW>
-20.6506

>  <SCORE.INTER.norm>
-0.340506

>  <SCORE.INTRA>
-3.1402

>  <SCORE.INTRA.DIHEDRAL>
-6.37871

>  <SCORE.INTRA.DIHEDRAL.0>
14.7001

>  <SCORE.INTRA.POLAR>
0

>  <SCORE.INTRA.POLAR.0>
0

>  <SCORE.INTRA.REPUL>
0

>  <SCORE.INTRA.REPUL.0>
0

>  <SCORE.INTRA.SOLV>
-0.637086

>  <SCORE.INTRA.SOLV.lig_0>
-65.3082

>  <SCORE.INTRA.VDW>
0.367699

>  <SCORE.INTRA.VDW.0>
-4.21408

>  <SCORE.INTRA.norm>
-0.101297

>  <SCORE.RESTR>
0

>  <SCORE.RESTR.CAVITY>
0

>  <SCORE.RESTR.norm>
0

>  <SCORE.SYSTEM>
0

>  <SCORE.SYSTEM.CONST>
0

>  <SCORE.SYSTEM.DIHEDRAL>
0

>  <SCORE.SYSTEM.SOLV>
0

>  <SCORE.SYSTEM.norm>
0

>  <SCORE.heavy>
31

>  <SCORE.norm>
-0.441803

>  <RMSD>
1.355

$$$$
ligand
 OpenBabel11021811493D
libRbt.so/2013.1/901 2013/11/27
 31 33  0  0  0  0  0  0  0  0999 V2000
    1.9310   15.2879   36.9076 C   0  0  2  0  0  0  0  0  0  0  0  0
    1.3065   15.8116   38.0639 O   0  0  0  0  0  0  0  0  0  0  0  0
   -2.1593   14.8730   40.3370 C   0  0  2  0  0  0  0  0  0  0  0  0
   -3.5258   14.6263   40.6513 N   0  0  0  0  0  0  0  0  0  0  0  0
   -3.0311   11.7709   39.9287 C   0  0  2  0  0  0  0  0  0  0  0  0
    3.4920   15.1852   37.1921 C   0  0  2  0  0  0  0  0  0  0  0  0
    3.7108   14.3416   38.3622 N   0  0  0  0  0  0  0  0  0  0  0  0
   -2.0457   16.3405   39.7262 C   0  0  0  0  0  0  0  0  0  0  0  0
   -2.6098   10.3319   40.3793 C   0  0  2  0  0  0  0  0  0  0  0  0
   -1.8715   10.4312   41.5786 O   0  0  0  0  0  0  0  0  0  0  0  0
    4.1111   16.6160   37.4007 C   0  0  0  0  0  0  0  0  0  0  0  0
   -0.5233   16.6206   39.3921 C   0  0  2  0  0  0  0  0  0  0  0  0
   -0.3986   17.9692   38.8375 N   0  0  0  0  0  0  0  0  0  0  0  0
   -1.7410    9.6866   39.2390 C   0  0  1  0  0  0  0  0  0  0  0  0
   -1.3103    8.3119   39.6506 N   0  0  0  0  0  0  0  0  0  0  0  0
    3.4922   17.6775   36.3976 C   0  0  0  0  0  0  0  0  0  0  0  0
   -0.0244   15.5518   38.3357 C   0  0  2  0  0  0  0  0  0  0  0  0
   -2.6404    9.5871   37.8865 C   0  0  1  0  0  0  0  0  0  0  0  0
   -3.7995    8.7931   38.0459 O   0  0  0  0  0  0  0  0  0  0  0  0
    2.3803   17.3959   35.6757 C   0  0  1  0  0  0  0  0  0  0  0  0
    1.6910   16.1513   35.7524 O   0  0  0  0  0  0  0  0  0  0  0  0
   -0.1642   14.0942   38.9436 C   0  0  2  0  0  0  0  0  0  0  0  0
    0.2786   13.1269   37.9695 O   0  0  0  0  0  0  0  0  0  0  0  0
   -3.0900   11.0185   37.4661 C   0  0  0  0  0  0  0  0  0  0  0  0
   -3.8027   11.6987   38.6222 O   0  0  0  0  0  0  0  0  0  0  0  0
    1.7561   18.3808   34.7162 C   0  0  0  0  0  0  0  0  0  0  0  0
    1.6527   17.7067   33.4435 O   0  0  0  0  0  0  0  0  0  0  0  0
   -1.6792   13.8204   39.2822 C   0  0  1  0  0  0  0  0  0  0  0  0
   -1.7770   12.5267   39.8242 O   0  0  0  0  0  0  0  0  0  0  0  0
   -1.9127    8.9803   36.6798 C   0  0  0  0  0  0  0  0  0  0  0  0
    0.0726    8.1836   40.1553 C   0  0  0  0  0  0  0  0  0  0  0  0
  1  2  1  1  0  0  0
  1  6  1  0  0  0  0
  1 21  1  0  0  0  0
  3  4  1  6  0  0  0
  3  8  1  0  0  0  0
  3 28  1  0  0  0  0
  5  9  1  0  0  0  0
  5 25  1  0  0  0  0
  5 29  1  6  0  0  0
  6  7  1  1  0  0  0
  6 11  1  0  0  0  0
  8 12  1  0  0  0  0
  9 10  1  1  0  0  0
  9 14  1  0  0  0  0
 11 16  1  0  0  0  0
 12 13  1  6  0  0  0
 12 17  1  0  0  0  0
 14 15  1  1  0  0  0
 14 18  1  0  0  0  0
 15 31  1  0  0  0  0
 16 20  1  0  0  0  0
 17  2  1  1  0  0  0
 17 22  1  0  0  0  0
 18 19  1  1  0  0  0
 18 24  1  0  0  0  0
 18 30  1  0  0  0  0
 20 21  1  0  0  0  0
 20 26  1  1  0  0  0
 22 23  1  6  0  0  0
 22 28  1  0  0  0  0
 24 25  1  0  0  0  0
 26 27  1  0  0  0  0
 28 29  1  1  0  0  0
M  END
>  <CHROM.1>
-154.85442403,171.50074060,-100.66574287,-162.08945200,125.75562026,78.68297826
-0.40137034,13.61379957,38.26384688,-0.86403339,-0.65444737,-3.05066347

>  <Name>
ligand

>  <RI>
0

>  <Rbt.Current_Directory>
/home/itssahil/PROJECTS/Mol_Feturizer/New_Systems/rnas/4GPY

>  <Rbt.Executable>
rbdock ($Id: //depot/dev/client3/rdock/2013.1/src/exe/rbdock.cxx#4 $)

>  <Rbt.Library>
libRbt.so (2013.1, Build901 2013/11/27)

>  <Rbt.Parameter_File>
/export/apps/rDock/src/rDock_2013.1_src/data/scripts/dock_solv.prm

>  <Rbt.Receptor>
prm/pocket_docking_3.prm

>  <SCORE>
-13.5213

>  <SCORE.INTER>
-10.7363

>  <SCORE.INTER.CONST>
1

>  <SCORE.INTER.POLAR>
0

>  <SCORE.INTER.ROT>
6

>  <SCORE.INTER.SOLV>
17.9871

>  <SCORE.INTER.VDW>
-20.7532

>  <SCORE.INTER.norm>
-0.346333

>  <SCORE.INTRA>
-2.785

>  <SCORE.INTRA.DIHEDRAL>
-5.94806

>  <SCORE.INTRA.DIHEDRAL.0>
14.7001

>  <SCORE.INTRA.POLAR>
0

>  <SCORE.INTRA.POLAR.0>
0

>  <SCORE.INTRA.REPUL>
0

>  <SCORE.INTRA.REPUL.0>
0

>  <SCORE.INTRA.SOLV>
-0.581214

>  <SCORE.INTRA.SOLV.lig_0>
-65.3082

>  <SCORE.INTRA.VDW>
0.479641

>  <SCORE.INTRA.VDW.0>
-4.21408

>  <SCORE.INTRA.norm>
-0.0898386

>  <SCORE.RESTR>
0

>  <SCORE.RESTR.CAVITY>
0

>  <SCORE.RESTR.norm>
0

>  <SCORE.SYSTEM>
0

>  <SCORE.SYSTEM.CONST>
0

>  <SCORE.SYSTEM.DIHEDRAL>
0

>  <SCORE.SYSTEM.SOLV>
0

>  <SCORE.SYSTEM.norm>
0

>  <SCORE.heavy>
31

>  <SCORE.norm>
-0.436171

>  <RMSD>
1.356

$$$$
ligand
 OpenBabel11021811493D
libRbt.so/2013.1/901 2013/11/27
 31 33  0  0  0  0  0  0  0  0999 V2000
    1.9532   15.2727   36.9499 C   0  0  2  0  0  0  0  0  0  0  0  0
    1.3217   15.7825   38.1086 O   0  0  0  0  0  0  0  0  0  0  0  0
   -2.1762   14.8599   40.3389 C   0  0  2  0  0  0  0  0  0  0  0  0
   -3.5474   14.6190   40.6361 N   0  0  0  0  0  0  0  0  0  0  0  0
   -3.0564   11.7640   39.9298 C   0  0  2  0  0  0  0  0  0  0  0  0
    3.5130   15.1712   37.2408 C   0  0  2  0  0  0  0  0  0  0  0  0
    3.7285   14.3160   38.4030 N   0  0  0  0  0  0  0  0  0  0  0  0
   -2.0490   16.3264   39.7281 C   0  0  0  0  0  0  0  0  0  0  0  0
   -2.6465   10.3194   40.3726 C   0  0  2  0  0  0  0  0  0  0  0  0
   -1.9107   10.4062   41.5744 O   0  0  0  0  0  0  0  0  0  0  0  0
    4.1272   16.6015   37.4674 C   0  0  0  0  0  0  0  0  0  0  0  0
   -0.5215   16.6001   39.4129 C   0  0  2  0  0  0  0  0  0  0  0  0
   -0.3844   17.9476   38.8587 N   0  0  0  0  0  0  0  0  0  0  0  0
   -1.7792    9.6749   39.2307 C   0  0  1  0  0  0  0  0  0  0  0  0
   -1.3593    8.2948   39.6351 N   0  0  0  0  0  0  0  0  0  0  0  0
    3.5101   17.6717   36.4725 C   0  0  0  0  0  0  0  0  0  0  0  0
   -0.0136   15.5283   38.3639 C   0  0  2  0  0  0  0  0  0  0  0  0
   -2.6758    9.5900   37.8753 C   0  0  1  0  0  0  0  0  0  0  0  0
   -3.8408    8.8032   38.0269 O   0  0  0  0  0  0  0  0  0  0  0  0
    2.4025   17.3947   35.7424 C   0  0  1  0  0  0  0  0  0  0  0  0
    1.7162   16.1475   35.8027 O   0  0  0  0  0  0  0  0  0  0  0  0
   -0.1668   14.0718   38.9713 C   0  0  2  0  0  0  0  0  0  0  0  0
    0.2843   13.1018   38.0038 O   0  0  0  0  0  0  0  0  0  0  0  0
   -3.1141   11.0270   37.4625 C   0  0  0  0  0  0  0  0  0  0  0  0
   -3.8251   11.7052   38.6208 O   0  0  0  0  0  0  0  0  0  0  0  0
    1.7801   18.3879   34.7903 C   0  0  0  0  0  0  0  0  0  0  0  0
    1.6897   17.7289   33.5087 O   0  0  0  0  0  0  0  0  0  0  0  0
   -1.6871   13.8044   39.2911 C   0  0  1  0  0  0  0  0  0  0  0  0
   -1.7968   12.5117   39.8331 O   0  0  0  0  0  0  0  0  0  0  0  0
   -1.9491    8.9854   36.6669 C   0  0  0  0  0  0  0  0  0  0  0  0
    0.0298    8.1489   40.1173 C   0  0  0  0  0  0  0  0  0  0  0  0
  1  2  1  1  0  0  0
  1  6  1  0  0  0  0
  1 21  1  0  0  0  0
  3  4  1  6  0  0  0
  3  8  1  0  0  0  0
  3 28  1  0  0  0  0
  5  9  1  0  0  0  0
  5 25  1  0  0  0  0
  5 29  1  6  0  0  0
  6  7  1  1  0  0  0
  6 11  1  0  0  0  0
  8 12  1  0  0  0  0
  9 10  1  1  0  0  0
  9 14  1  0  0  0  0
 11 16  1  0  0  0  0
 12 13  1  6  0  0  0
 12 17  1  0  0  0  0
 14 15  1  1  0  0  0
 14 18  1  0  0  0  0
 15 31  1  0  0  0  0
 16 20  1  0  0  0  0
 17  2  1  1  0  0  0
 17 22  1  0  0  0  0
 18 19  1  1  0  0  0
 18 24  1  0  0  0  0
 18 30  1  0  0  0  0
 20 21  1  0  0  0  0
 20 26  1  1  0  0  0
 22 23  1  6  0  0  0
 22 28  1  0  0  0  0
 24 25  1  0  0  0  0
 26 27  1  0  0  0  0
 28 29  1  1  0  0  0
M  END
>  <CHROM.1>
-155.56064701,171.06222948,-101.83748576,-161.08187102,125.52501213,78.30687791
-0.40822125,13.60317897,38.28298613,-0.86468223,-0.63748500,-3.05147543

>  <Name>
ligand

>  <RI>
0

>  <Rbt.Current_Directory>
/home/itssahil/PROJECTS/Mol_Feturizer/New_Systems/rnas/4GPY

>  <Rbt.Executable>
rbdock ($Id: //depot/dev/client3/rdock/2013.1/src/exe/rbdock.cxx#4 $)

>  <Rbt.Library>
libRbt.so (2013.1, Build901 2013/11/27)

>  <Rbt.Parameter_File>
/export/apps/rDock/src/rDock_2013.1_src/data/scripts/dock_solv.prm

>  <Rbt.Receptor>
prm/pocket_docking_3.prm

>  <SCORE>
-13.5133

>  <SCORE.INTER>
-10.7905

>  <SCORE.INTER.CONST>
1

>  <SCORE.INTER.POLAR>
0

>  <SCORE.INTER.ROT>
6

>  <SCORE.INTER.SOLV>
17.8194

>  <SCORE.INTER.VDW>
-20.7335

>  <SCORE.INTER.norm>
-0.348081

>  <SCORE.INTRA>
-2.73495

>  <SCORE.INTRA.DIHEDRAL>
-5.91493

>  <SCORE.INTRA.DIHEDRAL.0>
14.7001

>  <SCORE.INTRA.POLAR>
0

>  <SCORE.INTRA.POLAR.0>
0

>  <SCORE.INTRA.REPUL>
0

>  <SCORE.INTRA.REPUL.0>
0

>  <SCORE.INTRA.SOLV>
-0.515931

>  <SCORE.INTRA.SOLV.lig_0>
-65.3082

>  <SCORE.INTRA.VDW>
0.480481

>  <SCORE.INTRA.VDW.0>
-4.21408

>  <SCORE.INTRA.norm>
-0.0882242

>  <SCORE.RESTR>
0.0121457

>  <SCORE.RESTR.CAVITY>
0.0121457

>  <SCORE.RESTR.norm>
0.000391796

>  <SCORE.SYSTEM>
0

>  <SCORE.SYSTEM.CONST>
0

>  <SCORE.SYSTEM.DIHEDRAL>
0

>  <SCORE.SYSTEM.SOLV>
0

>  <SCORE.SYSTEM.norm>
0

>  <SCORE.heavy>
31

>  <SCORE.norm>
-0.435914

>  <RMSD>
1.358

$$$$
ligand
 OpenBabel11021811493D
libRbt.so/2013.1/901 2013/11/27
 31 33  0  0  0  0  0  0  0  0999 V2000
    2.5275   15.2376   36.9930 C   0  0  2  0  0  0  0  0  0  0  0  0
    1.8261   15.8324   38.0679 O   0  0  0  0  0  0  0  0  0  0  0  0
   -1.8831   15.2550   40.0601 C   0  0  2  0  0  0  0  0  0  0  0  0
   -3.2822   15.0791   40.2562 N   0  0  0  0  0  0  0  0  0  0  0  0
   -2.8438   12.2233   40.0628 C   0  0  2  0  0  0  0  0  0  0  0  0
    4.0826   15.4718   37.2273 C   0  0  2  0  0  0  0  0  0  0  0  0
    4.4644   14.8992   38.5138 N   0  0  0  0  0  0  0  0  0  0  0  0
   -1.6569   16.6345   39.2948 C   0  0  0  0  0  0  0  0  0  0  0  0
   -2.5363   10.8040   40.6477 C   0  0  2  0  0  0  0  0  0  0  0  0
   -1.7703   10.9554   41.8240 O   0  0  0  0  0  0  0  0  0  0  0  0
    4.4263   17.0054   37.1647 C   0  0  0  0  0  0  0  0  0  0  0  0
   -0.0997   16.8377   39.0915 C   0  0  2  0  0  0  0  0  0  0  0  0
    0.1276   18.1057   38.3971 N   0  0  0  0  0  0  0  0  0  0  0  0
   -1.7459    9.9797   39.5673 C   0  0  1  0  0  0  0  0  0  0  0  0
   -1.4245    8.6196   40.1070 N   0  0  0  0  0  0  0  0  0  0  0  0
    3.6121   17.7452   36.0219 C   0  0  0  0  0  0  0  0  0  0  0  0
    0.4662   15.6375   38.2275 C   0  0  2  0  0  0  0  0  0  0  0  0
   -2.6754    9.8271   38.2403 C   0  0  1  0  0  0  0  0  0  0  0  0
   -3.8938    9.1539   38.4885 O   0  0  0  0  0  0  0  0  0  0  0  0
    2.5662   17.1446   35.4039 C   0  0  1  0  0  0  0  0  0  0  0  0
    2.1213   15.8281   35.7187 O   0  0  0  0  0  0  0  0  0  0  0  0
    0.2147   14.2681   38.9859 C   0  0  2  0  0  0  0  0  0  0  0  0
    0.7200   13.1799   38.1852 O   0  0  0  0  0  0  0  0  0  0  0  0
   -3.0110   11.2442   37.6865 C   0  0  0  0  0  0  0  0  0  0  0  0
   -3.6428   12.0912   38.7776 O   0  0  0  0  0  0  0  0  0  0  0  0
    1.7615   17.8168   34.3173 C   0  0  0  0  0  0  0  0  0  0  0  0
    2.4099   19.0778   34.0449 O   0  0  0  0  0  0  0  0  0  0  0  0
   -1.3355   14.0715   39.1937 C   0  0  1  0  0  0  0  0  0  0  0  0
   -1.5328   12.8559   39.8720 O   0  0  0  0  0  0  0  0  0  0  0  0
   -2.0235    9.0467   37.0914 C   0  0  0  0  0  0  0  0  0  0  0  0
   -0.0056    8.2114   40.0483 C   0  0  0  0  0  0  0  0  0  0  0  0
  1  2  1  1  0  0  0
  1  6  1  0  0  0  0
  1 21  1  0  0  0  0
  3  4  1  6  0  0  0
  3  8  1  0  0  0  0
  3 28  1  0  0  0  0
  5  9  1  0  0  0  0
  5 25  1  0  0  0  0
  5 29  1  6  0  0  0
  6  7  1  1  0  0  0
  6 11  1  0  0  0  0
  8 12  1  0  0  0  0
  9 10  1  1  0  0  0
  9 14  1  0  0  0  0
 11 16  1  0  0  0  0
 12 13  1  6  0  0  0
 12 17  1  0  0  0  0
 14 15  1  1  0  0  0
 14 18  1  0  0  0  0
 15 31  1  0  0  0  0
 16 20  1  0  0  0  0
 17  2  1  1  0  0  0
 17 22  1  0  0  0  0
 18 19  1  1  0  0  0
 18 24  1  0  0  0  0
 18 30  1  0  0  0  0
 20 21  1  0  0  0  0
 20 26  1  1  0  0  0
 22 23  1  6  0  0  0
 22 28  1  0  0  0  0
 24 25  1  0  0  0  0
 26 27  1  0  0  0  0
 28 29  1  1  0  0  0
M  END
>  <CHROM.1>
-171.39693859,170.85546404,-126.81981923,-157.27571054,5.05024082,71.46763995
-0.13677702,13.85097653,38.29430258,-0.90234010,-0.48808342,3.06925031

>  <Name>
ligand

>  <RI>
0

>  <Rbt.Current_Directory>
/home/itssahil/PROJECTS/Mol_Feturizer/New_Systems/rnas/4GPY

>  <Rbt.Executable>
rbdock ($Id: //depot/dev/client3/rdock/2013.1/src/exe/rbdock.cxx#4 $)

>  <Rbt.Library>
libRbt.so (2013.1, Build901 2013/11/27)

>  <Rbt.Parameter_File>
/export/apps/rDock/src/rDock_2013.1_src/data/scripts/dock_solv.prm

>  <Rbt.Receptor>
prm/pocket_docking_4.prm

>  <SCORE>
-15.0712

>  <SCORE.INTER>
-12.6519

>  <SCORE.INTER.CONST>
1

>  <SCORE.INTER.POLAR>
0

>  <SCORE.INTER.ROT>
6

>  <SCORE.INTER.SOLV>
18.1762

>  <SCORE.INTER.VDW>
-22.0934

>  <SCORE.INTER.norm>
-0.408127

>  <SCORE.INTRA>
-2.42496

>  <SCORE.INTRA.DIHEDRAL>
-8.16182

>  <SCORE.INTRA.DIHEDRAL.0>
14.7001

>  <SCORE.INTRA.POLAR>
0

>  <SCORE.INTRA.POLAR.0>
0

>  <SCORE.INTRA.REPUL>
0

>  <SCORE.INTRA.REPUL.0>
0

>  <SCORE.INTRA.SOLV>
-0.377229

>  <SCORE.INTRA.SOLV.lig_0>
-65.3082

>  <SCORE.INTRA.VDW>
1.84457

>  <SCORE.INTRA.VDW.0>
-4.21408

>  <SCORE.INTRA.norm>
-0.0782244

>  <SCORE.RESTR>
0.00572936

>  <SCORE.RESTR.CAVITY>
0.00572936

>  <SCORE.RESTR.norm>
0.000184818

>  <SCORE.SYSTEM>
0

>  <SCORE.SYSTEM.CONST>
0

>  <SCORE.SYSTEM.DIHEDRAL>
0

>  <SCORE.SYSTEM.SOLV>
0

>  <SCORE.SYSTEM.norm>
0

>  <SCORE.heavy>
31

>  <SCORE.norm>
-0.486167

>  <RMSD>
1.360

$$$$
ligand
 OpenBabel11021811493D
libRbt.so/2013.1/901 2013/11/27
 31 33  0  0  0  0  0  0  0  0999 V2000
    2.4451   15.3478   36.9216 C   0  0  2  0  0  0  0  0  0  0  0  0
    1.7971   15.8116   38.0904 O   0  0  0  0  0  0  0  0  0  0  0  0
   -1.8812   15.2611   40.1465 C   0  0  2  0  0  0  0  0  0  0  0  0
   -3.2781   15.0969   40.3670 N   0  0  0  0  0  0  0  0  0  0  0  0
   -2.8663   12.2274   40.1394 C   0  0  2  0  0  0  0  0  0  0  0  0
    4.0149   15.4416   37.1562 C   0  0  2  0  0  0  0  0  0  0  0  0
    4.3715   14.6517   38.3299 N   0  0  0  0  0  0  0  0  0  0  0  0
   -1.6564   16.6407   39.3813 C   0  0  0  0  0  0  0  0  0  0  0  0
   -2.5575   10.8029   40.7110 C   0  0  2  0  0  0  0  0  0  0  0  0
   -1.7839   10.9439   41.8836 O   0  0  0  0  0  0  0  0  0  0  0  0
    4.4601   16.9407   37.3248 C   0  0  0  0  0  0  0  0  0  0  0  0
   -0.1012   16.8308   39.1509 C   0  0  2  0  0  0  0  0  0  0  0  0
    0.1250   18.0988   38.4562 N   0  0  0  0  0  0  0  0  0  0  0  0
   -1.7751    9.9862   39.6191 C   0  0  1  0  0  0  0  0  0  0  0  0
   -1.4524    8.6213   40.1460 N   0  0  0  0  0  0  0  0  0  0  0  0
    3.6850   17.9008   36.3281 C   0  0  0  0  0  0  0  0  0  0  0  0
    0.4385   15.6282   38.2736 C   0  0  2  0  0  0  0  0  0  0  0  0
   -2.7131    9.8455   38.2968 C   0  0  1  0  0  0  0  0  0  0  0  0
   -3.9310    9.1722   38.5472 O   0  0  0  0  0  0  0  0  0  0  0  0
    2.5943   17.4730   35.6469 C   0  0  1  0  0  0  0  0  0  0  0  0
    2.0655   16.1550   35.7632 O   0  0  0  0  0  0  0  0  0  0  0  0
    0.1884   14.2588   39.0324 C   0  0  2  0  0  0  0  0  0  0  0  0
    0.6697   13.1686   38.2198 O   0  0  0  0  0  0  0  0  0  0  0  0
   -3.0500   11.2675   37.7564 C   0  0  0  0  0  0  0  0  0  0  0  0
   -3.6736   12.1068   38.8582 O   0  0  0  0  0  0  0  0  0  0  0  0
    1.8247   18.3572   34.6950 C   0  0  0  0  0  0  0  0  0  0  0  0
    1.7078   17.6249   33.4561 O   0  0  0  0  0  0  0  0  0  0  0  0
   -1.3596   14.0754   39.2672 C   0  0  1  0  0  0  0  0  0  0  0  0
   -1.5557   12.8594   39.9455 O   0  0  0  0  0  0  0  0  0  0  0  0
   -2.0696    9.0733   37.1377 C   0  0  0  0  0  0  0  0  0  0  0  0
   -0.0858    8.1250   39.8826 C   0  0  0  0  0  0  0  0  0  0  0  0
  1  2  1  1  0  0  0
  1  6  1  0  0  0  0
  1 21  1  0  0  0  0
  3  4  1  6  0  0  0
  3  8  1  0  0  0  0
  3 28  1  0  0  0  0
  5  9  1  0  0  0  0
  5 25  1  0  0  0  0
  5 29  1  6  0  0  0
  6  7  1  1  0  0  0
  6 11  1  0  0  0  0
  8 12  1  0  0  0  0
  9 10  1  1  0  0  0
  9 14  1  0  0  0  0
 11 16  1  0  0  0  0
 12 13  1  6  0  0  0
 12 17  1  0  0  0  0
 14 15  1  1  0  0  0
 14 18  1  0  0  0  0
 15 31  1  0  0  0  0
 16 20  1  0  0  0  0
 17  2  1  1  0  0  0
 17 22  1  0  0  0  0
 18 19  1  1  0  0  0
 18 24  1  0  0  0  0
 18 30  1  0  0  0  0
 20 21  1  0  0  0  0
 20 26  1  1  0  0  0
 22 23  1  6  0  0  0
 22 28  1  0  0  0  0
 24 25  1  0  0  0  0
 26 27  1  0  0  0  0
 28 29  1  1  0  0  0
M  END
>  <CHROM.1>
-168.43561219,170.37394063,-136.22665148,-149.76820910,128.55200405,72.46989793
-0.18409066,13.83372659,38.33456220,-0.87907451,-0.53632892,3.11306573

>  <Name>
ligand

>  <RI>
0

>  <Rbt.Current_Directory>
/home/itssahil/PROJECTS/Mol_Feturizer/New_Systems/rnas/4GPY

>  <Rbt.Executable>
rbdock ($Id: //depot/dev/client3/rdock/2013.1/src/exe/rbdock.cxx#4 $)

>  <Rbt.Library>
libRbt.so (2013.1, Build901 2013/11/27)

>  <Rbt.Parameter_File>
/export/apps/rDock/src/rDock_2013.1_src/data/scripts/dock_solv.prm

>  <Rbt.Receptor>
prm/pocket_docking_4.prm

>  <SCORE>
-14.8592

>  <SCORE.INTER>
-12.2151

>  <SCORE.INTER.CONST>
1

>  <SCORE.INTER.POLAR>
0

>  <SCORE.INTER.ROT>
6

>  <SCORE.INTER.SOLV>
18.9513

>  <SCORE.INTER.VDW>
-22.0605

>  <SCORE.INTER.norm>
-0.394036

>  <SCORE.INTRA>
-2.64407

>  <SCORE.INTRA.DIHEDRAL>
-6.45039

>  <SCORE.INTRA.DIHEDRAL.0>
14.7001

>  <SCORE.INTRA.POLAR>
0

>  <SCORE.INTRA.POLAR.0>
0

>  <SCORE.INTRA.REPUL>
0

>  <SCORE.INTRA.REPUL.0>
0

>  <SCORE.INTRA.SOLV>
0.205894

>  <SCORE.INTRA.SOLV.lig_0>
-65.3082

>  <SCORE.INTRA.VDW>
0.478179

>  <SCORE.INTRA.VDW.0>
-4.21408

>  <SCORE.INTRA.norm>
-0.0852926

>  <SCORE.RESTR>
0

>  <SCORE.RESTR.CAVITY>
0

>  <SCORE.RESTR.norm>
0

>  <SCORE.SYSTEM>
0

>  <SCORE.SYSTEM.CONST>
0

>  <SCORE.SYSTEM.DIHEDRAL>
0

>  <SCORE.SYSTEM.SOLV>
0

>  <SCORE.SYSTEM.norm>
0

>  <SCORE.heavy>
31

>  <SCORE.norm>
-0.479328

>  <RMSD>
1.363

$$$$
ligand
 OpenBabel11021811493D
libRbt.so/2013.1/901 2013/11/27
 31 33  0  0  0  0  0  0  0  0999 V2000
    2.4734   15.3624   36.9269 C   0  0  2  0  0  0  0  0  0  0  0  0
    1.7996   15.8494   38.0715 O   0  0  0  0  0  0  0  0  0  0  0  0
   -1.8917   15.2122   40.0785 C   0  0  2  0  0  0  0  0  0  0  0  0
   -3.2893   15.0329   40.2820 N   0  0  0  0  0  0  0  0  0  0  0  0
   -2.8597   12.1817   39.9807 C   0  0  2  0  0  0  0  0  0  0  0  0
    4.0362   15.4071   37.2165 C   0  0  2  0  0  0  0  0  0  0  0  0
    4.3260   14.6093   38.4032 N   0  0  0  0  0  0  0  0  0  0  0  0
   -1.6692   16.6168   39.3592 C   0  0  0  0  0  0  0  0  0  0  0  0
   -2.5519   10.7603   40.5604 C   0  0  2  0  0  0  0  0  0  0  0  0
   -1.7963   10.9082   41.7438 O   0  0  0  0  0  0  0  0  0  0  0  0
    4.5224   16.8918   37.3985 C   0  0  0  0  0  0  0  0  0  0  0  0
   -0.1135   16.8232   39.1478 C   0  0  2  0  0  0  0  0  0  0  0  0
    0.1105   18.1140   38.4955 N   0  0  0  0  0  0  0  0  0  0  0  0
   -1.7493    9.9450   39.4821 C   0  0  1  0  0  0  0  0  0  0  0  0
   -1.4272    8.5832   40.0171 N   0  0  0  0  0  0  0  0  0  0  0  0
    3.8136   17.8734   36.3737 C   0  0  0  0  0  0  0  0  0  0  0  0
    0.4408   15.6523   38.2375 C   0  0  2  0  0  0  0  0  0  0  0  0
   -2.6670    9.7961   38.1466 C   0  0  1  0  0  0  0  0  0  0  0  0
   -3.8849    9.1171   38.3808 O   0  0  0  0  0  0  0  0  0  0  0  0
    2.7346   17.4784   35.6552 C   0  0  1  0  0  0  0  0  0  0  0  0
    2.1605   16.1782   35.7546 O   0  0  0  0  0  0  0  0  0  0  0  0
    0.1930   14.2581   38.9505 C   0  0  2  0  0  0  0  0  0  0  0  0
    0.6876   13.1971   38.1079 O   0  0  0  0  0  0  0  0  0  0  0  0
   -3.0034   11.2150   37.5976 C   0  0  0  0  0  0  0  0  0  0  0  0
   -3.6474   12.0537   38.6881 O   0  0  0  0  0  0  0  0  0  0  0  0
    2.0274   18.3841   34.6754 C   0  0  0  0  0  0  0  0  0  0  0  0
    1.7092   17.5751   33.5226 O   0  0  0  0  0  0  0  0  0  0  0  0
   -1.3556   14.0581   39.1665 C   0  0  1  0  0  0  0  0  0  0  0  0
   -1.5497   12.8202   39.8043 O   0  0  0  0  0  0  0  0  0  0  0  0
   -2.0026    9.0245   36.9990 C   0  0  0  0  0  0  0  0  0  0  0  0
   -0.0162    8.1568   39.9136 C   0  0  0  0  0  0  0  0  0  0  0  0
  1  2  1  1  0  0  0
  1  6  1  0  0  0  0
  1 21  1  0  0  0  0
  3  4  1  6  0  0  0
  3  8  1  0  0  0  0
  3 28  1  0  0  0  0
  5  9  1  0  0  0  0
  5 25  1  0  0  0  0
  5 29  1  6  0  0  0
  6  7  1  1  0  0  0
  6 11  1  0  0  0  0
  8 12  1  0  0  0  0
  9 10  1  1  0  0  0
  9 14  1  0  0  0  0
 11 16  1  0  0  0  0
 12 13  1  6  0  0  0
 12 17  1  0  0  0  0
 14 15  1  1  0  0  0
 14 18  1  0  0  0  0
 15 31  1  0  0  0  0
 16 20  1  0  0  0  0
 17  2  1  1  0  0  0
 17 22  1  0  0  0  0
 18 19  1  1  0  0  0
 18 24  1  0  0  0  0
 18 30  1  0  0  0  0
 20 21  1  0  0  0  0
 20 26  1  1  0  0  0
 22 23  1  6  0  0  0
 22 28  1  0  0  0  0
 24 25  1  0  0  0  0
 26 27  1  0  0  0  0
 28 29  1  1  0  0  0
M  END
>  <CHROM.1>
-165.25577299,172.67869702,-129.42729020,-153.24537004,138.95637380,71.74980426
-0.15292764,13.81267643,38.27620387,-0.88072677,-0.51838209,3.12358185

>  <Name>
ligand

>  <RI>
0

>  <Rbt.Current_Directory>
/home/itssahil/PROJECTS/Mol_Feturizer/New_Systems/rnas/4GPY

>  <Rbt.Executable>
rbdock ($Id: //depot/dev/client3/rdock/2013.1/src/exe/rbdock.cxx#4 $)

>  <Rbt.Library>
libRbt.so (2013.1, Build901 2013/11/27)

>  <Rbt.Parameter_File>
/export/apps/rDock/src/rDock_2013.1_src/data/scripts/dock_solv.prm

>  <Rbt.Receptor>
prm/pocket_docking_4.prm

>  <SCORE>
-14.9465

>  <SCORE.INTER>
-12.2443

>  <SCORE.INTER.CONST>
1

>  <SCORE.INTER.POLAR>
0

>  <SCORE.INTER.ROT>
6

>  <SCORE.INTER.SOLV>
19.037

>  <SCORE.INTER.VDW>
-22.1086

>  <SCORE.INTER.norm>
-0.394978

>  <SCORE.INTRA>
-2.71619

>  <SCORE.INTRA.DIHEDRAL>
-6.51557

>  <SCORE.INTRA.DIHEDRAL.0>
14.7001

>  <SCORE.INTRA.POLAR>
0

>  <SCORE.INTRA.POLAR.0>
0

>  <SCORE.INTRA.REPUL>
0

>  <SCORE.INTRA.REPUL.0>
0

>  <SCORE.INTRA.SOLV>
-0.0262272

>  <SCORE.INTRA.SOLV.lig_0>
-65.3082

>  <SCORE.INTRA.VDW>
0.554712

>  <SCORE.INTRA.VDW.0>
-4.21408

>  <SCORE.INTRA.norm>
-0.0876189

>  <SCORE.RESTR>
0.013981

>  <SCORE.RESTR.CAVITY>
0.013981

>  <SCORE.RESTR.norm>
0.000450999

>  <SCORE.SYSTEM>
0

>  <SCORE.SYSTEM.CONST>
0

>  <SCORE.SYSTEM.DIHEDRAL>
0

>  <SCORE.SYSTEM.SOLV>
0

>  <SCORE.SYSTEM.norm>
0

>  <SCORE.heavy>
31

>  <SCORE.norm>
-0.482146

>  <RMSD>
1.364

$$$$
ligand
 OpenBabel11021811493D
libRbt.so/2013.1/901 2013/11/27
 31 33  0  0  0  0  0  0  0  0999 V2000
    1.9066   14.7192   37.0160 C   0  0  2  0  0  0  0  0  0  0  0  0
    1.3945   15.3406   38.1792 O   0  0  0  0  0  0  0  0  0  0  0  0
   -2.2853   15.9888   40.2038 C   0  0  2  0  0  0  0  0  0  0  0  0
   -3.6780   16.1983   40.4117 N   0  0  0  0  0  0  0  0  0  0  0  0
   -3.3276   12.4223   39.8811 C   0  0  2  0  0  0  0  0  0  0  0  0
    3.4729   14.5248   37.2079 C   0  0  2  0  0  0  0  0  0  0  0  0
    3.7131   13.7271   38.4056 N   0  0  0  0  0  0  0  0  0  0  0  0
   -1.7426   17.1505   39.2574 C   0  0  0  0  0  0  0  0  0  0  0  0
   -3.9910   11.8203   41.1651 C   0  0  2  0  0  0  0  0  0  0  0  0
   -4.7470   12.8298   41.7996 O   0  0  0  0  0  0  0  0  0  0  0  0
    4.1956   15.9188   37.3004 C   0  0  0  0  0  0  0  0  0  0  0  0
   -0.1902   16.9265   39.0397 C   0  0  2  0  0  0  0  0  0  0  0  0
    0.3276   17.9907   38.1789 N   0  0  0  0  0  0  0  0  0  0  0  0
   -2.8536   11.2930   42.1137 C   0  0  1  0  0  0  0  0  0  0  0  0
   -3.4603   10.7242   43.3598 N   0  0  0  0  0  0  0  0  0  0  0  0
    3.5820   16.9690   36.2823 C   0  0  0  0  0  0  0  0  0  0  0  0
    0.0340   15.5171   38.3538 C   0  0  2  0  0  0  0  0  0  0  0  0
   -2.0221   10.1284   41.3389 C   0  0  1  0  0  0  0  0  0  0  0  0
   -2.8233    9.0226   40.9720 O   0  0  0  0  0  0  0  0  0  0  0  0
    2.4093   16.7283   35.6472 C   0  0  1  0  0  0  0  0  0  0  0  0
    1.6475   15.5388   35.8333 O   0  0  0  0  0  0  0  0  0  0  0  0
   -0.5309   14.3704   39.2918 C   0  0  2  0  0  0  0  0  0  0  0  0
   -0.3357   13.0922   38.6527 O   0  0  0  0  0  0  0  0  0  0  0  0
   -1.3980   10.7239   40.0415 C   0  0  0  0  0  0  0  0  0  0  0  0
   -2.4815   11.3655   39.1920 O   0  0  0  0  0  0  0  0  0  0  0  0
    1.7883   17.7047   34.6770 C   0  0  0  0  0  0  0  0  0  0  0  0
    0.5997   18.2196   35.3149 O   0  0  0  0  0  0  0  0  0  0  0  0
   -2.0747   14.5997   39.5130 C   0  0  1  0  0  0  0  0  0  0  0  0
   -2.5509   13.5760   40.3510 O   0  0  0  0  0  0  0  0  0  0  0  0
   -0.8670    9.5240   42.1478 C   0  0  0  0  0  0  0  0  0  0  0  0
   -3.3189   11.5368   44.5858 C   0  0  0  0  0  0  0  0  0  0  0  0
  1  2  1  1  0  0  0
  1  6  1  0  0  0  0
  1 21  1  0  0  0  0
  3  4  1  6  0  0  0
  3  8  1  0  0  0  0
  3 28  1  0  0  0  0
  5  9  1  0  0  0  0
  5 25  1  0  0  0  0
  5 29  1  1  0  0  0
  6  7  1  1  0  0  0
  6 11  1  0  0  0  0
  8 12  1  0  0  0  0
  9 10  1  1  0  0  0
  9 14  1  0  0  0  0
 11 16  1  0  0  0  0
 12 13  1  6  0  0  0
 12 17  1  0  0  0  0
 14 15  1  1  0  0  0
 14 18  1  0  0  0  0
 15 31  1  0  0  0  0
 16 20  1  0  0  0  0
 17  2  1  1  0  0  0
 17 22  1  0  0  0  0
 18 19  1  6  0  0  0
 18 24  1  0  0  0  0
 18 30  1  0  0  0  0
 20 21  1  0  0  0  0
 20 26  1  1  0  0  0
 22 23  1  6  0  0  0
 22 28  1  0  0  0  0
 24 25  1  0  0  0  0
 26 27  1  0  0  0  0
 28 29  1  1  0  0  0
M  END
>  <CHROM.1>
-173.57401569,-163.12093177,-106.27464370,-141.70654750,-110.90315415,137.87482049
-0.65073603,14.04689089,39.21478412,-0.87517623,-0.50329622,2.74885874

>  <Name>
ligand

>  <RI>
0

>  <Rbt.Current_Directory>
/home/itssahil/PROJECTS/Mol_Feturizer/New_Systems/rnas/4GPY

>  <Rbt.Executable>
rbdock ($Id: //depot/dev/client3/rdock/2013.1/src/exe/rbdock.cxx#4 $)

>  <Rbt.Library>
libRbt.so (2013.1, Build901 2013/11/27)

>  <Rbt.Parameter_File>
/export/apps/rDock/src/rDock_2013.1_src/data/scripts/dock_solv.prm

>  <Rbt.Receptor>
prm/pocket_docking_7.prm

>  <SCORE>
-11.2281

>  <SCORE.INTER>
-11.865

>  <SCORE.INTER.CONST>
1

>  <SCORE.INTER.POLAR>
0

>  <SCORE.INTER.ROT>
6

>  <SCORE.INTER.SOLV>
17.112

>  <SCORE.INTER.VDW>
-21.214

>  <SCORE.INTER.norm>
-0.382743

>  <SCORE.INTRA>
0.636955

>  <SCORE.INTRA.DIHEDRAL>
0.502901

>  <SCORE.INTRA.DIHEDRAL.0>
14.7001

>  <SCORE.INTRA.POLAR>
0

>  <SCORE.INTRA.POLAR.0>
0

>  <SCORE.INTRA.REPUL>
0

>  <SCORE.INTRA.REPUL.0>
0

>  <SCORE.INTRA.SOLV>
1.46942

>  <SCORE.INTRA.SOLV.lig_0>
-65.3082

>  <SCORE.INTRA.VDW>
-0.349206

>  <SCORE.INTRA.VDW.0>
-4.21408

>  <SCORE.INTRA.norm>
0.0205469

>  <SCORE.RESTR>
0

>  <SCORE.RESTR.CAVITY>
0

>  <SCORE.RESTR.norm>
0

>  <SCORE.SYSTEM>
0

>  <SCORE.SYSTEM.CONST>
0

>  <SCORE.SYSTEM.DIHEDRAL>
0

>  <SCORE.SYSTEM.SOLV>
0

>  <SCORE.SYSTEM.norm>
0

>  <SCORE.heavy>
31

>  <SCORE.norm>
-0.362196

>  <RMSD>
1.364

$$$$
ligand
 OpenBabel11021811493D
libRbt.so/2013.1/901 2013/11/27
 31 33  0  0  0  0  0  0  0  0999 V2000
    2.4922   15.3993   36.8302 C   0  0  2  0  0  0  0  0  0  0  0  0
    1.8253   15.8563   37.9911 O   0  0  0  0  0  0  0  0  0  0  0  0
   -1.8386   15.1319   40.0187 C   0  0  2  0  0  0  0  0  0  0  0  0
   -3.2324   14.9351   40.2320 N   0  0  0  0  0  0  0  0  0  0  0  0
   -2.7790   12.0818   39.8144 C   0  0  2  0  0  0  0  0  0  0  0  0
    4.0574   15.4553   37.1046 C   0  0  2  0  0  0  0  0  0  0  0  0
    4.3681   14.6376   38.2722 N   0  0  0  0  0  0  0  0  0  0  0  0
   -1.6353   16.5580   39.3371 C   0  0  0  0  0  0  0  0  0  0  0  0
   -2.4523   10.6651   40.3955 C   0  0  2  0  0  0  0  0  0  0  0  0
   -1.7298   10.8249   41.5979 O   0  0  0  0  0  0  0  0  0  0  0  0
    4.5295   16.9414   37.3110 C   0  0  0  0  0  0  0  0  0  0  0  0
   -0.0837   16.7833   39.1150 C   0  0  2  0  0  0  0  0  0  0  0  0
    0.1227   18.0938   38.4970 N   0  0  0  0  0  0  0  0  0  0  0  0
   -1.6045    9.8740   39.3340 C   0  0  1  0  0  0  0  0  0  0  0  0
   -1.2639    8.5175   39.8710 N   0  0  0  0  0  0  0  0  0  0  0  0
    3.7996   17.9352   36.3132 C   0  0  0  0  0  0  0  0  0  0  0  0
    0.4700   15.6432   38.1660 C   0  0  2  0  0  0  0  0  0  0  0  0
   -2.4854    9.7103   37.9755 C   0  0  1  0  0  0  0  0  0  0  0  0
   -3.6924    9.0018   38.1767 O   0  0  0  0  0  0  0  0  0  0  0  0
    2.7174   17.5427   35.5981 C   0  0  1  0  0  0  0  0  0  0  0  0
    2.1584   16.2346   35.6776 O   0  0  0  0  0  0  0  0  0  0  0  0
    0.2413   14.2274   38.8418 C   0  0  2  0  0  0  0  0  0  0  0  0
    0.7352   13.1947   37.9643 O   0  0  0  0  0  0  0  0  0  0  0  0
   -2.8412   11.1235   37.4245 C   0  0  0  0  0  0  0  0  0  0  0  0
   -3.5314   11.9417   38.5022 O   0  0  0  0  0  0  0  0  0  0  0  0
    1.9903   18.4597   34.6438 C   0  0  0  0  0  0  0  0  0  0  0  0
    1.7061   17.6818   33.4610 O   0  0  0  0  0  0  0  0  0  0  0  0
   -1.3033   14.0085   39.0687 C   0  0  1  0  0  0  0  0  0  0  0  0
   -1.4803   12.7515   39.6733 O   0  0  0  0  0  0  0  0  0  0  0  0
   -1.7750    8.9598   36.8414 C   0  0  0  0  0  0  0  0  0  0  0  0
    0.1289    8.3248   40.3252 C   0  0  0  0  0  0  0  0  0  0  0  0
  1  2  1  1  0  0  0
  1  6  1  0  0  0  0
  1 21  1  0  0  0  0
  3  4  1  6  0  0  0
  3  8  1  0  0  0  0
  3 28  1  0  0  0  0
  5  9  1  0  0  0  0
  5 25  1  0  0  0  0
  5 29  1  6  0  0  0
  6  7  1  1  0  0  0
  6 11  1  0  0  0  0
  8 12  1  0  0  0  0
  9 10  1  1  0  0  0
  9 14  1  0  0  0  0
 11 16  1  0  0  0  0
 12 13  1  6  0  0  0
 12 17  1  0  0  0  0
 14 15  1  1  0  0  0
 14 18  1  0  0  0  0
 15 31  1  0  0  0  0
 16 20  1  0  0  0  0
 17  2  1  1  0  0  0
 17 22  1  0  0  0  0
 18 19  1  1  0  0  0
 18 24  1  0  0  0  0
 18 30  1  0  0  0  0
 20 21  1  0  0  0  0
 20 26  1  1  0  0  0
 22 23  1  6  0  0  0
 22 28  1  0  0  0  0
 24 25  1  0  0  0  0
 26 27  1  0  0  0  0
 28 29  1  1  0  0  0
M  END
>  <CHROM.1>
-165.37178764,173.96189962,-104.92549504,-153.68521742,137.18434073,73.39865755
-0.08634807,13.79271328,38.18734189,-0.90314863,-0.52328002,3.11960506

>  <Name>
ligand

>  <RI>
0

>  <Rbt.Current_Directory>
/home/itssahil/PROJECTS/Mol_Feturizer/New_Systems/rnas/4GPY

>  <Rbt.Executable>
rbdock ($Id: //depot/dev/client3/rdock/2013.1/src/exe/rbdock.cxx#4 $)

>  <Rbt.Library>
libRbt.so (2013.1, Build901 2013/11/27)

>  <Rbt.Parameter_File>
/export/apps/rDock/src/rDock_2013.1_src/data/scripts/dock_solv.prm

>  <Rbt.Receptor>
prm/pocket_docking_4.prm

>  <SCORE>
-14.7947

>  <SCORE.INTER>
-11.8838

>  <SCORE.INTER.CONST>
1

>  <SCORE.INTER.POLAR>
0

>  <SCORE.INTER.ROT>
6

>  <SCORE.INTER.SOLV>
18.9591

>  <SCORE.INTER.VDW>
-21.8422

>  <SCORE.INTER.norm>
-0.383347

>  <SCORE.INTRA>
-2.9109

>  <SCORE.INTRA.DIHEDRAL>
-6.68343

>  <SCORE.INTRA.DIHEDRAL.0>
14.7001

>  <SCORE.INTRA.POLAR>
0

>  <SCORE.INTRA.POLAR.0>
0

>  <SCORE.INTRA.REPUL>
0

>  <SCORE.INTRA.REPUL.0>
0

>  <SCORE.INTRA.SOLV>
-0.084896

>  <SCORE.INTRA.SOLV.lig_0>
-65.3082

>  <SCORE.INTRA.VDW>
0.473267

>  <SCORE.INTRA.VDW.0>
-4.21408

>  <SCORE.INTRA.norm>
-0.0938999

>  <SCORE.RESTR>
0

>  <SCORE.RESTR.CAVITY>
0

>  <SCORE.RESTR.norm>
0

>  <SCORE.SYSTEM>
0

>  <SCORE.SYSTEM.CONST>
0

>  <SCORE.SYSTEM.DIHEDRAL>
0

>  <SCORE.SYSTEM.SOLV>
0

>  <SCORE.SYSTEM.norm>
0

>  <SCORE.heavy>
31

>  <SCORE.norm>
-0.477247

>  <RMSD>
1.367

$$$$
ligand
 OpenBabel11021811493D
libRbt.so/2013.1/901 2013/11/27
 31 33  0  0  0  0  0  0  0  0999 V2000
    2.4866   15.3693   36.7730 C   0  0  2  0  0  0  0  0  0  0  0  0
    1.7867   15.9182   37.8731 O   0  0  0  0  0  0  0  0  0  0  0  0
   -1.8303   15.0254   39.9176 C   0  0  2  0  0  0  0  0  0  0  0  0
   -3.2164   14.7901   40.1416 N   0  0  0  0  0  0  0  0  0  0  0  0
   -2.7170   11.9861   39.6251 C   0  0  2  0  0  0  0  0  0  0  0  0
    4.0427   15.5817   37.0211 C   0  0  2  0  0  0  0  0  0  0  0  0
    4.4177   14.9472   38.2802 N   0  0  0  0  0  0  0  0  0  0  0  0
   -1.6662   16.4852   39.2997 C   0  0  0  0  0  0  0  0  0  0  0  0
   -2.3621   10.5768   40.2074 C   0  0  2  0  0  0  0  0  0  0  0  0
   -1.6204   10.7519   41.3959 O   0  0  0  0  0  0  0  0  0  0  0  0
    4.3968   17.1142   37.0306 C   0  0  0  0  0  0  0  0  0  0  0  0
   -0.1231   16.7527   39.0660 C   0  0  2  0  0  0  0  0  0  0  0  0
    0.0474   18.0941   38.5064 N   0  0  0  0  0  0  0  0  0  0  0  0
   -1.5234    9.7907   39.1350 C   0  0  1  0  0  0  0  0  0  0  0  0
   -1.1561    8.4414   39.6727 N   0  0  0  0  0  0  0  0  0  0  0  0
    3.5903   17.9119   35.9219 C   0  0  0  0  0  0  0  0  0  0  0  0
    0.4389   15.6691   38.0574 C   0  0  2  0  0  0  0  0  0  0  0  0
   -2.4261    9.6087   37.7933 C   0  0  1  0  0  0  0  0  0  0  0  0
   -3.6203    8.8863   38.0195 O   0  0  0  0  0  0  0  0  0  0  0  0
    2.5418   17.3479   35.2746 C   0  0  1  0  0  0  0  0  0  0  0  0
    2.0873   16.0212   35.5268 O   0  0  0  0  0  0  0  0  0  0  0  0
    0.2490   14.2193   38.6704 C   0  0  2  0  0  0  0  0  0  0  0  0
    0.7501   13.2385   37.7390 O   0  0  0  0  0  0  0  0  0  0  0  0
   -2.8095   11.0145   37.2415 C   0  0  0  0  0  0  0  0  0  0  0  0
   -3.4907   11.8296   38.3273 O   0  0  0  0  0  0  0  0  0  0  0  0
    1.7441   18.0754   34.2188 C   0  0  0  0  0  0  0  0  0  0  0  0
    0.6789   18.7638   34.9089 O   0  0  0  0  0  0  0  0  0  0  0  0
   -1.2871   13.9581   38.9091 C   0  0  1  0  0  0  0  0  0  0  0  0
   -1.4295   12.6713   39.4574 O   0  0  0  0  0  0  0  0  0  0  0  0
   -1.7265    8.8613   36.6505 C   0  0  0  0  0  0  0  0  0  0  0  0
    0.1934    8.3174   40.2616 C   0  0  0  0  0  0  0  0  0  0  0  0
  1  2  1  1  0  0  0
  1  6  1  0  0  0  0
  1 21  1  0  0  0  0
  3  4  1  6  0  0  0
  3  8  1  0  0  0  0
  3 28  1  0  0  0  0
  5  9  1  0  0  0  0
  5 25  1  0  0  0  0
  5 29  1  6  0  0  0
  6  7  1  1  0  0  0
  6 11  1  0  0  0  0
  8 12  1  0  0  0  0
  9 10  1  1  0  0  0
  9 14  1  0  0  0  0
 11 16  1  0  0  0  0
 12 13  1  6  0  0  0
 12 17  1  0  0  0  0
 14 15  1  1  0  0  0
 14 18  1  0  0  0  0
 15 31  1  0  0  0  0
 16 20  1  0  0  0  0
 17  2  1  1  0  0  0
 17 22  1  0  0  0  0
 18 19  1  1  0  0  0
 18 24  1  0  0  0  0
 18 30  1  0  0  0  0
 20 21  1  0  0  0  0
 20 26  1  1  0  0  0
 22 23  1  6  0  0  0
 22 28  1  0  0  0  0
 24 25  1  0  0  0  0
 26 27  1  0  0  0  0
 28 29  1  1  0  0  0
M  END
>  <CHROM.1>
-168.08391040,177.55621320,-97.38299933,-162.58493077,-89.24985839,71.38019719
-0.12740640,13.78158590,38.08207704,-0.97504080,-0.44387777,3.06677823

>  <Name>
ligand

>  <RI>
0

>  <Rbt.Current_Directory>
/home/itssahil/PROJECTS/Mol_Feturizer/New_Systems/rnas/4GPY

>  <Rbt.Executable>
rbdock ($Id: //depot/dev/client3/rdock/2013.1/src/exe/rbdock.cxx#4 $)

>  <Rbt.Library>
libRbt.so (2013.1, Build901 2013/11/27)

>  <Rbt.Parameter_File>
/export/apps/rDock/src/rDock_2013.1_src/data/scripts/dock_solv.prm

>  <Rbt.Receptor>
prm/pocket_docking_4.prm

>  <SCORE>
-15.9914

>  <SCORE.INTER>
-12.1868

>  <SCORE.INTER.CONST>
1

>  <SCORE.INTER.POLAR>
0

>  <SCORE.INTER.ROT>
6

>  <SCORE.INTER.SOLV>
18.3713

>  <SCORE.INTER.VDW>
-21.8483

>  <SCORE.INTER.norm>
-0.393124

>  <SCORE.INTRA>
-3.8046

>  <SCORE.INTRA.DIHEDRAL>
-8.46343

>  <SCORE.INTRA.DIHEDRAL.0>
14.7001

>  <SCORE.INTRA.POLAR>
0

>  <SCORE.INTRA.POLAR.0>
0

>  <SCORE.INTRA.REPUL>
0.000603948

>  <SCORE.INTRA.REPUL.0>
0

>  <SCORE.INTRA.SOLV>
-0.362979

>  <SCORE.INTRA.SOLV.lig_0>
-65.3082

>  <SCORE.INTRA.VDW>
0.60558

>  <SCORE.INTRA.VDW.0>
-4.21408

>  <SCORE.INTRA.norm>
-0.122729

>  <SCORE.RESTR>
0

>  <SCORE.RESTR.CAVITY>
0

>  <SCORE.RESTR.norm>
0

>  <SCORE.SYSTEM>
0

>  <SCORE.SYSTEM.CONST>
0

>  <SCORE.SYSTEM.DIHEDRAL>
0

>  <SCORE.SYSTEM.SOLV>
0

>  <SCORE.SYSTEM.norm>
0

>  <SCORE.heavy>
31

>  <SCORE.norm>
-0.515853

>  <RMSD>
1.367

$$$$
ligand
 OpenBabel11021811493D
libRbt.so/2013.1/901 2013/11/27
 31 33  0  0  0  0  0  0  0  0999 V2000
    2.6407   15.3369   36.9358 C   0  0  2  0  0  0  0  0  0  0  0  0
    1.8953   15.8937   38.0015 O   0  0  0  0  0  0  0  0  0  0  0  0
   -1.8200   15.0770   39.8960 C   0  0  2  0  0  0  0  0  0  0  0  0
   -3.2157   14.8487   40.0596 N   0  0  0  0  0  0  0  0  0  0  0  0
   -2.6950   12.0351   39.6958 C   0  0  2  0  0  0  0  0  0  0  0  0
    4.1839   15.5792   37.2321 C   0  0  2  0  0  0  0  0  0  0  0  0
    4.5259   14.9734   38.5146 N   0  0  0  0  0  0  0  0  0  0  0  0
   -1.6245   16.5115   39.2301 C   0  0  0  0  0  0  0  0  0  0  0  0
   -2.3636   10.6198   40.2773 C   0  0  2  0  0  0  0  0  0  0  0  0
   -1.6375   10.7822   41.4771 O   0  0  0  0  0  0  0  0  0  0  0  0
    4.5133   17.1172   37.2256 C   0  0  0  0  0  0  0  0  0  0  0  0
   -0.0714   16.7719   39.0635 C   0  0  2  0  0  0  0  0  0  0  0  0
    0.1276   18.0905   38.4607 N   0  0  0  0  0  0  0  0  0  0  0  0
   -1.5179    9.8291   39.2138 C   0  0  1  0  0  0  0  0  0  0  0  0
   -1.1729    8.4738   39.7511 N   0  0  0  0  0  0  0  0  0  0  0  0
    3.7324   17.8818   36.0759 C   0  0  0  0  0  0  0  0  0  0  0  0
    0.5397   15.6502   38.1278 C   0  0  2  0  0  0  0  0  0  0  0  0
   -2.4028    9.6622   37.8584 C   0  0  1  0  0  0  0  0  0  0  0  0
   -3.6079    8.9517   38.0643 O   0  0  0  0  0  0  0  0  0  0  0  0
    2.7155   17.2893   35.4041 C   0  0  1  0  0  0  0  0  0  0  0  0
    2.2737   15.9600   35.6651 O   0  0  0  0  0  0  0  0  0  0  0  0
    0.3187   14.2254   38.7872 C   0  0  2  0  0  0  0  0  0  0  0  0
    0.8652   13.2094   37.9215 O   0  0  0  0  0  0  0  0  0  0  0  0
   -2.7632   11.0742   37.3071 C   0  0  0  0  0  0  0  0  0  0  0  0
   -3.4514   11.8922   38.3862 O   0  0  0  0  0  0  0  0  0  0  0  0
    1.9427   17.9848   34.3090 C   0  0  0  0  0  0  0  0  0  0  0  0
    0.7128   18.4507   34.9048 O   0  0  0  0  0  0  0  0  0  0  0  0
   -1.2276   13.9716   38.9588 C   0  0  1  0  0  0  0  0  0  0  0  0
   -1.3980   12.7072   39.5497 O   0  0  0  0  0  0  0  0  0  0  0  0
   -1.6947    8.9120   36.7228 C   0  0  0  0  0  0  0  0  0  0  0  0
    0.1752    8.3267   40.3380 C   0  0  0  0  0  0  0  0  0  0  0  0
  1  2  1  1  0  0  0
  1  6  1  0  0  0  0
  1 21  1  0  0  0  0
  3  4  1  6  0  0  0
  3  8  1  0  0  0  0
  3 28  1  0  0  0  0
  5  9  1  0  0  0  0
  5 25  1  0  0  0  0
  5 29  1  6  0  0  0
  6  7  1  1  0  0  0
  6 11  1  0  0  0  0
  8 12  1  0  0  0  0
  9 10  1  1  0  0  0
  9 14  1  0  0  0  0
 11 16  1  0  0  0  0
 12 13  1  6  0  0  0
 12 17  1  0  0  0  0
 14 15  1  1  0  0  0
 14 18  1  0  0  0  0
 15 31  1  0  0  0  0
 16 20  1  0  0  0  0
 17  2  1  1  0  0  0
 17 22  1  0  0  0  0
 18 19  1  1  0  0  0
 18 24  1  0  0  0  0
 18 30  1  0  0  0  0
 20 21  1  0  0  0  0
 20 26  1  1  0  0  0
 22 23  1  6  0  0  0
 22 28  1  0  0  0  0
 24 25  1  0  0  0  0
 26 27  1  0  0  0  0
 28 29  1  1  0  0  0
M  END
>  <CHROM.1>
-169.55003182,174.82870843,-98.40280058,-160.56303365,-99.93425648,70.52459564
-0.06153406,13.78242416,38.16275427,-0.96946167,-0.38071373,3.03523536

>  <Name>
ligand

>  <RI>
0

>  <Rbt.Current_Directory>
/home/itssahil/PROJECTS/Mol_Feturizer/New_Systems/rnas/4GPY

>  <Rbt.Executable>
rbdock ($Id: //depot/dev/client3/rdock/2013.1/src/exe/rbdock.cxx#4 $)

>  <Rbt.Library>
libRbt.so (2013.1, Build901 2013/11/27)

>  <Rbt.Parameter_File>
/export/apps/rDock/src/rDock_2013.1_src/data/scripts/dock_solv.prm

>  <Rbt.Receptor>
prm/pocket_docking_4.prm

>  <SCORE>
-16.1511

>  <SCORE.INTER>
-12.2336

>  <SCORE.INTER.CONST>
1

>  <SCORE.INTER.POLAR>
0

>  <SCORE.INTER.ROT>
6

>  <SCORE.INTER.SOLV>
17.988

>  <SCORE.INTER.VDW>
-21.7517

>  <SCORE.INTER.norm>
-0.394632

>  <SCORE.INTRA>
-3.91751

>  <SCORE.INTRA.DIHEDRAL>
-8.77431

>  <SCORE.INTRA.DIHEDRAL.0>
14.7001

>  <SCORE.INTRA.POLAR>
0

>  <SCORE.INTRA.POLAR.0>
0

>  <SCORE.INTRA.REPUL>
0.000822139

>  <SCORE.INTRA.REPUL.0>
0

>  <SCORE.INTRA.SOLV>
-0.0654215

>  <SCORE.INTRA.SOLV.lig_0>
-65.3082

>  <SCORE.INTRA.VDW>
0.498242

>  <SCORE.INTRA.VDW.0>
-4.21408

>  <SCORE.INTRA.norm>
-0.126371

>  <SCORE.RESTR>
0

>  <SCORE.RESTR.CAVITY>
0

>  <SCORE.RESTR.norm>
0

>  <SCORE.SYSTEM>
0

>  <SCORE.SYSTEM.CONST>
0

>  <SCORE.SYSTEM.DIHEDRAL>
0

>  <SCORE.SYSTEM.SOLV>
0

>  <SCORE.SYSTEM.norm>
0

>  <SCORE.heavy>
31

>  <SCORE.norm>
-0.521004

>  <RMSD>
1.368

$$$$
ligand
 OpenBabel11021811493D
libRbt.so/2013.1/901 2013/11/27
 31 33  0  0  0  0  0  0  0  0999 V2000
    2.5004   15.3299   36.9388 C   0  0  2  0  0  0  0  0  0  0  0  0
    1.8332   15.8187   38.0865 O   0  0  0  0  0  0  0  0  0  0  0  0
   -1.8609   15.2392   40.1058 C   0  0  2  0  0  0  0  0  0  0  0  0
   -3.2591   15.0687   40.3127 N   0  0  0  0  0  0  0  0  0  0  0  0
   -2.8377   12.2090   40.0758 C   0  0  2  0  0  0  0  0  0  0  0  0
    4.0653   15.3859   37.2151 C   0  0  2  0  0  0  0  0  0  0  0  0
    4.3700   14.5962   38.4035 N   0  0  0  0  0  0  0  0  0  0  0  0
   -1.6339   16.6260   39.3543 C   0  0  0  0  0  0  0  0  0  0  0  0
   -2.5318   10.7825   40.6439 C   0  0  2  0  0  0  0  0  0  0  0  0
   -1.7612   10.9192   41.8189 O   0  0  0  0  0  0  0  0  0  0  0  0
    4.5436   16.8746   37.3853 C   0  0  0  0  0  0  0  0  0  0  0  0
   -0.0775   16.8229   39.1390 C   0  0  2  0  0  0  0  0  0  0  0  0
    0.1507   18.0975   38.4571 N   0  0  0  0  0  0  0  0  0  0  0  0
   -1.7473    9.9683   39.5516 C   0  0  1  0  0  0  0  0  0  0  0  0
   -1.4273    8.6016   40.0752 N   0  0  0  0  0  0  0  0  0  0  0  0
    3.8202   17.8463   36.3614 C   0  0  0  0  0  0  0  0  0  0  0  0
    0.4738   15.6296   38.2563 C   0  0  2  0  0  0  0  0  0  0  0  0
   -2.6819    9.8326   38.2264 C   0  0  1  0  0  0  0  0  0  0  0  0
   -3.9011    9.1598   38.4715 O   0  0  0  0  0  0  0  0  0  0  0  0
    2.7377   17.4409   35.6540 C   0  0  1  0  0  0  0  0  0  0  0  0
    2.1727   16.1376   35.7650 O   0  0  0  0  0  0  0  0  0  0  0  0
    0.2214   14.2529   39.0012 C   0  0  2  0  0  0  0  0  0  0  0  0
    0.7132   13.1712   38.1837 O   0  0  0  0  0  0  0  0  0  0  0  0
   -3.0159   11.2566   37.6894 C   0  0  0  0  0  0  0  0  0  0  0  0
   -3.6416   12.0931   38.7921 O   0  0  0  0  0  0  0  0  0  0  0  0
    2.0166   18.3369   34.6755 C   0  0  0  0  0  0  0  0  0  0  0  0
    1.7219   17.5280   33.5163 O   0  0  0  0  0  0  0  0  0  0  0  0
   -1.3279   14.0627   39.2210 C   0  0  1  0  0  0  0  0  0  0  0  0
   -1.5259   12.8404   39.8872 O   0  0  0  0  0  0  0  0  0  0  0  0
   -2.0361    9.0633   37.0667 C   0  0  0  0  0  0  0  0  0  0  0  0
   -0.0183    8.1712   39.9616 C   0  0  0  0  0  0  0  0  0  0  0  0
  1  2  1  1  0  0  0
  1  6  1  0  0  0  0
  1 21  1  0  0  0  0
  3  4  1  6  0  0  0
  3  8  1  0  0  0  0
  3 28  1  0  0  0  0
  5  9  1  0  0  0  0
  5 25  1  0  0  0  0
  5 29  1  6  0  0  0
  6  7  1  1  0  0  0
  6 11  1  0  0  0  0
  8 12  1  0  0  0  0
  9 10  1  1  0  0  0
  9 14  1  0  0  0  0
 11 16  1  0  0  0  0
 12 13  1  6  0  0  0
 12 17  1  0  0  0  0
 14 15  1  1  0  0  0
 14 18  1  0  0  0  0
 15 31  1  0  0  0  0
 16 20  1  0  0  0  0
 17  2  1  1  0  0  0
 17 22  1  0  0  0  0
 18 19  1  1  0  0  0
 18 24  1  0  0  0  0
 18 30  1  0  0  0  0
 20 21  1  0  0  0  0
 20 26  1  1  0  0  0
 22 23  1  6  0  0  0
 22 28  1  0  0  0  0
 24 25  1  0  0  0  0
 26 27  1  0  0  0  0
 28 29  1  1  0  0  0
M  END
>  <CHROM.1>
-166.13027528,170.82170243,-128.98300051,-151.77871503,137.63271757,71.85022741
-0.13713654,13.81340884,38.31405599,-0.87824544,-0.51472573,3.10918204

>  <Name>
ligand

>  <RI>
0

>  <Rbt.Current_Directory>
/home/itssahil/PROJECTS/Mol_Feturizer/New_Systems/rnas/4GPY

>  <Rbt.Executable>
rbdock ($Id: //depot/dev/client3/rdock/2013.1/src/exe/rbdock.cxx#4 $)

>  <Rbt.Library>
libRbt.so (2013.1, Build901 2013/11/27)

>  <Rbt.Parameter_File>
/export/apps/rDock/src/rDock_2013.1_src/data/scripts/dock_solv.prm

>  <Rbt.Receptor>
prm/pocket_docking_4.prm

>  <SCORE>
-14.8736

>  <SCORE.INTER>
-12.3223

>  <SCORE.INTER.CONST>
1

>  <SCORE.INTER.POLAR>
0

>  <SCORE.INTER.ROT>
6

>  <SCORE.INTER.SOLV>
18.8883

>  <SCORE.INTER.VDW>
-22.111

>  <SCORE.INTER.norm>
-0.397493

>  <SCORE.INTRA>
-2.55128

>  <SCORE.INTRA.DIHEDRAL>
-6.24446

>  <SCORE.INTRA.DIHEDRAL.0>
14.7001

>  <SCORE.INTRA.POLAR>
0

>  <SCORE.INTRA.POLAR.0>
0

>  <SCORE.INTRA.REPUL>
0

>  <SCORE.INTRA.REPUL.0>
0

>  <SCORE.INTRA.SOLV>
0.111577

>  <SCORE.INTRA.SOLV.lig_0>
-65.3082

>  <SCORE.INTRA.VDW>
0.51516

>  <SCORE.INTRA.VDW.0>
-4.21408

>  <SCORE.INTRA.norm>
-0.0822995

>  <SCORE.RESTR>
0

>  <SCORE.RESTR.CAVITY>
0

>  <SCORE.RESTR.norm>
0

>  <SCORE.SYSTEM>
0

>  <SCORE.SYSTEM.CONST>
0

>  <SCORE.SYSTEM.DIHEDRAL>
0

>  <SCORE.SYSTEM.SOLV>
0

>  <SCORE.SYSTEM.norm>
0

>  <SCORE.heavy>
31

>  <SCORE.norm>
-0.479792

>  <RMSD>
1.372

$$$$
ligand
 OpenBabel11021811493D
libRbt.so/2013.1/901 2013/11/27
 31 33  0  0  0  0  0  0  0  0999 V2000
    2.6132   15.5075   36.7518 C   0  0  2  0  0  0  0  0  0  0  0  0
    1.9036   16.0828   37.8320 O   0  0  0  0  0  0  0  0  0  0  0  0
   -1.7930   15.4085   39.8171 C   0  0  2  0  0  0  0  0  0  0  0  0
   -3.1894   15.2108   40.0119 N   0  0  0  0  0  0  0  0  0  0  0  0
   -2.7254   12.4095   39.8209 C   0  0  2  0  0  0  0  0  0  0  0  0
    4.1648   15.7620   36.9879 C   0  0  2  0  0  0  0  0  0  0  0  0
    4.5552   15.1839   38.2693 N   0  0  0  0  0  0  0  0  0  0  0  0
   -1.5852   16.8105   39.0885 C   0  0  0  0  0  0  0  0  0  0  0  0
   -2.4139   11.0221   40.4760 C   0  0  2  0  0  0  0  0  0  0  0  0
   -1.6184   11.2319   41.6234 O   0  0  0  0  0  0  0  0  0  0  0  0
    4.4863   17.3009   36.9385 C   0  0  0  0  0  0  0  0  0  0  0  0
   -0.0310   17.0375   38.8868 C   0  0  2  0  0  0  0  0  0  0  0  0
    0.1794   18.3263   38.2261 N   0  0  0  0  0  0  0  0  0  0  0  0
   -1.6558   10.1329   39.4243 C   0  0  1  0  0  0  0  0  0  0  0  0
   -1.3309    8.8020   40.0308 N   0  0  0  0  0  0  0  0  0  0  0  0
    3.6613   18.0387   35.8023 C   0  0  0  0  0  0  0  0  0  0  0  0
    0.5465   15.8676   37.9897 C   0  0  2  0  0  0  0  0  0  0  0  0
   -2.6184    9.9150   38.1305 C   0  0  1  0  0  0  0  0  0  0  0  0
   -3.8351    9.2668   38.4447 O   0  0  0  0  0  0  0  0  0  0  0  0
    2.6239   17.4285   35.1794 C   0  0  1  0  0  0  0  0  0  0  0  0
    2.1981   16.1031   35.4828 O   0  0  0  0  0  0  0  0  0  0  0  0
    0.3132   14.4755   38.7117 C   0  0  2  0  0  0  0  0  0  0  0  0
    0.8290   13.4152   37.8810 O   0  0  0  0  0  0  0  0  0  0  0  0
   -2.9574   11.3021   37.5071 C   0  0  0  0  0  0  0  0  0  0  0  0
   -3.5564   12.2133   38.5645 O   0  0  0  0  0  0  0  0  0  0  0  0
    1.8093   18.0985   34.0987 C   0  0  0  0  0  0  0  0  0  0  0  0
    2.3627   19.4209   33.9259 O   0  0  0  0  0  0  0  0  0  0  0  0
   -1.2340   14.2552   38.9180 C   0  0  1  0  0  0  0  0  0  0  0  0
   -1.4151   13.0195   39.5640 O   0  0  0  0  0  0  0  0  0  0  0  0
   -2.0002    9.0668   37.0114 C   0  0  0  0  0  0  0  0  0  0  0  0
    0.0551    8.6229   40.5106 C   0  0  0  0  0  0  0  0  0  0  0  0
  1  2  1  1  0  0  0
  1  6  1  0  0  0  0
  1 21  1  0  0  0  0
  3  4  1  6  0  0  0
  3  8  1  0  0  0  0
  3 28  1  0  0  0  0
  5  9  1  0  0  0  0
  5 25  1  0  0  0  0
  5 29  1  6  0  0  0
  6  7  1  1  0  0  0
  6 11  1  0  0  0  0
  8 12  1  0  0  0  0
  9 10  1  1  0  0  0
  9 14  1  0  0  0  0
 11 16  1  0  0  0  0
 12 13  1  6  0  0  0
 12 17  1  0  0  0  0
 14 15  1  1  0  0  0
 14 18  1  0  0  0  0
 15 31  1  0  0  0  0
 16 20  1  0  0  0  0
 17  2  1  1  0  0  0
 17 22  1  0  0  0  0
 18 19  1  1  0  0  0
 18 24  1  0  0  0  0
 18 30  1  0  0  0  0
 20 21  1  0  0  0  0
 20 26  1  1  0  0  0
 22 23  1  6  0  0  0
 22 28  1  0  0  0  0
 24 25  1  0  0  0  0
 26 27  1  0  0  0  0
 28 29  1  1  0  0  0
M  END
>  <CHROM.1>
-171.43834492,176.77039642,-100.56528246,-158.31072660,-0.22990541,67.17998444
-0.06038873,14.06467744,38.11295638,-0.93616691,-0.43833850,3.01224810

>  <Name>
ligand

>  <RI>
0

>  <Rbt.Current_Directory>
/home/itssahil/PROJECTS/Mol_Feturizer/New_Systems/rnas/4GPY

>  <Rbt.Executable>
rbdock ($Id: //depot/dev/client3/rdock/2013.1/src/exe/rbdock.cxx#4 $)

>  <Rbt.Library>
libRbt.so (2013.1, Build901 2013/11/27)

>  <Rbt.Parameter_File>
/export/apps/rDock/src/rDock_2013.1_src/data/scripts/dock_solv.prm

>  <Rbt.Receptor>
prm/pocket_docking_3.prm

>  <SCORE>
-14.6012

>  <SCORE.INTER>
-11.9505

>  <SCORE.INTER.CONST>
1

>  <SCORE.INTER.POLAR>
0

>  <SCORE.INTER.ROT>
6

>  <SCORE.INTER.SOLV>
19.2403

>  <SCORE.INTER.VDW>
-21.9804

>  <SCORE.INTER.norm>
-0.385499

>  <SCORE.INTRA>
-2.78458

>  <SCORE.INTRA.DIHEDRAL>
-9.35554

>  <SCORE.INTRA.DIHEDRAL.0>
14.7001

>  <SCORE.INTRA.POLAR>
0

>  <SCORE.INTRA.POLAR.0>
0

>  <SCORE.INTRA.REPUL>
0

>  <SCORE.INTRA.REPUL.0>
0

>  <SCORE.INTRA.SOLV>
-0.390899

>  <SCORE.INTRA.SOLV.lig_0>
-65.3082

>  <SCORE.INTRA.VDW>
2.08864

>  <SCORE.INTRA.VDW.0>
-4.21408

>  <SCORE.INTRA.norm>
-0.0898252

>  <SCORE.RESTR>
0.133841

>  <SCORE.RESTR.CAVITY>
0.133841

>  <SCORE.RESTR.norm>
0.00431744

>  <SCORE.SYSTEM>
0

>  <SCORE.SYSTEM.CONST>
0

>  <SCORE.SYSTEM.DIHEDRAL>
0

>  <SCORE.SYSTEM.SOLV>
0

>  <SCORE.SYSTEM.norm>
0

>  <SCORE.heavy>
31

>  <SCORE.norm>
-0.471007

>  <RMSD>
1.395

$$$$
ligand
 OpenBabel11021811493D
libRbt.so/2013.1/901 2013/11/27
 31 33  0  0  0  0  0  0  0  0999 V2000
    2.5954   15.4024   36.7909 C   0  0  2  0  0  0  0  0  0  0  0  0
    1.8930   15.8735   37.9249 O   0  0  0  0  0  0  0  0  0  0  0  0
   -1.8129   15.1142   39.8613 C   0  0  2  0  0  0  0  0  0  0  0  0
   -3.2101   14.9076   40.0406 N   0  0  0  0  0  0  0  0  0  0  0  0
   -2.7364   12.0836   39.6656 C   0  0  2  0  0  0  0  0  0  0  0  0
    4.1501   15.4383   37.1221 C   0  0  2  0  0  0  0  0  0  0  0  0
    4.4069   14.6215   38.3034 N   0  0  0  0  0  0  0  0  0  0  0  0
   -1.6027   16.5456   39.1931 C   0  0  0  0  0  0  0  0  0  0  0  0
   -2.4233   10.6797   40.2840 C   0  0  2  0  0  0  0  0  0  0  0  0
   -1.7022   10.8644   41.4836 O   0  0  0  0  0  0  0  0  0  0  0  0
    4.6349   16.9187   37.3399 C   0  0  0  0  0  0  0  0  0  0  0  0
   -0.0477   16.7819   39.0090 C   0  0  2  0  0  0  0  0  0  0  0  0
    0.1649   18.0973   38.4038 N   0  0  0  0  0  0  0  0  0  0  0  0
   -1.5801    9.8540   39.2454 C   0  0  1  0  0  0  0  0  0  0  0  0
   -1.2525    8.5090   39.8182 N   0  0  0  0  0  0  0  0  0  0  0  0
    3.9556   17.9180   36.3123 C   0  0  0  0  0  0  0  0  0  0  0  0
    0.5354   15.6510   38.0665 C   0  0  2  0  0  0  0  0  0  0  0  0
   -2.4592    9.6628   37.8895 C   0  0  1  0  0  0  0  0  0  0  0  0
   -3.6729    8.9702   38.1059 O   0  0  0  0  0  0  0  0  0  0  0  0
    2.8949   17.5373   35.5596 C   0  0  1  0  0  0  0  0  0  0  0  0
    2.3154   16.2372   35.6237 O   0  0  0  0  0  0  0  0  0  0  0  0
    0.2997   14.2297   38.7284 C   0  0  2  0  0  0  0  0  0  0  0  0
    0.8206   13.2054   37.8567 O   0  0  0  0  0  0  0  0  0  0  0  0
   -2.8016   11.0643   37.3011 C   0  0  0  0  0  0  0  0  0  0  0  0
   -3.4871   11.9160   38.3556 O   0  0  0  0  0  0  0  0  0  0  0  0
    2.2157   18.4600   34.5759 C   0  0  0  0  0  0  0  0  0  0  0  0
    1.6982   17.6249   33.5178 O   0  0  0  0  0  0  0  0  0  0  0  0
   -1.2483   13.9999   38.9175 C   0  0  1  0  0  0  0  0  0  0  0  0
   -1.4316   12.7382   39.5103 O   0  0  0  0  0  0  0  0  0  0  0  0
   -1.7529    8.8771   36.7770 C   0  0  0  0  0  0  0  0  0  0  0  0
    0.1412    8.3115   40.2677 C   0  0  0  0  0  0  0  0  0  0  0  0
  1  2  1  1  0  0  0
  1  6  1  0  0  0  0
  1 21  1  0  0  0  0
  3  4  1  6  0  0  0
  3  8  1  0  0  0  0
  3 28  1  0  0  0  0
  5  9  1  0  0  0  0
  5 25  1  0  0  0  0
  5 29  1  6  0  0  0
  6  7  1  1  0  0  0
  6 11  1  0  0  0  0
  8 12  1  0  0  0  0
  9 10  1  1  0  0  0
  9 14  1  0  0  0  0
 11 16  1  0  0  0  0
 12 13  1  6  0  0  0
 12 17  1  0  0  0  0
 14 15  1  1  0  0  0
 14 18  1  0  0  0  0
 15 31  1  0  0  0  0
 16 20  1  0  0  0  0
 17  2  1  1  0  0  0
 17 22  1  0  0  0  0
 18 19  1  1  0  0  0
 18 24  1  0  0  0  0
 18 30  1  0  0  0  0
 20 21  1  0  0  0  0
 20 26  1  1  0  0  0
 22 23  1  6  0  0  0
 22 28  1  0  0  0  0
 24 25  1  0  0  0  0
 26 27  1  0  0  0  0
 28 29  1  1  0  0  0
M  END
>  <CHROM.1>
-163.76956886,176.39659860,-105.54313017,-155.06288763,149.70511277,70.81758930
-0.02582262,13.77973613,38.10630776,-0.91403013,-0.47011545,3.09374880

>  <Name>
ligand

>  <RI>
0

>  <Rbt.Current_Directory>
/home/itssahil/PROJECTS/Mol_Feturizer/New_Systems/rnas/4GPY

>  <Rbt.Executable>
rbdock ($Id: //depot/dev/client3/rdock/2013.1/src/exe/rbdock.cxx#4 $)

>  <Rbt.Library>
libRbt.so (2013.1, Build901 2013/11/27)

>  <Rbt.Parameter_File>
/export/apps/rDock/src/rDock_2013.1_src/data/scripts/dock_solv.prm

>  <Rbt.Receptor>
prm/pocket_docking_4.prm

>  <SCORE>
-14.641

>  <SCORE.INTER>
-12.048

>  <SCORE.INTER.CONST>
1

>  <SCORE.INTER.POLAR>
0

>  <SCORE.INTER.ROT>
6

>  <SCORE.INTER.SOLV>
19.2678

>  <SCORE.INTER.VDW>
-22.0546

>  <SCORE.INTER.norm>
-0.388646

>  <SCORE.INTRA>
-2.59302

>  <SCORE.INTRA.DIHEDRAL>
-6.52407

>  <SCORE.INTRA.DIHEDRAL.0>
14.7001

>  <SCORE.INTRA.POLAR>
0

>  <SCORE.INTRA.POLAR.0>
0

>  <SCORE.INTRA.REPUL>
0

>  <SCORE.INTRA.REPUL.0>
0

>  <SCORE.INTRA.SOLV>
-0.0976263

>  <SCORE.INTRA.SOLV.lig_0>
-65.3082

>  <SCORE.INTRA.VDW>
0.717826

>  <SCORE.INTRA.VDW.0>
-4.21408

>  <SCORE.INTRA.norm>
-0.0836459

>  <SCORE.RESTR>
0

>  <SCORE.RESTR.CAVITY>
0

>  <SCORE.RESTR.norm>
0

>  <SCORE.SYSTEM>
0

>  <SCORE.SYSTEM.CONST>
0

>  <SCORE.SYSTEM.DIHEDRAL>
0

>  <SCORE.SYSTEM.SOLV>
0

>  <SCORE.SYSTEM.norm>
0

>  <SCORE.heavy>
31

>  <SCORE.norm>
-0.472292

>  <RMSD>
1.400

$$$$
ligand
 OpenBabel11021811493D
libRbt.so/2013.1/901 2013/11/27
 31 33  0  0  0  0  0  0  0  0999 V2000
    2.3076   15.2000   37.2024 C   0  0  2  0  0  0  0  0  0  0  0  0
    1.5350   15.8479   38.1947 O   0  0  0  0  0  0  0  0  0  0  0  0
   -2.0783   14.8267   40.1851 C   0  0  2  0  0  0  0  0  0  0  0  0
   -3.4588   14.5453   40.3891 N   0  0  0  0  0  0  0  0  0  0  0  0
   -2.8579   11.7515   39.8413 C   0  0  2  0  0  0  0  0  0  0  0  0
    3.8424   15.4781   37.5108 C   0  0  2  0  0  0  0  0  0  0  0  0
    4.1564   14.9951   38.8512 N   0  0  0  0  0  0  0  0  0  0  0  0
   -1.9536   16.2944   39.5769 C   0  0  0  0  0  0  0  0  0  0  0  0
   -2.4500   10.3037   40.2757 C   0  0  2  0  0  0  0  0  0  0  0  0
   -1.6890   10.3848   41.4621 O   0  0  0  0  0  0  0  0  0  0  0  0
    4.1655   17.0110   37.3700 C   0  0  0  0  0  0  0  0  0  0  0  0
   -0.4169   16.6133   39.3656 C   0  0  2  0  0  0  0  0  0  0  0  0
   -0.2828   17.9626   38.8151 N   0  0  0  0  0  0  0  0  0  0  0  0
   -1.6113    9.6527   39.1162 C   0  0  1  0  0  0  0  0  0  0  0  0
   -1.1938    8.2694   39.5119 N   0  0  0  0  0  0  0  0  0  0  0  0
    3.4089   17.6616   36.1371 C   0  0  0  0  0  0  0  0  0  0  0  0
    0.1936   15.5541   38.3593 C   0  0  2  0  0  0  0  0  0  0  0  0
   -2.5362    9.5748   37.7795 C   0  0  1  0  0  0  0  0  0  0  0  0
   -3.7039    8.7970   37.9551 O   0  0  0  0  0  0  0  0  0  0  0  0
    2.4106   17.0035   35.4994 C   0  0  1  0  0  0  0  0  0  0  0  0
    1.9681   15.7012   35.8715 O   0  0  0  0  0  0  0  0  0  0  0  0
    0.0429   14.0956   38.9624 C   0  0  2  0  0  0  0  0  0  0  0  0
    0.5881   13.1367   38.0330 O   0  0  0  0  0  0  0  0  0  0  0  0
   -2.9720   11.0152   37.3757 C   0  0  0  0  0  0  0  0  0  0  0  0
   -3.6538   11.6987   38.5484 O   0  0  0  0  0  0  0  0  0  0  0  0
    1.6611   17.5904   34.3272 C   0  0  0  0  0  0  0  0  0  0  0  0
    1.8891   19.0157   34.3645 O   0  0  0  0  0  0  0  0  0  0  0  0
   -1.4870   13.7832   39.1788 C   0  0  1  0  0  0  0  0  0  0  0  0
   -1.5948   12.4895   39.7187 O   0  0  0  0  0  0  0  0  0  0  0  0
   -1.8393    8.9648   36.5564 C   0  0  0  0  0  0  0  0  0  0  0  0
    0.1969    8.1171   39.9876 C   0  0  0  0  0  0  0  0  0  0  0  0
  1  2  1  1  0  0  0
  1  6  1  0  0  0  0
  1 21  1  0  0  0  0
  3  4  1  6  0  0  0
  3  8  1  0  0  0  0
  3 28  1  0  0  0  0
  5  9  1  0  0  0  0
  5 25  1  0  0  0  0
  5 29  1  6  0  0  0
  6  7  1  1  0  0  0
  6 11  1  0  0  0  0
  8 12  1  0  0  0  0
  9 10  1  1  0  0  0
  9 14  1  0  0  0  0
 11 16  1  0  0  0  0
 12 13  1  6  0  0  0
 12 17  1  0  0  0  0
 14 15  1  1  0  0  0
 14 18  1  0  0  0  0
 15 31  1  0  0  0  0
 16 20  1  0  0  0  0
 17  2  1  1  0  0  0
 17 22  1  0  0  0  0
 18 19  1  1  0  0  0
 18 24  1  0  0  0  0
 18 30  1  0  0  0  0
 20 21  1  0  0  0  0
 20 26  1  1  0  0  0
 22 23  1  6  0  0  0
 22 28  1  0  0  0  0
 24 25  1  0  0  0  0
 26 27  1  0  0  0  0
 28 29  1  1  0  0  0
M  END
>  <CHROM.1>
-165.96141442,171.29566083,-100.81625546,-170.53266288,-18.77119250,72.62544649
-0.24481712,13.63214275,38.25111861,-0.91623940,-0.55498747,-3.10201146

>  <Name>
ligand

>  <RI>
0

>  <Rbt.Current_Directory>
/home/itssahil/PROJECTS/Mol_Feturizer/New_Systems/rnas/4GPY

>  <Rbt.Executable>
rbdock ($Id: //depot/dev/client3/rdock/2013.1/src/exe/rbdock.cxx#4 $)

>  <Rbt.Library>
libRbt.so (2013.1, Build901 2013/11/27)

>  <Rbt.Parameter_File>
/export/apps/rDock/src/rDock_2013.1_src/data/scripts/dock_solv.prm

>  <Rbt.Receptor>
prm/pocket_docking_3.prm

>  <SCORE>
-14.2361

>  <SCORE.INTER>
-11.253

>  <SCORE.INTER.CONST>
1

>  <SCORE.INTER.POLAR>
0

>  <SCORE.INTER.ROT>
6

>  <SCORE.INTER.SOLV>
17.0445

>  <SCORE.INTER.VDW>
-20.7835

>  <SCORE.INTER.norm>
-0.363001

>  <SCORE.INTRA>
-3.0943

>  <SCORE.INTRA.DIHEDRAL>
-9.17502

>  <SCORE.INTRA.DIHEDRAL.0>
14.7001

>  <SCORE.INTRA.POLAR>
0

>  <SCORE.INTRA.POLAR.0>
0

>  <SCORE.INTRA.REPUL>
0

>  <SCORE.INTRA.REPUL.0>
0

>  <SCORE.INTRA.SOLV>
-1.16981

>  <SCORE.INTRA.SOLV.lig_0>
-65.3082

>  <SCORE.INTRA.VDW>
2.07812

>  <SCORE.INTRA.VDW.0>
-4.21408

>  <SCORE.INTRA.norm>
-0.099816

>  <SCORE.RESTR>
0.111238

>  <SCORE.RESTR.CAVITY>
0.111238

>  <SCORE.RESTR.norm>
0.00358833

>  <SCORE.SYSTEM>
0

>  <SCORE.SYSTEM.CONST>
0

>  <SCORE.SYSTEM.DIHEDRAL>
0

>  <SCORE.SYSTEM.SOLV>
0

>  <SCORE.SYSTEM.norm>
0

>  <SCORE.heavy>
31

>  <SCORE.norm>
-0.459228

>  <RMSD>
1.436

$$$$
ligand
 OpenBabel11021811493D
libRbt.so/2013.1/901 2013/11/27
 31 33  0  0  0  0  0  0  0  0999 V2000
    1.9389   14.6700   36.9611 C   0  0  2  0  0  0  0  0  0  0  0  0
    1.4348   15.2663   38.1408 O   0  0  0  0  0  0  0  0  0  0  0  0
   -2.2301   16.0010   40.1628 C   0  0  2  0  0  0  0  0  0  0  0  0
   -3.6191   16.2347   40.3704 N   0  0  0  0  0  0  0  0  0  0  0  0
   -3.2459   12.3979   39.8860 C   0  0  2  0  0  0  0  0  0  0  0  0
    3.5104   14.4952   37.1280 C   0  0  2  0  0  0  0  0  0  0  0  0
    3.7789   13.6830   38.3098 N   0  0  0  0  0  0  0  0  0  0  0  0
   -1.6720   17.1398   39.1979 C   0  0  0  0  0  0  0  0  0  0  0  0
   -3.9895   11.8482   41.1494 C   0  0  2  0  0  0  0  0  0  0  0  0
   -4.8128   12.8700   41.6702 O   0  0  0  0  0  0  0  0  0  0  0  0
    4.2147   15.8978   37.2318 C   0  0  0  0  0  0  0  0  0  0  0  0
   -0.1237   16.8889   38.9805 C   0  0  2  0  0  0  0  0  0  0  0  0
    0.4083   17.9320   38.1026 N   0  0  0  0  0  0  0  0  0  0  0  0
   -2.9145   11.4023   42.2062 C   0  0  1  0  0  0  0  0  0  0  0  0
   -3.5996   10.8852   43.4342 N   0  0  0  0  0  0  0  0  0  0  0  0
    3.5719   16.9545   36.2387 C   0  0  0  0  0  0  0  0  0  0  0  0
    0.0775   15.4661   38.3155 C   0  0  2  0  0  0  0  0  0  0  0  0
   -2.0021   10.2201   41.5599 C   0  0  1  0  0  0  0  0  0  0  0  0
   -2.7491    9.0757   41.1969 O   0  0  0  0  0  0  0  0  0  0  0  0
    2.3937   16.7068   35.6165 C   0  0  1  0  0  0  0  0  0  0  0  0
    1.6514   15.5037   35.7950 O   0  0  0  0  0  0  0  0  0  0  0  0
   -0.5026   14.3424   39.2719 C   0  0  2  0  0  0  0  0  0  0  0  0
   -0.3283   13.0519   38.6518 O   0  0  0  0  0  0  0  0  0  0  0  0
   -1.2964   10.7615   40.2806 C   0  0  0  0  0  0  0  0  0  0  0  0
   -2.3276   11.3283   39.3201 O   0  0  0  0  0  0  0  0  0  0  0  0
    1.7452   17.6888   34.6703 C   0  0  0  0  0  0  0  0  0  0  0  0
    0.5718   18.1948   35.3423 O   0  0  0  0  0  0  0  0  0  0  0  0
   -2.0423   14.5985   39.4928 C   0  0  1  0  0  0  0  0  0  0  0  0
   -2.5320   13.5949   40.3471 O   0  0  0  0  0  0  0  0  0  0  0  0
   -0.8972    9.6902   42.4832 C   0  0  0  0  0  0  0  0  0  0  0  0
   -3.4767   11.7155   44.6502 C   0  0  0  0  0  0  0  0  0  0  0  0
  1  2  1  1  0  0  0
  1  6  1  0  0  0  0
  1 21  1  0  0  0  0
  3  4  1  6  0  0  0
  3  8  1  0  0  0  0
  3 28  1  0  0  0  0
  5  9  1  0  0  0  0
  5 25  1  0  0  0  0
  5 29  1  1  0  0  0
  6  7  1  1  0  0  0
  6 11  1  0  0  0  0
  8 12  1  0  0  0  0
  9 10  1  1  0  0  0
  9 14  1  0  0  0  0
 11 16  1  0  0  0  0
 12 13  1  6  0  0  0
 12 17  1  0  0  0  0
 14 15  1  1  0  0  0
 14 18  1  0  0  0  0
 15 31  1  0  0  0  0
 16 20  1  0  0  0  0
 17  2  1  1  0  0  0
 17 22  1  0  0  0  0
 18 19  1  6  0  0  0
 18 24  1  0  0  0  0
 18 30  1  0  0  0  0
 20 21  1  0  0  0  0
 20 26  1  1  0  0  0
 22 23  1  6  0  0  0
 22 28  1  0  0  0  0
 24 25  1  0  0  0  0
 26 27  1  0  0  0  0
 28 29  1  1  0  0  0
M  END
>  <CHROM.1>
-176.01527146,-161.72152922,-110.94729093,-139.04149312,-109.90179820,142.36279093
-0.63369207,14.05704972,39.23041341,-0.87602215,-0.49709954,2.71940536

>  <Name>
ligand

>  <RI>
0

>  <Rbt.Current_Directory>
/home/itssahil/PROJECTS/Mol_Feturizer/New_Systems/rnas/4GPY

>  <Rbt.Executable>
rbdock ($Id: //depot/dev/client3/rdock/2013.1/src/exe/rbdock.cxx#4 $)

>  <Rbt.Library>
libRbt.so (2013.1, Build901 2013/11/27)

>  <Rbt.Parameter_File>
/export/apps/rDock/src/rDock_2013.1_src/data/scripts/dock_solv.prm

>  <Rbt.Receptor>
prm/pocket_docking_7.prm

>  <SCORE>
-11.2578

>  <SCORE.INTER>
-11.9367

>  <SCORE.INTER.CONST>
1

>  <SCORE.INTER.POLAR>
0

>  <SCORE.INTER.ROT>
6

>  <SCORE.INTER.SOLV>
17.113

>  <SCORE.INTER.VDW>
-21.2621

>  <SCORE.INTER.norm>
-0.385054

>  <SCORE.INTRA>
0.67884

>  <SCORE.INTRA.DIHEDRAL>
0.402797

>  <SCORE.INTRA.DIHEDRAL.0>
14.7001

>  <SCORE.INTRA.POLAR>
0

>  <SCORE.INTRA.POLAR.0>
0

>  <SCORE.INTRA.REPUL>
0

>  <SCORE.INTRA.REPUL.0>
0

>  <SCORE.INTRA.SOLV>
1.69018

>  <SCORE.INTRA.SOLV.lig_0>
-65.3082

>  <SCORE.INTRA.VDW>
-0.367649

>  <SCORE.INTRA.VDW.0>
-4.21408

>  <SCORE.INTRA.norm>
0.0218981

>  <SCORE.RESTR>
0

>  <SCORE.RESTR.CAVITY>
0

>  <SCORE.RESTR.norm>
0

>  <SCORE.SYSTEM>
0

>  <SCORE.SYSTEM.CONST>
0

>  <SCORE.SYSTEM.DIHEDRAL>
0

>  <SCORE.SYSTEM.SOLV>
0

>  <SCORE.SYSTEM.norm>
0

>  <SCORE.heavy>
31

>  <SCORE.norm>
-0.363156

>  <RMSD>
1.482

$$$$
ligand
 OpenBabel11021811493D
libRbt.so/2013.1/901 2013/11/27
 31 33  0  0  0  0  0  0  0  0999 V2000
    2.2948   15.1987   37.1829 C   0  0  2  0  0  0  0  0  0  0  0  0
    1.5123   15.8255   38.1810 O   0  0  0  0  0  0  0  0  0  0  0  0
   -2.1006   14.7589   40.1480 C   0  0  2  0  0  0  0  0  0  0  0  0
   -3.4790   14.4612   40.3433 N   0  0  0  0  0  0  0  0  0  0  0  0
   -2.8465   11.6868   39.8203 C   0  0  2  0  0  0  0  0  0  0  0  0
    3.8263   15.4755   37.5088 C   0  0  2  0  0  0  0  0  0  0  0  0
    4.1311   14.9683   38.8424 N   0  0  0  0  0  0  0  0  0  0  0  0
   -1.9893   16.2291   39.5433 C   0  0  0  0  0  0  0  0  0  0  0  0
   -2.4267   10.2296   40.2096 C   0  0  2  0  0  0  0  0  0  0  0  0
   -1.6334   10.2837   41.3762 O   0  0  0  0  0  0  0  0  0  0  0  0
    4.1458   17.0117   37.3994 C   0  0  0  0  0  0  0  0  0  0  0  0
   -0.4552   16.5661   39.3416 C   0  0  2  0  0  0  0  0  0  0  0  0
   -0.3333   17.9180   38.7944 N   0  0  0  0  0  0  0  0  0  0  0  0
   -1.6202    9.6063   39.0127 C   0  0  1  0  0  0  0  0  0  0  0  0
   -1.1918    8.2145   39.3646 N   0  0  0  0  0  0  0  0  0  0  0  0
    3.3970   17.6831   36.1728 C   0  0  0  0  0  0  0  0  0  0  0  0
    0.1735   15.5160   38.3371 C   0  0  2  0  0  0  0  0  0  0  0  0
   -2.5815    9.5588   37.7005 C   0  0  1  0  0  0  0  0  0  0  0  0
   -3.7438    8.7762   37.8900 O   0  0  0  0  0  0  0  0  0  0  0  0
    2.4058   17.0341   35.5150 C   0  0  1  0  0  0  0  0  0  0  0  0
    1.9645   15.7238   35.8590 O   0  0  0  0  0  0  0  0  0  0  0  0
    0.0361   14.0547   38.9366 C   0  0  2  0  0  0  0  0  0  0  0  0
    0.5979   13.1039   38.0088 O   0  0  0  0  0  0  0  0  0  0  0  0
   -3.0283   11.0078   37.3424 C   0  0  0  0  0  0  0  0  0  0  0  0
   -3.6776   11.6634   38.5489 O   0  0  0  0  0  0  0  0  0  0  0  0
    1.6638   17.6407   34.3480 C   0  0  0  0  0  0  0  0  0  0  0  0
    2.3416   18.8742   34.0254 O   0  0  0  0  0  0  0  0  0  0  0  0
   -1.4913   13.7243   39.1433 C   0  0  1  0  0  0  0  0  0  0  0  0
   -1.5873   12.4283   39.6802 O   0  0  0  0  0  0  0  0  0  0  0  0
   -1.9183    8.9778   36.4449 C   0  0  0  0  0  0  0  0  0  0  0  0
    0.1455    8.0773   39.9779 C   0  0  0  0  0  0  0  0  0  0  0  0
  1  2  1  1  0  0  0
  1  6  1  0  0  0  0
  1 21  1  0  0  0  0
  3  4  1  6  0  0  0
  3  8  1  0  0  0  0
  3 28  1  0  0  0  0
  5  9  1  0  0  0  0
  5 25  1  0  0  0  0
  5 29  1  6  0  0  0
  6  7  1  1  0  0  0
  6 11  1  0  0  0  0
  8 12  1  0  0  0  0
  9 10  1  1  0  0  0
  9 14  1  0  0  0  0
 11 16  1  0  0  0  0
 12 13  1  6  0  0  0
 12 17  1  0  0  0  0
 14 15  1  1  0  0  0
 14 18  1  0  0  0  0
 15 31  1  0  0  0  0
 16 20  1  0  0  0  0
 17  2  1  1  0  0  0
 17 22  1  0  0  0  0
 18 19  1  1  0  0  0
 18 24  1  0  0  0  0
 18 30  1  0  0  0  0
 20 21  1  0  0  0  0
 20 26  1  1  0  0  0
 22 23  1  6  0  0  0
 22 28  1  0  0  0  0
 24 25  1  0  0  0  0
 26 27  1  0  0  0  0
 28 29  1  1  0  0  0
M  END
>  <CHROM.1>
-165.37612792,169.98719019,-92.46229274,-169.86544965,7.44432629,71.26329681
-0.24447765,13.59759442,38.20716658,-0.89567712,-0.57752116,-3.07436657

>  <Name>
ligand

>  <RI>
0

>  <Rbt.Current_Directory>
/home/itssahil/PROJECTS/Mol_Feturizer/New_Systems/rnas/4GPY

>  <Rbt.Executable>
rbdock ($Id: //depot/dev/client3/rdock/2013.1/src/exe/rbdock.cxx#4 $)

>  <Rbt.Library>
libRbt.so (2013.1, Build901 2013/11/27)

>  <Rbt.Parameter_File>
/export/apps/rDock/src/rDock_2013.1_src/data/scripts/dock_solv.prm

>  <Rbt.Receptor>
prm/pocket_docking_3.prm

>  <SCORE>
-14.0271

>  <SCORE.INTER>
-11.1487

>  <SCORE.INTER.CONST>
1

>  <SCORE.INTER.POLAR>
0

>  <SCORE.INTER.ROT>
6

>  <SCORE.INTER.SOLV>
17.3663

>  <SCORE.INTER.VDW>
-20.8212

>  <SCORE.INTER.norm>
-0.359635

>  <SCORE.INTRA>
-2.93384

>  <SCORE.INTRA.DIHEDRAL>
-9.67083

>  <SCORE.INTRA.DIHEDRAL.0>
14.7001

>  <SCORE.INTRA.POLAR>
0

>  <SCORE.INTRA.POLAR.0>
0

>  <SCORE.INTRA.REPUL>
0

>  <SCORE.INTRA.REPUL.0>
0

>  <SCORE.INTRA.SOLV>
-1.01693

>  <SCORE.INTRA.SOLV.lig_0>
-65.3082

>  <SCORE.INTRA.VDW>
2.41004

>  <SCORE.INTRA.VDW.0>
-4.21408

>  <SCORE.INTRA.norm>
-0.09464

>  <SCORE.RESTR>
0.0554189

>  <SCORE.RESTR.CAVITY>
0.0554189

>  <SCORE.RESTR.norm>
0.00178771

>  <SCORE.SYSTEM>
0

>  <SCORE.SYSTEM.CONST>
0

>  <SCORE.SYSTEM.DIHEDRAL>
0

>  <SCORE.SYSTEM.SOLV>
0

>  <SCORE.SYSTEM.norm>
0

>  <SCORE.heavy>
31

>  <SCORE.norm>
-0.452487

>  <RMSD>
1.494

$$$$
ligand
 OpenBabel11021811493D
libRbt.so/2013.1/901 2013/11/27
 31 33  0  0  0  0  0  0  0  0999 V2000
    2.7658   15.1499   36.9012 C   0  0  2  0  0  0  0  0  0  0  0  0
    2.0072   15.6343   37.9926 O   0  0  0  0  0  0  0  0  0  0  0  0
   -1.6274   14.6501   39.9626 C   0  0  2  0  0  0  0  0  0  0  0  0
   -3.0000   14.3222   40.1506 N   0  0  0  0  0  0  0  0  0  0  0  0
   -2.2587   11.5520   39.9884 C   0  0  2  0  0  0  0  0  0  0  0  0
    4.2993   15.4538   37.1911 C   0  0  2  0  0  0  0  0  0  0  0  0
    4.6832   14.8211   38.4484 N   0  0  0  0  0  0  0  0  0  0  0  0
   -1.5488   16.0484   39.2022 C   0  0  0  0  0  0  0  0  0  0  0  0
   -1.8258   10.2487   40.7403 C   0  0  2  0  0  0  0  0  0  0  0  0
   -1.1349   10.6132   41.9164 O   0  0  0  0  0  0  0  0  0  0  0  0
    4.5568   17.0048   37.2348 C   0  0  0  0  0  0  0  0  0  0  0  0
   -0.0219   16.4206   39.0080 C   0  0  2  0  0  0  0  0  0  0  0  0
    0.0695   17.7081   38.3182 N   0  0  0  0  0  0  0  0  0  0  0  0
   -0.9023    9.4062   39.7870 C   0  0  1  0  0  0  0  0  0  0  0  0
   -0.4598    8.1582   40.4878 N   0  0  0  0  0  0  0  0  0  0  0  0
    3.7285   17.7710   36.1199 C   0  0  0  0  0  0  0  0  0  0  0  0
    0.6758   15.2920   38.1441 C   0  0  2  0  0  0  0  0  0  0  0  0
   -1.7485    9.0057   38.4560 C   0  0  1  0  0  0  0  0  0  0  0  0
   -2.8966    8.2302   38.7386 O   0  0  0  0  0  0  0  0  0  0  0  0
    2.7327   17.1549   35.4376 C   0  0  1  0  0  0  0  0  0  0  0  0
    2.3561   15.7983   35.6564 O   0  0  0  0  0  0  0  0  0  0  0  0
    0.5710   13.9009   38.8975 C   0  0  2  0  0  0  0  0  0  0  0  0
    1.1960   12.8768   38.0969 O   0  0  0  0  0  0  0  0  0  0  0  0
   -2.2106   10.3069   37.7342 C   0  0  0  0  0  0  0  0  0  0  0  0
   -2.9794   11.1910   38.7008 O   0  0  0  0  0  0  0  0  0  0  0  0
    1.9164   17.8506   34.3747 C   0  0  0  0  0  0  0  0  0  0  0  0
    0.8301   18.5130   35.0574 O   0  0  0  0  0  0  0  0  0  0  0  0
   -0.9496   13.5361   39.0963 C   0  0  1  0  0  0  0  0  0  0  0  0
   -1.0169   12.3040   39.7704 O   0  0  0  0  0  0  0  0  0  0  0  0
   -0.9642    8.1833   37.4252 C   0  0  0  0  0  0  0  0  0  0  0  0
    0.8976    8.1820   41.0711 C   0  0  0  0  0  0  0  0  0  0  0  0
  1  2  1  1  0  0  0
  1  6  1  0  0  0  0
  1 21  1  0  0  0  0
  3  4  1  6  0  0  0
  3  8  1  0  0  0  0
  3 28  1  0  0  0  0
  5  9  1  0  0  0  0
  5 25  1  0  0  0  0
  5 29  1  6  0  0  0
  6  7  1  1  0  0  0
  6 11  1  0  0  0  0
  8 12  1  0  0  0  0
  9 10  1  1  0  0  0
  9 14  1  0  0  0  0
 11 16  1  0  0  0  0
 12 13  1  6  0  0  0
 12 17  1  0  0  0  0
 14 15  1  1  0  0  0
 14 18  1  0  0  0  0
 15 31  1  0  0  0  0
 16 20  1  0  0  0  0
 17  2  1  1  0  0  0
 17 22  1  0  0  0  0
 18 19  1  1  0  0  0
 18 24  1  0  0  0  0
 18 30  1  0  0  0  0
 20 21  1  0  0  0  0
 20 26  1  1  0  0  0
 22 23  1  6  0  0  0
 22 28  1  0  0  0  0
 24 25  1  0  0  0  0
 26 27  1  0  0  0  0
 28 29  1  1  0  0  0
M  END
>  <CHROM.1>
-167.66282246,178.61193933,-99.73612357,-155.65995998,-86.55088259,69.49515255
0.23958995,13.43496627,38.38207428,-1.07624670,-0.33970810,2.91442635

>  <Name>
ligand

>  <RI>
0

>  <Rbt.Current_Directory>
/home/itssahil/PROJECTS/Mol_Feturizer/New_Systems/rnas/4GPY

>  <Rbt.Executable>
rbdock ($Id: //depot/dev/client3/rdock/2013.1/src/exe/rbdock.cxx#4 $)

>  <Rbt.Library>
libRbt.so (2013.1, Build901 2013/11/27)

>  <Rbt.Parameter_File>
/export/apps/rDock/src/rDock_2013.1_src/data/scripts/dock_solv.prm

>  <Rbt.Receptor>
prm/pocket_docking_3.prm

>  <SCORE>
-13.5918

>  <SCORE.INTER>
-10.6458

>  <SCORE.INTER.CONST>
1

>  <SCORE.INTER.POLAR>
0

>  <SCORE.INTER.ROT>
6

>  <SCORE.INTER.SOLV>
15.6705

>  <SCORE.INTER.VDW>
-19.9207

>  <SCORE.INTER.norm>
-0.343411

>  <SCORE.INTRA>
-2.97848

>  <SCORE.INTRA.DIHEDRAL>
-7.26684

>  <SCORE.INTRA.DIHEDRAL.0>
14.7001

>  <SCORE.INTRA.POLAR>
0

>  <SCORE.INTRA.POLAR.0>
0

>  <SCORE.INTRA.REPUL>
0.00577068

>  <SCORE.INTRA.REPUL.0>
0

>  <SCORE.INTRA.SOLV>
0.363828

>  <SCORE.INTRA.SOLV.lig_0>
-65.3082

>  <SCORE.INTRA.VDW>
0.444173

>  <SCORE.INTRA.VDW.0>
-4.21408

>  <SCORE.INTRA.norm>
-0.09608

>  <SCORE.RESTR>
0.0324305

>  <SCORE.RESTR.CAVITY>
0.0324305

>  <SCORE.RESTR.norm>
0.00104614

>  <SCORE.SYSTEM>
0

>  <SCORE.SYSTEM.CONST>
0

>  <SCORE.SYSTEM.DIHEDRAL>
0

>  <SCORE.SYSTEM.SOLV>
0

>  <SCORE.SYSTEM.norm>
0

>  <SCORE.heavy>
31

>  <SCORE.norm>
-0.438445

>  <RMSD>
1.517

$$$$
ligand
 OpenBabel11021811493D
libRbt.so/2013.1/901 2013/11/27
 31 33  0  0  0  0  0  0  0  0999 V2000
    2.7647   15.0382   37.0349 C   0  0  2  0  0  0  0  0  0  0  0  0
    1.9865   15.5029   38.1210 O   0  0  0  0  0  0  0  0  0  0  0  0
   -1.7931   14.6684   39.8755 C   0  0  2  0  0  0  0  0  0  0  0  0
   -3.1897   14.4145   39.9845 N   0  0  0  0  0  0  0  0  0  0  0  0
   -2.6042   11.6347   39.8056 C   0  0  2  0  0  0  0  0  0  0  0  0
    4.2958   15.2965   37.3772 C   0  0  2  0  0  0  0  0  0  0  0  0
    4.6298   14.6129   38.6221 N   0  0  0  0  0  0  0  0  0  0  0  0
   -1.5976   16.0832   39.1686 C   0  0  0  0  0  0  0  0  0  0  0  0
   -2.2644   10.1466   40.1538 C   0  0  2  0  0  0  0  0  0  0  0  0
   -1.4284   10.1276   41.2914 O   0  0  0  0  0  0  0  0  0  0  0  0
    4.5863   16.8389   37.4815 C   0  0  0  0  0  0  0  0  0  0  0  0
   -0.0444   16.3726   39.0624 C   0  0  2  0  0  0  0  0  0  0  0  0
    0.1541   17.6738   38.4227 N   0  0  0  0  0  0  0  0  0  0  0  0
   -1.5420    9.4975   38.9175 C   0  0  1  0  0  0  0  0  0  0  0  0
   -1.1908    8.0748   39.2291 N   0  0  0  0  0  0  0  0  0  0  0  0
    3.8072   17.6613   36.3713 C   0  0  0  0  0  0  0  0  0  0  0  0
    0.6320   15.2334   38.1953 C   0  0  2  0  0  0  0  0  0  0  0  0
   -2.5502    9.5365   37.6408 C   0  0  1  0  0  0  0  0  0  0  0  0
   -3.7526    8.8251   37.8589 O   0  0  0  0  0  0  0  0  0  0  0  0
    2.8178   17.0919   35.6410 C   0  0  1  0  0  0  0  0  0  0  0  0
    2.4050   15.7377   35.8024 O   0  0  0  0  0  0  0  0  0  0  0  0
    0.4112   13.8275   38.8942 C   0  0  2  0  0  0  0  0  0  0  0  0
    1.0176   12.7949   38.0903 O   0  0  0  0  0  0  0  0  0  0  0  0
   -2.9164   11.0176   37.3246 C   0  0  0  0  0  0  0  0  0  0  0  0
   -3.4796   11.6888   38.5653 O   0  0  0  0  0  0  0  0  0  0  0  0
    2.0475   17.8419   34.5805 C   0  0  0  0  0  0  0  0  0  0  0  0
    0.7491   18.1314   35.1419 O   0  0  0  0  0  0  0  0  0  0  0  0
   -1.1357   13.5450   39.0055 C   0  0  1  0  0  0  0  0  0  0  0  0
   -1.3062   12.2982   39.6326 O   0  0  0  0  0  0  0  0  0  0  0  0
   -1.9703    8.9399   36.3518 C   0  0  0  0  0  0  0  0  0  0  0  0
    0.2051    7.6719   38.9600 C   0  0  0  0  0  0  0  0  0  0  0  0
  1  2  1  1  0  0  0
  1  6  1  0  0  0  0
  1 21  1  0  0  0  0
  3  4  1  6  0  0  0
  3  8  1  0  0  0  0
  3 28  1  0  0  0  0
  5  9  1  0  0  0  0
  5 25  1  0  0  0  0
  5 29  1  6  0  0  0
  6  7  1  1  0  0  0
  6 11  1  0  0  0  0
  8 12  1  0  0  0  0
  9 10  1  1  0  0  0
  9 14  1  0  0  0  0
 11 16  1  0  0  0  0
 12 13  1  6  0  0  0
 12 17  1  0  0  0  0
 14 15  1  1  0  0  0
 14 18  1  0  0  0  0
 15 31  1  0  0  0  0
 16 20  1  0  0  0  0
 17  2  1  1  0  0  0
 17 22  1  0  0  0  0
 18 19  1  1  0  0  0
 18 24  1  0  0  0  0
 18 30  1  0  0  0  0
 20 21  1  0  0  0  0
 20 26  1  1  0  0  0
 22 23  1  6  0  0  0
 22 28  1  0  0  0  0
 24 25  1  0  0  0  0
 26 27  1  0  0  0  0
 28 29  1  1  0  0  0
M  END
>  <CHROM.1>
-170.38062256,164.00435397,-129.83718443,-154.07858266,-104.97703260,67.22511498
-0.02114813,13.45098451,38.13542237,-0.95576586,-0.33461361,3.07552616

>  <Name>
ligand

>  <RI>
0

>  <Rbt.Current_Directory>
/home/itssahil/PROJECTS/Mol_Feturizer/New_Systems/rnas/4GPY

>  <Rbt.Executable>
rbdock ($Id: //depot/dev/client3/rdock/2013.1/src/exe/rbdock.cxx#4 $)

>  <Rbt.Library>
libRbt.so (2013.1, Build901 2013/11/27)

>  <Rbt.Parameter_File>
/export/apps/rDock/src/rDock_2013.1_src/data/scripts/dock_solv.prm

>  <Rbt.Receptor>
prm/pocket_docking_3.prm

>  <SCORE>
-15.0699

>  <SCORE.INTER>
-12.5077

>  <SCORE.INTER.CONST>
1

>  <SCORE.INTER.POLAR>
0

>  <SCORE.INTER.ROT>
6

>  <SCORE.INTER.SOLV>
16.2905

>  <SCORE.INTER.VDW>
-21.3686

>  <SCORE.INTER.norm>
-0.403475

>  <SCORE.INTRA>
-2.60912

>  <SCORE.INTRA.DIHEDRAL>
-6.87819

>  <SCORE.INTRA.DIHEDRAL.0>
14.7001

>  <SCORE.INTRA.POLAR>
0

>  <SCORE.INTRA.POLAR.0>
0

>  <SCORE.INTRA.REPUL>
0.00381549

>  <SCORE.INTRA.REPUL.0>
0

>  <SCORE.INTRA.SOLV>
0.996419

>  <SCORE.INTRA.SOLV.lig_0>
-65.3082

>  <SCORE.INTRA.VDW>
0.312691

>  <SCORE.INTRA.VDW.0>
-4.21408

>  <SCORE.INTRA.norm>
-0.084165

>  <SCORE.RESTR>
0.0468925

>  <SCORE.RESTR.CAVITY>
0.0468925

>  <SCORE.RESTR.norm>
0.00151266

>  <SCORE.SYSTEM>
0

>  <SCORE.SYSTEM.CONST>
0

>  <SCORE.SYSTEM.DIHEDRAL>
0

>  <SCORE.SYSTEM.SOLV>
0

>  <SCORE.SYSTEM.norm>
0

>  <SCORE.heavy>
31

>  <SCORE.norm>
-0.486127

>  <RMSD>
1.668

$$$$
ligand
 OpenBabel11021811493D
libRbt.so/2013.1/901 2013/11/27
 31 33  0  0  0  0  0  0  0  0999 V2000
    2.6410   14.9553   37.0399 C   0  0  2  0  0  0  0  0  0  0  0  0
    1.8802   15.4508   38.1248 O   0  0  0  0  0  0  0  0  0  0  0  0
   -1.8486   14.5813   39.9689 C   0  0  2  0  0  0  0  0  0  0  0  0
   -3.2414   14.3237   40.1122 N   0  0  0  0  0  0  0  0  0  0  0  0
   -2.6552   11.5340   39.8415 C   0  0  2  0  0  0  0  0  0  0  0  0
    4.1794   15.1871   37.3679 C   0  0  2  0  0  0  0  0  0  0  0  0
    4.5085   14.5142   38.6199 N   0  0  0  0  0  0  0  0  0  0  0  0
   -1.6740   16.0082   39.2810 C   0  0  0  0  0  0  0  0  0  0  0  0
   -2.2962   10.0352   40.1170 C   0  0  2  0  0  0  0  0  0  0  0  0
   -1.4374    9.9740   41.2359 O   0  0  0  0  0  0  0  0  0  0  0  0
    4.5018   16.7245   37.4485 C   0  0  0  0  0  0  0  0  0  0  0  0
   -0.1246   16.3015   39.1368 C   0  0  2  0  0  0  0  0  0  0  0  0
    0.0549   17.6136   38.5141 N   0  0  0  0  0  0  0  0  0  0  0  0
   -1.5937    9.4476   38.8393 C   0  0  1  0  0  0  0  0  0  0  0  0
   -1.2246    8.0158   39.0809 N   0  0  0  0  0  0  0  0  0  0  0  0
    3.7315   17.5471   36.3323 C   0  0  0  0  0  0  0  0  0  0  0  0
    0.5285   15.1782   38.2319 C   0  0  2  0  0  0  0  0  0  0  0  0
   -2.6278    9.5333   37.5857 C   0  0  1  0  0  0  0  0  0  0  0  0
   -3.8196    8.8021   37.7961 O   0  0  0  0  0  0  0  0  0  0  0  0
    2.7255   16.9879   35.6170 C   0  0  1  0  0  0  0  0  0  0  0  0
    2.2866   15.6448   35.8003 O   0  0  0  0  0  0  0  0  0  0  0  0
    0.3284   13.7603   38.9126 C   0  0  2  0  0  0  0  0  0  0  0  0
    0.9132   12.7423   38.0747 O   0  0  0  0  0  0  0  0  0  0  0  0
   -3.0124   11.0234   37.3423 C   0  0  0  0  0  0  0  0  0  0  0  0
   -3.5559   11.6345   38.6223 O   0  0  0  0  0  0  0  0  0  0  0  0
    1.9629   17.7386   34.5515 C   0  0  0  0  0  0  0  0  0  0  0  0
    0.7207   18.1609   35.1544 O   0  0  0  0  0  0  0  0  0  0  0  0
   -1.2145   13.4738   39.0619 C   0  0  1  0  0  0  0  0  0  0  0  0
   -1.3665   12.2162   39.6720 O   0  0  0  0  0  0  0  0  0  0  0  0
   -2.0691    8.9991   36.2605 C   0  0  0  0  0  0  0  0  0  0  0  0
    0.1879    7.6550   38.8398 C   0  0  0  0  0  0  0  0  0  0  0  0
  1  2  1  1  0  0  0
  1  6  1  0  0  0  0
  1 21  1  0  0  0  0
  3  4  1  6  0  0  0
  3  8  1  0  0  0  0
  3 28  1  0  0  0  0
  5  9  1  0  0  0  0
  5 25  1  0  0  0  0
  5 29  1  6  0  0  0
  6  7  1  1  0  0  0
  6 11  1  0  0  0  0
  8 12  1  0  0  0  0
  9 10  1  1  0  0  0
  9 14  1  0  0  0  0
 11 16  1  0  0  0  0
 12 13  1  6  0  0  0
 12 17  1  0  0  0  0
 14 15  1  1  0  0  0
 14 18  1  0  0  0  0
 15 31  1  0  0  0  0
 16 20  1  0  0  0  0
 17  2  1  1  0  0  0
 17 22  1  0  0  0  0
 18 19  1  1  0  0  0
 18 24  1  0  0  0  0
 18 30  1  0  0  0  0
 20 21  1  0  0  0  0
 20 26  1  1  0  0  0
 22 23  1  6  0  0  0
 22 28  1  0  0  0  0
 24 25  1  0  0  0  0
 26 27  1  0  0  0  0
 28 29  1  1  0  0  0
M  END
>  <CHROM.1>
-168.53849576,162.06344509,-126.49324632,-156.91967677,-100.22340488,68.72044783
-0.09678692,13.38522468,38.13404064,-0.94476711,-0.37872833,3.11077095

>  <Name>
ligand

>  <RI>
0

>  <Rbt.Current_Directory>
/home/itssahil/PROJECTS/Mol_Feturizer/New_Systems/rnas/4GPY

>  <Rbt.Executable>
rbdock ($Id: //depot/dev/client3/rdock/2013.1/src/exe/rbdock.cxx#4 $)

>  <Rbt.Library>
libRbt.so (2013.1, Build901 2013/11/27)

>  <Rbt.Parameter_File>
/export/apps/rDock/src/rDock_2013.1_src/data/scripts/dock_solv.prm

>  <Rbt.Receptor>
prm/pocket_docking_3.prm

>  <SCORE>
-14.8631

>  <SCORE.INTER>
-12.299

>  <SCORE.INTER.CONST>
1

>  <SCORE.INTER.POLAR>
0

>  <SCORE.INTER.ROT>
6

>  <SCORE.INTER.SOLV>
16.1113

>  <SCORE.INTER.VDW>
-21.1698

>  <SCORE.INTER.norm>
-0.396744

>  <SCORE.INTRA>
-2.58876

>  <SCORE.INTRA.DIHEDRAL>
-6.57931

>  <SCORE.INTRA.DIHEDRAL.0>
14.7001

>  <SCORE.INTRA.POLAR>
0

>  <SCORE.INTRA.POLAR.0>
0

>  <SCORE.INTRA.REPUL>
0.00911759

>  <SCORE.INTRA.REPUL.0>
0

>  <SCORE.INTRA.SOLV>
0.69586

>  <SCORE.INTRA.SOLV.lig_0>
-65.3082

>  <SCORE.INTRA.VDW>
0.307377

>  <SCORE.INTRA.VDW.0>
-4.21408

>  <SCORE.INTRA.norm>
-0.0835084

>  <SCORE.RESTR>
0.0247234

>  <SCORE.RESTR.CAVITY>
0.0247234

>  <SCORE.RESTR.norm>
0.00079753

>  <SCORE.SYSTEM>
0

>  <SCORE.SYSTEM.CONST>
0

>  <SCORE.SYSTEM.DIHEDRAL>
0

>  <SCORE.SYSTEM.SOLV>
0

>  <SCORE.SYSTEM.norm>
0

>  <SCORE.heavy>
31

>  <SCORE.norm>
-0.479454

>  <RMSD>
1.691

$$$$
ligand
 OpenBabel11021811493D
libRbt.so/2013.1/901 2013/11/27
 31 33  0  0  0  0  0  0  0  0999 V2000
    2.7875   14.9959   37.0188 C   0  0  2  0  0  0  0  0  0  0  0  0
    2.0148   15.4461   38.1150 O   0  0  0  0  0  0  0  0  0  0  0  0
   -1.7528   14.5690   39.8744 C   0  0  2  0  0  0  0  0  0  0  0  0
   -3.1489   14.3140   39.9869 N   0  0  0  0  0  0  0  0  0  0  0  0
   -2.5714   11.5506   39.7518 C   0  0  2  0  0  0  0  0  0  0  0  0
    4.3041   15.3907   37.2875 C   0  0  2  0  0  0  0  0  0  0  0  0
    4.7385   14.7932   38.5457 N   0  0  0  0  0  0  0  0  0  0  0  0
   -1.5606   16.0022   39.2045 C   0  0  0  0  0  0  0  0  0  0  0  0
   -2.2386   10.0507   40.0529 C   0  0  2  0  0  0  0  0  0  0  0  0
   -1.3753    9.9939   41.1686 O   0  0  0  0  0  0  0  0  0  0  0  0
    4.4719   16.9544   37.3145 C   0  0  0  0  0  0  0  0  0  0  0  0
   -0.0078   16.2924   39.0946 C   0  0  2  0  0  0  0  0  0  0  0  0
    0.1878   17.6102   38.4889 N   0  0  0  0  0  0  0  0  0  0  0  0
   -1.5535    9.4270   38.7828 C   0  0  1  0  0  0  0  0  0  0  0  0
   -1.2096    7.9933   39.0487 N   0  0  0  0  0  0  0  0  0  0  0  0
    3.5878   17.6607   36.2029 C   0  0  0  0  0  0  0  0  0  0  0  0
    0.6605   15.1763   38.1920 C   0  0  2  0  0  0  0  0  0  0  0  0
   -2.5922    9.5091   37.5328 C   0  0  1  0  0  0  0  0  0  0  0  0
   -3.7962    8.8040   37.7622 O   0  0  0  0  0  0  0  0  0  0  0  0
    2.6217   16.9817   35.5381 C   0  0  1  0  0  0  0  0  0  0  0  0
    2.3267   15.6077   35.7734 O   0  0  0  0  0  0  0  0  0  0  0  0
    0.4429   13.7523   38.8543 C   0  0  2  0  0  0  0  0  0  0  0  0
    1.0419   12.7411   38.0182 O   0  0  0  0  0  0  0  0  0  0  0  0
   -2.9506   11.0014   37.2641 C   0  0  0  0  0  0  0  0  0  0  0  0
   -3.4763   11.6455   38.5353 O   0  0  0  0  0  0  0  0  0  0  0  0
    1.7542   17.6189   34.4790 C   0  0  0  0  0  0  0  0  0  0  0  0
    1.9194   19.0468   34.6157 O   0  0  0  0  0  0  0  0  0  0  0  0
   -1.1035   13.4688   38.9694 C   0  0  1  0  0  0  0  0  0  0  0  0
   -1.2711   12.2056   39.5638 O   0  0  0  0  0  0  0  0  0  0  0  0
   -2.0502    8.9407   36.2149 C   0  0  0  0  0  0  0  0  0  0  0  0
    0.2293    7.6571   39.0592 C   0  0  0  0  0  0  0  0  0  0  0  0
  1  2  1  1  0  0  0
  1  6  1  0  0  0  0
  1 21  1  0  0  0  0
  3  4  1  6  0  0  0
  3  8  1  0  0  0  0
  3 28  1  0  0  0  0
  5  9  1  0  0  0  0
  5 25  1  0  0  0  0
  5 29  1  6  0  0  0
  6  7  1  1  0  0  0
  6 11  1  0  0  0  0
  8 12  1  0  0  0  0
  9 10  1  1  0  0  0
  9 14  1  0  0  0  0
 11 16  1  0  0  0  0
 12 13  1  6  0  0  0
 12 17  1  0  0  0  0
 14 15  1  1  0  0  0
 14 18  1  0  0  0  0
 15 31  1  0  0  0  0
 16 20  1  0  0  0  0
 17  2  1  1  0  0  0
 17 22  1  0  0  0  0
 18 19  1  1  0  0  0
 18 24  1  0  0  0  0
 18 30  1  0  0  0  0
 20 21  1  0  0  0  0
 20 26  1  1  0  0  0
 22 23  1  6  0  0  0
 22 28  1  0  0  0  0
 24 25  1  0  0  0  0
 26 27  1  0  0  0  0
 28 29  1  1  0  0  0
M  END
>  <CHROM.1>
-176.41552476,164.24229319,-115.23330117,-154.85726787,-14.94481480,66.00376751
0.00604561,13.43445617,38.05962138,-0.95196897,-0.37748357,3.09795989

>  <Name>
ligand

>  <RI>
0

>  <Rbt.Current_Directory>
/home/itssahil/PROJECTS/Mol_Feturizer/New_Systems/rnas/4GPY

>  <Rbt.Executable>
rbdock ($Id: //depot/dev/client3/rdock/2013.1/src/exe/rbdock.cxx#4 $)

>  <Rbt.Library>
libRbt.so (2013.1, Build901 2013/11/27)

>  <Rbt.Parameter_File>
/export/apps/rDock/src/rDock_2013.1_src/data/scripts/dock_solv.prm

>  <Rbt.Receptor>
prm/pocket_docking_3.prm

>  <SCORE>
-13.8596

>  <SCORE.INTER>
-11.9737

>  <SCORE.INTER.CONST>
1

>  <SCORE.INTER.POLAR>
0

>  <SCORE.INTER.ROT>
6

>  <SCORE.INTER.SOLV>
16.1483

>  <SCORE.INTER.VDW>
-20.9652

>  <SCORE.INTER.norm>
-0.386248

>  <SCORE.INTRA>
-1.8937

>  <SCORE.INTRA.DIHEDRAL>
-7.46087

>  <SCORE.INTRA.DIHEDRAL.0>
14.7001

>  <SCORE.INTRA.POLAR>
0

>  <SCORE.INTRA.POLAR.0>
0

>  <SCORE.INTRA.REPUL>
0

>  <SCORE.INTRA.REPUL.0>
0

>  <SCORE.INTRA.SOLV>
0.184269

>  <SCORE.INTRA.SOLV.lig_0>
-65.3082

>  <SCORE.INTRA.VDW>
1.7446

>  <SCORE.INTRA.VDW.0>
-4.21408

>  <SCORE.INTRA.norm>
-0.0610871

>  <SCORE.RESTR>
0.00774698

>  <SCORE.RESTR.CAVITY>
0.00774698

>  <SCORE.RESTR.norm>
0.000249903

>  <SCORE.SYSTEM>
0

>  <SCORE.SYSTEM.CONST>
0

>  <SCORE.SYSTEM.DIHEDRAL>
0

>  <SCORE.SYSTEM.SOLV>
0

>  <SCORE.SYSTEM.norm>
0

>  <SCORE.heavy>
31

>  <SCORE.norm>
-0.447085

>  <RMSD>
1.740

$$$$
ligand
 OpenBabel11021811493D
libRbt.so/2013.1/901 2013/11/27
 31 33  0  0  0  0  0  0  0  0999 V2000
    2.6818   15.0967   36.9910 C   0  0  2  0  0  0  0  0  0  0  0  0
    1.8932   15.5887   38.0574 O   0  0  0  0  0  0  0  0  0  0  0  0
   -1.7804   14.5297   39.9131 C   0  0  2  0  0  0  0  0  0  0  0  0
   -3.1592   14.2080   40.0616 N   0  0  0  0  0  0  0  0  0  0  0  0
   -2.4589   11.4888   39.8310 C   0  0  2  0  0  0  0  0  0  0  0  0
    4.1956   15.4943   37.2709 C   0  0  2  0  0  0  0  0  0  0  0  0
    4.6062   14.9399   38.5565 N   0  0  0  0  0  0  0  0  0  0  0  0
   -1.6746   15.9714   39.2424 C   0  0  0  0  0  0  0  0  0  0  0  0
   -2.0625    9.9887   40.0405 C   0  0  2  0  0  0  0  0  0  0  0  0
   -1.1213    9.9117   41.0901 O   0  0  0  0  0  0  0  0  0  0  0  0
    4.3705   17.0573   37.2454 C   0  0  0  0  0  0  0  0  0  0  0  0
   -0.1409   16.3358   39.0924 C   0  0  2  0  0  0  0  0  0  0  0  0
   -0.0246   17.6624   38.4854 N   0  0  0  0  0  0  0  0  0  0  0  0
   -1.4509    9.4424   38.6992 C   0  0  1  0  0  0  0  0  0  0  0  0
   -1.0478    8.0104   38.8759 N   0  0  0  0  0  0  0  0  0  0  0  0
    3.5084   17.7275   36.0949 C   0  0  0  0  0  0  0  0  0  0  0  0
    0.5559   15.2544   38.1693 C   0  0  2  0  0  0  0  0  0  0  0  0
   -2.5771    9.5448   37.5291 C   0  0  1  0  0  0  0  0  0  0  0  0
   -3.7410    8.7923   37.8092 O   0  0  0  0  0  0  0  0  0  0  0  0
    2.5501   17.0295   35.4384 C   0  0  1  0  0  0  0  0  0  0  0  0
    2.2447   15.6660   35.7172 O   0  0  0  0  0  0  0  0  0  0  0  0
    0.4241   13.8206   38.8331 C   0  0  2  0  0  0  0  0  0  0  0  0
    1.0484   12.8404   37.9788 O   0  0  0  0  0  0  0  0  0  0  0  0
   -2.9966   11.0350   37.3533 C   0  0  0  0  0  0  0  0  0  0  0  0
   -3.4497   11.6068   38.6856 O   0  0  0  0  0  0  0  0  0  0  0  0
    1.7035   17.6325   34.3430 C   0  0  0  0  0  0  0  0  0  0  0  0
    1.3742   18.9727   34.7676 O   0  0  0  0  0  0  0  0  0  0  0  0
   -1.1034   13.4632   38.9882 C   0  0  1  0  0  0  0  0  0  0  0  0
   -1.1946   12.1925   39.5832 O   0  0  0  0  0  0  0  0  0  0  0  0
   -2.1132    9.0511   36.1525 C   0  0  0  0  0  0  0  0  0  0  0  0
    0.3208    7.6583   38.4441 C   0  0  0  0  0  0  0  0  0  0  0  0
  1  2  1  1  0  0  0
  1  6  1  0  0  0  0
  1 21  1  0  0  0  0
  3  4  1  6  0  0  0
  3  8  1  0  0  0  0
  3 28  1  0  0  0  0
  5  9  1  0  0  0  0
  5 25  1  0  0  0  0
  5 29  1  6  0  0  0
  6  7  1  1  0  0  0
  6 11  1  0  0  0  0
  8 12  1  0  0  0  0
  9 10  1  1  0  0  0
  9 14  1  0  0  0  0
 11 16  1  0  0  0  0
 12 13  1  6  0  0  0
 12 17  1  0  0  0  0
 14 15  1  1  0  0  0
 14 18  1  0  0  0  0
 15 31  1  0  0  0  0
 16 20  1  0  0  0  0
 17  2  1  1  0  0  0
 17 22  1  0  0  0  0
 18 19  1  1  0  0  0
 18 24  1  0  0  0  0
 18 30  1  0  0  0  0
 20 21  1  0  0  0  0
 20 26  1  1  0  0  0
 22 23  1  6  0  0  0
 22 28  1  0  0  0  0
 24 25  1  0  0  0  0
 26 27  1  0  0  0  0
 28 29  1  1  0  0  0
M  END
>  <CHROM.1>
-172.07310140,161.64837654,-130.06496889,-159.52980179,-40.33565223,64.56840015
-0.02852882,13.46017997,38.02806831,-0.96284518,-0.42891662,3.13074466

>  <Name>
ligand

>  <RI>
0

>  <Rbt.Current_Directory>
/home/itssahil/PROJECTS/Mol_Feturizer/New_Systems/rnas/4GPY

>  <Rbt.Executable>
rbdock ($Id: //depot/dev/client3/rdock/2013.1/src/exe/rbdock.cxx#4 $)

>  <Rbt.Library>
libRbt.so (2013.1, Build901 2013/11/27)

>  <Rbt.Parameter_File>
/export/apps/rDock/src/rDock_2013.1_src/data/scripts/dock_solv.prm

>  <Rbt.Receptor>
prm/pocket_docking_3.prm

>  <SCORE>
-14.177

>  <SCORE.INTER>
-12.3131

>  <SCORE.INTER.CONST>
1

>  <SCORE.INTER.POLAR>
0

>  <SCORE.INTER.ROT>
6

>  <SCORE.INTER.SOLV>
15.5711

>  <SCORE.INTER.VDW>
-20.9991

>  <SCORE.INTER.norm>
-0.397195

>  <SCORE.INTRA>
-1.9138

>  <SCORE.INTRA.DIHEDRAL>
-6.61605

>  <SCORE.INTRA.DIHEDRAL.0>
14.7001

>  <SCORE.INTRA.POLAR>
0

>  <SCORE.INTRA.POLAR.0>
0

>  <SCORE.INTRA.REPUL>
0

>  <SCORE.INTRA.REPUL.0>
0

>  <SCORE.INTRA.SOLV>
0.0577665

>  <SCORE.INTRA.SOLV.lig_0>
-65.3082

>  <SCORE.INTRA.VDW>
1.36534

>  <SCORE.INTRA.VDW.0>
-4.21408

>  <SCORE.INTRA.norm>
-0.0617356

>  <SCORE.RESTR>
0.0498946

>  <SCORE.RESTR.CAVITY>
0.0498946

>  <SCORE.RESTR.norm>
0.0016095

>  <SCORE.SYSTEM>
0

>  <SCORE.SYSTEM.CONST>
0

>  <SCORE.SYSTEM.DIHEDRAL>
0

>  <SCORE.SYSTEM.SOLV>
0

>  <SCORE.SYSTEM.norm>
0

>  <SCORE.heavy>
31

>  <SCORE.norm>
-0.457321

>  <RMSD>
1.818

$$$$
ligand
 OpenBabel11021811493D
libRbt.so/2013.1/901 2013/11/27
 31 33  0  0  0  0  0  0  0  0999 V2000
    2.6870   15.1286   36.9555 C   0  0  2  0  0  0  0  0  0  0  0  0
    1.8848   15.6024   38.0201 O   0  0  0  0  0  0  0  0  0  0  0  0
   -1.7810   14.4570   39.8392 C   0  0  2  0  0  0  0  0  0  0  0  0
   -3.1565   14.1161   39.9761 N   0  0  0  0  0  0  0  0  0  0  0  0
   -2.4272   11.4394   39.7453 C   0  0  2  0  0  0  0  0  0  0  0  0
    4.2007   15.4950   37.2758 C   0  0  2  0  0  0  0  0  0  0  0  0
    4.5776   14.8986   38.5529 N   0  0  0  0  0  0  0  0  0  0  0  0
   -1.6901   15.9156   39.2038 C   0  0  0  0  0  0  0  0  0  0  0  0
   -2.0323    9.9380   39.9480 C   0  0  2  0  0  0  0  0  0  0  0  0
   -1.0587    9.8598   40.9673 O   0  0  0  0  0  0  0  0  0  0  0  0
    4.3990   17.0552   37.2980 C   0  0  0  0  0  0  0  0  0  0  0  0
   -0.1603   16.3010   39.0670 C   0  0  2  0  0  0  0  0  0  0  0  0
   -0.0577   17.6431   38.4926 N   0  0  0  0  0  0  0  0  0  0  0  0
   -1.4668    9.3834   38.5900 C   0  0  1  0  0  0  0  0  0  0  0  0
   -1.0659    7.9498   38.7593 N   0  0  0  0  0  0  0  0  0  0  0  0
    3.5698   17.7706   36.1505 C   0  0  0  0  0  0  0  0  0  0  0  0
    0.5512   15.2502   38.1201 C   0  0  2  0  0  0  0  0  0  0  0  0
   -2.6292    9.4876   37.4559 C   0  0  1  0  0  0  0  0  0  0  0  0
   -3.7875    8.7425   37.7759 O   0  0  0  0  0  0  0  0  0  0  0  0
    2.6145   17.1059   35.4561 C   0  0  1  0  0  0  0  0  0  0  0  0
    2.2836   15.7399   35.6902 O   0  0  0  0  0  0  0  0  0  0  0  0
    0.4342   13.7994   38.7487 C   0  0  2  0  0  0  0  0  0  0  0  0
    1.0718   12.8474   37.8727 O   0  0  0  0  0  0  0  0  0  0  0  0
   -3.0460   10.9794   37.2878 C   0  0  0  0  0  0  0  0  0  0  0  0
   -3.4533   11.5586   38.6316 O   0  0  0  0  0  0  0  0  0  0  0  0
    1.7986   17.7523   34.3621 C   0  0  0  0  0  0  0  0  0  0  0  0
    2.3359   19.0796   34.1772 O   0  0  0  0  0  0  0  0  0  0  0  0
   -1.0895   13.4210   38.8908 C   0  0  1  0  0  0  0  0  0  0  0  0
   -1.1677   12.1353   39.4547 O   0  0  0  0  0  0  0  0  0  0  0  0
   -2.2120    8.9862   36.0672 C   0  0  0  0  0  0  0  0  0  0  0  0
    0.2940    7.5930   38.3046 C   0  0  0  0  0  0  0  0  0  0  0  0
  1  2  1  1  0  0  0
  1  6  1  0  0  0  0
  1 21  1  0  0  0  0
  3  4  1  6  0  0  0
  3  8  1  0  0  0  0
  3 28  1  0  0  0  0
  5  9  1  0  0  0  0
  5 25  1  0  0  0  0
  5 29  1  6  0  0  0
  6  7  1  1  0  0  0
  6 11  1  0  0  0  0
  8 12  1  0  0  0  0
  9 10  1  1  0  0  0
  9 14  1  0  0  0  0
 11 16  1  0  0  0  0
 12 13  1  6  0  0  0
 12 17  1  0  0  0  0
 14 15  1  1  0  0  0
 14 18  1  0  0  0  0
 15 31  1  0  0  0  0
 16 20  1  0  0  0  0
 17  2  1  1  0  0  0
 17 22  1  0  0  0  0
 18 19  1  1  0  0  0
 18 24  1  0  0  0  0
 18 30  1  0  0  0  0
 20 21  1  0  0  0  0
 20 26  1  1  0  0  0
 22 23  1  6  0  0  0
 22 28  1  0  0  0  0
 24 25  1  0  0  0  0
 26 27  1  0  0  0  0
 28 29  1  1  0  0  0
M  END
>  <CHROM.1>
-169.96319892,163.74324451,-129.15809366,-160.51877189,5.08690635,61.29298954
0.00908271,13.44207150,37.95408043,-0.93724001,-0.46702151,-3.11405691

>  <Name>
ligand

>  <RI>
0

>  <Rbt.Current_Directory>
/home/itssahil/PROJECTS/Mol_Feturizer/New_Systems/rnas/4GPY

>  <Rbt.Executable>
rbdock ($Id: //depot/dev/client3/rdock/2013.1/src/exe/rbdock.cxx#4 $)

>  <Rbt.Library>
libRbt.so (2013.1, Build901 2013/11/27)

>  <Rbt.Parameter_File>
/export/apps/rDock/src/rDock_2013.1_src/data/scripts/dock_solv.prm

>  <Rbt.Receptor>
prm/pocket_docking_3.prm

>  <SCORE>
-14.0516

>  <SCORE.INTER>
-12.1783

>  <SCORE.INTER.CONST>
1

>  <SCORE.INTER.POLAR>
0

>  <SCORE.INTER.ROT>
6

>  <SCORE.INTER.SOLV>
16.0017

>  <SCORE.INTER.VDW>
-21.0528

>  <SCORE.INTER.norm>
-0.392847

>  <SCORE.INTRA>
-1.89806

>  <SCORE.INTRA.DIHEDRAL>
-8.4075

>  <SCORE.INTRA.DIHEDRAL.0>
14.7001

>  <SCORE.INTRA.POLAR>
0

>  <SCORE.INTRA.POLAR.0>
0

>  <SCORE.INTRA.REPUL>
0

>  <SCORE.INTRA.REPUL.0>
0

>  <SCORE.INTRA.SOLV>
-0.00851581

>  <SCORE.INTRA.SOLV.lig_0>
-65.3082

>  <SCORE.INTRA.VDW>
2.30995

>  <SCORE.INTRA.VDW.0>
-4.21408

>  <SCORE.INTRA.norm>
-0.0612277

>  <SCORE.RESTR>
0.0247375

>  <SCORE.RESTR.CAVITY>
0.0247375

>  <SCORE.RESTR.norm>
0.000797983

>  <SCORE.SYSTEM>
0

>  <SCORE.SYSTEM.CONST>
0

>  <SCORE.SYSTEM.DIHEDRAL>
0

>  <SCORE.SYSTEM.SOLV>
0

>  <SCORE.SYSTEM.norm>
0

>  <SCORE.heavy>
31

>  <SCORE.norm>
-0.453277

>  <RMSD>
1.892

$$$$
ligand
 OpenBabel11021811493D
libRbt.so/2013.1/901 2013/11/27
 31 33  0  0  0  0  0  0  0  0999 V2000
    2.5188   15.0044   37.1348 C   0  0  2  0  0  0  0  0  0  0  0  0
    1.8802   15.5132   38.2901 O   0  0  0  0  0  0  0  0  0  0  0  0
   -1.9522   15.8889   40.0878 C   0  0  2  0  0  0  0  0  0  0  0  0
   -3.3689   15.9477   40.2160 N   0  0  0  0  0  0  0  0  0  0  0  0
   -3.3430   13.1054   40.6889 C   0  0  2  0  0  0  0  0  0  0  0  0
    4.0901   15.0711   37.3684 C   0  0  2  0  0  0  0  0  0  0  0  0
    4.4293   14.3058   38.5633 N   0  0  0  0  0  0  0  0  0  0  0  0
   -1.4972   17.0216   39.0633 C   0  0  0  0  0  0  0  0  0  0  0  0
   -3.5232   13.1760   42.2426 C   0  0  2  0  0  0  0  0  0  0  0  0
   -3.1696   14.4706   42.6808 O   0  0  0  0  0  0  0  0  0  0  0  0
    4.5669   16.5645   37.4970 C   0  0  0  0  0  0  0  0  0  0  0  0
    0.0800   16.9665   38.9335 C   0  0  2  0  0  0  0  0  0  0  0  0
    0.5170   18.0071   38.0019 N   0  0  0  0  0  0  0  0  0  0  0  0
   -2.5977   12.0896   42.9019 C   0  0  1  0  0  0  0  0  0  0  0  0
   -2.7387   12.1451   44.3924 N   0  0  0  0  0  0  0  0  0  0  0  0
    3.8129   17.5136   36.4741 C   0  0  0  0  0  0  0  0  0  0  0  0
    0.5010   15.5404   38.3896 C   0  0  2  0  0  0  0  0  0  0  0  0
   -3.0535   10.6202   42.3718 C   0  0  1  0  0  0  0  0  0  0  0  0
   -4.3916   10.3009   42.6984 O   0  0  0  0  0  0  0  0  0  0  0  0
    2.7137   17.0908   35.8036 C   0  0  1  0  0  0  0  0  0  0  0  0
    2.1569   15.7880   35.9547 O   0  0  0  0  0  0  0  0  0  0  0  0
    0.0228   14.4192   39.4034 C   0  0  2  0  0  0  0  0  0  0  0  0
    0.3975   13.1233   38.8928 O   0  0  0  0  0  0  0  0  0  0  0  0
   -2.9100   10.5699   40.8211 C   0  0  0  0  0  0  0  0  0  0  0  0
   -3.6878   11.7123   40.1910 O   0  0  0  0  0  0  0  0  0  0  0  0
    1.9635   17.9652   34.8274 C   0  0  0  0  0  0  0  0  0  0  0  0
    1.6635   17.1397   33.6814 O   0  0  0  0  0  0  0  0  0  0  0  0
   -1.5468   14.4807   39.5366 C   0  0  1  0  0  0  0  0  0  0  0  0
   -1.9459   13.4832   40.4435 O   0  0  0  0  0  0  0  0  0  0  0  0
   -2.2253    9.4556   42.9302 C   0  0  0  0  0  0  0  0  0  0  0  0
   -1.4825   12.2362   45.1652 C   0  0  0  0  0  0  0  0  0  0  0  0
  1  2  1  1  0  0  0
  1  6  1  0  0  0  0
  1 21  1  0  0  0  0
  3  4  1  6  0  0  0
  3  8  1  0  0  0  0
  3 28  1  0  0  0  0
  5  9  1  0  0  0  0
  5 25  1  0  0  0  0
  5 29  1  1  0  0  0
  6  7  1  1  0  0  0
  6 11  1  0  0  0  0
  8 12  1  0  0  0  0
  9 10  1  1  0  0  0
  9 14  1  0  0  0  0
 11 16  1  0  0  0  0
 12 13  1  6  0  0  0
 12 17  1  0  0  0  0
 14 15  1  1  0  0  0
 14 18  1  0  0  0  0
 15 31  1  0  0  0  0
 16 20  1  0  0  0  0
 17  2  1  1  0  0  0
 17 22  1  0  0  0  0
 18 19  1  1  0  0  0
 18 24  1  0  0  0  0
 18 30  1  0  0  0  0
 20 21  1  0  0  0  0
 20 26  1  1  0  0  0
 22 23  1  6  0  0  0
 22 28  1  0  0  0  0
 24 25  1  0  0  0  0
 26 27  1  0  0  0  0
 28 29  1  1  0  0  0
M  END
>  <CHROM.1>
-178.00907129,-128.10087006,-128.73458107,-133.96081167,136.57527993,70.27674117
-0.40619897,14.38437655,39.53455849,-0.90142832,-0.33683867,2.49642408

>  <Name>
ligand

>  <RI>
0

>  <Rbt.Current_Directory>
/home/itssahil/PROJECTS/Mol_Feturizer/New_Systems/rnas/4GPY

>  <Rbt.Executable>
rbdock ($Id: //depot/dev/client3/rdock/2013.1/src/exe/rbdock.cxx#4 $)

>  <Rbt.Library>
libRbt.so (2013.1, Build901 2013/11/27)

>  <Rbt.Parameter_File>
/export/apps/rDock/src/rDock_2013.1_src/data/scripts/dock_solv.prm

>  <Rbt.Receptor>
prm/pocket_docking_4.prm

>  <SCORE>
-9.20569

>  <SCORE.INTER>
-11.6142

>  <SCORE.INTER.CONST>
1

>  <SCORE.INTER.POLAR>
0

>  <SCORE.INTER.ROT>
6

>  <SCORE.INTER.SOLV>
18.1412

>  <SCORE.INTER.VDW>
-21.3899

>  <SCORE.INTER.norm>
-0.374653

>  <SCORE.INTRA>
2.40853

>  <SCORE.INTRA.DIHEDRAL>
2.15372

>  <SCORE.INTRA.DIHEDRAL.0>
14.7001

>  <SCORE.INTRA.POLAR>
0

>  <SCORE.INTRA.POLAR.0>
0

>  <SCORE.INTRA.REPUL>
0

>  <SCORE.INTRA.REPUL.0>
0

>  <SCORE.INTRA.SOLV>
2.33408

>  <SCORE.INTRA.SOLV.lig_0>
-65.3082

>  <SCORE.INTRA.VDW>
0.164633

>  <SCORE.INTRA.VDW.0>
-4.21408

>  <SCORE.INTRA.norm>
0.0776947

>  <SCORE.RESTR>
0

>  <SCORE.RESTR.CAVITY>
0

>  <SCORE.RESTR.norm>
0

>  <SCORE.SYSTEM>
0

>  <SCORE.SYSTEM.CONST>
0

>  <SCORE.SYSTEM.DIHEDRAL>
0

>  <SCORE.SYSTEM.SOLV>
0

>  <SCORE.SYSTEM.norm>
0

>  <SCORE.heavy>
31

>  <SCORE.norm>
-0.296958

>  <RMSD>
2.165

$$$$
ligand
 OpenBabel11021811493D
libRbt.so/2013.1/901 2013/11/27
 31 33  0  0  0  0  0  0  0  0999 V2000
    1.3243   17.2112   37.6420 C   0  0  2  0  0  0  0  0  0  0  0  0
    0.8450   15.8926   37.8235 O   0  0  0  0  0  0  0  0  0  0  0  0
   -2.4845   14.5821   40.1163 C   0  0  2  0  0  0  0  0  0  0  0  0
   -3.8359   14.3454   40.4968 N   0  0  0  0  0  0  0  0  0  0  0  0
   -3.6123   11.7321   38.6769 C   0  0  2  0  0  0  0  0  0  0  0  0
    1.1941   17.5769   36.1001 C   0  0  2  0  0  0  0  0  0  0  0  0
   -0.1999   17.4399   35.6917 N   0  0  0  0  0  0  0  0  0  0  0  0
   -2.2907   16.1512   39.9164 C   0  0  0  0  0  0  0  0  0  0  0  0
   -3.9364   10.9515   39.9948 C   0  0  2  0  0  0  0  0  0  0  0  0
   -3.9998   11.8731   41.0626 O   0  0  0  0  0  0  0  0  0  0  0  0
    2.1319   16.6587   35.2331 C   0  0  0  0  0  0  0  0  0  0  0  0
   -0.7834   16.4154   39.5092 C   0  0  2  0  0  0  0  0  0  0  0  0
   -0.5846   17.8542   39.3299 N   0  0  0  0  0  0  0  0  0  0  0  0
   -2.8022    9.8904   40.2378 C   0  0  1  0  0  0  0  0  0  0  0  0
   -3.0793    9.1378   41.5033 N   0  0  0  0  0  0  0  0  0  0  0  0
    3.5308   16.4123   35.9390 C   0  0  0  0  0  0  0  0  0  0  0  0
   -0.4759   15.6529   38.1561 C   0  0  2  0  0  0  0  0  0  0  0  0
   -2.7795    8.8506   38.9863 C   0  0  1  0  0  0  0  0  0  0  0  0
   -3.9966    8.1497   38.8228 O   0  0  0  0  0  0  0  0  0  0  0  0
    3.7279   16.7379   37.2396 C   0  0  1  0  0  0  0  0  0  0  0  0
    2.7202   17.3181   38.0631 O   0  0  0  0  0  0  0  0  0  0  0  0
   -0.6949   14.0957   38.3585 C   0  0  2  0  0  0  0  0  0  0  0  0
   -0.4269   13.4112   37.1176 O   0  0  0  0  0  0  0  0  0  0  0  0
   -2.4965    9.6392   37.6726 C   0  0  0  0  0  0  0  0  0  0  0  0
   -3.5077   10.7613   37.5132 O   0  0  0  0  0  0  0  0  0  0  0  0
    5.0413   16.5129   37.9500 C   0  0  0  0  0  0  0  0  0  0  0  0
    5.3047   15.0945   37.8891 O   0  0  0  0  0  0  0  0  0  0  0  0
   -2.1941   13.8359   38.7709 C   0  0  1  0  0  0  0  0  0  0  0  0
   -2.3622   12.4515   38.9503 O   0  0  0  0  0  0  0  0  0  0  0  0
   -1.7079    7.7572   39.0849 C   0  0  0  0  0  0  0  0  0  0  0  0
   -2.5350    9.7243   42.7455 C   0  0  0  0  0  0  0  0  0  0  0  0
  1  2  1  6  0  0  0
  1  6  1  0  0  0  0
  1 21  1  0  0  0  0
  3  4  1  6  0  0  0
  3  8  1  0  0  0  0
  3 28  1  0  0  0  0
  5  9  1  0  0  0  0
  5 25  1  0  0  0  0
  5 29  1  1  0  0  0
  6  7  1  6  0  0  0
  6 11  1  0  0  0  0
  8 12  1  0  0  0  0
  9 10  1  1  0  0  0
  9 14  1  0  0  0  0
 11 16  1  0  0  0  0
 12 13  1  6  0  0  0
 12 17  1  0  0  0  0
 14 15  1  1  0  0  0
 14 18  1  0  0  0  0
 15 31  1  0  0  0  0
 16 20  1  0  0  0  0
 17  2  1  1  0  0  0
 17 22  1  0  0  0  0
 18 19  1  6  0  0  0
 18 24  1  0  0  0  0
 18 30  1  0  0  0  0
 20 21  1  0  0  0  0
 20 26  1  1  0  0  0
 22 23  1  6  0  0  0
 22 28  1  0  0  0  0
 24 25  1  0  0  0  0
 26 27  1  0  0  0  0
 28 29  1  1  0  0  0
M  END
>  <CHROM.1>
-92.42022649,-126.49588043,-88.57490968,-57.98478620,-59.84203470,93.41164059
-0.79324731,13.64155141,38.60107278,0.82680058,0.45325203,0.01971419

>  <Name>
ligand

>  <RI>
0

>  <Rbt.Current_Directory>
/home/itssahil/PROJECTS/Mol_Feturizer/New_Systems/rnas/4GPY

>  <Rbt.Executable>
rbdock ($Id: //depot/dev/client3/rdock/2013.1/src/exe/rbdock.cxx#4 $)

>  <Rbt.Library>
libRbt.so (2013.1, Build901 2013/11/27)

>  <Rbt.Parameter_File>
/export/apps/rDock/src/rDock_2013.1_src/data/scripts/dock_solv.prm

>  <Rbt.Receptor>
prm/pocket_docking_2.prm

>  <SCORE>
-1.65899

>  <SCORE.INTER>
-8.63365

>  <SCORE.INTER.CONST>
1

>  <SCORE.INTER.POLAR>
0

>  <SCORE.INTER.ROT>
6

>  <SCORE.INTER.SOLV>
27.7243

>  <SCORE.INTER.VDW>
-22.5972

>  <SCORE.INTER.norm>
-0.278505

>  <SCORE.INTRA>
6.56707

>  <SCORE.INTRA.DIHEDRAL>
4.76351

>  <SCORE.INTRA.DIHEDRAL.0>
14.7001

>  <SCORE.INTRA.POLAR>
0

>  <SCORE.INTRA.POLAR.0>
0

>  <SCORE.INTRA.REPUL>
0

>  <SCORE.INTRA.REPUL.0>
0

>  <SCORE.INTRA.SOLV>
2.99473

>  <SCORE.INTRA.SOLV.lig_0>
-65.3082

>  <SCORE.INTRA.VDW>
2.68794

>  <SCORE.INTRA.VDW.0>
-4.21408

>  <SCORE.INTRA.norm>
0.211841

>  <SCORE.RESTR>
0.407584

>  <SCORE.RESTR.CAVITY>
0.407584

>  <SCORE.RESTR.norm>
0.0131479

>  <SCORE.SYSTEM>
0

>  <SCORE.SYSTEM.CONST>
0

>  <SCORE.SYSTEM.DIHEDRAL>
0

>  <SCORE.SYSTEM.SOLV>
0

>  <SCORE.SYSTEM.norm>
0

>  <SCORE.heavy>
31

>  <SCORE.norm>
-0.0535159

>  <RMSD>
2.195

$$$$
ligand
 OpenBabel11021811493D
libRbt.so/2013.1/901 2013/11/27
 31 33  0  0  0  0  0  0  0  0999 V2000
    2.6548   15.2246   36.8096 C   0  0  2  0  0  0  0  0  0  0  0  0
    1.8348   15.6372   37.8861 O   0  0  0  0  0  0  0  0  0  0  0  0
   -1.8072   14.1273   39.4723 C   0  0  2  0  0  0  0  0  0  0  0  0
   -3.1862   13.7852   39.5623 N   0  0  0  0  0  0  0  0  0  0  0  0
   -2.4428   11.1624   38.1712 C   0  0  2  0  0  0  0  0  0  0  0  0
    4.1638   15.5630   37.1794 C   0  0  2  0  0  0  0  0  0  0  0  0
    4.5143   14.8883   38.4246 N   0  0  0  0  0  0  0  0  0  0  0  0
   -1.6987   15.6978   39.2241 C   0  0  0  0  0  0  0  0  0  0  0  0
   -2.0401    9.6870   38.5065 C   0  0  2  0  0  0  0  0  0  0  0  0
   -1.6259    9.6263   39.8548 O   0  0  0  0  0  0  0  0  0  0  0  0
    4.3679   17.1179   37.2998 C   0  0  0  0  0  0  0  0  0  0  0  0
   -0.1643   16.0804   39.1405 C   0  0  2  0  0  0  0  0  0  0  0  0
   -0.0453   17.5225   38.9214 N   0  0  0  0  0  0  0  0  0  0  0  0
   -0.8748    9.2567   37.5430 C   0  0  1  0  0  0  0  0  0  0  0  0
   -0.4583    7.8513   37.8525 N   0  0  0  0  0  0  0  0  0  0  0  0
    3.5633   17.9059   36.1829 C   0  0  0  0  0  0  0  0  0  0  0  0
    0.4963   15.2928   37.9362 C   0  0  2  0  0  0  0  0  0  0  0  0
   -1.4075    9.3352   36.0074 C   0  0  1  0  0  0  0  0  0  0  0  0
   -2.5093    8.4853   35.7563 O   0  0  0  0  0  0  0  0  0  0  0  0
    2.6184   17.2895   35.4320 C   0  0  1  0  0  0  0  0  0  0  0  0
    2.2776   15.9136   35.5765 O   0  0  0  0  0  0  0  0  0  0  0  0
    0.3618   13.7320   38.1806 C   0  0  2  0  0  0  0  0  0  0  0  0
    0.9530   13.0231   37.0724 O   0  0  0  0  0  0  0  0  0  0  0  0
   -1.8443   10.7974   35.6928 C   0  0  0  0  0  0  0  0  0  0  0  0
   -2.8651   11.2652   36.7156 O   0  0  0  0  0  0  0  0  0  0  0  0
    1.8257   18.0053   34.3644 C   0  0  0  0  0  0  0  0  0  0  0  0
    0.6184   18.4813   34.9975 O   0  0  0  0  0  0  0  0  0  0  0  0
   -1.1661   13.3547   38.2709 C   0  0  1  0  0  0  0  0  0  0  0  0
   -1.2597   11.9695   38.4934 O   0  0  0  0  0  0  0  0  0  0  0  0
   -0.3652    8.9482   34.9502 C   0  0  0  0  0  0  0  0  0  0  0  0
    0.5886    7.6914   38.8829 C   0  0  0  0  0  0  0  0  0  0  0  0
  1  2  1  1  0  0  0
  1  6  1  0  0  0  0
  1 21  1  0  0  0  0
  3  4  1  6  0  0  0
  3  8  1  0  0  0  0
  3 28  1  0  0  0  0
  5  9  1  0  0  0  0
  5 25  1  0  0  0  0
  5 29  1  6  0  0  0
  6  7  1  1  0  0  0
  6 11  1  0  0  0  0
  8 12  1  0  0  0  0
  9 10  1  1  0  0  0
  9 14  1  0  0  0  0
 11 16  1  0  0  0  0
 12 13  1  6  0  0  0
 12 17  1  0  0  0  0
 14 15  1  1  0  0  0
 14 18  1  0  0  0  0
 15 31  1  0  0  0  0
 16 20  1  0  0  0  0
 17  2  1  1  0  0  0
 17 22  1  0  0  0  0
 18 19  1  6  0  0  0
 18 24  1  0  0  0  0
 18 30  1  0  0  0  0
 20 21  1  0  0  0  0
 20 26  1  1  0  0  0
 22 23  1  6  0  0  0
 22 28  1  0  0  0  0
 24 25  1  0  0  0  0
 26 27  1  0  0  0  0
 28 29  1  1  0  0  0
M  END
>  <CHROM.1>
-170.32532253,176.43215370,-88.55021317,-171.89670712,-92.52266769,84.15188670
0.15332619,13.35326165,37.40976789,-1.00797744,-0.55398690,-2.93492360

>  <Name>
ligand

>  <RI>
0

>  <Rbt.Current_Directory>
/home/itssahil/PROJECTS/Mol_Feturizer/New_Systems/rnas/4GPY

>  <Rbt.Executable>
rbdock ($Id: //depot/dev/client3/rdock/2013.1/src/exe/rbdock.cxx#4 $)

>  <Rbt.Library>
libRbt.so (2013.1, Build901 2013/11/27)

>  <Rbt.Parameter_File>
/export/apps/rDock/src/rDock_2013.1_src/data/scripts/dock_solv.prm

>  <Rbt.Receptor>
prm/pocket_docking_4.prm

>  <SCORE>
-12.8945

>  <SCORE.INTER>
-8.9015

>  <SCORE.INTER.CONST>
1

>  <SCORE.INTER.POLAR>
0

>  <SCORE.INTER.ROT>
6

>  <SCORE.INTER.SOLV>
16.1182

>  <SCORE.INTER.VDW>
-18.9071

>  <SCORE.INTER.norm>
-0.287145

>  <SCORE.INTRA>
-3.99304

>  <SCORE.INTRA.DIHEDRAL>
-8.27766

>  <SCORE.INTRA.DIHEDRAL.0>
14.7001

>  <SCORE.INTRA.POLAR>
0

>  <SCORE.INTRA.POLAR.0>
0

>  <SCORE.INTRA.REPUL>
0

>  <SCORE.INTRA.REPUL.0>
0

>  <SCORE.INTRA.SOLV>
-1.43656

>  <SCORE.INTRA.SOLV.lig_0>
-65.3082

>  <SCORE.INTRA.VDW>
0.864066

>  <SCORE.INTRA.VDW.0>
-4.21408

>  <SCORE.INTRA.norm>
-0.128808

>  <SCORE.RESTR>
0

>  <SCORE.RESTR.CAVITY>
0

>  <SCORE.RESTR.norm>
0

>  <SCORE.SYSTEM>
0

>  <SCORE.SYSTEM.CONST>
0

>  <SCORE.SYSTEM.DIHEDRAL>
0

>  <SCORE.SYSTEM.SOLV>
0

>  <SCORE.SYSTEM.norm>
0

>  <SCORE.heavy>
31

>  <SCORE.norm>
-0.415953

>  <RMSD>
2.216

$$$$
ligand
 OpenBabel11021811493D
libRbt.so/2013.1/901 2013/11/27
 31 33  0  0  0  0  0  0  0  0999 V2000
    1.5367   16.7872   38.0009 C   0  0  2  0  0  0  0  0  0  0  0  0
    0.5150   15.9868   37.4380 O   0  0  0  0  0  0  0  0  0  0  0  0
   -2.3820   15.2003   40.4461 C   0  0  2  0  0  0  0  0  0  0  0  0
   -3.6461   15.1168   41.0956 N   0  0  0  0  0  0  0  0  0  0  0  0
   -3.8149   12.1868   39.1752 C   0  0  2  0  0  0  0  0  0  0  0  0
    2.1828   17.6557   36.8363 C   0  0  2  0  0  0  0  0  0  0  0  0
    1.1420   18.4603   36.2054 N   0  0  0  0  0  0  0  0  0  0  0  0
   -2.1345   16.7189   40.0310 C   0  0  0  0  0  0  0  0  0  0  0  0
   -4.0339   11.1861   40.3592 C   0  0  2  0  0  0  0  0  0  0  0  0
   -4.1378   11.9216   41.5598 O   0  0  0  0  0  0  0  0  0  0  0  0
    2.8973   16.7280   35.7862 C   0  0  0  0  0  0  0  0  0  0  0  0
   -0.7211   16.8141   39.3232 C   0  0  2  0  0  0  0  0  0  0  0  0
   -0.4728   18.2052   38.9426 N   0  0  0  0  0  0  0  0  0  0  0  0
   -2.8110   10.1996   40.4112 C   0  0  1  0  0  0  0  0  0  0  0  0
   -2.9870    9.2385   41.5469 N   0  0  0  0  0  0  0  0  0  0  0  0
    3.6643   15.5286   36.4856 C   0  0  0  0  0  0  0  0  0  0  0  0
   -0.7287   15.8928   38.0355 C   0  0  2  0  0  0  0  0  0  0  0  0
   -2.7439    9.3729   39.0111 C   0  0  1  0  0  0  0  0  0  0  0  0
   -3.9051    8.6059   38.7613 O   0  0  0  0  0  0  0  0  0  0  0  0
    3.4595   15.2309   37.7917 C   0  0  1  0  0  0  0  0  0  0  0  0
    2.5615   15.9544   38.6285 O   0  0  0  0  0  0  0  0  0  0  0  0
   -0.9997   14.3885   38.4563 C   0  0  2  0  0  0  0  0  0  0  0  0
   -1.0194   13.5594   37.2763 O   0  0  0  0  0  0  0  0  0  0  0  0
   -2.5662   10.3774   37.8333 C   0  0  0  0  0  0  0  0  0  0  0  0
   -3.6690   11.4213   37.8712 O   0  0  0  0  0  0  0  0  0  0  0  0
    4.1639   14.0937   38.4924 C   0  0  0  0  0  0  0  0  0  0  0  0
    3.1886   13.0410   38.6517 O   0  0  0  0  0  0  0  0  0  0  0  0
   -2.4038   14.2975   39.1672 C   0  0  1  0  0  0  0  0  0  0  0  0
   -2.6188   12.9577   39.5358 O   0  0  0  0  0  0  0  0  0  0  0  0
   -1.5851    8.3718   38.9166 C   0  0  0  0  0  0  0  0  0  0  0  0
   -2.4617    9.6724   42.8581 C   0  0  0  0  0  0  0  0  0  0  0  0
  1  2  1  6  0  0  0
  1  6  1  0  0  0  0
  1 21  1  0  0  0  0
  3  4  1  6  0  0  0
  3  8  1  0  0  0  0
  3 28  1  0  0  0  0
  5  9  1  0  0  0  0
  5 25  1  0  0  0  0
  5 29  1  1  0  0  0
  6  7  1  6  0  0  0
  6 11  1  0  0  0  0
  8 12  1  0  0  0  0
  9 10  1  1  0  0  0
  9 14  1  0  0  0  0
 11 16  1  0  0  0  0
 12 13  1  6  0  0  0
 12 17  1  0  0  0  0
 14 15  1  1  0  0  0
 14 18  1  0  0  0  0
 15 31  1  0  0  0  0
 16 20  1  0  0  0  0
 17  2  1  1  0  0  0
 17 22  1  0  0  0  0
 18 19  1  6  0  0  0
 18 24  1  0  0  0  0
 18 30  1  0  0  0  0
 20 21  1  0  0  0  0
 20 26  1  6  0  0  0
 22 23  1  6  0  0  0
 22 28  1  0  0  0  0
 24 25  1  0  0  0  0
 26 27  1  0  0  0  0
 28 29  1  1  0  0  0
M  END
>  <CHROM.1>
-133.31770449,-148.45414206,-88.15497209,1.02429544,-105.40719356,114.68986928
-0.85948652,13.66459826,38.87068061,0.83202324,0.43035653,-0.02986606

>  <Name>
ligand

>  <RI>
0

>  <Rbt.Current_Directory>
/home/itssahil/PROJECTS/Mol_Feturizer/New_Systems/rnas/4GPY

>  <Rbt.Executable>
rbdock ($Id: //depot/dev/client3/rdock/2013.1/src/exe/rbdock.cxx#4 $)

>  <Rbt.Library>
libRbt.so (2013.1, Build901 2013/11/27)

>  <Rbt.Parameter_File>
/export/apps/rDock/src/rDock_2013.1_src/data/scripts/dock_solv.prm

>  <Rbt.Receptor>
prm/pocket_docking_2.prm

>  <SCORE>
3.5921

>  <SCORE.INTER>
-8.75808

>  <SCORE.INTER.CONST>
1

>  <SCORE.INTER.POLAR>
0

>  <SCORE.INTER.ROT>
6

>  <SCORE.INTER.SOLV>
20.7301

>  <SCORE.INTER.VDW>
-20.3488

>  <SCORE.INTER.norm>
-0.282519

>  <SCORE.INTRA>
11.8571

>  <SCORE.INTRA.DIHEDRAL>
12.2878

>  <SCORE.INTRA.DIHEDRAL.0>
14.7001

>  <SCORE.INTRA.POLAR>
0

>  <SCORE.INTRA.POLAR.0>
0

>  <SCORE.INTRA.REPUL>
0

>  <SCORE.INTRA.REPUL.0>
0

>  <SCORE.INTRA.SOLV>
2.33689

>  <SCORE.INTRA.SOLV.lig_0>
-65.3082

>  <SCORE.INTRA.VDW>
4.5448

>  <SCORE.INTRA.VDW.0>
-4.21408

>  <SCORE.INTRA.norm>
0.382489

>  <SCORE.RESTR>
0.493039

>  <SCORE.RESTR.CAVITY>
0.493039

>  <SCORE.RESTR.norm>
0.0159045

>  <SCORE.SYSTEM>
0

>  <SCORE.SYSTEM.CONST>
0

>  <SCORE.SYSTEM.DIHEDRAL>
0

>  <SCORE.SYSTEM.SOLV>
0

>  <SCORE.SYSTEM.norm>
0

>  <SCORE.heavy>
31

>  <SCORE.norm>
0.115874

>  <RMSD>
2.302

$$$$
ligand
 OpenBabel11021811493D
libRbt.so/2013.1/901 2013/11/27
 31 33  0  0  0  0  0  0  0  0999 V2000
    1.5206   16.7971   38.0157 C   0  0  2  0  0  0  0  0  0  0  0  0
    0.5419   15.9951   37.3830 O   0  0  0  0  0  0  0  0  0  0  0  0
   -2.2697   14.6871   40.2889 C   0  0  2  0  0  0  0  0  0  0  0  0
   -3.5183   14.4624   40.9350 N   0  0  0  0  0  0  0  0  0  0  0  0
   -3.6649   11.8415   38.7996 C   0  0  2  0  0  0  0  0  0  0  0  0
    2.2022   17.7116   36.9080 C   0  0  2  0  0  0  0  0  0  0  0  0
    1.1759   18.5152   36.2527 N   0  0  0  0  0  0  0  0  0  0  0  0
   -2.0922   16.2569   40.0799 C   0  0  0  0  0  0  0  0  0  0  0  0
   -3.9594   11.0091   40.0924 C   0  0  2  0  0  0  0  0  0  0  0  0
   -4.0331   11.8917   41.1919 O   0  0  0  0  0  0  0  0  0  0  0  0
    2.9825   16.8287   35.8659 C   0  0  0  0  0  0  0  0  0  0  0  0
   -0.6960   16.5074   39.3760 C   0  0  2  0  0  0  0  0  0  0  0  0
   -0.5118   17.9465   39.1839 N   0  0  0  0  0  0  0  0  0  0  0  0
   -2.7998    9.9659   40.2889 C   0  0  1  0  0  0  0  0  0  0  0  0
   -3.0484    9.1641   41.5298 N   0  0  0  0  0  0  0  0  0  0  0  0
    3.7401   15.6235   36.5654 C   0  0  0  0  0  0  0  0  0  0  0  0
   -0.6868   15.7680   37.9759 C   0  0  2  0  0  0  0  0  0  0  0  0
   -2.7658    8.9705   39.0019 C   0  0  1  0  0  0  0  0  0  0  0  0
   -3.9686    8.2485   38.8247 O   0  0  0  0  0  0  0  0  0  0  0  0
    3.4814   15.2834   37.8515 C   0  0  1  0  0  0  0  0  0  0  0  0
    2.5317   15.9651   38.6661 O   0  0  0  0  0  0  0  0  0  0  0  0
   -0.8882   14.2104   38.1929 C   0  0  2  0  0  0  0  0  0  0  0  0
   -0.8931   13.5473   36.9120 O   0  0  0  0  0  0  0  0  0  0  0  0
   -2.5125    9.8099   37.7140 C   0  0  0  0  0  0  0  0  0  0  0  0
   -3.5497   10.9139   37.6021 O   0  0  0  0  0  0  0  0  0  0  0  0
    4.1751   14.1391   38.5511 C   0  0  0  0  0  0  0  0  0  0  0  0
    3.2066   13.0735   38.6574 O   0  0  0  0  0  0  0  0  0  0  0  0
   -2.2753   13.9641   38.9002 C   0  0  1  0  0  0  0  0  0  0  0  0
   -2.4284   12.5789   39.0870 O   0  0  0  0  0  0  0  0  0  0  0  0
   -1.6694    7.8986   39.0536 C   0  0  0  0  0  0  0  0  0  0  0  0
   -2.5082    9.7211   42.7873 C   0  0  0  0  0  0  0  0  0  0  0  0
  1  2  1  6  0  0  0
  1  6  1  0  0  0  0
  1 21  1  0  0  0  0
  3  4  1  6  0  0  0
  3  8  1  0  0  0  0
  3 28  1  0  0  0  0
  5  9  1  0  0  0  0
  5 25  1  0  0  0  0
  5 29  1  1  0  0  0
  6  7  1  6  0  0  0
  6 11  1  0  0  0  0
  8 12  1  0  0  0  0
  9 10  1  1  0  0  0
  9 14  1  0  0  0  0
 11 16  1  0  0  0  0
 12 13  1  6  0  0  0
 12 17  1  0  0  0  0
 14 15  1  1  0  0  0
 14 18  1  0  0  0  0
 15 31  1  0  0  0  0
 16 20  1  0  0  0  0
 17  2  1  1  0  0  0
 17 22  1  0  0  0  0
 18 19  1  6  0  0  0
 18 24  1  0  0  0  0
 18 30  1  0  0  0  0
 20 21  1  0  0  0  0
 20 26  1  6  0  0  0
 22 23  1  6  0  0  0
 22 28  1  0  0  0  0
 24 25  1  0  0  0  0
 26 27  1  0  0  0  0
 28 29  1  1  0  0  0
M  END
>  <CHROM.1>
-138.90450197,-129.31457089,-88.44244498,-1.33686255,-106.48046383,106.34789295
-0.81596021,13.47721048,38.79114488,0.85275008,0.42189682,-0.00347331

>  <Name>
ligand

>  <RI>
0

>  <Rbt.Current_Directory>
/home/itssahil/PROJECTS/Mol_Feturizer/New_Systems/rnas/4GPY

>  <Rbt.Executable>
rbdock ($Id: //depot/dev/client3/rdock/2013.1/src/exe/rbdock.cxx#4 $)

>  <Rbt.Library>
libRbt.so (2013.1, Build901 2013/11/27)

>  <Rbt.Parameter_File>
/export/apps/rDock/src/rDock_2013.1_src/data/scripts/dock_solv.prm

>  <Rbt.Receptor>
prm/pocket_docking_2.prm

>  <SCORE>
3.43018

>  <SCORE.INTER>
-10.0533

>  <SCORE.INTER.CONST>
1

>  <SCORE.INTER.POLAR>
0

>  <SCORE.INTER.ROT>
6

>  <SCORE.INTER.SOLV>
20.4749

>  <SCORE.INTER.VDW>
-21.1272

>  <SCORE.INTER.norm>
-0.324299

>  <SCORE.INTRA>
12.9364

>  <SCORE.INTRA.DIHEDRAL>
13.6208

>  <SCORE.INTRA.DIHEDRAL.0>
14.7001

>  <SCORE.INTRA.POLAR>
0

>  <SCORE.INTRA.POLAR.0>
0

>  <SCORE.INTRA.REPUL>
0

>  <SCORE.INTRA.REPUL.0>
0

>  <SCORE.INTRA.SOLV>
2.61799

>  <SCORE.INTRA.SOLV.lig_0>
-65.3082

>  <SCORE.INTRA.VDW>
4.81699

>  <SCORE.INTRA.VDW.0>
-4.21408

>  <SCORE.INTRA.norm>
0.417303

>  <SCORE.RESTR>
0.547052

>  <SCORE.RESTR.CAVITY>
0.547052

>  <SCORE.RESTR.norm>
0.0176469

>  <SCORE.SYSTEM>
0

>  <SCORE.SYSTEM.CONST>
0

>  <SCORE.SYSTEM.DIHEDRAL>
0

>  <SCORE.SYSTEM.SOLV>
0

>  <SCORE.SYSTEM.norm>
0

>  <SCORE.heavy>
31

>  <SCORE.norm>
0.110651

>  <RMSD>
2.326

$$$$
ligand
 OpenBabel11021811493D
libRbt.so/2013.1/901 2013/11/27
 31 33  0  0  0  0  0  0  0  0999 V2000
    1.3591   16.1433   37.3253 C   0  0  2  0  0  0  0  0  0  0  0  0
    1.0262   15.5204   38.5511 O   0  0  0  0  0  0  0  0  0  0  0  0
   -2.3706   14.5811   40.9258 C   0  0  2  0  0  0  0  0  0  0  0  0
   -3.7171   14.2731   41.2705 N   0  0  0  0  0  0  0  0  0  0  0  0
   -3.0266   11.4134   40.8684 C   0  0  2  0  0  0  0  0  0  0  0  0
    1.6584   15.0043   36.2570 C   0  0  2  0  0  0  0  0  0  0  0  0
    0.4865   14.1440   36.1335 N   0  0  0  0  0  0  0  0  0  0  0  0
   -2.3587   15.9821   40.1663 C   0  0  0  0  0  0  0  0  0  0  0  0
   -2.5128    9.9393   40.9872 C   0  0  2  0  0  0  0  0  0  0  0  0
   -1.5584    9.8750   42.0255 O   0  0  0  0  0  0  0  0  0  0  0  0
    2.9289   14.1758   36.6736 C   0  0  0  0  0  0  0  0  0  0  0  0
   -0.8590   16.3321   39.7976 C   0  0  2  0  0  0  0  0  0  0  0  0
   -0.8279   17.6216   39.1063 N   0  0  0  0  0  0  0  0  0  0  0  0
   -1.8738    9.5215   39.6129 C   0  0  1  0  0  0  0  0  0  0  0  0
   -1.3589    8.1175   39.7029 N   0  0  0  0  0  0  0  0  0  0  0  0
    4.0654   15.1036   37.2764 C   0  0  0  0  0  0  0  0  0  0  0  0
   -0.2838   15.1975   38.8547 C   0  0  2  0  0  0  0  0  0  0  0  0
   -3.0159    9.6036   38.4567 C   0  0  1  0  0  0  0  0  0  0  0  0
   -4.1150    8.7474   38.6980 O   0  0  0  0  0  0  0  0  0  0  0  0
    3.8113   16.3882   37.6253 C   0  0  1  0  0  0  0  0  0  0  0  0
    2.5330   17.0008   37.4813 O   0  0  0  0  0  0  0  0  0  0  0  0
   -0.3224   13.8042   39.6104 C   0  0  2  0  0  0  0  0  0  0  0  0
    0.1894   12.7750   38.7392 O   0  0  0  0  0  0  0  0  0  0  0  0
   -3.5515   11.0641   38.3711 C   0  0  0  0  0  0  0  0  0  0  0  0
   -4.0347   11.5202   39.7370 O   0  0  0  0  0  0  0  0  0  0  0  0
    4.8630   17.3014   38.2087 C   0  0  0  0  0  0  0  0  0  0  0  0
    5.1003   18.3350   37.2288 O   0  0  0  0  0  0  0  0  0  0  0  0
   -1.8153   13.4615   39.9828 C   0  0  1  0  0  0  0  0  0  0  0  0
   -1.8233   12.2270   40.6559 O   0  0  0  0  0  0  0  0  0  0  0  0
   -2.5284    9.2286   37.0511 C   0  0  0  0  0  0  0  0  0  0  0  0
    0.1041    7.9653   39.8449 C   0  0  0  0  0  0  0  0  0  0  0  0
  1  2  1  1  0  0  0
  1  6  1  0  0  0  0
  1 21  1  0  0  0  0
  3  4  1  6  0  0  0
  3  8  1  0  0  0  0
  3 28  1  0  0  0  0
  5  9  1  0  0  0  0
  5 25  1  0  0  0  0
  5 29  1  6  0  0  0
  6  7  1  1  0  0  0
  6 11  1  0  0  0  0
  8 12  1  0  0  0  0
  9 10  1  1  0  0  0
  9 14  1  0  0  0  0
 11 16  1  0  0  0  0
 12 13  1  6  0  0  0
 12 17  1  0  0  0  0
 14 15  1  1  0  0  0
 14 18  1  0  0  0  0
 15 31  1  0  0  0  0
 16 20  1  0  0  0  0
 17  2  1  1  0  0  0
 17 22  1  0  0  0  0
 18 19  1  1  0  0  0
 18 24  1  0  0  0  0
 18 30  1  0  0  0  0
 20 21  1  0  0  0  0
 20 26  1  1  0  0  0
 22 23  1  6  0  0  0
 22 28  1  0  0  0  0
 24 25  1  0  0  0  0
 26 27  1  0  0  0  0
 28 29  1  1  0  0  0
M  END
>  <CHROM.1>
-89.86671134,153.23793489,-103.48996375,-98.98368619,113.28339239,77.35013989
-0.43061958,13.28313277,38.94181451,0.77586799,0.51206387,0.15434992

>  <Name>
ligand

>  <RI>
0

>  <Rbt.Current_Directory>
/home/itssahil/PROJECTS/Mol_Feturizer/New_Systems/rnas/4GPY

>  <Rbt.Executable>
rbdock ($Id: //depot/dev/client3/rdock/2013.1/src/exe/rbdock.cxx#4 $)

>  <Rbt.Library>
libRbt.so (2013.1, Build901 2013/11/27)

>  <Rbt.Parameter_File>
/export/apps/rDock/src/rDock_2013.1_src/data/scripts/dock_solv.prm

>  <Rbt.Receptor>
prm/pocket_docking_6.prm

>  <SCORE>
-8.87275

>  <SCORE.INTER>
-10.4163

>  <SCORE.INTER.CONST>
1

>  <SCORE.INTER.POLAR>
0

>  <SCORE.INTER.ROT>
6

>  <SCORE.INTER.SOLV>
17.5613

>  <SCORE.INTER.VDW>
-20.398

>  <SCORE.INTER.norm>
-0.33601

>  <SCORE.INTRA>
1.54357

>  <SCORE.INTRA.DIHEDRAL>
1.2167

>  <SCORE.INTRA.DIHEDRAL.0>
14.7001

>  <SCORE.INTRA.POLAR>
0

>  <SCORE.INTRA.POLAR.0>
0

>  <SCORE.INTRA.REPUL>
0

>  <SCORE.INTRA.REPUL.0>
0

>  <SCORE.INTRA.SOLV>
1.68765

>  <SCORE.INTRA.SOLV.lig_0>
-65.3082

>  <SCORE.INTRA.VDW>
0.091394

>  <SCORE.INTRA.VDW.0>
-4.21408

>  <SCORE.INTRA.norm>
0.0497926

>  <SCORE.RESTR>
0

>  <SCORE.RESTR.CAVITY>
0

>  <SCORE.RESTR.norm>
0

>  <SCORE.SYSTEM>
0

>  <SCORE.SYSTEM.CONST>
0

>  <SCORE.SYSTEM.DIHEDRAL>
0

>  <SCORE.SYSTEM.SOLV>
0

>  <SCORE.SYSTEM.norm>
0

>  <SCORE.heavy>
31

>  <SCORE.norm>
-0.286218

>  <RMSD>
2.335

$$$$
ligand
 OpenBabel11021811493D
libRbt.so/2013.1/901 2013/11/27
 31 33  0  0  0  0  0  0  0  0999 V2000
    1.7426   16.8028   37.9445 C   0  0  2  0  0  0  0  0  0  0  0  0
    1.0476   15.8103   38.6746 O   0  0  0  0  0  0  0  0  0  0  0  0
   -2.8159   15.8160   40.4447 C   0  0  2  0  0  0  0  0  0  0  0  0
   -4.2347   15.8490   40.5576 N   0  0  0  0  0  0  0  0  0  0  0  0
   -4.0301   12.6379   39.9822 C   0  0  2  0  0  0  0  0  0  0  0  0
    1.3384   16.6641   36.4130 C   0  0  2  0  0  0  0  0  0  0  0  0
   -0.1083   16.8029   36.2853 N   0  0  0  0  0  0  0  0  0  0  0  0
   -2.3462   17.1332   39.6804 C   0  0  0  0  0  0  0  0  0  0  0  0
   -4.0584   11.4435   40.9941 C   0  0  2  0  0  0  0  0  0  0  0  0
   -4.0039   11.9611   42.3066 O   0  0  0  0  0  0  0  0  0  0  0  0
    1.8293   15.2863   35.8343 C   0  0  0  0  0  0  0  0  0  0  0  0
   -0.7668   17.1040   39.5695 C   0  0  2  0  0  0  0  0  0  0  0  0
   -0.3164   18.3122   38.8772 N   0  0  0  0  0  0  0  0  0  0  0  0
   -2.8218   10.5164   40.7062 C   0  0  1  0  0  0  0  0  0  0  0  0
   -2.8152    9.3711   41.6720 N   0  0  0  0  0  0  0  0  0  0  0  0
    3.2679   14.8982   36.3782 C   0  0  0  0  0  0  0  0  0  0  0  0
   -0.3331   15.8182   38.7537 C   0  0  2  0  0  0  0  0  0  0  0  0
   -2.9395    9.9411   39.1886 C   0  0  1  0  0  0  0  0  0  0  0  0
   -4.1095    9.1773   38.9720 O   0  0  0  0  0  0  0  0  0  0  0  0
    3.8275   15.5619   37.4188 C   0  0  1  0  0  0  0  0  0  0  0  0
    3.1879   16.6407   38.0948 O   0  0  0  0  0  0  0  0  0  0  0  0
   -0.8259   14.5144   39.5094 C   0  0  2  0  0  0  0  0  0  0  0  0
   -0.4394   13.3494   38.7520 O   0  0  0  0  0  0  0  0  0  0  0  0
   -2.9514   11.1362   38.1891 C   0  0  0  0  0  0  0  0  0  0  0  0
   -4.0573   12.1099   38.5581 O   0  0  0  0  0  0  0  0  0  0  0  0
    5.1906   15.2188   37.9707 C   0  0  0  0  0  0  0  0  0  0  0  0
    4.9788   14.2442   39.0148 O   0  0  0  0  0  0  0  0  0  0  0  0
   -2.3976   14.5493   39.6251 C   0  0  1  0  0  0  0  0  0  0  0  0
   -2.8098   13.3883   40.3027 O   0  0  0  0  0  0  0  0  0  0  0  0
   -1.7871    9.0215   38.7641 C   0  0  0  0  0  0  0  0  0  0  0  0
   -2.1414    9.6100   42.9652 C   0  0  0  0  0  0  0  0  0  0  0  0
  1  2  1  1  0  0  0
  1  6  1  0  0  0  0
  1 21  1  0  0  0  0
  3  4  1  6  0  0  0
  3  8  1  0  0  0  0
  3 28  1  0  0  0  0
  5  9  1  0  0  0  0
  5 25  1  0  0  0  0
  5 29  1  6  0  0  0
  6  7  1  1  0  0  0
  6 11  1  0  0  0  0
  8 12  1  0  0  0  0
  9 10  1  1  0  0  0
  9 14  1  0  0  0  0
 11 16  1  0  0  0  0
 12 13  1  6  0  0  0
 12 17  1  0  0  0  0
 14 15  1  1  0  0  0
 14 18  1  0  0  0  0
 15 31  1  0  0  0  0
 16 20  1  0  0  0  0
 17  2  1  1  0  0  0
 17 22  1  0  0  0  0
 18 19  1  6  0  0  0
 18 24  1  0  0  0  0
 18 30  1  0  0  0  0
 20 21  1  0  0  0  0
 20 26  1  1  0  0  0
 22 23  1  6  0  0  0
 22 28  1  0  0  0  0
 24 25  1  0  0  0  0
 26 27  1  0  0  0  0
 28 29  1  1  0  0  0
M  END
>  <CHROM.1>
-63.85468807,-179.99400571,-86.89310164,-66.27592624,-90.68107996,98.60361353
-0.84970647,13.85036979,39.12273357,0.72531483,0.36194260,-0.10487231

>  <Name>
ligand

>  <RI>
0

>  <Rbt.Current_Directory>
/home/itssahil/PROJECTS/Mol_Feturizer/New_Systems/rnas/4GPY

>  <Rbt.Executable>
rbdock ($Id: //depot/dev/client3/rdock/2013.1/src/exe/rbdock.cxx#4 $)

>  <Rbt.Library>
libRbt.so (2013.1, Build901 2013/11/27)

>  <Rbt.Parameter_File>
/export/apps/rDock/src/rDock_2013.1_src/data/scripts/dock_solv.prm

>  <Rbt.Receptor>
prm/pocket_docking_2.prm

>  <SCORE>
-3.78921

>  <SCORE.INTER>
-6.2004

>  <SCORE.INTER.CONST>
1

>  <SCORE.INTER.POLAR>
0

>  <SCORE.INTER.ROT>
6

>  <SCORE.INTER.SOLV>
24.5814

>  <SCORE.INTER.VDW>
-19.9274

>  <SCORE.INTER.norm>
-0.200013

>  <SCORE.INTRA>
0.69777

>  <SCORE.INTRA.DIHEDRAL>
-6.158

>  <SCORE.INTRA.DIHEDRAL.0>
14.7001

>  <SCORE.INTRA.POLAR>
0

>  <SCORE.INTRA.POLAR.0>
0

>  <SCORE.INTRA.REPUL>
0

>  <SCORE.INTRA.REPUL.0>
0

>  <SCORE.INTRA.SOLV>
3.23789

>  <SCORE.INTRA.SOLV.lig_0>
-65.3082

>  <SCORE.INTRA.VDW>
2.15782

>  <SCORE.INTRA.VDW.0>
-4.21408

>  <SCORE.INTRA.norm>
0.0225087

>  <SCORE.RESTR>
1.71342

>  <SCORE.RESTR.CAVITY>
1.71342

>  <SCORE.RESTR.norm>
0.0552716

>  <SCORE.SYSTEM>
0

>  <SCORE.SYSTEM.CONST>
0

>  <SCORE.SYSTEM.DIHEDRAL>
0

>  <SCORE.SYSTEM.SOLV>
0

>  <SCORE.SYSTEM.norm>
0

>  <SCORE.heavy>
31

>  <SCORE.norm>
-0.122233

>  <RMSD>
2.345

$$$$
ligand
 OpenBabel11021811493D
libRbt.so/2013.1/901 2013/11/27
 31 33  0  0  0  0  0  0  0  0999 V2000
    1.3306   17.5678   37.3779 C   0  0  2  0  0  0  0  0  0  0  0  0
    0.6154   16.4010   37.0193 O   0  0  0  0  0  0  0  0  0  0  0  0
   -1.5117   14.4862   40.1607 C   0  0  2  0  0  0  0  0  0  0  0  0
   -2.6027   14.0483   40.9637 N   0  0  0  0  0  0  0  0  0  0  0  0
   -2.6564   11.6296   38.1558 C   0  0  2  0  0  0  0  0  0  0  0  0
    1.6302   18.3915   36.0514 C   0  0  2  0  0  0  0  0  0  0  0  0
    0.3695   18.7046   35.3873 N   0  0  0  0  0  0  0  0  0  0  0  0
   -1.5415   16.0786   40.1053 C   0  0  0  0  0  0  0  0  0  0  0  0
   -3.4015   10.9547   39.3560 C   0  0  2  0  0  0  0  0  0  0  0  0
   -3.9117   11.9662   40.1984 O   0  0  0  0  0  0  0  0  0  0  0  0
    2.5858   17.5805   35.1010 C   0  0  0  0  0  0  0  0  0  0  0  0
   -0.3182   16.5658   39.2256 C   0  0  2  0  0  0  0  0  0  0  0  0
   -0.3246   18.0283   39.1709 N   0  0  0  0  0  0  0  0  0  0  0  0
   -2.3791   10.0449   40.1297 C   0  0  1  0  0  0  0  0  0  0  0  0
   -3.0626    9.3971   41.2949 N   0  0  0  0  0  0  0  0  0  0  0  0
    3.7189   16.8229   35.9122 C   0  0  0  0  0  0  0  0  0  0  0  0
   -0.4647   15.9682   37.7667 C   0  0  2  0  0  0  0  0  0  0  0  0
   -1.8312    8.8938   39.1183 C   0  0  1  0  0  0  0  0  0  0  0  0
   -2.8565    8.0590   38.6172 O   0  0  0  0  0  0  0  0  0  0  0  0
    3.6521   16.6962   37.2598 C   0  0  1  0  0  0  0  0  0  0  0  0
    2.5854   17.2227   38.0441 O   0  0  0  0  0  0  0  0  0  0  0  0
   -0.4584   14.3842   37.8350 C   0  0  2  0  0  0  0  0  0  0  0  0
   -0.6069   13.8489   36.5039 O   0  0  0  0  0  0  0  0  0  0  0  0
   -1.1262    9.5729   37.9061 C   0  0  0  0  0  0  0  0  0  0  0  0
   -2.0694   10.5640   37.2462 O   0  0  0  0  0  0  0  0  0  0  0  0
    4.7057   15.9768   38.0677 C   0  0  0  0  0  0  0  0  0  0  0  0
    4.1094   14.7398   38.5136 O   0  0  0  0  0  0  0  0  0  0  0  0
   -1.6725   13.9018   38.7172 C   0  0  1  0  0  0  0  0  0  0  0  0
   -1.6425   12.4970   38.7678 O   0  0  0  0  0  0  0  0  0  0  0  0
   -0.8111    7.9313   39.7402 C   0  0  0  0  0  0  0  0  0  0  0  0
   -2.8815   10.0529   42.6065 C   0  0  0  0  0  0  0  0  0  0  0  0
  1  2  1  6  0  0  0
  1  6  1  0  0  0  0
  1 21  1  0  0  0  0
  3  4  1  1  0  0  0
  3  8  1  0  0  0  0
  3 28  1  0  0  0  0
  5  9  1  0  0  0  0
  5 25  1  0  0  0  0
  5 29  1  1  0  0  0
  6  7  1  6  0  0  0
  6 11  1  0  0  0  0
  8 12  1  0  0  0  0
  9 10  1  1  0  0  0
  9 14  1  0  0  0  0
 11 16  1  0  0  0  0
 12 13  1  6  0  0  0
 12 17  1  0  0  0  0
 14 15  1  1  0  0  0
 14 18  1  0  0  0  0
 15 31  1  0  0  0  0
 16 20  1  0  0  0  0
 17  2  1  6  0  0  0
 17 22  1  0  0  0  0
 18 19  1  6  0  0  0
 18 24  1  0  0  0  0
 18 30  1  0  0  0  0
 20 21  1  0  0  0  0
 20 26  1  6  0  0  0
 22 23  1  6  0  0  0
 22 28  1  0  0  0  0
 24 25  1  0  0  0  0
 26 27  1  0  0  0  0
 28 29  1  1  0  0  0
M  END
>  <CHROM.1>
-137.44868700,-112.08236256,-97.54618570,-22.99503694,-108.30330286,128.63086337
-0.41188686,13.79475043,38.46112820,0.92634755,0.55358208,0.01670824

>  <Name>
ligand

>  <RI>
0

>  <Rbt.Current_Directory>
/home/itssahil/PROJECTS/Mol_Feturizer/New_Systems/rnas/4GPY

>  <Rbt.Executable>
rbdock ($Id: //depot/dev/client3/rdock/2013.1/src/exe/rbdock.cxx#4 $)

>  <Rbt.Library>
libRbt.so (2013.1, Build901 2013/11/27)

>  <Rbt.Parameter_File>
/export/apps/rDock/src/rDock_2013.1_src/data/scripts/dock_solv.prm

>  <Rbt.Receptor>
prm/pocket_docking_2.prm

>  <SCORE>
5.04604

>  <SCORE.INTER>
-7.70776

>  <SCORE.INTER.CONST>
1

>  <SCORE.INTER.POLAR>
0

>  <SCORE.INTER.ROT>
6

>  <SCORE.INTER.SOLV>
22.0689

>  <SCORE.INTER.VDW>
-20.0948

>  <SCORE.INTER.norm>
-0.248637

>  <SCORE.INTRA>
12.6603

>  <SCORE.INTRA.DIHEDRAL>
12.402

>  <SCORE.INTRA.DIHEDRAL.0>
14.7001

>  <SCORE.INTRA.POLAR>
0

>  <SCORE.INTRA.POLAR.0>
0

>  <SCORE.INTRA.REPUL>
0

>  <SCORE.INTRA.REPUL.0>
0

>  <SCORE.INTRA.SOLV>
2.50493

>  <SCORE.INTRA.SOLV.lig_0>
-65.3082

>  <SCORE.INTRA.VDW>
5.20685

>  <SCORE.INTRA.VDW.0>
-4.21408

>  <SCORE.INTRA.norm>
0.408397

>  <SCORE.RESTR>
0.0934903

>  <SCORE.RESTR.CAVITY>
0.0934903

>  <SCORE.RESTR.norm>
0.00301581

>  <SCORE.SYSTEM>
0

>  <SCORE.SYSTEM.CONST>
0

>  <SCORE.SYSTEM.DIHEDRAL>
0

>  <SCORE.SYSTEM.SOLV>
0

>  <SCORE.SYSTEM.norm>
0

>  <SCORE.heavy>
31

>  <SCORE.norm>
0.162775

>  <RMSD>
2.346

$$$$
ligand
 OpenBabel11021811493D
libRbt.so/2013.1/901 2013/11/27
 31 33  0  0  0  0  0  0  0  0999 V2000
    2.7482   15.5731   36.7157 C   0  0  2  0  0  0  0  0  0  0  0  0
    1.9638   16.0496   37.7922 O   0  0  0  0  0  0  0  0  0  0  0  0
   -1.6564   14.7998   39.6342 C   0  0  2  0  0  0  0  0  0  0  0  0
   -3.0317   14.4665   39.7896 N   0  0  0  0  0  0  0  0  0  0  0  0
   -0.3034   11.9744   40.1449 C   0  0  2  0  0  0  0  0  0  0  0  0
    4.2726   15.8930   37.0350 C   0  0  2  0  0  0  0  0  0  0  0  0
    4.6389   15.2643   38.2996 N   0  0  0  0  0  0  0  0  0  0  0  0
   -1.5636   16.3065   39.1234 C   0  0  0  0  0  0  0  0  0  0  0  0
   -0.6676   10.4533   40.2134 C   0  0  2  0  0  0  0  0  0  0  0  0
   -0.4024    9.8674   38.9565 O   0  0  0  0  0  0  0  0  0  0  0  0
    4.5130   17.4466   37.0833 C   0  0  0  0  0  0  0  0  0  0  0  0
   -0.0332   16.6821   38.9664 C   0  0  2  0  0  0  0  0  0  0  0  0
    0.0715   18.0673   38.5058 N   0  0  0  0  0  0  0  0  0  0  0  0
   -2.1900   10.3210   40.5826 C   0  0  1  0  0  0  0  0  0  0  0  0
   -2.5704    8.8731   40.6401 N   0  0  0  0  0  0  0  0  0  0  0  0
    3.6984   18.2041   35.9525 C   0  0  0  0  0  0  0  0  0  0  0  0
    0.6287   15.7076   37.9085 C   0  0  2  0  0  0  0  0  0  0  0  0
   -2.4375   11.0016   42.0399 C   0  0  1  0  0  0  0  0  0  0  0  0
   -1.6896   10.3918   43.0734 O   0  0  0  0  0  0  0  0  0  0  0  0
    2.7224   17.5776   35.2513 C   0  0  1  0  0  0  0  0  0  0  0  0
    2.3558   16.2171   35.4632 O   0  0  0  0  0  0  0  0  0  0  0  0
    0.5098   14.2096   38.4142 C   0  0  2  0  0  0  0  0  0  0  0  0
    1.1020   13.3284   37.4379 O   0  0  0  0  0  0  0  0  0  0  0  0
   -2.0353   12.5055   41.9758 C   0  0  0  0  0  0  0  0  0  0  0  0
   -0.6071   12.6395   41.4764 O   0  0  0  0  0  0  0  0  0  0  0  0
    1.9195   18.2648   34.1727 C   0  0  0  0  0  0  0  0  0  0  0  0
    0.7095   18.7410   34.8003 O   0  0  0  0  0  0  0  0  0  0  0  0
   -1.0141   13.8404   38.5767 C   0  0  1  0  0  0  0  0  0  0  0  0
   -1.0939   12.5121   39.0308 O   0  0  0  0  0  0  0  0  0  0  0  0
   -3.8914   10.9534   42.5275 C   0  0  0  0  0  0  0  0  0  0  0  0
   -2.9244    8.2384   39.3536 C   0  0  0  0  0  0  0  0  0  0  0  0
  1  2  1  1  0  0  0
  1  6  1  0  0  0  0
  1 21  1  0  0  0  0
  3  4  1  6  0  0  0
  3  8  1  0  0  0  0
  3 28  1  0  0  0  0
  5  9  1  0  0  0  0
  5 25  1  0  0  0  0
  5 29  1  6  0  0  0
  6  7  1  1  0  0  0
  6 11  1  0  0  0  0
  8 12  1  0  0  0  0
  9 10  1  6  0  0  0
  9 14  1  0  0  0  0
 11 16  1  0  0  0  0
 12 13  1  6  0  0  0
 12 17  1  0  0  0  0
 14 15  1  1  0  0  0
 14 18  1  0  0  0  0
 15 31  1  0  0  0  0
 16 20  1  0  0  0  0
 17  2  1  1  0  0  0
 17 22  1  0  0  0  0
 18 19  1  1  0  0  0
 18 24  1  0  0  0  0
 18 30  1  0  0  0  0
 20 21  1  0  0  0  0
 20 26  1  1  0  0  0
 22 23  1  6  0  0  0
 22 28  1  0  0  0  0
 24 25  1  0  0  0  0
 26 27  1  0  0  0  0
 28 29  1  1  0  0  0
M  END
>  <CHROM.1>
-168.52422956,-176.52921965,-84.21528053,-165.42817574,-95.09342110,-70.79440722
0.11402239,14.05212899,38.73247825,-0.95721688,-0.52993128,2.85915630

>  <Name>
ligand

>  <RI>
0

>  <Rbt.Current_Directory>
/home/itssahil/PROJECTS/Mol_Feturizer/New_Systems/rnas/4GPY

>  <Rbt.Executable>
rbdock ($Id: //depot/dev/client3/rdock/2013.1/src/exe/rbdock.cxx#4 $)

>  <Rbt.Library>
libRbt.so (2013.1, Build901 2013/11/27)

>  <Rbt.Parameter_File>
/export/apps/rDock/src/rDock_2013.1_src/data/scripts/dock_solv.prm

>  <Rbt.Receptor>
prm/pocket_docking_4.prm

>  <SCORE>
-15.4054

>  <SCORE.INTER>
-11.9437

>  <SCORE.INTER.CONST>
1

>  <SCORE.INTER.POLAR>
0

>  <SCORE.INTER.ROT>
6

>  <SCORE.INTER.SOLV>
18.7999

>  <SCORE.INTER.VDW>
-21.8291

>  <SCORE.INTER.norm>
-0.385282

>  <SCORE.INTRA>
-3.46164

>  <SCORE.INTRA.DIHEDRAL>
-9.63499

>  <SCORE.INTRA.DIHEDRAL.0>
14.7001

>  <SCORE.INTRA.POLAR>
0

>  <SCORE.INTRA.POLAR.0>
0

>  <SCORE.INTRA.REPUL>
0

>  <SCORE.INTRA.REPUL.0>
0

>  <SCORE.INTRA.SOLV>
0.52871

>  <SCORE.INTRA.SOLV.lig_0>
-65.3082

>  <SCORE.INTRA.VDW>
1.0915

>  <SCORE.INTRA.VDW.0>
-4.21408

>  <SCORE.INTRA.norm>
-0.111666

>  <SCORE.RESTR>
0

>  <SCORE.RESTR.CAVITY>
0

>  <SCORE.RESTR.norm>
0

>  <SCORE.SYSTEM>
0

>  <SCORE.SYSTEM.CONST>
0

>  <SCORE.SYSTEM.DIHEDRAL>
0

>  <SCORE.SYSTEM.SOLV>
0

>  <SCORE.SYSTEM.norm>
0

>  <SCORE.heavy>
31

>  <SCORE.norm>
-0.496947

>  <RMSD>
2.382

$$$$
ligand
 OpenBabel11021811493D
libRbt.so/2013.1/901 2013/11/27
 31 33  0  0  0  0  0  0  0  0999 V2000
    2.4666   15.7389   36.3158 C   0  0  2  0  0  0  0  0  0  0  0  0
    1.6155   16.1171   37.3807 O   0  0  0  0  0  0  0  0  0  0  0  0
   -1.7756   14.0759   38.9280 C   0  0  2  0  0  0  0  0  0  0  0  0
   -3.1133   13.6029   39.0442 N   0  0  0  0  0  0  0  0  0  0  0  0
   -0.0443   11.3488   38.2047 C   0  0  2  0  0  0  0  0  0  0  0  0
    3.9602   16.0999   36.7243 C   0  0  2  0  0  0  0  0  0  0  0  0
    4.2968   15.4108   37.9655 N   0  0  0  0  0  0  0  0  0  0  0  0
   -1.8100   15.6690   38.9121 C   0  0  0  0  0  0  0  0  0  0  0  0
   -0.5019    9.8571   38.0751 C   0  0  2  0  0  0  0  0  0  0  0  0
   -0.7625    9.5802   36.7155 O   0  0  0  0  0  0  0  0  0  0  0  0
    4.1312   17.6562   36.8753 C   0  0  0  0  0  0  0  0  0  0  0  0
   -0.3205   16.1948   38.7993 C   0  0  2  0  0  0  0  0  0  0  0  0
   -0.3322   17.6582   38.7922 N   0  0  0  0  0  0  0  0  0  0  0  0
   -1.7953    9.6547   38.9455 C   0  0  1  0  0  0  0  0  0  0  0  0
   -2.2650    8.2370   38.8277 N   0  0  0  0  0  0  0  0  0  0  0  0
    3.3356   18.4475   35.7542 C   0  0  0  0  0  0  0  0  0  0  0  0
    0.3154   15.6513   37.4550 C   0  0  2  0  0  0  0  0  0  0  0  0
   -1.4374    9.9766   40.4999 C   0  0  1  0  0  0  0  0  0  0  0  0
   -0.4296    9.1351   41.0249 O   0  0  0  0  0  0  0  0  0  0  0  0
    2.4195   17.8261   34.9725 C   0  0  1  0  0  0  0  0  0  0  0  0
    2.1027   16.4416   35.0864 O   0  0  0  0  0  0  0  0  0  0  0  0
    0.3229   14.0659   37.4701 C   0  0  2  0  0  0  0  0  0  0  0  0
    0.8901   13.5799   36.2362 O   0  0  0  0  0  0  0  0  0  0  0  0
   -0.9446   11.4501   40.6157 C   0  0  0  0  0  0  0  0  0  0  0  0
    0.2149   11.6855   39.6631 O   0  0  0  0  0  0  0  0  0  0  0  0
    1.6363   18.5447   33.8999 C   0  0  0  0  0  0  0  0  0  0  0  0
    1.2932   19.8398   34.4382 O   0  0  0  0  0  0  0  0  0  0  0  0
   -1.1601   13.5450   37.5898 C   0  0  1  0  0  0  0  0  0  0  0  0
   -1.1274   12.1394   37.6073 O   0  0  0  0  0  0  0  0  0  0  0  0
   -2.6168    9.8276   41.4699 C   0  0  0  0  0  0  0  0  0  0  0  0
   -1.2423    7.1902   39.0322 C   0  0  0  0  0  0  0  0  0  0  0  0
  1  2  1  1  0  0  0
  1  6  1  0  0  0  0
  1 21  1  0  0  0  0
  3  4  1  6  0  0  0
  3  8  1  0  0  0  0
  3 28  1  0  0  0  0
  5  9  1  0  0  0  0
  5 25  1  0  0  0  0
  5 29  1  1  0  0  0
  6  7  1  1  0  0  0
  6 11  1  0  0  0  0
  8 12  1  0  0  0  0
  9 10  1  6  0  0  0
  9 14  1  0  0  0  0
 11 16  1  0  0  0  0
 12 13  1  6  0  0  0
 12 17  1  0  0  0  0
 14 15  1  1  0  0  0
 14 18  1  0  0  0  0
 15 31  1  0  0  0  0
 16 20  1  0  0  0  0
 17  2  1  1  0  0  0
 17 22  1  0  0  0  0
 18 19  1  1  0  0  0
 18 24  1  0  0  0  0
 18 30  1  0  0  0  0
 20 21  1  0  0  0  0
 20 26  1  1  0  0  0
 22 23  1  6  0  0  0
 22 28  1  0  0  0  0
 24 25  1  0  0  0  0
 26 27  1  0  0  0  0
 28 29  1  1  0  0  0
M  END
>  <CHROM.1>
-164.69129407,175.89121869,49.32358027,176.76444039,-39.61626096,-85.26405790
0.23965990,13.73010621,37.83350600,-1.08363614,-0.58837612,3.00436629

>  <Name>
ligand

>  <RI>
0

>  <Rbt.Current_Directory>
/home/itssahil/PROJECTS/Mol_Feturizer/New_Systems/rnas/4GPY

>  <Rbt.Executable>
rbdock ($Id: //depot/dev/client3/rdock/2013.1/src/exe/rbdock.cxx#4 $)

>  <Rbt.Library>
libRbt.so (2013.1, Build901 2013/11/27)

>  <Rbt.Parameter_File>
/export/apps/rDock/src/rDock_2013.1_src/data/scripts/dock_solv.prm

>  <Rbt.Receptor>
prm/pocket_docking_3.prm

>  <SCORE>
-8.94992

>  <SCORE.INTER>
-9.67789

>  <SCORE.INTER.CONST>
1

>  <SCORE.INTER.POLAR>
0

>  <SCORE.INTER.ROT>
6

>  <SCORE.INTER.SOLV>
18.7314

>  <SCORE.INTER.VDW>
-20.2957

>  <SCORE.INTER.norm>
-0.31219

>  <SCORE.INTRA>
0.705234

>  <SCORE.INTRA.DIHEDRAL>
-7.55539

>  <SCORE.INTRA.DIHEDRAL.0>
14.7001

>  <SCORE.INTRA.POLAR>
0

>  <SCORE.INTRA.POLAR.0>
0

>  <SCORE.INTRA.REPUL>
0

>  <SCORE.INTRA.REPUL.0>
0

>  <SCORE.INTRA.SOLV>
-0.674323

>  <SCORE.INTRA.SOLV.lig_0>
-65.3082

>  <SCORE.INTRA.VDW>
4.82009

>  <SCORE.INTRA.VDW.0>
-4.21408

>  <SCORE.INTRA.norm>
0.0227495

>  <SCORE.RESTR>
0.0227388

>  <SCORE.RESTR.CAVITY>
0.0227388

>  <SCORE.RESTR.norm>
0.000733511

>  <SCORE.SYSTEM>
0

>  <SCORE.SYSTEM.CONST>
0

>  <SCORE.SYSTEM.DIHEDRAL>
0

>  <SCORE.SYSTEM.SOLV>
0

>  <SCORE.SYSTEM.norm>
0

>  <SCORE.heavy>
31

>  <SCORE.norm>
-0.288707

>  <RMSD>
2.428

$$$$
ligand
 OpenBabel11021811493D
libRbt.so/2013.1/901 2013/11/27
 31 33  0  0  0  0  0  0  0  0999 V2000
    2.8640   15.7717   36.6171 C   0  0  2  0  0  0  0  0  0  0  0  0
    2.0564   16.2169   37.6899 O   0  0  0  0  0  0  0  0  0  0  0  0
   -1.4556   14.7077   39.5469 C   0  0  2  0  0  0  0  0  0  0  0  0
   -2.8078   14.2947   39.7135 N   0  0  0  0  0  0  0  0  0  0  0  0
    0.1063   11.9293   39.8834 C   0  0  2  0  0  0  0  0  0  0  0  0
    4.3641   16.2075   36.9133 C   0  0  2  0  0  0  0  0  0  0  0  0
    4.7851   15.6376   38.1887 N   0  0  0  0  0  0  0  0  0  0  0  0
   -1.4537   16.2343   39.0896 C   0  0  0  0  0  0  0  0  0  0  0  0
   -0.1297   10.3819   39.8535 C   0  0  2  0  0  0  0  0  0  0  0  0
    0.1154    9.9120   38.5449 O   0  0  0  0  0  0  0  0  0  0  0  0
    4.4927   17.7751   36.9225 C   0  0  0  0  0  0  0  0  0  0  0  0
    0.0510   16.6980   38.9202 C   0  0  2  0  0  0  0  0  0  0  0  0
    0.0723   18.1022   38.5085 N   0  0  0  0  0  0  0  0  0  0  0  0
   -1.6149   10.0955   40.2821 C   0  0  1  0  0  0  0  0  0  0  0  0
   -1.8736    8.6202   40.2475 N   0  0  0  0  0  0  0  0  0  0  0  0
    3.6164   18.4445   35.7823 C   0  0  0  0  0  0  0  0  0  0  0  0
    0.7441   15.7989   37.8165 C   0  0  2  0  0  0  0  0  0  0  0  0
   -1.8396   10.6466   41.7966 C   0  0  1  0  0  0  0  0  0  0  0  0
   -0.9915   10.0297   42.7451 O   0  0  0  0  0  0  0  0  0  0  0  0
    2.6822   17.7330   35.1060 C   0  0  1  0  0  0  0  0  0  0  0  0
    2.4159   16.3553   35.3537 O   0  0  0  0  0  0  0  0  0  0  0  0
    0.7155   14.2797   38.2693 C   0  0  2  0  0  0  0  0  0  0  0  0
    1.3355   13.4670   37.2518 O   0  0  0  0  0  0  0  0  0  0  0  0
   -1.5640   12.1798   41.8279 C   0  0  0  0  0  0  0  0  0  0  0  0
   -0.1796   12.4694   41.2742 O   0  0  0  0  0  0  0  0  0  0  0  0
    1.8230   18.3345   34.0196 C   0  0  0  0  0  0  0  0  0  0  0  0
    2.2672   19.6980   33.8508 O   0  0  0  0  0  0  0  0  0  0  0  0
   -0.7830   13.8226   38.4444 C   0  0  1  0  0  0  0  0  0  0  0  0
   -0.7825   12.4767   38.8513 O   0  0  0  0  0  0  0  0  0  0  0  0
   -3.2571   10.4411   42.3463 C   0  0  0  0  0  0  0  0  0  0  0  0
   -2.9335    8.1637   39.3246 C   0  0  0  0  0  0  0  0  0  0  0  0
  1  2  1  1  0  0  0
  1  6  1  0  0  0  0
  1 21  1  0  0  0  0
  3  4  1  6  0  0  0
  3  8  1  0  0  0  0
  3 28  1  0  0  0  0
  5  9  1  0  0  0  0
  5 25  1  0  0  0  0
  5 29  1  6  0  0  0
  6  7  1  1  0  0  0
  6 11  1  0  0  0  0
  8 12  1  0  0  0  0
  9 10  1  6  0  0  0
  9 14  1  0  0  0  0
 11 16  1  0  0  0  0
 12 13  1  6  0  0  0
 12 17  1  0  0  0  0
 14 15  1  1  0  0  0
 14 18  1  0  0  0  0
 15 31  1  0  0  0  0
 16 20  1  0  0  0  0
 17  2  1  1  0  0  0
 17 22  1  0  0  0  0
 18 19  1  1  0  0  0
 18 24  1  0  0  0  0
 18 30  1  0  0  0  0
 20 21  1  0  0  0  0
 20 26  1  1  0  0  0
 22 23  1  6  0  0  0
 22 28  1  0  0  0  0
 24 25  1  0  0  0  0
 26 27  1  0  0  0  0
 28 29  1  1  0  0  0
M  END
>  <CHROM.1>
-169.50400793,-172.89217123,-119.42142069,-168.43462296,3.14145319,-74.11589693
0.41479817,14.07314663,38.53606517,-1.00528187,-0.57210894,2.88270032

>  <Name>
ligand

>  <RI>
0

>  <Rbt.Current_Directory>
/home/itssahil/PROJECTS/Mol_Feturizer/New_Systems/rnas/4GPY

>  <Rbt.Executable>
rbdock ($Id: //depot/dev/client3/rdock/2013.1/src/exe/rbdock.cxx#4 $)

>  <Rbt.Library>
libRbt.so (2013.1, Build901 2013/11/27)

>  <Rbt.Parameter_File>
/export/apps/rDock/src/rDock_2013.1_src/data/scripts/dock_solv.prm

>  <Rbt.Receptor>
prm/pocket_docking_5.prm

>  <SCORE>
-14.108

>  <SCORE.INTER>
-11.3792

>  <SCORE.INTER.CONST>
1

>  <SCORE.INTER.POLAR>
0

>  <SCORE.INTER.ROT>
6

>  <SCORE.INTER.SOLV>
18.801

>  <SCORE.INTER.VDW>
-21.4532

>  <SCORE.INTER.norm>
-0.367072

>  <SCORE.INTRA>
-2.72882

>  <SCORE.INTRA.DIHEDRAL>
-9.44387

>  <SCORE.INTRA.DIHEDRAL.0>
14.7001

>  <SCORE.INTRA.POLAR>
0

>  <SCORE.INTRA.POLAR.0>
0

>  <SCORE.INTRA.REPUL>
0

>  <SCORE.INTRA.REPUL.0>
0

>  <SCORE.INTRA.SOLV>
-0.489569

>  <SCORE.INTRA.SOLV.lig_0>
-65.3082

>  <SCORE.INTRA.VDW>
2.2379

>  <SCORE.INTRA.VDW.0>
-4.21408

>  <SCORE.INTRA.norm>
-0.0880263

>  <SCORE.RESTR>
0

>  <SCORE.RESTR.CAVITY>
0

>  <SCORE.RESTR.norm>
0

>  <SCORE.SYSTEM>
0

>  <SCORE.SYSTEM.CONST>
0

>  <SCORE.SYSTEM.DIHEDRAL>
0

>  <SCORE.SYSTEM.SOLV>
0

>  <SCORE.SYSTEM.norm>
0

>  <SCORE.heavy>
31

>  <SCORE.norm>
-0.455098

>  <RMSD>
2.506

$$$$
ligand
 OpenBabel11021811493D
libRbt.so/2013.1/901 2013/11/27
 31 33  0  0  0  0  0  0  0  0999 V2000
    2.3926   14.2842   39.1459 C   0  0  2  0  0  0  0  0  0  0  0  0
    1.3962   15.1826   39.5946 O   0  0  0  0  0  0  0  0  0  0  0  0
   -2.5649   14.3918   40.9153 C   0  0  2  0  0  0  0  0  0  0  0  0
   -3.9537   14.0826   40.8668 N   0  0  0  0  0  0  0  0  0  0  0  0
   -3.2324   11.2881   41.0857 C   0  0  2  0  0  0  0  0  0  0  0  0
    3.7207   15.1148   38.8732 C   0  0  2  0  0  0  0  0  0  0  0  0
    4.1151   15.8026   40.0979 N   0  0  0  0  0  0  0  0  0  0  0  0
   -2.3175   15.7094   40.0538 C   0  0  0  0  0  0  0  0  0  0  0  0
   -2.8151    9.7799   41.1349 C   0  0  2  0  0  0  0  0  0  0  0  0
   -1.9855    9.5764   42.2590 O   0  0  0  0  0  0  0  0  0  0  0  0
    3.5032   16.1340   37.6951 C   0  0  0  0  0  0  0  0  0  0  0  0
   -0.7753   16.0623   40.1215 C   0  0  2  0  0  0  0  0  0  0  0  0
   -0.5307   17.2765   39.3420 N   0  0  0  0  0  0  0  0  0  0  0  0
   -2.0523    9.4298   39.8056 C   0  0  1  0  0  0  0  0  0  0  0  0
   -1.6270    7.9935   39.8322 N   0  0  0  0  0  0  0  0  0  0  0  0
    2.6309   15.5075   36.5278 C   0  0  0  0  0  0  0  0  0  0  0  0
    0.0545   14.8555   39.5198 C   0  0  2  0  0  0  0  0  0  0  0  0
   -3.0543    9.6719   38.5464 C   0  0  1  0  0  0  0  0  0  0  0  0
   -4.2178    8.8702   38.5987 O   0  0  0  0  0  0  0  0  0  0  0  0
    1.9528   14.3473   36.7034 C   0  0  1  0  0  0  0  0  0  0  0  0
    1.9677   13.6079   37.9213 O   0  0  0  0  0  0  0  0  0  0  0  0
   -0.2172   13.5443   40.3688 C   0  0  2  0  0  0  0  0  0  0  0  0
    0.5309   12.4476   39.8050 O   0  0  0  0  0  0  0  0  0  0  0  0
   -3.4976   11.1654   38.5267 C   0  0  0  0  0  0  0  0  0  0  0  0
   -4.1027   11.5445   39.8674 O   0  0  0  0  0  0  0  0  0  0  0  0
    1.1060   13.7220   35.6207 C   0  0  0  0  0  0  0  0  0  0  0  0
    1.0438   12.3090   35.9110 O   0  0  0  0  0  0  0  0  0  0  0  0
   -1.7540   13.1992   40.3060 C   0  0  1  0  0  0  0  0  0  0  0  0
   -1.9709   12.0387   41.0695 O   0  0  0  0  0  0  0  0  0  0  0  0
   -2.4362    9.3763   37.1736 C   0  0  0  0  0  0  0  0  0  0  0  0
   -0.2218    7.7207   39.4654 C   0  0  0  0  0  0  0  0  0  0  0  0
  1  2  1  6  0  0  0
  1  6  1  0  0  0  0
  1 21  1  0  0  0  0
  3  4  1  6  0  0  0
  3  8  1  0  0  0  0
  3 28  1  0  0  0  0
  5  9  1  0  0  0  0
  5 25  1  0  0  0  0
  5 29  1  6  0  0  0
  6  7  1  1  0  0  0
  6 11  1  0  0  0  0
  8 12  1  0  0  0  0
  9 10  1  1  0  0  0
  9 14  1  0  0  0  0
 11 16  1  0  0  0  0
 12 13  1  6  0  0  0
 12 17  1  0  0  0  0
 14 15  1  1  0  0  0
 14 18  1  0  0  0  0
 15 31  1  0  0  0  0
 16 20  1  0  0  0  0
 17  2  1  1  0  0  0
 17 22  1  0  0  0  0
 18 19  1  1  0  0  0
 18 24  1  0  0  0  0
 18 30  1  0  0  0  0
 20 21  1  0  0  0  0
 20 26  1  1  0  0  0
 22 23  1  6  0  0  0
 22 28  1  0  0  0  0
 24 25  1  0  0  0  0
 26 27  1  0  0  0  0
 28 29  1  1  0  0  0
M  END
>  <CHROM.1>
159.81602124,141.27943467,-131.86307808,179.11897728,155.13937741,71.36239454
-0.61647613,12.72705599,39.23929177,-0.66379007,-0.58538132,-2.79370562

>  <Name>
ligand

>  <RI>
0

>  <Rbt.Current_Directory>
/home/itssahil/PROJECTS/Mol_Feturizer/New_Systems/rnas/4GPY

>  <Rbt.Executable>
rbdock ($Id: //depot/dev/client3/rdock/2013.1/src/exe/rbdock.cxx#4 $)

>  <Rbt.Library>
libRbt.so (2013.1, Build901 2013/11/27)

>  <Rbt.Parameter_File>
/export/apps/rDock/src/rDock_2013.1_src/data/scripts/dock_solv.prm

>  <Rbt.Receptor>
prm/pocket_docking_3.prm

>  <SCORE>
-6.22202

>  <SCORE.INTER>
-6.5212

>  <SCORE.INTER.CONST>
1

>  <SCORE.INTER.POLAR>
0

>  <SCORE.INTER.ROT>
6

>  <SCORE.INTER.SOLV>
15.0806

>  <SCORE.INTER.VDW>
-16.9743

>  <SCORE.INTER.norm>
-0.210361

>  <SCORE.INTRA>
0.295138

>  <SCORE.INTRA.DIHEDRAL>
-3.06841

>  <SCORE.INTRA.DIHEDRAL.0>
14.7001

>  <SCORE.INTRA.POLAR>
0

>  <SCORE.INTRA.POLAR.0>
0

>  <SCORE.INTRA.REPUL>
0

>  <SCORE.INTRA.REPUL.0>
0

>  <SCORE.INTRA.SOLV>
-0.315848

>  <SCORE.INTRA.SOLV.lig_0>
-65.3082

>  <SCORE.INTRA.VDW>
1.98727

>  <SCORE.INTRA.VDW.0>
-4.21408

>  <SCORE.INTRA.norm>
0.00952059

>  <SCORE.RESTR>
0.00403885

>  <SCORE.RESTR.CAVITY>
0.00403885

>  <SCORE.RESTR.norm>
0.000130285

>  <SCORE.SYSTEM>
0

>  <SCORE.SYSTEM.CONST>
0

>  <SCORE.SYSTEM.DIHEDRAL>
0

>  <SCORE.SYSTEM.SOLV>
0

>  <SCORE.SYSTEM.norm>
0

>  <SCORE.heavy>
31

>  <SCORE.norm>
-0.20071

>  <RMSD>
2.531

$$$$
ligand
 OpenBabel11021811493D
libRbt.so/2013.1/901 2013/11/27
 31 33  0  0  0  0  0  0  0  0999 V2000
    0.8946   15.7966   37.3582 C   0  0  2  0  0  0  0  0  0  0  0  0
    0.6737   15.2402   38.6400 O   0  0  0  0  0  0  0  0  0  0  0  0
   -2.4745   14.3255   41.3442 C   0  0  2  0  0  0  0  0  0  0  0  0
   -3.7830   14.0338   41.8233 N   0  0  0  0  0  0  0  0  0  0  0  0
   -3.1555   11.0806   41.1566 C   0  0  2  0  0  0  0  0  0  0  0  0
    0.7850   14.6276   36.2861 C   0  0  2  0  0  0  0  0  0  0  0  0
   -0.5288   14.0022   36.3924 N   0  0  0  0  0  0  0  0  0  0  0  0
   -2.5186   15.7345   40.6009 C   0  0  0  0  0  0  0  0  0  0  0  0
   -2.5723    9.6279   41.1293 C   0  0  2  0  0  0  0  0  0  0  0  0
   -1.5916    9.5150   42.1386 O   0  0  0  0  0  0  0  0  0  0  0  0
    1.9336   13.5740   36.4977 C   0  0  0  0  0  0  0  0  0  0  0  0
   -1.0595   16.0660   40.0826 C   0  0  2  0  0  0  0  0  0  0  0  0
   -1.0792   17.3626   39.4041 N   0  0  0  0  0  0  0  0  0  0  0  0
   -1.9476    9.3678   39.7103 C   0  0  1  0  0  0  0  0  0  0  0  0
   -1.3672    7.9875   39.6607 N   0  0  0  0  0  0  0  0  0  0  0  0
    3.3102   14.2698   36.8674 C   0  0  0  0  0  0  0  0  0  0  0  0
   -0.6031   14.9336   39.0744 C   0  0  2  0  0  0  0  0  0  0  0  0
   -3.1193    9.5003   38.5889 C   0  0  1  0  0  0  0  0  0  0  0  0
   -4.1722    8.5744   38.7717 O   0  0  0  0  0  0  0  0  0  0  0  0
    3.3636   15.5773   37.2197 C   0  0  1  0  0  0  0  0  0  0  0  0
    2.2155   16.4188   37.2836 O   0  0  0  0  0  0  0  0  0  0  0  0
   -0.5858   13.5327   39.8166 C   0  0  2  0  0  0  0  0  0  0  0  0
   -0.1833   12.5057   38.8874 O   0  0  0  0  0  0  0  0  0  0  0  0
   -3.7229   10.9355   38.6485 C   0  0  0  0  0  0  0  0  0  0  0  0
   -4.1939   11.2418   40.0597 O   0  0  0  0  0  0  0  0  0  0  0  0
    4.6520   16.2747   37.5855 C   0  0  0  0  0  0  0  0  0  0  0  0
    5.5987   15.2390   37.9258 O   0  0  0  0  0  0  0  0  0  0  0  0
   -2.0376   13.2082   40.3382 C   0  0  1  0  0  0  0  0  0  0  0  0
   -1.9959   11.9666   40.9966 O   0  0  0  0  0  0  0  0  0  0  0  0
   -2.6487    9.2785   37.1456 C   0  0  0  0  0  0  0  0  0  0  0  0
    0.0924    7.8992   39.4482 C   0  0  0  0  0  0  0  0  0  0  0  0
  1  2  1  1  0  0  0
  1  6  1  0  0  0  0
  1 21  1  0  0  0  0
  3  4  1  6  0  0  0
  3  8  1  0  0  0  0
  3 28  1  0  0  0  0
  5  9  1  0  0  0  0
  5 25  1  0  0  0  0
  5 29  1  6  0  0  0
  6  7  1  1  0  0  0
  6 11  1  0  0  0  0
  8 12  1  0  0  0  0
  9 10  1  1  0  0  0
  9 14  1  0  0  0  0
 11 16  1  0  0  0  0
 12 13  1  6  0  0  0
 12 17  1  0  0  0  0
 14 15  1  1  0  0  0
 14 18  1  0  0  0  0
 15 31  1  0  0  0  0
 16 20  1  0  0  0  0
 17  2  1  1  0  0  0
 17 22  1  0  0  0  0
 18 19  1  1  0  0  0
 18 24  1  0  0  0  0
 18 30  1  0  0  0  0
 20 21  1  0  0  0  0
 20 26  1  1  0  0  0
 22 23  1  6  0  0  0
 22 28  1  0  0  0  0
 24 25  1  0  0  0  0
 26 27  1  0  0  0  0
 28 29  1  1  0  0  0
M  END
>  <CHROM.1>
-77.56949291,147.59012254,-117.00045432,-102.89553485,-19.39868803,86.39711820
-0.68259383,12.86374470,39.06048759,0.70979345,0.54586527,0.15706836

>  <Name>
ligand

>  <RI>
0

>  <Rbt.Current_Directory>
/home/itssahil/PROJECTS/Mol_Feturizer/New_Systems/rnas/4GPY

>  <Rbt.Executable>
rbdock ($Id: //depot/dev/client3/rdock/2013.1/src/exe/rbdock.cxx#4 $)

>  <Rbt.Library>
libRbt.so (2013.1, Build901 2013/11/27)

>  <Rbt.Parameter_File>
/export/apps/rDock/src/rDock_2013.1_src/data/scripts/dock_solv.prm

>  <Rbt.Receptor>
prm/pocket_docking_5.prm

>  <SCORE>
-5.71376

>  <SCORE.INTER>
-9.161

>  <SCORE.INTER.CONST>
1

>  <SCORE.INTER.POLAR>
0

>  <SCORE.INTER.ROT>
6

>  <SCORE.INTER.SOLV>
16.4531

>  <SCORE.INTER.VDW>
-19.1917

>  <SCORE.INTER.norm>
-0.295516

>  <SCORE.INTRA>
3.44724

>  <SCORE.INTRA.DIHEDRAL>
2.87336

>  <SCORE.INTRA.DIHEDRAL.0>
14.7001

>  <SCORE.INTRA.POLAR>
0

>  <SCORE.INTRA.POLAR.0>
0

>  <SCORE.INTRA.REPUL>
0

>  <SCORE.INTRA.REPUL.0>
0

>  <SCORE.INTRA.SOLV>
1.88631

>  <SCORE.INTRA.SOLV.lig_0>
-65.3082

>  <SCORE.INTRA.VDW>
1.0674

>  <SCORE.INTRA.VDW.0>
-4.21408

>  <SCORE.INTRA.norm>
0.111201

>  <SCORE.RESTR>
0

>  <SCORE.RESTR.CAVITY>
0

>  <SCORE.RESTR.norm>
0

>  <SCORE.SYSTEM>
0

>  <SCORE.SYSTEM.CONST>
0

>  <SCORE.SYSTEM.DIHEDRAL>
0

>  <SCORE.SYSTEM.SOLV>
0

>  <SCORE.SYSTEM.norm>
0

>  <SCORE.heavy>
31

>  <SCORE.norm>
-0.184315

>  <RMSD>
2.702

$$$$
ligand
 OpenBabel11021811493D
libRbt.so/2013.1/901 2013/11/27
 31 33  0  0  0  0  0  0  0  0999 V2000
    2.8024   14.8085   36.9155 C   0  0  2  0  0  0  0  0  0  0  0  0
    1.9047   15.0769   37.9755 O   0  0  0  0  0  0  0  0  0  0  0  0
   -1.8633   13.4441   39.0694 C   0  0  2  0  0  0  0  0  0  0  0  0
   -3.2469   13.1149   39.0061 N   0  0  0  0  0  0  0  0  0  0  0  0
   -2.4841   10.6796   37.5747 C   0  0  2  0  0  0  0  0  0  0  0  0
    4.2770   15.1104   37.4280 C   0  0  2  0  0  0  0  0  0  0  0  0
    4.5537   14.2884   38.6012 N   0  0  0  0  0  0  0  0  0  0  0  0
   -1.7261   15.0311   39.0220 C   0  0  0  0  0  0  0  0  0  0  0  0
   -2.1393    9.1701   37.8066 C   0  0  2  0  0  0  0  0  0  0  0  0
   -1.6680    9.0114   39.1279 O   0  0  0  0  0  0  0  0  0  0  0  0
    4.4466   16.6397   37.7541 C   0  0  0  0  0  0  0  0  0  0  0  0
   -0.1879   15.3974   39.1090 C   0  0  2  0  0  0  0  0  0  0  0  0
   -0.0433   16.8533   39.0757 N   0  0  0  0  0  0  0  0  0  0  0  0
   -1.0412    8.7436   36.7656 C   0  0  1  0  0  0  0  0  0  0  0  0
   -0.6803    7.3047   36.9750 N   0  0  0  0  0  0  0  0  0  0  0  0
    3.7063   17.5543   36.6904 C   0  0  0  0  0  0  0  0  0  0  0  0
    0.5647   14.7495   37.8757 C   0  0  2  0  0  0  0  0  0  0  0  0
   -1.6384    8.9365   35.2642 C   0  0  1  0  0  0  0  0  0  0  0  0
   -2.7907    8.1546   35.0188 O   0  0  0  0  0  0  0  0  0  0  0  0
    2.8248   17.0289   35.8053 C   0  0  1  0  0  0  0  0  0  0  0  0
    2.4980   15.6430   35.7543 O   0  0  0  0  0  0  0  0  0  0  0  0
    0.4019   13.1730   37.9185 C   0  0  2  0  0  0  0  0  0  0  0  0
    1.0778   12.5929   36.7841 O   0  0  0  0  0  0  0  0  0  0  0  0
   -2.0169   10.4331   35.0538 C   0  0  0  0  0  0  0  0  0  0  0  0
   -2.9663   10.8869   36.1492 O   0  0  0  0  0  0  0  0  0  0  0  0
    2.0944   17.8658   34.7824 C   0  0  0  0  0  0  0  0  0  0  0  0
    0.7275   17.9701   35.2358 O   0  0  0  0  0  0  0  0  0  0  0  0
   -1.1303   12.8111   37.8393 C   0  0  1  0  0  0  0  0  0  0  0  0
   -1.2495   11.4109   37.8848 O   0  0  0  0  0  0  0  0  0  0  0  0
   -0.6652    8.5643   34.1381 C   0  0  0  0  0  0  0  0  0  0  0  0
    0.3428    7.0303   38.0052 C   0  0  0  0  0  0  0  0  0  0  0  0
  1  2  1  1  0  0  0
  1  6  1  0  0  0  0
  1 21  1  0  0  0  0
  3  4  1  6  0  0  0
  3  8  1  0  0  0  0
  3 28  1  0  0  0  0
  5  9  1  0  0  0  0
  5 25  1  0  0  0  0
  5 29  1  6  0  0  0
  6  7  1  1  0  0  0
  6 11  1  0  0  0  0
  8 12  1  0  0  0  0
  9 10  1  1  0  0  0
  9 14  1  0  0  0  0
 11 16  1  0  0  0  0
 12 13  1  6  0  0  0
 12 17  1  0  0  0  0
 14 15  1  1  0  0  0
 14 18  1  0  0  0  0
 15 31  1  0  0  0  0
 16 20  1  0  0  0  0
 17  2  1  1  0  0  0
 17 22  1  0  0  0  0
 18 19  1  6  0  0  0
 18 24  1  0  0  0  0
 18 30  1  0  0  0  0
 20 21  1  0  0  0  0
 20 26  1  1  0  0  0
 22 23  1  6  0  0  0
 22 28  1  0  0  0  0
 24 25  1  0  0  0  0
 26 27  1  0  0  0  0
 28 29  1  1  0  0  0
M  END
>  <CHROM.1>
-172.03001430,-178.24987777,-84.80573814,-170.58032390,-106.44709602,73.95216731
0.14057165,12.86295368,37.15041819,-1.00908315,-0.42715745,-2.85481421

>  <Name>
ligand

>  <RI>
0

>  <Rbt.Current_Directory>
/home/itssahil/PROJECTS/Mol_Feturizer/New_Systems/rnas/4GPY

>  <Rbt.Executable>
rbdock ($Id: //depot/dev/client3/rdock/2013.1/src/exe/rbdock.cxx#4 $)

>  <Rbt.Library>
libRbt.so (2013.1, Build901 2013/11/27)

>  <Rbt.Parameter_File>
/export/apps/rDock/src/rDock_2013.1_src/data/scripts/dock_solv.prm

>  <Rbt.Receptor>
prm/pocket_docking_5.prm

>  <SCORE>
-14.6456

>  <SCORE.INTER>
-9.88815

>  <SCORE.INTER.CONST>
1

>  <SCORE.INTER.POLAR>
0

>  <SCORE.INTER.ROT>
6

>  <SCORE.INTER.SOLV>
15.1059

>  <SCORE.INTER.VDW>
-19.2274

>  <SCORE.INTER.norm>
-0.318973

>  <SCORE.INTRA>
-4.7574

>  <SCORE.INTRA.DIHEDRAL>
-10.6691

>  <SCORE.INTRA.DIHEDRAL.0>
14.7001

>  <SCORE.INTRA.POLAR>
0

>  <SCORE.INTRA.POLAR.0>
0

>  <SCORE.INTRA.REPUL>
0

>  <SCORE.INTRA.REPUL.0>
0

>  <SCORE.INTRA.SOLV>
-1.13367

>  <SCORE.INTRA.SOLV.lig_0>
-65.3082

>  <SCORE.INTRA.VDW>
1.144

>  <SCORE.INTRA.VDW.0>
-4.21408

>  <SCORE.INTRA.norm>
-0.153465

>  <SCORE.RESTR>
0

>  <SCORE.RESTR.CAVITY>
0

>  <SCORE.RESTR.norm>
0

>  <SCORE.SYSTEM>
0

>  <SCORE.SYSTEM.CONST>
0

>  <SCORE.SYSTEM.DIHEDRAL>
0

>  <SCORE.SYSTEM.SOLV>
0

>  <SCORE.SYSTEM.norm>
0

>  <SCORE.heavy>
31

>  <SCORE.norm>
-0.472437

>  <RMSD>
2.727

$$$$
ligand
 OpenBabel11021811493D
libRbt.so/2013.1/901 2013/11/27
 31 33  0  0  0  0  0  0  0  0999 V2000
    2.7843   14.7550   36.9845 C   0  0  2  0  0  0  0  0  0  0  0  0
    1.8554   15.0420   38.0121 O   0  0  0  0  0  0  0  0  0  0  0  0
   -1.9240   13.4031   39.0565 C   0  0  2  0  0  0  0  0  0  0  0  0
   -3.3015   13.0553   38.9659 N   0  0  0  0  0  0  0  0  0  0  0  0
   -2.4778   10.5828   37.6638 C   0  0  2  0  0  0  0  0  0  0  0  0
    4.2230   15.2233   37.4733 C   0  0  2  0  0  0  0  0  0  0  0  0
    4.5530   14.5361   38.7172 N   0  0  0  0  0  0  0  0  0  0  0  0
   -1.8030   14.9891   38.9572 C   0  0  0  0  0  0  0  0  0  0  0  0
   -2.0949    9.0783   37.8664 C   0  0  2  0  0  0  0  0  0  0  0  0
   -1.5949    8.9110   39.1761 O   0  0  0  0  0  0  0  0  0  0  0  0
    4.2621   16.7846   37.6602 C   0  0  0  0  0  0  0  0  0  0  0  0
   -0.2721   15.3766   39.0745 C   0  0  2  0  0  0  0  0  0  0  0  0
   -0.1427   16.8321   38.9941 N   0  0  0  0  0  0  0  0  0  0  0  0
   -1.0075    8.6923   36.7987 C   0  0  1  0  0  0  0  0  0  0  0  0
   -0.6104    7.2590   36.9795 N   0  0  0  0  0  0  0  0  0  0  0  0
    3.4612   17.5350   36.5150 C   0  0  0  0  0  0  0  0  0  0  0  0
    0.5224   14.6953   37.8864 C   0  0  2  0  0  0  0  0  0  0  0  0
   -1.6374    8.8935   35.3118 C   0  0  1  0  0  0  0  0  0  0  0  0
   -2.7763    8.0893   35.0762 O   0  0  0  0  0  0  0  0  0  0  0  0
    2.6362   16.8606   35.6777 C   0  0  1  0  0  0  0  0  0  0  0  0
    2.4255   15.4533   35.7511 O   0  0  0  0  0  0  0  0  0  0  0  0
    0.3759   13.1194   37.9799 C   0  0  2  0  0  0  0  0  0  0  0  0
    1.0902   12.5083   36.8860 O   0  0  0  0  0  0  0  0  0  0  0  0
   -2.0534   10.3841   35.1312 C   0  0  0  0  0  0  0  0  0  0  0  0
   -2.9918   10.8000   36.2509 O   0  0  0  0  0  0  0  0  0  0  0  0
    1.8510   17.5384   34.5803 C   0  0  0  0  0  0  0  0  0  0  0  0
    1.9763   18.9597   34.8018 O   0  0  0  0  0  0  0  0  0  0  0  0
   -1.1494   12.7365   37.8704 C   0  0  1  0  0  0  0  0  0  0  0  0
   -1.2544   11.3374   37.9617 O   0  0  0  0  0  0  0  0  0  0  0  0
   -0.6777    8.5602   34.1621 C   0  0  0  0  0  0  0  0  0  0  0  0
    0.4890    7.0003   37.9322 C   0  0  0  0  0  0  0  0  0  0  0  0
  1  2  1  1  0  0  0
  1  6  1  0  0  0  0
  1 21  1  0  0  0  0
  3  4  1  6  0  0  0
  3  8  1  0  0  0  0
  3 28  1  0  0  0  0
  5  9  1  0  0  0  0
  5 25  1  0  0  0  0
  5 29  1  6  0  0  0
  6  7  1  1  0  0  0
  6 11  1  0  0  0  0
  8 12  1  0  0  0  0
  9 10  1  1  0  0  0
  9 14  1  0  0  0  0
 11 16  1  0  0  0  0
 12 13  1  6  0  0  0
 12 17  1  0  0  0  0
 14 15  1  1  0  0  0
 14 18  1  0  0  0  0
 15 31  1  0  0  0  0
 16 20  1  0  0  0  0
 17  2  1  1  0  0  0
 17 22  1  0  0  0  0
 18 19  1  6  0  0  0
 18 24  1  0  0  0  0
 18 30  1  0  0  0  0
 20 21  1  0  0  0  0
 20 26  1  1  0  0  0
 22 23  1  6  0  0  0
 22 28  1  0  0  0  0
 24 25  1  0  0  0  0
 26 27  1  0  0  0  0
 28 29  1  1  0  0  0
M  END
>  <CHROM.1>
-177.53825239,178.43473648,-88.02649470,-170.19320930,-10.40066016,72.92035987
0.14881926,12.85046372,37.14147794,-0.98926894,-0.52230317,-2.82161406

>  <Name>
ligand

>  <RI>
0

>  <Rbt.Current_Directory>
/home/itssahil/PROJECTS/Mol_Feturizer/New_Systems/rnas/4GPY

>  <Rbt.Executable>
rbdock ($Id: //depot/dev/client3/rdock/2013.1/src/exe/rbdock.cxx#4 $)

>  <Rbt.Library>
libRbt.so (2013.1, Build901 2013/11/27)

>  <Rbt.Parameter_File>
/export/apps/rDock/src/rDock_2013.1_src/data/scripts/dock_solv.prm

>  <Rbt.Receptor>
prm/pocket_docking_5.prm

>  <SCORE>
-13.5778

>  <SCORE.INTER>
-9.81326

>  <SCORE.INTER.CONST>
1

>  <SCORE.INTER.POLAR>
0

>  <SCORE.INTER.ROT>
6

>  <SCORE.INTER.SOLV>
14.57

>  <SCORE.INTER.VDW>
-18.9988

>  <SCORE.INTER.norm>
-0.316557

>  <SCORE.INTRA>
-3.76457

>  <SCORE.INTRA.DIHEDRAL>
-11.0364

>  <SCORE.INTRA.DIHEDRAL.0>
14.7001

>  <SCORE.INTRA.POLAR>
0

>  <SCORE.INTRA.POLAR.0>
0

>  <SCORE.INTRA.REPUL>
0

>  <SCORE.INTRA.REPUL.0>
0

>  <SCORE.INTRA.SOLV>
-1.37829

>  <SCORE.INTRA.SOLV.lig_0>
-65.3082

>  <SCORE.INTRA.VDW>
2.4428

>  <SCORE.INTRA.VDW.0>
-4.21408

>  <SCORE.INTRA.norm>
-0.121438

>  <SCORE.RESTR>
0

>  <SCORE.RESTR.CAVITY>
0

>  <SCORE.RESTR.norm>
0

>  <SCORE.SYSTEM>
0

>  <SCORE.SYSTEM.CONST>
0

>  <SCORE.SYSTEM.DIHEDRAL>
0

>  <SCORE.SYSTEM.SOLV>
0

>  <SCORE.SYSTEM.norm>
0

>  <SCORE.heavy>
31

>  <SCORE.norm>
-0.437994

>  <RMSD>
2.752

$$$$
ligand
 OpenBabel11021811493D
libRbt.so/2013.1/901 2013/11/27
 31 33  0  0  0  0  0  0  0  0999 V2000
    2.7911   14.7922   36.9159 C   0  0  2  0  0  0  0  0  0  0  0  0
    1.8867   15.0791   37.9653 O   0  0  0  0  0  0  0  0  0  0  0  0
   -1.8604   13.4038   39.0665 C   0  0  2  0  0  0  0  0  0  0  0  0
   -3.2406   13.0599   39.0064 N   0  0  0  0  0  0  0  0  0  0  0  0
   -2.4407   10.6330   37.5197 C   0  0  2  0  0  0  0  0  0  0  0  0
    4.2594   15.1338   37.4212 C   0  0  2  0  0  0  0  0  0  0  0  0
    4.5466   14.3535   38.6201 N   0  0  0  0  0  0  0  0  0  0  0  0
   -1.7404   14.9923   39.0218 C   0  0  0  0  0  0  0  0  0  0  0  0
   -2.0866    9.1279   37.7657 C   0  0  2  0  0  0  0  0  0  0  0  0
   -1.6644    8.9754   39.1043 O   0  0  0  0  0  0  0  0  0  0  0  0
    4.4037   16.6751   37.6995 C   0  0  0  0  0  0  0  0  0  0  0  0
   -0.2060   15.3750   39.1052 C   0  0  2  0  0  0  0  0  0  0  0  0
   -0.0772   16.8324   39.0743 N   0  0  0  0  0  0  0  0  0  0  0  0
   -0.9441    8.7147   36.7680 C   0  0  1  0  0  0  0  0  0  0  0  0
   -0.5739    7.2804   36.9921 N   0  0  0  0  0  0  0  0  0  0  0  0
    3.6512   17.5439   36.6063 C   0  0  0  0  0  0  0  0  0  0  0  0
    0.5500   14.7375   37.8686 C   0  0  2  0  0  0  0  0  0  0  0  0
   -1.4856    8.8998   35.2446 C   0  0  1  0  0  0  0  0  0  0  0  0
   -2.6179    8.1037   34.9557 O   0  0  0  0  0  0  0  0  0  0  0  0
    2.7803   16.9767   35.7366 C   0  0  1  0  0  0  0  0  0  0  0  0
    2.4759   15.5848   35.7285 O   0  0  0  0  0  0  0  0  0  0  0  0
    0.4043   13.1593   37.9089 C   0  0  2  0  0  0  0  0  0  0  0  0
    1.0833   12.5886   36.7715 O   0  0  0  0  0  0  0  0  0  0  0  0
   -1.8741   10.3916   35.0187 C   0  0  0  0  0  0  0  0  0  0  0  0
   -2.8704   10.8339   36.0765 O   0  0  0  0  0  0  0  0  0  0  0  0
    2.0388   17.7693   34.6867 C   0  0  0  0  0  0  0  0  0  0  0  0
    0.7290   18.0455   35.2278 O   0  0  0  0  0  0  0  0  0  0  0  0
   -1.1241   12.7811   37.8332 C   0  0  1  0  0  0  0  0  0  0  0  0
   -1.2281   11.3795   37.8763 O   0  0  0  0  0  0  0  0  0  0  0  0
   -0.4653    8.5394   34.1569 C   0  0  0  0  0  0  0  0  0  0  0  0
    0.4598    7.0243   38.0165 C   0  0  0  0  0  0  0  0  0  0  0  0
  1  2  1  1  0  0  0
  1  6  1  0  0  0  0
  1 21  1  0  0  0  0
  3  4  1  6  0  0  0
  3  8  1  0  0  0  0
  3 28  1  0  0  0  0
  5  9  1  0  0  0  0
  5 25  1  0  0  0  0
  5 29  1  6  0  0  0
  6  7  1  1  0  0  0
  6 11  1  0  0  0  0
  8 12  1  0  0  0  0
  9 10  1  1  0  0  0
  9 14  1  0  0  0  0
 11 16  1  0  0  0  0
 12 13  1  6  0  0  0
 12 17  1  0  0  0  0
 14 15  1  1  0  0  0
 14 18  1  0  0  0  0
 15 31  1  0  0  0  0
 16 20  1  0  0  0  0
 17  2  1  1  0  0  0
 17 22  1  0  0  0  0
 18 19  1  6  0  0  0
 18 24  1  0  0  0  0
 18 30  1  0  0  0  0
 20 21  1  0  0  0  0
 20 26  1  1  0  0  0
 22 23  1  6  0  0  0
 22 28  1  0  0  0  0
 24 25  1  0  0  0  0
 26 27  1  0  0  0  0
 28 29  1  1  0  0  0
M  END
>  <CHROM.1>
-172.59469759,-178.31348065,-87.63240904,-172.17712224,-97.68718146,76.35211881
0.16948589,12.84091358,37.12936860,-1.01790570,-0.46154943,-2.84463311

>  <Name>
ligand

>  <RI>
0

>  <Rbt.Current_Directory>
/home/itssahil/PROJECTS/Mol_Feturizer/New_Systems/rnas/4GPY

>  <Rbt.Executable>
rbdock ($Id: //depot/dev/client3/rdock/2013.1/src/exe/rbdock.cxx#4 $)

>  <Rbt.Library>
libRbt.so (2013.1, Build901 2013/11/27)

>  <Rbt.Parameter_File>
/export/apps/rDock/src/rDock_2013.1_src/data/scripts/dock_solv.prm

>  <Rbt.Receptor>
prm/pocket_docking_8.prm

>  <SCORE>
-14.6304

>  <SCORE.INTER>
-10.0044

>  <SCORE.INTER.CONST>
1

>  <SCORE.INTER.POLAR>
0

>  <SCORE.INTER.ROT>
6

>  <SCORE.INTER.SOLV>
14.8862

>  <SCORE.INTER.VDW>
-19.2317

>  <SCORE.INTER.norm>
-0.322722

>  <SCORE.INTRA>
-4.62602

>  <SCORE.INTRA.DIHEDRAL>
-10.0821

>  <SCORE.INTRA.DIHEDRAL.0>
14.7001

>  <SCORE.INTRA.POLAR>
0

>  <SCORE.INTRA.POLAR.0>
0

>  <SCORE.INTRA.REPUL>
0

>  <SCORE.INTRA.REPUL.0>
0

>  <SCORE.INTRA.SOLV>
-1.33782

>  <SCORE.INTRA.SOLV.lig_0>
-65.3082

>  <SCORE.INTRA.VDW>
1.08396

>  <SCORE.INTRA.VDW.0>
-4.21408

>  <SCORE.INTRA.norm>
-0.149227

>  <SCORE.RESTR>
0

>  <SCORE.RESTR.CAVITY>
0

>  <SCORE.RESTR.norm>
0

>  <SCORE.SYSTEM>
0

>  <SCORE.SYSTEM.CONST>
0

>  <SCORE.SYSTEM.DIHEDRAL>
0

>  <SCORE.SYSTEM.SOLV>
0

>  <SCORE.SYSTEM.norm>
0

>  <SCORE.heavy>
31

>  <SCORE.norm>
-0.471949

>  <RMSD>
2.756

$$$$
ligand
 OpenBabel11021811493D
libRbt.so/2013.1/901 2013/11/27
 31 33  0  0  0  0  0  0  0  0999 V2000
    2.5596   14.8877   36.7492 C   0  0  2  0  0  0  0  0  0  0  0  0
    1.7431   15.0463   37.8935 O   0  0  0  0  0  0  0  0  0  0  0  0
   -1.9121   13.3122   39.1945 C   0  0  2  0  0  0  0  0  0  0  0  0
   -3.2892   12.9516   39.2120 N   0  0  0  0  0  0  0  0  0  0  0  0
   -2.5401   10.5499   37.6174 C   0  0  2  0  0  0  0  0  0  0  0  0
    4.0607   15.2079   37.1644 C   0  0  2  0  0  0  0  0  0  0  0  0
    4.4581   14.3159   38.2484 N   0  0  0  0  0  0  0  0  0  0  0  0
   -1.8139   14.9025   39.1612 C   0  0  0  0  0  0  0  0  0  0  0  0
   -2.1536    9.0462   37.8197 C   0  0  2  0  0  0  0  0  0  0  0  0
   -1.6808    8.8741   39.1388 O   0  0  0  0  0  0  0  0  0  0  0  0
    4.2075   16.7156   37.5879 C   0  0  0  0  0  0  0  0  0  0  0  0
   -0.2819   15.3034   39.1584 C   0  0  2  0  0  0  0  0  0  0  0  0
   -0.1724   16.7626   39.1369 N   0  0  0  0  0  0  0  0  0  0  0  0
   -1.0416    8.6720   36.7732 C   0  0  1  0  0  0  0  0  0  0  0  0
   -0.6409    7.2398   36.9545 N   0  0  0  0  0  0  0  0  0  0  0  0
    3.3542   17.6747   36.6562 C   0  0  0  0  0  0  0  0  0  0  0  0
    0.4072   14.6890   37.8720 C   0  0  2  0  0  0  0  0  0  0  0  0
   -1.6408    8.8785   35.2744 C   0  0  1  0  0  0  0  0  0  0  0  0
   -2.7701    8.0697   35.0101 O   0  0  0  0  0  0  0  0  0  0  0  0
    2.4207   17.1804   35.8072 C   0  0  1  0  0  0  0  0  0  0  0  0
    2.1352   15.7903   35.6802 O   0  0  0  0  0  0  0  0  0  0  0  0
    0.2829   13.1087   37.9024 C   0  0  2  0  0  0  0  0  0  0  0  0
    0.9001   12.5591   36.7204 O   0  0  0  0  0  0  0  0  0  0  0  0
   -2.0608   10.3679   35.0933 C   0  0  0  0  0  0  0  0  0  0  0  0
   -3.0250   10.7725   36.1951 O   0  0  0  0  0  0  0  0  0  0  0  0
    1.5830   18.0596   34.9096 C   0  0  0  0  0  0  0  0  0  0  0  0
    1.8257   17.6170   33.5568 O   0  0  0  0  0  0  0  0  0  0  0  0
   -1.2427   12.7122   37.9127 C   0  0  1  0  0  0  0  0  0  0  0  0
   -1.3273   11.3091   37.9456 O   0  0  0  0  0  0  0  0  0  0  0  0
   -0.6551    8.5567   34.1437 C   0  0  0  0  0  0  0  0  0  0  0  0
    0.5785    6.9980   37.7532 C   0  0  0  0  0  0  0  0  0  0  0  0
  1  2  1  1  0  0  0
  1  6  1  0  0  0  0
  1 21  1  0  0  0  0
  3  4  1  6  0  0  0
  3  8  1  0  0  0  0
  3 28  1  0  0  0  0
  5  9  1  0  0  0  0
  5 25  1  0  0  0  0
  5 29  1  6  0  0  0
  6  7  1  1  0  0  0
  6 11  1  0  0  0  0
  8 12  1  0  0  0  0
  9 10  1  1  0  0  0
  9 14  1  0  0  0  0
 11 16  1  0  0  0  0
 12 13  1  6  0  0  0
 12 17  1  0  0  0  0
 14 15  1  6  0  0  0
 14 18  1  0  0  0  0
 15 31  1  0  0  0  0
 16 20  1  0  0  0  0
 17  2  1  1  0  0  0
 17 22  1  0  0  0  0
 18 19  1  6  0  0  0
 18 24  1  0  0  0  0
 18 30  1  0  0  0  0
 20 21  1  0  0  0  0
 20 26  1  1  0  0  0
 22 23  1  6  0  0  0
 22 28  1  0  0  0  0
 24 25  1  0  0  0  0
 26 27  1  0  0  0  0
 28 29  1  1  0  0  0
M  END
>  <CHROM.1>
-172.68545236,-179.07544212,-97.76139063,-166.68158865,122.13418174,78.06804729
0.06857245,12.81794910,37.07302660,-0.90539677,-0.71013028,-2.68070545

>  <Name>
ligand

>  <RI>
0

>  <Rbt.Current_Directory>
/home/itssahil/PROJECTS/Mol_Feturizer/New_Systems/rnas/4GPY

>  <Rbt.Executable>
rbdock ($Id: //depot/dev/client3/rdock/2013.1/src/exe/rbdock.cxx#4 $)

>  <Rbt.Library>
libRbt.so (2013.1, Build901 2013/11/27)

>  <Rbt.Parameter_File>
/export/apps/rDock/src/rDock_2013.1_src/data/scripts/dock_solv.prm

>  <Rbt.Receptor>
prm/pocket_docking_5.prm

>  <SCORE>
-13.8192

>  <SCORE.INTER>
-9.11623

>  <SCORE.INTER.CONST>
1

>  <SCORE.INTER.POLAR>
0

>  <SCORE.INTER.ROT>
6

>  <SCORE.INTER.SOLV>
15.8712

>  <SCORE.INTER.VDW>
-18.9679

>  <SCORE.INTER.norm>
-0.294072

>  <SCORE.INTRA>
-4.70299

>  <SCORE.INTRA.DIHEDRAL>
-9.57061

>  <SCORE.INTRA.DIHEDRAL.0>
14.7001

>  <SCORE.INTRA.POLAR>
0

>  <SCORE.INTRA.POLAR.0>
0

>  <SCORE.INTRA.REPUL>
0

>  <SCORE.INTRA.REPUL.0>
0

>  <SCORE.INTRA.SOLV>
-1.3208

>  <SCORE.INTRA.SOLV.lig_0>
-65.3082

>  <SCORE.INTRA.VDW>
0.742715

>  <SCORE.INTRA.VDW.0>
-4.21408

>  <SCORE.INTRA.norm>
-0.151709

>  <SCORE.RESTR>
0

>  <SCORE.RESTR.CAVITY>
0

>  <SCORE.RESTR.norm>
0

>  <SCORE.SYSTEM>
0

>  <SCORE.SYSTEM.CONST>
0

>  <SCORE.SYSTEM.DIHEDRAL>
0

>  <SCORE.SYSTEM.SOLV>
0

>  <SCORE.SYSTEM.norm>
0

>  <SCORE.heavy>
31

>  <SCORE.norm>
-0.445781

>  <RMSD>
2.780

$$$$
ligand
 OpenBabel11021811493D
libRbt.so/2013.1/901 2013/11/27
 31 33  0  0  0  0  0  0  0  0999 V2000
    3.2045   13.4209   38.0870 C   0  0  2  0  0  0  0  0  0  0  0  0
    2.8841   13.7562   39.4235 O   0  0  0  0  0  0  0  0  0  0  0  0
   -0.6291   13.2245   41.7548 C   0  0  2  0  0  0  0  0  0  0  0  0
   -1.9700   13.3808   42.2069 N   0  0  0  0  0  0  0  0  0  0  0  0
   -2.6266   11.1812   39.7590 C   0  0  2  0  0  0  0  0  0  0  0  0
    4.7626   13.1123   38.0145 C   0  0  2  0  0  0  0  0  0  0  0  0
    5.0800   12.0312   38.9413 N   0  0  0  0  0  0  0  0  0  0  0  0
    0.0786   14.6519   41.7914 C   0  0  0  0  0  0  0  0  0  0  0  0
   -2.8405    9.6333   39.8567 C   0  0  2  0  0  0  0  0  0  0  0  0
   -2.6165    9.2289   41.1907 O   0  0  0  0  0  0  0  0  0  0  0  0
    5.5978   14.4042   38.3425 C   0  0  0  0  0  0  0  0  0  0  0  0
    1.5748   14.4747   41.3040 C   0  0  2  0  0  0  0  0  0  0  0  0
    2.2436   15.7759   41.3396 N   0  0  0  0  0  0  0  0  0  0  0  0
   -1.8301    8.9276   38.8808 C   0  0  1  0  0  0  0  0  0  0  0  0
   -2.0025    7.4418   38.9653 N   0  0  0  0  0  0  0  0  0  0  0  0
    4.9517   15.7022   37.6993 C   0  0  0  0  0  0  0  0  0  0  0  0
    1.5695   13.9082   39.8254 C   0  0  2  0  0  0  0  0  0  0  0  0
   -2.1379    9.4202   37.3607 C   0  0  1  0  0  0  0  0  0  0  0  0
   -3.4464    9.1046   36.9274 O   0  0  0  0  0  0  0  0  0  0  0  0
    3.6968   15.6821   37.1881 C   0  0  1  0  0  0  0  0  0  0  0  0
    2.8719   14.5204   37.1825 O   0  0  0  0  0  0  0  0  0  0  0  0
    0.8421   12.4998   39.7954 C   0  0  2  0  0  0  0  0  0  0  0  0
    0.8292   11.9985   38.4430 O   0  0  0  0  0  0  0  0  0  0  0  0
   -1.9625   10.9663   37.2798 C   0  0  0  0  0  0  0  0  0  0  0  0
   -2.8316   11.6423   38.3262 O   0  0  0  0  0  0  0  0  0  0  0  0
    3.0433   16.8971   36.5741 C   0  0  0  0  0  0  0  0  0  0  0  0
    1.9405   17.2514   37.4361 O   0  0  0  0  0  0  0  0  0  0  0  0
   -0.6447   12.6774   40.2880 C   0  0  1  0  0  0  0  0  0  0  0  0
   -1.2664   11.4165   40.2583 O   0  0  0  0  0  0  0  0  0  0  0  0
   -1.2154    8.8145   36.2949 C   0  0  0  0  0  0  0  0  0  0  0  0
   -0.7675    6.6345   38.8835 C   0  0  0  0  0  0  0  0  0  0  0  0
  1  2  1  1  0  0  0
  1  6  1  0  0  0  0
  1 21  1  0  0  0  0
  3  4  1  6  0  0  0
  3  8  1  0  0  0  0
  3 28  1  0  0  0  0
  5  9  1  0  0  0  0
  5 25  1  0  0  0  0
  5 29  1  6  0  0  0
  6  7  1  1  0  0  0
  6 11  1  0  0  0  0
  8 12  1  0  0  0  0
  9 10  1  1  0  0  0
  9 14  1  0  0  0  0
 11 16  1  0  0  0  0
 12 13  1  6  0  0  0
 12 17  1  0  0  0  0
 14 15  1  6  0  0  0
 14 18  1  0  0  0  0
 15 31  1  0  0  0  0
 16 20  1  0  0  0  0
 17  2  1  1  0  0  0
 17 22  1  0  0  0  0
 18 19  1  6  0  0  0
 18 24  1  0  0  0  0
 18 30  1  0  0  0  0
 20 21  1  0  0  0  0
 20 26  1  1  0  0  0
 22 23  1  6  0  0  0
 22 28  1  0  0  0  0
 24 25  1  0  0  0  0
 26 27  1  0  0  0  0
 28 29  1  1  0  0  0
M  END
>  <CHROM.1>
-171.66142458,177.07642734,-142.26869214,-172.19085284,-113.70710037,104.46678725
0.50446503,12.36588258,38.99478737,-0.51869440,-0.62818894,-2.42347115

>  <Name>
ligand

>  <RI>
0

>  <Rbt.Current_Directory>
/home/itssahil/PROJECTS/Mol_Feturizer/New_Systems/rnas/4GPY

>  <Rbt.Executable>
rbdock ($Id: //depot/dev/client3/rdock/2013.1/src/exe/rbdock.cxx#4 $)

>  <Rbt.Library>
libRbt.so (2013.1, Build901 2013/11/27)

>  <Rbt.Parameter_File>
/export/apps/rDock/src/rDock_2013.1_src/data/scripts/dock_solv.prm

>  <Rbt.Receptor>
prm/pocket_docking_6.prm

>  <SCORE>
-9.94394

>  <SCORE.INTER>
-6.93492

>  <SCORE.INTER.CONST>
1

>  <SCORE.INTER.POLAR>
0

>  <SCORE.INTER.ROT>
6

>  <SCORE.INTER.SOLV>
10.9704

>  <SCORE.INTER.VDW>
-15.8801

>  <SCORE.INTER.norm>
-0.223707

>  <SCORE.INTRA>
-3.00902

>  <SCORE.INTRA.DIHEDRAL>
-5.38451

>  <SCORE.INTRA.DIHEDRAL.0>
14.7001

>  <SCORE.INTRA.POLAR>
0

>  <SCORE.INTRA.POLAR.0>
0

>  <SCORE.INTRA.REPUL>
0

>  <SCORE.INTRA.REPUL.0>
0

>  <SCORE.INTRA.SOLV>
-1.86333

>  <SCORE.INTRA.SOLV.lig_0>
-65.3082

>  <SCORE.INTRA.VDW>
0.614898

>  <SCORE.INTRA.VDW.0>
-4.21408

>  <SCORE.INTRA.norm>
-0.0970652

>  <SCORE.RESTR>
0

>  <SCORE.RESTR.CAVITY>
0

>  <SCORE.RESTR.norm>
0

>  <SCORE.SYSTEM>
0

>  <SCORE.SYSTEM.CONST>
0

>  <SCORE.SYSTEM.DIHEDRAL>
0

>  <SCORE.SYSTEM.SOLV>
0

>  <SCORE.SYSTEM.norm>
0

>  <SCORE.heavy>
31

>  <SCORE.norm>
-0.320772

>  <RMSD>
2.789

$$$$
ligand
 OpenBabel11021811493D
libRbt.so/2013.1/901 2013/11/27
 31 33  0  0  0  0  0  0  0  0999 V2000
    2.6892   14.8391   36.8629 C   0  0  2  0  0  0  0  0  0  0  0  0
    1.7668   15.1287   37.8957 O   0  0  0  0  0  0  0  0  0  0  0  0
   -1.9434   13.3625   38.9798 C   0  0  2  0  0  0  0  0  0  0  0  0
   -3.3143   12.9844   38.9130 N   0  0  0  0  0  0  0  0  0  0  0  0
   -2.4655   10.5793   37.4927 C   0  0  2  0  0  0  0  0  0  0  0  0
    4.1317   15.3042   37.3434 C   0  0  2  0  0  0  0  0  0  0  0  0
    4.4672   14.6166   38.5857 N   0  0  0  0  0  0  0  0  0  0  0  0
   -1.8625   14.9534   38.9338 C   0  0  0  0  0  0  0  0  0  0  0  0
   -2.0720    9.0841   37.7392 C   0  0  2  0  0  0  0  0  0  0  0  0
   -1.5956    8.9537   39.0618 O   0  0  0  0  0  0  0  0  0  0  0  0
    4.1756   16.8654   37.5295 C   0  0  0  0  0  0  0  0  0  0  0  0
   -0.3385   15.3739   39.0246 C   0  0  2  0  0  0  0  0  0  0  0  0
   -0.2455   16.8340   38.9927 N   0  0  0  0  0  0  0  0  0  0  0  0
   -0.9607    8.6832   36.7019 C   0  0  1  0  0  0  0  0  0  0  0  0
   -0.5535    7.2589   36.9252 N   0  0  0  0  0  0  0  0  0  0  0  0
    3.3700   17.6174   36.3887 C   0  0  0  0  0  0  0  0  0  0  0  0
    0.4395   14.7541   37.7927 C   0  0  2  0  0  0  0  0  0  0  0  0
   -1.5641    8.8420   35.1990 C   0  0  1  0  0  0  0  0  0  0  0  0
   -2.6905    8.0209   34.9616 O   0  0  0  0  0  0  0  0  0  0  0  0
    2.5388   16.9446   35.5563 C   0  0  1  0  0  0  0  0  0  0  0  0
    2.3251   15.5379   35.6314 O   0  0  0  0  0  0  0  0  0  0  0  0
    0.3326   13.1728   37.8339 C   0  0  2  0  0  0  0  0  0  0  0  0
    1.0312   12.6179   36.7006 O   0  0  0  0  0  0  0  0  0  0  0  0
   -1.9909   10.3235   34.9741 C   0  0  0  0  0  0  0  0  0  0  0  0
   -2.9544   10.7570   36.0655 O   0  0  0  0  0  0  0  0  0  0  0  0
    1.7490   17.6240   34.4631 C   0  0  0  0  0  0  0  0  0  0  0  0
    1.5107   18.9770   34.9072 O   0  0  0  0  0  0  0  0  0  0  0  0
   -1.1857   12.7568   37.7508 C   0  0  1  0  0  0  0  0  0  0  0  0
   -1.2552   11.3532   37.7951 O   0  0  0  0  0  0  0  0  0  0  0  0
   -0.5795    8.4905   34.0761 C   0  0  0  0  0  0  0  0  0  0  0  0
    0.5122    7.0323   37.9233 C   0  0  0  0  0  0  0  0  0  0  0  0
  1  2  1  1  0  0  0
  1  6  1  0  0  0  0
  1 21  1  0  0  0  0
  3  4  1  6  0  0  0
  3  8  1  0  0  0  0
  3 28  1  0  0  0  0
  5  9  1  0  0  0  0
  5 25  1  0  0  0  0
  5 29  1  6  0  0  0
  6  7  1  1  0  0  0
  6 11  1  0  0  0  0
  8 12  1  0  0  0  0
  9 10  1  1  0  0  0
  9 14  1  0  0  0  0
 11 16  1  0  0  0  0
 12 13  1  6  0  0  0
 12 17  1  0  0  0  0
 14 15  1  1  0  0  0
 14 18  1  0  0  0  0
 15 31  1  0  0  0  0
 16 20  1  0  0  0  0
 17  2  1  1  0  0  0
 17 22  1  0  0  0  0
 18 19  1  6  0  0  0
 18 24  1  0  0  0  0
 18 30  1  0  0  0  0
 20 21  1  0  0  0  0
 20 26  1  1  0  0  0
 22 23  1  6  0  0  0
 22 28  1  0  0  0  0
 24 25  1  0  0  0  0
 26 27  1  0  0  0  0
 28 29  1  1  0  0  0
M  END
>  <CHROM.1>
-175.83562316,-177.48041696,-86.90495627,-173.47222617,-28.53606755,73.40926724
0.10666717,12.87174543,37.03998092,-1.01173517,-0.54306072,-2.82006632

>  <Name>
ligand

>  <RI>
0

>  <Rbt.Current_Directory>
/home/itssahil/PROJECTS/Mol_Feturizer/New_Systems/rnas/4GPY

>  <Rbt.Executable>
rbdock ($Id: //depot/dev/client3/rdock/2013.1/src/exe/rbdock.cxx#4 $)

>  <Rbt.Library>
libRbt.so (2013.1, Build901 2013/11/27)

>  <Rbt.Parameter_File>
/export/apps/rDock/src/rDock_2013.1_src/data/scripts/dock_solv.prm

>  <Rbt.Receptor>
prm/pocket_docking_5.prm

>  <SCORE>
-13.5824

>  <SCORE.INTER>
-9.85121

>  <SCORE.INTER.CONST>
1

>  <SCORE.INTER.POLAR>
0

>  <SCORE.INTER.ROT>
6

>  <SCORE.INTER.SOLV>
14.947

>  <SCORE.INTER.VDW>
-19.1498

>  <SCORE.INTER.norm>
-0.317781

>  <SCORE.INTRA>
-3.7312

>  <SCORE.INTRA.DIHEDRAL>
-10.4472

>  <SCORE.INTRA.DIHEDRAL.0>
14.7001

>  <SCORE.INTRA.POLAR>
0

>  <SCORE.INTRA.POLAR.0>
0

>  <SCORE.INTRA.REPUL>
0

>  <SCORE.INTRA.REPUL.0>
0

>  <SCORE.INTRA.SOLV>
-1.55119

>  <SCORE.INTRA.SOLV.lig_0>
-65.3082

>  <SCORE.INTRA.VDW>
2.26798

>  <SCORE.INTRA.VDW.0>
-4.21408

>  <SCORE.INTRA.norm>
-0.120361

>  <SCORE.RESTR>
0

>  <SCORE.RESTR.CAVITY>
0

>  <SCORE.RESTR.norm>
0

>  <SCORE.SYSTEM>
0

>  <SCORE.SYSTEM.CONST>
0

>  <SCORE.SYSTEM.DIHEDRAL>
0

>  <SCORE.SYSTEM.SOLV>
0

>  <SCORE.SYSTEM.norm>
0

>  <SCORE.heavy>
31

>  <SCORE.norm>
-0.438142

>  <RMSD>
2.791

$$$$
ligand
 OpenBabel11021811493D
libRbt.so/2013.1/901 2013/11/27
 31 33  0  0  0  0  0  0  0  0999 V2000
    3.3022   13.3679   38.1091 C   0  0  2  0  0  0  0  0  0  0  0  0
    2.9909   13.7003   39.4484 O   0  0  0  0  0  0  0  0  0  0  0  0
   -0.5221   13.1837   41.7835 C   0  0  2  0  0  0  0  0  0  0  0  0
   -1.8594   13.3516   42.2420 N   0  0  0  0  0  0  0  0  0  0  0  0
   -2.5576   11.1968   39.7791 C   0  0  2  0  0  0  0  0  0  0  0  0
    4.8547   13.0341   38.0304 C   0  0  2  0  0  0  0  0  0  0  0  0
    5.1567   11.9423   38.9498 N   0  0  0  0  0  0  0  0  0  0  0  0
    0.2048   14.6008   41.8373 C   0  0  0  0  0  0  0  0  0  0  0  0
   -2.7981    9.6524   39.8711 C   0  0  2  0  0  0  0  0  0  0  0  0
   -2.5668    9.2368   41.2003 O   0  0  0  0  0  0  0  0  0  0  0  0
    5.7121   14.3100   38.3639 C   0  0  0  0  0  0  0  0  0  0  0  0
    1.6970   14.4104   41.3428 C   0  0  2  0  0  0  0  0  0  0  0  0
    2.3833   15.7020   41.3941 N   0  0  0  0  0  0  0  0  0  0  0  0
   -1.8113    8.9341   38.8803 C   0  0  1  0  0  0  0  0  0  0  0  0
   -2.0093    7.4511   38.9589 N   0  0  0  0  0  0  0  0  0  0  0  0
    5.0858   15.6224   37.7303 C   0  0  0  0  0  0  0  0  0  0  0  0
    1.6797   13.8644   39.8567 C   0  0  2  0  0  0  0  0  0  0  0  0
   -2.1269    9.4404   37.3663 C   0  0  1  0  0  0  0  0  0  0  0  0
   -3.4455    9.1505   36.9459 O   0  0  0  0  0  0  0  0  0  0  0  0
    3.8294   15.6261   37.2225 C   0  0  1  0  0  0  0  0  0  0  0  0
    2.9853   14.4782   37.2121 O   0  0  0  0  0  0  0  0  0  0  0  0
    0.9335   12.4663   39.8097 C   0  0  2  0  0  0  0  0  0  0  0  0
    0.9097   11.9839   38.4507 O   0  0  0  0  0  0  0  0  0  0  0  0
   -1.9247   10.9835   37.2915 C   0  0  0  0  0  0  0  0  0  0  0  0
   -2.7700   11.6692   38.3510 O   0  0  0  0  0  0  0  0  0  0  0  0
    3.1944   16.8555   36.6176 C   0  0  0  0  0  0  0  0  0  0  0  0
    2.0215   17.1446   37.4084 O   0  0  0  0  0  0  0  0  0  0  0  0
   -0.5494   12.6569   40.3094 C   0  0  1  0  0  0  0  0  0  0  0  0
   -1.1880   11.4050   40.2646 O   0  0  0  0  0  0  0  0  0  0  0  0
   -1.2272    8.8240   36.2872 C   0  0  0  0  0  0  0  0  0  0  0  0
   -0.7918    6.6218   38.8441 C   0  0  0  0  0  0  0  0  0  0  0  0
  1  2  1  1  0  0  0
  1  6  1  0  0  0  0
  1 21  1  0  0  0  0
  3  4  1  6  0  0  0
  3  8  1  0  0  0  0
  3 28  1  0  0  0  0
  5  9  1  0  0  0  0
  5 25  1  0  0  0  0
  5 29  1  6  0  0  0
  6  7  1  1  0  0  0
  6 11  1  0  0  0  0
  8 12  1  0  0  0  0
  9 10  1  1  0  0  0
  9 14  1  0  0  0  0
 11 16  1  0  0  0  0
 12 13  1  6  0  0  0
 12 17  1  0  0  0  0
 14 15  1  6  0  0  0
 14 18  1  0  0  0  0
 15 31  1  0  0  0  0
 16 20  1  0  0  0  0
 17  2  1  1  0  0  0
 17 22  1  0  0  0  0
 18 19  1  6  0  0  0
 18 24  1  0  0  0  0
 18 30  1  0  0  0  0
 20 21  1  0  0  0  0
 20 26  1  1  0  0  0
 22 23  1  6  0  0  0
 22 28  1  0  0  0  0
 24 25  1  0  0  0  0
 26 27  1  0  0  0  0
 28 29  1  1  0  0  0
M  END
>  <CHROM.1>
-171.30025848,177.90313570,-142.92922029,-172.73755380,-119.27888117,103.82037548
0.58155883,12.33673202,39.01170445,-0.49487274,-0.62382269,-2.39517469

>  <Name>
ligand

>  <RI>
0

>  <Rbt.Current_Directory>
/home/itssahil/PROJECTS/Mol_Feturizer/New_Systems/rnas/4GPY

>  <Rbt.Executable>
rbdock ($Id: //depot/dev/client3/rdock/2013.1/src/exe/rbdock.cxx#4 $)

>  <Rbt.Library>
libRbt.so (2013.1, Build901 2013/11/27)

>  <Rbt.Parameter_File>
/export/apps/rDock/src/rDock_2013.1_src/data/scripts/dock_solv.prm

>  <Rbt.Receptor>
prm/pocket_docking_5.prm

>  <SCORE>
-10.0245

>  <SCORE.INTER>
-6.96673

>  <SCORE.INTER.CONST>
1

>  <SCORE.INTER.POLAR>
0

>  <SCORE.INTER.ROT>
6

>  <SCORE.INTER.SOLV>
10.9353

>  <SCORE.INTER.VDW>
-15.8896

>  <SCORE.INTER.norm>
-0.224733

>  <SCORE.INTRA>
-3.05779

>  <SCORE.INTRA.DIHEDRAL>
-5.57538

>  <SCORE.INTRA.DIHEDRAL.0>
14.7001

>  <SCORE.INTRA.POLAR>
0

>  <SCORE.INTRA.POLAR.0>
0

>  <SCORE.INTRA.REPUL>
0

>  <SCORE.INTRA.REPUL.0>
0

>  <SCORE.INTRA.SOLV>
-1.90042

>  <SCORE.INTRA.SOLV.lig_0>
-65.3082

>  <SCORE.INTRA.VDW>
0.680108

>  <SCORE.INTRA.VDW.0>
-4.21408

>  <SCORE.INTRA.norm>
-0.0986384

>  <SCORE.RESTR>
0

>  <SCORE.RESTR.CAVITY>
0

>  <SCORE.RESTR.norm>
0

>  <SCORE.SYSTEM>
0

>  <SCORE.SYSTEM.CONST>
0

>  <SCORE.SYSTEM.DIHEDRAL>
0

>  <SCORE.SYSTEM.SOLV>
0

>  <SCORE.SYSTEM.norm>
0

>  <SCORE.heavy>
31

>  <SCORE.norm>
-0.323372

>  <RMSD>
2.866

$$$$
ligand
 OpenBabel11021811493D
libRbt.so/2013.1/901 2013/11/27
 31 33  0  0  0  0  0  0  0  0999 V2000
    3.0425   14.3062   37.9690 C   0  0  2  0  0  0  0  0  0  0  0  0
    2.9705   14.4936   39.3694 O   0  0  0  0  0  0  0  0  0  0  0  0
    0.2144   12.8731   42.1691 C   0  0  2  0  0  0  0  0  0  0  0  0
   -0.9894   12.6878   42.9061 N   0  0  0  0  0  0  0  0  0  0  0  0
   -1.8216   10.8073   40.8758 C   0  0  2  0  0  0  0  0  0  0  0  0
    4.5423   14.5694   37.5113 C   0  0  2  0  0  0  0  0  0  0  0  0
    5.4288   13.6616   38.2314 N   0  0  0  0  0  0  0  0  0  0  0  0
    0.7130   14.3694   42.3973 C   0  0  0  0  0  0  0  0  0  0  0  0
   -1.7585    9.2594   40.6494 C   0  0  2  0  0  0  0  0  0  0  0  0
   -0.6566    8.7420   41.3644 O   0  0  0  0  0  0  0  0  0  0  0  0
    4.9415   16.0699   37.7622 C   0  0  0  0  0  0  0  0  0  0  0  0
    2.0608   14.5701   41.5905 C   0  0  2  0  0  0  0  0  0  0  0  0
    2.5386   15.9380   41.7960 N   0  0  0  0  0  0  0  0  0  0  0  0
   -1.6042    8.9865   39.1088 C   0  0  1  0  0  0  0  0  0  0  0  0
   -1.5258    7.5105   38.8641 N   0  0  0  0  0  0  0  0  0  0  0  0
    3.7538   17.0616   37.4132 C   0  0  0  0  0  0  0  0  0  0  0  0
    1.7807   14.3190   40.0525 C   0  0  2  0  0  0  0  0  0  0  0  0
   -2.9016    9.5928   38.3360 C   0  0  1  0  0  0  0  0  0  0  0  0
   -4.1209    9.0127   38.7556 O   0  0  0  0  0  0  0  0  0  0  0  0
    2.4955   16.6038   37.2043 C   0  0  1  0  0  0  0  0  0  0  0  0
    2.1415   15.2255   37.2758 O   0  0  0  0  0  0  0  0  0  0  0  0
    1.2622   12.8360   39.8389 C   0  0  2  0  0  0  0  0  0  0  0  0
    0.9959   12.6212   38.4377 O   0  0  0  0  0  0  0  0  0  0  0  0
   -2.9813   11.1265   38.5983 C   0  0  0  0  0  0  0  0  0  0  0  0
   -2.9817   11.3978   40.0928 O   0  0  0  0  0  0  0  0  0  0  0  0
    1.3365   17.5149   36.8772 C   0  0  0  0  0  0  0  0  0  0  0  0
    0.4360   17.4567   38.0044 O   0  0  0  0  0  0  0  0  0  0  0  0
   -0.0754   12.6364   40.6488 C   0  0  1  0  0  0  0  0  0  0  0  0
   -0.5118   11.3148   40.4491 O   0  0  0  0  0  0  0  0  0  0  0  0
   -2.8820    9.4053   36.8134 C   0  0  0  0  0  0  0  0  0  0  0  0
   -0.1687    6.9293   38.8012 C   0  0  0  0  0  0  0  0  0  0  0  0
  1  2  1  1  0  0  0
  1  6  1  0  0  0  0
  1 21  1  0  0  0  0
  3  4  1  1  0  0  0
  3  8  1  0  0  0  0
  3 28  1  0  0  0  0
  5  9  1  0  0  0  0
  5 25  1  0  0  0  0
  5 29  1  6  0  0  0
  6  7  1  1  0  0  0
  6 11  1  0  0  0  0
  8 12  1  0  0  0  0
  9 10  1  1  0  0  0
  9 14  1  0  0  0  0
 11 16  1  0  0  0  0
 12 13  1  6  0  0  0
 12 17  1  0  0  0  0
 14 15  1  1  0  0  0
 14 18  1  0  0  0  0
 15 31  1  0  0  0  0
 16 20  1  0  0  0  0
 17  2  1  6  0  0  0
 17 22  1  0  0  0  0
 18 19  1  1  0  0  0
 18 24  1  0  0  0  0
 18 30  1  0  0  0  0
 20 21  1  0  0  0  0
 20 26  1  1  0  0  0
 22 23  1  6  0  0  0
 22 28  1  0  0  0  0
 24 25  1  0  0  0  0
 26 27  1  0  0  0  0
 28 29  1  1  0  0  0
M  END
>  <CHROM.1>
-179.43060652,-171.23361704,-93.48598386,178.62579451,-113.23440370,70.98182679
0.47539237,12.68912737,39.34174159,-0.06942858,-0.91186531,-1.82410884

>  <Name>
ligand

>  <RI>
0

>  <Rbt.Current_Directory>
/home/itssahil/PROJECTS/Mol_Feturizer/New_Systems/rnas/4GPY

>  <Rbt.Executable>
rbdock ($Id: //depot/dev/client3/rdock/2013.1/src/exe/rbdock.cxx#4 $)

>  <Rbt.Library>
libRbt.so (2013.1, Build901 2013/11/27)

>  <Rbt.Parameter_File>
/export/apps/rDock/src/rDock_2013.1_src/data/scripts/dock_solv.prm

>  <Rbt.Receptor>
prm/pocket_docking_6.prm

>  <SCORE>
-12.1924

>  <SCORE.INTER>
-7.38807

>  <SCORE.INTER.CONST>
1

>  <SCORE.INTER.POLAR>
0

>  <SCORE.INTER.ROT>
6

>  <SCORE.INTER.SOLV>
13.5702

>  <SCORE.INTER.VDW>
-17.0488

>  <SCORE.INTER.norm>
-0.238325

>  <SCORE.INTRA>
-4.80434

>  <SCORE.INTRA.DIHEDRAL>
-11.28

>  <SCORE.INTRA.DIHEDRAL.0>
14.7001

>  <SCORE.INTRA.POLAR>
0

>  <SCORE.INTRA.POLAR.0>
0

>  <SCORE.INTRA.REPUL>
0

>  <SCORE.INTRA.REPUL.0>
0

>  <SCORE.INTRA.SOLV>
-1.6216

>  <SCORE.INTRA.SOLV.lig_0>
-65.3082

>  <SCORE.INTRA.VDW>
1.64647

>  <SCORE.INTRA.VDW.0>
-4.21408

>  <SCORE.INTRA.norm>
-0.154979

>  <SCORE.RESTR>
0

>  <SCORE.RESTR.CAVITY>
0

>  <SCORE.RESTR.norm>
0

>  <SCORE.SYSTEM>
0

>  <SCORE.SYSTEM.CONST>
0

>  <SCORE.SYSTEM.DIHEDRAL>
0

>  <SCORE.SYSTEM.SOLV>
0

>  <SCORE.SYSTEM.norm>
0

>  <SCORE.heavy>
31

>  <SCORE.norm>
-0.393304

>  <RMSD>
2.979

$$$$
ligand
 OpenBabel11021811493D
libRbt.so/2013.1/901 2013/11/27
 31 33  0  0  0  0  0  0  0  0999 V2000
    3.0338   14.3059   37.9165 C   0  0  2  0  0  0  0  0  0  0  0  0
    2.9125   14.4922   39.3136 O   0  0  0  0  0  0  0  0  0  0  0  0
    0.1241   12.7933   42.0337 C   0  0  2  0  0  0  0  0  0  0  0  0
   -1.0957   12.5713   42.7334 N   0  0  0  0  0  0  0  0  0  0  0  0
   -1.7729   10.6378   40.7494 C   0  0  2  0  0  0  0  0  0  0  0  0
    4.5498   14.5646   37.5129 C   0  0  2  0  0  0  0  0  0  0  0  0
    5.4071   13.6532   38.2632 N   0  0  0  0  0  0  0  0  0  0  0  0
    0.5654   14.3063   42.2694 C   0  0  0  0  0  0  0  0  0  0  0  0
   -1.6669    9.1019   40.4647 C   0  0  2  0  0  0  0  0  0  0  0  0
   -0.5257    8.5970   41.1249 O   0  0  0  0  0  0  0  0  0  0  0  0
    4.9447   16.0636   37.7795 C   0  0  0  0  0  0  0  0  0  0  0  0
    1.9306   14.5482   41.5044 C   0  0  2  0  0  0  0  0  0  0  0  0
    2.3562   15.9322   41.7174 N   0  0  0  0  0  0  0  0  0  0  0  0
   -1.5545    8.8892   38.9111 C   0  0  1  0  0  0  0  0  0  0  0  0
   -1.4361    7.4264   38.6101 N   0  0  0  0  0  0  0  0  0  0  0  0
    3.7734   17.0595   37.3894 C   0  0  0  0  0  0  0  0  0  0  0  0
    1.7080   14.2811   39.9597 C   0  0  2  0  0  0  0  0  0  0  0  0
   -2.8958    9.4783   38.2025 C   0  0  1  0  0  0  0  0  0  0  0  0
   -4.0810    8.8428   38.6392 O   0  0  0  0  0  0  0  0  0  0  0  0
    2.5219   16.6060   37.1352 C   0  0  1  0  0  0  0  0  0  0  0  0
    2.1611   15.2288   37.1925 O   0  0  0  0  0  0  0  0  0  0  0  0
    1.2460   12.7808   39.7380 C   0  0  2  0  0  0  0  0  0  0  0  0
    1.0316   12.5509   38.3303 O   0  0  0  0  0  0  0  0  0  0  0  0
   -3.0168   10.9982   38.5231 C   0  0  0  0  0  0  0  0  0  0  0  0
   -2.9768   11.2161   40.0258 O   0  0  0  0  0  0  0  0  0  0  0  0
    1.3783   17.5213   36.7680 C   0  0  0  0  0  0  0  0  0  0  0  0
    0.4653   17.5088   37.8864 O   0  0  0  0  0  0  0  0  0  0  0  0
   -0.1093   12.5403   40.5064 C   0  0  1  0  0  0  0  0  0  0  0  0
   -0.4951   11.2040   40.3002 O   0  0  0  0  0  0  0  0  0  0  0  0
   -2.9203    9.3458   36.6742 C   0  0  0  0  0  0  0  0  0  0  0  0
   -0.0643    6.8997   38.4547 C   0  0  0  0  0  0  0  0  0  0  0  0
  1  2  1  1  0  0  0
  1  6  1  0  0  0  0
  1 21  1  0  0  0  0
  3  4  1  1  0  0  0
  3  8  1  0  0  0  0
  3 28  1  0  0  0  0
  5  9  1  0  0  0  0
  5 25  1  0  0  0  0
  5 29  1  6  0  0  0
  6  7  1  1  0  0  0
  6 11  1  0  0  0  0
  8 12  1  0  0  0  0
  9 10  1  1  0  0  0
  9 14  1  0  0  0  0
 11 16  1  0  0  0  0
 12 13  1  6  0  0  0
 12 17  1  0  0  0  0
 14 15  1  1  0  0  0
 14 18  1  0  0  0  0
 15 31  1  0  0  0  0
 16 20  1  0  0  0  0
 17  2  1  6  0  0  0
 17 22  1  0  0  0  0
 18 19  1  1  0  0  0
 18 24  1  0  0  0  0
 18 30  1  0  0  0  0
 20 21  1  0  0  0  0
 20 26  1  1  0  0  0
 22 23  1  6  0  0  0
 22 28  1  0  0  0  0
 24 25  1  0  0  0  0
 26 27  1  0  0  0  0
 28 29  1  1  0  0  0
M  END
>  <CHROM.1>
-177.43180554,-172.81514836,-94.73675400,178.86500660,-110.87431138,67.71240822
0.47115185,12.62594244,39.22697076,-0.18178687,-0.91425461,-1.94425068

>  <Name>
ligand

>  <RI>
0

>  <Rbt.Current_Directory>
/home/itssahil/PROJECTS/Mol_Feturizer/New_Systems/rnas/4GPY

>  <Rbt.Executable>
rbdock ($Id: //depot/dev/client3/rdock/2013.1/src/exe/rbdock.cxx#4 $)

>  <Rbt.Library>
libRbt.so (2013.1, Build901 2013/11/27)

>  <Rbt.Parameter_File>
/export/apps/rDock/src/rDock_2013.1_src/data/scripts/dock_solv.prm

>  <Rbt.Receptor>
prm/pocket_docking_5.prm

>  <SCORE>
-12.1743

>  <SCORE.INTER>
-7.30045

>  <SCORE.INTER.CONST>
1

>  <SCORE.INTER.POLAR>
0

>  <SCORE.INTER.ROT>
6

>  <SCORE.INTER.SOLV>
13.3227

>  <SCORE.INTER.VDW>
-16.9079

>  <SCORE.INTER.norm>
-0.235498

>  <SCORE.INTRA>
-4.87385

>  <SCORE.INTRA.DIHEDRAL>
-11.5753

>  <SCORE.INTRA.DIHEDRAL.0>
14.7001

>  <SCORE.INTRA.POLAR>
0

>  <SCORE.INTRA.POLAR.0>
0

>  <SCORE.INTRA.REPUL>
0

>  <SCORE.INTRA.REPUL.0>
0

>  <SCORE.INTRA.SOLV>
-1.59818

>  <SCORE.INTRA.SOLV.lig_0>
-65.3082

>  <SCORE.INTRA.VDW>
1.7129

>  <SCORE.INTRA.VDW.0>
-4.21408

>  <SCORE.INTRA.norm>
-0.157221

>  <SCORE.RESTR>
0

>  <SCORE.RESTR.CAVITY>
0

>  <SCORE.RESTR.norm>
0

>  <SCORE.SYSTEM>
0

>  <SCORE.SYSTEM.CONST>
0

>  <SCORE.SYSTEM.DIHEDRAL>
0

>  <SCORE.SYSTEM.SOLV>
0

>  <SCORE.SYSTEM.norm>
0

>  <SCORE.heavy>
31

>  <SCORE.norm>
-0.392719

>  <RMSD>
2.988

$$$$
ligand
 OpenBabel11021811493D
libRbt.so/2013.1/901 2013/11/27
 31 33  0  0  0  0  0  0  0  0999 V2000
    3.2911   13.6356   38.3906 C   0  0  2  0  0  0  0  0  0  0  0  0
    3.2066   14.0111   39.7519 O   0  0  0  0  0  0  0  0  0  0  0  0
    0.1163   13.5186   42.6273 C   0  0  2  0  0  0  0  0  0  0  0  0
   -1.1265   13.6977   43.2983 N   0  0  0  0  0  0  0  0  0  0  0  0
   -2.2555   11.5891   41.4067 C   0  0  2  0  0  0  0  0  0  0  0  0
    4.7836   13.1729   38.0970 C   0  0  2  0  0  0  0  0  0  0  0  0
    5.1282   12.0725   38.9908 N   0  0  0  0  0  0  0  0  0  0  0  0
    0.8572   14.9282   42.5660 C   0  0  0  0  0  0  0  0  0  0  0  0
   -2.5105   10.0474   41.3105 C   0  0  2  0  0  0  0  0  0  0  0  0
   -1.7151    9.3959   42.2781 O   0  0  0  0  0  0  0  0  0  0  0  0
    5.7800   14.3776   38.2701 C   0  0  0  0  0  0  0  0  0  0  0  0
    2.2467   14.7252   41.8341 C   0  0  2  0  0  0  0  0  0  0  0  0
    2.9458   16.0096   41.7766 N   0  0  0  0  0  0  0  0  0  0  0  0
   -2.1330    9.5688   39.8613 C   0  0  1  0  0  0  0  0  0  0  0  0
   -2.3532    8.0915   39.7453 N   0  0  0  0  0  0  0  0  0  0  0  0
    5.1752   15.7286   37.7002 C   0  0  0  0  0  0  0  0  0  0  0  0
    1.9813   14.1863   40.3691 C   0  0  2  0  0  0  0  0  0  0  0  0
   -3.0833   10.3411   38.7896 C   0  0  1  0  0  0  0  0  0  0  0  0
   -4.4607   10.0859   38.9818 O   0  0  0  0  0  0  0  0  0  0  0  0
    3.8624   15.8297   37.3794 C   0  0  1  0  0  0  0  0  0  0  0  0
    2.9366   14.7559   37.5206 O   0  0  0  0  0  0  0  0  0  0  0  0
    1.2227   12.7960   40.4403 C   0  0  2  0  0  0  0  0  0  0  0  0
    0.9724   12.3202   39.1019 O   0  0  0  0  0  0  0  0  0  0  0  0
   -2.8544   11.8769   38.9182 C   0  0  0  0  0  0  0  0  0  0  0  0
   -3.0766   12.3158   40.3553 O   0  0  0  0  0  0  0  0  0  0  0  0
    3.2466   17.0992   36.8413 C   0  0  0  0  0  0  0  0  0  0  0  0
    2.8058   16.8058   35.4979 O   0  0  0  0  0  0  0  0  0  0  0  0
   -0.1568   12.9991   41.1758 C   0  0  1  0  0  0  0  0  0  0  0  0
   -0.8073   11.7538   41.2320 O   0  0  0  0  0  0  0  0  0  0  0  0
   -2.8181    9.9761   37.3232 C   0  0  0  0  0  0  0  0  0  0  0  0
   -1.2840    7.3216   39.0762 C   0  0  0  0  0  0  0  0  0  0  0  0
  1  2  1  1  0  0  0
  1  6  1  0  0  0  0
  1 21  1  0  0  0  0
  3  4  1  1  0  0  0
  3  8  1  0  0  0  0
  3 28  1  0  0  0  0
  5  9  1  0  0  0  0
  5 25  1  0  0  0  0
  5 29  1  6  0  0  0
  6  7  1  1  0  0  0
  6 11  1  0  0  0  0
  8 12  1  0  0  0  0
  9 10  1  1  0  0  0
  9 14  1  0  0  0  0
 11 16  1  0  0  0  0
 12 13  1  6  0  0  0
 12 17  1  0  0  0  0
 14 15  1  1  0  0  0
 14 18  1  0  0  0  0
 15 31  1  0  0  0  0
 16 20  1  0  0  0  0
 17  2  1  1  0  0  0
 17 22  1  0  0  0  0
 18 19  1  1  0  0  0
 18 24  1  0  0  0  0
 18 30  1  0  0  0  0
 20 21  1  0  0  0  0
 20 26  1  1  0  0  0
 22 23  1  6  0  0  0
 22 28  1  0  0  0  0
 24 25  1  0  0  0  0
 26 27  1  0  0  0  0
 28 29  1  1  0  0  0
M  END
>  <CHROM.1>
-166.13818504,176.30194200,-135.35910620,-174.99819205,115.45345922,83.35134020
0.61587149,12.72871382,39.67654239,-0.02664486,-0.70037021,-1.95810410

>  <Name>
ligand

>  <RI>
0

>  <Rbt.Current_Directory>
/home/itssahil/PROJECTS/Mol_Feturizer/New_Systems/rnas/4GPY

>  <Rbt.Executable>
rbdock ($Id: //depot/dev/client3/rdock/2013.1/src/exe/rbdock.cxx#4 $)

>  <Rbt.Library>
libRbt.so (2013.1, Build901 2013/11/27)

>  <Rbt.Parameter_File>
/export/apps/rDock/src/rDock_2013.1_src/data/scripts/dock_solv.prm

>  <Rbt.Receptor>
prm/pocket_docking_5.prm

>  <SCORE>
-11.6841

>  <SCORE.INTER>
-7.57993

>  <SCORE.INTER.CONST>
1

>  <SCORE.INTER.POLAR>
0

>  <SCORE.INTER.ROT>
6

>  <SCORE.INTER.SOLV>
11.5469

>  <SCORE.INTER.VDW>
-16.5023

>  <SCORE.INTER.norm>
-0.244514

>  <SCORE.INTRA>
-4.10414

>  <SCORE.INTRA.DIHEDRAL>
-8.50318

>  <SCORE.INTRA.DIHEDRAL.0>
14.7001

>  <SCORE.INTRA.POLAR>
0

>  <SCORE.INTRA.POLAR.0>
0

>  <SCORE.INTRA.REPUL>
0

>  <SCORE.INTRA.REPUL.0>
0

>  <SCORE.INTRA.SOLV>
-1.71825

>  <SCORE.INTRA.SOLV.lig_0>
-65.3082

>  <SCORE.INTRA.VDW>
1.00658

>  <SCORE.INTRA.VDW.0>
-4.21408

>  <SCORE.INTRA.norm>
-0.132391

>  <SCORE.RESTR>
0

>  <SCORE.RESTR.CAVITY>
0

>  <SCORE.RESTR.norm>
0

>  <SCORE.SYSTEM>
0

>  <SCORE.SYSTEM.CONST>
0

>  <SCORE.SYSTEM.DIHEDRAL>
0

>  <SCORE.SYSTEM.SOLV>
0

>  <SCORE.SYSTEM.norm>
0

>  <SCORE.heavy>
31

>  <SCORE.norm>
-0.376905

>  <RMSD>
3.076

$$$$
ligand
 OpenBabel11021811493D
libRbt.so/2013.1/901 2013/11/27
 31 33  0  0  0  0  0  0  0  0999 V2000
    3.3568   13.4609   38.4917 C   0  0  2  0  0  0  0  0  0  0  0  0
    3.3165   13.8260   39.8579 O   0  0  0  0  0  0  0  0  0  0  0  0
    0.2331   13.6408   42.7764 C   0  0  2  0  0  0  0  0  0  0  0  0
   -0.9824   13.9331   43.4576 N   0  0  0  0  0  0  0  0  0  0  0  0
   -2.3087   11.8884   41.5705 C   0  0  2  0  0  0  0  0  0  0  0  0
    4.8484   13.0407   38.1359 C   0  0  2  0  0  0  0  0  0  0  0  0
    5.2580   11.9450   39.0078 N   0  0  0  0  0  0  0  0  0  0  0  0
    1.0852   14.9840   42.6793 C   0  0  0  0  0  0  0  0  0  0  0  0
   -2.6940   10.3781   41.4232 C   0  0  2  0  0  0  0  0  0  0  0  0
   -1.9777    9.6325   42.3846 O   0  0  0  0  0  0  0  0  0  0  0  0
    5.8180   14.2711   38.2776 C   0  0  0  0  0  0  0  0  0  0  0  0
    2.4442   14.6548   41.9361 C   0  0  2  0  0  0  0  0  0  0  0  0
    3.2446   15.8767   41.8456 N   0  0  0  0  0  0  0  0  0  0  0  0
   -2.3301    9.9101   39.9672 C   0  0  1  0  0  0  0  0  0  0  0  0
   -2.6747    8.4614   39.8027 N   0  0  0  0  0  0  0  0  0  0  0  0
    5.1547   15.6084   37.7414 C   0  0  0  0  0  0  0  0  0  0  0  0
    2.1175   14.1120   40.4850 C   0  0  2  0  0  0  0  0  0  0  0  0
   -3.1881   10.7925   38.9026 C   0  0  1  0  0  0  0  0  0  0  0  0
   -4.5860   10.6528   39.0626 O   0  0  0  0  0  0  0  0  0  0  0  0
    3.8279   15.6756   37.4737 C   0  0  1  0  0  0  0  0  0  0  0  0
    2.9378   14.5761   37.6442 O   0  0  0  0  0  0  0  0  0  0  0  0
    1.2494   12.7897   40.5920 C   0  0  2  0  0  0  0  0  0  0  0  0
    0.9444   12.3109   39.2661 O   0  0  0  0  0  0  0  0  0  0  0  0
   -2.8298   12.2982   39.0816 C   0  0  0  0  0  0  0  0  0  0  0  0
   -3.0423   12.7135   40.5271 O   0  0  0  0  0  0  0  0  0  0  0  0
    3.1570   16.9308   36.9692 C   0  0  0  0  0  0  0  0  0  0  0  0
    2.6372   16.6215   35.6581 O   0  0  0  0  0  0  0  0  0  0  0  0
   -0.0996   13.1182   41.3386 C   0  0  1  0  0  0  0  0  0  0  0  0
   -0.8484   11.9313   41.4265 O   0  0  0  0  0  0  0  0  0  0  0  0
   -2.9258   10.4478   37.4308 C   0  0  0  0  0  0  0  0  0  0  0  0
   -1.6361    7.6076   39.1898 C   0  0  0  0  0  0  0  0  0  0  0  0
  1  2  1  1  0  0  0
  1  6  1  0  0  0  0
  1 21  1  0  0  0  0
  3  4  1  1  0  0  0
  3  8  1  0  0  0  0
  3 28  1  0  0  0  0
  5  9  1  0  0  0  0
  5 25  1  0  0  0  0
  5 29  1  6  0  0  0
  6  7  1  1  0  0  0
  6 11  1  0  0  0  0
  8 12  1  0  0  0  0
  9 10  1  1  0  0  0
  9 14  1  0  0  0  0
 11 16  1  0  0  0  0
 12 13  1  6  0  0  0
 12 17  1  0  0  0  0
 14 15  1  1  0  0  0
 14 18  1  0  0  0  0
 15 31  1  0  0  0  0
 16 20  1  0  0  0  0
 17  2  1  1  0  0  0
 17 22  1  0  0  0  0
 18 19  1  1  0  0  0
 18 24  1  0  0  0  0
 18 30  1  0  0  0  0
 20 21  1  0  0  0  0
 20 26  1  1  0  0  0
 22 23  1  6  0  0  0
 22 28  1  0  0  0  0
 24 25  1  0  0  0  0
 26 27  1  0  0  0  0
 28 29  1  1  0  0  0
M  END
>  <CHROM.1>
-173.54407529,172.29936830,-132.45690873,-172.95790513,117.07539925,85.72420625
0.59939744,12.82824373,39.79010209,0.04476400,-0.63495391,-1.87976606

>  <Name>
ligand

>  <RI>
0

>  <Rbt.Current_Directory>
/home/itssahil/PROJECTS/Mol_Feturizer/New_Systems/rnas/4GPY

>  <Rbt.Executable>
rbdock ($Id: //depot/dev/client3/rdock/2013.1/src/exe/rbdock.cxx#4 $)

>  <Rbt.Library>
libRbt.so (2013.1, Build901 2013/11/27)

>  <Rbt.Parameter_File>
/export/apps/rDock/src/rDock_2013.1_src/data/scripts/dock_solv.prm

>  <Rbt.Receptor>
prm/pocket_docking_8.prm

>  <SCORE>
-11.6999

>  <SCORE.INTER>
-7.37884

>  <SCORE.INTER.CONST>
1

>  <SCORE.INTER.POLAR>
0

>  <SCORE.INTER.ROT>
6

>  <SCORE.INTER.SOLV>
11.0017

>  <SCORE.INTER.VDW>
-16.1865

>  <SCORE.INTER.norm>
-0.238027

>  <SCORE.INTRA>
-4.32103

>  <SCORE.INTRA.DIHEDRAL>
-8.39326

>  <SCORE.INTRA.DIHEDRAL.0>
14.7001

>  <SCORE.INTRA.POLAR>
0

>  <SCORE.INTRA.POLAR.0>
0

>  <SCORE.INTRA.REPUL>
0

>  <SCORE.INTRA.REPUL.0>
0

>  <SCORE.INTRA.SOLV>
-1.80887

>  <SCORE.INTRA.SOLV.lig_0>
-65.3082

>  <SCORE.INTRA.VDW>
0.780033

>  <SCORE.INTRA.VDW.0>
-4.21408

>  <SCORE.INTRA.norm>
-0.139388

>  <SCORE.RESTR>
0

>  <SCORE.RESTR.CAVITY>
0

>  <SCORE.RESTR.norm>
0

>  <SCORE.SYSTEM>
0

>  <SCORE.SYSTEM.CONST>
0

>  <SCORE.SYSTEM.DIHEDRAL>
0

>  <SCORE.SYSTEM.SOLV>
0

>  <SCORE.SYSTEM.norm>
0

>  <SCORE.heavy>
31

>  <SCORE.norm>
-0.377415

>  <RMSD>
3.190

$$$$
ligand
 OpenBabel11021811493D
libRbt.so/2013.1/901 2013/11/27
 31 33  0  0  0  0  0  0  0  0999 V2000
    1.7409   15.8898   38.5837 C   0  0  2  0  0  0  0  0  0  0  0  0
    0.5348   15.6137   37.8980 O   0  0  0  0  0  0  0  0  0  0  0  0
   -1.7861   14.0443   41.0934 C   0  0  2  0  0  0  0  0  0  0  0  0
   -2.9171   13.5745   41.8193 N   0  0  0  0  0  0  0  0  0  0  0  0
   -2.3346   10.8685   40.7045 C   0  0  2  0  0  0  0  0  0  0  0  0
    2.7534   16.5564   37.5548 C   0  0  2  0  0  0  0  0  0  0  0  0
    2.1488   17.7639   37.0025 N   0  0  0  0  0  0  0  0  0  0  0  0
   -2.0805   15.5387   40.6246 C   0  0  0  0  0  0  0  0  0  0  0  0
   -1.7416    9.4462   40.4275 C   0  0  2  0  0  0  0  0  0  0  0  0
   -0.5025    9.3348   41.0950 O   0  0  0  0  0  0  0  0  0  0  0  0
    3.1330   15.5401   36.4159 C   0  0  0  0  0  0  0  0  0  0  0  0
   -0.8157   16.0665   39.8314 C   0  0  2  0  0  0  0  0  0  0  0  0
   -1.0651   17.4426   39.4002 N   0  0  0  0  0  0  0  0  0  0  0  0
   -1.5586    9.2757   38.8754 C   0  0  1  0  0  0  0  0  0  0  0  0
   -0.9771    7.9266   38.5820 N   0  0  0  0  0  0  0  0  0  0  0  0
    3.3294   14.0705   36.9793 C   0  0  0  0  0  0  0  0  0  0  0  0
   -0.5760   15.1385   38.5710 C   0  0  2  0  0  0  0  0  0  0  0  0
   -3.0139    9.4029   38.1585 C   0  0  1  0  0  0  0  0  0  0  0  0
   -3.9362    8.4232   38.5931 O   0  0  0  0  0  0  0  0  0  0  0  0
    2.9315   13.7399   38.2319 C   0  0  1  0  0  0  0  0  0  0  0  0
    2.3202   14.6630   39.1288 O   0  0  0  0  0  0  0  0  0  0  0  0
   -0.3082   13.6499   39.0466 C   0  0  2  0  0  0  0  0  0  0  0  0
   -0.1057   12.8096   37.8919 O   0  0  0  0  0  0  0  0  0  0  0  0
   -3.6162   10.8054   38.4713 C   0  0  0  0  0  0  0  0  0  0  0  0
   -3.6562   11.0293   39.9731 O   0  0  0  0  0  0  0  0  0  0  0  0
    3.0938   12.3514   38.8028 C   0  0  0  0  0  0  0  0  0  0  0  0
    3.9874   12.4716   39.9305 O   0  0  0  0  0  0  0  0  0  0  0  0
   -1.5655   13.1293   39.8422 C   0  0  1  0  0  0  0  0  0  0  0  0
   -1.3025   11.8122   40.2580 O   0  0  0  0  0  0  0  0  0  0  0  0
   -2.9864    9.2647   36.6307 C   0  0  0  0  0  0  0  0  0  0  0  0
    0.4940    7.8609   38.4607 C   0  0  0  0  0  0  0  0  0  0  0  0
  1  2  1  6  0  0  0
  1  6  1  0  0  0  0
  1 21  1  0  0  0  0
  3  4  1  6  0  0  0
  3  8  1  0  0  0  0
  3 28  1  0  0  0  0
  5  9  1  0  0  0  0
  5 25  1  0  0  0  0
  5 29  1  6  0  0  0
  6  7  1  6  0  0  0
  6 11  1  0  0  0  0
  8 12  1  0  0  0  0
  9 10  1  1  0  0  0
  9 14  1  0  0  0  0
 11 16  1  0  0  0  0
 12 13  1  6  0  0  0
 12 17  1  0  0  0  0
 14 15  1  1  0  0  0
 14 18  1  0  0  0  0
 15 31  1  0  0  0  0
 16 20  1  0  0  0  0
 17  2  1  1  0  0  0
 17 22  1  0  0  0  0
 18 19  1  1  0  0  0
 18 24  1  0  0  0  0
 18 30  1  0  0  0  0
 20 21  1  0  0  0  0
 20 26  1  6  0  0  0
 22 23  1  6  0  0  0
 22 28  1  0  0  0  0
 24 25  1  0  0  0  0
 26 27  1  0  0  0  0
 28 29  1  1  0  0  0
M  END
>  <CHROM.1>
-174.18403803,154.61577475,-93.59063331,49.44748781,116.96831970,78.48125670
-0.32750156,12.71045383,38.99707991,0.93999829,0.36234656,0.09763967

>  <Name>
ligand

>  <RI>
0

>  <Rbt.Current_Directory>
/home/itssahil/PROJECTS/Mol_Feturizer/New_Systems/rnas/4GPY

>  <Rbt.Executable>
rbdock ($Id: //depot/dev/client3/rdock/2013.1/src/exe/rbdock.cxx#4 $)

>  <Rbt.Library>
libRbt.so (2013.1, Build901 2013/11/27)

>  <Rbt.Parameter_File>
/export/apps/rDock/src/rDock_2013.1_src/data/scripts/dock_solv.prm

>  <Rbt.Receptor>
prm/pocket_docking_3.prm

>  <SCORE>
-5.51031

>  <SCORE.INTER>
-2.87395

>  <SCORE.INTER.CONST>
1

>  <SCORE.INTER.POLAR>
0

>  <SCORE.INTER.ROT>
6

>  <SCORE.INTER.SOLV>
12.2105

>  <SCORE.INTER.VDW>
-13.5861

>  <SCORE.INTER.norm>
-0.0927081

>  <SCORE.INTRA>
-2.63636

>  <SCORE.INTRA.DIHEDRAL>
-7.29197

>  <SCORE.INTRA.DIHEDRAL.0>
14.7001

>  <SCORE.INTRA.POLAR>
0

>  <SCORE.INTRA.POLAR.0>
0

>  <SCORE.INTRA.REPUL>
0

>  <SCORE.INTRA.REPUL.0>
0

>  <SCORE.INTRA.SOLV>
0.304636

>  <SCORE.INTRA.SOLV.lig_0>
-65.3082

>  <SCORE.INTRA.VDW>
0.85731

>  <SCORE.INTRA.VDW.0>
-4.21408

>  <SCORE.INTRA.norm>
-0.0850437

>  <SCORE.RESTR>
0

>  <SCORE.RESTR.CAVITY>
0

>  <SCORE.RESTR.norm>
0

>  <SCORE.SYSTEM>
0

>  <SCORE.SYSTEM.CONST>
0

>  <SCORE.SYSTEM.DIHEDRAL>
0

>  <SCORE.SYSTEM.SOLV>
0

>  <SCORE.SYSTEM.norm>
0

>  <SCORE.heavy>
31

>  <SCORE.norm>
-0.177752

>  <RMSD>
3.235

$$$$
ligand
 OpenBabel11021811493D
libRbt.so/2013.1/901 2013/11/27
 31 33  0  0  0  0  0  0  0  0999 V2000
    2.6542   14.9735   36.5464 C   0  0  2  0  0  0  0  0  0  0  0  0
    1.6936   15.1233   37.5740 O   0  0  0  0  0  0  0  0  0  0  0  0
   -1.6337   12.6951   38.6195 C   0  0  2  0  0  0  0  0  0  0  0  0
   -2.9235   12.0957   38.5570 N   0  0  0  0  0  0  0  0  0  0  0  0
   -1.7622    9.9461   37.1807 C   0  0  2  0  0  0  0  0  0  0  0  0
    4.0619   15.4496   37.1122 C   0  0  2  0  0  0  0  0  0  0  0  0
    4.3952   14.6596   38.2926 N   0  0  0  0  0  0  0  0  0  0  0  0
   -1.8215   14.2767   38.6730 C   0  0  0  0  0  0  0  0  0  0  0  0
   -1.0853    8.5344   37.1629 C   0  0  2  0  0  0  0  0  0  0  0  0
   -0.2951    8.3968   38.3247 O   0  0  0  0  0  0  0  0  0  0  0  0
    4.0318   16.9860   37.4477 C   0  0  0  0  0  0  0  0  0  0  0  0
   -0.3872   14.9424   38.7591 C   0  0  2  0  0  0  0  0  0  0  0  0
   -0.5407   16.3966   38.8181 N   0  0  0  0  0  0  0  0  0  0  0  0
   -0.2010    8.4216   35.8680 C   0  0  1  0  0  0  0  0  0  0  0  0
    0.4722    7.0837   35.8327 N   0  0  0  0  0  0  0  0  0  0  0  0
    3.2235   17.8106   36.3603 C   0  0  0  0  0  0  0  0  0  0  0  0
    0.4450   14.5368   37.4746 C   0  0  2  0  0  0  0  0  0  0  0  0
   -1.1600    8.5771   34.5625 C   0  0  1  0  0  0  0  0  0  0  0  0
   -2.1626    7.5829   34.4867 O   0  0  0  0  0  0  0  0  0  0  0  0
    2.4446   17.1874   35.4429 C   0  0  1  0  0  0  0  0  0  0  0  0
    2.2915   15.7724   35.3769 O   0  0  0  0  0  0  0  0  0  0  0  0
    0.6054   12.9605   37.4175 C   0  0  2  0  0  0  0  0  0  0  0  0
    1.3517   12.5996   36.2372 O   0  0  0  0  0  0  0  0  0  0  0  0
   -1.8614    9.9676   34.6071 C   0  0  0  0  0  0  0  0  0  0  0  0
   -2.5967   10.1355   35.9256 O   0  0  0  0  0  0  0  0  0  0  0  0
    1.6540   17.9359   34.3964 C   0  0  0  0  0  0  0  0  0  0  0  0
    2.4614   19.0653   33.9999 O   0  0  0  0  0  0  0  0  0  0  0  0
   -0.8237   12.2999   37.3393 C   0  0  1  0  0  0  0  0  0  0  0  0
   -0.6562   10.9045   37.2957 O   0  0  0  0  0  0  0  0  0  0  0  0
   -0.4252    8.4957   33.2181 C   0  0  0  0  0  0  0  0  0  0  0  0
   -0.4039    5.9062   36.0036 C   0  0  0  0  0  0  0  0  0  0  0  0
  1  2  1  1  0  0  0
  1  6  1  0  0  0  0
  1 21  1  0  0  0  0
  3  4  1  6  0  0  0
  3  8  1  0  0  0  0
  3 28  1  0  0  0  0
  5  9  1  0  0  0  0
  5 25  1  0  0  0  0
  5 29  1  6  0  0  0
  6  7  1  1  0  0  0
  6 11  1  0  0  0  0
  8 12  1  0  0  0  0
  9 10  1  1  0  0  0
  9 14  1  0  0  0  0
 11 16  1  0  0  0  0
 12 13  1  6  0  0  0
 12 17  1  0  0  0  0
 14 15  1  6  0  0  0
 14 18  1  0  0  0  0
 15 31  1  0  0  0  0
 16 20  1  0  0  0  0
 17  2  1  1  0  0  0
 17 22  1  0  0  0  0
 18 19  1  1  0  0  0
 18 24  1  0  0  0  0
 18 30  1  0  0  0  0
 20 21  1  0  0  0  0
 20 26  1  1  0  0  0
 22 23  1  6  0  0  0
 22 28  1  0  0  0  0
 24 25  1  0  0  0  0
 26 27  1  0  0  0  0
 28 29  1  1  0  0  0
M  END
>  <CHROM.1>
-166.39505832,179.65588567,51.95693760,-178.08720948,36.20853774,63.31112177
0.35540750,12.61625195,36.57940949,-0.97998524,-0.79977889,-2.63443194

>  <Name>
ligand

>  <RI>
0

>  <Rbt.Current_Directory>
/home/itssahil/PROJECTS/Mol_Feturizer/New_Systems/rnas/4GPY

>  <Rbt.Executable>
rbdock ($Id: //depot/dev/client3/rdock/2013.1/src/exe/rbdock.cxx#4 $)

>  <Rbt.Library>
libRbt.so (2013.1, Build901 2013/11/27)

>  <Rbt.Parameter_File>
/export/apps/rDock/src/rDock_2013.1_src/data/scripts/dock_solv.prm

>  <Rbt.Receptor>
prm/pocket_docking_8.prm

>  <SCORE>
-10.1756

>  <SCORE.INTER>
-8.7793

>  <SCORE.INTER.CONST>
1

>  <SCORE.INTER.POLAR>
0

>  <SCORE.INTER.ROT>
6

>  <SCORE.INTER.SOLV>
13.9503

>  <SCORE.INTER.VDW>
-18.103

>  <SCORE.INTER.norm>
-0.283203

>  <SCORE.INTRA>
-1.3963

>  <SCORE.INTRA.DIHEDRAL>
-10.7421

>  <SCORE.INTRA.DIHEDRAL.0>
14.7001

>  <SCORE.INTRA.POLAR>
0

>  <SCORE.INTRA.POLAR.0>
0

>  <SCORE.INTRA.REPUL>
0

>  <SCORE.INTRA.REPUL.0>
0

>  <SCORE.INTRA.SOLV>
-1.13061

>  <SCORE.INTRA.SOLV.lig_0>
-65.3082

>  <SCORE.INTRA.VDW>
4.54007

>  <SCORE.INTRA.VDW.0>
-4.21408

>  <SCORE.INTRA.norm>
-0.0450418

>  <SCORE.RESTR>
0

>  <SCORE.RESTR.CAVITY>
0

>  <SCORE.RESTR.norm>
0

>  <SCORE.SYSTEM>
0

>  <SCORE.SYSTEM.CONST>
0

>  <SCORE.SYSTEM.DIHEDRAL>
0

>  <SCORE.SYSTEM.SOLV>
0

>  <SCORE.SYSTEM.norm>
0

>  <SCORE.heavy>
31

>  <SCORE.norm>
-0.328245

>  <RMSD>
3.535

$$$$
ligand
 OpenBabel11021811493D
libRbt.so/2013.1/901 2013/11/27
 31 33  0  0  0  0  0  0  0  0999 V2000
    2.4248   14.9680   37.2124 C   0  0  2  0  0  0  0  0  0  0  0  0
    1.9640   14.9087   38.5486 O   0  0  0  0  0  0  0  0  0  0  0  0
   -1.4803   16.4630   40.4931 C   0  0  2  0  0  0  0  0  0  0  0  0
   -2.8502   16.6879   40.8088 N   0  0  0  0  0  0  0  0  0  0  0  0
   -2.6575   14.5960   42.7228 C   0  0  2  0  0  0  0  0  0  0  0  0
    3.3371   13.6931   36.9468 C   0  0  2  0  0  0  0  0  0  0  0  0
    2.5594   12.4859   37.2047 N   0  0  0  0  0  0  0  0  0  0  0  0
   -1.2513   16.8501   38.9643 C   0  0  0  0  0  0  0  0  0  0  0  0
   -2.3886   14.0469   44.1641 C   0  0  2  0  0  0  0  0  0  0  0  0
   -1.4173   14.8620   44.7850 O   0  0  0  0  0  0  0  0  0  0  0  0
    4.6271   13.7395   37.8457 C   0  0  0  0  0  0  0  0  0  0  0  0
    0.2760   16.6154   38.6181 C   0  0  2  0  0  0  0  0  0  0  0  0
    0.5069   16.9747   37.2184 N   0  0  0  0  0  0  0  0  0  0  0  0
   -1.8819   12.5634   44.0462 C   0  0  1  0  0  0  0  0  0  0  0  0
   -1.6015   12.0167   45.4126 N   0  0  0  0  0  0  0  0  0  0  0  0
    5.2182   15.2076   37.9520 C   0  0  0  0  0  0  0  0  0  0  0  0
    0.6265   15.0889   38.8508 C   0  0  2  0  0  0  0  0  0  0  0  0
   -3.0398   11.6684   43.3348 C   0  0  1  0  0  0  0  0  0  0  0  0
   -4.2543   11.6519   44.0589 O   0  0  0  0  0  0  0  0  0  0  0  0
    4.5050   16.2832   37.5384 C   0  0  1  0  0  0  0  0  0  0  0  0
    3.1961   16.1888   36.9835 O   0  0  0  0  0  0  0  0  0  0  0  0
    0.3723   14.7076   40.3686 C   0  0  2  0  0  0  0  0  0  0  0  0
    0.6801   13.3126   40.5678 O   0  0  0  0  0  0  0  0  0  0  0  0
   -3.3312   12.2444   41.9167 C   0  0  0  0  0  0  0  0  0  0  0  0
   -3.6783   13.7197   42.0175 O   0  0  0  0  0  0  0  0  0  0  0  0
    5.0285   17.6967   37.6291 C   0  0  0  0  0  0  0  0  0  0  0  0
    5.0215   18.2255   36.2856 O   0  0  0  0  0  0  0  0  0  0  0  0
   -1.1469   14.9491   40.7129 C   0  0  1  0  0  0  0  0  0  0  0  0
   -1.3462   14.6104   42.0629 O   0  0  0  0  0  0  0  0  0  0  0  0
   -2.6767   10.1899   43.1451 C   0  0  0  0  0  0  0  0  0  0  0  0
   -0.2044   12.1172   45.8831 C   0  0  0  0  0  0  0  0  0  0  0  0
  1  2  1  1  0  0  0
  1  6  1  0  0  0  0
  1 21  1  0  0  0  0
  3  4  1  6  0  0  0
  3  8  1  0  0  0  0
  3 28  1  0  0  0  0
  5  9  1  0  0  0  0
  5 25  1  0  0  0  0
  5 29  1  6  0  0  0
  6  7  1  1  0  0  0
  6 11  1  0  0  0  0
  8 12  1  0  0  0  0
  9 10  1  6  0  0  0
  9 14  1  0  0  0  0
 11 16  1  0  0  0  0
 12 13  1  6  0  0  0
 12 17  1  0  0  0  0
 14 15  1  1  0  0  0
 14 18  1  0  0  0  0
 15 31  1  0  0  0  0
 16 20  1  0  0  0  0
 17  2  1  1  0  0  0
 17 22  1  0  0  0  0
 18 19  1  1  0  0  0
 18 24  1  0  0  0  0
 18 30  1  0  0  0  0
 20 21  1  0  0  0  0
 20 26  1  1  0  0  0
 22 23  1  6  0  0  0
 22 28  1  0  0  0  0
 24 25  1  0  0  0  0
 26 27  1  0  0  0  0
 28 29  1  1  0  0  0
M  END
>  <CHROM.1>
-131.11656825,175.35773585,-94.61266243,-70.96792804,121.64805079,66.81853352
0.16756061,14.48868115,40.48181059,-0.73814262,-0.49131084,2.51545397

>  <Name>
ligand

>  <RI>
0

>  <Rbt.Current_Directory>
/home/itssahil/PROJECTS/Mol_Feturizer/New_Systems/rnas/4GPY

>  <Rbt.Executable>
rbdock ($Id: //depot/dev/client3/rdock/2013.1/src/exe/rbdock.cxx#4 $)

>  <Rbt.Library>
libRbt.so (2013.1, Build901 2013/11/27)

>  <Rbt.Parameter_File>
/export/apps/rDock/src/rDock_2013.1_src/data/scripts/dock_solv.prm

>  <Rbt.Receptor>
prm/pocket_docking_6.prm

>  <SCORE>
-11.1415

>  <SCORE.INTER>
-10.6065

>  <SCORE.INTER.CONST>
1

>  <SCORE.INTER.POLAR>
0

>  <SCORE.INTER.ROT>
6

>  <SCORE.INTER.SOLV>
13.0799

>  <SCORE.INTER.VDW>
-19.0309

>  <SCORE.INTER.norm>
-0.342144

>  <SCORE.INTRA>
-0.534999

>  <SCORE.INTRA.DIHEDRAL>
-4.74774

>  <SCORE.INTRA.DIHEDRAL.0>
14.7001

>  <SCORE.INTRA.POLAR>
0

>  <SCORE.INTRA.POLAR.0>
0

>  <SCORE.INTRA.REPUL>
0

>  <SCORE.INTRA.REPUL.0>
0

>  <SCORE.INTRA.SOLV>
1.03163

>  <SCORE.INTRA.SOLV.lig_0>
-65.3082

>  <SCORE.INTRA.VDW>
1.32305

>  <SCORE.INTRA.VDW.0>
-4.21408

>  <SCORE.INTRA.norm>
-0.017258

>  <SCORE.RESTR>
0

>  <SCORE.RESTR.CAVITY>
0

>  <SCORE.RESTR.norm>
0

>  <SCORE.SYSTEM>
0

>  <SCORE.SYSTEM.CONST>
0

>  <SCORE.SYSTEM.DIHEDRAL>
0

>  <SCORE.SYSTEM.SOLV>
0

>  <SCORE.SYSTEM.norm>
0

>  <SCORE.heavy>
31

>  <SCORE.norm>
-0.359402

>  <RMSD>
3.554

$$$$
ligand
 OpenBabel11021811493D
libRbt.so/2013.1/901 2013/11/27
 31 33  0  0  0  0  0  0  0  0999 V2000
    3.1893   14.4280   38.5724 C   0  0  2  0  0  0  0  0  0  0  0  0
    3.4221   14.8988   39.8860 O   0  0  0  0  0  0  0  0  0  0  0  0
    1.0591   14.3526   43.3757 C   0  0  2  0  0  0  0  0  0  0  0  0
    0.0109   14.5322   44.3221 N   0  0  0  0  0  0  0  0  0  0  0  0
   -1.4265   12.4919   42.9818 C   0  0  2  0  0  0  0  0  0  0  0  0
    4.5705   14.4553   37.7852 C   0  0  2  0  0  0  0  0  0  0  0  0
    5.5434   13.6335   38.4969 N   0  0  0  0  0  0  0  0  0  0  0  0
    1.8158   15.7442   43.2004 C   0  0  0  0  0  0  0  0  0  0  0  0
   -1.8009   10.9796   42.8269 C   0  0  2  0  0  0  0  0  0  0  0  0
   -0.6907   10.1969   43.2119 O   0  0  0  0  0  0  0  0  0  0  0  0
    5.0857   15.9327   37.6240 C   0  0  0  0  0  0  0  0  0  0  0  0
    2.9920   15.5399   42.1599 C   0  0  2  0  0  0  0  0  0  0  0  0
    3.7045   16.8072   41.9929 N   0  0  0  0  0  0  0  0  0  0  0  0
   -2.1811   10.7112   41.3253 C   0  0  1  0  0  0  0  0  0  0  0  0
   -2.5297    9.2653   41.1446 N   0  0  0  0  0  0  0  0  0  0  0  0
    3.9006   16.9385   37.3081 C   0  0  0  0  0  0  0  0  0  0  0  0
    2.3784   15.0765   40.7758 C   0  0  2  0  0  0  0  0  0  0  0  0
   -3.4683   11.6283   40.9380 C   0  0  1  0  0  0  0  0  0  0  0  0
   -4.6082   11.3495   41.7269 O   0  0  0  0  0  0  0  0  0  0  0  0
    2.6059   16.5652   37.4523 C   0  0  1  0  0  0  0  0  0  0  0  0
    2.2084   15.2678   37.8868 O   0  0  0  0  0  0  0  0  0  0  0  0
    1.6074   13.7042   40.9657 C   0  0  2  0  0  0  0  0  0  0  0  0
    1.0397   13.2975   39.7037 O   0  0  0  0  0  0  0  0  0  0  0  0
   -3.1021   13.1301   41.1328 C   0  0  0  0  0  0  0  0  0  0  0  0
   -2.5935   13.3609   42.5453 O   0  0  0  0  0  0  0  0  0  0  0  0
    1.4496   17.4943   37.1690 C   0  0  0  0  0  0  0  0  0  0  0  0
    0.5758   17.4261   38.3165 O   0  0  0  0  0  0  0  0  0  0  0  0
    0.4418   13.9081   42.0073 C   0  0  1  0  0  0  0  0  0  0  0  0
   -0.2223   12.6787   42.1633 O   0  0  0  0  0  0  0  0  0  0  0  0
   -3.9478   11.4748   39.4887 C   0  0  0  0  0  0  0  0  0  0  0  0
   -2.1863    8.6683   39.8373 C   0  0  0  0  0  0  0  0  0  0  0  0
  1  2  1  1  0  0  0
  1  6  1  0  0  0  0
  1 21  1  0  0  0  0
  3  4  1  1  0  0  0
  3  8  1  0  0  0  0
  3 28  1  0  0  0  0
  5  9  1  0  0  0  0
  5 25  1  0  0  0  0
  5 29  1  6  0  0  0
  6  7  1  1  0  0  0
  6 11  1  0  0  0  0
  8 12  1  0  0  0  0
  9 10  1  6  0  0  0
  9 14  1  0  0  0  0
 11 16  1  0  0  0  0
 12 13  1  6  0  0  0
 12 17  1  0  0  0  0
 14 15  1  1  0  0  0
 14 18  1  0  0  0  0
 15 31  1  0  0  0  0
 16 20  1  0  0  0  0
 17  2  1  6  0  0  0
 17 22  1  0  0  0  0
 18 19  1  1  0  0  0
 18 24  1  0  0  0  0
 18 30  1  0  0  0  0
 20 21  1  0  0  0  0
 20 26  1  1  0  0  0
 22 23  1  6  0  0  0
 22 28  1  0  0  0  0
 24 25  1  0  0  0  0
 26 27  1  0  0  0  0
 28 29  1  1  0  0  0
M  END
>  <CHROM.1>
175.32717443,179.15654059,-147.09455536,177.27814090,-130.32077500,66.00834061
0.56828181,13.72388659,40.57970872,0.32471073,-0.68676160,-1.65459429

>  <Name>
ligand

>  <RI>
0

>  <Rbt.Current_Directory>
/home/itssahil/PROJECTS/Mol_Feturizer/New_Systems/rnas/4GPY

>  <Rbt.Executable>
rbdock ($Id: //depot/dev/client3/rdock/2013.1/src/exe/rbdock.cxx#4 $)

>  <Rbt.Library>
libRbt.so (2013.1, Build901 2013/11/27)

>  <Rbt.Parameter_File>
/export/apps/rDock/src/rDock_2013.1_src/data/scripts/dock_solv.prm

>  <Rbt.Receptor>
prm/pocket_docking_7.prm

>  <SCORE>
-10.7806

>  <SCORE.INTER>
-6.27732

>  <SCORE.INTER.CONST>
1

>  <SCORE.INTER.POLAR>
0

>  <SCORE.INTER.ROT>
6

>  <SCORE.INTER.SOLV>
14.9365

>  <SCORE.INTER.VDW>
-16.7637

>  <SCORE.INTER.norm>
-0.202494

>  <SCORE.INTRA>
-4.50325

>  <SCORE.INTRA.DIHEDRAL>
-11.8595

>  <SCORE.INTRA.DIHEDRAL.0>
14.7001

>  <SCORE.INTRA.POLAR>
0

>  <SCORE.INTRA.POLAR.0>
0

>  <SCORE.INTRA.REPUL>
0

>  <SCORE.INTRA.REPUL.0>
0

>  <SCORE.INTRA.SOLV>
-1.51089

>  <SCORE.INTRA.SOLV.lig_0>
-65.3082

>  <SCORE.INTRA.VDW>
2.18195

>  <SCORE.INTRA.VDW.0>
-4.21408

>  <SCORE.INTRA.norm>
-0.145266

>  <SCORE.RESTR>
0

>  <SCORE.RESTR.CAVITY>
0

>  <SCORE.RESTR.norm>
0

>  <SCORE.SYSTEM>
0

>  <SCORE.SYSTEM.CONST>
0

>  <SCORE.SYSTEM.DIHEDRAL>
0

>  <SCORE.SYSTEM.SOLV>
0

>  <SCORE.SYSTEM.norm>
0

>  <SCORE.heavy>
31

>  <SCORE.norm>
-0.34776

>  <RMSD>
3.575

$$$$
ligand
 OpenBabel11021811493D
libRbt.so/2013.1/901 2013/11/27
 31 33  0  0  0  0  0  0  0  0999 V2000
    3.1570   13.5684   36.6516 C   0  0  2  0  0  0  0  0  0  0  0  0
    1.9035   13.6008   37.3066 O   0  0  0  0  0  0  0  0  0  0  0  0
   -1.6874   11.4093   36.7045 C   0  0  2  0  0  0  0  0  0  0  0  0
   -2.5833   10.3055   36.6290 N   0  0  0  0  0  0  0  0  0  0  0  0
   -3.2725   10.8015   39.3633 C   0  0  2  0  0  0  0  0  0  0  0  0
    4.1830   12.7916   37.5854 C   0  0  2  0  0  0  0  0  0  0  0  0
    3.6692   11.4521   37.8508 N   0  0  0  0  0  0  0  0  0  0  0  0
   -0.4727   11.1339   35.7103 C   0  0  0  0  0  0  0  0  0  0  0  0
   -3.9030   11.2906   40.7103 C   0  0  2  0  0  0  0  0  0  0  0  0
   -4.3600   12.6157   40.5411 O   0  0  0  0  0  0  0  0  0  0  0  0
    4.4210   13.5832   38.9237 C   0  0  0  0  0  0  0  0  0  0  0  0
    0.5152   12.3694   35.7824 C   0  0  2  0  0  0  0  0  0  0  0  0
    1.6340   12.1376   34.8679 N   0  0  0  0  0  0  0  0  0  0  0  0
   -2.8036   11.2165   41.8315 C   0  0  1  0  0  0  0  0  0  0  0  0
   -3.3762   11.6944   43.1309 N   0  0  0  0  0  0  0  0  0  0  0  0
    4.5052   15.1476   38.6755 C   0  0  0  0  0  0  0  0  0  0  0  0
    1.0489   12.5142   37.2661 C   0  0  2  0  0  0  0  0  0  0  0  0
   -2.3205    9.6708   41.9914 C   0  0  1  0  0  0  0  0  0  0  0  0
   -3.3685    8.7952   42.3580 O   0  0  0  0  0  0  0  0  0  0  0  0
    4.1306   15.6918   37.4923 C   0  0  1  0  0  0  0  0  0  0  0  0
    3.6436   14.9232   36.3958 O   0  0  0  0  0  0  0  0  0  0  0  0
   -0.1689   12.7635   38.2502 C   0  0  2  0  0  0  0  0  0  0  0  0
    0.3250   12.8794   39.6003 O   0  0  0  0  0  0  0  0  0  0  0  0
   -1.7311    9.1775   40.6362 C   0  0  0  0  0  0  0  0  0  0  0  0
   -2.7436    9.3865   39.5235 O   0  0  0  0  0  0  0  0  0  0  0  0
    4.1887   17.1757   37.2188 C   0  0  0  0  0  0  0  0  0  0  0  0
    5.4720   17.6328   37.6971 O   0  0  0  0  0  0  0  0  0  0  0  0
   -1.1546   11.5359   38.1712 C   0  0  1  0  0  0  0  0  0  0  0  0
   -2.2273   11.7822   39.0462 O   0  0  0  0  0  0  0  0  0  0  0  0
   -1.2350    9.4485   43.0526 C   0  0  0  0  0  0  0  0  0  0  0  0
   -3.0969   13.1000   43.4910 C   0  0  0  0  0  0  0  0  0  0  0  0
  1  2  1  1  0  0  0
  1  6  1  0  0  0  0
  1 21  1  0  0  0  0
  3  4  1  1  0  0  0
  3  8  1  0  0  0  0
  3 28  1  0  0  0  0
  5  9  1  0  0  0  0
  5 25  1  0  0  0  0
  5 29  1  1  0  0  0
  6  7  1  1  0  0  0
  6 11  1  0  0  0  0
  8 12  1  0  0  0  0
  9 10  1  6  0  0  0
  9 14  1  0  0  0  0
 11 16  1  0  0  0  0
 12 13  1  6  0  0  0
 12 17  1  0  0  0  0
 14 15  1  1  0  0  0
 14 18  1  0  0  0  0
 15 31  1  0  0  0  0
 16 20  1  0  0  0  0
 17  2  1  6  0  0  0
 17 22  1  0  0  0  0
 18 19  1  1  0  0  0
 18 24  1  0  0  0  0
 18 30  1  0  0  0  0
 20 21  1  0  0  0  0
 20 26  1  1  0  0  0
 22 23  1  1  0  0  0
 22 28  1  0  0  0  0
 24 25  1  0  0  0  0
 26 27  1  0  0  0  0
 28 29  1  1  0  0  0
M  END
>  <CHROM.1>
-80.92451751,159.76556897,-97.64562704,-68.71134032,45.70095848,68.70084296
0.06771089,12.32987545,38.88416095,0.29237047,-0.65233815,-1.86877204

>  <Name>
ligand

>  <RI>
0

>  <Rbt.Current_Directory>
/home/itssahil/PROJECTS/Mol_Feturizer/New_Systems/rnas/4GPY

>  <Rbt.Executable>
rbdock ($Id: //depot/dev/client3/rdock/2013.1/src/exe/rbdock.cxx#4 $)

>  <Rbt.Library>
libRbt.so (2013.1, Build901 2013/11/27)

>  <Rbt.Parameter_File>
/export/apps/rDock/src/rDock_2013.1_src/data/scripts/dock_solv.prm

>  <Rbt.Receptor>
prm/pocket_docking_4.prm

>  <SCORE>
-7.92802

>  <SCORE.INTER>
-8.30803

>  <SCORE.INTER.CONST>
1

>  <SCORE.INTER.POLAR>
0

>  <SCORE.INTER.ROT>
6

>  <SCORE.INTER.SOLV>
13.5267

>  <SCORE.INTER.VDW>
-17.6476

>  <SCORE.INTER.norm>
-0.268001

>  <SCORE.INTRA>
0.374515

>  <SCORE.INTRA.DIHEDRAL>
-5.98736

>  <SCORE.INTRA.DIHEDRAL.0>
14.7001

>  <SCORE.INTRA.POLAR>
0

>  <SCORE.INTRA.POLAR.0>
0

>  <SCORE.INTRA.REPUL>
0

>  <SCORE.INTRA.REPUL.0>
0

>  <SCORE.INTRA.SOLV>
2.70238

>  <SCORE.INTRA.SOLV.lig_0>
-65.3082

>  <SCORE.INTRA.VDW>
2.01701

>  <SCORE.INTRA.VDW.0>
-4.21408

>  <SCORE.INTRA.norm>
0.0120811

>  <SCORE.RESTR>
0.00549

>  <SCORE.RESTR.CAVITY>
0.00549

>  <SCORE.RESTR.norm>
0.000177097

>  <SCORE.SYSTEM>
0

>  <SCORE.SYSTEM.CONST>
0

>  <SCORE.SYSTEM.DIHEDRAL>
0

>  <SCORE.SYSTEM.SOLV>
0

>  <SCORE.SYSTEM.norm>
0

>  <SCORE.heavy>
31

>  <SCORE.norm>
-0.255743

>  <RMSD>
3.693

$$$$
ligand
 OpenBabel11021811493D
libRbt.so/2013.1/901 2013/11/27
 31 33  0  0  0  0  0  0  0  0999 V2000
    0.3241   14.9232   38.8145 C   0  0  2  0  0  0  0  0  0  0  0  0
   -0.2560   14.4051   37.6329 O   0  0  0  0  0  0  0  0  0  0  0  0
   -1.7816   10.6735   36.2883 C   0  0  2  0  0  0  0  0  0  0  0  0
   -1.8513    9.2783   36.0140 N   0  0  0  0  0  0  0  0  0  0  0  0
   -2.8521    9.0162   39.0575 C   0  0  2  0  0  0  0  0  0  0  0  0
   -0.0901   16.4532   38.9392 C   0  0  2  0  0  0  0  0  0  0  0  0
   -1.5455   16.5554   38.9535 N   0  0  0  0  0  0  0  0  0  0  0  0
   -0.5004   11.2637   35.5468 C   0  0  0  0  0  0  0  0  0  0  0  0
   -2.4254    9.1778   40.5552 C   0  0  2  0  0  0  0  0  0  0  0  0
   -3.2687   10.1316   41.1655 O   0  0  0  0  0  0  0  0  0  0  0  0
    0.5257   17.2906   37.7588 C   0  0  0  0  0  0  0  0  0  0  0  0
   -0.4325   12.8186   35.8388 C   0  0  2  0  0  0  0  0  0  0  0  0
    0.7348   13.3797   35.1574 N   0  0  0  0  0  0  0  0  0  0  0  0
   -0.9257    9.6473   40.5987 C   0  0  1  0  0  0  0  0  0  0  0  0
   -0.4947    9.8251   42.0225 N   0  0  0  0  0  0  0  0  0  0  0  0
    2.0048   16.8295   37.4187 C   0  0  0  0  0  0  0  0  0  0  0  0
   -0.3077   13.0426   37.4013 C   0  0  2  0  0  0  0  0  0  0  0  0
    0.0006    8.5106   39.8931 C   0  0  1  0  0  0  0  0  0  0  0  0
   -0.0754    7.2531   40.5352 O   0  0  0  0  0  0  0  0  0  0  0  0
    2.5131   15.6768   37.9181 C   0  0  1  0  0  0  0  0  0  0  0  0
    1.7807   14.8033   38.7729 O   0  0  0  0  0  0  0  0  0  0  0  0
   -1.5749   12.4308   38.1318 C   0  0  2  0  0  0  0  0  0  0  0  0
   -1.4455   12.6264   39.5549 O   0  0  0  0  0  0  0  0  0  0  0  0
   -0.4553    8.3260   38.4148 C   0  0  0  0  0  0  0  0  0  0  0  0
   -1.9416    8.0165   38.3653 O   0  0  0  0  0  0  0  0  0  0  0  0
    3.9128   15.1992   37.6128 C   0  0  0  0  0  0  0  0  0  0  0  0
    4.6172   16.3245   37.0451 O   0  0  0  0  0  0  0  0  0  0  0  0
   -1.6445   10.8844   37.8336 C   0  0  1  0  0  0  0  0  0  0  0  0
   -2.7773   10.3662   38.4857 O   0  0  0  0  0  0  0  0  0  0  0  0
    1.4983    8.8415   39.8556 C   0  0  0  0  0  0  0  0  0  0  0  0
   -0.1379   11.1996   42.4309 C   0  0  0  0  0  0  0  0  0  0  0  0
  1  2  1  6  0  0  0
  1  6  1  0  0  0  0
  1 21  1  0  0  0  0
  3  4  1  1  0  0  0
  3  8  1  0  0  0  0
  3 28  1  0  0  0  0
  5  9  1  0  0  0  0
  5 25  1  0  0  0  0
  5 29  1  6  0  0  0
  6  7  1  6  0  0  0
  6 11  1  0  0  0  0
  8 12  1  0  0  0  0
  9 10  1  6  0  0  0
  9 14  1  0  0  0  0
 11 16  1  0  0  0  0
 12 13  1  6  0  0  0
 12 17  1  0  0  0  0
 14 15  1  1  0  0  0
 14 18  1  0  0  0  0
 15 31  1  0  0  0  0
 16 20  1  0  0  0  0
 17  2  1  6  0  0  0
 17 22  1  0  0  0  0
 18 19  1  1  0  0  0
 18 24  1  0  0  0  0
 18 30  1  0  0  0  0
 20 21  1  0  0  0  0
 20 26  1  6  0  0  0
 22 23  1  1  0  0  0
 22 28  1  0  0  0  0
 24 25  1  0  0  0  0
 26 27  1  0  0  0  0
 28 29  1  1  0  0  0
M  END
>  <CHROM.1>
-166.28852514,92.73599870,-115.75420958,-156.89572204,14.57951868,94.92570395
-0.27394313,12.09245921,38.54303804,-0.54770419,1.08802009,1.89422908

>  <Name>
ligand

>  <RI>
0

>  <Rbt.Current_Directory>
/home/itssahil/PROJECTS/Mol_Feturizer/New_Systems/rnas/4GPY

>  <Rbt.Executable>
rbdock ($Id: //depot/dev/client3/rdock/2013.1/src/exe/rbdock.cxx#4 $)

>  <Rbt.Library>
libRbt.so (2013.1, Build901 2013/11/27)

>  <Rbt.Parameter_File>
/export/apps/rDock/src/rDock_2013.1_src/data/scripts/dock_solv.prm

>  <Rbt.Receptor>
prm/pocket_docking_4.prm

>  <SCORE>
-1.84457

>  <SCORE.INTER>
-4.78901

>  <SCORE.INTER.CONST>
1

>  <SCORE.INTER.POLAR>
0

>  <SCORE.INTER.ROT>
6

>  <SCORE.INTER.SOLV>
14.7654

>  <SCORE.INTER.VDW>
-15.7145

>  <SCORE.INTER.norm>
-0.154484

>  <SCORE.INTRA>
2.94444

>  <SCORE.INTRA.DIHEDRAL>
0.280338

>  <SCORE.INTRA.DIHEDRAL.0>
14.7001

>  <SCORE.INTRA.POLAR>
0

>  <SCORE.INTRA.POLAR.0>
0

>  <SCORE.INTRA.REPUL>
0

>  <SCORE.INTRA.REPUL.0>
0

>  <SCORE.INTRA.SOLV>
1.90758

>  <SCORE.INTRA.SOLV.lig_0>
-65.3082

>  <SCORE.INTRA.VDW>
1.85048

>  <SCORE.INTRA.VDW.0>
-4.21408

>  <SCORE.INTRA.norm>
0.0949819

>  <SCORE.RESTR>
0

>  <SCORE.RESTR.CAVITY>
0

>  <SCORE.RESTR.norm>
0

>  <SCORE.SYSTEM>
0

>  <SCORE.SYSTEM.CONST>
0

>  <SCORE.SYSTEM.DIHEDRAL>
0

>  <SCORE.SYSTEM.SOLV>
0

>  <SCORE.SYSTEM.norm>
0

>  <SCORE.heavy>
31

>  <SCORE.norm>
-0.0595022

>  <RMSD>
3.924

$$$$
ligand
 OpenBabel11021811493D
libRbt.so/2013.1/901 2013/11/27
 31 33  0  0  0  0  0  0  0  0999 V2000
    3.3013   12.5785   39.8553 C   0  0  2  0  0  0  0  0  0  0  0  0
    2.8304   13.9041   39.7055 O   0  0  0  0  0  0  0  0  0  0  0  0
   -1.1047   15.4527   39.2851 C   0  0  2  0  0  0  0  0  0  0  0  0
   -2.3661   15.7575   38.6996 N   0  0  0  0  0  0  0  0  0  0  0  0
   -2.3502   11.9518   40.2024 C   0  0  2  0  0  0  0  0  0  0  0  0
    4.7755   12.6413   40.4477 C   0  0  2  0  0  0  0  0  0  0  0  0
    4.7510   13.3604   41.7169 N   0  0  0  0  0  0  0  0  0  0  0  0
    0.0368   16.0600   38.3535 C   0  0  0  0  0  0  0  0  0  0  0  0
   -3.8450   11.9458   40.6681 C   0  0  2  0  0  0  0  0  0  0  0  0
   -4.5917   12.7752   39.8034 O   0  0  0  0  0  0  0  0  0  0  0  0
    5.7533   13.3286   39.4252 C   0  0  0  0  0  0  0  0  0  0  0  0
    1.4390   15.7350   39.0138 C   0  0  2  0  0  0  0  0  0  0  0  0
    2.5002   16.2937   38.1752 N   0  0  0  0  0  0  0  0  0  0  0  0
   -3.9089   12.4766   42.1465 C   0  0  1  0  0  0  0  0  0  0  0  0
   -5.3323   12.4961   42.6136 N   0  0  0  0  0  0  0  0  0  0  0  0
    5.4491   12.8879   37.9321 C   0  0  0  0  0  0  0  0  0  0  0  0
    1.6038   14.1639   39.1218 C   0  0  2  0  0  0  0  0  0  0  0  0
   -3.0426   11.4817   43.0992 C   0  0  1  0  0  0  0  0  0  0  0  0
   -3.5233   10.1519   43.0984 O   0  0  0  0  0  0  0  0  0  0  0  0
    4.3084   12.2295   37.6131 C   0  0  1  0  0  0  0  0  0  0  0  0
    3.3104   11.8830   38.5693 O   0  0  0  0  0  0  0  0  0  0  0  0
    0.4499   13.5667   40.0303 C   0  0  2  0  0  0  0  0  0  0  0  0
    0.5995   12.1344   40.1109 O   0  0  0  0  0  0  0  0  0  0  0  0
   -1.5649   11.4610   42.6058 C   0  0  0  0  0  0  0  0  0  0  0  0
   -1.5148   11.0901   41.1336 O   0  0  0  0  0  0  0  0  0  0  0  0
    3.9782   11.7992   36.2038 C   0  0  0  0  0  0  0  0  0  0  0  0
    2.7804   12.5112   35.8257 O   0  0  0  0  0  0  0  0  0  0  0  0
   -0.9451   13.8979   39.3750 C   0  0  1  0  0  0  0  0  0  0  0  0
   -1.9509   13.3644   40.2001 O   0  0  0  0  0  0  0  0  0  0  0  0
   -3.0087   11.8852   44.5790 C   0  0  0  0  0  0  0  0  0  0  0  0
   -6.0014   13.8135   42.6170 C   0  0  0  0  0  0  0  0  0  0  0  0
  1  2  1  6  0  0  0
  1  6  1  0  0  0  0
  1 21  1  0  0  0  0
  3  4  1  6  0  0  0
  3  8  1  0  0  0  0
  3 28  1  0  0  0  0
  5  9  1  0  0  0  0
  5 25  1  0  0  0  0
  5 29  1  1  0  0  0
  6  7  1  1  0  0  0
  6 11  1  0  0  0  0
  8 12  1  0  0  0  0
  9 10  1  6  0  0  0
  9 14  1  0  0  0  0
 11 16  1  0  0  0  0
 12 13  1  6  0  0  0
 12 17  1  0  0  0  0
 14 15  1  1  0  0  0
 14 18  1  0  0  0  0
 15 31  1  0  0  0  0
 16 20  1  0  0  0  0
 17  2  1  1  0  0  0
 17 22  1  0  0  0  0
 18 19  1  6  0  0  0
 18 24  1  0  0  0  0
 18 30  1  0  0  0  0
 20 21  1  0  0  0  0
 20 26  1  6  0  0  0
 22 23  1  6  0  0  0
 22 28  1  0  0  0  0
 24 25  1  0  0  0  0
 26 27  1  0  0  0  0
 28 29  1  1  0  0  0
M  END
>  <CHROM.1>
175.50960462,-152.90180718,-101.81117007,-175.81223024,-117.00997615,161.41064293
0.06542541,13.03623693,40.07147839,-0.38169844,-0.23117526,2.32873945

>  <Name>
ligand

>  <RI>
0

>  <Rbt.Current_Directory>
/home/itssahil/PROJECTS/Mol_Feturizer/New_Systems/rnas/4GPY

>  <Rbt.Executable>
rbdock ($Id: //depot/dev/client3/rdock/2013.1/src/exe/rbdock.cxx#4 $)

>  <Rbt.Library>
libRbt.so (2013.1, Build901 2013/11/27)

>  <Rbt.Parameter_File>
/export/apps/rDock/src/rDock_2013.1_src/data/scripts/dock_solv.prm

>  <Rbt.Receptor>
prm/pocket_docking_6.prm

>  <SCORE>
-3.90704

>  <SCORE.INTER>
-0.401883

>  <SCORE.INTER.CONST>
1

>  <SCORE.INTER.POLAR>
0

>  <SCORE.INTER.ROT>
6

>  <SCORE.INTER.SOLV>
14.5662

>  <SCORE.INTER.VDW>
-12.7233

>  <SCORE.INTER.norm>
-0.012964

>  <SCORE.INTRA>
-3.50515

>  <SCORE.INTRA.DIHEDRAL>
-7.23873

>  <SCORE.INTRA.DIHEDRAL.0>
14.7001

>  <SCORE.INTRA.POLAR>
0

>  <SCORE.INTRA.POLAR.0>
0

>  <SCORE.INTRA.REPUL>
0

>  <SCORE.INTRA.REPUL.0>
0

>  <SCORE.INTRA.SOLV>
-1.99236

>  <SCORE.INTRA.SOLV.lig_0>
-65.3082

>  <SCORE.INTRA.VDW>
1.11039

>  <SCORE.INTRA.VDW.0>
-4.21408

>  <SCORE.INTRA.norm>
-0.113069

>  <SCORE.RESTR>
0

>  <SCORE.RESTR.CAVITY>
0

>  <SCORE.RESTR.norm>
0

>  <SCORE.SYSTEM>
0

>  <SCORE.SYSTEM.CONST>
0

>  <SCORE.SYSTEM.DIHEDRAL>
0

>  <SCORE.SYSTEM.SOLV>
0

>  <SCORE.SYSTEM.norm>
0

>  <SCORE.heavy>
31

>  <SCORE.norm>
-0.126033

>  <RMSD>
4.008

$$$$
ligand
 OpenBabel11021811493D
libRbt.so/2013.1/901 2013/11/27
 31 33  0  0  0  0  0  0  0  0999 V2000
    1.4821   16.0910   37.8886 C   0  0  2  0  0  0  0  0  0  0  0  0
    1.0022   15.1712   36.9269 O   0  0  0  0  0  0  0  0  0  0  0  0
   -1.6334   11.8704   37.3946 C   0  0  2  0  0  0  0  0  0  0  0  0
   -2.1004   10.5713   37.7424 N   0  0  0  0  0  0  0  0  0  0  0  0
   -3.0630   11.6395   40.0667 C   0  0  2  0  0  0  0  0  0  0  0  0
    1.9313   17.4129   37.1277 C   0  0  2  0  0  0  0  0  0  0  0  0
    0.7964   17.9442   36.3805 N   0  0  0  0  0  0  0  0  0  0  0  0
   -0.4075   11.7065   36.3895 C   0  0  0  0  0  0  0  0  0  0  0  0
   -4.0647   12.2792   41.0857 C   0  0  2  0  0  0  0  0  0  0  0  0
   -4.7831   13.3036   40.4316 O   0  0  0  0  0  0  0  0  0  0  0  0
    3.1482   17.1165   36.1762 C   0  0  0  0  0  0  0  0  0  0  0  0
    0.1012   13.1520   35.9900 C   0  0  2  0  0  0  0  0  0  0  0  0
    1.2228   13.0208   35.0592 N   0  0  0  0  0  0  0  0  0  0  0  0
   -3.2443   12.8562   42.2963 C   0  0  1  0  0  0  0  0  0  0  0  0
   -4.1784   13.4894   43.2818 N   0  0  0  0  0  0  0  0  0  0  0  0
    4.1854   16.1171   36.8405 C   0  0  0  0  0  0  0  0  0  0  0  0
    0.5685   13.9116   37.2983 C   0  0  2  0  0  0  0  0  0  0  0  0
   -2.4456   11.6359   43.0181 C   0  0  1  0  0  0  0  0  0  0  0  0
   -3.3027   10.6295   43.5199 O   0  0  0  0  0  0  0  0  0  0  0  0
    3.8718   15.4221   37.9608 C   0  0  1  0  0  0  0  0  0  0  0  0
    2.6148   15.5297   38.6231 O   0  0  0  0  0  0  0  0  0  0  0  0
   -0.6515   14.0481   38.3016 C   0  0  2  0  0  0  0  0  0  0  0  0
   -0.2131   14.7278   39.4958 O   0  0  0  0  0  0  0  0  0  0  0  0
   -1.4799   10.9778   41.9876 C   0  0  0  0  0  0  0  0  0  0  0  0
   -2.2527   10.5520   40.7512 O   0  0  0  0  0  0  0  0  0  0  0  0
    4.8276   14.4563   38.6196 C   0  0  0  0  0  0  0  0  0  0  0  0
    4.9219   14.8509   40.0053 O   0  0  0  0  0  0  0  0  0  0  0  0
   -1.1609   12.6082   38.6921 C   0  0  1  0  0  0  0  0  0  0  0  0
   -2.2445   12.7550   39.5759 O   0  0  0  0  0  0  0  0  0  0  0  0
   -1.5896   12.0566   44.2198 C   0  0  0  0  0  0  0  0  0  0  0  0
   -4.3895   14.9450   43.1405 C   0  0  0  0  0  0  0  0  0  0  0  0
  1  2  1  6  0  0  0
  1  6  1  0  0  0  0
  1 21  1  0  0  0  0
  3  4  1  1  0  0  0
  3  8  1  0  0  0  0
  3 28  1  0  0  0  0
  5  9  1  0  0  0  0
  5 25  1  0  0  0  0
  5 29  1  1  0  0  0
  6  7  1  6  0  0  0
  6 11  1  0  0  0  0
  8 12  1  0  0  0  0
  9 10  1  6  0  0  0
  9 14  1  0  0  0  0
 11 16  1  0  0  0  0
 12 13  1  6  0  0  0
 12 17  1  0  0  0  0
 14 15  1  1  0  0  0
 14 18  1  0  0  0  0
 15 31  1  0  0  0  0
 16 20  1  0  0  0  0
 17  2  1  6  0  0  0
 17 22  1  0  0  0  0
 18 19  1  1  0  0  0
 18 24  1  0  0  0  0
 18 30  1  0  0  0  0
 20 21  1  0  0  0  0
 20 26  1  6  0  0  0
 22 23  1  1  0  0  0
 22 28  1  0  0  0  0
 24 25  1  0  0  0  0
 26 27  1  0  0  0  0
 28 29  1  1  0  0  0
M  END
>  <CHROM.1>
178.48115912,176.18202776,-94.38321671,179.89412722,126.89601027,55.77003371
-0.40793194,13.63874462,39.27996166,-0.50029037,0.63598888,1.37215074

>  <Name>
ligand

>  <RI>
0

>  <Rbt.Current_Directory>
/home/itssahil/PROJECTS/Mol_Feturizer/New_Systems/rnas/4GPY

>  <Rbt.Executable>
rbdock ($Id: //depot/dev/client3/rdock/2013.1/src/exe/rbdock.cxx#4 $)

>  <Rbt.Library>
libRbt.so (2013.1, Build901 2013/11/27)

>  <Rbt.Parameter_File>
/export/apps/rDock/src/rDock_2013.1_src/data/scripts/dock_solv.prm

>  <Rbt.Receptor>
prm/pocket_docking_5.prm

>  <SCORE>
-8.96839

>  <SCORE.INTER>
-4.58858

>  <SCORE.INTER.CONST>
1

>  <SCORE.INTER.POLAR>
0

>  <SCORE.INTER.ROT>
6

>  <SCORE.INTER.SOLV>
13.3122

>  <SCORE.INTER.VDW>
-15.0965

>  <SCORE.INTER.norm>
-0.148019

>  <SCORE.INTRA>
-4.37982

>  <SCORE.INTRA.DIHEDRAL>
-12.0405

>  <SCORE.INTRA.DIHEDRAL.0>
14.7001

>  <SCORE.INTRA.POLAR>
0

>  <SCORE.INTRA.POLAR.0>
0

>  <SCORE.INTRA.REPUL>
0

>  <SCORE.INTRA.REPUL.0>
0

>  <SCORE.INTRA.SOLV>
-1.11113

>  <SCORE.INTRA.SOLV.lig_0>
-65.3082

>  <SCORE.INTRA.VDW>
2.19601

>  <SCORE.INTRA.VDW.0>
-4.21408

>  <SCORE.INTRA.norm>
-0.141284

>  <SCORE.RESTR>
0

>  <SCORE.RESTR.CAVITY>
0

>  <SCORE.RESTR.norm>
0

>  <SCORE.SYSTEM>
0

>  <SCORE.SYSTEM.CONST>
0

>  <SCORE.SYSTEM.DIHEDRAL>
0

>  <SCORE.SYSTEM.SOLV>
0

>  <SCORE.SYSTEM.norm>
0

>  <SCORE.heavy>
31

>  <SCORE.norm>
-0.289303

>  <RMSD>
4.092

$$$$
ligand
 OpenBabel11021811493D
libRbt.so/2013.1/901 2013/11/27
 31 33  0  0  0  0  0  0  0  0999 V2000
    1.5493   16.0882   37.9485 C   0  0  2  0  0  0  0  0  0  0  0  0
    1.0661   15.1210   37.0362 O   0  0  0  0  0  0  0  0  0  0  0  0
   -1.6609   11.9173   37.6366 C   0  0  2  0  0  0  0  0  0  0  0  0
   -2.1696   10.6553   38.0552 N   0  0  0  0  0  0  0  0  0  0  0  0
   -3.1463   11.8966   40.3142 C   0  0  2  0  0  0  0  0  0  0  0  0
    1.8856   17.4117   37.1340 C   0  0  2  0  0  0  0  0  0  0  0  0
    0.6848   17.8650   36.4404 N   0  0  0  0  0  0  0  0  0  0  0  0
   -0.4080   11.6591   36.6862 C   0  0  0  0  0  0  0  0  0  0  0  0
   -4.0587   12.6111   41.3669 C   0  0  2  0  0  0  0  0  0  0  0  0
   -4.7785   13.6383   40.7188 O   0  0  0  0  0  0  0  0  0  0  0  0
    3.0620   17.1541   36.1221 C   0  0  0  0  0  0  0  0  0  0  0  0
    0.1474   13.0627   36.2077 C   0  0  2  0  0  0  0  0  0  0  0  0
    1.2946   12.8444   35.3256 N   0  0  0  0  0  0  0  0  0  0  0  0
   -3.1440   13.1992   42.5023 C   0  0  1  0  0  0  0  0  0  0  0  0
   -3.9912   13.9033   43.5176 N   0  0  0  0  0  0  0  0  0  0  0  0
    4.1855   16.2263   36.7490 C   0  0  0  0  0  0  0  0  0  0  0  0
    0.5909   13.8991   37.4768 C   0  0  2  0  0  0  0  0  0  0  0  0
   -2.3471   11.9757   43.2205 C   0  0  1  0  0  0  0  0  0  0  0  0
   -3.2075   11.0220   43.8119 O   0  0  0  0  0  0  0  0  0  0  0  0
    3.9712   15.5448   37.9006 C   0  0  1  0  0  0  0  0  0  0  0  0
    2.7488   15.6045   38.6302 O   0  0  0  0  0  0  0  0  0  0  0  0
   -0.6568   14.1298   38.4275 C   0  0  2  0  0  0  0  0  0  0  0  0
   -0.2404   14.8795   39.5873 O   0  0  0  0  0  0  0  0  0  0  0  0
   -1.4720   11.2437   42.1593 C   0  0  0  0  0  0  0  0  0  0  0  0
   -2.3353   10.8039   40.9895 O   0  0  0  0  0  0  0  0  0  0  0  0
    5.0114   14.6463   38.5258 C   0  0  0  0  0  0  0  0  0  0  0  0
    4.5564   13.2902   38.3285 O   0  0  0  0  0  0  0  0  0  0  0  0
   -1.2124   12.7312   38.8966 C   0  0  1  0  0  0  0  0  0  0  0  0
   -2.3198   12.9610   39.7320 O   0  0  0  0  0  0  0  0  0  0  0  0
   -1.4031   12.4059   44.3509 C   0  0  0  0  0  0  0  0  0  0  0  0
   -5.0157   13.0830   44.1965 C   0  0  0  0  0  0  0  0  0  0  0  0
  1  2  1  6  0  0  0
  1  6  1  0  0  0  0
  1 21  1  0  0  0  0
  3  4  1  1  0  0  0
  3  8  1  0  0  0  0
  3 28  1  0  0  0  0
  5  9  1  0  0  0  0
  5 25  1  0  0  0  0
  5 29  1  1  0  0  0
  6  7  1  6  0  0  0
  6 11  1  0  0  0  0
  8 12  1  0  0  0  0
  9 10  1  6  0  0  0
  9 14  1  0  0  0  0
 11 16  1  0  0  0  0
 12 13  1  6  0  0  0
 12 17  1  0  0  0  0
 14 15  1  1  0  0  0
 14 18  1  0  0  0  0
 15 31  1  0  0  0  0
 16 20  1  0  0  0  0
 17  2  1  6  0  0  0
 17 22  1  0  0  0  0
 18 19  1  1  0  0  0
 18 24  1  0  0  0  0
 18 30  1  0  0  0  0
 20 21  1  0  0  0  0
 20 26  1  6  0  0  0
 22 23  1  1  0  0  0
 22 28  1  0  0  0  0
 24 25  1  0  0  0  0
 26 27  1  0  0  0  0
 28 29  1  1  0  0  0
M  END
>  <CHROM.1>
-174.77370689,169.40250741,59.54633753,-179.47147329,-108.18854834,58.41963565
-0.41985593,13.65003633,39.39391074,-0.47538177,0.66966312,1.23172145

>  <Name>
ligand

>  <RI>
0

>  <Rbt.Current_Directory>
/home/itssahil/PROJECTS/Mol_Feturizer/New_Systems/rnas/4GPY

>  <Rbt.Executable>
rbdock ($Id: //depot/dev/client3/rdock/2013.1/src/exe/rbdock.cxx#4 $)

>  <Rbt.Library>
libRbt.so (2013.1, Build901 2013/11/27)

>  <Rbt.Parameter_File>
/export/apps/rDock/src/rDock_2013.1_src/data/scripts/dock_solv.prm

>  <Rbt.Receptor>
prm/pocket_docking_4.prm

>  <SCORE>
-6.34029

>  <SCORE.INTER>
-4.07728

>  <SCORE.INTER.CONST>
1

>  <SCORE.INTER.POLAR>
0

>  <SCORE.INTER.ROT>
6

>  <SCORE.INTER.SOLV>
12.6626

>  <SCORE.INTER.VDW>
-14.5391

>  <SCORE.INTER.norm>
-0.131525

>  <SCORE.INTRA>
-2.26302

>  <SCORE.INTRA.DIHEDRAL>
-12.1435

>  <SCORE.INTRA.DIHEDRAL.0>
14.7001

>  <SCORE.INTRA.POLAR>
0

>  <SCORE.INTRA.POLAR.0>
0

>  <SCORE.INTRA.REPUL>
0

>  <SCORE.INTRA.REPUL.0>
0

>  <SCORE.INTRA.SOLV>
-0.751506

>  <SCORE.INTRA.SOLV.lig_0>
-65.3082

>  <SCORE.INTRA.VDW>
4.18447

>  <SCORE.INTRA.VDW.0>
-4.21408

>  <SCORE.INTRA.norm>
-0.0730005

>  <SCORE.RESTR>
0

>  <SCORE.RESTR.CAVITY>
0

>  <SCORE.RESTR.norm>
0

>  <SCORE.SYSTEM>
0

>  <SCORE.SYSTEM.CONST>
0

>  <SCORE.SYSTEM.DIHEDRAL>
0

>  <SCORE.SYSTEM.SOLV>
0

>  <SCORE.SYSTEM.norm>
0

>  <SCORE.heavy>
31

>  <SCORE.norm>
-0.204526

>  <RMSD>
4.102

$$$$
ligand
 OpenBabel11021811493D
libRbt.so/2013.1/901 2013/11/27
 31 33  0  0  0  0  0  0  0  0999 V2000
    1.8051   15.3607   35.9885 C   0  0  2  0  0  0  0  0  0  0  0  0
    0.7315   15.7383   36.8288 O   0  0  0  0  0  0  0  0  0  0  0  0
   -2.4161   13.3496   38.3928 C   0  0  2  0  0  0  0  0  0  0  0  0
   -3.0911   12.3829   39.1909 N   0  0  0  0  0  0  0  0  0  0  0  0
   -2.6319   15.9882   41.1737 C   0  0  2  0  0  0  0  0  0  0  0  0
    3.1048   15.1973   36.8897 C   0  0  2  0  0  0  0  0  0  0  0  0
    2.8462   14.2046   37.9271 N   0  0  0  0  0  0  0  0  0  0  0  0
   -1.2466   12.6123   37.6003 C   0  0  0  0  0  0  0  0  0  0  0  0
   -2.3150   15.0348   42.3745 C   0  0  2  0  0  0  0  0  0  0  0  0
   -1.2100   14.2262   42.0307 O   0  0  0  0  0  0  0  0  0  0  0  0
    3.5194   16.5787   37.5173 C   0  0  0  0  0  0  0  0  0  0  0  0
   -0.5066   13.6847   36.7002 C   0  0  2  0  0  0  0  0  0  0  0  0
    0.5666   13.0227   35.9573 N   0  0  0  0  0  0  0  0  0  0  0  0
   -3.5855   14.1542   42.6609 C   0  0  1  0  0  0  0  0  0  0  0  0
   -3.3047   13.2198   43.7978 N   0  0  0  0  0  0  0  0  0  0  0  0
    3.3361   17.7718   36.4883 C   0  0  0  0  0  0  0  0  0  0  0  0
    0.0964   14.8114   37.6351 C   0  0  2  0  0  0  0  0  0  0  0  0
   -4.8229   15.1327   43.0604 C   0  0  1  0  0  0  0  0  0  0  0  0
   -4.5684   15.9091   44.2145 O   0  0  0  0  0  0  0  0  0  0  0  0
    2.6432   17.6045   35.3357 C   0  0  1  0  0  0  0  0  0  0  0  0
    2.0374   16.3715   34.9579 O   0  0  0  0  0  0  0  0  0  0  0  0
   -1.0721   15.5222   38.4371 C   0  0  2  0  0  0  0  0  0  0  0  0
   -0.5123   16.5365   39.2963 O   0  0  0  0  0  0  0  0  0  0  0  0
   -5.1069   16.1056   41.8771 C   0  0  0  0  0  0  0  0  0  0  0  0
   -3.8377   16.8515   41.5029 O   0  0  0  0  0  0  0  0  0  0  0  0
    2.4399   18.7161   34.3340 C   0  0  0  0  0  0  0  0  0  0  0  0
    1.0226   18.9898   34.3045 O   0  0  0  0  0  0  0  0  0  0  0  0
   -1.8119   14.4515   39.3265 C   0  0  1  0  0  0  0  0  0  0  0  0
   -2.8455   15.1031   40.0222 O   0  0  0  0  0  0  0  0  0  0  0  0
   -6.1399   14.4052   43.3602 C   0  0  0  0  0  0  0  0  0  0  0  0
   -3.4595   11.7782   43.5128 C   0  0  0  0  0  0  0  0  0  0  0  0
  1  2  1  1  0  0  0
  1  6  1  0  0  0  0
  1 21  1  0  0  0  0
  3  4  1  1  0  0  0
  3  8  1  0  0  0  0
  3 28  1  0  0  0  0
  5  9  1  0  0  0  0
  5 25  1  0  0  0  0
  5 29  1  6  0  0  0
  6  7  1  1  0  0  0
  6 11  1  0  0  0  0
  8 12  1  0  0  0  0
  9 10  1  6  0  0  0
  9 14  1  0  0  0  0
 11 16  1  0  0  0  0
 12 13  1  1  0  0  0
 12 17  1  0  0  0  0
 14 15  1  1  0  0  0
 14 18  1  0  0  0  0
 15 31  1  0  0  0  0
 16 20  1  0  0  0  0
 17  2  1  6  0  0  0
 17 22  1  0  0  0  0
 18 19  1  1  0  0  0
 18 24  1  0  0  0  0
 18 30  1  0  0  0  0
 20 21  1  0  0  0  0
 20 26  1  1  0  0  0
 22 23  1  1  0  0  0
 22 28  1  0  0  0  0
 24 25  1  0  0  0  0
 26 27  1  0  0  0  0
 28 29  1  6  0  0  0
M  END
>  <CHROM.1>
-76.90686110,-75.54241997,-121.97137910,-59.77251383,-115.06891276,166.87036235
-0.99392538,15.21989749,39.13424213,-0.22378252,-0.84180377,3.14044005

>  <Name>
ligand

>  <RI>
0

>  <Rbt.Current_Directory>
/home/itssahil/PROJECTS/Mol_Feturizer/New_Systems/rnas/4GPY

>  <Rbt.Executable>
rbdock ($Id: //depot/dev/client3/rdock/2013.1/src/exe/rbdock.cxx#4 $)

>  <Rbt.Library>
libRbt.so (2013.1, Build901 2013/11/27)

>  <Rbt.Parameter_File>
/export/apps/rDock/src/rDock_2013.1_src/data/scripts/dock_solv.prm

>  <Rbt.Receptor>
prm/pocket_docking_5.prm

>  <SCORE>
-8.08197

>  <SCORE.INTER>
-7.89012

>  <SCORE.INTER.CONST>
1

>  <SCORE.INTER.POLAR>
0

>  <SCORE.INTER.ROT>
6

>  <SCORE.INTER.SOLV>
11.7744

>  <SCORE.INTER.VDW>
-16.7849

>  <SCORE.INTER.norm>
-0.25452

>  <SCORE.INTRA>
-0.191844

>  <SCORE.INTRA.DIHEDRAL>
-8.51703

>  <SCORE.INTRA.DIHEDRAL.0>
14.7001

>  <SCORE.INTRA.POLAR>
0

>  <SCORE.INTRA.POLAR.0>
0

>  <SCORE.INTRA.REPUL>
0

>  <SCORE.INTRA.REPUL.0>
0

>  <SCORE.INTRA.SOLV>
3.31731

>  <SCORE.INTRA.SOLV.lig_0>
-65.3082

>  <SCORE.INTRA.VDW>
2.40802

>  <SCORE.INTRA.VDW.0>
-4.21408

>  <SCORE.INTRA.norm>
-0.00618851

>  <SCORE.RESTR>
0

>  <SCORE.RESTR.CAVITY>
0

>  <SCORE.RESTR.norm>
0

>  <SCORE.SYSTEM>
0

>  <SCORE.SYSTEM.CONST>
0

>  <SCORE.SYSTEM.DIHEDRAL>
0

>  <SCORE.SYSTEM.SOLV>
0

>  <SCORE.SYSTEM.norm>
0

>  <SCORE.heavy>
31

>  <SCORE.norm>
-0.260709

>  <RMSD>
4.182

$$$$
ligand
 OpenBabel11021811493D
libRbt.so/2013.1/901 2013/11/27
 31 33  0  0  0  0  0  0  0  0999 V2000
    0.1101   11.6270   36.7507 C   0  0  2  0  0  0  0  0  0  0  0  0
    0.5568   12.9348   37.0532 O   0  0  0  0  0  0  0  0  0  0  0  0
   -1.3342   15.9301   39.4010 C   0  0  2  0  0  0  0  0  0  0  0  0
   -2.2253   16.9790   39.7651 N   0  0  0  0  0  0  0  0  0  0  0  0
   -3.8746   13.1455   40.1804 C   0  0  2  0  0  0  0  0  0  0  0  0
    1.3857   10.6878   36.6146 C   0  0  2  0  0  0  0  0  0  0  0  0
    2.1477   10.7321   37.8580 N   0  0  0  0  0  0  0  0  0  0  0  0
   -0.5088   16.3995   38.1211 C   0  0  0  0  0  0  0  0  0  0  0  0
   -4.8089   13.4252   41.4052 C   0  0  2  0  0  0  0  0  0  0  0  0
   -5.3531   14.7212   41.2725 O   0  0  0  0  0  0  0  0  0  0  0  0
    2.2700   11.1304   35.3914 C   0  0  0  0  0  0  0  0  0  0  0  0
    0.4939   15.2391   37.7264 C   0  0  2  0  0  0  0  0  0  0  0  0
    1.2676   15.6568   36.5566 N   0  0  0  0  0  0  0  0  0  0  0  0
   -3.9556   13.3084   42.7204 C   0  0  1  0  0  0  0  0  0  0  0  0
   -4.8228   13.5869   43.9099 N   0  0  0  0  0  0  0  0  0  0  0  0
    1.3832   11.5550   34.1467 C   0  0  0  0  0  0  0  0  0  0  0  0
   -0.3378   13.9347   37.3887 C   0  0  2  0  0  0  0  0  0  0  0  0
   -3.3621   11.7970   42.8282 C   0  0  1  0  0  0  0  0  0  0  0  0
   -4.3691   10.8058   42.8792 O   0  0  0  0  0  0  0  0  0  0  0  0
    0.0498   11.7613   34.2725 C   0  0  1  0  0  0  0  0  0  0  0  0
   -0.6527   11.6151   35.5035 O   0  0  0  0  0  0  0  0  0  0  0  0
   -1.1739   13.4899   38.6603 C   0  0  2  0  0  0  0  0  0  0  0  0
   -1.9391   12.3103   38.3390 O   0  0  0  0  0  0  0  0  0  0  0  0
   -2.4656   11.5109   41.5864 C   0  0  0  0  0  0  0  0  0  0  0  0
   -3.2495   11.7672   40.3108 O   0  0  0  0  0  0  0  0  0  0  0  0
   -0.8278   12.1731   33.1147 C   0  0  0  0  0  0  0  0  0  0  0  0
   -1.8842   11.1925   33.0295 O   0  0  0  0  0  0  0  0  0  0  0  0
   -2.1659   14.6495   39.0558 C   0  0  1  0  0  0  0  0  0  0  0  0
   -2.8907   14.2350   40.1871 O   0  0  0  0  0  0  0  0  0  0  0  0
   -2.4954   11.5392   44.0677 C   0  0  0  0  0  0  0  0  0  0  0  0
   -4.1821   14.3017   45.0333 C   0  0  0  0  0  0  0  0  0  0  0  0
  1  2  1  6  0  0  0
  1  6  1  0  0  0  0
  1 21  1  0  0  0  0
  3  4  1  6  0  0  0
  3  8  1  0  0  0  0
  3 28  1  0  0  0  0
  5  9  1  0  0  0  0
  5 25  1  0  0  0  0
  5 29  1  1  0  0  0
  6  7  1  1  0  0  0
  6 11  1  0  0  0  0
  8 12  1  0  0  0  0
  9 10  1  6  0  0  0
  9 14  1  0  0  0  0
 11 16  1  0  0  0  0
 12 13  1  6  0  0  0
 12 17  1  0  0  0  0
 14 15  1  1  0  0  0
 14 18  1  0  0  0  0
 15 31  1  0  0  0  0
 16 20  1  0  0  0  0
 17  2  1  1  0  0  0
 17 22  1  0  0  0  0
 18 19  1  1  0  0  0
 18 24  1  0  0  0  0
 18 30  1  0  0  0  0
 20 21  1  0  0  0  0
 20 26  1  1  0  0  0
 22 23  1  6  0  0  0
 22 28  1  0  0  0  0
 24 25  1  0  0  0  0
 26 27  1  0  0  0  0
 28 29  1  1  0  0  0
M  END
>  <CHROM.1>
-172.08683286,-157.22469704,-144.38986031,177.48605492,124.51765249,173.79143400
-1.62361646,13.01190949,38.87997180,0.13357387,-1.04138871,-3.13076539

>  <Name>
ligand

>  <RI>
0

>  <Rbt.Current_Directory>
/home/itssahil/PROJECTS/Mol_Feturizer/New_Systems/rnas/4GPY

>  <Rbt.Executable>
rbdock ($Id: //depot/dev/client3/rdock/2013.1/src/exe/rbdock.cxx#4 $)

>  <Rbt.Library>
libRbt.so (2013.1, Build901 2013/11/27)

>  <Rbt.Parameter_File>
/export/apps/rDock/src/rDock_2013.1_src/data/scripts/dock_solv.prm

>  <Rbt.Receptor>
prm/pocket_docking_7.prm

>  <SCORE>
-4.90447

>  <SCORE.INTER>
-1.85988

>  <SCORE.INTER.CONST>
1

>  <SCORE.INTER.POLAR>
0

>  <SCORE.INTER.ROT>
6

>  <SCORE.INTER.SOLV>
13.5144

>  <SCORE.INTER.VDW>
-13.3447

>  <SCORE.INTER.norm>
-0.0599963

>  <SCORE.INTRA>
-3.04459

>  <SCORE.INTRA.DIHEDRAL>
-9.41532

>  <SCORE.INTRA.DIHEDRAL.0>
14.7001

>  <SCORE.INTRA.POLAR>
0

>  <SCORE.INTRA.POLAR.0>
0

>  <SCORE.INTRA.REPUL>
0

>  <SCORE.INTRA.REPUL.0>
0

>  <SCORE.INTRA.SOLV>
-2.56804

>  <SCORE.INTRA.SOLV.lig_0>
-65.3082

>  <SCORE.INTRA.VDW>
2.9471

>  <SCORE.INTRA.VDW.0>
-4.21408

>  <SCORE.INTRA.norm>
-0.0982124

>  <SCORE.RESTR>
0

>  <SCORE.RESTR.CAVITY>
0

>  <SCORE.RESTR.norm>
0

>  <SCORE.SYSTEM>
0

>  <SCORE.SYSTEM.CONST>
0

>  <SCORE.SYSTEM.DIHEDRAL>
0

>  <SCORE.SYSTEM.SOLV>
0

>  <SCORE.SYSTEM.norm>
0

>  <SCORE.heavy>
31

>  <SCORE.norm>
-0.158209

>  <RMSD>
4.239

$$$$
ligand
 OpenBabel11021811493D
libRbt.so/2013.1/901 2013/11/27
 31 33  0  0  0  0  0  0  0  0999 V2000
    2.0290   15.3350   38.1144 C   0  0  2  0  0  0  0  0  0  0  0  0
    1.9263   14.3171   37.1373 O   0  0  0  0  0  0  0  0  0  0  0  0
   -0.1303   10.5982   37.1361 C   0  0  2  0  0  0  0  0  0  0  0  0
   -0.4583    9.2517   37.4620 N   0  0  0  0  0  0  0  0  0  0  0  0
   -2.2421   10.2298   39.3304 C   0  0  2  0  0  0  0  0  0  0  0  0
    2.5185   16.6649   37.3935 C   0  0  2  0  0  0  0  0  0  0  0  0
    1.5734   17.0128   36.3378 N   0  0  0  0  0  0  0  0  0  0  0  0
    1.3582   10.6248   36.5678 C   0  0  0  0  0  0  0  0  0  0  0  0
   -3.6149   10.7170   39.9042 C   0  0  2  0  0  0  0  0  0  0  0  0
   -4.2688   11.4885   38.9191 O   0  0  0  0  0  0  0  0  0  0  0  0
    3.9700   16.4789   36.8166 C   0  0  0  0  0  0  0  0  0  0  0  0
    1.7167   12.1203   36.1901 C   0  0  2  0  0  0  0  0  0  0  0  0
    3.0791   12.1626   35.6574 N   0  0  0  0  0  0  0  0  0  0  0  0
   -3.3409   11.5724   41.1944 C   0  0  1  0  0  0  0  0  0  0  0  0
   -4.6389   12.0655   41.7570 N   0  0  0  0  0  0  0  0  0  0  0  0
    4.8946   15.6510   37.8043 C   0  0  0  0  0  0  0  0  0  0  0  0
    1.6155   13.0168   37.4913 C   0  0  2  0  0  0  0  0  0  0  0  0
   -2.5969   10.6351   42.2972 C   0  0  1  0  0  0  0  0  0  0  0  0
   -3.3643    9.5112   42.6810 O   0  0  0  0  0  0  0  0  0  0  0  0
    4.3708   14.9765   38.8566 C   0  0  1  0  0  0  0  0  0  0  0  0
    2.9787   14.9565   39.1596 O   0  0  0  0  0  0  0  0  0  0  0  0
    0.1375   12.9643   38.0627 C   0  0  2  0  0  0  0  0  0  0  0  0
    0.0584   13.7716   39.2554 O   0  0  0  0  0  0  0  0  0  0  0  0
   -1.2506   10.1209   41.7051 C   0  0  0  0  0  0  0  0  0  0  0  0
   -1.5004    9.4206   40.3806 O   0  0  0  0  0  0  0  0  0  0  0  0
    5.2152   14.1712   39.8152 C   0  0  0  0  0  0  0  0  0  0  0  0
    6.4060   13.7887   39.0936 O   0  0  0  0  0  0  0  0  0  0  0  0
   -0.2198   11.4738   38.4309 C   0  0  1  0  0  0  0  0  0  0  0  0
   -1.5345   11.4518   38.9289 O   0  0  0  0  0  0  0  0  0  0  0  0
   -2.2578   11.3461   43.6137 C   0  0  0  0  0  0  0  0  0  0  0  0
   -4.9179   13.5070   41.5913 C   0  0  0  0  0  0  0  0  0  0  0  0
  1  2  1  6  0  0  0
  1  6  1  0  0  0  0
  1 21  1  0  0  0  0
  3  4  1  1  0  0  0
  3  8  1  0  0  0  0
  3 28  1  0  0  0  0
  5  9  1  0  0  0  0
  5 25  1  0  0  0  0
  5 29  1  1  0  0  0
  6  7  1  6  0  0  0
  6 11  1  0  0  0  0
  8 12  1  0  0  0  0
  9 10  1  6  0  0  0
  9 14  1  0  0  0  0
 11 16  1  0  0  0  0
 12 13  1  1  0  0  0
 12 17  1  0  0  0  0
 14 15  1  1  0  0  0
 14 18  1  0  0  0  0
 15 31  1  0  0  0  0
 16 20  1  0  0  0  0
 17  2  1  6  0  0  0
 17 22  1  0  0  0  0
 18 19  1  1  0  0  0
 18 24  1  0  0  0  0
 18 30  1  0  0  0  0
 20 21  1  0  0  0  0
 20 26  1  6  0  0  0
 22 23  1  1  0  0  0
 22 28  1  0  0  0  0
 24 25  1  0  0  0  0
 26 27  1  0  0  0  0
 28 29  1  6  0  0  0
M  END
>  <CHROM.1>
175.14545707,176.10506702,-107.72247613,-174.72117708,-25.06731433,59.04296330
0.23186641,12.62198200,39.03613184,0.10663576,0.64514205,0.68817339

>  <Name>
ligand

>  <RI>
0

>  <Rbt.Current_Directory>
/home/itssahil/PROJECTS/Mol_Feturizer/New_Systems/rnas/4GPY

>  <Rbt.Executable>
rbdock ($Id: //depot/dev/client3/rdock/2013.1/src/exe/rbdock.cxx#4 $)

>  <Rbt.Library>
libRbt.so (2013.1, Build901 2013/11/27)

>  <Rbt.Parameter_File>
/export/apps/rDock/src/rDock_2013.1_src/data/scripts/dock_solv.prm

>  <Rbt.Receptor>
prm/pocket_docking_4.prm

>  <SCORE>
-10.6051

>  <SCORE.INTER>
-7.18025

>  <SCORE.INTER.CONST>
1

>  <SCORE.INTER.POLAR>
0

>  <SCORE.INTER.ROT>
6

>  <SCORE.INTER.SOLV>
12.4302

>  <SCORE.INTER.VDW>
-16.5302

>  <SCORE.INTER.norm>
-0.231621

>  <SCORE.INTRA>
-3.42486

>  <SCORE.INTRA.DIHEDRAL>
-10.8851

>  <SCORE.INTRA.DIHEDRAL.0>
14.7001

>  <SCORE.INTRA.POLAR>
0

>  <SCORE.INTRA.POLAR.0>
0

>  <SCORE.INTRA.REPUL>
0

>  <SCORE.INTRA.REPUL.0>
0

>  <SCORE.INTRA.SOLV>
-1.07501

>  <SCORE.INTRA.SOLV.lig_0>
-65.3082

>  <SCORE.INTRA.VDW>
2.55521

>  <SCORE.INTRA.VDW.0>
-4.21408

>  <SCORE.INTRA.norm>
-0.110479

>  <SCORE.RESTR>
0

>  <SCORE.RESTR.CAVITY>
0

>  <SCORE.RESTR.norm>
0

>  <SCORE.SYSTEM>
0

>  <SCORE.SYSTEM.CONST>
0

>  <SCORE.SYSTEM.DIHEDRAL>
0

>  <SCORE.SYSTEM.SOLV>
0

>  <SCORE.SYSTEM.norm>
0

>  <SCORE.heavy>
31

>  <SCORE.norm>
-0.3421

>  <RMSD>
4.423

$$$$
ligand
 OpenBabel11021811493D
libRbt.so/2013.1/901 2013/11/27
 31 33  0  0  0  0  0  0  0  0999 V2000
    2.0002   15.3060   38.0651 C   0  0  2  0  0  0  0  0  0  0  0  0
    1.9152   14.2854   37.0892 O   0  0  0  0  0  0  0  0  0  0  0  0
   -0.1315   10.5610   37.1031 C   0  0  2  0  0  0  0  0  0  0  0  0
   -0.4516    9.2126   37.4289 N   0  0  0  0  0  0  0  0  0  0  0  0
   -2.2151   10.1795   39.3189 C   0  0  2  0  0  0  0  0  0  0  0  0
    2.4926   16.6366   37.3474 C   0  0  2  0  0  0  0  0  0  0  0  0
    1.5598   16.9774   36.2786 N   0  0  0  0  0  0  0  0  0  0  0  0
    1.3494   10.5934   36.5153 C   0  0  0  0  0  0  0  0  0  0  0  0
   -3.6021   10.6573   39.8659 C   0  0  2  0  0  0  0  0  0  0  0  0
   -4.2482   11.4122   38.8630 O   0  0  0  0  0  0  0  0  0  0  0  0
    3.9524   16.4563   36.7901 C   0  0  0  0  0  0  0  0  0  0  0  0
    1.6990   12.0911   36.1378 C   0  0  2  0  0  0  0  0  0  0  0  0
    3.0541   12.1387   35.5873 N   0  0  0  0  0  0  0  0  0  0  0  0
   -3.3581   11.5279   41.1519 C   0  0  1  0  0  0  0  0  0  0  0  0
   -4.6702   12.0122   41.6888 N   0  0  0  0  0  0  0  0  0  0  0  0
    4.8680   15.6352   37.7919 C   0  0  0  0  0  0  0  0  0  0  0  0
    1.6125   12.9831   37.4431 C   0  0  2  0  0  0  0  0  0  0  0  0
   -2.6221   10.6093   42.2755 C   0  0  1  0  0  0  0  0  0  0  0  0
   -3.3835    9.4808   42.6580 O   0  0  0  0  0  0  0  0  0  0  0  0
    4.3337   14.9607   38.8388 C   0  0  1  0  0  0  0  0  0  0  0  0
    2.9378   14.9347   39.1236 O   0  0  0  0  0  0  0  0  0  0  0  0
    0.1423   12.9249   38.0337 C   0  0  2  0  0  0  0  0  0  0  0  0
    0.0767   13.7281   39.2299 O   0  0  0  0  0  0  0  0  0  0  0  0
   -1.2610   10.1040   41.7102 C   0  0  0  0  0  0  0  0  0  0  0  0
   -1.4819    9.3884   40.3887 O   0  0  0  0  0  0  0  0  0  0  0  0
    5.1693   14.1619   39.8104 C   0  0  0  0  0  0  0  0  0  0  0  0
    6.3834   13.8067   39.1142 O   0  0  0  0  0  0  0  0  0  0  0  0
   -0.2062   11.4322   38.4018 C   0  0  1  0  0  0  0  0  0  0  0  0
   -1.5142   11.4051   38.9169 O   0  0  0  0  0  0  0  0  0  0  0  0
   -2.3118   11.3364   43.5904 C   0  0  0  0  0  0  0  0  0  0  0  0
   -4.8319   13.4770   41.7970 C   0  0  0  0  0  0  0  0  0  0  0  0
  1  2  1  6  0  0  0
  1  6  1  0  0  0  0
  1 21  1  0  0  0  0
  3  4  1  1  0  0  0
  3  8  1  0  0  0  0
  3 28  1  0  0  0  0
  5  9  1  0  0  0  0
  5 25  1  0  0  0  0
  5 29  1  1  0  0  0
  6  7  1  6  0  0  0
  6 11  1  0  0  0  0
  8 12  1  0  0  0  0
  9 10  1  6  0  0  0
  9 14  1  0  0  0  0
 11 16  1  0  0  0  0
 12 13  1  1  0  0  0
 12 17  1  0  0  0  0
 14 15  1  1  0  0  0
 14 18  1  0  0  0  0
 15 31  1  0  0  0  0
 16 20  1  0  0  0  0
 17  2  1  6  0  0  0
 17 22  1  0  0  0  0
 18 19  1  1  0  0  0
 18 24  1  0  0  0  0
 18 30  1  0  0  0  0
 20 21  1  0  0  0  0
 20 26  1  6  0  0  0
 22 23  1  1  0  0  0
 22 28  1  0  0  0  0
 24 25  1  0  0  0  0
 26 27  1  0  0  0  0
 28 29  1  6  0  0  0
M  END
>  <CHROM.1>
174.82579094,178.11953676,-121.64595353,-176.07686746,-23.92466943,58.79740381
0.22403535,12.59026659,39.01349223,0.07736388,0.65488494,0.73448984

>  <Name>
ligand

>  <RI>
0

>  <Rbt.Current_Directory>
/home/itssahil/PROJECTS/Mol_Feturizer/New_Systems/rnas/4GPY

>  <Rbt.Executable>
rbdock ($Id: //depot/dev/client3/rdock/2013.1/src/exe/rbdock.cxx#4 $)

>  <Rbt.Library>
libRbt.so (2013.1, Build901 2013/11/27)

>  <Rbt.Parameter_File>
/export/apps/rDock/src/rDock_2013.1_src/data/scripts/dock_solv.prm

>  <Rbt.Receptor>
prm/pocket_docking_5.prm

>  <SCORE>
-10.7198

>  <SCORE.INTER>
-7.32684

>  <SCORE.INTER.CONST>
1

>  <SCORE.INTER.POLAR>
0

>  <SCORE.INTER.ROT>
6

>  <SCORE.INTER.SOLV>
12.5298

>  <SCORE.INTER.VDW>
-16.6612

>  <SCORE.INTER.norm>
-0.23635

>  <SCORE.INTRA>
-3.39296

>  <SCORE.INTRA.DIHEDRAL>
-10.9225

>  <SCORE.INTRA.DIHEDRAL.0>
14.7001

>  <SCORE.INTRA.POLAR>
0

>  <SCORE.INTRA.POLAR.0>
0

>  <SCORE.INTRA.REPUL>
0

>  <SCORE.INTRA.REPUL.0>
0

>  <SCORE.INTRA.SOLV>
-1.18924

>  <SCORE.INTRA.SOLV.lig_0>
-65.3082

>  <SCORE.INTRA.VDW>
2.66292

>  <SCORE.INTRA.VDW.0>
-4.21408

>  <SCORE.INTRA.norm>
-0.10945

>  <SCORE.RESTR>
0

>  <SCORE.RESTR.CAVITY>
0

>  <SCORE.RESTR.norm>
0

>  <SCORE.SYSTEM>
0

>  <SCORE.SYSTEM.CONST>
0

>  <SCORE.SYSTEM.DIHEDRAL>
0

>  <SCORE.SYSTEM.SOLV>
0

>  <SCORE.SYSTEM.norm>
0

>  <SCORE.heavy>
31

>  <SCORE.norm>
-0.3458

>  <RMSD>
4.429

$$$$
ligand
 OpenBabel11021811493D
libRbt.so/2013.1/901 2013/11/27
 31 33  0  0  0  0  0  0  0  0999 V2000
    2.1990   15.0892   38.1926 C   0  0  2  0  0  0  0  0  0  0  0  0
    2.0435   14.1475   37.1484 O   0  0  0  0  0  0  0  0  0  0  0  0
   -0.2076   10.5482   36.9556 C   0  0  2  0  0  0  0  0  0  0  0  0
   -0.5930    9.1980   37.1912 N   0  0  0  0  0  0  0  0  0  0  0  0
   -2.2179   10.1138   39.2627 C   0  0  2  0  0  0  0  0  0  0  0  0
    2.5597   16.4944   37.5417 C   0  0  2  0  0  0  0  0  0  0  0  0
    1.5021   16.8770   36.6124 N   0  0  0  0  0  0  0  0  0  0  0  0
    1.2545   10.5456   36.3217 C   0  0  0  0  0  0  0  0  0  0  0  0
   -3.5861   10.6222   39.8290 C   0  0  2  0  0  0  0  0  0  0  0  0
   -4.2189   11.4106   38.8434 O   0  0  0  0  0  0  0  0  0  0  0  0
    3.9541   16.4263   36.8172 C   0  0  0  0  0  0  0  0  0  0  0  0
    1.6761   12.0467   36.0447 C   0  0  2  0  0  0  0  0  0  0  0  0
    3.0147   12.0631   35.4534 N   0  0  0  0  0  0  0  0  0  0  0  0
   -3.3067   11.4656   41.1259 C   0  0  1  0  0  0  0  0  0  0  0  0
   -4.5999   11.9786   41.6817 N   0  0  0  0  0  0  0  0  0  0  0  0
    5.0047   15.5700   37.6412 C   0  0  0  0  0  0  0  0  0  0  0  0
    1.6789   12.8403   37.4148 C   0  0  2  0  0  0  0  0  0  0  0  0
   -2.5878   10.5092   42.2289 C   0  0  1  0  0  0  0  0  0  0  0  0
   -3.3778    9.3971   42.6009 O   0  0  0  0  0  0  0  0  0  0  0  0
    4.6150   14.7897   38.6785 C   0  0  1  0  0  0  0  0  0  0  0  0
    3.2614   14.6771   39.1086 O   0  0  0  0  0  0  0  0  0  0  0  0
    0.2261   12.8164   38.0492 C   0  0  2  0  0  0  0  0  0  0  0  0
    0.2416   13.5288   39.3033 O   0  0  0  0  0  0  0  0  0  0  0  0
   -1.2464    9.9744   41.6440 C   0  0  0  0  0  0  0  0  0  0  0  0
   -1.4987    9.2858   40.3137 O   0  0  0  0  0  0  0  0  0  0  0  0
    5.5821   13.9544   39.4830 C   0  0  0  0  0  0  0  0  0  0  0  0
    5.2062   12.5757   39.2763 O   0  0  0  0  0  0  0  0  0  0  0  0
   -0.1943   11.3210   38.3172 C   0  0  1  0  0  0  0  0  0  0  0  0
   -1.4858   11.3251   38.8731 O   0  0  0  0  0  0  0  0  0  0  0  0
   -2.2459   11.2069   43.5519 C   0  0  0  0  0  0  0  0  0  0  0  0
   -4.7365   13.4472   41.7710 C   0  0  0  0  0  0  0  0  0  0  0  0
  1  2  1  6  0  0  0
  1  6  1  0  0  0  0
  1 21  1  0  0  0  0
  3  4  1  1  0  0  0
  3  8  1  0  0  0  0
  3 28  1  0  0  0  0
  5  9  1  0  0  0  0
  5 25  1  0  0  0  0
  5 29  1  1  0  0  0
  6  7  1  6  0  0  0
  6 11  1  0  0  0  0
  8 12  1  0  0  0  0
  9 10  1  6  0  0  0
  9 14  1  0  0  0  0
 11 16  1  0  0  0  0
 12 13  1  1  0  0  0
 12 17  1  0  0  0  0
 14 15  1  1  0  0  0
 14 18  1  0  0  0  0
 15 31  1  0  0  0  0
 16 20  1  0  0  0  0
 17  2  1  6  0  0  0
 17 22  1  0  0  0  0
 18 19  1  1  0  0  0
 18 24  1  0  0  0  0
 18 30  1  0  0  0  0
 20 21  1  0  0  0  0
 20 26  1  6  0  0  0
 22 23  1  1  0  0  0
 22 28  1  0  0  0  0
 24 25  1  0  0  0  0
 26 27  1  0  0  0  0
 28 29  1  6  0  0  0
M  END
>  <CHROM.1>
-177.70646289,179.71313547,-119.65132373,-176.85344537,-116.58554426,61.66676703
0.24144773,12.45042270,38.98019686,0.08109958,0.64999514,0.70904693

>  <Name>
ligand

>  <RI>
0

>  <Rbt.Current_Directory>
/home/itssahil/PROJECTS/Mol_Feturizer/New_Systems/rnas/4GPY

>  <Rbt.Executable>
rbdock ($Id: //depot/dev/client3/rdock/2013.1/src/exe/rbdock.cxx#4 $)

>  <Rbt.Library>
libRbt.so (2013.1, Build901 2013/11/27)

>  <Rbt.Parameter_File>
/export/apps/rDock/src/rDock_2013.1_src/data/scripts/dock_solv.prm

>  <Rbt.Receptor>
prm/pocket_docking_5.prm

>  <SCORE>
-12.294

>  <SCORE.INTER>
-7.23961

>  <SCORE.INTER.CONST>
1

>  <SCORE.INTER.POLAR>
0

>  <SCORE.INTER.ROT>
6

>  <SCORE.INTER.SOLV>
11.6761

>  <SCORE.INTER.VDW>
-16.3185

>  <SCORE.INTER.norm>
-0.233536

>  <SCORE.INTRA>
-5.0544

>  <SCORE.INTRA.DIHEDRAL>
-11.7063

>  <SCORE.INTRA.DIHEDRAL.0>
14.7001

>  <SCORE.INTRA.POLAR>
0

>  <SCORE.INTRA.POLAR.0>
0

>  <SCORE.INTRA.REPUL>
0

>  <SCORE.INTRA.REPUL.0>
0

>  <SCORE.INTRA.SOLV>
-1.25325

>  <SCORE.INTRA.SOLV.lig_0>
-65.3082

>  <SCORE.INTRA.VDW>
1.42539

>  <SCORE.INTRA.VDW.0>
-4.21408

>  <SCORE.INTRA.norm>
-0.163045

>  <SCORE.RESTR>
0

>  <SCORE.RESTR.CAVITY>
0

>  <SCORE.RESTR.norm>
0

>  <SCORE.SYSTEM>
0

>  <SCORE.SYSTEM.CONST>
0

>  <SCORE.SYSTEM.DIHEDRAL>
0

>  <SCORE.SYSTEM.SOLV>
0

>  <SCORE.SYSTEM.norm>
0

>  <SCORE.heavy>
31

>  <SCORE.norm>
-0.396581

>  <RMSD>
4.463

$$$$
ligand
 OpenBabel11021811493D
libRbt.so/2013.1/901 2013/11/27
 31 33  0  0  0  0  0  0  0  0999 V2000
    2.2341   15.1033   38.2138 C   0  0  2  0  0  0  0  0  0  0  0  0
    2.0485   14.1599   37.1761 O   0  0  0  0  0  0  0  0  0  0  0  0
   -0.1850   10.5486   37.0027 C   0  0  2  0  0  0  0  0  0  0  0  0
   -0.5675    9.1999   37.2508 N   0  0  0  0  0  0  0  0  0  0  0  0
   -2.2238   10.1341   39.2837 C   0  0  2  0  0  0  0  0  0  0  0  0
    2.5935   16.5032   37.5511 C   0  0  2  0  0  0  0  0  0  0  0  0
    1.5201   16.8924   36.6427 N   0  0  0  0  0  0  0  0  0  0  0  0
    1.2845   10.5443   36.3861 C   0  0  0  0  0  0  0  0  0  0  0  0
   -3.5918   10.6450   39.8482 C   0  0  2  0  0  0  0  0  0  0  0  0
   -4.2219   11.4343   38.8617 O   0  0  0  0  0  0  0  0  0  0  0  0
    3.9718   16.4205   36.7979 C   0  0  0  0  0  0  0  0  0  0  0  0
    1.7030   12.0436   36.0950 C   0  0  2  0  0  0  0  0  0  0  0  0
    3.0484   12.0584   35.5193 N   0  0  0  0  0  0  0  0  0  0  0  0
   -3.3126   11.4881   41.1454 C   0  0  1  0  0  0  0  0  0  0  0  0
   -4.6057   12.0034   41.6994 N   0  0  0  0  0  0  0  0  0  0  0  0
    5.0318   15.5574   37.6025 C   0  0  0  0  0  0  0  0  0  0  0  0
    1.6863   12.8545   37.4549 C   0  0  2  0  0  0  0  0  0  0  0  0
   -2.5968   10.5306   42.2494 C   0  0  1  0  0  0  0  0  0  0  0  0
   -3.3892    9.4199   42.6205 O   0  0  0  0  0  0  0  0  0  0  0  0
    4.6570   14.7838   38.6502 C   0  0  1  0  0  0  0  0  0  0  0  0
    3.3117   14.6846   39.1088 O   0  0  0  0  0  0  0  0  0  0  0  0
    0.2262   12.8323   38.0724 C   0  0  2  0  0  0  0  0  0  0  0  0
    0.2239   13.5606   39.3174 O   0  0  0  0  0  0  0  0  0  0  0  0
   -1.2556    9.9933   41.6663 C   0  0  0  0  0  0  0  0  0  0  0  0
   -1.5073    9.3051   40.3358 O   0  0  0  0  0  0  0  0  0  0  0  0
    5.6332   13.9424   39.4371 C   0  0  0  0  0  0  0  0  0  0  0  0
    5.2717   12.5643   39.2024 O   0  0  0  0  0  0  0  0  0  0  0  0
   -0.1911   11.3386   38.3544 C   0  0  1  0  0  0  0  0  0  0  0  0
   -1.4890   11.3441   38.8950 O   0  0  0  0  0  0  0  0  0  0  0  0
   -2.2554   11.2278   43.5728 C   0  0  0  0  0  0  0  0  0  0  0  0
   -4.8273   13.4606   41.5951 C   0  0  0  0  0  0  0  0  0  0  0  0
  1  2  1  6  0  0  0
  1  6  1  0  0  0  0
  1 21  1  0  0  0  0
  3  4  1  1  0  0  0
  3  8  1  0  0  0  0
  3 28  1  0  0  0  0
  5  9  1  0  0  0  0
  5 25  1  0  0  0  0
  5 29  1  1  0  0  0
  6  7  1  6  0  0  0
  6 11  1  0  0  0  0
  8 12  1  0  0  0  0
  9 10  1  6  0  0  0
  9 14  1  0  0  0  0
 11 16  1  0  0  0  0
 12 13  1  1  0  0  0
 12 17  1  0  0  0  0
 14 15  1  1  0  0  0
 14 18  1  0  0  0  0
 15 31  1  0  0  0  0
 16 20  1  0  0  0  0
 17  2  1  6  0  0  0
 17 22  1  0  0  0  0
 18 19  1  1  0  0  0
 18 24  1  0  0  0  0
 18 30  1  0  0  0  0
 20 21  1  0  0  0  0
 20 26  1  6  0  0  0
 22 23  1  1  0  0  0
 22 28  1  0  0  0  0
 24 25  1  0  0  0  0
 26 27  1  0  0  0  0
 28 29  1  6  0  0  0
M  END
>  <CHROM.1>
-178.11989711,178.98233356,-110.45665038,-174.58110160,-114.48208291,61.28109884
0.25113067,12.46129623,38.98995775,0.12599938,0.63749944,0.62989900

>  <Name>
ligand

>  <RI>
0

>  <Rbt.Current_Directory>
/home/itssahil/PROJECTS/Mol_Feturizer/New_Systems/rnas/4GPY

>  <Rbt.Executable>
rbdock ($Id: //depot/dev/client3/rdock/2013.1/src/exe/rbdock.cxx#4 $)

>  <Rbt.Library>
libRbt.so (2013.1, Build901 2013/11/27)

>  <Rbt.Parameter_File>
/export/apps/rDock/src/rDock_2013.1_src/data/scripts/dock_solv.prm

>  <Rbt.Receptor>
prm/pocket_docking_7.prm

>  <SCORE>
-12.332

>  <SCORE.INTER>
-7.24674

>  <SCORE.INTER.CONST>
1

>  <SCORE.INTER.POLAR>
0

>  <SCORE.INTER.ROT>
6

>  <SCORE.INTER.SOLV>
11.6867

>  <SCORE.INTER.VDW>
-16.3267

>  <SCORE.INTER.norm>
-0.233766

>  <SCORE.INTRA>
-5.08522

>  <SCORE.INTRA.DIHEDRAL>
-11.6692

>  <SCORE.INTRA.DIHEDRAL.0>
14.7001

>  <SCORE.INTRA.POLAR>
0

>  <SCORE.INTRA.POLAR.0>
0

>  <SCORE.INTRA.REPUL>
0

>  <SCORE.INTRA.REPUL.0>
0

>  <SCORE.INTRA.SOLV>
-1.11828

>  <SCORE.INTRA.SOLV.lig_0>
-65.3082

>  <SCORE.INTRA.VDW>
1.3085

>  <SCORE.INTRA.VDW.0>
-4.21408

>  <SCORE.INTRA.norm>
-0.164039

>  <SCORE.RESTR>
0

>  <SCORE.RESTR.CAVITY>
0

>  <SCORE.RESTR.norm>
0

>  <SCORE.SYSTEM>
0

>  <SCORE.SYSTEM.CONST>
0

>  <SCORE.SYSTEM.DIHEDRAL>
0

>  <SCORE.SYSTEM.SOLV>
0

>  <SCORE.SYSTEM.norm>
0

>  <SCORE.heavy>
31

>  <SCORE.norm>
-0.397805

>  <RMSD>
4.466

$$$$
ligand
 OpenBabel11021811493D
libRbt.so/2013.1/901 2013/11/27
 31 33  0  0  0  0  0  0  0  0999 V2000
    2.5795   13.4811   36.6143 C   0  0  2  0  0  0  0  0  0  0  0  0
    1.7448   13.3557   37.7496 O   0  0  0  0  0  0  0  0  0  0  0  0
   -1.8781   11.2772   38.5333 C   0  0  2  0  0  0  0  0  0  0  0  0
   -2.8040   10.2023   38.6522 N   0  0  0  0  0  0  0  0  0  0  0  0
   -0.4814   10.2405   41.9104 C   0  0  2  0  0  0  0  0  0  0  0  0
    3.8477   12.5459   36.8272 C   0  0  2  0  0  0  0  0  0  0  0  0
    3.4006   11.1719   37.0290 N   0  0  0  0  0  0  0  0  0  0  0  0
   -1.3572   11.3219   37.0279 C   0  0  0  0  0  0  0  0  0  0  0  0
   -1.5664   10.0941   43.0296 C   0  0  2  0  0  0  0  0  0  0  0  0
   -2.7057    9.4703   42.4765 O   0  0  0  0  0  0  0  0  0  0  0  0
    4.7063   13.0478   38.0458 C   0  0  0  0  0  0  0  0  0  0  0  0
   -0.3400   12.5279   36.8922 C   0  0  2  0  0  0  0  0  0  0  0  0
    0.1426   12.5897   35.5119 N   0  0  0  0  0  0  0  0  0  0  0  0
   -1.9203   11.5267   43.5717 C   0  0  1  0  0  0  0  0  0  0  0  0
   -2.9695   11.4177   44.6356 N   0  0  0  0  0  0  0  0  0  0  0  0
    4.7929   14.6309   38.0929 C   0  0  0  0  0  0  0  0  0  0  0  0
    0.8738   12.2895   37.8806 C   0  0  2  0  0  0  0  0  0  0  0  0
   -0.5781   12.1944   44.2049 C   0  0  1  0  0  0  0  0  0  0  0  0
   -0.0390   11.4492   45.2787 O   0  0  0  0  0  0  0  0  0  0  0  0
    3.9818   15.4014   37.3281 C   0  0  1  0  0  0  0  0  0  0  0  0
    3.0075   14.8677   36.4359 O   0  0  0  0  0  0  0  0  0  0  0  0
    0.3425   12.2223   39.3729 C   0  0  2  0  0  0  0  0  0  0  0  0
    1.4524   11.9904   40.2642 O   0  0  0  0  0  0  0  0  0  0  0  0
    0.5112   12.3004   43.0959 C   0  0  0  0  0  0  0  0  0  0  0  0
    0.7474   10.9371   42.4691 O   0  0  0  0  0  0  0  0  0  0  0  0
    4.0278   16.9106   37.3491 C   0  0  0  0  0  0  0  0  0  0  0  0
    5.3914   17.2769   37.6512 O   0  0  0  0  0  0  0  0  0  0  0  0
   -0.6755   11.0258   39.5037 C   0  0  1  0  0  0  0  0  0  0  0  0
   -1.1366   10.9902   40.8316 O   0  0  0  0  0  0  0  0  0  0  0  0
   -0.7740   13.6080   44.7683 C   0  0  0  0  0  0  0  0  0  0  0  0
   -4.0655   12.4070   44.5768 C   0  0  0  0  0  0  0  0  0  0  0  0
  1  2  1  1  0  0  0
  1  6  1  0  0  0  0
  1 21  1  0  0  0  0
  3  4  1  6  0  0  0
  3  8  1  0  0  0  0
  3 28  1  0  0  0  0
  5  9  1  0  0  0  0
  5 25  1  0  0  0  0
  5 29  1  6  0  0  0
  6  7  1  1  0  0  0
  6 11  1  0  0  0  0
  8 12  1  0  0  0  0
  9 10  1  6  0  0  0
  9 14  1  0  0  0  0
 11 16  1  0  0  0  0
 12 13  1  6  0  0  0
 12 17  1  0  0  0  0
 14 15  1  1  0  0  0
 14 18  1  0  0  0  0
 15 31  1  0  0  0  0
 16 20  1  0  0  0  0
 17  2  1  1  0  0  0
 17 22  1  0  0  0  0
 18 19  1  1  0  0  0
 18 24  1  0  0  0  0
 18 30  1  0  0  0  0
 20 21  1  0  0  0  0
 20 26  1  1  0  0  0
 22 23  1  1  0  0  0
 22 28  1  0  0  0  0
 24 25  1  0  0  0  0
 26 27  1  0  0  0  0
 28 29  1  1  0  0  0
M  END
>  <CHROM.1>
-81.21621019,-161.34997728,-136.69268526,-74.29247040,30.52807614,152.45008024
0.60152277,12.42955689,39.95984289,0.71710715,-0.65674769,-1.72295717

>  <Name>
ligand

>  <RI>
0

>  <Rbt.Current_Directory>
/home/itssahil/PROJECTS/Mol_Feturizer/New_Systems/rnas/4GPY

>  <Rbt.Executable>
rbdock ($Id: //depot/dev/client3/rdock/2013.1/src/exe/rbdock.cxx#4 $)

>  <Rbt.Library>
libRbt.so (2013.1, Build901 2013/11/27)

>  <Rbt.Parameter_File>
/export/apps/rDock/src/rDock_2013.1_src/data/scripts/dock_solv.prm

>  <Rbt.Receptor>
prm/pocket_docking_7.prm

>  <SCORE>
-5.53455

>  <SCORE.INTER>
-6.78681

>  <SCORE.INTER.CONST>
1

>  <SCORE.INTER.POLAR>
0

>  <SCORE.INTER.ROT>
6

>  <SCORE.INTER.SOLV>
9.1579

>  <SCORE.INTER.VDW>
-15.1772

>  <SCORE.INTER.norm>
-0.218929

>  <SCORE.INTRA>
1.25226

>  <SCORE.INTRA.DIHEDRAL>
-3.35742

>  <SCORE.INTRA.DIHEDRAL.0>
14.7001

>  <SCORE.INTRA.POLAR>
0

>  <SCORE.INTRA.POLAR.0>
0

>  <SCORE.INTRA.REPUL>
0

>  <SCORE.INTRA.REPUL.0>
0

>  <SCORE.INTRA.SOLV>
1.36014

>  <SCORE.INTRA.SOLV.lig_0>
-65.3082

>  <SCORE.INTRA.VDW>
2.2509

>  <SCORE.INTRA.VDW.0>
-4.21408

>  <SCORE.INTRA.norm>
0.0403954

>  <SCORE.RESTR>
0

>  <SCORE.RESTR.CAVITY>
0

>  <SCORE.RESTR.norm>
0

>  <SCORE.SYSTEM>
0

>  <SCORE.SYSTEM.CONST>
0

>  <SCORE.SYSTEM.DIHEDRAL>
0

>  <SCORE.SYSTEM.SOLV>
0

>  <SCORE.SYSTEM.norm>
0

>  <SCORE.heavy>
31

>  <SCORE.norm>
-0.178534

>  <RMSD>
4.476

$$$$
ligand
 OpenBabel11021811493D
libRbt.so/2013.1/901 2013/11/27
 31 33  0  0  0  0  0  0  0  0999 V2000
    2.1782   15.0369   38.2021 C   0  0  2  0  0  0  0  0  0  0  0  0
    2.0214   14.1065   37.1481 O   0  0  0  0  0  0  0  0  0  0  0  0
   -0.0441   10.4006   36.9020 C   0  0  2  0  0  0  0  0  0  0  0  0
   -0.3670    9.0325   37.1273 N   0  0  0  0  0  0  0  0  0  0  0  0
   -2.0677    9.8642   39.1934 C   0  0  2  0  0  0  0  0  0  0  0  0
    2.4970   16.4579   37.5640 C   0  0  2  0  0  0  0  0  0  0  0  0
    1.4135   16.8311   36.6610 N   0  0  0  0  0  0  0  0  0  0  0  0
    1.4296   10.4719   36.2996 C   0  0  0  0  0  0  0  0  0  0  0  0
   -3.4675   10.3041   39.7397 C   0  0  2  0  0  0  0  0  0  0  0  0
   -4.1331   11.0420   38.7369 O   0  0  0  0  0  0  0  0  0  0  0  0
    3.8779   16.4287   36.8115 C   0  0  0  0  0  0  0  0  0  0  0  0
    1.7821   11.9927   36.0339 C   0  0  2  0  0  0  0  0  0  0  0  0
    3.1306   12.0768   35.4714 N   0  0  0  0  0  0  0  0  0  0  0  0
   -3.2479   11.1801   41.0265 C   0  0  1  0  0  0  0  0  0  0  0  0
   -4.5730   11.6285   41.5628 N   0  0  0  0  0  0  0  0  0  0  0  0
    4.9620   15.5834   37.6028 C   0  0  0  0  0  0  0  0  0  0  0  0
    1.7164   12.7821   37.4048 C   0  0  2  0  0  0  0  0  0  0  0  0
   -2.4882   10.2808   42.1501 C   0  0  1  0  0  0  0  0  0  0  0  0
   -3.2192    9.1320   42.5312 O   0  0  0  0  0  0  0  0  0  0  0  0
    4.6090   14.7812   38.6364 C   0  0  1  0  0  0  0  0  0  0  0  0
    3.2668   14.6346   39.0913 O   0  0  0  0  0  0  0  0  0  0  0  0
    0.2533   12.6848   38.0078 C   0  0  2  0  0  0  0  0  0  0  0  0
    0.2067   13.3940   39.2629 O   0  0  0  0  0  0  0  0  0  0  0  0
   -1.1136    9.8128   41.5853 C   0  0  0  0  0  0  0  0  0  0  0  0
   -1.3142    9.0925   40.2631 O   0  0  0  0  0  0  0  0  0  0  0  0
    5.6088   13.9553   39.4102 C   0  0  0  0  0  0  0  0  0  0  0  0
    5.3106   12.5721   39.1228 O   0  0  0  0  0  0  0  0  0  0  0  0
   -0.0982   11.1697   38.2646 C   0  0  1  0  0  0  0  0  0  0  0  0
   -1.3999   11.1086   38.7927 O   0  0  0  0  0  0  0  0  0  0  0  0
   -2.1985   11.0152   43.4656 C   0  0  0  0  0  0  0  0  0  0  0  0
   -4.6565   13.0354   42.0067 C   0  0  0  0  0  0  0  0  0  0  0  0
  1  2  1  6  0  0  0
  1  6  1  0  0  0  0
  1 21  1  0  0  0  0
  3  4  1  1  0  0  0
  3  8  1  0  0  0  0
  3 28  1  0  0  0  0
  5  9  1  0  0  0  0
  5 25  1  0  0  0  0
  5 29  1  1  0  0  0
  6  7  1  6  0  0  0
  6 11  1  0  0  0  0
  8 12  1  0  0  0  0
  9 10  1  6  0  0  0
  9 14  1  0  0  0  0
 11 16  1  0  0  0  0
 12 13  1  1  0  0  0
 12 17  1  0  0  0  0
 14 15  1  1  0  0  0
 14 18  1  0  0  0  0
 15 31  1  0  0  0  0
 16 20  1  0  0  0  0
 17  2  1  6  0  0  0
 17 22  1  0  0  0  0
 18 19  1  1  0  0  0
 18 24  1  0  0  0  0
 18 30  1  0  0  0  0
 20 21  1  0  0  0  0
 20 26  1  6  0  0  0
 22 23  1  1  0  0  0
 22 28  1  0  0  0  0
 24 25  1  0  0  0  0
 26 27  1  0  0  0  0
 28 29  1  6  0  0  0
M  END
>  <CHROM.1>
-179.06340854,178.86165993,-137.20770486,-173.43449105,-112.98036785,63.13012340
0.30480781,12.30878622,38.94132840,0.13391742,0.66508453,0.66147458

>  <Name>
ligand

>  <RI>
0

>  <Rbt.Current_Directory>
/home/itssahil/PROJECTS/Mol_Feturizer/New_Systems/rnas/4GPY

>  <Rbt.Executable>
rbdock ($Id: //depot/dev/client3/rdock/2013.1/src/exe/rbdock.cxx#4 $)

>  <Rbt.Library>
libRbt.so (2013.1, Build901 2013/11/27)

>  <Rbt.Parameter_File>
/export/apps/rDock/src/rDock_2013.1_src/data/scripts/dock_solv.prm

>  <Rbt.Receptor>
prm/pocket_docking_5.prm

>  <SCORE>
-12.3642

>  <SCORE.INTER>
-7.26635

>  <SCORE.INTER.CONST>
1

>  <SCORE.INTER.POLAR>
0

>  <SCORE.INTER.ROT>
6

>  <SCORE.INTER.SOLV>
12.4783

>  <SCORE.INTER.VDW>
-16.6037

>  <SCORE.INTER.norm>
-0.234399

>  <SCORE.INTRA>
-5.09784

>  <SCORE.INTRA.DIHEDRAL>
-11.7039

>  <SCORE.INTRA.DIHEDRAL.0>
14.7001

>  <SCORE.INTRA.POLAR>
0

>  <SCORE.INTRA.POLAR.0>
0

>  <SCORE.INTRA.REPUL>
0

>  <SCORE.INTRA.REPUL.0>
0

>  <SCORE.INTRA.SOLV>
-1.1526

>  <SCORE.INTRA.SOLV.lig_0>
-65.3082

>  <SCORE.INTRA.VDW>
1.33041

>  <SCORE.INTRA.VDW.0>
-4.21408

>  <SCORE.INTRA.norm>
-0.164446

>  <SCORE.RESTR>
0

>  <SCORE.RESTR.CAVITY>
0

>  <SCORE.RESTR.norm>
0

>  <SCORE.SYSTEM>
0

>  <SCORE.SYSTEM.CONST>
0

>  <SCORE.SYSTEM.DIHEDRAL>
0

>  <SCORE.SYSTEM.SOLV>
0

>  <SCORE.SYSTEM.norm>
0

>  <SCORE.heavy>
31

>  <SCORE.norm>
-0.398845

>  <RMSD>
4.485

$$$$
ligand
 OpenBabel11021811493D
libRbt.so/2013.1/901 2013/11/27
 31 33  0  0  0  0  0  0  0  0999 V2000
    2.2319   14.9675   38.2876 C   0  0  2  0  0  0  0  0  0  0  0  0
    2.0332   14.0591   37.2215 O   0  0  0  0  0  0  0  0  0  0  0  0
   -0.1251   10.4086   36.9465 C   0  0  2  0  0  0  0  0  0  0  0  0
   -0.4783    9.0453   37.1551 N   0  0  0  0  0  0  0  0  0  0  0  0
   -2.1328    9.8850   39.2518 C   0  0  2  0  0  0  0  0  0  0  0  0
    2.5831   16.3888   37.6674 C   0  0  2  0  0  0  0  0  0  0  0  0
    1.4984   16.8077   36.7861 N   0  0  0  0  0  0  0  0  0  0  0  0
    1.3418   10.4537   36.3253 C   0  0  0  0  0  0  0  0  0  0  0  0
   -3.5320   10.3467   39.7814 C   0  0  2  0  0  0  0  0  0  0  0  0
   -4.1711   11.1008   38.7734 O   0  0  0  0  0  0  0  0  0  0  0  0
    3.9519   16.3317   36.8945 C   0  0  0  0  0  0  0  0  0  0  0  0
    1.7278   11.9695   36.0782 C   0  0  2  0  0  0  0  0  0  0  0  0
    3.0704   12.0298   35.4989 N   0  0  0  0  0  0  0  0  0  0  0  0
   -3.3145   11.2127   41.0753 C   0  0  1  0  0  0  0  0  0  0  0  0
   -4.6387   11.6817   41.5960 N   0  0  0  0  0  0  0  0  0  0  0  0
    5.0218   15.4426   37.6566 C   0  0  0  0  0  0  0  0  0  0  0  0
    1.6994   12.7387   37.4619 C   0  0  2  0  0  0  0  0  0  0  0  0
   -2.5857   10.2952   42.2045 C   0  0  1  0  0  0  0  0  0  0  0  0
   -3.3416    9.1575   42.5702 O   0  0  0  0  0  0  0  0  0  0  0  0
    4.6602   14.6345   38.6825 C   0  0  1  0  0  0  0  0  0  0  0  0
    3.3207   14.5195   39.1545 O   0  0  0  0  0  0  0  0  0  0  0  0
    0.2425   12.6673   38.0832 C   0  0  2  0  0  0  0  0  0  0  0  0
    0.2298   13.3576   39.3495 O   0  0  0  0  0  0  0  0  0  0  0  0
   -1.2120    9.8059   41.6559 C   0  0  0  0  0  0  0  0  0  0  0  0
   -1.4073    9.0953   40.3277 O   0  0  0  0  0  0  0  0  0  0  0  0
    5.6462   13.7676   39.4286 C   0  0  0  0  0  0  0  0  0  0  0  0
    5.5980   14.1844   40.8101 O   0  0  0  0  0  0  0  0  0  0  0  0
   -0.1424   11.1573   38.3214 C   0  0  1  0  0  0  0  0  0  0  0  0
   -1.4381   11.1194   38.8661 O   0  0  0  0  0  0  0  0  0  0  0  0
   -2.3010   11.0182   43.5274 C   0  0  0  0  0  0  0  0  0  0  0  0
   -4.7116   13.0958   42.0183 C   0  0  0  0  0  0  0  0  0  0  0  0
  1  2  1  6  0  0  0
  1  6  1  0  0  0  0
  1 21  1  0  0  0  0
  3  4  1  1  0  0  0
  3  8  1  0  0  0  0
  3 28  1  0  0  0  0
  5  9  1  0  0  0  0
  5 25  1  0  0  0  0
  5 29  1  1  0  0  0
  6  7  1  6  0  0  0
  6 11  1  0  0  0  0
  8 12  1  0  0  0  0
  9 10  1  6  0  0  0
  9 14  1  0  0  0  0
 11 16  1  0  0  0  0
 12 13  1  1  0  0  0
 12 17  1  0  0  0  0
 14 15  1  1  0  0  0
 14 18  1  0  0  0  0
 15 31  1  0  0  0  0
 16 20  1  0  0  0  0
 17  2  1  6  0  0  0
 17 22  1  0  0  0  0
 18 19  1  1  0  0  0
 18 24  1  0  0  0  0
 18 30  1  0  0  0  0
 20 21  1  0  0  0  0
 20 26  1  6  0  0  0
 22 23  1  1  0  0  0
 22 28  1  0  0  0  0
 24 25  1  0  0  0  0
 26 27  1  0  0  0  0
 28 29  1  6  0  0  0
M  END
>  <CHROM.1>
-179.36812292,-179.31005670,-135.92915240,-173.17315854,120.31192990,62.87969556
0.28819782,12.34362204,39.05709592,-0.06607413,0.65171859,1.02904343

>  <Name>
ligand

>  <RI>
0

>  <Rbt.Current_Directory>
/home/itssahil/PROJECTS/Mol_Feturizer/New_Systems/rnas/4GPY

>  <Rbt.Executable>
rbdock ($Id: //depot/dev/client3/rdock/2013.1/src/exe/rbdock.cxx#4 $)

>  <Rbt.Library>
libRbt.so (2013.1, Build901 2013/11/27)

>  <Rbt.Parameter_File>
/export/apps/rDock/src/rDock_2013.1_src/data/scripts/dock_solv.prm

>  <Rbt.Receptor>
prm/pocket_docking_5.prm

>  <SCORE>
-12.1421

>  <SCORE.INTER>
-7.07966

>  <SCORE.INTER.CONST>
1

>  <SCORE.INTER.POLAR>
0

>  <SCORE.INTER.ROT>
6

>  <SCORE.INTER.SOLV>
12.256

>  <SCORE.INTER.VDW>
-16.4051

>  <SCORE.INTER.norm>
-0.228376

>  <SCORE.INTRA>
-5.06247

>  <SCORE.INTRA.DIHEDRAL>
-11.7345

>  <SCORE.INTRA.DIHEDRAL.0>
14.7001

>  <SCORE.INTRA.POLAR>
0

>  <SCORE.INTRA.POLAR.0>
0

>  <SCORE.INTRA.REPUL>
0

>  <SCORE.INTRA.REPUL.0>
0

>  <SCORE.INTRA.SOLV>
-1.32574

>  <SCORE.INTRA.SOLV.lig_0>
-65.3082

>  <SCORE.INTRA.VDW>
1.46766

>  <SCORE.INTRA.VDW.0>
-4.21408

>  <SCORE.INTRA.norm>
-0.163305

>  <SCORE.RESTR>
0

>  <SCORE.RESTR.CAVITY>
0

>  <SCORE.RESTR.norm>
0

>  <SCORE.SYSTEM>
0

>  <SCORE.SYSTEM.CONST>
0

>  <SCORE.SYSTEM.DIHEDRAL>
0

>  <SCORE.SYSTEM.SOLV>
0

>  <SCORE.SYSTEM.norm>
0

>  <SCORE.heavy>
31

>  <SCORE.norm>
-0.391682

>  <RMSD>
4.507

$$$$
ligand
 OpenBabel11021811493D
libRbt.so/2013.1/901 2013/11/27
 31 33  0  0  0  0  0  0  0  0999 V2000
    2.2202   15.0118   38.2716 C   0  0  2  0  0  0  0  0  0  0  0  0
    2.0568   14.0609   37.2370 O   0  0  0  0  0  0  0  0  0  0  0  0
   -0.0191   10.3564   37.0734 C   0  0  2  0  0  0  0  0  0  0  0  0
   -0.3445    8.9938   37.3271 N   0  0  0  0  0  0  0  0  0  0  0  0
   -2.0415    9.8687   39.3654 C   0  0  2  0  0  0  0  0  0  0  0  0
    2.6126   16.4023   37.6080 C   0  0  2  0  0  0  0  0  0  0  0  0
    1.5707   16.7934   36.6646 N   0  0  0  0  0  0  0  0  0  0  0  0
    1.4521   10.4119   36.4633 C   0  0  0  0  0  0  0  0  0  0  0  0
   -3.4529   10.3187   39.8720 C   0  0  2  0  0  0  0  0  0  0  0  0
   -4.0961   11.0369   38.8406 O   0  0  0  0  0  0  0  0  0  0  0  0
    4.0121   16.3003   36.8972 C   0  0  0  0  0  0  0  0  0  0  0  0
    1.8074   11.9261   36.1659 C   0  0  2  0  0  0  0  0  0  0  0  0
    3.1536   11.9955   35.5961 N   0  0  0  0  0  0  0  0  0  0  0  0
   -3.2617   11.2195   41.1462 C   0  0  1  0  0  0  0  0  0  0  0  0
   -4.5982   11.6778   41.6443 N   0  0  0  0  0  0  0  0  0  0  0  0
    5.0392   15.4346   37.7408 C   0  0  0  0  0  0  0  0  0  0  0  0
    1.7496   12.7428   37.5212 C   0  0  2  0  0  0  0  0  0  0  0  0
   -2.5271   10.3423   42.3034 C   0  0  1  0  0  0  0  0  0  0  0  0
   -3.2665    9.2009   42.6904 O   0  0  0  0  0  0  0  0  0  0  0  0
    4.6258   14.6738   38.7833 C   0  0  1  0  0  0  0  0  0  0  0  0
    3.2665   14.5911   39.2022 O   0  0  0  0  0  0  0  0  0  0  0  0
    0.2889   12.6613   38.1324 C   0  0  2  0  0  0  0  0  0  0  0  0
    0.2496   13.3953   39.3733 O   0  0  0  0  0  0  0  0  0  0  0  0
   -1.1404    9.8639   41.7782 C   0  0  0  0  0  0  0  0  0  0  0  0
   -1.3119    9.1180   40.4662 O   0  0  0  0  0  0  0  0  0  0  0  0
    5.5700   13.8303   39.6063 C   0  0  0  0  0  0  0  0  0  0  0  0
    5.4578   14.2963   40.9683 O   0  0  0  0  0  0  0  0  0  0  0  0
   -0.0653   11.1525   38.4207 C   0  0  1  0  0  0  0  0  0  0  0  0
   -1.3648   11.1052   38.9555 O   0  0  0  0  0  0  0  0  0  0  0  0
   -2.2664   11.1021   43.6105 C   0  0  0  0  0  0  0  0  0  0  0  0
   -4.7079   13.1075   42.0013 C   0  0  0  0  0  0  0  0  0  0  0  0
  1  2  1  6  0  0  0
  1  6  1  0  0  0  0
  1 21  1  0  0  0  0
  3  4  1  1  0  0  0
  3  8  1  0  0  0  0
  3 28  1  0  0  0  0
  5  9  1  0  0  0  0
  5 25  1  0  0  0  0
  5 29  1  1  0  0  0
  6  7  1  6  0  0  0
  6 11  1  0  0  0  0
  8 12  1  0  0  0  0
  9 10  1  6  0  0  0
  9 14  1  0  0  0  0
 11 16  1  0  0  0  0
 12 13  1  1  0  0  0
 12 17  1  0  0  0  0
 14 15  1  1  0  0  0
 14 18  1  0  0  0  0
 15 31  1  0  0  0  0
 16 20  1  0  0  0  0
 17  2  1  6  0  0  0
 17 22  1  0  0  0  0
 18 19  1  1  0  0  0
 18 24  1  0  0  0  0
 18 30  1  0  0  0  0
 20 21  1  0  0  0  0
 20 26  1  6  0  0  0
 22 23  1  1  0  0  0
 22 28  1  0  0  0  0
 24 25  1  0  0  0  0
 26 27  1  0  0  0  0
 28 29  1  6  0  0  0
M  END
>  <CHROM.1>
178.10579535,-179.30524990,-134.54024847,-173.45369340,120.89869780,62.19358040
0.33035747,12.35253705,39.13052630,-0.05975797,0.66296623,1.00965256

>  <Name>
ligand

>  <RI>
0

>  <Rbt.Current_Directory>
/home/itssahil/PROJECTS/Mol_Feturizer/New_Systems/rnas/4GPY

>  <Rbt.Executable>
rbdock ($Id: //depot/dev/client3/rdock/2013.1/src/exe/rbdock.cxx#4 $)

>  <Rbt.Library>
libRbt.so (2013.1, Build901 2013/11/27)

>  <Rbt.Parameter_File>
/export/apps/rDock/src/rDock_2013.1_src/data/scripts/dock_solv.prm

>  <Rbt.Receptor>
prm/pocket_docking_6.prm

>  <SCORE>
-12.1424

>  <SCORE.INTER>
-7.11812

>  <SCORE.INTER.CONST>
1

>  <SCORE.INTER.POLAR>
0

>  <SCORE.INTER.ROT>
6

>  <SCORE.INTER.SOLV>
11.6352

>  <SCORE.INTER.VDW>
-16.2238

>  <SCORE.INTER.norm>
-0.229617

>  <SCORE.INTRA>
-5.02428

>  <SCORE.INTRA.DIHEDRAL>
-11.7218

>  <SCORE.INTRA.DIHEDRAL.0>
14.7001

>  <SCORE.INTRA.POLAR>
0

>  <SCORE.INTRA.POLAR.0>
0

>  <SCORE.INTRA.REPUL>
0

>  <SCORE.INTRA.REPUL.0>
0

>  <SCORE.INTRA.SOLV>
-1.30394

>  <SCORE.INTRA.SOLV.lig_0>
-65.3082

>  <SCORE.INTRA.VDW>
1.48859

>  <SCORE.INTRA.VDW.0>
-4.21408

>  <SCORE.INTRA.norm>
-0.162074

>  <SCORE.RESTR>
0

>  <SCORE.RESTR.CAVITY>
0

>  <SCORE.RESTR.norm>
0

>  <SCORE.SYSTEM>
0

>  <SCORE.SYSTEM.CONST>
0

>  <SCORE.SYSTEM.DIHEDRAL>
0

>  <SCORE.SYSTEM.SOLV>
0

>  <SCORE.SYSTEM.norm>
0

>  <SCORE.heavy>
31

>  <SCORE.norm>
-0.39169

>  <RMSD>
4.533

$$$$
ligand
 OpenBabel11021811493D
libRbt.so/2013.1/901 2013/11/27
 31 33  0  0  0  0  0  0  0  0999 V2000
    1.5173   17.5509   37.4366 C   0  0  2  0  0  0  0  0  0  0  0  0
    0.8858   16.4462   36.8184 O   0  0  0  0  0  0  0  0  0  0  0  0
   -1.9984   13.6128   38.1274 C   0  0  2  0  0  0  0  0  0  0  0  0
   -2.5880   12.5506   38.8697 N   0  0  0  0  0  0  0  0  0  0  0  0
   -2.8122   16.1750   40.8706 C   0  0  2  0  0  0  0  0  0  0  0  0
    1.8171   18.6393   36.3170 C   0  0  2  0  0  0  0  0  0  0  0  0
    0.5656   19.0164   35.6688 N   0  0  0  0  0  0  0  0  0  0  0  0
   -0.6756   13.0600   37.4316 C   0  0  0  0  0  0  0  0  0  0  0  0
   -2.4711   15.2745   42.1051 C   0  0  2  0  0  0  0  0  0  0  0  0
   -1.2406   14.6251   41.8652 O   0  0  0  0  0  0  0  0  0  0  0  0
    2.8533   18.0856   35.2711 C   0  0  0  0  0  0  0  0  0  0  0  0
   -0.0290   14.2373   36.5928 C   0  0  2  0  0  0  0  0  0  0  0  0
    1.1839   13.7447   35.9387 N   0  0  0  0  0  0  0  0  0  0  0  0
   -3.6288   14.2279   42.2941 C   0  0  1  0  0  0  0  0  0  0  0  0
   -3.3206   13.3411   43.4616 N   0  0  0  0  0  0  0  0  0  0  0  0
    3.9981   17.2377   35.9685 C   0  0  0  0  0  0  0  0  0  0  0  0
    0.3291   15.4289   37.5721 C   0  0  2  0  0  0  0  0  0  0  0  0
   -5.0179   15.0272   42.5764 C   0  0  1  0  0  0  0  0  0  0  0  0
   -4.9710   15.8315   43.7384 O   0  0  0  0  0  0  0  0  0  0  0  0
    3.8889   16.8385   37.2590 C   0  0  1  0  0  0  0  0  0  0  0  0
    2.7647   17.1417   38.0802 O   0  0  0  0  0  0  0  0  0  0  0  0
   -0.9896   15.9556   38.2774 C   0  0  2  0  0  0  0  0  0  0  0  0
   -0.6519   17.0305   39.1779 O   0  0  0  0  0  0  0  0  0  0  0  0
   -5.3307   15.9516   41.3618 C   0  0  0  0  0  0  0  0  0  0  0  0
   -4.1483   16.8647   41.0869 O   0  0  0  0  0  0  0  0  0  0  0  0
    4.9522   16.0245   37.9569 C   0  0  0  0  0  0  0  0  0  0  0  0
    4.3694   14.7316   38.2280 O   0  0  0  0  0  0  0  0  0  0  0  0
   -1.6354   14.7800   39.1057 C   0  0  1  0  0  0  0  0  0  0  0  0
   -2.8041   15.2686   39.7159 O   0  0  0  0  0  0  0  0  0  0  0  0
   -6.2437   14.1258   42.7729 C   0  0  0  0  0  0  0  0  0  0  0  0
   -2.8446   11.9795   43.1409 C   0  0  0  0  0  0  0  0  0  0  0  0
  1  2  1  6  0  0  0
  1  6  1  0  0  0  0
  1 21  1  0  0  0  0
  3  4  1  1  0  0  0
  3  8  1  0  0  0  0
  3 28  1  0  0  0  0
  5  9  1  0  0  0  0
  5 25  1  0  0  0  0
  5 29  1  6  0  0  0
  6  7  1  6  0  0  0
  6 11  1  0  0  0  0
  8 12  1  0  0  0  0
  9 10  1  6  0  0  0
  9 14  1  0  0  0  0
 11 16  1  0  0  0  0
 12 13  1  1  0  0  0
 12 17  1  0  0  0  0
 14 15  1  1  0  0  0
 14 18  1  0  0  0  0
 15 31  1  0  0  0  0
 16 20  1  0  0  0  0
 17  2  1  6  0  0  0
 17 22  1  0  0  0  0
 18 19  1  1  0  0  0
 18 24  1  0  0  0  0
 18 30  1  0  0  0  0
 20 21  1  0  0  0  0
 20 26  1  6  0  0  0
 22 23  1  1  0  0  0
 22 28  1  0  0  0  0
 24 25  1  0  0  0  0
 26 27  1  0  0  0  0
 28 29  1  6  0  0  0
M  END
>  <CHROM.1>
-170.36730757,-76.48537230,-103.79197020,-169.02173500,-113.44653359,167.59618861
-0.78474651,15.51344120,39.23326409,0.42231162,0.59438847,-0.30449951

>  <Name>
ligand

>  <RI>
0

>  <Rbt.Current_Directory>
/home/itssahil/PROJECTS/Mol_Feturizer/New_Systems/rnas/4GPY

>  <Rbt.Executable>
rbdock ($Id: //depot/dev/client3/rdock/2013.1/src/exe/rbdock.cxx#4 $)

>  <Rbt.Library>
libRbt.so (2013.1, Build901 2013/11/27)

>  <Rbt.Parameter_File>
/export/apps/rDock/src/rDock_2013.1_src/data/scripts/dock_solv.prm

>  <Rbt.Receptor>
prm/pocket_docking_6.prm

>  <SCORE>
-11.1138

>  <SCORE.INTER>
-7.30134

>  <SCORE.INTER.CONST>
1

>  <SCORE.INTER.POLAR>
0

>  <SCORE.INTER.ROT>
6

>  <SCORE.INTER.SOLV>
16.6551

>  <SCORE.INTER.VDW>
-18.0193

>  <SCORE.INTER.norm>
-0.235527

>  <SCORE.INTRA>
-3.81249

>  <SCORE.INTRA.DIHEDRAL>
-8.93965

>  <SCORE.INTRA.DIHEDRAL.0>
14.7001

>  <SCORE.INTRA.POLAR>
0

>  <SCORE.INTRA.POLAR.0>
0

>  <SCORE.INTRA.REPUL>
0

>  <SCORE.INTRA.REPUL.0>
0

>  <SCORE.INTRA.SOLV>
-0.652214

>  <SCORE.INTRA.SOLV.lig_0>
-65.3082

>  <SCORE.INTRA.VDW>
0.983444

>  <SCORE.INTRA.VDW.0>
-4.21408

>  <SCORE.INTRA.norm>
-0.122984

>  <SCORE.RESTR>
0

>  <SCORE.RESTR.CAVITY>
0

>  <SCORE.RESTR.norm>
0

>  <SCORE.SYSTEM>
0

>  <SCORE.SYSTEM.CONST>
0

>  <SCORE.SYSTEM.DIHEDRAL>
0

>  <SCORE.SYSTEM.SOLV>
0

>  <SCORE.SYSTEM.norm>
0

>  <SCORE.heavy>
31

>  <SCORE.norm>
-0.358511

>  <RMSD>
4.627

$$$$
ligand
 OpenBabel11021811493D
libRbt.so/2013.1/901 2013/11/27
 31 33  0  0  0  0  0  0  0  0999 V2000
    2.3788   15.5190   39.7442 C   0  0  2  0  0  0  0  0  0  0  0  0
    2.6010   14.1221   39.7674 O   0  0  0  0  0  0  0  0  0  0  0  0
    2.0222   10.8628   42.4323 C   0  0  2  0  0  0  0  0  0  0  0  0
    1.4103   10.0263   43.4084 N   0  0  0  0  0  0  0  0  0  0  0  0
    0.0752    8.6156   41.1777 C   0  0  2  0  0  0  0  0  0  0  0  0
    1.0592   15.7959   38.9016 C   0  0  2  0  0  0  0  0  0  0  0  0
   -0.0553   15.0743   39.5065 N   0  0  0  0  0  0  0  0  0  0  0  0
    2.2001   12.3157   43.0623 C   0  0  0  0  0  0  0  0  0  0  0  0
   -0.0095    7.5094   40.0729 C   0  0  2  0  0  0  0  0  0  0  0  0
    1.2995    7.0878   39.7535 O   0  0  0  0  0  0  0  0  0  0  0  0
    1.2622   15.3711   37.4008 C   0  0  0  0  0  0  0  0  0  0  0  0
    2.8956   13.2414   41.9820 C   0  0  2  0  0  0  0  0  0  0  0  0
    3.0752   14.5793   42.5472 N   0  0  0  0  0  0  0  0  0  0  0  0
   -0.7250    8.1175   38.8121 C   0  0  1  0  0  0  0  0  0  0  0  0
   -0.8062    7.0832   37.7312 N   0  0  0  0  0  0  0  0  0  0  0  0
    2.7096   15.7482   36.8727 C   0  0  0  0  0  0  0  0  0  0  0  0
    1.9722   13.3149   40.6979 C   0  0  2  0  0  0  0  0  0  0  0  0
   -2.2284    8.5768   39.2325 C   0  0  1  0  0  0  0  0  0  0  0  0
   -3.0249    7.5087   39.7058 O   0  0  0  0  0  0  0  0  0  0  0  0
    3.6923   16.1247   37.7266 C   0  0  1  0  0  0  0  0  0  0  0  0
    3.5125   16.2145   39.1372 O   0  0  0  0  0  0  0  0  0  0  0  0
    1.7815   11.8618   40.0929 C   0  0  2  0  0  0  0  0  0  0  0  0
    0.9277   11.9365   38.9329 O   0  0  0  0  0  0  0  0  0  0  0  0
   -2.1382    9.6481   40.3602 C   0  0  0  0  0  0  0  0  0  0  0  0
   -1.3190    9.1114   41.5212 O   0  0  0  0  0  0  0  0  0  0  0  0
    5.0845   16.4844   37.2651 C   0  0  0  0  0  0  0  0  0  0  0  0
    5.2983   17.8630   37.6371 O   0  0  0  0  0  0  0  0  0  0  0  0
    1.0958   10.9403   41.1725 C   0  0  1  0  0  0  0  0  0  0  0  0
    0.9430    9.6581   40.6162 O   0  0  0  0  0  0  0  0  0  0  0  0
   -3.0462    9.2010   38.0944 C   0  0  0  0  0  0  0  0  0  0  0  0
   -0.1303    7.4123   36.4591 C   0  0  0  0  0  0  0  0  0  0  0  0
  1  2  1  6  0  0  0
  1  6  1  0  0  0  0
  1 21  1  0  0  0  0
  3  4  1  1  0  0  0
  3  8  1  0  0  0  0
  3 28  1  0  0  0  0
  5  9  1  0  0  0  0
  5 25  1  0  0  0  0
  5 29  1  6  0  0  0
  6  7  1  1  0  0  0
  6 11  1  0  0  0  0
  8 12  1  0  0  0  0
  9 10  1  6  0  0  0
  9 14  1  0  0  0  0
 11 16  1  0  0  0  0
 12 13  1  1  0  0  0
 12 17  1  0  0  0  0
 14 15  1  6  0  0  0
 14 18  1  0  0  0  0
 15 31  1  0  0  0  0
 16 20  1  0  0  0  0
 17  2  1  6  0  0  0
 17 22  1  0  0  0  0
 18 19  1  1  0  0  0
 18 24  1  0  0  0  0
 18 30  1  0  0  0  0
 20 21  1  0  0  0  0
 20 26  1  1  0  0  0
 22 23  1  6  0  0  0
 22 28  1  0  0  0  0
 24 25  1  0  0  0  0
 26 27  1  0  0  0  0
 28 29  1  6  0  0  0
M  END
>  <CHROM.1>
-84.38573991,168.05456704,-119.79494753,-89.44155418,118.18409570,76.46826151
1.09080174,11.82585734,39.71031779,-0.49744198,0.99028441,2.03540202

>  <Name>
ligand

>  <RI>
0

>  <Rbt.Current_Directory>
/home/itssahil/PROJECTS/Mol_Feturizer/New_Systems/rnas/4GPY

>  <Rbt.Executable>
rbdock ($Id: //depot/dev/client3/rdock/2013.1/src/exe/rbdock.cxx#4 $)

>  <Rbt.Library>
libRbt.so (2013.1, Build901 2013/11/27)

>  <Rbt.Parameter_File>
/export/apps/rDock/src/rDock_2013.1_src/data/scripts/dock_solv.prm

>  <Rbt.Receptor>
prm/pocket_docking_7.prm

>  <SCORE>
-7.04366

>  <SCORE.INTER>
-6.13239

>  <SCORE.INTER.CONST>
1

>  <SCORE.INTER.POLAR>
0

>  <SCORE.INTER.ROT>
6

>  <SCORE.INTER.SOLV>
9.39125

>  <SCORE.INTER.VDW>
-14.8187

>  <SCORE.INTER.norm>
-0.197819

>  <SCORE.INTRA>
-0.911271

>  <SCORE.INTRA.DIHEDRAL>
-3.8203

>  <SCORE.INTRA.DIHEDRAL.0>
14.7001

>  <SCORE.INTRA.POLAR>
0

>  <SCORE.INTRA.POLAR.0>
0

>  <SCORE.INTRA.REPUL>
0

>  <SCORE.INTRA.REPUL.0>
0

>  <SCORE.INTRA.SOLV>
1.2869

>  <SCORE.INTRA.SOLV.lig_0>
-65.3082

>  <SCORE.INTRA.VDW>
0.355431

>  <SCORE.INTRA.VDW.0>
-4.21408

>  <SCORE.INTRA.norm>
-0.0293958

>  <SCORE.RESTR>
0

>  <SCORE.RESTR.CAVITY>
0

>  <SCORE.RESTR.norm>
0

>  <SCORE.SYSTEM>
0

>  <SCORE.SYSTEM.CONST>
0

>  <SCORE.SYSTEM.DIHEDRAL>
0

>  <SCORE.SYSTEM.SOLV>
0

>  <SCORE.SYSTEM.norm>
0

>  <SCORE.heavy>
31

>  <SCORE.norm>
-0.227215

>  <RMSD>
4.658

$$$$
ligand
 OpenBabel11021811493D
libRbt.so/2013.1/901 2013/11/27
 31 33  0  0  0  0  0  0  0  0999 V2000
    1.4913   14.3593   38.4565 C   0  0  2  0  0  0  0  0  0  0  0  0
    1.9637   13.0281   38.5344 O   0  0  0  0  0  0  0  0  0  0  0  0
    0.3773    9.2454   39.6456 C   0  0  2  0  0  0  0  0  0  0  0  0
   -0.2719    8.2435   40.4211 N   0  0  0  0  0  0  0  0  0  0  0  0
   -3.0503    9.6212   39.1417 C   0  0  2  0  0  0  0  0  0  0  0  0
    2.0756   15.0146   37.1309 C   0  0  2  0  0  0  0  0  0  0  0  0
    1.6613   14.2185   35.9806 N   0  0  0  0  0  0  0  0  0  0  0  0
    1.6000    9.8169   40.4929 C   0  0  0  0  0  0  0  0  0  0  0  0
   -3.7461   11.0203   39.2403 C   0  0  2  0  0  0  0  0  0  0  0  0
   -3.7390   11.6202   37.9624 O   0  0  0  0  0  0  0  0  0  0  0  0
    3.6428   15.1218   37.2116 C   0  0  0  0  0  0  0  0  0  0  0  0
    2.3318   10.9197   39.6234 C   0  0  2  0  0  0  0  0  0  0  0  0
    3.4644   11.4500   40.3834 N   0  0  0  0  0  0  0  0  0  0  0  0
   -2.9543   11.8992   40.2757 C   0  0  1  0  0  0  0  0  0  0  0  0
   -3.5904   13.2517   40.3789 N   0  0  0  0  0  0  0  0  0  0  0  0
    4.1303   15.5430   38.6611 C   0  0  0  0  0  0  0  0  0  0  0  0
    1.3059   12.0810   39.2980 C   0  0  2  0  0  0  0  0  0  0  0  0
   -3.0023   11.1688   41.7291 C   0  0  1  0  0  0  0  0  0  0  0  0
   -4.3159   10.9996   42.2241 O   0  0  0  0  0  0  0  0  0  0  0  0
    3.2849   15.5211   39.7200 C   0  0  1  0  0  0  0  0  0  0  0  0
    1.9182   15.1302   39.6232 O   0  0  0  0  0  0  0  0  0  0  0  0
    0.0818   11.4980   38.4762 C   0  0  2  0  0  0  0  0  0  0  0  0
   -0.8540   12.5595   38.1971 O   0  0  0  0  0  0  0  0  0  0  0  0
   -2.3445    9.7611   41.6148 C   0  0  0  0  0  0  0  0  0  0  0  0
   -3.0159    8.9631   40.5104 O   0  0  0  0  0  0  0  0  0  0  0  0
    3.7114   15.9073   41.1162 C   0  0  0  0  0  0  0  0  0  0  0  0
    3.0700   14.9768   42.0148 O   0  0  0  0  0  0  0  0  0  0  0  0
   -0.6405   10.3953   39.3407 C   0  0  1  0  0  0  0  0  0  0  0  0
   -1.7167    9.8899   38.5901 O   0  0  0  0  0  0  0  0  0  0  0  0
   -2.2570   11.9156   42.8430 C   0  0  0  0  0  0  0  0  0  0  0  0
   -2.7319   14.4057   40.0403 C   0  0  0  0  0  0  0  0  0  0  0  0
  1  2  1  1  0  0  0
  1  6  1  0  0  0  0
  1 21  1  0  0  0  0
  3  4  1  1  0  0  0
  3  8  1  0  0  0  0
  3 28  1  0  0  0  0
  5  9  1  0  0  0  0
  5 25  1  0  0  0  0
  5 29  1  1  0  0  0
  6  7  1  6  0  0  0
  6 11  1  0  0  0  0
  8 12  1  0  0  0  0
  9 10  1  6  0  0  0
  9 14  1  0  0  0  0
 11 16  1  0  0  0  0
 12 13  1  1  0  0  0
 12 17  1  0  0  0  0
 14 15  1  1  0  0  0
 14 18  1  0  0  0  0
 15 31  1  0  0  0  0
 16 20  1  0  0  0  0
 17  2  1  6  0  0  0
 17 22  1  0  0  0  0
 18 19  1  1  0  0  0
 18 24  1  0  0  0  0
 18 30  1  0  0  0  0
 20 21  1  0  0  0  0
 20 26  1  1  0  0  0
 22 23  1  1  0  0  0
 22 28  1  0  0  0  0
 24 25  1  0  0  0  0
 26 27  1  0  0  0  0
 28 29  1  6  0  0  0
M  END
>  <CHROM.1>
-158.38038447,78.25377313,-120.57344912,-158.65020892,-140.24806348,104.39625071
-0.09671094,12.25626759,39.65543716,0.63968427,0.12021049,-0.15948051

>  <Name>
ligand

>  <RI>
0

>  <Rbt.Current_Directory>
/home/itssahil/PROJECTS/Mol_Feturizer/New_Systems/rnas/4GPY

>  <Rbt.Executable>
rbdock ($Id: //depot/dev/client3/rdock/2013.1/src/exe/rbdock.cxx#4 $)

>  <Rbt.Library>
libRbt.so (2013.1, Build901 2013/11/27)

>  <Rbt.Parameter_File>
/export/apps/rDock/src/rDock_2013.1_src/data/scripts/dock_solv.prm

>  <Rbt.Receptor>
prm/pocket_docking_4.prm

>  <SCORE>
-0.579435

>  <SCORE.INTER>
-2.86978

>  <SCORE.INTER.CONST>
1

>  <SCORE.INTER.POLAR>
0

>  <SCORE.INTER.ROT>
6

>  <SCORE.INTER.SOLV>
10.4249

>  <SCORE.INTER.VDW>
-12.9882

>  <SCORE.INTER.norm>
-0.0925734

>  <SCORE.INTRA>
2.28703

>  <SCORE.INTRA.DIHEDRAL>
0.34719

>  <SCORE.INTRA.DIHEDRAL.0>
14.7001

>  <SCORE.INTRA.POLAR>
0

>  <SCORE.INTRA.POLAR.0>
0

>  <SCORE.INTRA.REPUL>
0

>  <SCORE.INTRA.REPUL.0>
0

>  <SCORE.INTRA.SOLV>
2.79912

>  <SCORE.INTRA.SOLV.lig_0>
-65.3082

>  <SCORE.INTRA.VDW>
0.713878

>  <SCORE.INTRA.VDW.0>
-4.21408

>  <SCORE.INTRA.norm>
0.0737753

>  <SCORE.RESTR>
0.00330732

>  <SCORE.RESTR.CAVITY>
0.00330732

>  <SCORE.RESTR.norm>
0.000106688

>  <SCORE.SYSTEM>
0

>  <SCORE.SYSTEM.CONST>
0

>  <SCORE.SYSTEM.DIHEDRAL>
0

>  <SCORE.SYSTEM.SOLV>
0

>  <SCORE.SYSTEM.norm>
0

>  <SCORE.heavy>
31

>  <SCORE.norm>
-0.0186915

>  <RMSD>
4.659

$$$$
ligand
 OpenBabel11021811493D
libRbt.so/2013.1/901 2013/11/27
 31 33  0  0  0  0  0  0  0  0999 V2000
    3.6204   13.6844   37.3871 C   0  0  2  0  0  0  0  0  0  0  0  0
    3.5570   13.3019   38.7476 O   0  0  0  0  0  0  0  0  0  0  0  0
    1.6097    9.5397   38.4106 C   0  0  2  0  0  0  0  0  0  0  0  0
    1.1522    8.2356   38.7527 N   0  0  0  0  0  0  0  0  0  0  0  0
   -1.2250    9.4080   39.6803 C   0  0  2  0  0  0  0  0  0  0  0  0
    4.1519   15.1813   37.3184 C   0  0  2  0  0  0  0  0  0  0  0  0
    5.4552   15.2569   37.9697 N   0  0  0  0  0  0  0  0  0  0  0  0
    3.2009    9.5481   38.4979 C   0  0  0  0  0  0  0  0  0  0  0  0
   -2.6898    9.9587   39.7287 C   0  0  2  0  0  0  0  0  0  0  0  0
   -2.9843   10.5707   38.4910 O   0  0  0  0  0  0  0  0  0  0  0  0
    3.1241   16.1642   37.9905 C   0  0  0  0  0  0  0  0  0  0  0  0
    3.7103   10.9942   38.1014 C   0  0  2  0  0  0  0  0  0  0  0  0
    5.1720   11.0180   38.1676 N   0  0  0  0  0  0  0  0  0  0  0  0
   -2.7939   10.9964   40.9051 C   0  0  1  0  0  0  0  0  0  0  0  0
   -4.1839   11.5521   40.9651 N   0  0  0  0  0  0  0  0  0  0  0  0
    1.6253   15.7718   37.6505 C   0  0  0  0  0  0  0  0  0  0  0  0
    3.1044   12.0480   39.1160 C   0  0  2  0  0  0  0  0  0  0  0  0
   -2.4555   10.2386   42.3048 C   0  0  1  0  0  0  0  0  0  0  0  0
   -3.3418    9.1745   42.5901 O   0  0  0  0  0  0  0  0  0  0  0  0
    1.3229   14.5762   37.0888 C   0  0  1  0  0  0  0  0  0  0  0  0
    2.3022   13.5946   36.7611 O   0  0  0  0  0  0  0  0  0  0  0  0
    1.5212   12.0147   39.0392 C   0  0  2  0  0  0  0  0  0  0  0  0
    0.9782   12.9669   39.9767 O   0  0  0  0  0  0  0  0  0  0  0  0
   -1.0113    9.6582   42.2349 C   0  0  0  0  0  0  0  0  0  0  0  0
   -0.8683    8.7692   41.0116 O   0  0  0  0  0  0  0  0  0  0  0  0
   -0.0908   14.1619   36.7566 C   0  0  0  0  0  0  0  0  0  0  0  0
   -0.7627   13.9439   38.0158 O   0  0  0  0  0  0  0  0  0  0  0  0
    1.0169   10.5724   39.4270 C   0  0  1  0  0  0  0  0  0  0  0  0
   -0.3868   10.5659   39.3460 O   0  0  0  0  0  0  0  0  0  0  0  0
   -2.5106   11.1380   43.5465 C   0  0  0  0  0  0  0  0  0  0  0  0
   -4.2969   13.0222   41.0619 C   0  0  0  0  0  0  0  0  0  0  0  0
  1  2  1  1  0  0  0
  1  6  1  0  0  0  0
  1 21  1  0  0  0  0
  3  4  1  1  0  0  0
  3  8  1  0  0  0  0
  3 28  1  0  0  0  0
  5  9  1  0  0  0  0
  5 25  1  0  0  0  0
  5 29  1  1  0  0  0
  6  7  1  1  0  0  0
  6 11  1  0  0  0  0
  8 12  1  0  0  0  0
  9 10  1  6  0  0  0
  9 14  1  0  0  0  0
 11 16  1  0  0  0  0
 12 13  1  1  0  0  0
 12 17  1  0  0  0  0
 14 15  1  1  0  0  0
 14 18  1  0  0  0  0
 15 31  1  0  0  0  0
 16 20  1  0  0  0  0
 17  2  1  6  0  0  0
 17 22  1  0  0  0  0
 18 19  1  1  0  0  0
 18 24  1  0  0  0  0
 18 30  1  0  0  0  0
 20 21  1  0  0  0  0
 20 26  1  1  0  0  0
 22 23  1  1  0  0  0
 22 28  1  0  0  0  0
 24 25  1  0  0  0  0
 26 27  1  0  0  0  0
 28 29  1  6  0  0  0
M  END
>  <CHROM.1>
178.90474557,168.49422255,-131.71799839,41.31773868,-69.73043870,63.69431780
0.50128896,11.86192883,39.27629857,-0.61243138,-0.35404057,2.82578234

>  <Name>
ligand

>  <RI>
0

>  <Rbt.Current_Directory>
/home/itssahil/PROJECTS/Mol_Feturizer/New_Systems/rnas/4GPY

>  <Rbt.Executable>
rbdock ($Id: //depot/dev/client3/rdock/2013.1/src/exe/rbdock.cxx#4 $)

>  <Rbt.Library>
libRbt.so (2013.1, Build901 2013/11/27)

>  <Rbt.Parameter_File>
/export/apps/rDock/src/rDock_2013.1_src/data/scripts/dock_solv.prm

>  <Rbt.Receptor>
prm/pocket_docking_6.prm

>  <SCORE>
-5.30017

>  <SCORE.INTER>
-3.03285

>  <SCORE.INTER.CONST>
1

>  <SCORE.INTER.POLAR>
0

>  <SCORE.INTER.ROT>
6

>  <SCORE.INTER.SOLV>
12.3086

>  <SCORE.INTER.VDW>
-13.7248

>  <SCORE.INTER.norm>
-0.0978339

>  <SCORE.INTRA>
-2.26732

>  <SCORE.INTRA.DIHEDRAL>
-7.82601

>  <SCORE.INTRA.DIHEDRAL.0>
14.7001

>  <SCORE.INTRA.POLAR>
0

>  <SCORE.INTRA.POLAR.0>
0

>  <SCORE.INTRA.REPUL>
0

>  <SCORE.INTRA.REPUL.0>
0

>  <SCORE.INTRA.SOLV>
0.953938

>  <SCORE.INTRA.SOLV.lig_0>
-65.3082

>  <SCORE.INTRA.VDW>
1.16871

>  <SCORE.INTRA.VDW.0>
-4.21408

>  <SCORE.INTRA.norm>
-0.0731395

>  <SCORE.RESTR>
0

>  <SCORE.RESTR.CAVITY>
0

>  <SCORE.RESTR.norm>
0

>  <SCORE.SYSTEM>
0

>  <SCORE.SYSTEM.CONST>
0

>  <SCORE.SYSTEM.DIHEDRAL>
0

>  <SCORE.SYSTEM.SOLV>
0

>  <SCORE.SYSTEM.norm>
0

>  <SCORE.heavy>
31

>  <SCORE.norm>
-0.170973

>  <RMSD>
4.673

$$$$
ligand
 OpenBabel11021811493D
libRbt.so/2013.1/901 2013/11/27
 31 33  0  0  0  0  0  0  0  0999 V2000
    3.0012   15.1453   37.4194 C   0  0  2  0  0  0  0  0  0  0  0  0
    2.3940   15.7516   38.5442 O   0  0  0  0  0  0  0  0  0  0  0  0
   -1.3623   16.2117   40.4776 C   0  0  2  0  0  0  0  0  0  0  0  0
   -2.7354   16.0117   40.7963 N   0  0  0  0  0  0  0  0  0  0  0  0
   -0.0796   15.3004   43.1764 C   0  0  2  0  0  0  0  0  0  0  0  0
    4.5759   15.3195   37.5536 C   0  0  2  0  0  0  0  0  0  0  0  0
    5.0192   14.7169   38.8062 N   0  0  0  0  0  0  0  0  0  0  0  0
   -1.2620   16.6209   38.9407 C   0  0  0  0  0  0  0  0  0  0  0  0
   -0.1826   14.3812   44.4397 C   0  0  2  0  0  0  0  0  0  0  0  0
    0.4661   13.1581   44.1634 O   0  0  0  0  0  0  0  0  0  0  0  0
    4.9717   16.8403   37.4844 C   0  0  0  0  0  0  0  0  0  0  0  0
    0.2639   16.8593   38.5909 C   0  0  2  0  0  0  0  0  0  0  0  0
    0.3744   17.2451   37.1835 N   0  0  0  0  0  0  0  0  0  0  0  0
   -1.7031   14.1476   44.7639 C   0  0  1  0  0  0  0  0  0  0  0  0
   -1.8317   13.2570   45.9617 N   0  0  0  0  0  0  0  0  0  0  0  0
    4.1130   17.6238   36.4053 C   0  0  0  0  0  0  0  0  0  0  0  0
    1.0655   15.5186   38.8500 C   0  0  2  0  0  0  0  0  0  0  0  0
   -2.3982   15.5839   45.0832 C   0  0  1  0  0  0  0  0  0  0  0  0
   -1.8197   16.2488   46.1889 O   0  0  0  0  0  0  0  0  0  0  0  0
    3.0073   17.0698   35.8511 C   0  0  1  0  0  0  0  0  0  0  0  0
    2.5351   15.7666   36.1807 O   0  0  0  0  0  0  0  0  0  0  0  0
    0.9395   15.1071   40.3759 C   0  0  2  0  0  0  0  0  0  0  0  0
    1.6602   13.8778   40.5993 O   0  0  0  0  0  0  0  0  0  0  0  0
   -2.2568   16.5078   43.8365 C   0  0  0  0  0  0  0  0  0  0  0  0
   -0.7963   16.6149   43.4333 O   0  0  0  0  0  0  0  0  0  0  0  0
    2.1591   17.7849   34.8266 C   0  0  0  0  0  0  0  0  0  0  0  0
    2.8780   18.9823   34.4602 O   0  0  0  0  0  0  0  0  0  0  0  0
   -0.5808   14.8776   40.7236 C   0  0  1  0  0  0  0  0  0  0  0  0
   -0.6675   14.5201   42.0807 O   0  0  0  0  0  0  0  0  0  0  0  0
   -3.8953   15.5092   45.4103 C   0  0  0  0  0  0  0  0  0  0  0  0
   -2.8673   12.2057   45.8866 C   0  0  0  0  0  0  0  0  0  0  0  0
  1  2  1  1  0  0  0
  1  6  1  0  0  0  0
  1 21  1  0  0  0  0
  3  4  1  6  0  0  0
  3  8  1  0  0  0  0
  3 28  1  0  0  0  0
  5  9  1  0  0  0  0
  5 25  1  0  0  0  0
  5 29  1  6  0  0  0
  6  7  1  1  0  0  0
  6 11  1  0  0  0  0
  8 12  1  0  0  0  0
  9 10  1  6  0  0  0
  9 14  1  0  0  0  0
 11 16  1  0  0  0  0
 12 13  1  6  0  0  0
 12 17  1  0  0  0  0
 14 15  1  1  0  0  0
 14 18  1  0  0  0  0
 15 31  1  0  0  0  0
 16 20  1  0  0  0  0
 17  2  1  1  0  0  0
 17 22  1  0  0  0  0
 18 19  1  1  0  0  0
 18 24  1  0  0  0  0
 18 30  1  0  0  0  0
 20 21  1  0  0  0  0
 20 26  1  1  0  0  0
 22 23  1  6  0  0  0
 22 28  1  0  0  0  0
 24 25  1  0  0  0  0
 26 27  1  0  0  0  0
 28 29  1  1  0  0  0
M  END
>  <CHROM.1>
-166.21266270,-169.02843289,-137.66453163,-110.94180938,8.73090845,-65.36723347
0.48311561,15.63369324,40.61305865,-0.97578183,-0.46389940,2.11939347

>  <Name>
ligand

>  <RI>
0

>  <Rbt.Current_Directory>
/home/itssahil/PROJECTS/Mol_Feturizer/New_Systems/rnas/4GPY

>  <Rbt.Executable>
rbdock ($Id: //depot/dev/client3/rdock/2013.1/src/exe/rbdock.cxx#4 $)

>  <Rbt.Library>
libRbt.so (2013.1, Build901 2013/11/27)

>  <Rbt.Parameter_File>
/export/apps/rDock/src/rDock_2013.1_src/data/scripts/dock_solv.prm

>  <Rbt.Receptor>
prm/pocket_docking_7.prm

>  <SCORE>
-9.96192

>  <SCORE.INTER>
-11.5935

>  <SCORE.INTER.CONST>
1

>  <SCORE.INTER.POLAR>
0

>  <SCORE.INTER.ROT>
6

>  <SCORE.INTER.SOLV>
14.3898

>  <SCORE.INTER.VDW>
-20.1256

>  <SCORE.INTER.norm>
-0.373984

>  <SCORE.INTRA>
1.6316

>  <SCORE.INTRA.DIHEDRAL>
-3.53373

>  <SCORE.INTRA.DIHEDRAL.0>
14.7001

>  <SCORE.INTRA.POLAR>
0

>  <SCORE.INTRA.POLAR.0>
0

>  <SCORE.INTRA.REPUL>
0

>  <SCORE.INTRA.REPUL.0>
0

>  <SCORE.INTRA.SOLV>
3.31415

>  <SCORE.INTRA.SOLV.lig_0>
-65.3082

>  <SCORE.INTRA.VDW>
1.74139

>  <SCORE.INTRA.VDW.0>
-4.21408

>  <SCORE.INTRA.norm>
0.0526321

>  <SCORE.RESTR>
0

>  <SCORE.RESTR.CAVITY>
0

>  <SCORE.RESTR.norm>
0

>  <SCORE.SYSTEM>
0

>  <SCORE.SYSTEM.CONST>
0

>  <SCORE.SYSTEM.DIHEDRAL>
0

>  <SCORE.SYSTEM.SOLV>
0

>  <SCORE.SYSTEM.norm>
0

>  <SCORE.heavy>
31

>  <SCORE.norm>
-0.321352

>  <RMSD>
4.686

$$$$
ligand
 OpenBabel11021811493D
libRbt.so/2013.1/901 2013/11/27
 31 33  0  0  0  0  0  0  0  0999 V2000
    1.1527   15.1174   38.6879 C   0  0  2  0  0  0  0  0  0  0  0  0
    0.3271   14.2921   37.8888 O   0  0  0  0  0  0  0  0  0  0  0  0
   -2.6231   11.3993   38.8826 C   0  0  2  0  0  0  0  0  0  0  0  0
   -3.2025   10.1928   39.3680 N   0  0  0  0  0  0  0  0  0  0  0  0
   -3.5676   11.4781   41.8637 C   0  0  2  0  0  0  0  0  0  0  0  0
    1.4020   16.4769   37.9018 C   0  0  2  0  0  0  0  0  0  0  0  0
    0.1173   17.1045   37.6116 N   0  0  0  0  0  0  0  0  0  0  0  0
   -1.5652   11.0241   37.7514 C   0  0  0  0  0  0  0  0  0  0  0  0
   -4.4956   12.3189   42.8035 C   0  0  2  0  0  0  0  0  0  0  0  0
   -5.3053   13.1577   42.0072 O   0  0  0  0  0  0  0  0  0  0  0  0
    2.2145   16.2110   36.5816 C   0  0  0  0  0  0  0  0  0  0  0  0
   -0.9330   12.3673   37.2003 C   0  0  2  0  0  0  0  0  0  0  0  0
    0.0358   12.0420   36.1528 N   0  0  0  0  0  0  0  0  0  0  0  0
   -3.5904   13.1672   43.7692 C   0  0  1  0  0  0  0  0  0  0  0  0
   -4.4538   13.9949   44.6714 N   0  0  0  0  0  0  0  0  0  0  0  0
    3.3519   15.1269   36.7983 C   0  0  0  0  0  0  0  0  0  0  0  0
   -0.2114   13.1214   38.3910 C   0  0  2  0  0  0  0  0  0  0  0  0
   -2.6879   12.1540   44.6675 C   0  0  1  0  0  0  0  0  0  0  0  0
   -3.4607   11.2763   45.4624 O   0  0  0  0  0  0  0  0  0  0  0  0
    3.3868   14.3596   37.9148 C   0  0  1  0  0  0  0  0  0  0  0  0
    2.4293   14.4610   38.9651 O   0  0  0  0  0  0  0  0  0  0  0  0
   -1.2672   13.4687   39.5216 C   0  0  2  0  0  0  0  0  0  0  0  0
   -0.5986   14.1419   40.6078 O   0  0  0  0  0  0  0  0  0  0  0  0
   -1.7962   11.2922   43.7243 C   0  0  0  0  0  0  0  0  0  0  0  0
   -2.6616   10.5859   42.6949 O   0  0  0  0  0  0  0  0  0  0  0  0
    4.4476   13.3123   38.1557 C   0  0  0  0  0  0  0  0  0  0  0  0
    5.2342   13.7728   39.2755 O   0  0  0  0  0  0  0  0  0  0  0  0
   -1.9006   12.1306   40.0634 C   0  0  1  0  0  0  0  0  0  0  0  0
   -2.8361   12.4639   41.0587 O   0  0  0  0  0  0  0  0  0  0  0  0
   -1.7427   12.8485   45.6564 C   0  0  0  0  0  0  0  0  0  0  0  0
   -4.7217   15.3796   44.2305 C   0  0  0  0  0  0  0  0  0  0  0  0
  1  2  1  6  0  0  0
  1  6  1  0  0  0  0
  1 21  1  0  0  0  0
  3  4  1  1  0  0  0
  3  8  1  0  0  0  0
  3 28  1  0  0  0  0
  5  9  1  0  0  0  0
  5 25  1  0  0  0  0
  5 29  1  1  0  0  0
  6  7  1  6  0  0  0
  6 11  1  0  0  0  0
  8 12  1  0  0  0  0
  9 10  1  6  0  0  0
  9 14  1  0  0  0  0
 11 16  1  0  0  0  0
 12 13  1  6  0  0  0
 12 17  1  0  0  0  0
 14 15  1  1  0  0  0
 14 18  1  0  0  0  0
 15 31  1  0  0  0  0
 16 20  1  0  0  0  0
 17  2  1  6  0  0  0
 17 22  1  0  0  0  0
 18 19  1  1  0  0  0
 18 24  1  0  0  0  0
 18 30  1  0  0  0  0
 20 21  1  0  0  0  0
 20 26  1  6  0  0  0
 22 23  1  1  0  0  0
 22 28  1  0  0  0  0
 24 25  1  0  0  0  0
 26 27  1  0  0  0  0
 28 29  1  1  0  0  0
M  END
>  <CHROM.1>
-170.87125899,-179.05355635,-94.69998243,-173.53273666,113.24113325,65.82009085
-0.94631892,13.23518161,40.37369808,-0.60896588,0.58298884,1.24213185

>  <Name>
ligand

>  <RI>
0

>  <Rbt.Current_Directory>
/home/itssahil/PROJECTS/Mol_Feturizer/New_Systems/rnas/4GPY

>  <Rbt.Executable>
rbdock ($Id: //depot/dev/client3/rdock/2013.1/src/exe/rbdock.cxx#4 $)

>  <Rbt.Library>
libRbt.so (2013.1, Build901 2013/11/27)

>  <Rbt.Parameter_File>
/export/apps/rDock/src/rDock_2013.1_src/data/scripts/dock_solv.prm

>  <Rbt.Receptor>
prm/pocket_docking_7.prm

>  <SCORE>
-7.71619

>  <SCORE.INTER>
-2.74492

>  <SCORE.INTER.CONST>
1

>  <SCORE.INTER.POLAR>
0

>  <SCORE.INTER.ROT>
6

>  <SCORE.INTER.SOLV>
12.7961

>  <SCORE.INTER.VDW>
-13.6953

>  <SCORE.INTER.norm>
-0.0885457

>  <SCORE.INTRA>
-4.97127

>  <SCORE.INTRA.DIHEDRAL>
-11.4272

>  <SCORE.INTRA.DIHEDRAL.0>
14.7001

>  <SCORE.INTRA.POLAR>
0

>  <SCORE.INTRA.POLAR.0>
0

>  <SCORE.INTRA.REPUL>
0

>  <SCORE.INTRA.REPUL.0>
0

>  <SCORE.INTRA.SOLV>
-1.35443

>  <SCORE.INTRA.SOLV.lig_0>
-65.3082

>  <SCORE.INTRA.VDW>
1.41957

>  <SCORE.INTRA.VDW.0>
-4.21408

>  <SCORE.INTRA.norm>
-0.160364

>  <SCORE.RESTR>
0

>  <SCORE.RESTR.CAVITY>
0

>  <SCORE.RESTR.norm>
0

>  <SCORE.SYSTEM>
0

>  <SCORE.SYSTEM.CONST>
0

>  <SCORE.SYSTEM.DIHEDRAL>
0

>  <SCORE.SYSTEM.SOLV>
0

>  <SCORE.SYSTEM.norm>
0

>  <SCORE.heavy>
31

>  <SCORE.norm>
-0.248909

>  <RMSD>
4.710

$$$$
ligand
 OpenBabel11021811493D
libRbt.so/2013.1/901 2013/11/27
 31 33  0  0  0  0  0  0  0  0999 V2000
    3.9400   14.6862   37.5409 C   0  0  2  0  0  0  0  0  0  0  0  0
    3.3428   14.7898   38.8192 O   0  0  0  0  0  0  0  0  0  0  0  0
    3.2998   10.6891   39.9339 C   0  0  2  0  0  0  0  0  0  0  0  0
    3.1437    9.5232   40.7359 N   0  0  0  0  0  0  0  0  0  0  0  0
    0.4361    9.3650   39.8072 C   0  0  2  0  0  0  0  0  0  0  0  0
    4.0412   16.1475   36.9225 C   0  0  2  0  0  0  0  0  0  0  0  0
    4.8165   16.9952   37.8219 N   0  0  0  0  0  0  0  0  0  0  0  0
    4.3656   11.6405   40.6401 C   0  0  0  0  0  0  0  0  0  0  0  0
   -0.3864    8.6709   38.6702 C   0  0  2  0  0  0  0  0  0  0  0  0
    0.4634    8.4564   37.5633 O   0  0  0  0  0  0  0  0  0  0  0  0
    2.6068   16.7442   36.6764 C   0  0  0  0  0  0  0  0  0  0  0  0
    4.5511   12.9296   39.7394 C   0  0  2  0  0  0  0  0  0  0  0  0
    5.5345   13.8119   40.3689 N   0  0  0  0  0  0  0  0  0  0  0  0
   -1.5874    9.6075   38.2805 C   0  0  1  0  0  0  0  0  0  0  0  0
   -2.3844    8.9738   37.1815 N   0  0  0  0  0  0  0  0  0  0  0  0
    1.6003   15.6495   36.1248 C   0  0  0  0  0  0  0  0  0  0  0  0
    3.1585   13.6726   39.6133 C   0  0  2  0  0  0  0  0  0  0  0  0
   -2.5374    9.8130   39.5856 C   0  0  1  0  0  0  0  0  0  0  0  0
   -3.0779    8.6023   40.0770 O   0  0  0  0  0  0  0  0  0  0  0  0
    1.9128   14.3311   36.1525 C   0  0  1  0  0  0  0  0  0  0  0  0
    3.1438   13.8285   36.6645 O   0  0  0  0  0  0  0  0  0  0  0  0
    2.0990   12.7098   38.9320 C   0  0  2  0  0  0  0  0  0  0  0  0
    0.8305   13.3894   38.8347 O   0  0  0  0  0  0  0  0  0  0  0  0
   -1.7024   10.4672   40.7268 C   0  0  0  0  0  0  0  0  0  0  0  0
   -0.4610    9.6366   41.0026 O   0  0  0  0  0  0  0  0  0  0  0  0
    0.9801   13.2578   35.6442 C   0  0  0  0  0  0  0  0  0  0  0  0
    1.8023   12.2875   34.9607 O   0  0  0  0  0  0  0  0  0  0  0  0
    1.9215   11.4239   39.8265 C   0  0  1  0  0  0  0  0  0  0  0  0
    0.9836   10.5843   39.2001 O   0  0  0  0  0  0  0  0  0  0  0  0
   -3.7536   10.7190   39.3528 C   0  0  0  0  0  0  0  0  0  0  0  0
   -2.6531    9.8174   35.9985 C   0  0  0  0  0  0  0  0  0  0  0  0
  1  2  1  1  0  0  0
  1  6  1  0  0  0  0
  1 21  1  0  0  0  0
  3  4  1  1  0  0  0
  3  8  1  0  0  0  0
  3 28  1  0  0  0  0
  5  9  1  0  0  0  0
  5 25  1  0  0  0  0
  5 29  1  6  0  0  0
  6  7  1  1  0  0  0
  6 11  1  0  0  0  0
  8 12  1  0  0  0  0
  9 10  1  6  0  0  0
  9 14  1  0  0  0  0
 11 16  1  0  0  0  0
 12 13  1  1  0  0  0
 12 17  1  0  0  0  0
 14 15  1  6  0  0  0
 14 18  1  0  0  0  0
 15 31  1  0  0  0  0
 16 20  1  0  0  0  0
 17  2  1  6  0  0  0
 17 22  1  0  0  0  0
 18 19  1  1  0  0  0
 18 24  1  0  0  0  0
 18 30  1  0  0  0  0
 20 21  1  0  0  0  0
 20 26  1  1  0  0  0
 22 23  1  1  0  0  0
 22 28  1  0  0  0  0
 24 25  1  0  0  0  0
 26 27  1  0  0  0  0
 28 29  1  6  0  0  0
M  END
>  <CHROM.1>
-178.25221788,-171.90704307,-128.75662490,52.84491533,140.42487036,69.01996895
1.26485931,12.01600533,38.47955782,0.65057104,-0.53319325,-0.80606972

>  <Name>
ligand

>  <RI>
0

>  <Rbt.Current_Directory>
/home/itssahil/PROJECTS/Mol_Feturizer/New_Systems/rnas/4GPY

>  <Rbt.Executable>
rbdock ($Id: //depot/dev/client3/rdock/2013.1/src/exe/rbdock.cxx#4 $)

>  <Rbt.Library>
libRbt.so (2013.1, Build901 2013/11/27)

>  <Rbt.Parameter_File>
/export/apps/rDock/src/rDock_2013.1_src/data/scripts/dock_solv.prm

>  <Rbt.Receptor>
prm/pocket_docking_6.prm

>  <SCORE>
-8.67338

>  <SCORE.INTER>
-4.85502

>  <SCORE.INTER.CONST>
1

>  <SCORE.INTER.POLAR>
0

>  <SCORE.INTER.ROT>
6

>  <SCORE.INTER.SOLV>
11.1091

>  <SCORE.INTER.VDW>
-14.5397

>  <SCORE.INTER.norm>
-0.156614

>  <SCORE.INTRA>
-3.81836

>  <SCORE.INTRA.DIHEDRAL>
-10.3965

>  <SCORE.INTRA.DIHEDRAL.0>
14.7001

>  <SCORE.INTRA.POLAR>
0

>  <SCORE.INTRA.POLAR.0>
0

>  <SCORE.INTRA.REPUL>
0

>  <SCORE.INTRA.REPUL.0>
0

>  <SCORE.INTRA.SOLV>
-0.0470816

>  <SCORE.INTRA.SOLV.lig_0>
-65.3082

>  <SCORE.INTRA.VDW>
1.40344

>  <SCORE.INTRA.VDW.0>
-4.21408

>  <SCORE.INTRA.norm>
-0.123173

>  <SCORE.RESTR>
0

>  <SCORE.RESTR.CAVITY>
0

>  <SCORE.RESTR.norm>
0

>  <SCORE.SYSTEM>
0

>  <SCORE.SYSTEM.CONST>
0

>  <SCORE.SYSTEM.DIHEDRAL>
0

>  <SCORE.SYSTEM.SOLV>
0

>  <SCORE.SYSTEM.norm>
0

>  <SCORE.heavy>
31

>  <SCORE.norm>
-0.279786

>  <RMSD>
4.727

$$$$
ligand
 OpenBabel11021811493D
libRbt.so/2013.1/901 2013/11/27
 31 33  0  0  0  0  0  0  0  0999 V2000
    0.9812   14.9263   38.6042 C   0  0  2  0  0  0  0  0  0  0  0  0
    0.1227   14.1244   37.8158 O   0  0  0  0  0  0  0  0  0  0  0  0
   -2.9149   11.3435   38.8641 C   0  0  2  0  0  0  0  0  0  0  0  0
   -3.5300   10.1594   39.3607 N   0  0  0  0  0  0  0  0  0  0  0  0
   -3.7569   11.4584   41.9022 C   0  0  2  0  0  0  0  0  0  0  0  0
    1.3471   16.2285   37.7686 C   0  0  2  0  0  0  0  0  0  0  0  0
    0.1182   16.9292   37.4116 N   0  0  0  0  0  0  0  0  0  0  0  0
   -1.8920   10.9290   37.7146 C   0  0  0  0  0  0  0  0  0  0  0  0
   -4.6215   12.3334   42.8707 C   0  0  2  0  0  0  0  0  0  0  0  0
   -5.4552   13.1724   42.0999 O   0  0  0  0  0  0  0  0  0  0  0  0
    2.1759   15.8482   36.4870 C   0  0  0  0  0  0  0  0  0  0  0  0
   -1.2202   12.2478   37.1514 C   0  0  2  0  0  0  0  0  0  0  0  0
   -0.2828   11.8866   36.0871 N   0  0  0  0  0  0  0  0  0  0  0  0
   -3.6541   13.1823   43.7736 C   0  0  1  0  0  0  0  0  0  0  0  0
   -4.4564   14.0424   44.7016 N   0  0  0  0  0  0  0  0  0  0  0  0
    3.2280   14.6993   36.7855 C   0  0  0  0  0  0  0  0  0  0  0  0
   -0.4500   12.9746   38.3284 C   0  0  2  0  0  0  0  0  0  0  0  0
   -2.7257   12.1692   44.6451 C   0  0  1  0  0  0  0  0  0  0  0  0
   -3.4729   11.3208   45.4943 O   0  0  0  0  0  0  0  0  0  0  0  0
    3.1776   13.9826   37.9345 C   0  0  1  0  0  0  0  0  0  0  0  0
    2.2004   14.1968   38.9491 O   0  0  0  0  0  0  0  0  0  0  0  0
   -1.4719   13.3611   39.4774 C   0  0  2  0  0  0  0  0  0  0  0  0
   -0.7595   14.0091   40.5511 O   0  0  0  0  0  0  0  0  0  0  0  0
   -1.8978   11.2738   43.6753 C   0  0  0  0  0  0  0  0  0  0  0  0
   -2.8261   10.5650   42.7041 O   0  0  0  0  0  0  0  0  0  0  0  0
    4.1553   12.8768   38.2532 C   0  0  0  0  0  0  0  0  0  0  0  0
    3.3796   11.6658   38.3826 O   0  0  0  0  0  0  0  0  0  0  0  0
   -2.1448   12.0475   40.0313 C   0  0  1  0  0  0  0  0  0  0  0  0
   -3.0495   12.4155   41.0429 O   0  0  0  0  0  0  0  0  0  0  0  0
   -1.7198   12.8641   45.5720 C   0  0  0  0  0  0  0  0  0  0  0  0
   -4.7432   15.4154   44.2369 C   0  0  0  0  0  0  0  0  0  0  0  0
  1  2  1  6  0  0  0
  1  6  1  0  0  0  0
  1 21  1  0  0  0  0
  3  4  1  1  0  0  0
  3  8  1  0  0  0  0
  3 28  1  0  0  0  0
  5  9  1  0  0  0  0
  5 25  1  0  0  0  0
  5 29  1  6  0  0  0
  6  7  1  6  0  0  0
  6 11  1  0  0  0  0
  8 12  1  0  0  0  0
  9 10  1  6  0  0  0
  9 14  1  0  0  0  0
 11 16  1  0  0  0  0
 12 13  1  6  0  0  0
 12 17  1  0  0  0  0
 14 15  1  1  0  0  0
 14 18  1  0  0  0  0
 15 31  1  0  0  0  0
 16 20  1  0  0  0  0
 17  2  1  6  0  0  0
 17 22  1  0  0  0  0
 18 19  1  1  0  0  0
 18 24  1  0  0  0  0
 18 30  1  0  0  0  0
 20 21  1  0  0  0  0
 20 26  1  6  0  0  0
 22 23  1  1  0  0  0
 22 28  1  0  0  0  0
 24 25  1  0  0  0  0
 26 27  1  0  0  0  0
 28 29  1  1  0  0  0
M  END
>  <CHROM.1>
-174.61279598,179.23608203,-93.59388389,-174.21147652,-118.54783599,68.70991532
-1.16660693,13.04778515,40.31742129,-0.54886158,0.69103246,1.01869848

>  <Name>
ligand

>  <RI>
0

>  <Rbt.Current_Directory>
/home/itssahil/PROJECTS/Mol_Feturizer/New_Systems/rnas/4GPY

>  <Rbt.Executable>
rbdock ($Id: //depot/dev/client3/rdock/2013.1/src/exe/rbdock.cxx#4 $)

>  <Rbt.Library>
libRbt.so (2013.1, Build901 2013/11/27)

>  <Rbt.Parameter_File>
/export/apps/rDock/src/rDock_2013.1_src/data/scripts/dock_solv.prm

>  <Rbt.Receptor>
prm/pocket_docking_6.prm

>  <SCORE>
-7.213

>  <SCORE.INTER>
-1.94988

>  <SCORE.INTER.CONST>
1

>  <SCORE.INTER.POLAR>
0

>  <SCORE.INTER.ROT>
6

>  <SCORE.INTER.SOLV>
13.6538

>  <SCORE.INTER.VDW>
-13.4512

>  <SCORE.INTER.norm>
-0.0628992

>  <SCORE.INTRA>
-5.26313

>  <SCORE.INTRA.DIHEDRAL>
-11.6188

>  <SCORE.INTRA.DIHEDRAL.0>
14.7001

>  <SCORE.INTRA.POLAR>
0

>  <SCORE.INTRA.POLAR.0>
0

>  <SCORE.INTRA.REPUL>
0

>  <SCORE.INTRA.REPUL.0>
0

>  <SCORE.INTRA.SOLV>
-1.32375

>  <SCORE.INTRA.SOLV.lig_0>
-65.3082

>  <SCORE.INTRA.VDW>
1.20813

>  <SCORE.INTRA.VDW.0>
-4.21408

>  <SCORE.INTRA.norm>
-0.169778

>  <SCORE.RESTR>
0

>  <SCORE.RESTR.CAVITY>
0

>  <SCORE.RESTR.norm>
0

>  <SCORE.SYSTEM>
0

>  <SCORE.SYSTEM.CONST>
0

>  <SCORE.SYSTEM.DIHEDRAL>
0

>  <SCORE.SYSTEM.SOLV>
0

>  <SCORE.SYSTEM.norm>
0

>  <SCORE.heavy>
31

>  <SCORE.norm>
-0.232678

>  <RMSD>
4.786

$$$$
ligand
 OpenBabel11021811493D
libRbt.so/2013.1/901 2013/11/27
 31 33  0  0  0  0  0  0  0  0999 V2000
    2.8004   15.2482   36.7018 C   0  0  2  0  0  0  0  0  0  0  0  0
    1.9689   15.7039   37.7517 O   0  0  0  0  0  0  0  0  0  0  0  0
   -1.8646   14.4533   39.0935 C   0  0  2  0  0  0  0  0  0  0  0  0
   -2.8866   13.6220   39.6331 N   0  0  0  0  0  0  0  0  0  0  0  0
   -1.6813   16.7309   41.3213 C   0  0  2  0  0  0  0  0  0  0  0  0
    3.9644   14.3714   37.3378 C   0  0  2  0  0  0  0  0  0  0  0  0
    3.3764   13.2675   38.0890 N   0  0  0  0  0  0  0  0  0  0  0  0
   -1.2470   13.7207   37.8201 C   0  0  0  0  0  0  0  0  0  0  0  0
   -2.0625   17.0299   42.8101 C   0  0  2  0  0  0  0  0  0  0  0  0
   -0.9666   16.6934   43.6342 O   0  0  0  0  0  0  0  0  0  0  0  0
    4.8840   15.2566   38.2570 C   0  0  0  0  0  0  0  0  0  0  0  0
   -0.1215   14.6531   37.2106 C   0  0  2  0  0  0  0  0  0  0  0  0
    0.4515   13.9992   36.0333 N   0  0  0  0  0  0  0  0  0  0  0  0
   -3.3269   16.1734   43.1829 C   0  0  1  0  0  0  0  0  0  0  0  0
   -3.7055   16.4287   44.6098 N   0  0  0  0  0  0  0  0  0  0  0  0
    5.1385   16.6908   37.6290 C   0  0  0  0  0  0  0  0  0  0  0  0
    1.0014   14.8837   38.3029 C   0  0  2  0  0  0  0  0  0  0  0  0
   -4.5592   16.6071   42.2126 C   0  0  1  0  0  0  0  0  0  0  0  0
   -4.9117   17.9708   42.3361 O   0  0  0  0  0  0  0  0  0  0  0  0
    4.4057   17.1380   36.5804 C   0  0  1  0  0  0  0  0  0  0  0  0
    3.3711   16.3752   35.9657 O   0  0  0  0  0  0  0  0  0  0  0  0
    0.3723   15.5908   39.5749 C   0  0  2  0  0  0  0  0  0  0  0  0
    1.3986   15.7834   40.5698 O   0  0  0  0  0  0  0  0  0  0  0  0
   -4.1582   16.3446   40.7301 C   0  0  0  0  0  0  0  0  0  0  0  0
   -2.8540   17.0553   40.4119 O   0  0  0  0  0  0  0  0  0  0  0  0
    4.6117   18.4987   35.9587 C   0  0  0  0  0  0  0  0  0  0  0  0
    3.3092   19.1169   35.8800 O   0  0  0  0  0  0  0  0  0  0  0  0
   -0.7528   14.6642   40.1755 C   0  0  1  0  0  0  0  0  0  0  0  0
   -1.2988   15.3138   41.2966 O   0  0  0  0  0  0  0  0  0  0  0  0
   -5.8653   15.8409   42.4594 C   0  0  0  0  0  0  0  0  0  0  0  0
   -3.3253   15.3848   45.5841 C   0  0  0  0  0  0  0  0  0  0  0  0
  1  2  1  1  0  0  0
  1  6  1  0  0  0  0
  1 21  1  0  0  0  0
  3  4  1  1  0  0  0
  3  8  1  0  0  0  0
  3 28  1  0  0  0  0
  5  9  1  0  0  0  0
  5 25  1  0  0  0  0
  5 29  1  1  0  0  0
  6  7  1  1  0  0  0
  6 11  1  0  0  0  0
  8 12  1  0  0  0  0
  9 10  1  1  0  0  0
  9 14  1  0  0  0  0
 11 16  1  0  0  0  0
 12 13  1  6  0  0  0
 12 17  1  0  0  0  0
 14 15  1  1  0  0  0
 14 18  1  0  0  0  0
 15 31  1  0  0  0  0
 16 20  1  0  0  0  0
 17  2  1  6  0  0  0
 17 22  1  0  0  0  0
 18 19  1  1  0  0  0
 18 24  1  0  0  0  0
 18 30  1  0  0  0  0
 20 21  1  0  0  0  0
 20 26  1  1  0  0  0
 22 23  1  1  0  0  0
 22 28  1  0  0  0  0
 24 25  1  0  0  0  0
 26 27  1  0  0  0  0
 28 29  1  1  0  0  0
M  END
>  <CHROM.1>
-80.47258922,-173.17380423,-102.68961243,-68.34672722,-129.90182564,-72.64581085
-0.15095141,15.86234551,39.67018397,0.52999678,-0.45725605,-2.23788158

>  <Name>
ligand

>  <RI>
0

>  <Rbt.Current_Directory>
/home/itssahil/PROJECTS/Mol_Feturizer/New_Systems/rnas/4GPY

>  <Rbt.Executable>
rbdock ($Id: //depot/dev/client3/rdock/2013.1/src/exe/rbdock.cxx#4 $)

>  <Rbt.Library>
libRbt.so (2013.1, Build901 2013/11/27)

>  <Rbt.Parameter_File>
/export/apps/rDock/src/rDock_2013.1_src/data/scripts/dock_solv.prm

>  <Rbt.Receptor>
prm/pocket_docking_7.prm

>  <SCORE>
-10.1256

>  <SCORE.INTER>
-8.92528

>  <SCORE.INTER.CONST>
1

>  <SCORE.INTER.POLAR>
0

>  <SCORE.INTER.ROT>
6

>  <SCORE.INTER.SOLV>
11.6447

>  <SCORE.INTER.VDW>
-17.4317

>  <SCORE.INTER.norm>
-0.287912

>  <SCORE.INTRA>
-1.20037

>  <SCORE.INTRA.DIHEDRAL>
-8.71259

>  <SCORE.INTRA.DIHEDRAL.0>
14.7001

>  <SCORE.INTRA.POLAR>
0

>  <SCORE.INTRA.POLAR.0>
0

>  <SCORE.INTRA.REPUL>
0

>  <SCORE.INTRA.REPUL.0>
0

>  <SCORE.INTRA.SOLV>
3.1784

>  <SCORE.INTRA.SOLV.lig_0>
-65.3082

>  <SCORE.INTRA.VDW>
1.56673

>  <SCORE.INTRA.VDW.0>
-4.21408

>  <SCORE.INTRA.norm>
-0.0387216

>  <SCORE.RESTR>
0

>  <SCORE.RESTR.CAVITY>
0

>  <SCORE.RESTR.norm>
0

>  <SCORE.SYSTEM>
0

>  <SCORE.SYSTEM.CONST>
0

>  <SCORE.SYSTEM.DIHEDRAL>
0

>  <SCORE.SYSTEM.SOLV>
0

>  <SCORE.SYSTEM.norm>
0

>  <SCORE.heavy>
31

>  <SCORE.norm>
-0.326634

>  <RMSD>
4.860

$$$$
ligand
 OpenBabel11021811493D
libRbt.so/2013.1/901 2013/11/27
 31 33  0  0  0  0  0  0  0  0999 V2000
    0.2696   14.5676   37.6122 C   0  0  2  0  0  0  0  0  0  0  0  0
    1.1074   14.1993   38.6910 O   0  0  0  0  0  0  0  0  0  0  0  0
   -0.7659   10.5649   39.8492 C   0  0  2  0  0  0  0  0  0  0  0  0
   -0.9966    9.3394   40.5361 N   0  0  0  0  0  0  0  0  0  0  0  0
   -2.5289   10.8187   42.4590 C   0  0  2  0  0  0  0  0  0  0  0  0
    0.9077   15.8391   36.9021 C   0  0  2  0  0  0  0  0  0  0  0  0
    2.2588   15.5121   36.4591 N   0  0  0  0  0  0  0  0  0  0  0  0
    0.6536   10.4736   39.1305 C   0  0  0  0  0  0  0  0  0  0  0  0
   -3.9756   11.2956   42.8210 C   0  0  2  0  0  0  0  0  0  0  0  0
   -4.7199   11.4282   41.6287 O   0  0  0  0  0  0  0  0  0  0  0  0
    0.9137   17.0724   37.8782 C   0  0  0  0  0  0  0  0  0  0  0  0
    0.9024   11.8306   38.3532 C   0  0  2  0  0  0  0  0  0  0  0  0
    2.1994   11.7612   37.6789 N   0  0  0  0  0  0  0  0  0  0  0  0
   -3.8734   12.6723   43.5731 C   0  0  1  0  0  0  0  0  0  0  0  0
   -5.2469   13.1607   43.9188 N   0  0  0  0  0  0  0  0  0  0  0  0
   -0.4175   17.1502   38.7372 C   0  0  0  0  0  0  0  0  0  0  0  0
    0.8946   13.0260   39.3915 C   0  0  2  0  0  0  0  0  0  0  0  0
   -3.0167   12.4609   44.9404 C   0  0  1  0  0  0  0  0  0  0  0  0
   -3.6040   11.5289   45.8269 O   0  0  0  0  0  0  0  0  0  0  0  0
   -1.2828   16.1083   38.7868 C   0  0  1  0  0  0  0  0  0  0  0  0
   -1.0767   14.8849   38.0861 O   0  0  0  0  0  0  0  0  0  0  0  0
   -0.5129   13.0932   40.1183 C   0  0  2  0  0  0  0  0  0  0  0  0
   -0.5058   14.1751   41.0721 O   0  0  0  0  0  0  0  0  0  0  0  0
   -1.5914   11.9480   44.5756 C   0  0  0  0  0  0  0  0  0  0  0  0
   -1.6936   10.6958   43.7219 O   0  0  0  0  0  0  0  0  0  0  0  0
   -2.5563   16.1396   39.5977 C   0  0  0  0  0  0  0  0  0  0  0  0
   -2.3571   17.1193   40.6395 O   0  0  0  0  0  0  0  0  0  0  0  0
   -0.7617   11.7386   40.8853 C   0  0  1  0  0  0  0  0  0  0  0  0
   -2.0159   11.8197   41.5157 O   0  0  0  0  0  0  0  0  0  0  0  0
   -2.8277   13.7326   45.7776 C   0  0  0  0  0  0  0  0  0  0  0  0
   -5.9337   13.9652   42.8870 C   0  0  0  0  0  0  0  0  0  0  0  0
  1  2  1  1  0  0  0
  1  6  1  0  0  0  0
  1 21  1  0  0  0  0
  3  4  1  1  0  0  0
  3  8  1  0  0  0  0
  3 28  1  0  0  0  0
  5  9  1  0  0  0  0
  5 25  1  0  0  0  0
  5 29  1  6  0  0  0
  6  7  1  1  0  0  0
  6 11  1  0  0  0  0
  8 12  1  0  0  0  0
  9 10  1  6  0  0  0
  9 14  1  0  0  0  0
 11 16  1  0  0  0  0
 12 13  1  1  0  0  0
 12 17  1  0  0  0  0
 14 15  1  1  0  0  0
 14 18  1  0  0  0  0
 15 31  1  0  0  0  0
 16 20  1  0  0  0  0
 17  2  1  6  0  0  0
 17 22  1  0  0  0  0
 18 19  1  1  0  0  0
 18 24  1  0  0  0  0
 18 30  1  0  0  0  0
 20 21  1  0  0  0  0
 20 26  1  1  0  0  0
 22 23  1  1  0  0  0
 22 28  1  0  0  0  0
 24 25  1  0  0  0  0
 26 27  1  0  0  0  0
 28 29  1  6  0  0  0
M  END
>  <CHROM.1>
-171.86233034,-176.80074263,-87.53946715,55.70766439,-23.62440907,69.25644247
-1.39382293,13.24542263,40.81343445,0.67325724,0.81730513,-0.39122984

>  <Name>
ligand

>  <RI>
0

>  <Rbt.Current_Directory>
/home/itssahil/PROJECTS/Mol_Feturizer/New_Systems/rnas/4GPY

>  <Rbt.Executable>
rbdock ($Id: //depot/dev/client3/rdock/2013.1/src/exe/rbdock.cxx#4 $)

>  <Rbt.Library>
libRbt.so (2013.1, Build901 2013/11/27)

>  <Rbt.Parameter_File>
/export/apps/rDock/src/rDock_2013.1_src/data/scripts/dock_solv.prm

>  <Rbt.Receptor>
prm/pocket_docking_6.prm

>  <SCORE>
-6.25862

>  <SCORE.INTER>
-3.33543

>  <SCORE.INTER.CONST>
1

>  <SCORE.INTER.POLAR>
0

>  <SCORE.INTER.ROT>
6

>  <SCORE.INTER.SOLV>
12.0269

>  <SCORE.INTER.VDW>
-13.8326

>  <SCORE.INTER.norm>
-0.107595

>  <SCORE.INTRA>
-2.92319

>  <SCORE.INTRA.DIHEDRAL>
-10.9663

>  <SCORE.INTRA.DIHEDRAL.0>
14.7001

>  <SCORE.INTRA.POLAR>
0

>  <SCORE.INTRA.POLAR.0>
0

>  <SCORE.INTRA.REPUL>
0

>  <SCORE.INTRA.REPUL.0>
0

>  <SCORE.INTRA.SOLV>
0.347618

>  <SCORE.INTRA.SOLV.lig_0>
-65.3082

>  <SCORE.INTRA.VDW>
2.38618

>  <SCORE.INTRA.VDW.0>
-4.21408

>  <SCORE.INTRA.norm>
-0.0942963

>  <SCORE.RESTR>
0

>  <SCORE.RESTR.CAVITY>
0

>  <SCORE.RESTR.norm>
0

>  <SCORE.SYSTEM>
0

>  <SCORE.SYSTEM.CONST>
0

>  <SCORE.SYSTEM.DIHEDRAL>
0

>  <SCORE.SYSTEM.SOLV>
0

>  <SCORE.SYSTEM.norm>
0

>  <SCORE.heavy>
31

>  <SCORE.norm>
-0.201891

>  <RMSD>
5.005

$$$$
ligand
 OpenBabel11021811493D
libRbt.so/2013.1/901 2013/11/27
 31 33  0  0  0  0  0  0  0  0999 V2000
    3.9085   14.6585   37.3121 C   0  0  2  0  0  0  0  0  0  0  0  0
    3.4338   14.5665   38.6416 O   0  0  0  0  0  0  0  0  0  0  0  0
    3.6712   10.3604   39.2008 C   0  0  2  0  0  0  0  0  0  0  0  0
    3.6204    9.0926   39.8464 N   0  0  0  0  0  0  0  0  0  0  0  0
    0.9625    8.8494   38.9676 C   0  0  2  0  0  0  0  0  0  0  0  0
    3.8435   16.1839   36.8683 C   0  0  2  0  0  0  0  0  0  0  0  0
    4.6405   16.9853   37.7909 N   0  0  0  0  0  0  0  0  0  0  0  0
    4.7190   11.2744   39.9796 C   0  0  0  0  0  0  0  0  0  0  0  0
    0.1238    8.2762   37.7762 C   0  0  2  0  0  0  0  0  0  0  0  0
    0.8959    8.3609   36.5973 O   0  0  0  0  0  0  0  0  0  0  0  0
    2.3528   16.6839   36.8248 C   0  0  0  0  0  0  0  0  0  0  0  0
    4.7873   12.6789   39.2514 C   0  0  2  0  0  0  0  0  0  0  0  0
    5.7527   13.5295   39.9487 N   0  0  0  0  0  0  0  0  0  0  0  0
   -1.1955    9.1208   37.6431 C   0  0  1  0  0  0  0  0  0  0  0  0
   -2.0118    8.6029   36.4986 N   0  0  0  0  0  0  0  0  0  0  0  0
    1.3781   15.5794   36.2368 C   0  0  0  0  0  0  0  0  0  0  0  0
    3.3518   13.3461   39.2871 C   0  0  2  0  0  0  0  0  0  0  0  0
   -2.0495    8.9807   39.0212 C   0  0  1  0  0  0  0  0  0  0  0  0
   -2.4197    7.6478   39.3136 O   0  0  0  0  0  0  0  0  0  0  0  0
    1.7856   14.2968   36.0770 C   0  0  1  0  0  0  0  0  0  0  0  0
    3.0938   13.8429   36.4129 O   0  0  0  0  0  0  0  0  0  0  0  0
    2.3122   12.4180   38.5312 C   0  0  2  0  0  0  0  0  0  0  0  0
    1.0054   13.0263   38.5816 O   0  0  0  0  0  0  0  0  0  0  0  0
   -1.1940    9.5156   40.2085 C   0  0  0  0  0  0  0  0  0  0  0  0
    0.1449    8.7994   40.2470 O   0  0  0  0  0  0  0  0  0  0  0  0
    0.8869   13.2146   35.5279 C   0  0  0  0  0  0  0  0  0  0  0  0
    1.7516   12.2265   34.9274 O   0  0  0  0  0  0  0  0  0  0  0  0
    2.2514   11.0181   39.2534 C   0  0  1  0  0  0  0  0  0  0  0  0
    1.3292   10.2120   38.5629 O   0  0  0  0  0  0  0  0  0  0  0  0
   -3.3675    9.7659   39.0373 C   0  0  0  0  0  0  0  0  0  0  0  0
   -2.6733    9.6194   35.6545 C   0  0  0  0  0  0  0  0  0  0  0  0
  1  2  1  1  0  0  0
  1  6  1  0  0  0  0
  1 21  1  0  0  0  0
  3  4  1  1  0  0  0
  3  8  1  0  0  0  0
  3 28  1  0  0  0  0
  5  9  1  0  0  0  0
  5 25  1  0  0  0  0
  5 29  1  6  0  0  0
  6  7  1  1  0  0  0
  6 11  1  0  0  0  0
  8 12  1  0  0  0  0
  9 10  1  6  0  0  0
  9 14  1  0  0  0  0
 11 16  1  0  0  0  0
 12 13  1  1  0  0  0
 12 17  1  0  0  0  0
 14 15  1  6  0  0  0
 14 18  1  0  0  0  0
 15 31  1  0  0  0  0
 16 20  1  0  0  0  0
 17  2  1  6  0  0  0
 17 22  1  0  0  0  0
 18 19  1  1  0  0  0
 18 24  1  0  0  0  0
 18 30  1  0  0  0  0
 20 21  1  0  0  0  0
 20 26  1  1  0  0  0
 22 23  1  1  0  0  0
 22 28  1  0  0  0  0
 24 25  1  0  0  0  0
 26 27  1  0  0  0  0
 28 29  1  6  0  0  0
M  END
>  <CHROM.1>
178.77425857,-170.15550094,-139.77536278,55.92291577,153.72503700,63.86839538
1.48039251,11.67645092,38.04875201,0.76200978,-0.52413178,-0.59351942

>  <Name>
ligand

>  <RI>
0

>  <Rbt.Current_Directory>
/home/itssahil/PROJECTS/Mol_Feturizer/New_Systems/rnas/4GPY

>  <Rbt.Executable>
rbdock ($Id: //depot/dev/client3/rdock/2013.1/src/exe/rbdock.cxx#4 $)

>  <Rbt.Library>
libRbt.so (2013.1, Build901 2013/11/27)

>  <Rbt.Parameter_File>
/export/apps/rDock/src/rDock_2013.1_src/data/scripts/dock_solv.prm

>  <Rbt.Receptor>
prm/pocket_docking_6.prm

>  <SCORE>
-8.63208

>  <SCORE.INTER>
-5.67157

>  <SCORE.INTER.CONST>
1

>  <SCORE.INTER.POLAR>
0

>  <SCORE.INTER.ROT>
6

>  <SCORE.INTER.SOLV>
11.3069

>  <SCORE.INTER.VDW>
-15.15

>  <SCORE.INTER.norm>
-0.182954

>  <SCORE.INTRA>
-2.96051

>  <SCORE.INTRA.DIHEDRAL>
-10.3269

>  <SCORE.INTRA.DIHEDRAL.0>
14.7001

>  <SCORE.INTRA.POLAR>
0

>  <SCORE.INTRA.POLAR.0>
0

>  <SCORE.INTRA.REPUL>
0

>  <SCORE.INTRA.REPUL.0>
0

>  <SCORE.INTRA.SOLV>
0.0834551

>  <SCORE.INTRA.SOLV.lig_0>
-65.3082

>  <SCORE.INTRA.VDW>
2.16119

>  <SCORE.INTRA.VDW.0>
-4.21408

>  <SCORE.INTRA.norm>
-0.0955004

>  <SCORE.RESTR>
0

>  <SCORE.RESTR.CAVITY>
0

>  <SCORE.RESTR.norm>
0

>  <SCORE.SYSTEM>
0

>  <SCORE.SYSTEM.CONST>
0

>  <SCORE.SYSTEM.DIHEDRAL>
0

>  <SCORE.SYSTEM.SOLV>
0

>  <SCORE.SYSTEM.norm>
0

>  <SCORE.heavy>
31

>  <SCORE.norm>
-0.278454

>  <RMSD>
5.035

$$$$
ligand
 OpenBabel11021811493D
libRbt.so/2013.1/901 2013/11/27
 31 33  0  0  0  0  0  0  0  0999 V2000
    2.2339   14.8513   39.1856 C   0  0  2  0  0  0  0  0  0  0  0  0
    1.8315   13.6906   38.4839 O   0  0  0  0  0  0  0  0  0  0  0  0
   -0.4152   10.2441   39.5488 C   0  0  2  0  0  0  0  0  0  0  0  0
   -0.7769    9.0348   40.2073 N   0  0  0  0  0  0  0  0  0  0  0  0
   -2.1785   10.6153   42.1343 C   0  0  2  0  0  0  0  0  0  0  0  0
    2.5450   15.9901   38.1205 C   0  0  2  0  0  0  0  0  0  0  0  0
    1.3550   16.2253   37.3099 N   0  0  0  0  0  0  0  0  0  0  0  0
    0.9949   10.0227   38.8399 C   0  0  0  0  0  0  0  0  0  0  0  0
   -3.6080   11.1861   42.4205 C   0  0  2  0  0  0  0  0  0  0  0  0
   -4.2737   11.3768   41.1902 O   0  0  0  0  0  0  0  0  0  0  0  0
    3.7722   15.5871   37.2230 C   0  0  0  0  0  0  0  0  0  0  0  0
    1.3891   11.3628   38.0939 C   0  0  2  0  0  0  0  0  0  0  0  0
    2.6791   11.1748   37.4288 N   0  0  0  0  0  0  0  0  0  0  0  0
   -3.4562   12.5476   43.1917 C   0  0  1  0  0  0  0  0  0  0  0  0
   -4.8112   13.1251   43.4658 N   0  0  0  0  0  0  0  0  0  0  0  0
    4.9086   14.8706   38.0663 C   0  0  0  0  0  0  0  0  0  0  0  0
    1.4927   12.5311   39.1574 C   0  0  2  0  0  0  0  0  0  0  0  0
   -2.6936   12.2695   44.6021 C   0  0  1  0  0  0  0  0  0  0  0  0
   -3.3907   11.3732   45.4446 O   0  0  0  0  0  0  0  0  0  0  0  0
    4.6772   14.4356   39.3288 C   0  0  1  0  0  0  0  0  0  0  0  0
    3.4244   14.5838   39.9910 O   0  0  0  0  0  0  0  0  0  0  0  0
    0.0921   12.7272   39.8741 C   0  0  2  0  0  0  0  0  0  0  0  0
    0.1999   13.7830   40.8509 O   0  0  0  0  0  0  0  0  0  0  0  0
   -1.2876   11.6642   44.3114 C   0  0  0  0  0  0  0  0  0  0  0  0
   -1.4254   10.4277   43.4401 O   0  0  0  0  0  0  0  0  0  0  0  0
    5.7292   13.7429   40.1617 C   0  0  0  0  0  0  0  0  0  0  0  0
    5.8355   14.4882   41.3938 O   0  0  0  0  0  0  0  0  0  0  0  0
   -0.3017   11.3898   40.6098 C   0  0  1  0  0  0  0  0  0  0  0  0
   -1.5475   11.5859   41.2315 O   0  0  0  0  0  0  0  0  0  0  0  0
   -2.4672   13.5198   45.4620 C   0  0  0  0  0  0  0  0  0  0  0  0
   -5.3987   13.9527   42.3918 C   0  0  0  0  0  0  0  0  0  0  0  0
  1  2  1  6  0  0  0
  1  6  1  0  0  0  0
  1 21  1  0  0  0  0
  3  4  1  1  0  0  0
  3  8  1  0  0  0  0
  3 28  1  0  0  0  0
  5  9  1  0  0  0  0
  5 25  1  0  0  0  0
  5 29  1  6  0  0  0
  6  7  1  6  0  0  0
  6 11  1  0  0  0  0
  8 12  1  0  0  0  0
  9 10  1  6  0  0  0
  9 14  1  0  0  0  0
 11 16  1  0  0  0  0
 12 13  1  1  0  0  0
 12 17  1  0  0  0  0
 14 15  1  1  0  0  0
 14 18  1  0  0  0  0
 15 31  1  0  0  0  0
 16 20  1  0  0  0  0
 17  2  1  6  0  0  0
 17 22  1  0  0  0  0
 18 19  1  1  0  0  0
 18 24  1  0  0  0  0
 18 30  1  0  0  0  0
 20 21  1  0  0  0  0
 20 26  1  6  0  0  0
 22 23  1  1  0  0  0
 22 28  1  0  0  0  0
 24 25  1  0  0  0  0
 26 27  1  0  0  0  0
 28 29  1  6  0  0  0
M  END
>  <CHROM.1>
-179.88803355,-172.96267771,-86.01611946,-168.41776964,125.00834959,68.36053650
0.15534437,12.73134407,40.78644772,-0.15897478,0.62401950,0.75009769

>  <Name>
ligand

>  <RI>
0

>  <Rbt.Current_Directory>
/home/itssahil/PROJECTS/Mol_Feturizer/New_Systems/rnas/4GPY

>  <Rbt.Executable>
rbdock ($Id: //depot/dev/client3/rdock/2013.1/src/exe/rbdock.cxx#4 $)

>  <Rbt.Library>
libRbt.so (2013.1, Build901 2013/11/27)

>  <Rbt.Parameter_File>
/export/apps/rDock/src/rDock_2013.1_src/data/scripts/dock_solv.prm

>  <Rbt.Receptor>
prm/pocket_docking_6.prm

>  <SCORE>
-8.09697

>  <SCORE.INTER>
-3.23785

>  <SCORE.INTER.CONST>
1

>  <SCORE.INTER.POLAR>
0

>  <SCORE.INTER.ROT>
6

>  <SCORE.INTER.SOLV>
7.79675

>  <SCORE.INTER.VDW>
-12.3575

>  <SCORE.INTER.norm>
-0.104447

>  <SCORE.INTRA>
-4.85913

>  <SCORE.INTRA.DIHEDRAL>
-11.279

>  <SCORE.INTRA.DIHEDRAL.0>
14.7001

>  <SCORE.INTRA.POLAR>
0

>  <SCORE.INTRA.POLAR.0>
0

>  <SCORE.INTRA.REPUL>
0

>  <SCORE.INTRA.REPUL.0>
0

>  <SCORE.INTRA.SOLV>
-1.21702

>  <SCORE.INTRA.SOLV.lig_0>
-65.3082

>  <SCORE.INTRA.VDW>
1.38891

>  <SCORE.INTRA.VDW.0>
-4.21408

>  <SCORE.INTRA.norm>
-0.156746

>  <SCORE.RESTR>
0

>  <SCORE.RESTR.CAVITY>
0

>  <SCORE.RESTR.norm>
0

>  <SCORE.SYSTEM>
0

>  <SCORE.SYSTEM.CONST>
0

>  <SCORE.SYSTEM.DIHEDRAL>
0

>  <SCORE.SYSTEM.SOLV>
0

>  <SCORE.SYSTEM.norm>
0

>  <SCORE.heavy>
31

>  <SCORE.norm>
-0.261193

>  <RMSD>
5.192

$$$$
ligand
 OpenBabel11021811493D
libRbt.so/2013.1/901 2013/11/27
 31 33  0  0  0  0  0  0  0  0999 V2000
    4.4331   13.9962   38.4562 C   0  0  2  0  0  0  0  0  0  0  0  0
    3.4554   13.8866   39.4728 O   0  0  0  0  0  0  0  0  0  0  0  0
    3.3593    9.6709   40.0006 C   0  0  2  0  0  0  0  0  0  0  0  0
    3.1067    8.4038   40.5985 N   0  0  0  0  0  0  0  0  0  0  0  0
    0.5735    8.3687   39.2094 C   0  0  2  0  0  0  0  0  0  0  0  0
    4.3918   15.4808   37.8883 C   0  0  2  0  0  0  0  0  0  0  0  0
    4.6305   16.4179   38.9807 N   0  0  0  0  0  0  0  0  0  0  0  0
    4.2546   10.5257   41.0043 C   0  0  0  0  0  0  0  0  0  0  0  0
   -0.3834    8.0471   38.0127 C   0  0  2  0  0  0  0  0  0  0  0  0
    0.3719    8.0347   36.8200 O   0  0  0  0  0  0  0  0  0  0  0  0
    3.0131   15.7662   37.1871 C   0  0  0  0  0  0  0  0  0  0  0  0
    4.5490   11.9289   40.3319 C   0  0  2  0  0  0  0  0  0  0  0  0
    5.3787   12.7251   41.2371 N   0  0  0  0  0  0  0  0  0  0  0  0
   -1.5003    9.1521   37.9564 C   0  0  1  0  0  0  0  0  0  0  0  0
   -2.4233    8.8773   36.8087 N   0  0  0  0  0  0  0  0  0  0  0  0
    2.5072   14.5162   36.3519 C   0  0  0  0  0  0  0  0  0  0  0  0
    3.1747   12.6685   40.0645 C   0  0  2  0  0  0  0  0  0  0  0  0
   -2.3443    9.1163   39.3472 C   0  0  1  0  0  0  0  0  0  0  0  0
   -2.9789    7.8747   39.5815 O   0  0  0  0  0  0  0  0  0  0  0  0
    3.0842   13.2981   36.4924 C   0  0  1  0  0  0  0  0  0  0  0  0
    4.1702   13.0433   37.3789 O   0  0  0  0  0  0  0  0  0  0  0  0
    2.2817   11.7990   39.0847 C   0  0  2  0  0  0  0  0  0  0  0  0
    1.0268   12.4732   38.8586 O   0  0  0  0  0  0  0  0  0  0  0  0
   -1.3790    9.3972   40.5375 C   0  0  0  0  0  0  0  0  0  0  0  0
   -0.2176    8.4188   40.5052 O   0  0  0  0  0  0  0  0  0  0  0  0
    2.6278   12.0822   35.7219 C   0  0  0  0  0  0  0  0  0  0  0  0
    1.4517   12.4795   34.9845 O   0  0  0  0  0  0  0  0  0  0  0  0
    1.9962   10.4001   39.7529 C   0  0  1  0  0  0  0  0  0  0  0  0
    1.2092    9.6462   38.8645 O   0  0  0  0  0  0  0  0  0  0  0  0
   -3.4701   10.1548   39.4368 C   0  0  0  0  0  0  0  0  0  0  0  0
   -2.2395    9.7165   35.6064 C   0  0  0  0  0  0  0  0  0  0  0  0
  1  2  1  1  0  0  0
  1  6  1  0  0  0  0
  1 21  1  0  0  0  0
  3  4  1  1  0  0  0
  3  8  1  0  0  0  0
  3 28  1  0  0  0  0
  5  9  1  0  0  0  0
  5 25  1  0  0  0  0
  5 29  1  6  0  0  0
  6  7  1  1  0  0  0
  6 11  1  0  0  0  0
  8 12  1  0  0  0  0
  9 10  1  6  0  0  0
  9 14  1  0  0  0  0
 11 16  1  0  0  0  0
 12 13  1  1  0  0  0
 12 17  1  0  0  0  0
 14 15  1  6  0  0  0
 14 18  1  0  0  0  0
 15 31  1  0  0  0  0
 16 20  1  0  0  0  0
 17  2  1  6  0  0  0
 17 22  1  0  0  0  0
 18 19  1  1  0  0  0
 18 24  1  0  0  0  0
 18 30  1  0  0  0  0
 20 21  1  0  0  0  0
 20 26  1  1  0  0  0
 22 23  1  1  0  0  0
 22 28  1  0  0  0  0
 24 25  1  0  0  0  0
 26 27  1  0  0  0  0
 28 29  1  6  0  0  0
M  END
>  <CHROM.1>
173.83751425,170.26402926,-103.07965995,42.49798591,-5.45527533,70.93020271
1.51139640,11.22042946,38.57281522,-0.50975708,0.60175401,2.31494058

>  <Name>
ligand

>  <RI>
0

>  <Rbt.Current_Directory>
/home/itssahil/PROJECTS/Mol_Feturizer/New_Systems/rnas/4GPY

>  <Rbt.Executable>
rbdock ($Id: //depot/dev/client3/rdock/2013.1/src/exe/rbdock.cxx#4 $)

>  <Rbt.Library>
libRbt.so (2013.1, Build901 2013/11/27)

>  <Rbt.Parameter_File>
/export/apps/rDock/src/rDock_2013.1_src/data/scripts/dock_solv.prm

>  <Rbt.Receptor>
prm/pocket_docking_6.prm

>  <SCORE>
-5.93318

>  <SCORE.INTER>
-3.71522

>  <SCORE.INTER.CONST>
1

>  <SCORE.INTER.POLAR>
0

>  <SCORE.INTER.ROT>
6

>  <SCORE.INTER.SOLV>
9.56692

>  <SCORE.INTER.VDW>
-13.2658

>  <SCORE.INTER.norm>
-0.119846

>  <SCORE.INTRA>
-2.21796

>  <SCORE.INTRA.DIHEDRAL>
-9.36812

>  <SCORE.INTRA.DIHEDRAL.0>
14.7001

>  <SCORE.INTRA.POLAR>
0

>  <SCORE.INTRA.POLAR.0>
0

>  <SCORE.INTRA.REPUL>
0

>  <SCORE.INTRA.REPUL.0>
0

>  <SCORE.INTRA.SOLV>
-0.0364797

>  <SCORE.INTRA.SOLV.lig_0>
-65.3082

>  <SCORE.INTRA.VDW>
2.48434

>  <SCORE.INTRA.VDW.0>
-4.21408

>  <SCORE.INTRA.norm>
-0.0715472

>  <SCORE.RESTR>
0

>  <SCORE.RESTR.CAVITY>
0

>  <SCORE.RESTR.norm>
0

>  <SCORE.SYSTEM>
0

>  <SCORE.SYSTEM.CONST>
0

>  <SCORE.SYSTEM.DIHEDRAL>
0

>  <SCORE.SYSTEM.SOLV>
0

>  <SCORE.SYSTEM.norm>
0

>  <SCORE.heavy>
31

>  <SCORE.norm>
-0.191393

>  <RMSD>
5.235

$$$$
ligand
 OpenBabel11021811493D
libRbt.so/2013.1/901 2013/11/27
 31 33  0  0  0  0  0  0  0  0999 V2000
    0.4551   14.5035   41.4621 C   0  0  2  0  0  0  0  0  0  0  0  0
   -0.0483   13.7869   42.5731 O   0  0  0  0  0  0  0  0  0  0  0  0
   -2.4285   10.2687   42.7023 C   0  0  2  0  0  0  0  0  0  0  0  0
   -3.5708    9.4234   42.6157 N   0  0  0  0  0  0  0  0  0  0  0  0
   -2.9157    9.1144   39.6694 C   0  0  2  0  0  0  0  0  0  0  0  0
    1.6605   15.4108   41.9637 C   0  0  2  0  0  0  0  0  0  0  0  0
    2.6777   14.5611   42.5737 N   0  0  0  0  0  0  0  0  0  0  0  0
   -2.7357   11.4137   43.7673 C   0  0  0  0  0  0  0  0  0  0  0  0
   -2.1318    8.1213   38.7470 C   0  0  2  0  0  0  0  0  0  0  0  0
   -1.2460    7.3656   39.5454 O   0  0  0  0  0  0  0  0  0  0  0  0
    1.1485   16.4993   42.9772 C   0  0  0  0  0  0  0  0  0  0  0  0
   -1.4588   12.3441   43.8753 C   0  0  2  0  0  0  0  0  0  0  0  0
   -1.7199   13.3977   44.8569 N   0  0  0  0  0  0  0  0  0  0  0  0
   -1.3439    8.9552   37.6722 C   0  0  1  0  0  0  0  0  0  0  0  0
   -0.5710    8.0292   36.7836 N   0  0  0  0  0  0  0  0  0  0  0  0
   -0.2507   17.1025   42.5365 C   0  0  0  0  0  0  0  0  0  0  0  0
   -1.1689   12.9847   42.4566 C   0  0  2  0  0  0  0  0  0  0  0  0
   -2.4101    9.7970   36.7762 C   0  0  1  0  0  0  0  0  0  0  0  0
   -3.3331    8.9741   36.0904 O   0  0  0  0  0  0  0  0  0  0  0  0
   -0.9923   16.5179   41.5644 C   0  0  1  0  0  0  0  0  0  0  0  0
   -0.5865   15.3416   40.8703 O   0  0  0  0  0  0  0  0  0  0  0  0
   -0.8886   11.8370   41.3992 C   0  0  2  0  0  0  0  0  0  0  0  0
   -0.6402   12.4289   40.1076 O   0  0  0  0  0  0  0  0  0  0  0  0
   -3.2146   10.7542   37.7058 C   0  0  0  0  0  0  0  0  0  0  0  0
   -3.8569    9.9639   38.8328 O   0  0  0  0  0  0  0  0  0  0  0  0
   -2.3318   17.0561   41.1212 C   0  0  0  0  0  0  0  0  0  0  0  0
   -3.3179   16.0741   41.5057 O   0  0  0  0  0  0  0  0  0  0  0  0
   -2.1581   10.9079   41.2989 C   0  0  1  0  0  0  0  0  0  0  0  0
   -1.8840    9.8964   40.3615 O   0  0  0  0  0  0  0  0  0  0  0  0
   -1.7770   10.6698   35.6847 C   0  0  0  0  0  0  0  0  0  0  0  0
    0.8205    7.7426   37.1900 C   0  0  0  0  0  0  0  0  0  0  0  0
  1  2  1  1  0  0  0
  1  6  1  0  0  0  0
  1 21  1  0  0  0  0
  3  4  1  6  0  0  0
  3  8  1  0  0  0  0
  3 28  1  0  0  0  0
  5  9  1  0  0  0  0
  5 25  1  0  0  0  0
  5 29  1  6  0  0  0
  6  7  1  1  0  0  0
  6 11  1  0  0  0  0
  8 12  1  0  0  0  0
  9 10  1  1  0  0  0
  9 14  1  0  0  0  0
 11 16  1  0  0  0  0
 12 13  1  1  0  0  0
 12 17  1  0  0  0  0
 14 15  1  6  0  0  0
 14 18  1  0  0  0  0
 15 31  1  0  0  0  0
 16 20  1  0  0  0  0
 17  2  1  1  0  0  0
 17 22  1  0  0  0  0
 18 19  1  6  0  0  0
 18 24  1  0  0  0  0
 18 30  1  0  0  0  0
 20 21  1  0  0  0  0
 20 26  1  1  0  0  0
 22 23  1  6  0  0  0
 22 28  1  0  0  0  0
 24 25  1  0  0  0  0
 26 27  1  0  0  0  0
 28 29  1  6  0  0  0
M  END
>  <CHROM.1>
175.28983866,-179.68315163,-92.18740260,-179.68971870,-113.52626184,82.22700750
-1.37487058,11.96589947,40.52001650,-1.05122851,-1.17670876,-2.04275199

>  <Name>
ligand

>  <RI>
0

>  <Rbt.Current_Directory>
/home/itssahil/PROJECTS/Mol_Feturizer/New_Systems/rnas/4GPY

>  <Rbt.Executable>
rbdock ($Id: //depot/dev/client3/rdock/2013.1/src/exe/rbdock.cxx#4 $)

>  <Rbt.Library>
libRbt.so (2013.1, Build901 2013/11/27)

>  <Rbt.Parameter_File>
/export/apps/rDock/src/rDock_2013.1_src/data/scripts/dock_solv.prm

>  <Rbt.Receptor>
prm/pocket_docking_8.prm

>  <SCORE>
-9.60701

>  <SCORE.INTER>
-4.91816

>  <SCORE.INTER.CONST>
1

>  <SCORE.INTER.POLAR>
0

>  <SCORE.INTER.ROT>
6

>  <SCORE.INTER.SOLV>
10.7548

>  <SCORE.INTER.VDW>
-14.4637

>  <SCORE.INTER.norm>
-0.15865

>  <SCORE.INTRA>
-4.68886

>  <SCORE.INTRA.DIHEDRAL>
-10.0062

>  <SCORE.INTRA.DIHEDRAL.0>
14.7001

>  <SCORE.INTRA.POLAR>
0

>  <SCORE.INTRA.POLAR.0>
0

>  <SCORE.INTRA.REPUL>
0

>  <SCORE.INTRA.REPUL.0>
0

>  <SCORE.INTRA.SOLV>
-1.782

>  <SCORE.INTRA.SOLV.lig_0>
-65.3082

>  <SCORE.INTRA.VDW>
1.20527

>  <SCORE.INTRA.VDW.0>
-4.21408

>  <SCORE.INTRA.norm>
-0.151253

>  <SCORE.RESTR>
0

>  <SCORE.RESTR.CAVITY>
0

>  <SCORE.RESTR.norm>
0

>  <SCORE.SYSTEM>
0

>  <SCORE.SYSTEM.CONST>
0

>  <SCORE.SYSTEM.DIHEDRAL>
0

>  <SCORE.SYSTEM.SOLV>
0

>  <SCORE.SYSTEM.norm>
0

>  <SCORE.heavy>
31

>  <SCORE.norm>
-0.309904

>  <RMSD>
5.285

$$$$
ligand
 OpenBabel11021811493D
libRbt.so/2013.1/901 2013/11/27
 31 33  0  0  0  0  0  0  0  0999 V2000
   -0.3063   14.7620   41.3266 C   0  0  2  0  0  0  0  0  0  0  0  0
   -0.7320   14.0411   42.4669 O   0  0  0  0  0  0  0  0  0  0  0  0
   -2.5160   10.1922   42.7188 C   0  0  2  0  0  0  0  0  0  0  0  0
   -3.5050    9.1702   42.6542 N   0  0  0  0  0  0  0  0  0  0  0  0
   -2.7568    8.9312   39.6387 C   0  0  2  0  0  0  0  0  0  0  0  0
    0.7432   15.8592   41.7985 C   0  0  2  0  0  0  0  0  0  0  0  0
    1.8544   15.1989   42.4751 N   0  0  0  0  0  0  0  0  0  0  0  0
   -3.0253   11.3153   43.7282 C   0  0  0  0  0  0  0  0  0  0  0  0
   -1.8052    8.0671   38.7449 C   0  0  2  0  0  0  0  0  0  0  0  0
   -0.8772    7.4065   39.5790 O   0  0  0  0  0  0  0  0  0  0  0  0
    0.0538   16.9154   42.7384 C   0  0  0  0  0  0  0  0  0  0  0  0
   -1.9176   12.4438   43.8122 C   0  0  2  0  0  0  0  0  0  0  0  0
   -2.3651   13.4807   44.7429 N   0  0  0  0  0  0  0  0  0  0  0  0
   -1.0696    9.0197   37.7335 C   0  0  1  0  0  0  0  0  0  0  0  0
   -0.1389    8.2199   36.8740 N   0  0  0  0  0  0  0  0  0  0  0  0
   -1.4049   17.2860   42.2376 C   0  0  0  0  0  0  0  0  0  0  0  0
   -1.7059   13.0638   42.3708 C   0  0  2  0  0  0  0  0  0  0  0  0
   -2.1815    9.7459   36.7931 C   0  0  1  0  0  0  0  0  0  0  0  0
   -2.9551    8.8331   36.0396 O   0  0  0  0  0  0  0  0  0  0  0  0
   -2.0288   16.5493   41.2865 C   0  0  1  0  0  0  0  0  0  0  0  0
   -1.4406   15.4083   40.6684 O   0  0  0  0  0  0  0  0  0  0  0  0
   -1.2228   11.9341   41.3688 C   0  0  2  0  0  0  0  0  0  0  0  0
   -1.0468   12.5047   40.0558 O   0  0  0  0  0  0  0  0  0  0  0  0
   -3.1496   10.5716   37.6922 C   0  0  0  0  0  0  0  0  0  0  0  0
   -3.7493    9.6790   38.7650 O   0  0  0  0  0  0  0  0  0  0  0  0
   -3.4190   16.8644   40.7880 C   0  0  0  0  0  0  0  0  0  0  0  0
   -3.2825   17.2491   39.4031 O   0  0  0  0  0  0  0  0  0  0  0  0
   -2.3237   10.8083   41.2924 C   0  0  1  0  0  0  0  0  0  0  0  0
   -1.8710    9.8168   40.4042 O   0  0  0  0  0  0  0  0  0  0  0  0
   -1.6034   10.7183   35.7568 C   0  0  0  0  0  0  0  0  0  0  0  0
    1.2812    8.2090   37.2820 C   0  0  0  0  0  0  0  0  0  0  0  0
  1  2  1  1  0  0  0
  1  6  1  0  0  0  0
  1 21  1  0  0  0  0
  3  4  1  6  0  0  0
  3  8  1  0  0  0  0
  3 28  1  0  0  0  0
  5  9  1  0  0  0  0
  5 25  1  0  0  0  0
  5 29  1  6  0  0  0
  6  7  1  1  0  0  0
  6 11  1  0  0  0  0
  8 12  1  0  0  0  0
  9 10  1  1  0  0  0
  9 14  1  0  0  0  0
 11 16  1  0  0  0  0
 12 13  1  1  0  0  0
 12 17  1  0  0  0  0
 14 15  1  6  0  0  0
 14 18  1  0  0  0  0
 15 31  1  0  0  0  0
 16 20  1  0  0  0  0
 17  2  1  1  0  0  0
 17 22  1  0  0  0  0
 18 19  1  6  0  0  0
 18 24  1  0  0  0  0
 18 30  1  0  0  0  0
 20 21  1  0  0  0  0
 20 26  1  1  0  0  0
 22 23  1  6  0  0  0
 22 28  1  0  0  0  0
 24 25  1  0  0  0  0
 26 27  1  0  0  0  0
 28 29  1  6  0  0  0
M  END
>  <CHROM.1>
176.46267842,176.93769755,-98.08522830,178.84475630,114.19948405,88.11374606
-1.63425551,12.06716158,40.38142903,-1.16032612,-1.43730937,-2.19806683

>  <Name>
ligand

>  <RI>
0

>  <Rbt.Current_Directory>
/home/itssahil/PROJECTS/Mol_Feturizer/New_Systems/rnas/4GPY

>  <Rbt.Executable>
rbdock ($Id: //depot/dev/client3/rdock/2013.1/src/exe/rbdock.cxx#4 $)

>  <Rbt.Library>
libRbt.so (2013.1, Build901 2013/11/27)

>  <Rbt.Parameter_File>
/export/apps/rDock/src/rDock_2013.1_src/data/scripts/dock_solv.prm

>  <Rbt.Receptor>
prm/pocket_docking_5.prm

>  <SCORE>
-10.052

>  <SCORE.INTER>
-5.85539

>  <SCORE.INTER.CONST>
1

>  <SCORE.INTER.POLAR>
0

>  <SCORE.INTER.ROT>
6

>  <SCORE.INTER.SOLV>
12.7886

>  <SCORE.INTER.VDW>
-15.7665

>  <SCORE.INTER.norm>
-0.188884

>  <SCORE.INTRA>
-4.1966

>  <SCORE.INTRA.DIHEDRAL>
-8.76748

>  <SCORE.INTRA.DIHEDRAL.0>
14.7001

>  <SCORE.INTRA.POLAR>
0

>  <SCORE.INTRA.POLAR.0>
0

>  <SCORE.INTRA.REPUL>
0

>  <SCORE.INTRA.REPUL.0>
0

>  <SCORE.INTRA.SOLV>
-2.0991

>  <SCORE.INTRA.SOLV.lig_0>
-65.3082

>  <SCORE.INTRA.VDW>
1.23669

>  <SCORE.INTRA.VDW.0>
-4.21408

>  <SCORE.INTRA.norm>
-0.135374

>  <SCORE.RESTR>
0

>  <SCORE.RESTR.CAVITY>
0

>  <SCORE.RESTR.norm>
0

>  <SCORE.SYSTEM>
0

>  <SCORE.SYSTEM.CONST>
0

>  <SCORE.SYSTEM.DIHEDRAL>
0

>  <SCORE.SYSTEM.SOLV>
0

>  <SCORE.SYSTEM.norm>
0

>  <SCORE.heavy>
31

>  <SCORE.norm>
-0.324258

>  <RMSD>
5.339

$$$$
ligand
 OpenBabel11021811493D
libRbt.so/2013.1/901 2013/11/27
 31 33  0  0  0  0  0  0  0  0999 V2000
    0.2606   14.6111   41.4973 C   0  0  2  0  0  0  0  0  0  0  0  0
   -0.1947   13.8430   42.5946 O   0  0  0  0  0  0  0  0  0  0  0  0
   -2.4966   10.2741   42.7486 C   0  0  2  0  0  0  0  0  0  0  0  0
   -3.6186    9.4020   42.6620 N   0  0  0  0  0  0  0  0  0  0  0  0
   -2.9247    9.0930   39.6980 C   0  0  2  0  0  0  0  0  0  0  0  0
    1.4783   15.5062   41.9914 C   0  0  2  0  0  0  0  0  0  0  0  0
    2.5239   14.6396   42.5246 N   0  0  0  0  0  0  0  0  0  0  0  0
   -2.8411   11.4268   43.7938 C   0  0  0  0  0  0  0  0  0  0  0  0
   -2.1087    8.1002   38.8038 C   0  0  2  0  0  0  0  0  0  0  0  0
   -1.2452    7.3505   39.6318 O   0  0  0  0  0  0  0  0  0  0  0  0
    0.9983   16.5456   43.0700 C   0  0  0  0  0  0  0  0  0  0  0  0
   -1.5867   12.3872   43.9021 C   0  0  2  0  0  0  0  0  0  0  0  0
   -1.8822   13.4483   44.8656 N   0  0  0  0  0  0  0  0  0  0  0  0
   -1.2908    8.9337   37.7513 C   0  0  1  0  0  0  0  0  0  0  0  0
   -0.4870    8.0080   36.8902 N   0  0  0  0  0  0  0  0  0  0  0  0
   -0.4211   17.1552   42.7097 C   0  0  0  0  0  0  0  0  0  0  0  0
   -1.2956   13.0141   42.4776 C   0  0  2  0  0  0  0  0  0  0  0  0
   -2.3318    9.7685   36.8198 C   0  0  1  0  0  0  0  0  0  0  0  0
   -3.2298    8.9399   36.1083 O   0  0  0  0  0  0  0  0  0  0  0  0
   -1.1955   16.6068   41.7422 C   0  0  1  0  0  0  0  0  0  0  0  0
   -0.8087   15.4650   40.9826 O   0  0  0  0  0  0  0  0  0  0  0  0
   -0.9780   11.8583   41.4398 C   0  0  2  0  0  0  0  0  0  0  0  0
   -0.7287   12.4374   40.1426 O   0  0  0  0  0  0  0  0  0  0  0  0
   -3.1685   10.7254   37.7207 C   0  0  0  0  0  0  0  0  0  0  0  0
   -3.8427    9.9362   38.8297 O   0  0  0  0  0  0  0  0  0  0  0  0
   -2.5547   17.1522   41.3742 C   0  0  0  0  0  0  0  0  0  0  0  0
   -3.5115   16.1153   41.6813 O   0  0  0  0  0  0  0  0  0  0  0  0
   -2.2252   10.8994   41.3392 C   0  0  1  0  0  0  0  0  0  0  0  0
   -1.9181    9.8813   40.4194 O   0  0  0  0  0  0  0  0  0  0  0  0
   -1.6684   10.6403   35.7457 C   0  0  0  0  0  0  0  0  0  0  0  0
    0.9172    7.7914   37.2961 C   0  0  0  0  0  0  0  0  0  0  0  0
  1  2  1  1  0  0  0
  1  6  1  0  0  0  0
  1 21  1  0  0  0  0
  3  4  1  6  0  0  0
  3  8  1  0  0  0  0
  3 28  1  0  0  0  0
  5  9  1  0  0  0  0
  5 25  1  0  0  0  0
  5 29  1  6  0  0  0
  6  7  1  1  0  0  0
  6 11  1  0  0  0  0
  8 12  1  0  0  0  0
  9 10  1  1  0  0  0
  9 14  1  0  0  0  0
 11 16  1  0  0  0  0
 12 13  1  1  0  0  0
 12 17  1  0  0  0  0
 14 15  1  6  0  0  0
 14 18  1  0  0  0  0
 15 31  1  0  0  0  0
 16 20  1  0  0  0  0
 17  2  1  1  0  0  0
 17 22  1  0  0  0  0
 18 19  1  6  0  0  0
 18 24  1  0  0  0  0
 18 30  1  0  0  0  0
 20 21  1  0  0  0  0
 20 26  1  1  0  0  0
 22 23  1  6  0  0  0
 22 28  1  0  0  0  0
 24 25  1  0  0  0  0
 26 27  1  0  0  0  0
 28 29  1  6  0  0  0
M  END
>  <CHROM.1>
176.75433182,179.96682028,-95.70533668,-176.20717786,-116.77787636,84.09802753
-1.44387368,11.98870107,40.58392019,-1.18358535,-1.14471691,-2.17914865

>  <Name>
ligand

>  <RI>
0

>  <Rbt.Current_Directory>
/home/itssahil/PROJECTS/Mol_Feturizer/New_Systems/rnas/4GPY

>  <Rbt.Executable>
rbdock ($Id: //depot/dev/client3/rdock/2013.1/src/exe/rbdock.cxx#4 $)

>  <Rbt.Library>
libRbt.so (2013.1, Build901 2013/11/27)

>  <Rbt.Parameter_File>
/export/apps/rDock/src/rDock_2013.1_src/data/scripts/dock_solv.prm

>  <Rbt.Receptor>
prm/pocket_docking_7.prm

>  <SCORE>
-9.63933

>  <SCORE.INTER>
-4.84658

>  <SCORE.INTER.CONST>
1

>  <SCORE.INTER.POLAR>
0

>  <SCORE.INTER.ROT>
6

>  <SCORE.INTER.SOLV>
10.9596

>  <SCORE.INTER.VDW>
-14.4843

>  <SCORE.INTER.norm>
-0.156341

>  <SCORE.INTRA>
-4.79274

>  <SCORE.INTRA.DIHEDRAL>
-9.59725

>  <SCORE.INTRA.DIHEDRAL.0>
14.7001

>  <SCORE.INTRA.POLAR>
0

>  <SCORE.INTRA.POLAR.0>
0

>  <SCORE.INTRA.REPUL>
0

>  <SCORE.INTRA.REPUL.0>
0

>  <SCORE.INTRA.SOLV>
-1.71721

>  <SCORE.INTRA.SOLV.lig_0>
-65.3082

>  <SCORE.INTRA.VDW>
0.864487

>  <SCORE.INTRA.VDW.0>
-4.21408

>  <SCORE.INTRA.norm>
-0.154605

>  <SCORE.RESTR>
0

>  <SCORE.RESTR.CAVITY>
0

>  <SCORE.RESTR.norm>
0

>  <SCORE.SYSTEM>
0

>  <SCORE.SYSTEM.CONST>
0

>  <SCORE.SYSTEM.DIHEDRAL>
0

>  <SCORE.SYSTEM.SOLV>
0

>  <SCORE.SYSTEM.norm>
0

>  <SCORE.heavy>
31

>  <SCORE.norm>
-0.310946

>  <RMSD>
5.349

$$$$
ligand
 OpenBabel11021811493D
libRbt.so/2013.1/901 2013/11/27
 31 33  0  0  0  0  0  0  0  0999 V2000
    0.2495   14.6151   41.4904 C   0  0  2  0  0  0  0  0  0  0  0  0
   -0.2022   13.8451   42.5879 O   0  0  0  0  0  0  0  0  0  0  0  0
   -2.4928   10.2694   42.7516 C   0  0  2  0  0  0  0  0  0  0  0  0
   -3.6116    9.3932   42.6656 N   0  0  0  0  0  0  0  0  0  0  0  0
   -2.9075    9.0702   39.7079 C   0  0  2  0  0  0  0  0  0  0  0  0
    1.4595   15.5200   41.9857 C   0  0  2  0  0  0  0  0  0  0  0  0
    2.5105   14.6620   42.5221 N   0  0  0  0  0  0  0  0  0  0  0  0
   -2.8443   11.4258   43.7902 C   0  0  0  0  0  0  0  0  0  0  0  0
   -2.0855    8.0946   38.8002 C   0  0  2  0  0  0  0  0  0  0  0  0
   -1.2049    7.3515   39.6160 O   0  0  0  0  0  0  0  0  0  0  0  0
    0.9696   16.5572   43.0620 C   0  0  0  0  0  0  0  0  0  0  0  0
   -1.5934   12.3908   43.8979 C   0  0  2  0  0  0  0  0  0  0  0  0
   -1.8954   13.4555   44.8555 N   0  0  0  0  0  0  0  0  0  0  0  0
   -1.2881    8.9462   37.7465 C   0  0  1  0  0  0  0  0  0  0  0  0
   -0.4790    8.0373   36.8726 N   0  0  0  0  0  0  0  0  0  0  0  0
   -0.4535   17.1557   42.6981 C   0  0  0  0  0  0  0  0  0  0  0  0
   -1.2999   13.0121   42.4713 C   0  0  2  0  0  0  0  0  0  0  0  0
   -2.3483    9.7726   36.8293 C   0  0  1  0  0  0  0  0  0  0  0  0
   -3.2409    8.9363   36.1199 O   0  0  0  0  0  0  0  0  0  0  0  0
   -1.2219   16.6002   41.7299 C   0  0  1  0  0  0  0  0  0  0  0  0
   -0.8252   15.4604   40.9726 O   0  0  0  0  0  0  0  0  0  0  0  0
   -0.9753   11.8524   41.4400 C   0  0  2  0  0  0  0  0  0  0  0  0
   -0.7239   12.4263   40.1409 O   0  0  0  0  0  0  0  0  0  0  0  0
   -3.1905   10.7120   37.7436 C   0  0  0  0  0  0  0  0  0  0  0  0
   -3.8443    9.9063   38.8529 O   0  0  0  0  0  0  0  0  0  0  0  0
   -2.5845   17.1350   41.3585 C   0  0  0  0  0  0  0  0  0  0  0  0
   -3.5345   16.0931   41.6694 O   0  0  0  0  0  0  0  0  0  0  0  0
   -2.2190   10.8890   41.3401 C   0  0  1  0  0  0  0  0  0  0  0  0
   -1.9057    9.8675   40.4261 O   0  0  0  0  0  0  0  0  0  0  0  0
   -1.7061   10.6605   35.7555 C   0  0  0  0  0  0  0  0  0  0  0  0
    0.9173    7.7983   37.2929 C   0  0  0  0  0  0  0  0  0  0  0  0
  1  2  1  1  0  0  0
  1  6  1  0  0  0  0
  1 21  1  0  0  0  0
  3  4  1  6  0  0  0
  3  8  1  0  0  0  0
  3 28  1  0  0  0  0
  5  9  1  0  0  0  0
  5 25  1  0  0  0  0
  5 29  1  6  0  0  0
  6  7  1  1  0  0  0
  6 11  1  0  0  0  0
  8 12  1  0  0  0  0
  9 10  1  1  0  0  0
  9 14  1  0  0  0  0
 11 16  1  0  0  0  0
 12 13  1  1  0  0  0
 12 17  1  0  0  0  0
 14 15  1  6  0  0  0
 14 18  1  0  0  0  0
 15 31  1  0  0  0  0
 16 20  1  0  0  0  0
 17  2  1  1  0  0  0
 17 22  1  0  0  0  0
 18 19  1  6  0  0  0
 18 24  1  0  0  0  0
 18 30  1  0  0  0  0
 20 21  1  0  0  0  0
 20 26  1  1  0  0  0
 22 23  1  6  0  0  0
 22 28  1  0  0  0  0
 24 25  1  0  0  0  0
 26 27  1  0  0  0  0
 28 29  1  6  0  0  0
M  END
>  <CHROM.1>
176.48538403,178.96680130,-93.54672704,-175.85487259,-116.58444156,83.93190997
-1.45010965,11.98700439,40.58199595,-1.18440616,-1.14984006,-2.18054384

>  <Name>
ligand

>  <RI>
0

>  <Rbt.Current_Directory>
/home/itssahil/PROJECTS/Mol_Feturizer/New_Systems/rnas/4GPY

>  <Rbt.Executable>
rbdock ($Id: //depot/dev/client3/rdock/2013.1/src/exe/rbdock.cxx#4 $)

>  <Rbt.Library>
libRbt.so (2013.1, Build901 2013/11/27)

>  <Rbt.Parameter_File>
/export/apps/rDock/src/rDock_2013.1_src/data/scripts/dock_solv.prm

>  <Rbt.Receptor>
prm/pocket_docking_5.prm

>  <SCORE>
-9.61499

>  <SCORE.INTER>
-4.82277

>  <SCORE.INTER.CONST>
1

>  <SCORE.INTER.POLAR>
0

>  <SCORE.INTER.ROT>
6

>  <SCORE.INTER.SOLV>
10.9613

>  <SCORE.INTER.VDW>
-14.469

>  <SCORE.INTER.norm>
-0.155573

>  <SCORE.INTRA>
-4.79221

>  <SCORE.INTRA.DIHEDRAL>
-9.66316

>  <SCORE.INTRA.DIHEDRAL.0>
14.7001

>  <SCORE.INTRA.POLAR>
0

>  <SCORE.INTRA.POLAR.0>
0

>  <SCORE.INTRA.REPUL>
0

>  <SCORE.INTRA.REPUL.0>
0

>  <SCORE.INTRA.SOLV>
-1.68556

>  <SCORE.INTRA.SOLV.lig_0>
-65.3082

>  <SCORE.INTRA.VDW>
0.882152

>  <SCORE.INTRA.VDW.0>
-4.21408

>  <SCORE.INTRA.norm>
-0.154587

>  <SCORE.RESTR>
0

>  <SCORE.RESTR.CAVITY>
0

>  <SCORE.RESTR.norm>
0

>  <SCORE.SYSTEM>
0

>  <SCORE.SYSTEM.CONST>
0

>  <SCORE.SYSTEM.DIHEDRAL>
0

>  <SCORE.SYSTEM.SOLV>
0

>  <SCORE.SYSTEM.norm>
0

>  <SCORE.heavy>
31

>  <SCORE.norm>
-0.310161

>  <RMSD>
5.354

$$$$
ligand
 OpenBabel11021811493D
libRbt.so/2013.1/901 2013/11/27
 31 33  0  0  0  0  0  0  0  0999 V2000
    0.5668   14.6129   41.6018 C   0  0  2  0  0  0  0  0  0  0  0  0
    0.1431   13.7764   42.6611 O   0  0  0  0  0  0  0  0  0  0  0  0
   -2.2990   10.2990   42.7245 C   0  0  2  0  0  0  0  0  0  0  0  0
   -3.4588    9.4780   42.6374 N   0  0  0  0  0  0  0  0  0  0  0  0
   -2.8840    9.2339   39.6987 C   0  0  2  0  0  0  0  0  0  0  0  0
    1.9119   15.3335   42.0485 C   0  0  2  0  0  0  0  0  0  0  0  0
    2.9096   14.3218   42.3798 N   0  0  0  0  0  0  0  0  0  0  0  0
   -2.5568   11.4090   43.8385 C   0  0  0  0  0  0  0  0  0  0  0  0
   -2.1399    8.2014   38.7869 C   0  0  2  0  0  0  0  0  0  0  0  0
   -1.2612    7.4407   39.5884 O   0  0  0  0  0  0  0  0  0  0  0  0
    1.6477   16.2904   43.2686 C   0  0  0  0  0  0  0  0  0  0  0  0
   -1.2602   12.3117   43.9465 C   0  0  2  0  0  0  0  0  0  0  0  0
   -1.4759   13.3327   44.9726 N   0  0  0  0  0  0  0  0  0  0  0  0
   -1.3478    8.9914   37.6823 C   0  0  1  0  0  0  0  0  0  0  0  0
   -0.6124    8.0268   36.8029 N   0  0  0  0  0  0  0  0  0  0  0  0
    0.2704   17.0636   43.1230 C   0  0  0  0  0  0  0  0  0  0  0  0
   -0.9950   12.9992   42.5450 C   0  0  2  0  0  0  0  0  0  0  0  0
   -2.4060    9.8406   36.7840 C   0  0  1  0  0  0  0  0  0  0  0  0
   -3.3601    9.0271   36.1304 O   0  0  0  0  0  0  0  0  0  0  0  0
   -0.6461   16.6963   42.1947 C   0  0  1  0  0  0  0  0  0  0  0  0
   -0.4539   15.6123   41.2902 O   0  0  0  0  0  0  0  0  0  0  0  0
   -0.7639   11.8867   41.4393 C   0  0  2  0  0  0  0  0  0  0  0  0
   -0.5378   12.5216   40.1641 O   0  0  0  0  0  0  0  0  0  0  0  0
   -3.1716   10.8380   37.7042 C   0  0  0  0  0  0  0  0  0  0  0  0
   -3.8162   10.0891   38.8578 O   0  0  0  0  0  0  0  0  0  0  0  0
   -1.9712   17.4013   42.0290 C   0  0  0  0  0  0  0  0  0  0  0  0
   -2.0015   18.4578   43.0126 O   0  0  0  0  0  0  0  0  0  0  0  0
   -2.0529   10.9849   41.3388 C   0  0  1  0  0  0  0  0  0  0  0  0
   -1.8223   10.0040   40.3581 O   0  0  0  0  0  0  0  0  0  0  0  0
   -1.7681   10.6731   35.6643 C   0  0  0  0  0  0  0  0  0  0  0  0
    0.8042    7.7805   37.1436 C   0  0  0  0  0  0  0  0  0  0  0  0
  1  2  1  1  0  0  0
  1  6  1  0  0  0  0
  1 21  1  0  0  0  0
  3  4  1  6  0  0  0
  3  8  1  0  0  0  0
  3 28  1  0  0  0  0
  5  9  1  0  0  0  0
  5 25  1  0  0  0  0
  5 29  1  6  0  0  0
  6  7  1  1  0  0  0
  6 11  1  0  0  0  0
  8 12  1  0  0  0  0
  9 10  1  1  0  0  0
  9 14  1  0  0  0  0
 11 16  1  0  0  0  0
 12 13  1  1  0  0  0
 12 17  1  0  0  0  0
 14 15  1  6  0  0  0
 14 18  1  0  0  0  0
 15 31  1  0  0  0  0
 16 20  1  0  0  0  0
 17  2  1  1  0  0  0
 17 22  1  0  0  0  0
 18 19  1  6  0  0  0
 18 24  1  0  0  0  0
 18 30  1  0  0  0  0
 20 21  1  0  0  0  0
 20 26  1  1  0  0  0
 22 23  1  6  0  0  0
 22 28  1  0  0  0  0
 24 25  1  0  0  0  0
 26 27  1  0  0  0  0
 28 29  1  6  0  0  0
M  END
>  <CHROM.1>
-178.73903832,-175.52573195,-96.01262880,-174.21924508,0.08021420,80.01706471
-1.19751589,12.09622199,40.69062532,-1.05905019,-1.13971524,-2.04937729

>  <Name>
ligand

>  <RI>
0

>  <Rbt.Current_Directory>
/home/itssahil/PROJECTS/Mol_Feturizer/New_Systems/rnas/4GPY

>  <Rbt.Executable>
rbdock ($Id: //depot/dev/client3/rdock/2013.1/src/exe/rbdock.cxx#4 $)

>  <Rbt.Library>
libRbt.so (2013.1, Build901 2013/11/27)

>  <Rbt.Parameter_File>
/export/apps/rDock/src/rDock_2013.1_src/data/scripts/dock_solv.prm

>  <Rbt.Receptor>
prm/pocket_docking_6.prm

>  <SCORE>
-8.33449

>  <SCORE.INTER>
-4.78944

>  <SCORE.INTER.CONST>
1

>  <SCORE.INTER.POLAR>
0

>  <SCORE.INTER.ROT>
6

>  <SCORE.INTER.SOLV>
11.2405

>  <SCORE.INTER.VDW>
-14.5398

>  <SCORE.INTER.norm>
-0.154498

>  <SCORE.INTRA>
-3.54505

>  <SCORE.INTRA.DIHEDRAL>
-10.1556

>  <SCORE.INTRA.DIHEDRAL.0>
14.7001

>  <SCORE.INTRA.POLAR>
0

>  <SCORE.INTRA.POLAR.0>
0

>  <SCORE.INTRA.REPUL>
0

>  <SCORE.INTRA.REPUL.0>
0

>  <SCORE.INTRA.SOLV>
-1.71966

>  <SCORE.INTRA.SOLV.lig_0>
-65.3082

>  <SCORE.INTRA.VDW>
2.39257

>  <SCORE.INTRA.VDW.0>
-4.21408

>  <SCORE.INTRA.norm>
-0.114356

>  <SCORE.RESTR>
0

>  <SCORE.RESTR.CAVITY>
0

>  <SCORE.RESTR.norm>
0

>  <SCORE.SYSTEM>
0

>  <SCORE.SYSTEM.CONST>
0

>  <SCORE.SYSTEM.DIHEDRAL>
0

>  <SCORE.SYSTEM.SOLV>
0

>  <SCORE.SYSTEM.norm>
0

>  <SCORE.heavy>
31

>  <SCORE.norm>
-0.268854

>  <RMSD>
5.365

$$$$
ligand
 OpenBabel11021811493D
libRbt.so/2013.1/901 2013/11/27
 31 33  0  0  0  0  0  0  0  0999 V2000
    1.5234   16.2992   35.5774 C   0  0  2  0  0  0  0  0  0  0  0  0
    2.8431   16.1831   36.0736 O   0  0  0  0  0  0  0  0  0  0  0  0
    4.9608   13.0207   37.9643 C   0  0  2  0  0  0  0  0  0  0  0  0
    5.3302   12.0587   38.9466 N   0  0  0  0  0  0  0  0  0  0  0  0
    2.2016   10.8287   36.4117 C   0  0  2  0  0  0  0  0  0  0  0  0
    1.2855   17.8133   35.1543 C   0  0  2  0  0  0  0  0  0  0  0  0
    2.2806   18.1937   34.1575 N   0  0  0  0  0  0  0  0  0  0  0  0
    5.0322   14.4664   38.6311 C   0  0  0  0  0  0  0  0  0  0  0  0
    1.5433   10.1822   37.6766 C   0  0  2  0  0  0  0  0  0  0  0  0
    1.3621   11.1842   38.6545 O   0  0  0  0  0  0  0  0  0  0  0  0
    1.3532   18.7558   36.4118 C   0  0  0  0  0  0  0  0  0  0  0  0
    4.6371   15.5373   37.5335 C   0  0  2  0  0  0  0  0  0  0  0  0
    4.7059   16.8734   38.1266 N   0  0  0  0  0  0  0  0  0  0  0  0
    2.4921    9.0468   38.2076 C   0  0  1  0  0  0  0  0  0  0  0  0
    1.8929    8.4199   39.4292 N   0  0  0  0  0  0  0  0  0  0  0  0
    0.6553   18.1011   37.6767 C   0  0  0  0  0  0  0  0  0  0  0  0
    3.1641   15.2411   37.0340 C   0  0  2  0  0  0  0  0  0  0  0  0
    2.6583    7.9170   37.0483 C   0  0  1  0  0  0  0  0  0  0  0  0
    1.4335    7.3156   36.6774 O   0  0  0  0  0  0  0  0  0  0  0  0
    0.3165   16.7890   37.6909 C   0  0  1  0  0  0  0  0  0  0  0  0
    0.5501   15.9078   36.5959 O   0  0  0  0  0  0  0  0  0  0  0  0
    3.0979   13.7918   36.3945 C   0  0  2  0  0  0  0  0  0  0  0  0
    1.7500   13.5252   35.9559 O   0  0  0  0  0  0  0  0  0  0  0  0
    3.2766    8.5753   35.7788 C   0  0  0  0  0  0  0  0  0  0  0  0
    2.4371    9.7668   35.3513 O   0  0  0  0  0  0  0  0  0  0  0  0
   -0.3423   16.1263   38.8771 C   0  0  0  0  0  0  0  0  0  0  0  0
    0.7219   15.7088   39.7591 O   0  0  0  0  0  0  0  0  0  0  0  0
    3.4987   12.7282   37.4868 C   0  0  1  0  0  0  0  0  0  0  0  0
    3.4386   11.4538   36.8957 O   0  0  0  0  0  0  0  0  0  0  0  0
    3.5718    6.7440   37.4272 C   0  0  0  0  0  0  0  0  0  0  0  0
    2.4911    8.8076   40.7235 C   0  0  0  0  0  0  0  0  0  0  0  0
  1  2  1  1  0  0  0
  1  6  1  0  0  0  0
  1 21  1  0  0  0  0
  3  4  1  1  0  0  0
  3  8  1  0  0  0  0
  3 28  1  0  0  0  0
  5  9  1  0  0  0  0
  5 25  1  0  0  0  0
  5 29  1  1  0  0  0
  6  7  1  6  0  0  0
  6 11  1  0  0  0  0
  8 12  1  0  0  0  0
  9 10  1  1  0  0  0
  9 14  1  0  0  0  0
 11 16  1  0  0  0  0
 12 13  1  1  0  0  0
 12 17  1  0  0  0  0
 14 15  1  1  0  0  0
 14 18  1  0  0  0  0
 15 31  1  0  0  0  0
 16 20  1  0  0  0  0
 17  2  1  6  0  0  0
 17 22  1  0  0  0  0
 18 19  1  6  0  0  0
 18 24  1  0  0  0  0
 18 30  1  0  0  0  0
 20 21  1  0  0  0  0
 20 26  1  1  0  0  0
 22 23  1  1  0  0  0
 22 28  1  0  0  0  0
 24 25  1  0  0  0  0
 26 27  1  0  0  0  0
 28 29  1  6  0  0  0
M  END
>  <CHROM.1>
150.36657160,-83.15013277,-103.83062847,-170.73894487,-86.25759620,176.17848625
2.43151755,13.10619909,37.30650303,1.71224319,-0.78666107,-0.00661614

>  <Name>
ligand

>  <RI>
0

>  <Rbt.Current_Directory>
/home/itssahil/PROJECTS/Mol_Feturizer/New_Systems/rnas/4GPY

>  <Rbt.Executable>
rbdock ($Id: //depot/dev/client3/rdock/2013.1/src/exe/rbdock.cxx#4 $)

>  <Rbt.Library>
libRbt.so (2013.1, Build901 2013/11/27)

>  <Rbt.Parameter_File>
/export/apps/rDock/src/rDock_2013.1_src/data/scripts/dock_solv.prm

>  <Rbt.Receptor>
prm/pocket_docking_6.prm

>  <SCORE>
-8.304

>  <SCORE.INTER>
-6.70986

>  <SCORE.INTER.CONST>
1

>  <SCORE.INTER.POLAR>
0

>  <SCORE.INTER.ROT>
6

>  <SCORE.INTER.SOLV>
17.9675

>  <SCORE.INTER.VDW>
-18.0624

>  <SCORE.INTER.norm>
-0.216447

>  <SCORE.INTRA>
-1.61874

>  <SCORE.INTRA.DIHEDRAL>
-4.51206

>  <SCORE.INTRA.DIHEDRAL.0>
14.7001

>  <SCORE.INTRA.POLAR>
0

>  <SCORE.INTRA.POLAR.0>
0

>  <SCORE.INTRA.REPUL>
0

>  <SCORE.INTRA.REPUL.0>
0

>  <SCORE.INTRA.SOLV>
-1.12552

>  <SCORE.INTRA.SOLV.lig_0>
-65.3082

>  <SCORE.INTRA.VDW>
1.20006

>  <SCORE.INTRA.VDW.0>
-4.21408

>  <SCORE.INTRA.norm>
-0.0522173

>  <SCORE.RESTR>
0.0245905

>  <SCORE.RESTR.CAVITY>
0.0245905

>  <SCORE.RESTR.norm>
0.000793243

>  <SCORE.SYSTEM>
0

>  <SCORE.SYSTEM.CONST>
0

>  <SCORE.SYSTEM.DIHEDRAL>
0

>  <SCORE.SYSTEM.SOLV>
0

>  <SCORE.SYSTEM.norm>
0

>  <SCORE.heavy>
31

>  <SCORE.norm>
-0.267871

>  <RMSD>
5.402

$$$$
ligand
 OpenBabel11021811493D
libRbt.so/2013.1/901 2013/11/27
 31 33  0  0  0  0  0  0  0  0999 V2000
   -0.4081   14.8077   41.3457 C   0  0  2  0  0  0  0  0  0  0  0  0
   -0.7973   14.0590   42.4811 O   0  0  0  0  0  0  0  0  0  0  0  0
   -2.5167   10.1816   42.7458 C   0  0  2  0  0  0  0  0  0  0  0  0
   -3.4880    9.1427   42.6831 N   0  0  0  0  0  0  0  0  0  0  0  0
   -2.7268    8.9117   39.6603 C   0  0  2  0  0  0  0  0  0  0  0  0
    0.6805   15.8720   41.8045 C   0  0  2  0  0  0  0  0  0  0  0  0
    1.8076   15.1724   42.4118 N   0  0  0  0  0  0  0  0  0  0  0  0
   -3.0481   11.3007   43.7483 C   0  0  0  0  0  0  0  0  0  0  0  0
   -1.7573    8.0619   38.7719 C   0  0  2  0  0  0  0  0  0  0  0  0
   -0.8276    7.4109   39.6117 O   0  0  0  0  0  0  0  0  0  0  0  0
    0.0514   16.9099   42.8050 C   0  0  0  0  0  0  0  0  0  0  0  0
   -1.9599   12.4482   43.8304 C   0  0  2  0  0  0  0  0  0  0  0  0
   -2.4278   13.4818   44.7548 N   0  0  0  0  0  0  0  0  0  0  0  0
   -1.0258    9.0263   37.7687 C   0  0  1  0  0  0  0  0  0  0  0  0
   -0.0784    8.2405   36.9146 N   0  0  0  0  0  0  0  0  0  0  0  0
   -1.4205   17.3203   42.3795 C   0  0  0  0  0  0  0  0  0  0  0  0
   -1.7543   13.0649   42.3866 C   0  0  2  0  0  0  0  0  0  0  0  0
   -2.1394    9.7409   36.8215 C   0  0  1  0  0  0  0  0  0  0  0  0
   -2.8954    8.8205   36.0595 O   0  0  0  0  0  0  0  0  0  0  0  0
   -2.0980   16.6241   41.4347 C   0  0  1  0  0  0  0  0  0  0  0  0
   -1.5577   15.4930   40.7573 O   0  0  0  0  0  0  0  0  0  0  0  0
   -1.2490   11.9388   41.3915 C   0  0  2  0  0  0  0  0  0  0  0  0
   -1.0785   12.5061   40.0764 O   0  0  0  0  0  0  0  0  0  0  0  0
   -3.1248   10.5521   37.7150 C   0  0  0  0  0  0  0  0  0  0  0  0
   -3.7217    9.6492   38.7807 O   0  0  0  0  0  0  0  0  0  0  0  0
   -3.5024   16.9777   41.0069 C   0  0  0  0  0  0  0  0  0  0  0  0
   -4.3545   15.9055   41.4641 O   0  0  0  0  0  0  0  0  0  0  0  0
   -2.3303   10.7942   41.3171 C   0  0  1  0  0  0  0  0  0  0  0  0
   -1.8582    9.8063   40.4351 O   0  0  0  0  0  0  0  0  0  0  0  0
   -1.5653   10.7233   35.7922 C   0  0  0  0  0  0  0  0  0  0  0  0
    1.3213    8.1719   37.3832 C   0  0  0  0  0  0  0  0  0  0  0  0
  1  2  1  1  0  0  0
  1  6  1  0  0  0  0
  1 21  1  0  0  0  0
  3  4  1  6  0  0  0
  3  8  1  0  0  0  0
  3 28  1  0  0  0  0
  5  9  1  0  0  0  0
  5 25  1  0  0  0  0
  5 29  1  6  0  0  0
  6  7  1  1  0  0  0
  6 11  1  0  0  0  0
  8 12  1  0  0  0  0
  9 10  1  1  0  0  0
  9 14  1  0  0  0  0
 11 16  1  0  0  0  0
 12 13  1  1  0  0  0
 12 17  1  0  0  0  0
 14 15  1  6  0  0  0
 14 18  1  0  0  0  0
 15 31  1  0  0  0  0
 16 20  1  0  0  0  0
 17  2  1  1  0  0  0
 17 22  1  0  0  0  0
 18 19  1  6  0  0  0
 18 24  1  0  0  0  0
 18 30  1  0  0  0  0
 20 21  1  0  0  0  0
 20 26  1  1  0  0  0
 22 23  1  6  0  0  0
 22 28  1  0  0  0  0
 24 25  1  0  0  0  0
 26 27  1  0  0  0  0
 28 29  1  6  0  0  0
M  END
>  <CHROM.1>
179.07050766,176.60907524,-94.15344251,-179.32840409,-111.96102013,88.78637100
-1.68300369,12.02443268,40.49645744,-1.49325209,-1.26206387,-2.49570894

>  <Name>
ligand

>  <RI>
0

>  <Rbt.Current_Directory>
/home/itssahil/PROJECTS/Mol_Feturizer/New_Systems/rnas/4GPY

>  <Rbt.Executable>
rbdock ($Id: //depot/dev/client3/rdock/2013.1/src/exe/rbdock.cxx#4 $)

>  <Rbt.Library>
libRbt.so (2013.1, Build901 2013/11/27)

>  <Rbt.Parameter_File>
/export/apps/rDock/src/rDock_2013.1_src/data/scripts/dock_solv.prm

>  <Rbt.Receptor>
prm/pocket_docking_6.prm

>  <SCORE>
-9.42711

>  <SCORE.INTER>
-5.12423

>  <SCORE.INTER.CONST>
1

>  <SCORE.INTER.POLAR>
0

>  <SCORE.INTER.ROT>
6

>  <SCORE.INTER.SOLV>
11.5507

>  <SCORE.INTER.VDW>
-14.8664

>  <SCORE.INTER.norm>
-0.165298

>  <SCORE.INTRA>
-4.30288

>  <SCORE.INTRA.DIHEDRAL>
-8.76894

>  <SCORE.INTRA.DIHEDRAL.0>
14.7001

>  <SCORE.INTRA.POLAR>
0

>  <SCORE.INTRA.POLAR.0>
0

>  <SCORE.INTRA.REPUL>
0

>  <SCORE.INTRA.REPUL.0>
0

>  <SCORE.INTRA.SOLV>
-1.92777

>  <SCORE.INTRA.SOLV.lig_0>
-65.3082

>  <SCORE.INTRA.VDW>
1.04548

>  <SCORE.INTRA.VDW.0>
-4.21408

>  <SCORE.INTRA.norm>
-0.138803

>  <SCORE.RESTR>
0

>  <SCORE.RESTR.CAVITY>
0

>  <SCORE.RESTR.norm>
0

>  <SCORE.SYSTEM>
0

>  <SCORE.SYSTEM.CONST>
0

>  <SCORE.SYSTEM.DIHEDRAL>
0

>  <SCORE.SYSTEM.SOLV>
0

>  <SCORE.SYSTEM.norm>
0

>  <SCORE.heavy>
31

>  <SCORE.norm>
-0.3041

>  <RMSD>
5.485

$$$$
ligand
 OpenBabel11021811493D
libRbt.so/2013.1/901 2013/11/27
 31 33  0  0  0  0  0  0  0  0999 V2000
   -1.1691   14.4398   40.9106 C   0  0  2  0  0  0  0  0  0  0  0  0
   -2.5422   14.3315   40.5878 O   0  0  0  0  0  0  0  0  0  0  0  0
   -2.6191   10.3508   39.1018 C   0  0  2  0  0  0  0  0  0  0  0  0
   -3.1297    9.1251   38.5883 N   0  0  0  0  0  0  0  0  0  0  0  0
   -0.8851   11.0453   36.6972 C   0  0  2  0  0  0  0  0  0  0  0  0
   -0.9422   15.8312   41.6459 C   0  0  2  0  0  0  0  0  0  0  0  0
   -1.7898   15.8897   42.8320 N   0  0  0  0  0  0  0  0  0  0  0  0
   -3.3221   10.6350   40.5035 C   0  0  0  0  0  0  0  0  0  0  0  0
   -0.6110   11.2465   35.1689 C   0  0  2  0  0  0  0  0  0  0  0  0
   -1.0765   12.5245   34.7901 O   0  0  0  0  0  0  0  0  0  0  0  0
   -1.2472   17.0276   40.6714 C   0  0  0  0  0  0  0  0  0  0  0  0
   -2.7419   11.9901   41.0821 C   0  0  2  0  0  0  0  0  0  0  0  0
   -3.3706   12.2627   42.3752 N   0  0  0  0  0  0  0  0  0  0  0  0
   -1.3642   10.1183   34.3743 C   0  0  1  0  0  0  0  0  0  0  0  0
   -1.1314   10.2958   32.9050 N   0  0  0  0  0  0  0  0  0  0  0  0
   -0.7209   16.7399   39.2030 C   0  0  0  0  0  0  0  0  0  0  0  0
   -3.0624   13.1612   40.0658 C   0  0  2  0  0  0  0  0  0  0  0  0
   -0.7841    8.6713   34.8409 C   0  0  1  0  0  0  0  0  0  0  0  0
    0.6000    8.5206   34.5943 O   0  0  0  0  0  0  0  0  0  0  0  0
   -0.3256   15.4986   38.8296 C   0  0  1  0  0  0  0  0  0  0  0  0
   -0.3459   14.3739   39.7042 O   0  0  0  0  0  0  0  0  0  0  0  0
   -2.3791   12.8574   38.6677 C   0  0  2  0  0  0  0  0  0  0  0  0
   -2.6884   13.9216   37.7446 O   0  0  0  0  0  0  0  0  0  0  0  0
   -1.0238    8.4943   36.3702 C   0  0  0  0  0  0  0  0  0  0  0  0
   -0.4215    9.6645   37.1285 O   0  0  0  0  0  0  0  0  0  0  0  0
    0.1745   15.1819   37.4404 C   0  0  0  0  0  0  0  0  0  0  0  0
    0.7989   16.3851   36.9432 O   0  0  0  0  0  0  0  0  0  0  0  0
   -2.9527   11.5044   38.0973 C   0  0  1  0  0  0  0  0  0  0  0  0
   -2.3288   11.2537   36.8625 O   0  0  0  0  0  0  0  0  0  0  0  0
   -1.4387    7.4686   34.1490 C   0  0  0  0  0  0  0  0  0  0  0  0
   -2.3388   10.3939   32.0589 C   0  0  0  0  0  0  0  0  0  0  0  0
  1  2  1  6  0  0  0
  1  6  1  0  0  0  0
  1 21  1  0  0  0  0
  3  4  1  6  0  0  0
  3  8  1  0  0  0  0
  3 28  1  0  0  0  0
  5  9  1  0  0  0  0
  5 25  1  0  0  0  0
  5 29  1  6  0  0  0
  6  7  1  1  0  0  0
  6 11  1  0  0  0  0
  8 12  1  0  0  0  0
  9 10  1  6  0  0  0
  9 14  1  0  0  0  0
 11 16  1  0  0  0  0
 12 13  1  1  0  0  0
 12 17  1  0  0  0  0
 14 15  1  6  0  0  0
 14 18  1  0  0  0  0
 15 31  1  0  0  0  0
 16 20  1  0  0  0  0
 17  2  1  1  0  0  0
 17 22  1  0  0  0  0
 18 19  1  6  0  0  0
 18 24  1  0  0  0  0
 18 30  1  0  0  0  0
 20 21  1  0  0  0  0
 20 26  1  6  0  0  0
 22 23  1  6  0  0  0
 22 28  1  0  0  0  0
 24 25  1  0  0  0  0
 26 27  1  0  0  0  0
 28 29  1  6  0  0  0
M  END
>  <CHROM.1>
-173.11283971,-163.06841488,-125.00530122,56.91139350,30.07731926,-56.42502030
-1.50280488,12.30349903,37.85338248,1.66563118,1.10924903,0.73248147

>  <Name>
ligand

>  <RI>
0

>  <Rbt.Current_Directory>
/home/itssahil/PROJECTS/Mol_Feturizer/New_Systems/rnas/4GPY

>  <Rbt.Executable>
rbdock ($Id: //depot/dev/client3/rdock/2013.1/src/exe/rbdock.cxx#4 $)

>  <Rbt.Library>
libRbt.so (2013.1, Build901 2013/11/27)

>  <Rbt.Parameter_File>
/export/apps/rDock/src/rDock_2013.1_src/data/scripts/dock_solv.prm

>  <Rbt.Receptor>
prm/pocket_docking_8.prm

>  <SCORE>
-6.63144

>  <SCORE.INTER>
-4.44637

>  <SCORE.INTER.CONST>
1

>  <SCORE.INTER.POLAR>
0

>  <SCORE.INTER.ROT>
6

>  <SCORE.INTER.SOLV>
10.2606

>  <SCORE.INTER.VDW>
-13.9844

>  <SCORE.INTER.norm>
-0.143431

>  <SCORE.INTRA>
-2.18508

>  <SCORE.INTRA.DIHEDRAL>
-9.20041

>  <SCORE.INTRA.DIHEDRAL.0>
14.7001

>  <SCORE.INTRA.POLAR>
0

>  <SCORE.INTRA.POLAR.0>
0

>  <SCORE.INTRA.REPUL>
0

>  <SCORE.INTRA.REPUL.0>
0

>  <SCORE.INTRA.SOLV>
1.14828

>  <SCORE.INTRA.SOLV.lig_0>
-65.3082

>  <SCORE.INTRA.VDW>
1.84099

>  <SCORE.INTRA.VDW.0>
-4.21408

>  <SCORE.INTRA.norm>
-0.0704864

>  <SCORE.RESTR>
0

>  <SCORE.RESTR.CAVITY>
0

>  <SCORE.RESTR.norm>
0

>  <SCORE.SYSTEM>
0

>  <SCORE.SYSTEM.CONST>
0

>  <SCORE.SYSTEM.DIHEDRAL>
0

>  <SCORE.SYSTEM.SOLV>
0

>  <SCORE.SYSTEM.norm>
0

>  <SCORE.heavy>
31

>  <SCORE.norm>
-0.213918

>  <RMSD>
5.535

$$$$
ligand
 OpenBabel11021811493D
libRbt.so/2013.1/901 2013/11/27
 31 33  0  0  0  0  0  0  0  0999 V2000
    1.9863   20.3089   35.5452 C   0  0  2  0  0  0  0  0  0  0  0  0
    2.6760   19.1063   35.2632 O   0  0  0  0  0  0  0  0  0  0  0  0
    3.8607   15.4376   37.0513 C   0  0  2  0  0  0  0  0  0  0  0  0
    4.1706   14.4795   38.0576 N   0  0  0  0  0  0  0  0  0  0  0  0
    0.0652   14.7820   37.0413 C   0  0  2  0  0  0  0  0  0  0  0  0
    1.5841   20.9841   34.1630 C   0  0  2  0  0  0  0  0  0  0  0  0
    0.7667   20.0514   33.3946 N   0  0  0  0  0  0  0  0  0  0  0  0
    4.8004   16.7068   37.2655 C   0  0  0  0  0  0  0  0  0  0  0  0
   -0.2959   15.0952   38.5321 C   0  0  2  0  0  0  0  0  0  0  0  0
    0.3473   16.2934   38.9114 O   0  0  0  0  0  0  0  0  0  0  0  0
    2.8688   21.4071   33.3601 C   0  0  0  0  0  0  0  0  0  0  0  0
    4.4668   17.7654   36.1361 C   0  0  2  0  0  0  0  0  0  0  0  0
    5.3278   18.9357   36.3121 N   0  0  0  0  0  0  0  0  0  0  0  0
    0.1861   13.8944   39.4250 C   0  0  1  0  0  0  0  0  0  0  0  0
   -0.1336   14.1747   40.8615 N   0  0  0  0  0  0  0  0  0  0  0  0
    3.9873   22.0064   34.3117 C   0  0  0  0  0  0  0  0  0  0  0  0
    2.9459   18.1877   36.2612 C   0  0  2  0  0  0  0  0  0  0  0  0
   -0.5913   12.5448   38.9533 C   0  0  1  0  0  0  0  0  0  0  0  0
   -1.9964   12.6385   39.0803 O   0  0  0  0  0  0  0  0  0  0  0  0
    3.9036   21.8818   35.6586 C   0  0  1  0  0  0  0  0  0  0  0  0
    2.8280   21.2204   36.3187 O   0  0  0  0  0  0  0  0  0  0  0  0
    2.0204   16.9145   36.0708 C   0  0  2  0  0  0  0  0  0  0  0  0
    0.6383   17.3059   36.2009 O   0  0  0  0  0  0  0  0  0  0  0  0
   -0.2597   12.2611   37.4576 C   0  0  0  0  0  0  0  0  0  0  0  0
   -0.5894   13.4798   36.6131 O   0  0  0  0  0  0  0  0  0  0  0  0
    4.9502   22.4313   36.5982 C   0  0  0  0  0  0  0  0  0  0  0  0
    5.3871   21.3269   37.4193 O   0  0  0  0  0  0  0  0  0  0  0  0
    2.3594   15.8591   37.1917 C   0  0  1  0  0  0  0  0  0  0  0  0
    1.5320   14.7388   36.9989 O   0  0  0  0  0  0  0  0  0  0  0  0
   -0.2103   11.2823   39.7375 C   0  0  0  0  0  0  0  0  0  0  0  0
    0.9444   14.7898   41.6634 C   0  0  0  0  0  0  0  0  0  0  0  0
  1  2  1  6  0  0  0
  1  6  1  0  0  0  0
  1 21  1  0  0  0  0
  3  4  1  1  0  0  0
  3  8  1  0  0  0  0
  3 28  1  0  0  0  0
  5  9  1  0  0  0  0
  5 25  1  0  0  0  0
  5 29  1  1  0  0  0
  6  7  1  6  0  0  0
  6 11  1  0  0  0  0
  8 12  1  0  0  0  0
  9 10  1  1  0  0  0
  9 14  1  0  0  0  0
 11 16  1  0  0  0  0
 12 13  1  1  0  0  0
 12 17  1  0  0  0  0
 14 15  1  1  0  0  0
 14 18  1  0  0  0  0
 15 31  1  0  0  0  0
 16 20  1  0  0  0  0
 17  2  1  6  0  0  0
 17 22  1  0  0  0  0
 18 19  1  1  0  0  0
 18 24  1  0  0  0  0
 18 30  1  0  0  0  0
 20 21  1  0  0  0  0
 20 26  1  6  0  0  0
 22 23  1  1  0  0  0
 22 28  1  0  0  0  0
 24 25  1  0  0  0  0
 26 27  1  0  0  0  0
 28 29  1  6  0  0  0
M  END
>  <CHROM.1>
-168.66377849,-67.77574416,-94.41849665,-132.63275438,-125.01393799,-179.02252304
1.93154425,17.03455794,37.04790067,1.09172984,-0.51114334,-0.69036514

>  <Name>
ligand

>  <RI>
0

>  <Rbt.Current_Directory>
/home/itssahil/PROJECTS/Mol_Feturizer/New_Systems/rnas/4GPY

>  <Rbt.Executable>
rbdock ($Id: //depot/dev/client3/rdock/2013.1/src/exe/rbdock.cxx#4 $)

>  <Rbt.Library>
libRbt.so (2013.1, Build901 2013/11/27)

>  <Rbt.Parameter_File>
/export/apps/rDock/src/rDock_2013.1_src/data/scripts/dock_solv.prm

>  <Rbt.Receptor>
prm/pocket_docking_8.prm

>  <SCORE>
-9.54847

>  <SCORE.INTER>
-9.55534

>  <SCORE.INTER.CONST>
1

>  <SCORE.INTER.POLAR>
0

>  <SCORE.INTER.ROT>
6

>  <SCORE.INTER.SOLV>
15.5163

>  <SCORE.INTER.VDW>
-19.1423

>  <SCORE.INTER.norm>
-0.308237

>  <SCORE.INTRA>
0.0068696

>  <SCORE.INTRA.DIHEDRAL>
-4.88734

>  <SCORE.INTRA.DIHEDRAL.0>
14.7001

>  <SCORE.INTRA.POLAR>
0

>  <SCORE.INTRA.POLAR.0>
0

>  <SCORE.INTRA.REPUL>
0

>  <SCORE.INTRA.REPUL.0>
0

>  <SCORE.INTRA.SOLV>
2.22685

>  <SCORE.INTRA.SOLV.lig_0>
-65.3082

>  <SCORE.INTRA.VDW>
1.33712

>  <SCORE.INTRA.VDW.0>
-4.21408

>  <SCORE.INTRA.norm>
0.0002216

>  <SCORE.RESTR>
0

>  <SCORE.RESTR.CAVITY>
0

>  <SCORE.RESTR.norm>
0

>  <SCORE.SYSTEM>
0

>  <SCORE.SYSTEM.CONST>
0

>  <SCORE.SYSTEM.DIHEDRAL>
0

>  <SCORE.SYSTEM.SOLV>
0

>  <SCORE.SYSTEM.norm>
0

>  <SCORE.heavy>
31

>  <SCORE.norm>
-0.308015

>  <RMSD>
5.545

$$$$
ligand
 OpenBabel11021811493D
libRbt.so/2013.1/901 2013/11/27
 31 33  0  0  0  0  0  0  0  0999 V2000
   -3.0211   15.6077   41.8922 C   0  0  2  0  0  0  0  0  0  0  0  0
   -4.2195   14.8818   41.6966 O   0  0  0  0  0  0  0  0  0  0  0  0
   -2.9125   10.9454   42.6221 C   0  0  2  0  0  0  0  0  0  0  0  0
   -2.9658    9.5687   42.9810 N   0  0  0  0  0  0  0  0  0  0  0  0
   -3.7093   10.0788   38.9765 C   0  0  2  0  0  0  0  0  0  0  0  0
   -3.3559   17.1572   41.7695 C   0  0  2  0  0  0  0  0  0  0  0  0
   -4.3743   17.5063   42.7542 N   0  0  0  0  0  0  0  0  0  0  0  0
   -3.6082   11.7896   43.7810 C   0  0  0  0  0  0  0  0  0  0  0  0
   -3.0632    8.7245   38.5295 C   0  0  2  0  0  0  0  0  0  0  0  0
   -3.2514    7.7731   39.5555 O   0  0  0  0  0  0  0  0  0  0  0  0
   -3.8331   17.5059   40.3119 C   0  0  0  0  0  0  0  0  0  0  0  0
   -3.5342   13.3221   43.3891 C   0  0  2  0  0  0  0  0  0  0  0  0
   -4.1614   14.1143   44.4478 N   0  0  0  0  0  0  0  0  0  0  0  0
   -1.5326    8.9657   38.2638 C   0  0  1  0  0  0  0  0  0  0  0  0
   -0.8847    7.6803   37.8485 N   0  0  0  0  0  0  0  0  0  0  0  0
   -2.9976   16.7216   39.2152 C   0  0  0  0  0  0  0  0  0  0  0  0
   -4.3021   13.5400   42.0217 C   0  0  2  0  0  0  0  0  0  0  0  0
   -1.3734   10.0598   37.0698 C   0  0  1  0  0  0  0  0  0  0  0  0
   -1.9613    9.6449   35.8525 O   0  0  0  0  0  0  0  0  0  0  0  0
   -2.1878   15.6895   39.5551 C   0  0  1  0  0  0  0  0  0  0  0  0
   -2.0197   15.2340   40.8946 O   0  0  0  0  0  0  0  0  0  0  0  0
   -3.6175   12.6775   40.8810 C   0  0  2  0  0  0  0  0  0  0  0  0
   -4.3321   12.8709   39.6432 O   0  0  0  0  0  0  0  0  0  0  0  0
   -2.0534   11.3925   37.5046 C   0  0  0  0  0  0  0  0  0  0  0  0
   -3.4959   11.1327   37.9034 O   0  0  0  0  0  0  0  0  0  0  0  0
   -1.3819   14.9130   38.5412 C   0  0  0  0  0  0  0  0  0  0  0  0
   -0.0256   15.3996   38.6332 O   0  0  0  0  0  0  0  0  0  0  0  0
   -3.6858   11.1532   41.2768 C   0  0  1  0  0  0  0  0  0  0  0  0
   -3.0685   10.4104   40.2549 O   0  0  0  0  0  0  0  0  0  0  0  0
    0.0777   10.4018   36.7075 C   0  0  0  0  0  0  0  0  0  0  0  0
   -0.3947    6.8127   38.9397 C   0  0  0  0  0  0  0  0  0  0  0  0
  1  2  1  6  0  0  0
  1  6  1  0  0  0  0
  1 21  1  0  0  0  0
  3  4  1  1  0  0  0
  3  8  1  0  0  0  0
  3 28  1  0  0  0  0
  5  9  1  0  0  0  0
  5 25  1  0  0  0  0
  5 29  1  1  0  0  0
  6  7  1  1  0  0  0
  6 11  1  0  0  0  0
  8 12  1  0  0  0  0
  9 10  1  1  0  0  0
  9 14  1  0  0  0  0
 11 16  1  0  0  0  0
 12 13  1  1  0  0  0
 12 17  1  0  0  0  0
 14 15  1  6  0  0  0
 14 18  1  0  0  0  0
 15 31  1  0  0  0  0
 16 20  1  0  0  0  0
 17  2  1  6  0  0  0
 17 22  1  0  0  0  0
 18 19  1  6  0  0  0
 18 24  1  0  0  0  0
 18 30  1  0  0  0  0
 20 21  1  0  0  0  0
 20 26  1  6  0  0  0
 22 23  1  6  0  0  0
 22 28  1  0  0  0  0
 24 25  1  0  0  0  0
 26 27  1  0  0  0  0
 28 29  1  6  0  0  0
M  END
>  <CHROM.1>
-166.16562434,-150.86552112,-87.23003252,40.66939749,101.89893555,162.83470553
-2.73522496,12.35857571,40.07558656,2.09642605,1.15327365,-0.02789607

>  <Name>
ligand

>  <RI>
0

>  <Rbt.Current_Directory>
/home/itssahil/PROJECTS/Mol_Feturizer/New_Systems/rnas/4GPY

>  <Rbt.Executable>
rbdock ($Id: //depot/dev/client3/rdock/2013.1/src/exe/rbdock.cxx#4 $)

>  <Rbt.Library>
libRbt.so (2013.1, Build901 2013/11/27)

>  <Rbt.Parameter_File>
/export/apps/rDock/src/rDock_2013.1_src/data/scripts/dock_solv.prm

>  <Rbt.Receptor>
prm/pocket_docking_5.prm

>  <SCORE>
-11.1097

>  <SCORE.INTER>
-9.96385

>  <SCORE.INTER.CONST>
1

>  <SCORE.INTER.POLAR>
0

>  <SCORE.INTER.ROT>
6

>  <SCORE.INTER.SOLV>
14.4793

>  <SCORE.INTER.VDW>
-19.069

>  <SCORE.INTER.norm>
-0.321415

>  <SCORE.INTRA>
-1.14586

>  <SCORE.INTRA.DIHEDRAL>
-4.7103

>  <SCORE.INTRA.DIHEDRAL.0>
14.7001

>  <SCORE.INTRA.POLAR>
0

>  <SCORE.INTRA.POLAR.0>
0

>  <SCORE.INTRA.REPUL>
0

>  <SCORE.INTRA.REPUL.0>
0

>  <SCORE.INTRA.SOLV>
-0.198014

>  <SCORE.INTRA.SOLV.lig_0>
-65.3082

>  <SCORE.INTRA.VDW>
1.3083

>  <SCORE.INTRA.VDW.0>
-4.21408

>  <SCORE.INTRA.norm>
-0.0369632

>  <SCORE.RESTR>
0

>  <SCORE.RESTR.CAVITY>
0

>  <SCORE.RESTR.norm>
0

>  <SCORE.SYSTEM>
0

>  <SCORE.SYSTEM.CONST>
0

>  <SCORE.SYSTEM.DIHEDRAL>
0

>  <SCORE.SYSTEM.SOLV>
0

>  <SCORE.SYSTEM.norm>
0

>  <SCORE.heavy>
31

>  <SCORE.norm>
-0.358378

>  <RMSD>
5.549

$$$$
ligand
 OpenBabel11021811493D
libRbt.so/2013.1/901 2013/11/27
 31 33  0  0  0  0  0  0  0  0999 V2000
   -1.1328   15.0306   41.1473 C   0  0  2  0  0  0  0  0  0  0  0  0
   -1.3949   14.2705   42.3113 O   0  0  0  0  0  0  0  0  0  0  0  0
   -2.6623   10.2368   42.7394 C   0  0  2  0  0  0  0  0  0  0  0  0
   -3.5123    9.0948   42.7343 N   0  0  0  0  0  0  0  0  0  0  0  0
   -2.8086    8.9378   39.5986 C   0  0  2  0  0  0  0  0  0  0  0  0
   -0.1522   16.2181   41.5425 C   0  0  2  0  0  0  0  0  0  0  0  0
    1.0669   15.6606   42.1184 N   0  0  0  0  0  0  0  0  0  0  0  0
   -3.2920   11.3223   43.7216 C   0  0  0  0  0  0  0  0  0  0  0  0
   -1.7577    8.1202   38.7749 C   0  0  2  0  0  0  0  0  0  0  0  0
   -0.8617    7.5006   39.6729 O   0  0  0  0  0  0  0  0  0  0  0  0
   -0.8546   17.2040   42.5469 C   0  0  0  0  0  0  0  0  0  0  0  0
   -2.3377   12.5858   43.7396 C   0  0  2  0  0  0  0  0  0  0  0  0
   -2.8966   13.5909   44.6446 N   0  0  0  0  0  0  0  0  0  0  0  0
   -0.9969    9.1078   37.8172 C   0  0  1  0  0  0  0  0  0  0  0  0
    0.0277    8.3534   37.0262 N   0  0  0  0  0  0  0  0  0  0  0  0
   -2.3775   17.4407   42.1718 C   0  0  0  0  0  0  0  0  0  0  0  0
   -2.2364   13.1736   42.2728 C   0  0  2  0  0  0  0  0  0  0  0  0
   -2.0717    9.7848   36.8001 C   0  0  1  0  0  0  0  0  0  0  0  0
   -2.7476    8.8396   35.9945 O   0  0  0  0  0  0  0  0  0  0  0  0
   -3.0085   16.6525   41.2678 C   0  0  1  0  0  0  0  0  0  0  0  0
   -2.3720   15.5719   40.5915 O   0  0  0  0  0  0  0  0  0  0  0  0
   -1.6316   12.0784   41.2989 C   0  0  2  0  0  0  0  0  0  0  0  0
   -1.5568   12.6174   39.9631 O   0  0  0  0  0  0  0  0  0  0  0  0
   -3.1375   10.5634   37.6280 C   0  0  0  0  0  0  0  0  0  0  0  0
   -3.7701    9.6417   38.6564 O   0  0  0  0  0  0  0  0  0  0  0  0
   -4.4581   16.8401   40.8888 C   0  0  0  0  0  0  0  0  0  0  0  0
   -5.1463   15.6336   41.2831 O   0  0  0  0  0  0  0  0  0  0  0  0
   -2.5794   10.8188   41.2883 C   0  0  1  0  0  0  0  0  0  0  0  0
   -2.0203    9.8610   40.4241 O   0  0  0  0  0  0  0  0  0  0  0  0
   -1.4669   10.7852   35.8065 C   0  0  0  0  0  0  0  0  0  0  0  0
    1.4411    8.6172   37.3668 C   0  0  0  0  0  0  0  0  0  0  0  0
  1  2  1  1  0  0  0
  1  6  1  0  0  0  0
  1 21  1  0  0  0  0
  3  4  1  6  0  0  0
  3  8  1  0  0  0  0
  3 28  1  0  0  0  0
  5  9  1  0  0  0  0
  5 25  1  0  0  0  0
  5 29  1  6  0  0  0
  6  7  1  1  0  0  0
  6 11  1  0  0  0  0
  8 12  1  0  0  0  0
  9 10  1  1  0  0  0
  9 14  1  0  0  0  0
 11 16  1  0  0  0  0
 12 13  1  1  0  0  0
 12 17  1  0  0  0  0
 14 15  1  6  0  0  0
 14 18  1  0  0  0  0
 15 31  1  0  0  0  0
 16 20  1  0  0  0  0
 17  2  1  1  0  0  0
 17 22  1  0  0  0  0
 18 19  1  6  0  0  0
 18 24  1  0  0  0  0
 18 30  1  0  0  0  0
 20 21  1  0  0  0  0
 20 26  1  1  0  0  0
 22 23  1  6  0  0  0
 22 28  1  0  0  0  0
 24 25  1  0  0  0  0
 26 27  1  0  0  0  0
 28 29  1  6  0  0  0
M  END
>  <CHROM.1>
179.24117159,177.66518757,-109.78597011,-178.47695354,-117.43770730,95.13423352
-2.03216563,12.12079014,40.40912736,-1.86753542,-1.28059070,-2.87753771

>  <Name>
ligand

>  <RI>
0

>  <Rbt.Current_Directory>
/home/itssahil/PROJECTS/Mol_Feturizer/New_Systems/rnas/4GPY

>  <Rbt.Executable>
rbdock ($Id: //depot/dev/client3/rdock/2013.1/src/exe/rbdock.cxx#4 $)

>  <Rbt.Library>
libRbt.so (2013.1, Build901 2013/11/27)

>  <Rbt.Parameter_File>
/export/apps/rDock/src/rDock_2013.1_src/data/scripts/dock_solv.prm

>  <Rbt.Receptor>
prm/pocket_docking_8.prm

>  <SCORE>
-9.04662

>  <SCORE.INTER>
-5.13433

>  <SCORE.INTER.CONST>
1

>  <SCORE.INTER.POLAR>
0

>  <SCORE.INTER.ROT>
6

>  <SCORE.INTER.SOLV>
12.7351

>  <SCORE.INTER.VDW>
-15.2679

>  <SCORE.INTER.norm>
-0.165624

>  <SCORE.INTRA>
-3.91229

>  <SCORE.INTRA.DIHEDRAL>
-7.29745

>  <SCORE.INTRA.DIHEDRAL.0>
14.7001

>  <SCORE.INTRA.POLAR>
0

>  <SCORE.INTRA.POLAR.0>
0

>  <SCORE.INTRA.REPUL>
0

>  <SCORE.INTRA.REPUL.0>
0

>  <SCORE.INTRA.SOLV>
-2.02006

>  <SCORE.INTRA.SOLV.lig_0>
-65.3082

>  <SCORE.INTRA.VDW>
0.746465

>  <SCORE.INTRA.VDW.0>
-4.21408

>  <SCORE.INTRA.norm>
-0.126203

>  <SCORE.RESTR>
0

>  <SCORE.RESTR.CAVITY>
0

>  <SCORE.RESTR.norm>
0

>  <SCORE.SYSTEM>
0

>  <SCORE.SYSTEM.CONST>
0

>  <SCORE.SYSTEM.DIHEDRAL>
0

>  <SCORE.SYSTEM.SOLV>
0

>  <SCORE.SYSTEM.norm>
0

>  <SCORE.heavy>
31

>  <SCORE.norm>
-0.291826

>  <RMSD>
5.623

$$$$
ligand
 OpenBabel11021811493D
libRbt.so/2013.1/901 2013/11/27
 31 33  0  0  0  0  0  0  0  0999 V2000
   -3.5584   15.6402   41.6116 C   0  0  2  0  0  0  0  0  0  0  0  0
   -4.5286   14.8147   40.9965 O   0  0  0  0  0  0  0  0  0  0  0  0
   -2.8169   11.0002   41.7574 C   0  0  2  0  0  0  0  0  0  0  0  0
   -2.6782    9.5844   41.8152 N   0  0  0  0  0  0  0  0  0  0  0  0
   -1.7179   11.1248   38.0773 C   0  0  2  0  0  0  0  0  0  0  0  0
   -4.1404   17.1181   41.6838 C   0  0  2  0  0  0  0  0  0  0  0  0
   -5.3960   17.1023   42.4265 N   0  0  0  0  0  0  0  0  0  0  0  0
   -4.1212   11.4068   42.5778 C   0  0  0  0  0  0  0  0  0  0  0  0
   -1.9179    9.6454   37.6054 C   0  0  2  0  0  0  0  0  0  0  0  0
   -3.1517    9.1742   38.1043 O   0  0  0  0  0  0  0  0  0  0  0  0
   -4.3439   17.7032   40.2380 C   0  0  0  0  0  0  0  0  0  0  0  0
   -4.2660   12.9829   42.5270 C   0  0  2  0  0  0  0  0  0  0  0  0
   -5.4554   13.3757   43.2838 N   0  0  0  0  0  0  0  0  0  0  0  0
   -0.7252    8.7810   38.1549 C   0  0  1  0  0  0  0  0  0  0  0  0
   -0.8993    7.3548   37.7305 N   0  0  0  0  0  0  0  0  0  0  0  0
   -3.1581   17.2970   39.2660 C   0  0  0  0  0  0  0  0  0  0  0  0
   -4.4098   13.4370   41.0170 C   0  0  2  0  0  0  0  0  0  0  0  0
    0.6674    9.3592   37.5430 C   0  0  1  0  0  0  0  0  0  0  0  0
    0.7168    9.3122   36.1306 O   0  0  0  0  0  0  0  0  0  0  0  0
   -2.2646   16.3383   39.6111 C   0  0  1  0  0  0  0  0  0  0  0  0
   -2.3116   15.6326   40.8480 O   0  0  0  0  0  0  0  0  0  0  0  0
   -3.1184   13.0065   40.2042 C   0  0  2  0  0  0  0  0  0  0  0  0
   -3.2646   13.4110   38.8275 O   0  0  0  0  0  0  0  0  0  0  0  0
    0.8407   10.8439   37.9828 C   0  0  0  0  0  0  0  0  0  0  0  0
   -0.3820   11.6501   37.5801 O   0  0  0  0  0  0  0  0  0  0  0  0
   -1.1267   15.9178   38.7119 C   0  0  0  0  0  0  0  0  0  0  0  0
    0.0891   16.1204   39.4640 O   0  0  0  0  0  0  0  0  0  0  0  0
   -2.9722   11.4380   40.2623 C   0  0  1  0  0  0  0  0  0  0  0  0
   -1.8191   11.0815   39.5411 O   0  0  0  0  0  0  0  0  0  0  0  0
    1.9255    8.6121   38.0042 C   0  0  0  0  0  0  0  0  0  0  0  0
   -0.6239    6.3287   38.7575 C   0  0  0  0  0  0  0  0  0  0  0  0
  1  2  1  6  0  0  0
  1  6  1  0  0  0  0
  1 21  1  0  0  0  0
  3  4  1  6  0  0  0
  3  8  1  0  0  0  0
  3 28  1  0  0  0  0
  5  9  1  0  0  0  0
  5 25  1  0  0  0  0
  5 29  1  1  0  0  0
  6  7  1  6  0  0  0
  6 11  1  0  0  0  0
  8 12  1  0  0  0  0
  9 10  1  1  0  0  0
  9 14  1  0  0  0  0
 11 16  1  0  0  0  0
 12 13  1  1  0  0  0
 12 17  1  0  0  0  0
 14 15  1  6  0  0  0
 14 18  1  0  0  0  0
 15 31  1  0  0  0  0
 16 20  1  0  0  0  0
 17  2  1  1  0  0  0
 17 22  1  0  0  0  0
 18 19  1  6  0  0  0
 18 24  1  0  0  0  0
 18 30  1  0  0  0  0
 20 21  1  0  0  0  0
 20 26  1  6  0  0  0
 22 23  1  6  0  0  0
 22 28  1  0  0  0  0
 24 25  1  0  0  0  0
 26 27  1  0  0  0  0
 28 29  1  6  0  0  0
M  END
>  <CHROM.1>
-167.97041677,-100.20528478,-136.96473103,54.92917454,122.59949607,168.72380226
-2.25599332,12.46102825,39.71518295,2.17350010,0.77506160,-0.03624765

>  <Name>
ligand

>  <RI>
0

>  <Rbt.Current_Directory>
/home/itssahil/PROJECTS/Mol_Feturizer/New_Systems/rnas/4GPY

>  <Rbt.Executable>
rbdock ($Id: //depot/dev/client3/rdock/2013.1/src/exe/rbdock.cxx#4 $)

>  <Rbt.Library>
libRbt.so (2013.1, Build901 2013/11/27)

>  <Rbt.Parameter_File>
/export/apps/rDock/src/rDock_2013.1_src/data/scripts/dock_solv.prm

>  <Rbt.Receptor>
prm/pocket_docking_5.prm

>  <SCORE>
-7.04684

>  <SCORE.INTER>
-5.51136

>  <SCORE.INTER.CONST>
1

>  <SCORE.INTER.POLAR>
0

>  <SCORE.INTER.ROT>
6

>  <SCORE.INTER.SOLV>
12.117

>  <SCORE.INTER.VDW>
-15.3132

>  <SCORE.INTER.norm>
-0.177786

>  <SCORE.INTRA>
-1.53548

>  <SCORE.INTRA.DIHEDRAL>
-5.16468

>  <SCORE.INTRA.DIHEDRAL.0>
14.7001

>  <SCORE.INTRA.POLAR>
0

>  <SCORE.INTRA.POLAR.0>
0

>  <SCORE.INTRA.REPUL>
0

>  <SCORE.INTRA.REPUL.0>
0

>  <SCORE.INTRA.SOLV>
-0.052857

>  <SCORE.INTRA.SOLV.lig_0>
-65.3082

>  <SCORE.INTRA.VDW>
1.07329

>  <SCORE.INTRA.VDW.0>
-4.21408

>  <SCORE.INTRA.norm>
-0.0495315

>  <SCORE.RESTR>
0

>  <SCORE.RESTR.CAVITY>
0

>  <SCORE.RESTR.norm>
0

>  <SCORE.SYSTEM>
0

>  <SCORE.SYSTEM.CONST>
0

>  <SCORE.SYSTEM.DIHEDRAL>
0

>  <SCORE.SYSTEM.SOLV>
0

>  <SCORE.SYSTEM.norm>
0

>  <SCORE.heavy>
31

>  <SCORE.norm>
-0.227317

>  <RMSD>
5.651

$$$$
ligand
 OpenBabel11021811493D
libRbt.so/2013.1/901 2013/11/27
 31 33  0  0  0  0  0  0  0  0999 V2000
    1.0763   18.3814   36.8649 C   0  0  2  0  0  0  0  0  0  0  0  0
    0.2765   17.2939   36.4419 O   0  0  0  0  0  0  0  0  0  0  0  0
    1.0628   14.4125   39.4650 C   0  0  2  0  0  0  0  0  0  0  0  0
    0.8726   13.3025   40.3360 N   0  0  0  0  0  0  0  0  0  0  0  0
    3.4888   13.3234   37.9029 C   0  0  2  0  0  0  0  0  0  0  0  0
    1.3622   19.3054   35.6029 C   0  0  2  0  0  0  0  0  0  0  0  0
    0.0926   19.7474   35.0359 N   0  0  0  0  0  0  0  0  0  0  0  0
   -0.1178   15.4525   39.7182 C   0  0  0  0  0  0  0  0  0  0  0  0
    4.2123   12.5203   36.7704 C   0  0  2  0  0  0  0  0  0  0  0  0
    3.6410   12.8743   35.5288 O   0  0  0  0  0  0  0  0  0  0  0  0
    2.2217   18.5330   34.5358 C   0  0  0  0  0  0  0  0  0  0  0  0
    0.1034   16.6944   38.7609 C   0  0  2  0  0  0  0  0  0  0  0  0
   -0.9682   17.6652   38.9863 N   0  0  0  0  0  0  0  0  0  0  0  0
    4.0295   10.9846   37.0531 C   0  0  1  0  0  0  0  0  0  0  0  0
    4.7003   10.1905   35.9743 N   0  0  0  0  0  0  0  0  0  0  0  0
    3.3443   17.6427   35.2164 C   0  0  0  0  0  0  0  0  0  0  0  0
    0.0758   16.1957   37.2583 C   0  0  2  0  0  0  0  0  0  0  0  0
    4.7124   10.6302   38.4870 C   0  0  1  0  0  0  0  0  0  0  0  0
    6.0970   10.9137   38.5295 O   0  0  0  0  0  0  0  0  0  0  0  0
    3.3333   17.3970   36.5491 C   0  0  1  0  0  0  0  0  0  0  0  0
    2.3381   17.9077   37.4316 O   0  0  0  0  0  0  0  0  0  0  0  0
    1.2384   15.1437   37.0230 C   0  0  2  0  0  0  0  0  0  0  0  0
    1.1963   14.6843   35.6564 O   0  0  0  0  0  0  0  0  0  0  0  0
    4.0149   11.4626   39.6042 C   0  0  0  0  0  0  0  0  0  0  0  0
    4.0626   12.9404   39.2562 O   0  0  0  0  0  0  0  0  0  0  0  0
    4.3787   16.5493   37.2339 C   0  0  0  0  0  0  0  0  0  0  0  0
    5.1694   17.4453   38.0443 O   0  0  0  0  0  0  0  0  0  0  0  0
    1.0202   13.9119   37.9822 C   0  0  1  0  0  0  0  0  0  0  0  0
    2.0646   12.9971   37.7599 O   0  0  0  0  0  0  0  0  0  0  0  0
    4.6013    9.1566   38.8994 C   0  0  0  0  0  0  0  0  0  0  0  0
    3.9793    8.9906   35.5011 C   0  0  0  0  0  0  0  0  0  0  0  0
  1  2  1  6  0  0  0
  1  6  1  0  0  0  0
  1 21  1  0  0  0  0
  3  4  1  1  0  0  0
  3  8  1  0  0  0  0
  3 28  1  0  0  0  0
  5  9  1  0  0  0  0
  5 25  1  0  0  0  0
  5 29  1  1  0  0  0
  6  7  1  6  0  0  0
  6 11  1  0  0  0  0
  8 12  1  0  0  0  0
  9 10  1  6  0  0  0
  9 14  1  0  0  0  0
 11 16  1  0  0  0  0
 12 13  1  6  0  0  0
 12 17  1  0  0  0  0
 14 15  1  6  0  0  0
 14 18  1  0  0  0  0
 15 31  1  0  0  0  0
 16 20  1  0  0  0  0
 17  2  1  6  0  0  0
 17 22  1  0  0  0  0
 18 19  1  6  0  0  0
 18 24  1  0  0  0  0
 18 30  1  0  0  0  0
 20 21  1  0  0  0  0
 20 26  1  6  0  0  0
 22 23  1  6  0  0  0
 22 28  1  0  0  0  0
 24 25  1  0  0  0  0
 26 27  1  0  0  0  0
 28 29  1  1  0  0  0
M  END
>  <CHROM.1>
167.73647944,-143.66710432,-139.63773036,31.58092803,110.37365050,-60.91561171
2.54072936,14.64174248,37.39228401,-2.12332848,-0.71111207,2.60363325

>  <Name>
ligand

>  <RI>
0

>  <Rbt.Current_Directory>
/home/itssahil/PROJECTS/Mol_Feturizer/New_Systems/rnas/4GPY

>  <Rbt.Executable>
rbdock ($Id: //depot/dev/client3/rdock/2013.1/src/exe/rbdock.cxx#4 $)

>  <Rbt.Library>
libRbt.so (2013.1, Build901 2013/11/27)

>  <Rbt.Parameter_File>
/export/apps/rDock/src/rDock_2013.1_src/data/scripts/dock_solv.prm

>  <Rbt.Receptor>
prm/blind_docking_80.prm

>  <SCORE>
5.62402

>  <SCORE.INTER>
0.370035

>  <SCORE.INTER.CONST>
1

>  <SCORE.INTER.POLAR>
0

>  <SCORE.INTER.ROT>
6

>  <SCORE.INTER.SOLV>
21.3622

>  <SCORE.INTER.VDW>
-14.4741

>  <SCORE.INTER.norm>
0.0119366

>  <SCORE.INTRA>
0.218482

>  <SCORE.INTRA.DIHEDRAL>
-3.18791

>  <SCORE.INTRA.DIHEDRAL.0>
14.7001

>  <SCORE.INTRA.POLAR>
0

>  <SCORE.INTRA.POLAR.0>
0

>  <SCORE.INTRA.REPUL>
0

>  <SCORE.INTRA.REPUL.0>
0

>  <SCORE.INTRA.SOLV>
0.666877

>  <SCORE.INTRA.SOLV.lig_0>
-65.3082

>  <SCORE.INTRA.VDW>
1.479

>  <SCORE.INTRA.VDW.0>
-4.21408

>  <SCORE.INTRA.norm>
0.0070478

>  <SCORE.RESTR>
5.03551

>  <SCORE.RESTR.CAVITY>
5.03551

>  <SCORE.RESTR.norm>
0.162436

>  <SCORE.SYSTEM>
0

>  <SCORE.SYSTEM.CONST>
0

>  <SCORE.SYSTEM.DIHEDRAL>
0

>  <SCORE.SYSTEM.SOLV>
0

>  <SCORE.SYSTEM.norm>
0

>  <SCORE.heavy>
31

>  <SCORE.norm>
0.18142

>  <RMSD>
5.659

$$$$
ligand
 OpenBabel11021811493D
libRbt.so/2013.1/901 2013/11/27
 31 33  0  0  0  0  0  0  0  0999 V2000
    2.9033   12.1156   36.2091 C   0  0  2  0  0  0  0  0  0  0  0  0
    2.3624   11.1708   37.1125 O   0  0  0  0  0  0  0  0  0  0  0  0
   -1.0535   13.3156   38.4510 C   0  0  2  0  0  0  0  0  0  0  0  0
   -2.2906   13.5892   39.1002 N   0  0  0  0  0  0  0  0  0  0  0  0
   -0.7364   14.3359   41.4834 C   0  0  2  0  0  0  0  0  0  0  0  0
    4.1836   11.4680   35.5239 C   0  0  2  0  0  0  0  0  0  0  0  0
    3.7945   10.2313   34.8548 N   0  0  0  0  0  0  0  0  0  0  0  0
   -1.2828   12.1163   37.4270 C   0  0  0  0  0  0  0  0  0  0  0  0
   -0.1243   15.6121   42.1526 C   0  0  2  0  0  0  0  0  0  0  0  0
    0.0769   16.5928   41.1571 O   0  0  0  0  0  0  0  0  0  0  0  0
    5.3086   11.2056   36.5914 C   0  0  0  0  0  0  0  0  0  0  0  0
    0.0896   11.8232   36.6933 C   0  0  2  0  0  0  0  0  0  0  0  0
   -0.1045   10.7288   35.7412 N   0  0  0  0  0  0  0  0  0  0  0  0
    1.2375   15.2153   42.8306 C   0  0  1  0  0  0  0  0  0  0  0  0
    1.8542   16.4233   43.4670 N   0  0  0  0  0  0  0  0  0  0  0  0
    5.4074   12.3868   37.6454 C   0  0  0  0  0  0  0  0  0  0  0  0
    1.1728   11.4158   37.7740 C   0  0  2  0  0  0  0  0  0  0  0  0
    0.9475   14.0931   43.9729 C   0  0  1  0  0  0  0  0  0  0  0  0
    0.0764   14.5465   44.9902 O   0  0  0  0  0  0  0  0  0  0  0  0
    4.4393   13.3309   37.7346 C   0  0  1  0  0  0  0  0  0  0  0  0
    3.2795   13.3440   36.9070 O   0  0  0  0  0  0  0  0  0  0  0  0
    1.3759   12.6057   38.8019 C   0  0  2  0  0  0  0  0  0  0  0  0
    2.3529   12.2203   39.7904 O   0  0  0  0  0  0  0  0  0  0  0  0
    0.3015   12.8416   43.3065 C   0  0  0  0  0  0  0  0  0  0  0  0
   -0.9364   13.2502   42.5268 O   0  0  0  0  0  0  0  0  0  0  0  0
    4.4922   14.4665   38.7284 C   0  0  0  0  0  0  0  0  0  0  0  0
    4.5575   15.6857   37.9576 O   0  0  0  0  0  0  0  0  0  0  0  0
    0.0069   12.9005   39.5256 C   0  0  1  0  0  0  0  0  0  0  0  0
    0.2103   13.9611   40.4260 O   0  0  0  0  0  0  0  0  0  0  0  0
    2.1966   13.6025   44.7164 C   0  0  0  0  0  0  0  0  0  0  0  0
    3.1908   16.8128   42.9718 C   0  0  0  0  0  0  0  0  0  0  0  0
  1  2  1  1  0  0  0
  1  6  1  0  0  0  0
  1 21  1  0  0  0  0
  3  4  1  1  0  0  0
  3  8  1  0  0  0  0
  3 28  1  0  0  0  0
  5  9  1  0  0  0  0
  5 25  1  0  0  0  0
  5 29  1  6  0  0  0
  6  7  1  1  0  0  0
  6 11  1  0  0  0  0
  8 12  1  0  0  0  0
  9 10  1  6  0  0  0
  9 14  1  0  0  0  0
 11 16  1  0  0  0  0
 12 13  1  6  0  0  0
 12 17  1  0  0  0  0
 14 15  1  1  0  0  0
 14 18  1  0  0  0  0
 15 31  1  0  0  0  0
 16 20  1  0  0  0  0
 17  2  1  6  0  0  0
 17 22  1  0  0  0  0
 18 19  1  1  0  0  0
 18 24  1  0  0  0  0
 18 30  1  0  0  0  0
 20 21  1  0  0  0  0
 20 26  1  1  0  0  0
 22 23  1  1  0  0  0
 22 28  1  0  0  0  0
 24 25  1  0  0  0  0
 26 27  1  0  0  0  0
 28 29  1  1  0  0  0
M  END
>  <CHROM.1>
-174.52914211,-176.45846086,-120.10797927,51.73544034,117.04067428,75.18846066
1.60397970,13.36515919,39.60436760,-1.24298676,0.21774406,1.06826220

>  <Name>
ligand

>  <RI>
0

>  <Rbt.Current_Directory>
/home/itssahil/PROJECTS/Mol_Feturizer/New_Systems/rnas/4GPY

>  <Rbt.Executable>
rbdock ($Id: //depot/dev/client3/rdock/2013.1/src/exe/rbdock.cxx#4 $)

>  <Rbt.Library>
libRbt.so (2013.1, Build901 2013/11/27)

>  <Rbt.Parameter_File>
/export/apps/rDock/src/rDock_2013.1_src/data/scripts/dock_solv.prm

>  <Rbt.Receptor>
prm/pocket_docking_7.prm

>  <SCORE>
-4.27581

>  <SCORE.INTER>
-0.014427

>  <SCORE.INTER.CONST>
1

>  <SCORE.INTER.POLAR>
0

>  <SCORE.INTER.ROT>
6

>  <SCORE.INTER.SOLV>
8.6378

>  <SCORE.INTER.VDW>
-10.4889

>  <SCORE.INTER.norm>
-0.000465386

>  <SCORE.INTRA>
-4.26139

>  <SCORE.INTRA.DIHEDRAL>
-10.1816

>  <SCORE.INTRA.DIHEDRAL.0>
14.7001

>  <SCORE.INTRA.POLAR>
0

>  <SCORE.INTRA.POLAR.0>
0

>  <SCORE.INTRA.REPUL>
0

>  <SCORE.INTRA.REPUL.0>
0

>  <SCORE.INTRA.SOLV>
-0.158695

>  <SCORE.INTRA.SOLV.lig_0>
-65.3082

>  <SCORE.INTRA.VDW>
0.908764

>  <SCORE.INTRA.VDW.0>
-4.21408

>  <SCORE.INTRA.norm>
-0.137464

>  <SCORE.RESTR>
0

>  <SCORE.RESTR.CAVITY>
0

>  <SCORE.RESTR.norm>
0

>  <SCORE.SYSTEM>
0

>  <SCORE.SYSTEM.CONST>
0

>  <SCORE.SYSTEM.DIHEDRAL>
0

>  <SCORE.SYSTEM.SOLV>
0

>  <SCORE.SYSTEM.norm>
0

>  <SCORE.heavy>
31

>  <SCORE.norm>
-0.13793

>  <RMSD>
5.734

$$$$
ligand
 OpenBabel11021811493D
libRbt.so/2013.1/901 2013/11/27
 31 33  0  0  0  0  0  0  0  0999 V2000
    3.1935   20.0093   35.0709 C   0  0  2  0  0  0  0  0  0  0  0  0
    2.7912   19.6711   36.3843 O   0  0  0  0  0  0  0  0  0  0  0  0
    0.8869   15.8823   36.1043 C   0  0  2  0  0  0  0  0  0  0  0  0
    0.5401   14.5348   36.4055 N   0  0  0  0  0  0  0  0  0  0  0  0
   -1.5262   15.7498   38.4188 C   0  0  2  0  0  0  0  0  0  0  0  0
    3.7641   21.4932   35.0950 C   0  0  2  0  0  0  0  0  0  0  0  0
    4.8714   21.5648   36.0423 N   0  0  0  0  0  0  0  0  0  0  0  0
    2.4578   15.9460   35.8435 C   0  0  0  0  0  0  0  0  0  0  0  0
   -1.7816   16.4959   39.7714 C   0  0  2  0  0  0  0  0  0  0  0  0
   -2.5407   17.6574   39.5110 O   0  0  0  0  0  0  0  0  0  0  0  0
    2.6294   22.5157   35.4705 C   0  0  0  0  0  0  0  0  0  0  0  0
    2.8405   17.4420   35.4925 C   0  0  2  0  0  0  0  0  0  0  0  0
    4.2802   17.5178   35.2409 N   0  0  0  0  0  0  0  0  0  0  0  0
   -0.3921   16.8661   40.4069 C   0  0  1  0  0  0  0  0  0  0  0  0
   -0.6070   17.5962   41.6974 N   0  0  0  0  0  0  0  0  0  0  0  0
    1.2487   22.1409   34.7856 C   0  0  0  0  0  0  0  0  0  0  0  0
    2.4542   18.3712   36.7149 C   0  0  2  0  0  0  0  0  0  0  0  0
    0.4353   15.4948   40.6947 C   0  0  1  0  0  0  0  0  0  0  0  0
   -0.2275   14.6218   41.5880 O   0  0  0  0  0  0  0  0  0  0  0  0
    1.0612   20.9340   34.1983 C   0  0  1  0  0  0  0  0  0  0  0  0
    2.0653   19.9245   34.1449 O   0  0  0  0  0  0  0  0  0  0  0  0
    0.8938   18.2821   36.9817 C   0  0  2  0  0  0  0  0  0  0  0  0
    0.5536   19.1199   38.1054 O   0  0  0  0  0  0  0  0  0  0  0  0
    0.6511   14.7371   39.3505 C   0  0  0  0  0  0  0  0  0  0  0  0
   -0.6843   14.5092   38.6635 O   0  0  0  0  0  0  0  0  0  0  0  0
   -0.2394   20.5360   33.5423 C   0  0  0  0  0  0  0  0  0  0  0  0
    0.0997   20.0104   32.2409 O   0  0  0  0  0  0  0  0  0  0  0  0
    0.5141   16.7909   37.3236 C   0  0  1  0  0  0  0  0  0  0  0  0
   -0.8726   16.7360   37.5498 O   0  0  0  0  0  0  0  0  0  0  0  0
    1.8243   15.7055   41.3111 C   0  0  0  0  0  0  0  0  0  0  0  0
   -1.3158   16.8524   42.7593 C   0  0  0  0  0  0  0  0  0  0  0  0
  1  2  1  1  0  0  0
  1  6  1  0  0  0  0
  1 21  1  0  0  0  0
  3  4  1  1  0  0  0
  3  8  1  0  0  0  0
  3 28  1  0  0  0  0
  5  9  1  0  0  0  0
  5 25  1  0  0  0  0
  5 29  1  6  0  0  0
  6  7  1  1  0  0  0
  6 11  1  0  0  0  0
  8 12  1  0  0  0  0
  9 10  1  6  0  0  0
  9 14  1  0  0  0  0
 11 16  1  0  0  0  0
 12 13  1  1  0  0  0
 12 17  1  0  0  0  0
 14 15  1  1  0  0  0
 14 18  1  0  0  0  0
 15 31  1  0  0  0  0
 16 20  1  0  0  0  0
 17  2  1  6  0  0  0
 17 22  1  0  0  0  0
 18 19  1  1  0  0  0
 18 24  1  0  0  0  0
 18 30  1  0  0  0  0
 20 21  1  0  0  0  0
 20 26  1  1  0  0  0
 22 23  1  1  0  0  0
 22 28  1  0  0  0  0
 24 25  1  0  0  0  0
 26 27  1  0  0  0  0
 28 29  1  6  0  0  0
M  END
>  <CHROM.1>
-169.51731651,99.61222149,61.66638674,9.21332624,130.93071151,89.11601839
0.93016651,17.92193185,37.33547323,0.41509053,1.17369253,0.24183515

>  <Name>
ligand

>  <RI>
0

>  <Rbt.Current_Directory>
/home/itssahil/PROJECTS/Mol_Feturizer/New_Systems/rnas/4GPY

>  <Rbt.Executable>
rbdock ($Id: //depot/dev/client3/rdock/2013.1/src/exe/rbdock.cxx#4 $)

>  <Rbt.Library>
libRbt.so (2013.1, Build901 2013/11/27)

>  <Rbt.Parameter_File>
/export/apps/rDock/src/rDock_2013.1_src/data/scripts/dock_solv.prm

>  <Rbt.Receptor>
prm/blind_docking_60.prm

>  <SCORE>
44.622

>  <SCORE.INTER>
15.6695

>  <SCORE.INTER.CONST>
1

>  <SCORE.INTER.POLAR>
0

>  <SCORE.INTER.ROT>
6

>  <SCORE.INTER.SOLV>
24.1657

>  <SCORE.INTER.VDW>
-5.20894

>  <SCORE.INTER.norm>
0.505467

>  <SCORE.INTRA>
10.0508

>  <SCORE.INTRA.DIHEDRAL>
3.22358

>  <SCORE.INTRA.DIHEDRAL.0>
14.7001

>  <SCORE.INTRA.POLAR>
0

>  <SCORE.INTRA.POLAR.0>
0

>  <SCORE.INTRA.REPUL>
0

>  <SCORE.INTRA.REPUL.0>
0

>  <SCORE.INTRA.SOLV>
2.47202

>  <SCORE.INTRA.SOLV.lig_0>
-65.3082

>  <SCORE.INTRA.VDW>
7.20295

>  <SCORE.INTRA.VDW.0>
-4.21408

>  <SCORE.INTRA.norm>
0.324218

>  <SCORE.RESTR>
18.9018

>  <SCORE.RESTR.CAVITY>
18.9018

>  <SCORE.RESTR.norm>
0.609736

>  <SCORE.SYSTEM>
0

>  <SCORE.SYSTEM.CONST>
0

>  <SCORE.SYSTEM.DIHEDRAL>
0

>  <SCORE.SYSTEM.SOLV>
0

>  <SCORE.SYSTEM.norm>
0

>  <SCORE.heavy>
31

>  <SCORE.norm>
1.43942

>  <RMSD>
5.752

$$$$
ligand
 OpenBabel11021811493D
libRbt.so/2013.1/901 2013/11/27
 31 33  0  0  0  0  0  0  0  0999 V2000
   -3.4347   15.4991   41.5157 C   0  0  2  0  0  0  0  0  0  0  0  0
   -4.3890   14.7216   40.8184 O   0  0  0  0  0  0  0  0  0  0  0  0
   -2.8837   10.8230   41.5897 C   0  0  2  0  0  0  0  0  0  0  0  0
   -2.8302    9.4028   41.6729 N   0  0  0  0  0  0  0  0  0  0  0  0
   -1.7163    9.3906   39.0111 C   0  0  2  0  0  0  0  0  0  0  0  0
   -3.8146   17.0318   41.3300 C   0  0  2  0  0  0  0  0  0  0  0  0
   -5.1688   17.2528   41.8259 N   0  0  0  0  0  0  0  0  0  0  0  0
   -4.1230   11.3264   42.4559 C   0  0  0  0  0  0  0  0  0  0  0  0
   -0.3370    9.3884   38.2704 C   0  0  2  0  0  0  0  0  0  0  0  0
    0.6244   10.0022   39.1024 O   0  0  0  0  0  0  0  0  0  0  0  0
   -3.6877   17.4537   39.8200 C   0  0  0  0  0  0  0  0  0  0  0  0
   -4.1724   12.9072   42.3765 C   0  0  2  0  0  0  0  0  0  0  0  0
   -5.3008   13.3883   43.1746 N   0  0  0  0  0  0  0  0  0  0  0  0
   -0.4946   10.1780   36.9202 C   0  0  1  0  0  0  0  0  0  0  0  0
    0.8168   10.2049   36.1963 N   0  0  0  0  0  0  0  0  0  0  0  0
   -2.4198   16.7966   39.1296 C   0  0  0  0  0  0  0  0  0  0  0  0
   -4.3545   13.3398   40.8643 C   0  0  2  0  0  0  0  0  0  0  0  0
   -1.6038    9.4246   35.9981 C   0  0  1  0  0  0  0  0  0  0  0  0
   -1.2508    8.0930   35.6792 O   0  0  0  0  0  0  0  0  0  0  0  0
   -1.7366   15.7911   39.7285 C   0  0  1  0  0  0  0  0  0  0  0  0
   -2.0889   15.2534   41.0001 O   0  0  0  0  0  0  0  0  0  0  0  0
   -3.1292   12.8136   40.0067 C   0  0  2  0  0  0  0  0  0  0  0  0
   -3.3109   13.1995   38.6288 O   0  0  0  0  0  0  0  0  0  0  0  0
   -2.9638    9.3946   36.7577 C   0  0  0  0  0  0  0  0  0  0  0  0
   -2.7795    8.7624   38.1265 O   0  0  0  0  0  0  0  0  0  0  0  0
   -0.5299   15.1344   39.1017 C   0  0  0  0  0  0  0  0  0  0  0  0
   -1.0031   14.4363   37.9297 O   0  0  0  0  0  0  0  0  0  0  0  0
   -3.0777   11.2405   40.0933 C   0  0  1  0  0  0  0  0  0  0  0  0
   -1.9817   10.7985   39.3314 O   0  0  0  0  0  0  0  0  0  0  0  0
   -1.8687   10.0948   34.6437 C   0  0  0  0  0  0  0  0  0  0  0  0
    1.5086   11.5096   36.1448 C   0  0  0  0  0  0  0  0  0  0  0  0
  1  2  1  6  0  0  0
  1  6  1  0  0  0  0
  1 21  1  0  0  0  0
  3  4  1  6  0  0  0
  3  8  1  0  0  0  0
  3 28  1  0  0  0  0
  5  9  1  0  0  0  0
  5 25  1  0  0  0  0
  5 29  1  6  0  0  0
  6  7  1  6  0  0  0
  6 11  1  0  0  0  0
  8 12  1  0  0  0  0
  9 10  1  1  0  0  0
  9 14  1  0  0  0  0
 11 16  1  0  0  0  0
 12 13  1  1  0  0  0
 12 17  1  0  0  0  0
 14 15  1  6  0  0  0
 14 18  1  0  0  0  0
 15 31  1  0  0  0  0
 16 20  1  0  0  0  0
 17  2  1  1  0  0  0
 17 22  1  0  0  0  0
 18 19  1  6  0  0  0
 18 24  1  0  0  0  0
 18 30  1  0  0  0  0
 20 21  1  0  0  0  0
 20 26  1  6  0  0  0
 22 23  1  6  0  0  0
 22 28  1  0  0  0  0
 24 25  1  0  0  0  0
 26 27  1  0  0  0  0
 28 29  1  6  0  0  0
M  END
>  <CHROM.1>
-176.37639071,-174.92124595,-109.19604991,46.90527738,-66.59840551,70.61190023
-2.34480122,12.40490412,39.28855123,-2.23511498,-0.94746703,-3.09097751

>  <Name>
ligand

>  <RI>
0

>  <Rbt.Current_Directory>
/home/itssahil/PROJECTS/Mol_Feturizer/New_Systems/rnas/4GPY

>  <Rbt.Executable>
rbdock ($Id: //depot/dev/client3/rdock/2013.1/src/exe/rbdock.cxx#4 $)

>  <Rbt.Library>
libRbt.so (2013.1, Build901 2013/11/27)

>  <Rbt.Parameter_File>
/export/apps/rDock/src/rDock_2013.1_src/data/scripts/dock_solv.prm

>  <Rbt.Receptor>
prm/pocket_docking_6.prm

>  <SCORE>
-9.30946

>  <SCORE.INTER>
-6.26143

>  <SCORE.INTER.CONST>
1

>  <SCORE.INTER.POLAR>
0

>  <SCORE.INTER.ROT>
6

>  <SCORE.INTER.SOLV>
11.5318

>  <SCORE.INTER.VDW>
-15.6182

>  <SCORE.INTER.norm>
-0.201982

>  <SCORE.INTRA>
-3.04803

>  <SCORE.INTRA.DIHEDRAL>
-8.49558

>  <SCORE.INTRA.DIHEDRAL.0>
14.7001

>  <SCORE.INTRA.POLAR>
0

>  <SCORE.INTRA.POLAR.0>
0

>  <SCORE.INTRA.REPUL>
0

>  <SCORE.INTRA.REPUL.0>
0

>  <SCORE.INTRA.SOLV>
0.484211

>  <SCORE.INTRA.SOLV.lig_0>
-65.3082

>  <SCORE.INTRA.VDW>
0.957652

>  <SCORE.INTRA.VDW.0>
-4.21408

>  <SCORE.INTRA.norm>
-0.0983236

>  <SCORE.RESTR>
0

>  <SCORE.RESTR.CAVITY>
0

>  <SCORE.RESTR.norm>
0

>  <SCORE.SYSTEM>
0

>  <SCORE.SYSTEM.CONST>
0

>  <SCORE.SYSTEM.DIHEDRAL>
0

>  <SCORE.SYSTEM.SOLV>
0

>  <SCORE.SYSTEM.norm>
0

>  <SCORE.heavy>
31

>  <SCORE.norm>
-0.300305

>  <RMSD>
5.768

$$$$
ligand
 OpenBabel11021811493D
libRbt.so/2013.1/901 2013/11/27
 31 33  0  0  0  0  0  0  0  0999 V2000
    1.3751   21.0406   35.1771 C   0  0  2  0  0  0  0  0  0  0  0  0
    0.8762   19.7355   34.9554 O   0  0  0  0  0  0  0  0  0  0  0  0
    0.9852   15.9388   36.8616 C   0  0  2  0  0  0  0  0  0  0  0  0
    1.5008   14.7945   37.5337 N   0  0  0  0  0  0  0  0  0  0  0  0
   -0.8697   17.4766   39.1763 C   0  0  2  0  0  0  0  0  0  0  0  0
    1.5812   21.7380   33.7632 C   0  0  2  0  0  0  0  0  0  0  0  0
    0.3105   21.7521   33.0466 N   0  0  0  0  0  0  0  0  0  0  0  0
    1.7674   16.1012   35.4827 C   0  0  0  0  0  0  0  0  0  0  0  0
   -1.1512   17.2365   40.6976 C   0  0  2  0  0  0  0  0  0  0  0  0
   -0.1963   17.9514   41.4528 O   0  0  0  0  0  0  0  0  0  0  0  0
    2.6911   20.9918   32.9353 C   0  0  0  0  0  0  0  0  0  0  0  0
    1.1824   17.3645   34.7281 C   0  0  2  0  0  0  0  0  0  0  0  0
    1.8839   17.5240   33.4536 N   0  0  0  0  0  0  0  0  0  0  0  0
   -1.0522   15.6942   40.9858 C   0  0  1  0  0  0  0  0  0  0  0  0
   -1.3025   15.4365   42.4403 N   0  0  0  0  0  0  0  0  0  0  0  0
    3.9044   20.5390   33.8511 C   0  0  0  0  0  0  0  0  0  0  0  0
    1.3990   18.6474   35.6304 C   0  0  2  0  0  0  0  0  0  0  0  0
   -2.1775   14.9216   40.1001 C   0  0  1  0  0  0  0  0  0  0  0  0
   -3.4978   15.3309   40.3977 O   0  0  0  0  0  0  0  0  0  0  0  0
    3.8116   20.5653   35.2029 C   0  0  1  0  0  0  0  0  0  0  0  0
    2.6453   20.9944   35.8997 O   0  0  0  0  0  0  0  0  0  0  0  0
    0.6374   18.4659   37.0091 C   0  0  2  0  0  0  0  0  0  0  0  0
    0.8523   19.6324   37.8297 O   0  0  0  0  0  0  0  0  0  0  0  0
   -1.9157   15.1973   38.5891 C   0  0  0  0  0  0  0  0  0  0  0  0
   -1.8648   16.6942   38.3364 O   0  0  0  0  0  0  0  0  0  0  0  0
    4.9404   20.1360   36.1095 C   0  0  0  0  0  0  0  0  0  0  0  0
    5.0143   21.1158   37.1674 O   0  0  0  0  0  0  0  0  0  0  0  0
    1.2163   17.2036   37.7550 C   0  0  1  0  0  0  0  0  0  0  0  0
    0.5226   17.0599   38.9695 O   0  0  0  0  0  0  0  0  0  0  0  0
   -2.1910   13.3974   40.2752 C   0  0  0  0  0  0  0  0  0  0  0  0
   -2.4671   16.1244   43.0353 C   0  0  0  0  0  0  0  0  0  0  0  0
  1  2  1  6  0  0  0
  1  6  1  0  0  0  0
  1 21  1  0  0  0  0
  3  4  1  1  0  0  0
  3  8  1  0  0  0  0
  3 28  1  0  0  0  0
  5  9  1  0  0  0  0
  5 25  1  0  0  0  0
  5 29  1  6  0  0  0
  6  7  1  6  0  0  0
  6 11  1  0  0  0  0
  8 12  1  0  0  0  0
  9 10  1  1  0  0  0
  9 14  1  0  0  0  0
 11 16  1  0  0  0  0
 12 13  1  6  0  0  0
 12 17  1  0  0  0  0
 14 15  1  1  0  0  0
 14 18  1  0  0  0  0
 15 31  1  0  0  0  0
 16 20  1  0  0  0  0
 17  2  1  6  0  0  0
 17 22  1  0  0  0  0
 18 19  1  1  0  0  0
 18 24  1  0  0  0  0
 18 30  1  0  0  0  0
 20 21  1  0  0  0  0
 20 26  1  6  0  0  0
 22 23  1  1  0  0  0
 22 28  1  0  0  0  0
 24 25  1  0  0  0  0
 26 27  1  0  0  0  0
 28 29  1  1  0  0  0
M  END
>  <CHROM.1>
134.40029845,-175.07335554,46.50090249,-153.01759417,136.67507260,-88.56511145
0.64934452,17.97366965,37.42585700,-0.57499450,0.94475254,1.34805947

>  <Name>
ligand

>  <RI>
0

>  <Rbt.Current_Directory>
/home/itssahil/PROJECTS/Mol_Feturizer/New_Systems/rnas/4GPY

>  <Rbt.Executable>
rbdock ($Id: //depot/dev/client3/rdock/2013.1/src/exe/rbdock.cxx#4 $)

>  <Rbt.Library>
libRbt.so (2013.1, Build901 2013/11/27)

>  <Rbt.Parameter_File>
/export/apps/rDock/src/rDock_2013.1_src/data/scripts/dock_solv.prm

>  <Rbt.Receptor>
prm/blind_docking_60.prm

>  <SCORE>
28.8585

>  <SCORE.INTER>
2.90297

>  <SCORE.INTER.CONST>
1

>  <SCORE.INTER.POLAR>
0

>  <SCORE.INTER.ROT>
6

>  <SCORE.INTER.SOLV>
21.1177

>  <SCORE.INTER.VDW>
-12.7039

>  <SCORE.INTER.norm>
0.0936442

>  <SCORE.INTRA>
3.64954

>  <SCORE.INTRA.DIHEDRAL>
0.175099

>  <SCORE.INTRA.DIHEDRAL.0>
14.7001

>  <SCORE.INTRA.POLAR>
0

>  <SCORE.INTRA.POLAR.0>
0

>  <SCORE.INTRA.REPUL>
0

>  <SCORE.INTRA.REPUL.0>
0

>  <SCORE.INTRA.SOLV>
0.705947

>  <SCORE.INTRA.SOLV.lig_0>
-65.3082

>  <SCORE.INTRA.VDW>
3.20902

>  <SCORE.INTRA.VDW.0>
-4.21408

>  <SCORE.INTRA.norm>
0.117727

>  <SCORE.RESTR>
22.306

>  <SCORE.RESTR.CAVITY>
22.306

>  <SCORE.RESTR.norm>
0.719549

>  <SCORE.SYSTEM>
0

>  <SCORE.SYSTEM.CONST>
0

>  <SCORE.SYSTEM.DIHEDRAL>
0

>  <SCORE.SYSTEM.SOLV>
0

>  <SCORE.SYSTEM.norm>
0

>  <SCORE.heavy>
31

>  <SCORE.norm>
0.930921

>  <RMSD>
5.809

$$$$
ligand
 OpenBabel11021811493D
libRbt.so/2013.1/901 2013/11/27
 31 33  0  0  0  0  0  0  0  0999 V2000
    4.6152   18.9376   35.6433 C   0  0  2  0  0  0  0  0  0  0  0  0
    3.7734   18.4952   36.6907 O   0  0  0  0  0  0  0  0  0  0  0  0
    1.1354   15.3404   37.7619 C   0  0  2  0  0  0  0  0  0  0  0  0
    0.2827   14.2079   37.6306 N   0  0  0  0  0  0  0  0  0  0  0  0
    2.6507   12.5248   38.0452 C   0  0  2  0  0  0  0  0  0  0  0  0
    5.4438   20.1884   36.1695 C   0  0  2  0  0  0  0  0  0  0  0  0
    6.2019   19.7968   37.3530 N   0  0  0  0  0  0  0  0  0  0  0  0
    0.5652   16.5035   36.8335 C   0  0  0  0  0  0  0  0  0  0  0  0
    3.5912   11.7508   39.0288 C   0  0  2  0  0  0  0  0  0  0  0  0
    3.4899   12.3385   40.3085 O   0  0  0  0  0  0  0  0  0  0  0  0
    4.4842   21.3944   36.4841 C   0  0  0  0  0  0  0  0  0  0  0  0
    1.5046   17.7683   36.9924 C   0  0  2  0  0  0  0  0  0  0  0  0
    0.9905   18.8509   36.1526 N   0  0  0  0  0  0  0  0  0  0  0  0
    5.0639   11.8418   38.4862 C   0  0  1  0  0  0  0  0  0  0  0  0
    5.9896   11.1211   39.4180 N   0  0  0  0  0  0  0  0  0  0  0  0
    3.3298   21.5256   35.4042 C   0  0  0  0  0  0  0  0  0  0  0  0
    2.9707   17.3794   36.5381 C   0  0  2  0  0  0  0  0  0  0  0  0
    5.1261   11.1433   37.0177 C   0  0  1  0  0  0  0  0  0  0  0  0
    4.7573    9.7784   37.0344 O   0  0  0  0  0  0  0  0  0  0  0  0
    3.0854   20.5335   34.5139 C   0  0  1  0  0  0  0  0  0  0  0  0
    3.8285   19.3185   34.4714 O   0  0  0  0  0  0  0  0  0  0  0  0
    3.5195   16.2055   37.4517 C   0  0  2  0  0  0  0  0  0  0  0  0
    4.8490   15.8482   37.0214 O   0  0  0  0  0  0  0  0  0  0  0  0
    4.1579   11.8931   36.0544 C   0  0  0  0  0  0  0  0  0  0  0  0
    2.7613   11.9331   36.6505 O   0  0  0  0  0  0  0  0  0  0  0  0
    1.9920   20.6164   33.4756 C   0  0  0  0  0  0  0  0  0  0  0  0
    1.1914   19.4241   33.6246 O   0  0  0  0  0  0  0  0  0  0  0  0
    2.5787   14.9501   37.2975 C   0  0  1  0  0  0  0  0  0  0  0  0
    3.0812   13.9263   38.1199 O   0  0  0  0  0  0  0  0  0  0  0  0
    6.5113   11.1668   36.3585 C   0  0  0  0  0  0  0  0  0  0  0  0
    5.7763    9.6654   39.5553 C   0  0  0  0  0  0  0  0  0  0  0  0
  1  2  1  1  0  0  0
  1  6  1  0  0  0  0
  1 21  1  0  0  0  0
  3  4  1  6  0  0  0
  3  8  1  0  0  0  0
  3 28  1  0  0  0  0
  5  9  1  0  0  0  0
  5 25  1  0  0  0  0
  5 29  1  6  0  0  0
  6  7  1  1  0  0  0
  6 11  1  0  0  0  0
  8 12  1  0  0  0  0
  9 10  1  1  0  0  0
  9 14  1  0  0  0  0
 11 16  1  0  0  0  0
 12 13  1  6  0  0  0
 12 17  1  0  0  0  0
 14 15  1  1  0  0  0
 14 18  1  0  0  0  0
 15 31  1  0  0  0  0
 16 20  1  0  0  0  0
 17  2  1  1  0  0  0
 17 22  1  0  0  0  0
 18 19  1  1  0  0  0
 18 24  1  0  0  0  0
 18 30  1  0  0  0  0
 20 21  1  0  0  0  0
 20 26  1  1  0  0  0
 22 23  1  6  0  0  0
 22 28  1  0  0  0  0
 24 25  1  0  0  0  0
 26 27  1  0  0  0  0
 28 29  1  1  0  0  0
M  END
>  <CHROM.1>
-177.29924210,173.89189843,63.78280902,-130.36614960,-126.77228370,74.63770414
3.53434954,15.65481128,36.88380353,-1.71839775,0.09631434,2.84645467

>  <Name>
ligand

>  <RI>
0

>  <Rbt.Current_Directory>
/home/itssahil/PROJECTS/Mol_Feturizer/New_Systems/rnas/4GPY

>  <Rbt.Executable>
rbdock ($Id: //depot/dev/client3/rdock/2013.1/src/exe/rbdock.cxx#4 $)

>  <Rbt.Library>
libRbt.so (2013.1, Build901 2013/11/27)

>  <Rbt.Parameter_File>
/export/apps/rDock/src/rDock_2013.1_src/data/scripts/dock_solv.prm

>  <Rbt.Receptor>
prm/blind_docking_100.prm

>  <SCORE>
-0.522772

>  <SCORE.INTER>
-7.16161

>  <SCORE.INTER.CONST>
1

>  <SCORE.INTER.POLAR>
0

>  <SCORE.INTER.ROT>
6

>  <SCORE.INTER.SOLV>
17.5474

>  <SCORE.INTER.VDW>
-18.2236

>  <SCORE.INTER.norm>
-0.23102

>  <SCORE.INTRA>
1.72776

>  <SCORE.INTRA.DIHEDRAL>
-5.03591

>  <SCORE.INTRA.DIHEDRAL.0>
14.7001

>  <SCORE.INTRA.POLAR>
0

>  <SCORE.INTRA.POLAR.0>
0

>  <SCORE.INTRA.REPUL>
0

>  <SCORE.INTRA.REPUL.0>
0

>  <SCORE.INTRA.SOLV>
2.97204

>  <SCORE.INTRA.SOLV.lig_0>
-65.3082

>  <SCORE.INTRA.VDW>
2.75969

>  <SCORE.INTRA.VDW.0>
-4.21408

>  <SCORE.INTRA.norm>
0.0557341

>  <SCORE.RESTR>
4.91108

>  <SCORE.RESTR.CAVITY>
4.91108

>  <SCORE.RESTR.norm>
0.158422

>  <SCORE.SYSTEM>
0

>  <SCORE.SYSTEM.CONST>
0

>  <SCORE.SYSTEM.DIHEDRAL>
0

>  <SCORE.SYSTEM.SOLV>
0

>  <SCORE.SYSTEM.norm>
0

>  <SCORE.heavy>
31

>  <SCORE.norm>
-0.0168636

>  <RMSD>
5.846

$$$$
ligand
 OpenBabel11021811493D
libRbt.so/2013.1/901 2013/11/27
 31 33  0  0  0  0  0  0  0  0999 V2000
   -3.6031   15.6294   41.5962 C   0  0  2  0  0  0  0  0  0  0  0  0
   -4.5502   14.8175   40.9288 O   0  0  0  0  0  0  0  0  0  0  0  0
   -2.9079   10.9809   41.7309 C   0  0  2  0  0  0  0  0  0  0  0  0
   -2.7892    9.5635   41.7915 N   0  0  0  0  0  0  0  0  0  0  0  0
   -1.4380    9.6598   39.3147 C   0  0  2  0  0  0  0  0  0  0  0  0
   -4.1836   17.1078   41.6699 C   0  0  2  0  0  0  0  0  0  0  0  0
   -5.4682   17.0837   42.3613 N   0  0  0  0  0  0  0  0  0  0  0  0
   -4.2272   11.4044   42.5182 C   0  0  0  0  0  0  0  0  0  0  0  0
   -0.1515    9.7524   38.4272 C   0  0  2  0  0  0  0  0  0  0  0  0
    0.7988   10.5587   39.0906 O   0  0  0  0  0  0  0  0  0  0  0  0
   -4.3274   17.7177   40.2271 C   0  0  0  0  0  0  0  0  0  0  0  0
   -4.3501   12.9822   42.4646 C   0  0  2  0  0  0  0  0  0  0  0  0
   -5.5531   13.3903   43.1912 N   0  0  0  0  0  0  0  0  0  0  0  0
   -0.5462   10.3786   37.0403 C   0  0  1  0  0  0  0  0  0  0  0  0
    0.6711   10.4933   36.1746 N   0  0  0  0  0  0  0  0  0  0  0  0
   -3.1045   17.3239   39.2968 C   0  0  0  0  0  0  0  0  0  0  0  0
   -4.4498   13.4383   40.9516 C   0  0  2  0  0  0  0  0  0  0  0  0
   -1.6328    9.4074   36.3163 C   0  0  1  0  0  0  0  0  0  0  0  0
   -1.1408    8.1038   36.0754 O   0  0  0  0  0  0  0  0  0  0  0  0
   -2.2282   16.3565   39.6613 C   0  0  1  0  0  0  0  0  0  0  0  0
   -2.3268   15.6303   40.8832 O   0  0  0  0  0  0  0  0  0  0  0  0
   -3.1439   12.9913   40.1715 C   0  0  2  0  0  0  0  0  0  0  0  0
   -3.2500   13.3978   38.7917 O   0  0  0  0  0  0  0  0  0  0  0  0
   -2.8941    9.2873   37.2231 C   0  0  0  0  0  0  0  0  0  0  0  0
   -2.4920    8.8216   38.6118 O   0  0  0  0  0  0  0  0  0  0  0  0
   -1.0563   15.9473   38.8014 C   0  0  0  0  0  0  0  0  0  0  0  0
    0.1146   16.5612   39.3819 O   0  0  0  0  0  0  0  0  0  0  0  0
   -3.0198   11.4210   40.2326 C   0  0  1  0  0  0  0  0  0  0  0  0
   -1.8535   11.0495   39.5406 O   0  0  0  0  0  0  0  0  0  0  0  0
   -2.1181    9.9022   34.9475 C   0  0  0  0  0  0  0  0  0  0  0  0
    1.2307   11.8509   36.0098 C   0  0  0  0  0  0  0  0  0  0  0  0
  1  2  1  6  0  0  0
  1  6  1  0  0  0  0
  1 21  1  0  0  0  0
  3  4  1  6  0  0  0
  3  8  1  0  0  0  0
  3 28  1  0  0  0  0
  5  9  1  0  0  0  0
  5 25  1  0  0  0  0
  5 29  1  6  0  0  0
  6  7  1  6  0  0  0
  6 11  1  0  0  0  0
  8 12  1  0  0  0  0
  9 10  1  1  0  0  0
  9 14  1  0  0  0  0
 11 16  1  0  0  0  0
 12 13  1  1  0  0  0
 12 17  1  0  0  0  0
 14 15  1  6  0  0  0
 14 18  1  0  0  0  0
 15 31  1  0  0  0  0
 16 20  1  0  0  0  0
 17  2  1  1  0  0  0
 17 22  1  0  0  0  0
 18 19  1  6  0  0  0
 18 24  1  0  0  0  0
 18 30  1  0  0  0  0
 20 21  1  0  0  0  0
 20 26  1  6  0  0  0
 22 23  1  6  0  0  0
 22 28  1  0  0  0  0
 24 25  1  0  0  0  0
 26 27  1  0  0  0  0
 28 29  1  6  0  0  0
M  END
>  <CHROM.1>
-166.75987937,176.22664746,-105.13550401,53.37163996,102.50260637,65.09549952
-2.41666561,12.67051008,39.49318545,2.18135503,0.88293729,0.07291377

>  <Name>
ligand

>  <RI>
0

>  <Rbt.Current_Directory>
/home/itssahil/PROJECTS/Mol_Feturizer/New_Systems/rnas/4GPY

>  <Rbt.Executable>
rbdock ($Id: //depot/dev/client3/rdock/2013.1/src/exe/rbdock.cxx#4 $)

>  <Rbt.Library>
libRbt.so (2013.1, Build901 2013/11/27)

>  <Rbt.Parameter_File>
/export/apps/rDock/src/rDock_2013.1_src/data/scripts/dock_solv.prm

>  <Rbt.Receptor>
prm/pocket_docking_4.prm

>  <SCORE>
-10.9425

>  <SCORE.INTER>
-7.18906

>  <SCORE.INTER.CONST>
1

>  <SCORE.INTER.POLAR>
0

>  <SCORE.INTER.ROT>
6

>  <SCORE.INTER.SOLV>
11.5324

>  <SCORE.INTER.VDW>
-16.2368

>  <SCORE.INTER.norm>
-0.231905

>  <SCORE.INTRA>
-3.75346

>  <SCORE.INTRA.DIHEDRAL>
-10.366

>  <SCORE.INTRA.DIHEDRAL.0>
14.7001

>  <SCORE.INTRA.POLAR>
0

>  <SCORE.INTRA.POLAR.0>
0

>  <SCORE.INTRA.REPUL>
0

>  <SCORE.INTRA.REPUL.0>
0

>  <SCORE.INTRA.SOLV>
0.587636

>  <SCORE.INTRA.SOLV.lig_0>
-65.3082

>  <SCORE.INTRA.VDW>
1.13573

>  <SCORE.INTRA.VDW.0>
-4.21408

>  <SCORE.INTRA.norm>
-0.121079

>  <SCORE.RESTR>
0

>  <SCORE.RESTR.CAVITY>
0

>  <SCORE.RESTR.norm>
0

>  <SCORE.SYSTEM>
0

>  <SCORE.SYSTEM.CONST>
0

>  <SCORE.SYSTEM.DIHEDRAL>
0

>  <SCORE.SYSTEM.SOLV>
0

>  <SCORE.SYSTEM.norm>
0

>  <SCORE.heavy>
31

>  <SCORE.norm>
-0.352985

>  <RMSD>
5.847

$$$$
ligand
 OpenBabel11021811493D
libRbt.so/2013.1/901 2013/11/27
 31 33  0  0  0  0  0  0  0  0999 V2000
   -2.0738   15.2877   40.6320 C   0  0  2  0  0  0  0  0  0  0  0  0
   -2.1936   14.4097   41.7348 O   0  0  0  0  0  0  0  0  0  0  0  0
   -2.7586   10.2267   42.2280 C   0  0  2  0  0  0  0  0  0  0  0  0
   -3.3493    8.9357   42.1221 N   0  0  0  0  0  0  0  0  0  0  0  0
   -1.8184    8.6607   39.4652 C   0  0  2  0  0  0  0  0  0  0  0  0
   -1.0470   16.4367   41.0239 C   0  0  2  0  0  0  0  0  0  0  0  0
    0.2314   15.8335   41.3849 N   0  0  0  0  0  0  0  0  0  0  0  0
   -3.8178   11.2051   42.9064 C   0  0  0  0  0  0  0  0  0  0  0  0
   -0.5999    8.3748   38.5246 C   0  0  2  0  0  0  0  0  0  0  0  0
    0.5674    8.2785   39.3129 O   0  0  0  0  0  0  0  0  0  0  0  0
   -1.6163   17.3080   42.2033 C   0  0  0  0  0  0  0  0  0  0  0  0
   -3.1544   12.6369   43.0389 C   0  0  2  0  0  0  0  0  0  0  0  0
   -4.1112   13.5477   43.6689 N   0  0  0  0  0  0  0  0  0  0  0  0
   -0.4811    9.5526   37.4902 C   0  0  1  0  0  0  0  0  0  0  0  0
    0.6884    9.3123   36.5852 N   0  0  0  0  0  0  0  0  0  0  0  0
   -3.1728   17.5688   42.0447 C   0  0  0  0  0  0  0  0  0  0  0  0
   -2.7756   13.1630   41.5943 C   0  0  2  0  0  0  0  0  0  0  0  0
   -1.8448    9.6123   36.6041 C   0  0  1  0  0  0  0  0  0  0  0  0
   -2.0888    8.4242   35.8772 O   0  0  0  0  0  0  0  0  0  0  0  0
   -3.9136   16.8723   41.1487 C   0  0  1  0  0  0  0  0  0  0  0  0
   -3.3698   15.8725   40.2915 O   0  0  0  0  0  0  0  0  0  0  0  0
   -1.7404   12.1703   40.9186 C   0  0  2  0  0  0  0  0  0  0  0  0
   -1.4126   12.6494   39.5982 O   0  0  0  0  0  0  0  0  0  0  0  0
   -3.0581    9.8569   37.5505 C   0  0  0  0  0  0  0  0  0  0  0  0
   -3.0867    8.7997   38.6409 O   0  0  0  0  0  0  0  0  0  0  0  0
   -5.3981   17.0854   40.9722 C   0  0  0  0  0  0  0  0  0  0  0  0
   -5.8246   17.9337   42.0600 O   0  0  0  0  0  0  0  0  0  0  0  0
   -2.4003   10.7441   40.7945 C   0  0  1  0  0  0  0  0  0  0  0  0
   -1.4631    9.8814   40.1990 O   0  0  0  0  0  0  0  0  0  0  0  0
   -1.8732   10.7283   35.5518 C   0  0  0  0  0  0  0  0  0  0  0  0
    1.6816   10.4028   36.4967 C   0  0  0  0  0  0  0  0  0  0  0  0
  1  2  1  1  0  0  0
  1  6  1  0  0  0  0
  1 21  1  0  0  0  0
  3  4  1  6  0  0  0
  3  8  1  0  0  0  0
  3 28  1  0  0  0  0
  5  9  1  0  0  0  0
  5 25  1  0  0  0  0
  5 29  1  6  0  0  0
  6  7  1  1  0  0  0
  6 11  1  0  0  0  0
  8 12  1  0  0  0  0
  9 10  1  1  0  0  0
  9 14  1  0  0  0  0
 11 16  1  0  0  0  0
 12 13  1  6  0  0  0
 12 17  1  0  0  0  0
 14 15  1  6  0  0  0
 14 18  1  0  0  0  0
 15 31  1  0  0  0  0
 16 20  1  0  0  0  0
 17  2  1  1  0  0  0
 17 22  1  0  0  0  0
 18 19  1  6  0  0  0
 18 24  1  0  0  0  0
 18 30  1  0  0  0  0
 20 21  1  0  0  0  0
 20 26  1  1  0  0  0
 22 23  1  6  0  0  0
 22 28  1  0  0  0  0
 24 25  1  0  0  0  0
 26 27  1  0  0  0  0
 28 29  1  1  0  0  0
M  END
>  <CHROM.1>
-165.37398365,157.37610248,-125.82342206,-162.87873654,-9.98952073,85.46184539
-2.17155970,12.31253300,40.05621930,-2.13107902,-1.03174386,-3.12176094

>  <Name>
ligand

>  <RI>
0

>  <Rbt.Current_Directory>
/home/itssahil/PROJECTS/Mol_Feturizer/New_Systems/rnas/4GPY

>  <Rbt.Executable>
rbdock ($Id: //depot/dev/client3/rdock/2013.1/src/exe/rbdock.cxx#4 $)

>  <Rbt.Library>
libRbt.so (2013.1, Build901 2013/11/27)

>  <Rbt.Parameter_File>
/export/apps/rDock/src/rDock_2013.1_src/data/scripts/dock_solv.prm

>  <Rbt.Receptor>
prm/pocket_docking_4.prm

>  <SCORE>
-3.56246

>  <SCORE.INTER>
-2.61203

>  <SCORE.INTER.CONST>
1

>  <SCORE.INTER.POLAR>
0

>  <SCORE.INTER.ROT>
6

>  <SCORE.INTER.SOLV>
10.5961

>  <SCORE.INTER.VDW>
-12.8734

>  <SCORE.INTER.norm>
-0.084259

>  <SCORE.INTRA>
-1.10778

>  <SCORE.INTRA.DIHEDRAL>
-4.36298

>  <SCORE.INTRA.DIHEDRAL.0>
14.7001

>  <SCORE.INTRA.POLAR>
0

>  <SCORE.INTRA.POLAR.0>
0

>  <SCORE.INTRA.REPUL>
0

>  <SCORE.INTRA.REPUL.0>
0

>  <SCORE.INTRA.SOLV>
-0.883511

>  <SCORE.INTRA.SOLV.lig_0>
-65.3082

>  <SCORE.INTRA.VDW>
1.51546

>  <SCORE.INTRA.VDW.0>
-4.21408

>  <SCORE.INTRA.norm>
-0.0357349

>  <SCORE.RESTR>
0.157355

>  <SCORE.RESTR.CAVITY>
0.157355

>  <SCORE.RESTR.norm>
0.00507596

>  <SCORE.SYSTEM>
0

>  <SCORE.SYSTEM.CONST>
0

>  <SCORE.SYSTEM.DIHEDRAL>
0

>  <SCORE.SYSTEM.SOLV>
0

>  <SCORE.SYSTEM.norm>
0

>  <SCORE.heavy>
31

>  <SCORE.norm>
-0.114918

>  <RMSD>
5.861

$$$$
ligand
 OpenBabel11021811493D
libRbt.so/2013.1/901 2013/11/27
 31 33  0  0  0  0  0  0  0  0999 V2000
   -0.4225   15.1731   41.4256 C   0  0  2  0  0  0  0  0  0  0  0  0
    0.6932   15.3280   40.5697 O   0  0  0  0  0  0  0  0  0  0  0  0
    2.9835   12.5718   38.2854 C   0  0  2  0  0  0  0  0  0  0  0  0
    3.8710   11.5016   37.9793 N   0  0  0  0  0  0  0  0  0  0  0  0
    1.4546    9.6691   38.1461 C   0  0  2  0  0  0  0  0  0  0  0  0
   -1.2243   16.5460   41.4462 C   0  0  2  0  0  0  0  0  0  0  0  0
   -1.6220   16.8885   40.0849 N   0  0  0  0  0  0  0  0  0  0  0  0
    3.7700   13.6312   39.1791 C   0  0  0  0  0  0  0  0  0  0  0  0
    0.5569    9.1098   36.9917 C   0  0  2  0  0  0  0  0  0  0  0  0
    0.7517    9.9049   35.8414 O   0  0  0  0  0  0  0  0  0  0  0  0
   -0.3507   17.6869   42.0859 C   0  0  0  0  0  0  0  0  0  0  0  0
    2.7874   14.8293   39.5056 C   0  0  2  0  0  0  0  0  0  0  0  0
    3.4965   15.8175   40.3193 N   0  0  0  0  0  0  0  0  0  0  0  0
   -0.9435    9.1586   37.4584 C   0  0  1  0  0  0  0  0  0  0  0  0
   -1.8282    8.6425   36.3650 N   0  0  0  0  0  0  0  0  0  0  0  0
    0.4819   17.1635   43.3304 C   0  0  0  0  0  0  0  0  0  0  0  0
    1.5390   14.2673   40.3010 C   0  0  2  0  0  0  0  0  0  0  0  0
   -1.1136    8.2206   38.7772 C   0  0  1  0  0  0  0  0  0  0  0  0
   -0.7794    6.8666   38.5442 O   0  0  0  0  0  0  0  0  0  0  0  0
    0.6039   15.8382   43.5860 C   0  0  1  0  0  0  0  0  0  0  0  0
    0.0067   14.8267   42.7796 O   0  0  0  0  0  0  0  0  0  0  0  0
    0.7776   13.1968   39.4134 C   0  0  2  0  0  0  0  0  0  0  0  0
   -0.3488   12.6799   40.1512 O   0  0  0  0  0  0  0  0  0  0  0  0
   -0.1877    8.7585   39.9090 C   0  0  0  0  0  0  0  0  0  0  0  0
    1.2434    8.8506   39.4083 O   0  0  0  0  0  0  0  0  0  0  0  0
    1.3930   15.2992   44.7553 C   0  0  0  0  0  0  0  0  0  0  0  0
    2.3616   16.3128   45.1007 O   0  0  0  0  0  0  0  0  0  0  0  0
    1.7598   12.0088   39.0835 C   0  0  1  0  0  0  0  0  0  0  0  0
    1.0653   11.0770   38.2921 O   0  0  0  0  0  0  0  0  0  0  0  0
   -2.5357    8.1799   39.3517 C   0  0  0  0  0  0  0  0  0  0  0  0
   -2.7948    9.6049   35.7967 C   0  0  0  0  0  0  0  0  0  0  0  0
  1  2  1  6  0  0  0
  1  6  1  0  0  0  0
  1 21  1  0  0  0  0
  3  4  1  1  0  0  0
  3  8  1  0  0  0  0
  3 28  1  0  0  0  0
  5  9  1  0  0  0  0
  5 25  1  0  0  0  0
  5 29  1  1  0  0  0
  6  7  1  6  0  0  0
  6 11  1  0  0  0  0
  8 12  1  0  0  0  0
  9 10  1  6  0  0  0
  9 14  1  0  0  0  0
 11 16  1  0  0  0  0
 12 13  1  1  0  0  0
 12 17  1  0  0  0  0
 14 15  1  6  0  0  0
 14 18  1  0  0  0  0
 15 31  1  0  0  0  0
 16 20  1  0  0  0  0
 17  2  1  6  0  0  0
 17 22  1  0  0  0  0
 18 19  1  6  0  0  0
 18 24  1  0  0  0  0
 18 30  1  0  0  0  0
 20 21  1  0  0  0  0
 20 26  1  6  0  0  0
 22 23  1  1  0  0  0
 22 28  1  0  0  0  0
 24 25  1  0  0  0  0
 26 27  1  0  0  0  0
 28 29  1  6  0  0  0
M  END
>  <CHROM.1>
-176.56169484,-170.17041419,-116.86240383,-171.38640758,-24.03119211,82.45881383
0.54933369,12.54048913,39.82471224,1.41041347,0.32026764,0.63591497

>  <Name>
ligand

>  <RI>
0

>  <Rbt.Current_Directory>
/home/itssahil/PROJECTS/Mol_Feturizer/New_Systems/rnas/4GPY

>  <Rbt.Executable>
rbdock ($Id: //depot/dev/client3/rdock/2013.1/src/exe/rbdock.cxx#4 $)

>  <Rbt.Library>
libRbt.so (2013.1, Build901 2013/11/27)

>  <Rbt.Parameter_File>
/export/apps/rDock/src/rDock_2013.1_src/data/scripts/dock_solv.prm

>  <Rbt.Receptor>
prm/pocket_docking_7.prm

>  <SCORE>
-2.18784

>  <SCORE.INTER>
0.857348

>  <SCORE.INTER.CONST>
1

>  <SCORE.INTER.POLAR>
0

>  <SCORE.INTER.ROT>
6

>  <SCORE.INTER.SOLV>
8.30351

>  <SCORE.INTER.VDW>
-9.79627

>  <SCORE.INTER.norm>
0.0276564

>  <SCORE.INTRA>
-3.04587

>  <SCORE.INTRA.DIHEDRAL>
-8.05982

>  <SCORE.INTRA.DIHEDRAL.0>
14.7001

>  <SCORE.INTRA.POLAR>
0

>  <SCORE.INTRA.POLAR.0>
0

>  <SCORE.INTRA.REPUL>
0

>  <SCORE.INTRA.REPUL.0>
0

>  <SCORE.INTRA.SOLV>
-1.61825

>  <SCORE.INTRA.SOLV.lig_0>
-65.3082

>  <SCORE.INTRA.VDW>
1.79317

>  <SCORE.INTRA.VDW.0>
-4.21408

>  <SCORE.INTRA.norm>
-0.0982538

>  <SCORE.RESTR>
0.000683872

>  <SCORE.RESTR.CAVITY>
0.000683872

>  <SCORE.RESTR.norm>
2.20604e-05

>  <SCORE.SYSTEM>
0

>  <SCORE.SYSTEM.CONST>
0

>  <SCORE.SYSTEM.DIHEDRAL>
0

>  <SCORE.SYSTEM.SOLV>
0

>  <SCORE.SYSTEM.norm>
0

>  <SCORE.heavy>
31

>  <SCORE.norm>
-0.0705754

>  <RMSD>
5.875

$$$$
ligand
 OpenBabel11021811493D
libRbt.so/2013.1/901 2013/11/27
 31 33  0  0  0  0  0  0  0  0999 V2000
    1.6008   12.0626   36.9244 C   0  0  2  0  0  0  0  0  0  0  0  0
    1.1097   10.8223   37.3954 O   0  0  0  0  0  0  0  0  0  0  0  0
   -0.2847    9.6043   41.2206 C   0  0  2  0  0  0  0  0  0  0  0  0
   -0.2667    9.2447   42.5980 N   0  0  0  0  0  0  0  0  0  0  0  0
   -2.0669   12.1142   41.4484 C   0  0  2  0  0  0  0  0  0  0  0  0
    1.3093   12.1495   35.3638 C   0  0  2  0  0  0  0  0  0  0  0  0
   -0.1247   12.0063   35.1360 N   0  0  0  0  0  0  0  0  0  0  0  0
    0.6892    8.6172   40.4352 C   0  0  0  0  0  0  0  0  0  0  0  0
   -2.4839   13.4631   42.1249 C   0  0  2  0  0  0  0  0  0  0  0  0
   -1.6438   14.4900   41.6423 O   0  0  0  0  0  0  0  0  0  0  0  0
    2.1197   11.0471   34.5878 C   0  0  0  0  0  0  0  0  0  0  0  0
    0.6563    9.0071   38.9008 C   0  0  2  0  0  0  0  0  0  0  0  0
    1.5394    8.1040   38.1617 N   0  0  0  0  0  0  0  0  0  0  0  0
   -2.3380   13.3061   43.6823 C   0  0  1  0  0  0  0  0  0  0  0  0
   -2.7166   14.5897   44.3557 N   0  0  0  0  0  0  0  0  0  0  0  0
    3.5815   10.8671   35.1766 C   0  0  0  0  0  0  0  0  0  0  0  0
    1.1524   10.5021   38.7402 C   0  0  2  0  0  0  0  0  0  0  0  0
   -3.3319   12.1199   44.1855 C   0  0  1  0  0  0  0  0  0  0  0  0
   -4.6935   12.3780   43.9048 O   0  0  0  0  0  0  0  0  0  0  0  0
    3.9310   11.4127   36.3668 C   0  0  1  0  0  0  0  0  0  0  0  0
    3.0374   12.1785   37.1700 O   0  0  0  0  0  0  0  0  0  0  0  0
    0.1915   11.4733   39.5446 C   0  0  2  0  0  0  0  0  0  0  0  0
    0.6593   12.8305   39.4047 O   0  0  0  0  0  0  0  0  0  0  0  0
   -2.9372   10.7889   43.4783 C   0  0  0  0  0  0  0  0  0  0  0  0
   -2.9353   10.9829   41.9717 O   0  0  0  0  0  0  0  0  0  0  0  0
    5.3090   11.2585   36.9650 C   0  0  0  0  0  0  0  0  0  0  0  0
    5.6971   12.5631   37.4468 O   0  0  0  0  0  0  0  0  0  0  0  0
    0.2202   11.0786   41.0705 C   0  0  1  0  0  0  0  0  0  0  0  0
   -0.6422   11.9482   41.7611 O   0  0  0  0  0  0  0  0  0  0  0  0
   -3.2876   11.8483   45.6949 C   0  0  0  0  0  0  0  0  0  0  0  0
   -1.6108   15.3638   44.9568 C   0  0  0  0  0  0  0  0  0  0  0  0
  1  2  1  6  0  0  0
  1  6  1  0  0  0  0
  1 21  1  0  0  0  0
  3  4  1  1  0  0  0
  3  8  1  0  0  0  0
  3 28  1  0  0  0  0
  5  9  1  0  0  0  0
  5 25  1  0  0  0  0
  5 29  1  1  0  0  0
  6  7  1  1  0  0  0
  6 11  1  0  0  0  0
  8 12  1  0  0  0  0
  9 10  1  6  0  0  0
  9 14  1  0  0  0  0
 11 16  1  0  0  0  0
 12 13  1  6  0  0  0
 12 17  1  0  0  0  0
 14 15  1  1  0  0  0
 14 18  1  0  0  0  0
 15 31  1  0  0  0  0
 16 20  1  0  0  0  0
 17  2  1  6  0  0  0
 17 22  1  0  0  0  0
 18 19  1  6  0  0  0
 18 24  1  0  0  0  0
 18 30  1  0  0  0  0
 20 21  1  0  0  0  0
 20 26  1  1  0  0  0
 22 23  1  1  0  0  0
 22 28  1  0  0  0  0
 24 25  1  0  0  0  0
 26 27  1  0  0  0  0
 28 29  1  1  0  0  0
M  END
>  <CHROM.1>
-176.07355425,-162.21212987,-108.73859378,-174.74890343,135.20742118,-61.21889504
0.04840017,11.65428750,40.07688976,-0.23327708,0.89950361,0.10154673

>  <Name>
ligand

>  <RI>
0

>  <Rbt.Current_Directory>
/home/itssahil/PROJECTS/Mol_Feturizer/New_Systems/rnas/4GPY

>  <Rbt.Executable>
rbdock ($Id: //depot/dev/client3/rdock/2013.1/src/exe/rbdock.cxx#4 $)

>  <Rbt.Library>
libRbt.so (2013.1, Build901 2013/11/27)

>  <Rbt.Parameter_File>
/export/apps/rDock/src/rDock_2013.1_src/data/scripts/dock_solv.prm

>  <Rbt.Receptor>
prm/pocket_docking_6.prm

>  <SCORE>
-5.11181

>  <SCORE.INTER>
-0.976782

>  <SCORE.INTER.CONST>
1

>  <SCORE.INTER.POLAR>
0

>  <SCORE.INTER.ROT>
6

>  <SCORE.INTER.SOLV>
6.90582

>  <SCORE.INTER.VDW>
-10.5531

>  <SCORE.INTER.norm>
-0.0315091

>  <SCORE.INTRA>
-4.13503

>  <SCORE.INTRA.DIHEDRAL>
-9.95238

>  <SCORE.INTRA.DIHEDRAL.0>
14.7001

>  <SCORE.INTRA.POLAR>
0

>  <SCORE.INTRA.POLAR.0>
0

>  <SCORE.INTRA.REPUL>
0

>  <SCORE.INTRA.REPUL.0>
0

>  <SCORE.INTRA.SOLV>
-0.652129

>  <SCORE.INTRA.SOLV.lig_0>
-65.3082

>  <SCORE.INTRA.VDW>
1.16723

>  <SCORE.INTRA.VDW.0>
-4.21408

>  <SCORE.INTRA.norm>
-0.133388

>  <SCORE.RESTR>
0

>  <SCORE.RESTR.CAVITY>
0

>  <SCORE.RESTR.norm>
0

>  <SCORE.SYSTEM>
0

>  <SCORE.SYSTEM.CONST>
0

>  <SCORE.SYSTEM.DIHEDRAL>
0

>  <SCORE.SYSTEM.SOLV>
0

>  <SCORE.SYSTEM.norm>
0

>  <SCORE.heavy>
31

>  <SCORE.norm>
-0.164897

>  <RMSD>
5.894

$$$$
ligand
 OpenBabel11021811493D
libRbt.so/2013.1/901 2013/11/27
 31 33  0  0  0  0  0  0  0  0999 V2000
   -0.7106   14.8453   38.9245 C   0  0  2  0  0  0  0  0  0  0  0  0
   -1.3483   13.7797   39.6021 O   0  0  0  0  0  0  0  0  0  0  0  0
   -2.7774    9.9814   38.3410 C   0  0  2  0  0  0  0  0  0  0  0  0
   -3.5662    9.0057   37.6682 N   0  0  0  0  0  0  0  0  0  0  0  0
   -1.6448    9.0655   35.5356 C   0  0  2  0  0  0  0  0  0  0  0  0
    0.4049   15.4455   39.8854 C   0  0  2  0  0  0  0  0  0  0  0  0
    1.3427   14.3886   40.2489 N   0  0  0  0  0  0  0  0  0  0  0  0
   -3.7492   10.8864   39.2221 C   0  0  0  0  0  0  0  0  0  0  0  0
   -0.3401    8.4166   34.9630 C   0  0  2  0  0  0  0  0  0  0  0  0
    0.4194    7.9041   36.0371 O   0  0  0  0  0  0  0  0  0  0  0  0
   -0.2523   16.0849   41.1635 C   0  0  0  0  0  0  0  0  0  0  0  0
   -2.8695   11.9610   39.9830 C   0  0  2  0  0  0  0  0  0  0  0  0
   -3.7456   12.7965   40.8052 N   0  0  0  0  0  0  0  0  0  0  0  0
    0.4651    9.5195   34.1841 C   0  0  1  0  0  0  0  0  0  0  0  0
    1.7287    8.9288   33.6372 N   0  0  0  0  0  0  0  0  0  0  0  0
   -1.5881   16.8644   40.8114 C   0  0  0  0  0  0  0  0  0  0  0  0
   -2.1134   12.8540   38.9163 C   0  0  2  0  0  0  0  0  0  0  0  0
   -0.4497   10.0673   32.9549 C   0  0  1  0  0  0  0  0  0  0  0  0
   -0.8015    9.0575   32.0297 O   0  0  0  0  0  0  0  0  0  0  0  0
   -2.1854   16.7235   39.6031 C   0  0  1  0  0  0  0  0  0  0  0  0
   -1.6750   15.8855   38.5700 O   0  0  0  0  0  0  0  0  0  0  0  0
   -1.1680   11.9414   38.0291 C   0  0  2  0  0  0  0  0  0  0  0  0
   -0.4950   12.7607   37.0514 O   0  0  0  0  0  0  0  0  0  0  0  0
   -1.7645   10.6754   33.5287 C   0  0  0  0  0  0  0  0  0  0  0  0
   -2.4698    9.6537   34.4038 O   0  0  0  0  0  0  0  0  0  0  0  0
   -3.4608   17.4417   39.2316 C   0  0  0  0  0  0  0  0  0  0  0  0
   -4.1289   17.7622   40.4708 O   0  0  0  0  0  0  0  0  0  0  0  0
   -2.0450   10.8679   37.2785 C   0  0  1  0  0  0  0  0  0  0  0  0
   -1.1856   10.0683   36.5045 O   0  0  0  0  0  0  0  0  0  0  0  0
    0.2106   11.1624   32.1072 C   0  0  0  0  0  0  0  0  0  0  0  0
    2.9841    9.3471   34.2947 C   0  0  0  0  0  0  0  0  0  0  0  0
  1  2  1  1  0  0  0
  1  6  1  0  0  0  0
  1 21  1  0  0  0  0
  3  4  1  6  0  0  0
  3  8  1  0  0  0  0
  3 28  1  0  0  0  0
  5  9  1  0  0  0  0
  5 25  1  0  0  0  0
  5 29  1  1  0  0  0
  6  7  1  1  0  0  0
  6 11  1  0  0  0  0
  8 12  1  0  0  0  0
  9 10  1  1  0  0  0
  9 14  1  0  0  0  0
 11 16  1  0  0  0  0
 12 13  1  6  0  0  0
 12 17  1  0  0  0  0
 14 15  1  6  0  0  0
 14 18  1  0  0  0  0
 15 31  1  0  0  0  0
 16 20  1  0  0  0  0
 17  2  1  1  0  0  0
 17 22  1  0  0  0  0
 18 19  1  6  0  0  0
 18 24  1  0  0  0  0
 18 30  1  0  0  0  0
 20 21  1  0  0  0  0
 20 26  1  1  0  0  0
 22 23  1  6  0  0  0
 22 28  1  0  0  0  0
 24 25  1  0  0  0  0
 26 27  1  0  0  0  0
 28 29  1  1  0  0  0
M  END
>  <CHROM.1>
-163.36465014,-178.46666859,-108.25794939,-170.57998296,-23.43193458,69.38969392
-1.25268972,12.13799945,37.26197520,-1.82781390,-0.66201342,-2.55361344

>  <Name>
ligand

>  <RI>
0

>  <Rbt.Current_Directory>
/home/itssahil/PROJECTS/Mol_Feturizer/New_Systems/rnas/4GPY

>  <Rbt.Executable>
rbdock ($Id: //depot/dev/client3/rdock/2013.1/src/exe/rbdock.cxx#4 $)

>  <Rbt.Library>
libRbt.so (2013.1, Build901 2013/11/27)

>  <Rbt.Parameter_File>
/export/apps/rDock/src/rDock_2013.1_src/data/scripts/dock_solv.prm

>  <Rbt.Receptor>
prm/pocket_docking_7.prm

>  <SCORE>
-8.15059

>  <SCORE.INTER>
-5.0904

>  <SCORE.INTER.CONST>
1

>  <SCORE.INTER.POLAR>
0

>  <SCORE.INTER.ROT>
6

>  <SCORE.INTER.SOLV>
12.2087

>  <SCORE.INTER.VDW>
-15.0632

>  <SCORE.INTER.norm>
-0.164206

>  <SCORE.INTRA>
-3.06019

>  <SCORE.INTRA.DIHEDRAL>
-9.13784

>  <SCORE.INTRA.DIHEDRAL.0>
14.7001

>  <SCORE.INTRA.POLAR>
0

>  <SCORE.INTRA.POLAR.0>
0

>  <SCORE.INTRA.REPUL>
0

>  <SCORE.INTRA.REPUL.0>
0

>  <SCORE.INTRA.SOLV>
-1.16386

>  <SCORE.INTRA.SOLV.lig_0>
-65.3082

>  <SCORE.INTRA.VDW>
2.09066

>  <SCORE.INTRA.VDW.0>
-4.21408

>  <SCORE.INTRA.norm>
-0.0987159

>  <SCORE.RESTR>
0

>  <SCORE.RESTR.CAVITY>
0

>  <SCORE.RESTR.norm>
0

>  <SCORE.SYSTEM>
0

>  <SCORE.SYSTEM.CONST>
0

>  <SCORE.SYSTEM.DIHEDRAL>
0

>  <SCORE.SYSTEM.SOLV>
0

>  <SCORE.SYSTEM.norm>
0

>  <SCORE.heavy>
31

>  <SCORE.norm>
-0.262922

>  <RMSD>
5.918

$$$$
ligand
 OpenBabel11021811493D
libRbt.so/2013.1/901 2013/11/27
 31 33  0  0  0  0  0  0  0  0999 V2000
   -0.5743   14.8893   38.9763 C   0  0  2  0  0  0  0  0  0  0  0  0
   -1.2010   13.7958   39.6188 O   0  0  0  0  0  0  0  0  0  0  0  0
   -2.6374   10.0508   38.2147 C   0  0  2  0  0  0  0  0  0  0  0  0
   -3.4348    9.1023   37.5138 N   0  0  0  0  0  0  0  0  0  0  0  0
   -1.5550    9.2497   35.3676 C   0  0  2  0  0  0  0  0  0  0  0  0
    0.5307   15.4733   39.9593 C   0  0  2  0  0  0  0  0  0  0  0  0
    1.4802   14.4172   40.2936 N   0  0  0  0  0  0  0  0  0  0  0  0
   -3.5958   10.9097   39.1546 C   0  0  0  0  0  0  0  0  0  0  0  0
   -0.2592    8.5946   34.7820 C   0  0  2  0  0  0  0  0  0  0  0  0
    0.4948    8.0535   35.8459 O   0  0  0  0  0  0  0  0  0  0  0  0
   -0.1384   16.0652   41.2539 C   0  0  0  0  0  0  0  0  0  0  0  0
   -2.7063   11.9536   39.9462 C   0  0  2  0  0  0  0  0  0  0  0  0
   -3.5699   12.7463   40.8222 N   0  0  0  0  0  0  0  0  0  0  0  0
    0.5592    9.7009   34.0219 C   0  0  1  0  0  0  0  0  0  0  0  0
    1.8147    9.1040   33.4631 N   0  0  0  0  0  0  0  0  0  0  0  0
   -1.4825   16.8389   40.9210 C   0  0  0  0  0  0  0  0  0  0  0  0
   -1.9752   12.8980   38.9066 C   0  0  2  0  0  0  0  0  0  0  0  0
   -0.3498   10.2820   32.8037 C   0  0  1  0  0  0  0  0  0  0  0  0
   -0.7153    9.2934   31.8611 O   0  0  0  0  0  0  0  0  0  0  0  0
   -2.0741   16.7278   39.7068 C   0  0  1  0  0  0  0  0  0  0  0  0
   -1.5501   15.9281   38.6504 O   0  0  0  0  0  0  0  0  0  0  0  0
   -1.0432   12.0315   37.9610 C   0  0  2  0  0  0  0  0  0  0  0  0
   -0.3931   12.8978   37.0085 O   0  0  0  0  0  0  0  0  0  0  0  0
   -1.6561   10.8965   33.3898 C   0  0  0  0  0  0  0  0  0  0  0  0
   -2.3735    9.8683   34.2474 O   0  0  0  0  0  0  0  0  0  0  0  0
   -3.3569   17.4415   39.3528 C   0  0  0  0  0  0  0  0  0  0  0  0
   -4.3706   16.9345   40.2474 O   0  0  0  0  0  0  0  0  0  0  0  0
   -1.9298   10.9883   37.1795 C   0  0  1  0  0  0  0  0  0  0  0  0
   -1.0822   10.2291   36.3536 O   0  0  0  0  0  0  0  0  0  0  0  0
    0.3235   11.3837   31.9749 C   0  0  0  0  0  0  0  0  0  0  0  0
    3.0697    9.4462   34.1640 C   0  0  0  0  0  0  0  0  0  0  0  0
  1  2  1  1  0  0  0
  1  6  1  0  0  0  0
  1 21  1  0  0  0  0
  3  4  1  6  0  0  0
  3  8  1  0  0  0  0
  3 28  1  0  0  0  0
  5  9  1  0  0  0  0
  5 25  1  0  0  0  0
  5 29  1  1  0  0  0
  6  7  1  1  0  0  0
  6 11  1  0  0  0  0
  8 12  1  0  0  0  0
  9 10  1  1  0  0  0
  9 14  1  0  0  0  0
 11 16  1  0  0  0  0
 12 13  1  1  0  0  0
 12 17  1  0  0  0  0
 14 15  1  6  0  0  0
 14 18  1  0  0  0  0
 15 31  1  0  0  0  0
 16 20  1  0  0  0  0
 17  2  1  1  0  0  0
 17 22  1  0  0  0  0
 18 19  1  6  0  0  0
 18 24  1  0  0  0  0
 18 30  1  0  0  0  0
 20 21  1  0  0  0  0
 20 26  1  1  0  0  0
 22 23  1  6  0  0  0
 22 28  1  0  0  0  0
 24 25  1  0  0  0  0
 26 27  1  0  0  0  0
 28 29  1  6  0  0  0
M  END
>  <CHROM.1>
-164.71341211,-175.88702214,-105.59071668,-171.00576524,-62.29501694,68.14759761
-1.15051589,12.20157328,37.19513496,-1.82215822,-0.62510582,-2.49758345

>  <Name>
ligand

>  <RI>
0

>  <Rbt.Current_Directory>
/home/itssahil/PROJECTS/Mol_Feturizer/New_Systems/rnas/4GPY

>  <Rbt.Executable>
rbdock ($Id: //depot/dev/client3/rdock/2013.1/src/exe/rbdock.cxx#4 $)

>  <Rbt.Library>
libRbt.so (2013.1, Build901 2013/11/27)

>  <Rbt.Parameter_File>
/export/apps/rDock/src/rDock_2013.1_src/data/scripts/dock_solv.prm

>  <Rbt.Receptor>
prm/pocket_docking_7.prm

>  <SCORE>
-8.36462

>  <SCORE.INTER>
-4.96873

>  <SCORE.INTER.CONST>
1

>  <SCORE.INTER.POLAR>
0

>  <SCORE.INTER.ROT>
6

>  <SCORE.INTER.SOLV>
11.3648

>  <SCORE.INTER.VDW>
-14.7007

>  <SCORE.INTER.norm>
-0.160281

>  <SCORE.INTRA>
-3.39968

>  <SCORE.INTRA.DIHEDRAL>
-8.1706

>  <SCORE.INTRA.DIHEDRAL.0>
14.7001

>  <SCORE.INTRA.POLAR>
0

>  <SCORE.INTRA.POLAR.0>
0

>  <SCORE.INTRA.REPUL>
0

>  <SCORE.INTRA.REPUL.0>
0

>  <SCORE.INTRA.SOLV>
-1.20371

>  <SCORE.INTRA.SOLV.lig_0>
-65.3082

>  <SCORE.INTRA.VDW>
1.28747

>  <SCORE.INTRA.VDW.0>
-4.21408

>  <SCORE.INTRA.norm>
-0.109667

>  <SCORE.RESTR>
0.0037915

>  <SCORE.RESTR.CAVITY>
0.0037915

>  <SCORE.RESTR.norm>
0.000122306

>  <SCORE.SYSTEM>
0

>  <SCORE.SYSTEM.CONST>
0

>  <SCORE.SYSTEM.DIHEDRAL>
0

>  <SCORE.SYSTEM.SOLV>
0

>  <SCORE.SYSTEM.norm>
0

>  <SCORE.heavy>
31

>  <SCORE.norm>
-0.269826

>  <RMSD>
5.970

$$$$
ligand
 OpenBabel11021811493D
libRbt.so/2013.1/901 2013/11/27
 31 33  0  0  0  0  0  0  0  0999 V2000
    1.5755   20.1357   36.4506 C   0  0  2  0  0  0  0  0  0  0  0  0
    2.2400   18.8942   36.5863 O   0  0  0  0  0  0  0  0  0  0  0  0
    1.0694   15.0919   38.0803 C   0  0  2  0  0  0  0  0  0  0  0  0
    0.3395   13.8777   38.2212 N   0  0  0  0  0  0  0  0  0  0  0  0
    2.2998   12.6828   36.8584 C   0  0  2  0  0  0  0  0  0  0  0  0
    1.0035   20.2312   34.9702 C   0  0  2  0  0  0  0  0  0  0  0  0
    0.1106   19.1030   34.7283 N   0  0  0  0  0  0  0  0  0  0  0  0
    0.0547   16.3071   38.2630 C   0  0  0  0  0  0  0  0  0  0  0  0
    3.0886   12.4228   38.1856 C   0  0  2  0  0  0  0  0  0  0  0  0
    2.7005   13.3888   39.1392 O   0  0  0  0  0  0  0  0  0  0  0  0
    2.1781   20.2593   33.9245 C   0  0  0  0  0  0  0  0  0  0  0  0
    0.8699   17.6575   38.1225 C   0  0  2  0  0  0  0  0  0  0  0  0
   -0.0457   18.7858   38.2966 N   0  0  0  0  0  0  0  0  0  0  0  0
    4.6272   12.5249   37.8797 C   0  0  1  0  0  0  0  0  0  0  0  0
    5.4073   12.2950   39.1379 N   0  0  0  0  0  0  0  0  0  0  0  0
    3.3956   21.1414   34.4300 C   0  0  0  0  0  0  0  0  0  0  0  0
    1.5297   17.7116   36.6842 C   0  0  2  0  0  0  0  0  0  0  0  0
    5.0213   11.3865   36.7856 C   0  0  1  0  0  0  0  0  0  0  0  0
    4.7577   10.0708   37.2316 O   0  0  0  0  0  0  0  0  0  0  0  0
    3.4748   21.5564   35.7176 C   0  0  1  0  0  0  0  0  0  0  0  0
    2.4933   21.2455   36.7026 O   0  0  0  0  0  0  0  0  0  0  0  0
    2.5185   16.4855   36.5034 C   0  0  2  0  0  0  0  0  0  0  0  0
    3.1034   16.5349   35.1859 O   0  0  0  0  0  0  0  0  0  0  0  0
    4.2034   11.6270   35.4815 C   0  0  0  0  0  0  0  0  0  0  0  0
    2.7193   11.6754   35.8016 O   0  0  0  0  0  0  0  0  0  0  0  0
    4.6201   22.3907   36.2399 C   0  0  0  0  0  0  0  0  0  0  0  0
    5.3829   21.5377   37.1204 O   0  0  0  0  0  0  0  0  0  0  0  0
    1.7063   15.1426   36.6510 C   0  0  1  0  0  0  0  0  0  0  0  0
    2.6037   14.0718   36.4931 O   0  0  0  0  0  0  0  0  0  0  0  0
    6.5017   11.3744   36.3829 C   0  0  0  0  0  0  0  0  0  0  0  0
    5.8439   13.5040   39.8667 C   0  0  0  0  0  0  0  0  0  0  0  0
  1  2  1  6  0  0  0
  1  6  1  0  0  0  0
  1 21  1  0  0  0  0
  3  4  1  6  0  0  0
  3  8  1  0  0  0  0
  3 28  1  0  0  0  0
  5  9  1  0  0  0  0
  5 25  1  0  0  0  0
  5 29  1  6  0  0  0
  6  7  1  6  0  0  0
  6 11  1  0  0  0  0
  8 12  1  0  0  0  0
  9 10  1  1  0  0  0
  9 14  1  0  0  0  0
 11 16  1  0  0  0  0
 12 13  1  6  0  0  0
 12 17  1  0  0  0  0
 14 15  1  1  0  0  0
 14 18  1  0  0  0  0
 15 31  1  0  0  0  0
 16 20  1  0  0  0  0
 17  2  1  1  0  0  0
 17 22  1  0  0  0  0
 18 19  1  1  0  0  0
 18 24  1  0  0  0  0
 18 30  1  0  0  0  0
 20 21  1  0  0  0  0
 20 26  1  1  0  0  0
 22 23  1  6  0  0  0
 22 28  1  0  0  0  0
 24 25  1  0  0  0  0
 26 27  1  0  0  0  0
 28 29  1  1  0  0  0
M  END
>  <CHROM.1>
-73.73727046,-104.86156590,-96.62816349,-73.07569342,-109.95143532,47.04083916
2.85681139,16.15251418,36.84459261,1.75494282,0.09981702,-0.19126386

>  <Name>
ligand

>  <RI>
0

>  <Rbt.Current_Directory>
/home/itssahil/PROJECTS/Mol_Feturizer/New_Systems/rnas/4GPY

>  <Rbt.Executable>
rbdock ($Id: //depot/dev/client3/rdock/2013.1/src/exe/rbdock.cxx#4 $)

>  <Rbt.Library>
libRbt.so (2013.1, Build901 2013/11/27)

>  <Rbt.Parameter_File>
/export/apps/rDock/src/rDock_2013.1_src/data/scripts/dock_solv.prm

>  <Rbt.Receptor>
prm/blind_docking_100.prm

>  <SCORE>
9.36246

>  <SCORE.INTER>
1.83407

>  <SCORE.INTER.CONST>
1

>  <SCORE.INTER.POLAR>
0

>  <SCORE.INTER.ROT>
6

>  <SCORE.INTER.SOLV>
22.1927

>  <SCORE.INTER.VDW>
-13.7748

>  <SCORE.INTER.norm>
0.0591636

>  <SCORE.INTRA>
4.5571

>  <SCORE.INTRA.DIHEDRAL>
-3.4506

>  <SCORE.INTRA.DIHEDRAL.0>
14.7001

>  <SCORE.INTRA.POLAR>
0

>  <SCORE.INTRA.POLAR.0>
0

>  <SCORE.INTRA.REPUL>
0

>  <SCORE.INTRA.REPUL.0>
0

>  <SCORE.INTRA.SOLV>
4.56828

>  <SCORE.INTRA.SOLV.lig_0>
-65.3082

>  <SCORE.INTRA.VDW>
3.99826

>  <SCORE.INTRA.VDW.0>
-4.21408

>  <SCORE.INTRA.norm>
0.147003

>  <SCORE.RESTR>
2.97128

>  <SCORE.RESTR.CAVITY>
2.97128

>  <SCORE.RESTR.norm>
0.0958478

>  <SCORE.SYSTEM>
0

>  <SCORE.SYSTEM.CONST>
0

>  <SCORE.SYSTEM.DIHEDRAL>
0

>  <SCORE.SYSTEM.SOLV>
0

>  <SCORE.SYSTEM.norm>
0

>  <SCORE.heavy>
31

>  <SCORE.norm>
0.302015

>  <RMSD>
5.998

$$$$
ligand
 OpenBabel11021811493D
libRbt.so/2013.1/901 2013/11/27
 31 33  0  0  0  0  0  0  0  0999 V2000
    3.7898   19.5928   34.8153 C   0  0  2  0  0  0  0  0  0  0  0  0
    3.3947   18.8518   35.9538 O   0  0  0  0  0  0  0  0  0  0  0  0
    0.9599   15.5464   37.0516 C   0  0  2  0  0  0  0  0  0  0  0  0
    0.2264   14.3311   36.9414 N   0  0  0  0  0  0  0  0  0  0  0  0
    2.4753   12.9898   37.8748 C   0  0  2  0  0  0  0  0  0  0  0  0
    4.8604   20.6743   35.2761 C   0  0  2  0  0  0  0  0  0  0  0  0
    5.9876   19.9942   35.9050 N   0  0  0  0  0  0  0  0  0  0  0  0
    0.3761   16.5789   35.9873 C   0  0  0  0  0  0  0  0  0  0  0  0
    3.3755   12.3659   38.9936 C   0  0  2  0  0  0  0  0  0  0  0  0
    3.3115   13.1901   40.1380 O   0  0  0  0  0  0  0  0  0  0  0  0
    4.2070   21.7155   36.2575 C   0  0  0  0  0  0  0  0  0  0  0  0
    1.1813   17.9358   36.1216 C   0  0  2  0  0  0  0  0  0  0  0  0
    0.6520   18.9002   35.1563 N   0  0  0  0  0  0  0  0  0  0  0  0
    4.8489   12.2716   38.4535 C   0  0  1  0  0  0  0  0  0  0  0  0
    5.7370   11.6911   39.5112 N   0  0  0  0  0  0  0  0  0  0  0  0
    2.7361   22.1046   35.8092 C   0  0  0  0  0  0  0  0  0  0  0  0
    2.7113   17.6563   35.8252 C   0  0  2  0  0  0  0  0  0  0  0  0
    4.8671   11.3052   37.1444 C   0  0  1  0  0  0  0  0  0  0  0  0
    4.4238    9.9904   37.4169 O   0  0  0  0  0  0  0  0  0  0  0  0
    2.0785   21.3906   34.8636 C   0  0  1  0  0  0  0  0  0  0  0  0
    2.6400   20.2586   34.2052 O   0  0  0  0  0  0  0  0  0  0  0  0
    3.2763   16.6100   36.8739 C   0  0  2  0  0  0  0  0  0  0  0  0
    4.6659   16.3507   36.5873 O   0  0  0  0  0  0  0  0  0  0  0  0
    3.9380   11.9106   36.0500 C   0  0  0  0  0  0  0  0  0  0  0  0
    2.5480   12.1393   36.6182 O   0  0  0  0  0  0  0  0  0  0  0  0
    0.6757   21.7236   34.4145 C   0  0  0  0  0  0  0  0  0  0  0  0
    0.3312   20.7627   33.3932 O   0  0  0  0  0  0  0  0  0  0  0  0
    2.4685   15.2627   36.7435 C   0  0  1  0  0  0  0  0  0  0  0  0
    2.9826   14.3543   37.6856 O   0  0  0  0  0  0  0  0  0  0  0  0
    6.2490   11.1275   36.5020 C   0  0  0  0  0  0  0  0  0  0  0  0
    6.2088   12.6255   40.5541 C   0  0  0  0  0  0  0  0  0  0  0  0
  1  2  1  1  0  0  0
  1  6  1  0  0  0  0
  1 21  1  0  0  0  0
  3  4  1  6  0  0  0
  3  8  1  0  0  0  0
  3 28  1  0  0  0  0
  5  9  1  0  0  0  0
  5 25  1  0  0  0  0
  5 29  1  6  0  0  0
  6  7  1  1  0  0  0
  6 11  1  0  0  0  0
  8 12  1  0  0  0  0
  9 10  1  1  0  0  0
  9 14  1  0  0  0  0
 11 16  1  0  0  0  0
 12 13  1  6  0  0  0
 12 17  1  0  0  0  0
 14 15  1  1  0  0  0
 14 18  1  0  0  0  0
 15 31  1  0  0  0  0
 16 20  1  0  0  0  0
 17  2  1  1  0  0  0
 17 22  1  0  0  0  0
 18 19  1  1  0  0  0
 18 24  1  0  0  0  0
 18 30  1  0  0  0  0
 20 21  1  0  0  0  0
 20 26  1  1  0  0  0
 22 23  1  6  0  0  0
 22 28  1  0  0  0  0
 24 25  1  0  0  0  0
 26 27  1  0  0  0  0
 28 29  1  1  0  0  0
M  END
>  <CHROM.1>
-165.20010836,178.64724311,-81.14673989,-101.99269987,179.11603877,60.89931096
3.17526831,16.17666766,36.61874324,-1.78673937,0.28594234,2.85850044

>  <Name>
ligand

>  <RI>
0

>  <Rbt.Current_Directory>
/home/itssahil/PROJECTS/Mol_Feturizer/New_Systems/rnas/4GPY

>  <Rbt.Executable>
rbdock ($Id: //depot/dev/client3/rdock/2013.1/src/exe/rbdock.cxx#4 $)

>  <Rbt.Library>
libRbt.so (2013.1, Build901 2013/11/27)

>  <Rbt.Parameter_File>
/export/apps/rDock/src/rDock_2013.1_src/data/scripts/dock_solv.prm

>  <Rbt.Receptor>
prm/blind_docking_100.prm

>  <SCORE>
-1.98565

>  <SCORE.INTER>
-8.25964

>  <SCORE.INTER.CONST>
1

>  <SCORE.INTER.POLAR>
0

>  <SCORE.INTER.ROT>
6

>  <SCORE.INTER.SOLV>
15.1904

>  <SCORE.INTER.VDW>
-18.1699

>  <SCORE.INTER.norm>
-0.26644

>  <SCORE.INTRA>
2.40186

>  <SCORE.INTRA.DIHEDRAL>
-4.00619

>  <SCORE.INTRA.DIHEDRAL.0>
14.7001

>  <SCORE.INTRA.POLAR>
0

>  <SCORE.INTRA.POLAR.0>
0

>  <SCORE.INTRA.REPUL>
0

>  <SCORE.INTRA.REPUL.0>
0

>  <SCORE.INTRA.SOLV>
3.99552

>  <SCORE.INTRA.SOLV.lig_0>
-65.3082

>  <SCORE.INTRA.VDW>
2.40719

>  <SCORE.INTRA.VDW.0>
-4.21408

>  <SCORE.INTRA.norm>
0.0774793

>  <SCORE.RESTR>
3.87214

>  <SCORE.RESTR.CAVITY>
3.87214

>  <SCORE.RESTR.norm>
0.124908

>  <SCORE.SYSTEM>
0

>  <SCORE.SYSTEM.CONST>
0

>  <SCORE.SYSTEM.DIHEDRAL>
0

>  <SCORE.SYSTEM.SOLV>
0

>  <SCORE.SYSTEM.norm>
0

>  <SCORE.heavy>
31

>  <SCORE.norm>
-0.0640532

>  <RMSD>
6.009

$$$$
ligand
 OpenBabel11021811493D
libRbt.so/2013.1/901 2013/11/27
 31 33  0  0  0  0  0  0  0  0999 V2000
    2.6150   11.8719   37.0328 C   0  0  2  0  0  0  0  0  0  0  0  0
    2.3967   10.8040   37.9346 O   0  0  0  0  0  0  0  0  0  0  0  0
    0.0208   10.6327   41.4539 C   0  0  2  0  0  0  0  0  0  0  0  0
   -0.3892   10.8387   42.8017 N   0  0  0  0  0  0  0  0  0  0  0  0
   -1.8502   13.0086   41.9334 C   0  0  2  0  0  0  0  0  0  0  0  0
    3.2118   11.2694   35.6879 C   0  0  2  0  0  0  0  0  0  0  0  0
    2.2814   10.2816   35.1518 N   0  0  0  0  0  0  0  0  0  0  0  0
    1.4285    9.8858   41.4701 C   0  0  0  0  0  0  0  0  0  0  0  0
   -2.9784   13.9790   41.4471 C   0  0  2  0  0  0  0  0  0  0  0  0
   -3.7139   13.3415   40.4244 O   0  0  0  0  0  0  0  0  0  0  0  0
    4.6269   10.6336   35.9472 C   0  0  0  0  0  0  0  0  0  0  0  0
    1.8762    9.6422   39.9708 C   0  0  2  0  0  0  0  0  0  0  0  0
    3.1648    8.9483   39.9663 N   0  0  0  0  0  0  0  0  0  0  0  0
   -2.3073   15.2975   40.9153 C   0  0  1  0  0  0  0  0  0  0  0  0
   -3.3651   16.2401   40.4283 N   0  0  0  0  0  0  0  0  0  0  0  0
    5.4904   11.5077   36.9503 C   0  0  0  0  0  0  0  0  0  0  0  0
    2.0113   11.0411   39.2415 C   0  0  2  0  0  0  0  0  0  0  0  0
   -1.4832   15.9948   42.1330 C   0  0  1  0  0  0  0  0  0  0  0  0
   -2.3020   16.3419   43.2323 O   0  0  0  0  0  0  0  0  0  0  0  0
    4.9279   12.5047   37.6757 C   0  0  1  0  0  0  0  0  0  0  0  0
    3.5467   12.8462   37.5986 O   0  0  0  0  0  0  0  0  0  0  0  0
    0.6120   11.7865   39.2521 C   0  0  2  0  0  0  0  0  0  0  0  0
    0.7480   13.0653   38.5990 O   0  0  0  0  0  0  0  0  0  0  0  0
   -0.3884   15.0084   42.6390 C   0  0  0  0  0  0  0  0  0  0  0  0
   -1.0213   13.6797   43.0151 O   0  0  0  0  0  0  0  0  0  0  0  0
    5.7131   13.3544   38.6461 C   0  0  0  0  0  0  0  0  0  0  0  0
    5.5734   14.7215   38.2029 O   0  0  0  0  0  0  0  0  0  0  0  0
    0.1648   12.0213   40.7454 C   0  0  1  0  0  0  0  0  0  0  0  0
   -1.0788   12.6771   40.7291 O   0  0  0  0  0  0  0  0  0  0  0  0
   -0.7644   17.2960   41.7536 C   0  0  0  0  0  0  0  0  0  0  0  0
   -3.0153   17.0648   39.2532 C   0  0  0  0  0  0  0  0  0  0  0  0
  1  2  1  1  0  0  0
  1  6  1  0  0  0  0
  1 21  1  0  0  0  0
  3  4  1  1  0  0  0
  3  8  1  0  0  0  0
  3 28  1  0  0  0  0
  5  9  1  0  0  0  0
  5 25  1  0  0  0  0
  5 29  1  6  0  0  0
  6  7  1  1  0  0  0
  6 11  1  0  0  0  0
  8 12  1  0  0  0  0
  9 10  1  6  0  0  0
  9 14  1  0  0  0  0
 11 16  1  0  0  0  0
 12 13  1  1  0  0  0
 12 17  1  0  0  0  0
 14 15  1  1  0  0  0
 14 18  1  0  0  0  0
 15 31  1  0  0  0  0
 16 20  1  0  0  0  0
 17  2  1  6  0  0  0
 17 22  1  0  0  0  0
 18 19  1  1  0  0  0
 18 24  1  0  0  0  0
 18 30  1  0  0  0  0
 20 21  1  0  0  0  0
 20 26  1  1  0  0  0
 22 23  1  1  0  0  0
 22 28  1  0  0  0  0
 24 25  1  0  0  0  0
 26 27  1  0  0  0  0
 28 29  1  6  0  0  0
M  END
>  <CHROM.1>
173.20061197,168.31028091,-144.71155318,-179.23768646,121.24636526,58.39413761
0.81962299,12.87131898,39.75413217,-0.31689632,0.68196561,-0.23084426

>  <Name>
ligand

>  <RI>
0

>  <Rbt.Current_Directory>
/home/itssahil/PROJECTS/Mol_Feturizer/New_Systems/rnas/4GPY

>  <Rbt.Executable>
rbdock ($Id: //depot/dev/client3/rdock/2013.1/src/exe/rbdock.cxx#4 $)

>  <Rbt.Library>
libRbt.so (2013.1, Build901 2013/11/27)

>  <Rbt.Parameter_File>
/export/apps/rDock/src/rDock_2013.1_src/data/scripts/dock_solv.prm

>  <Rbt.Receptor>
prm/pocket_docking_6.prm

>  <SCORE>
-6.1497

>  <SCORE.INTER>
-2.15869

>  <SCORE.INTER.CONST>
1

>  <SCORE.INTER.POLAR>
0

>  <SCORE.INTER.ROT>
6

>  <SCORE.INTER.SOLV>
6.28721

>  <SCORE.INTER.VDW>
-11.1349

>  <SCORE.INTER.norm>
-0.0696351

>  <SCORE.INTRA>
-3.99101

>  <SCORE.INTRA.DIHEDRAL>
-11.3493

>  <SCORE.INTRA.DIHEDRAL.0>
14.7001

>  <SCORE.INTRA.POLAR>
0

>  <SCORE.INTRA.POLAR.0>
0

>  <SCORE.INTRA.REPUL>
0

>  <SCORE.INTRA.REPUL.0>
0

>  <SCORE.INTRA.SOLV>
-0.996587

>  <SCORE.INTRA.SOLV.lig_0>
-65.3082

>  <SCORE.INTRA.VDW>
2.18193

>  <SCORE.INTRA.VDW.0>
-4.21408

>  <SCORE.INTRA.norm>
-0.128742

>  <SCORE.RESTR>
0

>  <SCORE.RESTR.CAVITY>
0

>  <SCORE.RESTR.norm>
0

>  <SCORE.SYSTEM>
0

>  <SCORE.SYSTEM.CONST>
0

>  <SCORE.SYSTEM.DIHEDRAL>
0

>  <SCORE.SYSTEM.SOLV>
0

>  <SCORE.SYSTEM.norm>
0

>  <SCORE.heavy>
31

>  <SCORE.norm>
-0.198377

>  <RMSD>
6.028

$$$$
ligand
 OpenBabel11021811493D
libRbt.so/2013.1/901 2013/11/27
 31 33  0  0  0  0  0  0  0  0999 V2000
    3.8958   19.6696   34.9948 C   0  0  2  0  0  0  0  0  0  0  0  0
    3.3588   18.9900   36.1133 O   0  0  0  0  0  0  0  0  0  0  0  0
    1.0649   15.5805   37.1966 C   0  0  2  0  0  0  0  0  0  0  0  0
    0.3139   14.3781   37.0667 N   0  0  0  0  0  0  0  0  0  0  0  0
    2.5939   12.9993   37.6549 C   0  0  2  0  0  0  0  0  0  0  0  0
    4.6615   20.9600   35.5209 C   0  0  2  0  0  0  0  0  0  0  0  0
    5.6982   20.5507   36.4624 N   0  0  0  0  0  0  0  0  0  0  0  0
    0.3534   16.7090   36.3249 C   0  0  0  0  0  0  0  0  0  0  0  0
    3.4250   12.3986   38.8380 C   0  0  2  0  0  0  0  0  0  0  0  0
    3.3293   13.2686   39.9457 O   0  0  0  0  0  0  0  0  0  0  0  0
    3.6541   21.9666   36.1888 C   0  0  0  0  0  0  0  0  0  0  0  0
    1.1799   18.0505   36.4828 C   0  0  2  0  0  0  0  0  0  0  0  0
    0.5350   19.1017   35.6949 N   0  0  0  0  0  0  0  0  0  0  0  0
    4.9189   12.2479   38.3720 C   0  0  1  0  0  0  0  0  0  0  0  0
    5.7418   11.6883   39.4920 N   0  0  0  0  0  0  0  0  0  0  0  0
    2.2871   22.0496   35.3886 C   0  0  0  0  0  0  0  0  0  0  0  0
    2.6551   17.8093   35.9605 C   0  0  2  0  0  0  0  0  0  0  0  0
    4.9726   11.2304   37.1032 C   0  0  1  0  0  0  0  0  0  0  0  0
    4.4835    9.9384   37.4046 O   0  0  0  0  0  0  0  0  0  0  0  0
    1.9779   21.1417   34.4312 C   0  0  1  0  0  0  0  0  0  0  0  0
    2.8351   20.0629   34.0686 O   0  0  0  0  0  0  0  0  0  0  0  0
    3.3457   16.6685   36.8181 C   0  0  2  0  0  0  0  0  0  0  0  0
    4.6831   16.4456   36.3260 O   0  0  0  0  0  0  0  0  0  0  0  0
    4.1111   11.8144   35.9438 C   0  0  0  0  0  0  0  0  0  0  0  0
    2.7027   12.0985   36.4366 O   0  0  0  0  0  0  0  0  0  0  0  0
    0.6848   21.1815   33.6523 C   0  0  0  0  0  0  0  0  0  0  0  0
    0.3333   19.8103   33.3673 O   0  0  0  0  0  0  0  0  0  0  0  0
    2.5172   15.3361   36.6652 C   0  0  1  0  0  0  0  0  0  0  0  0
    3.1444   14.3428   37.4378 O   0  0  0  0  0  0  0  0  0  0  0  0
    6.3777   10.9945   36.5341 C   0  0  0  0  0  0  0  0  0  0  0  0
    6.1977   12.6534   40.5139 C   0  0  0  0  0  0  0  0  0  0  0  0
  1  2  1  1  0  0  0
  1  6  1  0  0  0  0
  1 21  1  0  0  0  0
  3  4  1  6  0  0  0
  3  8  1  0  0  0  0
  3 28  1  0  0  0  0
  5  9  1  0  0  0  0
  5 25  1  0  0  0  0
  5 29  1  6  0  0  0
  6  7  1  1  0  0  0
  6 11  1  0  0  0  0
  8 12  1  0  0  0  0
  9 10  1  1  0  0  0
  9 14  1  0  0  0  0
 11 16  1  0  0  0  0
 12 13  1  6  0  0  0
 12 17  1  0  0  0  0
 14 15  1  1  0  0  0
 14 18  1  0  0  0  0
 15 31  1  0  0  0  0
 16 20  1  0  0  0  0
 17  2  1  1  0  0  0
 17 22  1  0  0  0  0
 18 19  1  1  0  0  0
 18 24  1  0  0  0  0
 18 30  1  0  0  0  0
 20 21  1  0  0  0  0
 20 26  1  1  0  0  0
 22 23  1  6  0  0  0
 22 28  1  0  0  0  0
 24 25  1  0  0  0  0
 26 27  1  0  0  0  0
 28 29  1  1  0  0  0
M  END
>  <CHROM.1>
-178.84292180,-166.03023052,-81.61200911,-117.99230065,-147.14069216,55.24284713
3.17233397,16.16914116,36.59164313,-1.80824198,0.33313417,2.88362086

>  <Name>
ligand

>  <RI>
0

>  <Rbt.Current_Directory>
/home/itssahil/PROJECTS/Mol_Feturizer/New_Systems/rnas/4GPY

>  <Rbt.Executable>
rbdock ($Id: //depot/dev/client3/rdock/2013.1/src/exe/rbdock.cxx#4 $)

>  <Rbt.Library>
libRbt.so (2013.1, Build901 2013/11/27)

>  <Rbt.Parameter_File>
/export/apps/rDock/src/rDock_2013.1_src/data/scripts/dock_solv.prm

>  <Rbt.Receptor>
prm/blind_docking_100.prm

>  <SCORE>
-0.516645

>  <SCORE.INTER>
-6.83879

>  <SCORE.INTER.CONST>
1

>  <SCORE.INTER.POLAR>
0

>  <SCORE.INTER.ROT>
6

>  <SCORE.INTER.SOLV>
15.2405

>  <SCORE.INTER.VDW>
-17.2394

>  <SCORE.INTER.norm>
-0.220606

>  <SCORE.INTRA>
2.81076

>  <SCORE.INTRA.DIHEDRAL>
-3.634

>  <SCORE.INTRA.DIHEDRAL.0>
14.7001

>  <SCORE.INTRA.POLAR>
0

>  <SCORE.INTRA.POLAR.0>
0

>  <SCORE.INTRA.REPUL>
0

>  <SCORE.INTRA.REPUL.0>
0

>  <SCORE.INTRA.SOLV>
4.00511

>  <SCORE.INTRA.SOLV.lig_0>
-65.3082

>  <SCORE.INTRA.VDW>
2.6252

>  <SCORE.INTRA.VDW.0>
-4.21408

>  <SCORE.INTRA.norm>
0.0906696

>  <SCORE.RESTR>
3.51139

>  <SCORE.RESTR.CAVITY>
3.51139

>  <SCORE.RESTR.norm>
0.113271

>  <SCORE.SYSTEM>
0

>  <SCORE.SYSTEM.CONST>
0

>  <SCORE.SYSTEM.DIHEDRAL>
0

>  <SCORE.SYSTEM.SOLV>
0

>  <SCORE.SYSTEM.norm>
0

>  <SCORE.heavy>
31

>  <SCORE.norm>
-0.016666

>  <RMSD>
6.045

$$$$
ligand
 OpenBabel11021811493D
libRbt.so/2013.1/901 2013/11/27
 31 33  0  0  0  0  0  0  0  0999 V2000
    4.7452   19.4320   35.6398 C   0  0  2  0  0  0  0  0  0  0  0  0
    3.7879   18.8618   36.5114 O   0  0  0  0  0  0  0  0  0  0  0  0
    1.3076   15.4382   36.9434 C   0  0  2  0  0  0  0  0  0  0  0  0
    0.5457   14.2867   36.5962 N   0  0  0  0  0  0  0  0  0  0  0  0
    2.6851   12.7813   37.2972 C   0  0  2  0  0  0  0  0  0  0  0  0
    5.4708   20.6185   36.4103 C   0  0  2  0  0  0  0  0  0  0  0  0
    6.0817   20.0958   37.6278 N   0  0  0  0  0  0  0  0  0  0  0  0
    0.7222   16.6838   36.1400 C   0  0  0  0  0  0  0  0  0  0  0  0
    3.3158   12.0623   38.5366 C   0  0  2  0  0  0  0  0  0  0  0  0
    3.1036   12.8623   39.6804 O   0  0  0  0  0  0  0  0  0  0  0  0
    4.4512   21.7708   36.7369 C   0  0  0  0  0  0  0  0  0  0  0  0
    1.5595   17.9673   36.5391 C   0  0  2  0  0  0  0  0  0  0  0  0
    1.0294   19.1243   35.8164 N   0  0  0  0  0  0  0  0  0  0  0  0
    4.8523   11.8638   38.2697 C   0  0  1  0  0  0  0  0  0  0  0  0
    5.4856   11.1903   39.4486 N   0  0  0  0  0  0  0  0  0  0  0  0
    3.4404   22.0195   35.5401 C   0  0  0  0  0  0  0  0  0  0  0  0
    3.0760   17.7328   36.1491 C   0  0  2  0  0  0  0  0  0  0  0  0
    5.0393   10.9295   36.9506 C   0  0  1  0  0  0  0  0  0  0  0  0
    4.4577    9.6481   37.0890 O   0  0  0  0  0  0  0  0  0  0  0  0
    3.3341   21.1378   34.5164 C   0  0  1  0  0  0  0  0  0  0  0  0
    4.1048   19.9426   34.4287 O   0  0  0  0  0  0  0  0  0  0  0  0
    3.6419   16.4773   36.9348 C   0  0  2  0  0  0  0  0  0  0  0  0
    5.0186   16.2626   36.5624 O   0  0  0  0  0  0  0  0  0  0  0  0
    4.3744   11.6319   35.7291 C   0  0  0  0  0  0  0  0  0  0  0  0
    2.9244   11.9571   36.0438 O   0  0  0  0  0  0  0  0  0  0  0  0
    2.3797   21.3341   33.3627 C   0  0  0  0  0  0  0  0  0  0  0  0
    1.4150   20.2626   33.4394 O   0  0  0  0  0  0  0  0  0  0  0  0
    2.8022   15.2024   36.5416 C   0  0  1  0  0  0  0  0  0  0  0  0
    3.3178   14.1053   37.2540 O   0  0  0  0  0  0  0  0  0  0  0  0
    6.4988   10.6576   36.5634 C   0  0  0  0  0  0  0  0  0  0  0  0
    5.9951   12.0789   40.5136 C   0  0  0  0  0  0  0  0  0  0  0  0
  1  2  1  1  0  0  0
  1  6  1  0  0  0  0
  1 21  1  0  0  0  0
  3  4  1  6  0  0  0
  3  8  1  0  0  0  0
  3 28  1  0  0  0  0
  5  9  1  0  0  0  0
  5 25  1  0  0  0  0
  5 29  1  6  0  0  0
  6  7  1  1  0  0  0
  6 11  1  0  0  0  0
  8 12  1  0  0  0  0
  9 10  1  1  0  0  0
  9 14  1  0  0  0  0
 11 16  1  0  0  0  0
 12 13  1  6  0  0  0
 12 17  1  0  0  0  0
 14 15  1  1  0  0  0
 14 18  1  0  0  0  0
 15 31  1  0  0  0  0
 16 20  1  0  0  0  0
 17  2  1  1  0  0  0
 17 22  1  0  0  0  0
 18 19  1  1  0  0  0
 18 24  1  0  0  0  0
 18 30  1  0  0  0  0
 20 21  1  0  0  0  0
 20 26  1  1  0  0  0
 22 23  1  6  0  0  0
 22 28  1  0  0  0  0
 24 25  1  0  0  0  0
 26 27  1  0  0  0  0
 28 29  1  1  0  0  0
M  END
>  <CHROM.1>
-174.64787510,-161.91539956,-89.31547179,-135.51595836,-115.00366434,52.69552688
3.58872292,15.98616332,36.63509389,-1.70111854,0.44700198,2.92160303

>  <Name>
ligand

>  <RI>
0

>  <Rbt.Current_Directory>
/home/itssahil/PROJECTS/Mol_Feturizer/New_Systems/rnas/4GPY

>  <Rbt.Executable>
rbdock ($Id: //depot/dev/client3/rdock/2013.1/src/exe/rbdock.cxx#4 $)

>  <Rbt.Library>
libRbt.so (2013.1, Build901 2013/11/27)

>  <Rbt.Parameter_File>
/export/apps/rDock/src/rDock_2013.1_src/data/scripts/dock_solv.prm

>  <Rbt.Receptor>
prm/blind_docking_100.prm

>  <SCORE>
-4.8758

>  <SCORE.INTER>
-9.44876

>  <SCORE.INTER.CONST>
1

>  <SCORE.INTER.POLAR>
0

>  <SCORE.INTER.ROT>
6

>  <SCORE.INTER.SOLV>
19.1882

>  <SCORE.INTER.VDW>
-20.2952

>  <SCORE.INTER.norm>
-0.304799

>  <SCORE.INTRA>
0.184498

>  <SCORE.INTRA.DIHEDRAL>
-4.42849

>  <SCORE.INTRA.DIHEDRAL.0>
14.7001

>  <SCORE.INTRA.POLAR>
0

>  <SCORE.INTRA.POLAR.0>
0

>  <SCORE.INTRA.REPUL>
0

>  <SCORE.INTRA.REPUL.0>
0

>  <SCORE.INTRA.SOLV>
2.77443

>  <SCORE.INTRA.SOLV.lig_0>
-65.3082

>  <SCORE.INTRA.VDW>
1.01153

>  <SCORE.INTRA.VDW.0>
-4.21408

>  <SCORE.INTRA.norm>
0.00595155

>  <SCORE.RESTR>
4.38846

>  <SCORE.RESTR.CAVITY>
4.38846

>  <SCORE.RESTR.norm>
0.141563

>  <SCORE.SYSTEM>
0

>  <SCORE.SYSTEM.CONST>
0

>  <SCORE.SYSTEM.DIHEDRAL>
0

>  <SCORE.SYSTEM.SOLV>
0

>  <SCORE.SYSTEM.norm>
0

>  <SCORE.heavy>
31

>  <SCORE.norm>
-0.157284

>  <RMSD>
6.051

$$$$
ligand
 OpenBabel11021811493D
libRbt.so/2013.1/901 2013/11/27
 31 33  0  0  0  0  0  0  0  0999 V2000
    3.9127   19.0040   35.2992 C   0  0  2  0  0  0  0  0  0  0  0  0
    3.5489   18.4513   36.5496 O   0  0  0  0  0  0  0  0  0  0  0  0
    1.5873   15.1210   38.3163 C   0  0  2  0  0  0  0  0  0  0  0  0
    0.8636   13.9000   38.4272 N   0  0  0  0  0  0  0  0  0  0  0  0
    5.0063   13.4141   37.8417 C   0  0  2  0  0  0  0  0  0  0  0  0
    4.7463   20.3308   35.5686 C   0  0  2  0  0  0  0  0  0  0  0  0
    5.9121   20.0065   36.3838 N   0  0  0  0  0  0  0  0  0  0  0  0
    0.6998   16.1525   37.4867 C   0  0  0  0  0  0  0  0  0  0  0  0
    4.6511   12.2475   36.8597 C   0  0  2  0  0  0  0  0  0  0  0  0
    3.8203   12.7543   35.8369 O   0  0  0  0  0  0  0  0  0  0  0  0
    3.8481   21.4152   36.2695 C   0  0  0  0  0  0  0  0  0  0  0  0
    1.4982   17.5158   37.3778 C   0  0  2  0  0  0  0  0  0  0  0  0
    0.6933   18.4792   36.6256 N   0  0  0  0  0  0  0  0  0  0  0  0
    3.9156   11.1194   37.6708 C   0  0  1  0  0  0  0  0  0  0  0  0
    3.5496    9.9948   36.7510 N   0  0  0  0  0  0  0  0  0  0  0  0
    2.3772   21.4345   35.6762 C   0  0  0  0  0  0  0  0  0  0  0  0
    2.8672   17.2505   36.6279 C   0  0  2  0  0  0  0  0  0  0  0  0
    4.9183   10.5656   38.8266 C   0  0  1  0  0  0  0  0  0  0  0  0
    6.1134   10.0144   38.3096 O   0  0  0  0  0  0  0  0  0  0  0  0
    1.9303   20.4369   34.8752 C   0  0  1  0  0  0  0  0  0  0  0  0
    2.7255   19.3143   34.5043 O   0  0  0  0  0  0  0  0  0  0  0  0
    3.7320   16.2051   37.4482 C   0  0  2  0  0  0  0  0  0  0  0  0
    4.9701   15.9587   36.7506 O   0  0  0  0  0  0  0  0  0  0  0  0
    5.2999   11.7399   39.7768 C   0  0  0  0  0  0  0  0  0  0  0  0
    5.8766   12.8918   38.9720 O   0  0  0  0  0  0  0  0  0  0  0  0
    0.5357   20.4142   34.2964 C   0  0  0  0  0  0  0  0  0  0  0  0
    0.6807   20.5549   32.8668 O   0  0  0  0  0  0  0  0  0  0  0  0
    2.9323   14.8514   37.5617 C   0  0  1  0  0  0  0  0  0  0  0  0
    3.7152   13.9439   38.2969 O   0  0  0  0  0  0  0  0  0  0  0  0
    4.3255    9.4586   39.7082 C   0  0  0  0  0  0  0  0  0  0  0  0
    2.3299    9.2364   37.0985 C   0  0  0  0  0  0  0  0  0  0  0  0
  1  2  1  1  0  0  0
  1  6  1  0  0  0  0
  1 21  1  0  0  0  0
  3  4  1  6  0  0  0
  3  8  1  0  0  0  0
  3 28  1  0  0  0  0
  5  9  1  0  0  0  0
  5 25  1  0  0  0  0
  5 29  1  1  0  0  0
  6  7  1  1  0  0  0
  6 11  1  0  0  0  0
  8 12  1  0  0  0  0
  9 10  1  6  0  0  0
  9 14  1  0  0  0  0
 11 16  1  0  0  0  0
 12 13  1  6  0  0  0
 12 17  1  0  0  0  0
 14 15  1  6  0  0  0
 14 18  1  0  0  0  0
 15 31  1  0  0  0  0
 16 20  1  0  0  0  0
 17  2  1  1  0  0  0
 17 22  1  0  0  0  0
 18 19  1  6  0  0  0
 18 24  1  0  0  0  0
 18 30  1  0  0  0  0
 20 21  1  0  0  0  0
 20 26  1  1  0  0  0
 22 23  1  6  0  0  0
 22 28  1  0  0  0  0
 24 25  1  0  0  0  0
 26 27  1  0  0  0  0
 28 29  1  1  0  0  0
M  END
>  <CHROM.1>
-176.86470584,-81.26693595,-149.40844078,-120.75538360,113.86062312,176.43823517
3.35533450,15.59521571,36.91574894,-1.76728764,0.24938821,2.87798278

>  <Name>
ligand

>  <RI>
0

>  <Rbt.Current_Directory>
/home/itssahil/PROJECTS/Mol_Feturizer/New_Systems/rnas/4GPY

>  <Rbt.Executable>
rbdock ($Id: //depot/dev/client3/rdock/2013.1/src/exe/rbdock.cxx#4 $)

>  <Rbt.Library>
libRbt.so (2013.1, Build901 2013/11/27)

>  <Rbt.Parameter_File>
/export/apps/rDock/src/rDock_2013.1_src/data/scripts/dock_solv.prm

>  <Rbt.Receptor>
prm/blind_docking_80.prm

>  <SCORE>
-1.72545

>  <SCORE.INTER>
-6.16502

>  <SCORE.INTER.CONST>
1

>  <SCORE.INTER.POLAR>
0

>  <SCORE.INTER.ROT>
6

>  <SCORE.INTER.SOLV>
14.641

>  <SCORE.INTER.VDW>
-16.5903

>  <SCORE.INTER.norm>
-0.198872

>  <SCORE.INTRA>
0.630495

>  <SCORE.INTRA.DIHEDRAL>
-3.02731

>  <SCORE.INTRA.DIHEDRAL.0>
14.7001

>  <SCORE.INTRA.POLAR>
0

>  <SCORE.INTRA.POLAR.0>
0

>  <SCORE.INTRA.REPUL>
0

>  <SCORE.INTRA.REPUL.0>
0

>  <SCORE.INTRA.SOLV>
1.69538

>  <SCORE.INTRA.SOLV.lig_0>
-65.3082

>  <SCORE.INTRA.VDW>
1.29646

>  <SCORE.INTRA.VDW.0>
-4.21408

>  <SCORE.INTRA.norm>
0.0203386

>  <SCORE.RESTR>
3.80908

>  <SCORE.RESTR.CAVITY>
3.80908

>  <SCORE.RESTR.norm>
0.122873

>  <SCORE.SYSTEM>
0

>  <SCORE.SYSTEM.CONST>
0

>  <SCORE.SYSTEM.DIHEDRAL>
0

>  <SCORE.SYSTEM.SOLV>
0

>  <SCORE.SYSTEM.norm>
0

>  <SCORE.heavy>
31

>  <SCORE.norm>
-0.0556596

>  <RMSD>
6.057

$$$$
ligand
 OpenBabel11021811493D
libRbt.so/2013.1/901 2013/11/27
 31 33  0  0  0  0  0  0  0  0999 V2000
    1.6633   18.8870   34.5751 C   0  0  2  0  0  0  0  0  0  0  0  0
    1.6065   18.7446   35.9815 O   0  0  0  0  0  0  0  0  0  0  0  0
    1.1035   15.4286   38.5912 C   0  0  2  0  0  0  0  0  0  0  0  0
    0.4997   14.3065   39.2262 N   0  0  0  0  0  0  0  0  0  0  0  0
    3.5000   14.1074   36.4485 C   0  0  2  0  0  0  0  0  0  0  0  0
    2.9808   19.7002   34.2132 C   0  0  2  0  0  0  0  0  0  0  0  0
    4.1415   18.9894   34.7388 N   0  0  0  0  0  0  0  0  0  0  0  0
    0.1532   16.6906   38.8009 C   0  0  0  0  0  0  0  0  0  0  0  0
    4.1422   12.7347   36.8415 C   0  0  2  0  0  0  0  0  0  0  0  0
    3.3981   11.6977   36.2381 O   0  0  0  0  0  0  0  0  0  0  0  0
    2.9032   21.1624   34.7875 C   0  0  0  0  0  0  0  0  0  0  0  0
    0.8331   17.9420   38.1086 C   0  0  2  0  0  0  0  0  0  0  0  0
   -0.0226   19.1139   38.2989 N   0  0  0  0  0  0  0  0  0  0  0  0
    4.1179   12.6028   38.4078 C   0  0  1  0  0  0  0  0  0  0  0  0
    4.7137   11.2889   38.8121 N   0  0  0  0  0  0  0  0  0  0  0  0
    1.4491   21.7780   34.6365 C   0  0  0  0  0  0  0  0  0  0  0  0
    1.0066   17.6427   36.5635 C   0  0  2  0  0  0  0  0  0  0  0  0
    4.9958   13.8131   39.0501 C   0  0  1  0  0  0  0  0  0  0  0  0
    6.3484   13.7990   38.6381 O   0  0  0  0  0  0  0  0  0  0  0  0
    0.3881   21.0005   34.3103 C   0  0  1  0  0  0  0  0  0  0  0  0
    0.4866   19.5982   34.0779 O   0  0  0  0  0  0  0  0  0  0  0  0
    1.9333   16.3715   36.3661 C   0  0  2  0  0  0  0  0  0  0  0  0
    2.0737   16.0979   34.9570 O   0  0  0  0  0  0  0  0  0  0  0  0
    4.3751   15.1766   38.6222 C   0  0  0  0  0  0  0  0  0  0  0  0
    4.2626   15.2432   37.1089 O   0  0  0  0  0  0  0  0  0  0  0  0
   -1.0123   21.5461   34.1640 C   0  0  0  0  0  0  0  0  0  0  0  0
   -1.5352   21.0126   32.9284 O   0  0  0  0  0  0  0  0  0  0  0  0
    1.2581   15.1288   37.0624 C   0  0  1  0  0  0  0  0  0  0  0  0
    2.0996   14.0173   36.8795 O   0  0  0  0  0  0  0  0  0  0  0  0
    5.0532   13.8153   40.5832 C   0  0  0  0  0  0  0  0  0  0  0  0
    3.9068   10.0867   38.5173 C   0  0  0  0  0  0  0  0  0  0  0  0
  1  2  1  1  0  0  0
  1  6  1  0  0  0  0
  1 21  1  0  0  0  0
  3  4  1  1  0  0  0
  3  8  1  0  0  0  0
  3 28  1  0  0  0  0
  5  9  1  0  0  0  0
  5 25  1  0  0  0  0
  5 29  1  1  0  0  0
  6  7  1  1  0  0  0
  6 11  1  0  0  0  0
  8 12  1  0  0  0  0
  9 10  1  6  0  0  0
  9 14  1  0  0  0  0
 11 16  1  0  0  0  0
 12 13  1  6  0  0  0
 12 17  1  0  0  0  0
 14 15  1  6  0  0  0
 14 18  1  0  0  0  0
 15 31  1  0  0  0  0
 16 20  1  0  0  0  0
 17  2  1  6  0  0  0
 17 22  1  0  0  0  0
 18 19  1  6  0  0  0
 18 24  1  0  0  0  0
 18 30  1  0  0  0  0
 20 21  1  0  0  0  0
 20 26  1  1  0  0  0
 22 23  1  6  0  0  0
 22 28  1  0  0  0  0
 24 25  1  0  0  0  0
 26 27  1  0  0  0  0
 28 29  1  1  0  0  0
M  END
>  <CHROM.1>
-149.60059792,161.62788961,-71.29922146,-167.82863310,132.76275183,-103.34564615
2.35322336,16.42036573,36.70334820,-1.98567718,-0.35997860,2.52981734

>  <Name>
ligand

>  <RI>
0

>  <Rbt.Current_Directory>
/home/itssahil/PROJECTS/Mol_Feturizer/New_Systems/rnas/4GPY

>  <Rbt.Executable>
rbdock ($Id: //depot/dev/client3/rdock/2013.1/src/exe/rbdock.cxx#4 $)

>  <Rbt.Library>
libRbt.so (2013.1, Build901 2013/11/27)

>  <Rbt.Parameter_File>
/export/apps/rDock/src/rDock_2013.1_src/data/scripts/dock_solv.prm

>  <Rbt.Receptor>
prm/blind_docking_80.prm

>  <SCORE>
4.02403

>  <SCORE.INTER>
-0.0698659

>  <SCORE.INTER.CONST>
1

>  <SCORE.INTER.POLAR>
0

>  <SCORE.INTER.ROT>
6

>  <SCORE.INTER.SOLV>
22.5307

>  <SCORE.INTER.VDW>
-15.1568

>  <SCORE.INTER.norm>
-0.00225374

>  <SCORE.INTRA>
3.01997

>  <SCORE.INTRA.DIHEDRAL>
-0.8752

>  <SCORE.INTRA.DIHEDRAL.0>
14.7001

>  <SCORE.INTRA.POLAR>
0

>  <SCORE.INTRA.POLAR.0>
0

>  <SCORE.INTRA.REPUL>
0.00524658

>  <SCORE.INTRA.REPUL.0>
0

>  <SCORE.INTRA.SOLV>
-0.524905

>  <SCORE.INTRA.SOLV.lig_0>
-65.3082

>  <SCORE.INTRA.VDW>
3.69379

>  <SCORE.INTRA.VDW.0>
-4.21408

>  <SCORE.INTRA.norm>
0.0974183

>  <SCORE.RESTR>
1.07393

>  <SCORE.RESTR.CAVITY>
1.07393

>  <SCORE.RESTR.norm>
0.0346428

>  <SCORE.SYSTEM>
0

>  <SCORE.SYSTEM.CONST>
0

>  <SCORE.SYSTEM.DIHEDRAL>
0

>  <SCORE.SYSTEM.SOLV>
0

>  <SCORE.SYSTEM.norm>
0

>  <SCORE.heavy>
31

>  <SCORE.norm>
0.129807

>  <RMSD>
6.085

$$$$
ligand
 OpenBabel11021811493D
libRbt.so/2013.1/901 2013/11/27
 31 33  0  0  0  0  0  0  0  0999 V2000
    1.2082   20.1949   34.2388 C   0  0  2  0  0  0  0  0  0  0  0  0
    2.3105   19.3090   34.2762 O   0  0  0  0  0  0  0  0  0  0  0  0
    3.4249   15.8618   36.4976 C   0  0  2  0  0  0  0  0  0  0  0  0
    3.6979   15.0209   37.6136 N   0  0  0  0  0  0  0  0  0  0  0  0
    0.8792   14.2048   37.5377 C   0  0  2  0  0  0  0  0  0  0  0  0
    1.7663   21.6709   34.0433 C   0  0  2  0  0  0  0  0  0  0  0  0
    2.5547   21.7259   32.8169 N   0  0  0  0  0  0  0  0  0  0  0  0
    4.3596   17.1482   36.6027 C   0  0  0  0  0  0  0  0  0  0  0  0
   -0.6698   14.1846   37.7648 C   0  0  2  0  0  0  0  0  0  0  0  0
   -1.3012   13.8494   36.5474 O   0  0  0  0  0  0  0  0  0  0  0  0
    2.6227   22.1075   35.2882 C   0  0  0  0  0  0  0  0  0  0  0  0
    4.0673   18.0753   35.3526 C   0  0  2  0  0  0  0  0  0  0  0  0
    4.9244   19.2591   35.4279 N   0  0  0  0  0  0  0  0  0  0  0  0
   -1.1205   15.6085   38.2557 C   0  0  1  0  0  0  0  0  0  0  0  0
   -2.6037   15.6224   38.4667 N   0  0  0  0  0  0  0  0  0  0  0  0
    1.9790   21.6094   36.6497 C   0  0  0  0  0  0  0  0  0  0  0  0
    2.5440   18.5065   35.3781 C   0  0  2  0  0  0  0  0  0  0  0  0
   -0.3729   15.9394   39.6627 C   0  0  1  0  0  0  0  0  0  0  0  0
   -0.6794   15.0142   40.6870 O   0  0  0  0  0  0  0  0  0  0  0  0
    0.9810   20.6928   36.6603 C   0  0  1  0  0  0  0  0  0  0  0  0
    0.4360   20.1144   35.4777 O   0  0  0  0  0  0  0  0  0  0  0  0
    1.6227   17.2187   35.2977 C   0  0  2  0  0  0  0  0  0  0  0  0
    0.2378   17.6199   35.3363 O   0  0  0  0  0  0  0  0  0  0  0  0
    1.1688   15.9183   39.4387 C   0  0  0  0  0  0  0  0  0  0  0  0
    1.5857   14.5928   38.8253 O   0  0  0  0  0  0  0  0  0  0  0  0
    0.3469   20.1876   37.9343 C   0  0  0  0  0  0  0  0  0  0  0  0
    0.4991   18.7518   37.9289 O   0  0  0  0  0  0  0  0  0  0  0  0
    1.9206   16.2939   36.5390 C   0  0  1  0  0  0  0  0  0  0  0  0
    1.0977   15.1579   36.4427 O   0  0  0  0  0  0  0  0  0  0  0  0
   -0.7141   17.3113   40.2588 C   0  0  0  0  0  0  0  0  0  0  0  0
   -3.2520   14.3058   38.6392 C   0  0  0  0  0  0  0  0  0  0  0  0
  1  2  1  1  0  0  0
  1  6  1  0  0  0  0
  1 21  1  0  0  0  0
  3  4  1  1  0  0  0
  3  8  1  0  0  0  0
  3 28  1  0  0  0  0
  5  9  1  0  0  0  0
  5 25  1  0  0  0  0
  5 29  1  6  0  0  0
  6  7  1  6  0  0  0
  6 11  1  0  0  0  0
  8 12  1  0  0  0  0
  9 10  1  6  0  0  0
  9 14  1  0  0  0  0
 11 16  1  0  0  0  0
 12 13  1  1  0  0  0
 12 17  1  0  0  0  0
 14 15  1  1  0  0  0
 14 18  1  0  0  0  0
 15 31  1  0  0  0  0
 16 20  1  0  0  0  0
 17  2  1  6  0  0  0
 17 22  1  0  0  0  0
 18 19  1  1  0  0  0
 18 24  1  0  0  0  0
 18 30  1  0  0  0  0
 20 21  1  0  0  0  0
 20 26  1  1  0  0  0
 22 23  1  1  0  0  0
 22 28  1  0  0  0  0
 24 25  1  0  0  0  0
 26 27  1  0  0  0  0
 28 29  1  6  0  0  0
M  END
>  <CHROM.1>
120.80679809,122.70828371,20.01942996,-159.02214786,-123.14140521,74.70519623
1.10669704,17.49264490,36.85546656,1.09290547,0.44894973,-0.37057488

>  <Name>
ligand

>  <RI>
0

>  <Rbt.Current_Directory>
/home/itssahil/PROJECTS/Mol_Feturizer/New_Systems/rnas/4GPY

>  <Rbt.Executable>
rbdock ($Id: //depot/dev/client3/rdock/2013.1/src/exe/rbdock.cxx#4 $)

>  <Rbt.Library>
libRbt.so (2013.1, Build901 2013/11/27)

>  <Rbt.Parameter_File>
/export/apps/rDock/src/rDock_2013.1_src/data/scripts/dock_solv.prm

>  <Rbt.Receptor>
prm/blind_docking_60.prm

>  <SCORE>
34.9018

>  <SCORE.INTER>
7.28064

>  <SCORE.INTER.CONST>
1

>  <SCORE.INTER.POLAR>
0

>  <SCORE.INTER.ROT>
6

>  <SCORE.INTER.SOLV>
21.1017

>  <SCORE.INTER.VDW>
-9.78016

>  <SCORE.INTER.norm>
0.234859

>  <SCORE.INTRA>
10.19

>  <SCORE.INTRA.DIHEDRAL>
5.23513

>  <SCORE.INTRA.DIHEDRAL.0>
14.7001

>  <SCORE.INTRA.POLAR>
0

>  <SCORE.INTRA.POLAR.0>
0

>  <SCORE.INTRA.REPUL>
0

>  <SCORE.INTRA.REPUL.0>
0

>  <SCORE.INTRA.SOLV>
3.79799

>  <SCORE.INTRA.SOLV.lig_0>
-65.3082

>  <SCORE.INTRA.VDW>
5.67345

>  <SCORE.INTRA.VDW.0>
-4.21408

>  <SCORE.INTRA.norm>
0.32871

>  <SCORE.RESTR>
17.4312

>  <SCORE.RESTR.CAVITY>
17.4312

>  <SCORE.RESTR.norm>
0.562297

>  <SCORE.SYSTEM>
0

>  <SCORE.SYSTEM.CONST>
0

>  <SCORE.SYSTEM.DIHEDRAL>
0

>  <SCORE.SYSTEM.SOLV>
0

>  <SCORE.SYSTEM.norm>
0

>  <SCORE.heavy>
31

>  <SCORE.norm>
1.12587

>  <RMSD>
6.087

$$$$
ligand
 OpenBabel11021811493D
libRbt.so/2013.1/901 2013/11/27
 31 33  0  0  0  0  0  0  0  0999 V2000
    3.7695   19.6589   34.9027 C   0  0  2  0  0  0  0  0  0  0  0  0
    3.2329   18.9904   36.0280 O   0  0  0  0  0  0  0  0  0  0  0  0
    1.0555   15.5140   37.1388 C   0  0  2  0  0  0  0  0  0  0  0  0
    0.4169   14.2460   37.0334 N   0  0  0  0  0  0  0  0  0  0  0  0
    2.6529   13.1417   38.0932 C   0  0  2  0  0  0  0  0  0  0  0  0
    4.4854   20.9849   35.4099 C   0  0  2  0  0  0  0  0  0  0  0  0
    5.5164   20.6312   36.3797 N   0  0  0  0  0  0  0  0  0  0  0  0
    0.3960   16.4944   36.0693 C   0  0  0  0  0  0  0  0  0  0  0  0
    3.6164   12.5801   39.1921 C   0  0  2  0  0  0  0  0  0  0  0  0
    3.6359   13.4801   40.2797 O   0  0  0  0  0  0  0  0  0  0  0  0
    3.4354   21.9757   36.0343 C   0  0  0  0  0  0  0  0  0  0  0  0
    1.0954   17.9092   36.1981 C   0  0  2  0  0  0  0  0  0  0  0  0
    0.4954   18.8262   35.2281 N   0  0  0  0  0  0  0  0  0  0  0  0
    5.0506   12.4266   38.5667 C   0  0  1  0  0  0  0  0  0  0  0  0
    5.9986   11.9044   39.6027 N   0  0  0  0  0  0  0  0  0  0  0  0
    2.0816   21.9966   35.2080 C   0  0  0  0  0  0  0  0  0  0  0  0
    2.6427   17.7458   35.9043 C   0  0  2  0  0  0  0  0  0  0  0  0
    4.9730   11.3744   37.3279 C   0  0  1  0  0  0  0  0  0  0  0  0
    4.5334   10.0880   37.7167 O   0  0  0  0  0  0  0  0  0  0  0  0
    1.8182   21.0564   34.2683 C   0  0  1  0  0  0  0  0  0  0  0  0
    2.7147   19.9962   33.9481 O   0  0  0  0  0  0  0  0  0  0  0  0
    3.2845   16.7502   36.9582 C   0  0  2  0  0  0  0  0  0  0  0  0
    4.6901   16.5961   36.6740 O   0  0  0  0  0  0  0  0  0  0  0  0
    3.9820   11.9197   36.2563 C   0  0  0  0  0  0  0  0  0  0  0  0
    2.6344   12.2078   36.8952 O   0  0  0  0  0  0  0  0  0  0  0  0
    0.5392   21.0368   33.4657 C   0  0  0  0  0  0  0  0  0  0  0  0
   -0.5451   21.0984   34.4172 O   0  0  0  0  0  0  0  0  0  0  0  0
    2.5817   15.3447   36.8332 C   0  0  1  0  0  0  0  0  0  0  0  0
    3.1623   14.4823   37.7798 O   0  0  0  0  0  0  0  0  0  0  0  0
    6.3083   11.1324   36.6122 C   0  0  0  0  0  0  0  0  0  0  0  0
    6.4817   12.8824   40.5994 C   0  0  0  0  0  0  0  0  0  0  0  0
  1  2  1  1  0  0  0
  1  6  1  0  0  0  0
  1 21  1  0  0  0  0
  3  4  1  6  0  0  0
  3  8  1  0  0  0  0
  3 28  1  0  0  0  0
  5  9  1  0  0  0  0
  5 25  1  0  0  0  0
  5 29  1  6  0  0  0
  6  7  1  1  0  0  0
  6 11  1  0  0  0  0
  8 12  1  0  0  0  0
  9 10  1  1  0  0  0
  9 14  1  0  0  0  0
 11 16  1  0  0  0  0
 12 13  1  6  0  0  0
 12 17  1  0  0  0  0
 14 15  1  1  0  0  0
 14 18  1  0  0  0  0
 15 31  1  0  0  0  0
 16 20  1  0  0  0  0
 17  2  1  1  0  0  0
 17 22  1  0  0  0  0
 18 19  1  1  0  0  0
 18 24  1  0  0  0  0
 18 30  1  0  0  0  0
 20 21  1  0  0  0  0
 20 26  1  1  0  0  0
 22 23  1  6  0  0  0
 22 28  1  0  0  0  0
 24 25  1  0  0  0  0
 26 27  1  0  0  0  0
 28 29  1  1  0  0  0
M  END
>  <CHROM.1>
-174.75229105,-179.93457184,-77.45360660,-112.41577038,-52.05066633,52.88147330
3.12818551,16.25216956,36.68529306,-1.84807192,0.32564435,2.85915362

>  <Name>
ligand

>  <RI>
0

>  <Rbt.Current_Directory>
/home/itssahil/PROJECTS/Mol_Feturizer/New_Systems/rnas/4GPY

>  <Rbt.Executable>
rbdock ($Id: //depot/dev/client3/rdock/2013.1/src/exe/rbdock.cxx#4 $)

>  <Rbt.Library>
libRbt.so (2013.1, Build901 2013/11/27)

>  <Rbt.Parameter_File>
/export/apps/rDock/src/rDock_2013.1_src/data/scripts/dock_solv.prm

>  <Rbt.Receptor>
prm/blind_docking_100.prm

>  <SCORE>
-1.49399

>  <SCORE.INTER>
-7.96576

>  <SCORE.INTER.CONST>
1

>  <SCORE.INTER.POLAR>
0

>  <SCORE.INTER.ROT>
6

>  <SCORE.INTER.SOLV>
14.6533

>  <SCORE.INTER.VDW>
-17.7949

>  <SCORE.INTER.norm>
-0.25696

>  <SCORE.INTRA>
3.14434

>  <SCORE.INTRA.DIHEDRAL>
-3.6402

>  <SCORE.INTRA.DIHEDRAL.0>
14.7001

>  <SCORE.INTRA.POLAR>
0

>  <SCORE.INTRA.POLAR.0>
0

>  <SCORE.INTRA.REPUL>
0

>  <SCORE.INTRA.REPUL.0>
0

>  <SCORE.INTRA.SOLV>
4.15856

>  <SCORE.INTRA.SOLV.lig_0>
-65.3082

>  <SCORE.INTRA.VDW>
2.88516

>  <SCORE.INTRA.VDW.0>
-4.21408

>  <SCORE.INTRA.norm>
0.10143

>  <SCORE.RESTR>
3.32744

>  <SCORE.RESTR.CAVITY>
3.32744

>  <SCORE.RESTR.norm>
0.107337

>  <SCORE.SYSTEM>
0

>  <SCORE.SYSTEM.CONST>
0

>  <SCORE.SYSTEM.DIHEDRAL>
0

>  <SCORE.SYSTEM.SOLV>
0

>  <SCORE.SYSTEM.norm>
0

>  <SCORE.heavy>
31

>  <SCORE.norm>
-0.0481932

>  <RMSD>
6.112

$$$$
ligand
 OpenBabel11021811493D
libRbt.so/2013.1/901 2013/11/27
 31 33  0  0  0  0  0  0  0  0999 V2000
    4.2097   19.7387   35.0133 C   0  0  2  0  0  0  0  0  0  0  0  0
    3.4821   19.1424   36.0699 O   0  0  0  0  0  0  0  0  0  0  0  0
    1.3111   15.6348   37.0912 C   0  0  2  0  0  0  0  0  0  0  0  0
    0.6262   14.3956   36.9425 N   0  0  0  0  0  0  0  0  0  0  0  0
    2.8098   13.2544   37.8902 C   0  0  2  0  0  0  0  0  0  0  0  0
    4.8393   21.0962   35.5508 C   0  0  2  0  0  0  0  0  0  0  0  0
    5.6854   20.8078   36.7039 N   0  0  0  0  0  0  0  0  0  0  0  0
    0.5851   16.7183   36.1754 C   0  0  0  0  0  0  0  0  0  0  0  0
    3.7152   12.7374   39.0582 C   0  0  2  0  0  0  0  0  0  0  0  0
    3.8072   13.7473   40.0405 O   0  0  0  0  0  0  0  0  0  0  0  0
    3.7063   22.1224   35.9212 C   0  0  0  0  0  0  0  0  0  0  0  0
    1.3373   18.1003   36.3538 C   0  0  2  0  0  0  0  0  0  0  0  0
    0.6778   19.1108   35.5256 N   0  0  0  0  0  0  0  0  0  0  0  0
    5.1338   12.3932   38.4747 C   0  0  1  0  0  0  0  0  0  0  0  0
    6.0275   11.9094   39.5756 N   0  0  0  0  0  0  0  0  0  0  0  0
    2.5148   22.0871   34.8748 C   0  0  0  0  0  0  0  0  0  0  0  0
    2.8443   17.9270   35.9002 C   0  0  2  0  0  0  0  0  0  0  0  0
    4.9715   11.2208   37.3579 C   0  0  1  0  0  0  0  0  0  0  0  0
    4.4197   10.0279   37.8792 O   0  0  0  0  0  0  0  0  0  0  0  0
    2.4085   21.0880   33.9654 C   0  0  1  0  0  0  0  0  0  0  0  0
    3.3374   20.0116   33.8722 O   0  0  0  0  0  0  0  0  0  0  0  0
    3.5507   16.8301   36.8010 C   0  0  2  0  0  0  0  0  0  0  0  0
    4.9180   16.6685   36.3714 O   0  0  0  0  0  0  0  0  0  0  0  0
    4.0372   11.7271   36.2185 C   0  0  0  0  0  0  0  0  0  0  0  0
    2.7165   12.1988   36.8019 O   0  0  0  0  0  0  0  0  0  0  0  0
    1.2862   21.0140   32.9578 C   0  0  0  0  0  0  0  0  0  0  0  0
    0.7309   19.6849   33.0567 O   0  0  0  0  0  0  0  0  0  0  0  0
    2.7959   15.4571   36.6276 C   0  0  1  0  0  0  0  0  0  0  0  0
    3.4355   14.5034   37.4389 O   0  0  0  0  0  0  0  0  0  0  0  0
    6.2844   10.7873   36.6930 C   0  0  0  0  0  0  0  0  0  0  0  0
    5.5002   10.8101   40.4105 C   0  0  0  0  0  0  0  0  0  0  0  0
  1  2  1  1  0  0  0
  1  6  1  0  0  0  0
  1 21  1  0  0  0  0
  3  4  1  6  0  0  0
  3  8  1  0  0  0  0
  3 28  1  0  0  0  0
  5  9  1  0  0  0  0
  5 25  1  0  0  0  0
  5 29  1  6  0  0  0
  6  7  1  1  0  0  0
  6 11  1  0  0  0  0
  8 12  1  0  0  0  0
  9 10  1  1  0  0  0
  9 14  1  0  0  0  0
 11 16  1  0  0  0  0
 12 13  1  6  0  0  0
 12 17  1  0  0  0  0
 14 15  1  1  0  0  0
 14 18  1  0  0  0  0
 15 31  1  0  0  0  0
 16 20  1  0  0  0  0
 17  2  1  1  0  0  0
 17 22  1  0  0  0  0
 18 19  1  1  0  0  0
 18 24  1  0  0  0  0
 18 30  1  0  0  0  0
 20 21  1  0  0  0  0
 20 26  1  1  0  0  0
 22 23  1  6  0  0  0
 22 28  1  0  0  0  0
 24 25  1  0  0  0  0
 26 27  1  0  0  0  0
 28 29  1  1  0  0  0
M  END
>  <CHROM.1>
-178.62299697,-164.48503708,52.20163787,-127.72126825,-129.12596097,41.04613023
3.35419013,16.19189486,36.56789893,-1.77914208,0.40656294,2.84665043

>  <Name>
ligand

>  <RI>
0

>  <Rbt.Current_Directory>
/home/itssahil/PROJECTS/Mol_Feturizer/New_Systems/rnas/4GPY

>  <Rbt.Executable>
rbdock ($Id: //depot/dev/client3/rdock/2013.1/src/exe/rbdock.cxx#4 $)

>  <Rbt.Library>
libRbt.so (2013.1, Build901 2013/11/27)

>  <Rbt.Parameter_File>
/export/apps/rDock/src/rDock_2013.1_src/data/scripts/dock_solv.prm

>  <Rbt.Receptor>
prm/blind_docking_80.prm

>  <SCORE>
-2.4262

>  <SCORE.INTER>
-8.63073

>  <SCORE.INTER.CONST>
1

>  <SCORE.INTER.POLAR>
0

>  <SCORE.INTER.ROT>
6

>  <SCORE.INTER.SOLV>
15.133

>  <SCORE.INTER.VDW>
-18.3982

>  <SCORE.INTER.norm>
-0.278411

>  <SCORE.INTRA>
4.17277

>  <SCORE.INTRA.DIHEDRAL>
-3.18463

>  <SCORE.INTRA.DIHEDRAL.0>
14.7001

>  <SCORE.INTRA.POLAR>
0

>  <SCORE.INTRA.POLAR.0>
0

>  <SCORE.INTRA.REPUL>
0

>  <SCORE.INTRA.REPUL.0>
0

>  <SCORE.INTRA.SOLV>
3.93684

>  <SCORE.INTRA.SOLV.lig_0>
-65.3082

>  <SCORE.INTRA.VDW>
3.79666

>  <SCORE.INTRA.VDW.0>
-4.21408

>  <SCORE.INTRA.norm>
0.134605

>  <SCORE.RESTR>
2.03177

>  <SCORE.RESTR.CAVITY>
2.03177

>  <SCORE.RESTR.norm>
0.065541

>  <SCORE.SYSTEM>
0

>  <SCORE.SYSTEM.CONST>
0

>  <SCORE.SYSTEM.DIHEDRAL>
0

>  <SCORE.SYSTEM.SOLV>
0

>  <SCORE.SYSTEM.norm>
0

>  <SCORE.heavy>
31

>  <SCORE.norm>
-0.0782644

>  <RMSD>
6.147

$$$$
ligand
 OpenBabel11021811493D
libRbt.so/2013.1/901 2013/11/27
 31 33  0  0  0  0  0  0  0  0999 V2000
    2.7550   18.6389   35.3454 C   0  0  2  0  0  0  0  0  0  0  0  0
    2.0699   18.4230   36.5642 O   0  0  0  0  0  0  0  0  0  0  0  0
    1.4487   14.7782   38.6592 C   0  0  2  0  0  0  0  0  0  0  0  0
    0.8902   13.5168   39.0110 N   0  0  0  0  0  0  0  0  0  0  0  0
    4.4958   14.0479   37.3317 C   0  0  2  0  0  0  0  0  0  0  0  0
    3.9321   19.6729   35.6161 C   0  0  2  0  0  0  0  0  0  0  0  0
    4.8107   19.1379   36.6507 N   0  0  0  0  0  0  0  0  0  0  0  0
    0.2854   15.8667   38.6997 C   0  0  0  0  0  0  0  0  0  0  0  0
    5.2276   12.6639   37.3456 C   0  0  2  0  0  0  0  0  0  0  0  0
    4.8942   11.9639   36.1658 O   0  0  0  0  0  0  0  0  0  0  0  0
    3.3519   21.0740   36.0335 C   0  0  0  0  0  0  0  0  0  0  0  0
    0.9103   17.2725   38.3243 C   0  0  2  0  0  0  0  0  0  0  0  0
   -0.1435   18.2873   38.3652 N   0  0  0  0  0  0  0  0  0  0  0  0
    4.7637   11.8673   38.6191 C   0  0  1  0  0  0  0  0  0  0  0  0
    5.4381   10.5298   38.6500 N   0  0  0  0  0  0  0  0  0  0  0  0
    2.0590   21.4496   35.1949 C   0  0  0  0  0  0  0  0  0  0  0  0
    1.5257   17.1884   36.8679 C   0  0  2  0  0  0  0  0  0  0  0  0
    5.1800   12.7115   39.9466 C   0  0  1  0  0  0  0  0  0  0  0  0
    6.5735   12.9248   40.0564 O   0  0  0  0  0  0  0  0  0  0  0  0
    1.4212   20.5251   34.4365 C   0  0  1  0  0  0  0  0  0  0  0  0
    1.8491   19.1704   34.3283 O   0  0  0  0  0  0  0  0  0  0  0  0
    2.6649   16.0863   36.8320 C   0  0  2  0  0  0  0  0  0  0  0  0
    3.2093   16.0065   35.4987 O   0  0  0  0  0  0  0  0  0  0  0  0
    4.4804   14.1031   39.9067 C   0  0  0  0  0  0  0  0  0  0  0  0
    4.8119   14.8130   38.6054 O   0  0  0  0  0  0  0  0  0  0  0  0
    0.1842   20.8403   33.6298 C   0  0  0  0  0  0  0  0  0  0  0  0
   -0.9316   20.2693   34.3467 O   0  0  0  0  0  0  0  0  0  0  0  0
    2.0421   14.6892   37.2132 C   0  0  1  0  0  0  0  0  0  0  0  0
    3.0704   13.7309   37.1804 O   0  0  0  0  0  0  0  0  0  0  0  0
    4.7787   12.0530   41.2729 C   0  0  0  0  0  0  0  0  0  0  0  0
    5.0730    9.5883   37.5712 C   0  0  0  0  0  0  0  0  0  0  0  0
  1  2  1  1  0  0  0
  1  6  1  0  0  0  0
  1 21  1  0  0  0  0
  3  4  1  6  0  0  0
  3  8  1  0  0  0  0
  3 28  1  0  0  0  0
  5  9  1  0  0  0  0
  5 25  1  0  0  0  0
  5 29  1  1  0  0  0
  6  7  1  1  0  0  0
  6 11  1  0  0  0  0
  8 12  1  0  0  0  0
  9 10  1  6  0  0  0
  9 14  1  0  0  0  0
 11 16  1  0  0  0  0
 12 13  1  6  0  0  0
 12 17  1  0  0  0  0
 14 15  1  1  0  0  0
 14 18  1  0  0  0  0
 15 31  1  0  0  0  0
 16 20  1  0  0  0  0
 17  2  1  1  0  0  0
 17 22  1  0  0  0  0
 18 19  1  6  0  0  0
 18 24  1  0  0  0  0
 18 30  1  0  0  0  0
 20 21  1  0  0  0  0
 20 26  1  1  0  0  0
 22 23  1  6  0  0  0
 22 28  1  0  0  0  0
 24 25  1  0  0  0  0
 26 27  1  0  0  0  0
 28 29  1  1  0  0  0
M  END
>  <CHROM.1>
-145.88122569,175.43952289,-65.93367534,176.89595427,-104.45229589,-95.25045012
3.01387318,15.91770033,37.21572429,-1.96273657,-0.30026773,2.59554309

>  <Name>
ligand

>  <RI>
0

>  <Rbt.Current_Directory>
/home/itssahil/PROJECTS/Mol_Feturizer/New_Systems/rnas/4GPY

>  <Rbt.Executable>
rbdock ($Id: //depot/dev/client3/rdock/2013.1/src/exe/rbdock.cxx#4 $)

>  <Rbt.Library>
libRbt.so (2013.1, Build901 2013/11/27)

>  <Rbt.Parameter_File>
/export/apps/rDock/src/rDock_2013.1_src/data/scripts/dock_solv.prm

>  <Rbt.Receptor>
prm/blind_docking_100.prm

>  <SCORE>
9.69223

>  <SCORE.INTER>
4.63028

>  <SCORE.INTER.CONST>
1

>  <SCORE.INTER.POLAR>
0

>  <SCORE.INTER.ROT>
6

>  <SCORE.INTER.SOLV>
19.575

>  <SCORE.INTER.VDW>
-11.0382

>  <SCORE.INTER.norm>
0.149364

>  <SCORE.INTRA>
1.91193

>  <SCORE.INTRA.DIHEDRAL>
-3.59258

>  <SCORE.INTRA.DIHEDRAL.0>
14.7001

>  <SCORE.INTRA.POLAR>
0

>  <SCORE.INTRA.POLAR.0>
0

>  <SCORE.INTRA.REPUL>
0

>  <SCORE.INTRA.REPUL.0>
0

>  <SCORE.INTRA.SOLV>
-0.587025

>  <SCORE.INTRA.SOLV.lig_0>
-65.3082

>  <SCORE.INTRA.VDW>
4.00174

>  <SCORE.INTRA.VDW.0>
-4.21408

>  <SCORE.INTRA.norm>
0.0616753

>  <SCORE.RESTR>
3.15002

>  <SCORE.RESTR.CAVITY>
3.15002

>  <SCORE.RESTR.norm>
0.101614

>  <SCORE.SYSTEM>
0

>  <SCORE.SYSTEM.CONST>
0

>  <SCORE.SYSTEM.DIHEDRAL>
0

>  <SCORE.SYSTEM.SOLV>
0

>  <SCORE.SYSTEM.norm>
0

>  <SCORE.heavy>
31

>  <SCORE.norm>
0.312653

>  <RMSD>
6.156

$$$$
ligand
 OpenBabel11021811493D
libRbt.so/2013.1/901 2013/11/27
 31 33  0  0  0  0  0  0  0  0999 V2000
    4.1056   19.7463   35.0154 C   0  0  2  0  0  0  0  0  0  0  0  0
    3.3578   19.1656   36.0666 O   0  0  0  0  0  0  0  0  0  0  0  0
    1.2103   15.6478   37.1025 C   0  0  2  0  0  0  0  0  0  0  0  0
    0.5200   14.4112   36.9569 N   0  0  0  0  0  0  0  0  0  0  0  0
    2.7267   13.2563   37.8315 C   0  0  2  0  0  0  0  0  0  0  0  0
    4.7318   21.1076   35.5473 C   0  0  2  0  0  0  0  0  0  0  0  0
    5.5572   20.8296   36.7178 N   0  0  0  0  0  0  0  0  0  0  0  0
    0.4615   16.7433   36.2200 C   0  0  0  0  0  0  0  0  0  0  0  0
    3.6147   12.7678   39.0248 C   0  0  2  0  0  0  0  0  0  0  0  0
    3.6690   13.7904   39.9967 O   0  0  0  0  0  0  0  0  0  0  0  0
    3.5971   22.1427   35.8864 C   0  0  0  0  0  0  0  0  0  0  0  0
    1.2200   18.1223   36.3951 C   0  0  2  0  0  0  0  0  0  0  0  0
    0.5399   19.1436   35.5976 N   0  0  0  0  0  0  0  0  0  0  0  0
    5.0511   12.4401   38.4762 C   0  0  1  0  0  0  0  0  0  0  0  0
    5.9283   11.9839   39.6018 N   0  0  0  0  0  0  0  0  0  0  0  0
    2.4231   22.0997   34.8206 C   0  0  0  0  0  0  0  0  0  0  0  0
    2.7141   17.9530   35.8991 C   0  0  2  0  0  0  0  0  0  0  0  0
    4.9320   11.2523   37.3703 C   0  0  1  0  0  0  0  0  0  0  0  0
    4.3884   10.0566   37.8939 O   0  0  0  0  0  0  0  0  0  0  0  0
    2.3280   21.0902   33.9214 C   0  0  1  0  0  0  0  0  0  0  0  0
    3.2538   20.0091   33.8566 O   0  0  0  0  0  0  0  0  0  0  0  0
    3.4430   16.8443   36.7669 C   0  0  2  0  0  0  0  0  0  0  0  0
    4.7980   16.6867   36.2986 O   0  0  0  0  0  0  0  0  0  0  0  0
    4.0147   11.7299   36.2050 C   0  0  0  0  0  0  0  0  0  0  0  0
    2.6741   12.1866   36.7541 O   0  0  0  0  0  0  0  0  0  0  0  0
    1.2224   21.0087   32.8960 C   0  0  0  0  0  0  0  0  0  0  0  0
    0.5793   19.7298   33.0844 O   0  0  0  0  0  0  0  0  0  0  0  0
    2.6818   15.4743   36.5968 C   0  0  1  0  0  0  0  0  0  0  0  0
    3.3418   14.5100   37.3788 O   0  0  0  0  0  0  0  0  0  0  0  0
    6.2659   10.8327   36.7390 C   0  0  0  0  0  0  0  0  0  0  0  0
    6.3809   13.0292   40.5431 C   0  0  0  0  0  0  0  0  0  0  0  0
  1  2  1  1  0  0  0
  1  6  1  0  0  0  0
  1 21  1  0  0  0  0
  3  4  1  6  0  0  0
  3  8  1  0  0  0  0
  3 28  1  0  0  0  0
  5  9  1  0  0  0  0
  5 25  1  0  0  0  0
  5 29  1  6  0  0  0
  6  7  1  1  0  0  0
  6 11  1  0  0  0  0
  8 12  1  0  0  0  0
  9 10  1  1  0  0  0
  9 14  1  0  0  0  0
 11 16  1  0  0  0  0
 12 13  1  6  0  0  0
 12 17  1  0  0  0  0
 14 15  1  1  0  0  0
 14 18  1  0  0  0  0
 15 31  1  0  0  0  0
 16 20  1  0  0  0  0
 17  2  1  1  0  0  0
 17 22  1  0  0  0  0
 18 19  1  1  0  0  0
 18 24  1  0  0  0  0
 18 30  1  0  0  0  0
 20 21  1  0  0  0  0
 20 26  1  1  0  0  0
 22 23  1  6  0  0  0
 22 28  1  0  0  0  0
 24 25  1  0  0  0  0
 26 27  1  0  0  0  0
 28 29  1  1  0  0  0
M  END
>  <CHROM.1>
-178.84858259,-161.21325646,-73.58300373,-130.46928649,-123.95393035,41.03604490
3.29245502,16.28778448,36.56282261,-1.80281181,0.45074732,2.86005898

>  <Name>
ligand

>  <RI>
0

>  <Rbt.Current_Directory>
/home/itssahil/PROJECTS/Mol_Feturizer/New_Systems/rnas/4GPY

>  <Rbt.Executable>
rbdock ($Id: //depot/dev/client3/rdock/2013.1/src/exe/rbdock.cxx#4 $)

>  <Rbt.Library>
libRbt.so (2013.1, Build901 2013/11/27)

>  <Rbt.Parameter_File>
/export/apps/rDock/src/rDock_2013.1_src/data/scripts/dock_solv.prm

>  <Rbt.Receptor>
prm/blind_docking_80.prm

>  <SCORE>
-3.94768

>  <SCORE.INTER>
-8.58608

>  <SCORE.INTER.CONST>
1

>  <SCORE.INTER.POLAR>
0

>  <SCORE.INTER.ROT>
6

>  <SCORE.INTER.SOLV>
15.9102

>  <SCORE.INTER.VDW>
-18.6274

>  <SCORE.INTER.norm>
-0.27697

>  <SCORE.INTRA>
2.79669

>  <SCORE.INTRA.DIHEDRAL>
-2.93196

>  <SCORE.INTRA.DIHEDRAL.0>
14.7001

>  <SCORE.INTRA.POLAR>
0

>  <SCORE.INTRA.POLAR.0>
0

>  <SCORE.INTRA.REPUL>
0

>  <SCORE.INTRA.REPUL.0>
0

>  <SCORE.INTRA.SOLV>
3.55811

>  <SCORE.INTRA.SOLV.lig_0>
-65.3082

>  <SCORE.INTRA.VDW>
2.48361

>  <SCORE.INTRA.VDW.0>
-4.21408

>  <SCORE.INTRA.norm>
0.0902157

>  <SCORE.RESTR>
1.84171

>  <SCORE.RESTR.CAVITY>
1.84171

>  <SCORE.RESTR.norm>
0.05941

>  <SCORE.SYSTEM>
0

>  <SCORE.SYSTEM.CONST>
0

>  <SCORE.SYSTEM.DIHEDRAL>
0

>  <SCORE.SYSTEM.SOLV>
0

>  <SCORE.SYSTEM.norm>
0

>  <SCORE.heavy>
31

>  <SCORE.norm>
-0.127345

>  <RMSD>
6.167

$$$$
ligand
 OpenBabel11021811493D
libRbt.so/2013.1/901 2013/11/27
 31 33  0  0  0  0  0  0  0  0999 V2000
   -2.3924   16.0887   40.2984 C   0  0  2  0  0  0  0  0  0  0  0  0
   -2.4976   14.8268   40.9293 O   0  0  0  0  0  0  0  0  0  0  0  0
   -3.1294   10.9320   39.3511 C   0  0  2  0  0  0  0  0  0  0  0  0
   -3.7906    9.8250   38.7477 N   0  0  0  0  0  0  0  0  0  0  0  0
   -1.0000   11.2820   37.2037 C   0  0  2  0  0  0  0  0  0  0  0  0
   -1.4540   17.0112   41.1909 C   0  0  2  0  0  0  0  0  0  0  0  0
   -0.1545   16.3658   41.3443 N   0  0  0  0  0  0  0  0  0  0  0  0
   -3.9415   11.3453   40.6585 C   0  0  0  0  0  0  0  0  0  0  0  0
   -0.4849   11.4623   35.7362 C   0  0  2  0  0  0  0  0  0  0  0  0
   -0.6444   12.8147   35.3637 O   0  0  0  0  0  0  0  0  0  0  0  0
   -2.1188   17.2872   42.5894 C   0  0  0  0  0  0  0  0  0  0  0  0
   -3.1965   12.5661   41.3382 C   0  0  2  0  0  0  0  0  0  0  0  0
   -3.9245   12.9539   42.5471 N   0  0  0  0  0  0  0  0  0  0  0  0
   -1.3205   10.5202   34.7951 C   0  0  1  0  0  0  0  0  0  0  0  0
   -0.8582   10.6838   33.3794 N   0  0  0  0  0  0  0  0  0  0  0  0
   -3.6817   17.5258   42.4617 C   0  0  0  0  0  0  0  0  0  0  0  0
   -3.1567   13.7760   40.3177 C   0  0  2  0  0  0  0  0  0  0  0  0
   -1.0936    8.9777   35.2612 C   0  0  1  0  0  0  0  0  0  0  0  0
    0.2578    8.5678   35.1904 O   0  0  0  0  0  0  0  0  0  0  0  0
   -4.3447   17.2363   41.3158 C   0  0  1  0  0  0  0  0  0  0  0  0
   -3.7090   16.7082   40.1551 O   0  0  0  0  0  0  0  0  0  0  0  0
   -2.3679   13.3472   39.0109 C   0  0  2  0  0  0  0  0  0  0  0  0
   -2.3494   14.4501   38.0816 O   0  0  0  0  0  0  0  0  0  0  0  0
   -1.5708    8.8144   36.7353 C   0  0  0  0  0  0  0  0  0  0  0  0
   -0.8690    9.8278   37.6229 O   0  0  0  0  0  0  0  0  0  0  0  0
   -5.8321   17.4419   41.1563 C   0  0  0  0  0  0  0  0  0  0  0  0
   -6.1597   18.6523   41.8721 O   0  0  0  0  0  0  0  0  0  0  0  0
   -3.1072   12.1272   38.3401 C   0  0  1  0  0  0  0  0  0  0  0  0
   -2.3873   11.7618   37.1889 O   0  0  0  0  0  0  0  0  0  0  0  0
   -1.8614    7.9410   34.4308 C   0  0  0  0  0  0  0  0  0  0  0  0
   -1.6679   11.5783   32.5264 C   0  0  0  0  0  0  0  0  0  0  0  0
  1  2  1  1  0  0  0
  1  6  1  0  0  0  0
  1 21  1  0  0  0  0
  3  4  1  6  0  0  0
  3  8  1  0  0  0  0
  3 28  1  0  0  0  0
  5  9  1  0  0  0  0
  5 25  1  0  0  0  0
  5 29  1  6  0  0  0
  6  7  1  1  0  0  0
  6 11  1  0  0  0  0
  8 12  1  0  0  0  0
  9 10  1  6  0  0  0
  9 14  1  0  0  0  0
 11 16  1  0  0  0  0
 12 13  1  1  0  0  0
 12 17  1  0  0  0  0
 14 15  1  6  0  0  0
 14 18  1  0  0  0  0
 15 31  1  0  0  0  0
 16 20  1  0  0  0  0
 17  2  1  1  0  0  0
 17 22  1  0  0  0  0
 18 19  1  6  0  0  0
 18 24  1  0  0  0  0
 18 30  1  0  0  0  0
 20 21  1  0  0  0  0
 20 26  1  1  0  0  0
 22 23  1  6  0  0  0
 22 28  1  0  0  0  0
 24 25  1  0  0  0  0
 26 27  1  0  0  0  0
 28 29  1  6  0  0  0
M  END
>  <CHROM.1>
-174.11284451,-161.61561323,-98.53218591,-175.17830024,37.14118627,-56.35778326
-2.41339693,13.06642712,38.58837482,-2.24615489,-1.14727850,-3.02482085

>  <Name>
ligand

>  <RI>
0

>  <Rbt.Current_Directory>
/home/itssahil/PROJECTS/Mol_Feturizer/New_Systems/rnas/4GPY

>  <Rbt.Executable>
rbdock ($Id: //depot/dev/client3/rdock/2013.1/src/exe/rbdock.cxx#4 $)

>  <Rbt.Library>
libRbt.so (2013.1, Build901 2013/11/27)

>  <Rbt.Parameter_File>
/export/apps/rDock/src/rDock_2013.1_src/data/scripts/dock_solv.prm

>  <Rbt.Receptor>
prm/pocket_docking_6.prm

>  <SCORE>
-8.58934

>  <SCORE.INTER>
-5.72128

>  <SCORE.INTER.CONST>
1

>  <SCORE.INTER.POLAR>
0

>  <SCORE.INTER.ROT>
6

>  <SCORE.INTER.SOLV>
15.0165

>  <SCORE.INTER.VDW>
-16.4197

>  <SCORE.INTER.norm>
-0.184557

>  <SCORE.INTRA>
-2.86806

>  <SCORE.INTRA.DIHEDRAL>
-8.94766

>  <SCORE.INTRA.DIHEDRAL.0>
14.7001

>  <SCORE.INTRA.POLAR>
0

>  <SCORE.INTRA.POLAR.0>
0

>  <SCORE.INTRA.REPUL>
0

>  <SCORE.INTRA.REPUL.0>
0

>  <SCORE.INTRA.SOLV>
-0.574928

>  <SCORE.INTRA.SOLV.lig_0>
-65.3082

>  <SCORE.INTRA.VDW>
1.89323

>  <SCORE.INTRA.VDW.0>
-4.21408

>  <SCORE.INTRA.norm>
-0.0925181

>  <SCORE.RESTR>
0

>  <SCORE.RESTR.CAVITY>
0

>  <SCORE.RESTR.norm>
0

>  <SCORE.SYSTEM>
0

>  <SCORE.SYSTEM.CONST>
0

>  <SCORE.SYSTEM.DIHEDRAL>
0

>  <SCORE.SYSTEM.SOLV>
0

>  <SCORE.SYSTEM.norm>
0

>  <SCORE.heavy>
31

>  <SCORE.norm>
-0.277075

>  <RMSD>
6.185

$$$$
ligand
 OpenBabel11021811493D
libRbt.so/2013.1/901 2013/11/27
 31 33  0  0  0  0  0  0  0  0999 V2000
   -2.3013   15.8755   40.0568 C   0  0  2  0  0  0  0  0  0  0  0  0
   -2.3870   14.6427   40.7454 O   0  0  0  0  0  0  0  0  0  0  0  0
   -2.9429   10.7014   39.2564 C   0  0  2  0  0  0  0  0  0  0  0  0
   -3.5901    9.5591   38.7059 N   0  0  0  0  0  0  0  0  0  0  0  0
   -0.9389   11.1614   36.9791 C   0  0  2  0  0  0  0  0  0  0  0  0
   -1.2854   16.8119   40.8437 C   0  0  2  0  0  0  0  0  0  0  0  0
    0.0088   16.1444   40.9344 N   0  0  0  0  0  0  0  0  0  0  0  0
   -3.6968   11.1010   40.6023 C   0  0  0  0  0  0  0  0  0  0  0  0
   -0.5342   11.3450   35.4778 C   0  0  2  0  0  0  0  0  0  0  0  0
   -0.8269   12.6703   35.0891 O   0  0  0  0  0  0  0  0  0  0  0  0
   -1.8460   17.1587   42.2718 C   0  0  0  0  0  0  0  0  0  0  0  0
   -2.9665   12.3617   41.2227 C   0  0  2  0  0  0  0  0  0  0  0  0
   -3.6410   12.7378   42.4658 N   0  0  0  0  0  0  0  0  0  0  0  0
   -1.3478   10.3152   34.6123 C   0  0  1  0  0  0  0  0  0  0  0  0
   -0.9909   10.4793   33.1666 N   0  0  0  0  0  0  0  0  0  0  0  0
   -3.4091   17.4269   42.2416 C   0  0  0  0  0  0  0  0  0  0  0  0
   -3.0349   13.5565   40.1859 C   0  0  2  0  0  0  0  0  0  0  0  0
   -0.9665    8.8083   35.0939 C   0  0  1  0  0  0  0  0  0  0  0  0
    0.4067    8.5065   34.9435 O   0  0  0  0  0  0  0  0  0  0  0  0
   -4.1555   17.1064   41.1568 C   0  0  1  0  0  0  0  0  0  0  0  0
   -3.6123   16.5180   39.9784 O   0  0  0  0  0  0  0  0  0  0  0  0
   -2.3036   13.1404   38.8421 C   0  0  2  0  0  0  0  0  0  0  0  0
   -2.3836   14.2288   37.8990 O   0  0  0  0  0  0  0  0  0  0  0  0
   -1.3346    8.6449   36.5990 C   0  0  0  0  0  0  0  0  0  0  0  0
   -0.6632    9.7336   37.4182 O   0  0  0  0  0  0  0  0  0  0  0  0
   -5.6462   17.3386   41.0911 C   0  0  0  0  0  0  0  0  0  0  0  0
   -6.1168   17.3815   42.4555 O   0  0  0  0  0  0  0  0  0  0  0  0
   -3.0277   11.8809   38.2303 C   0  0  1  0  0  0  0  0  0  0  0  0
   -2.3590   11.5278   37.0449 O   0  0  0  0  0  0  0  0  0  0  0  0
   -1.6980    7.6925   34.3364 C   0  0  0  0  0  0  0  0  0  0  0  0
   -1.8213   11.4242   32.3913 C   0  0  0  0  0  0  0  0  0  0  0  0
  1  2  1  1  0  0  0
  1  6  1  0  0  0  0
  1 21  1  0  0  0  0
  3  4  1  6  0  0  0
  3  8  1  0  0  0  0
  3 28  1  0  0  0  0
  5  9  1  0  0  0  0
  5 25  1  0  0  0  0
  5 29  1  6  0  0  0
  6  7  1  1  0  0  0
  6 11  1  0  0  0  0
  8 12  1  0  0  0  0
  9 10  1  6  0  0  0
  9 14  1  0  0  0  0
 11 16  1  0  0  0  0
 12 13  1  1  0  0  0
 12 17  1  0  0  0  0
 14 15  1  6  0  0  0
 14 18  1  0  0  0  0
 15 31  1  0  0  0  0
 16 20  1  0  0  0  0
 17  2  1  1  0  0  0
 17 22  1  0  0  0  0
 18 19  1  6  0  0  0
 18 24  1  0  0  0  0
 18 30  1  0  0  0  0
 20 21  1  0  0  0  0
 20 26  1  1  0  0  0
 22 23  1  6  0  0  0
 22 28  1  0  0  0  0
 24 25  1  0  0  0  0
 26 27  1  0  0  0  0
 28 29  1  6  0  0  0
M  END
>  <CHROM.1>
-169.93368138,-160.71961882,-90.81304744,-179.02548383,-23.52219878,-59.10914852
-2.30626910,12.84593521,38.43631079,-2.22689198,-1.15225250,-2.98636888

>  <Name>
ligand

>  <RI>
0

>  <Rbt.Current_Directory>
/home/itssahil/PROJECTS/Mol_Feturizer/New_Systems/rnas/4GPY

>  <Rbt.Executable>
rbdock ($Id: //depot/dev/client3/rdock/2013.1/src/exe/rbdock.cxx#4 $)

>  <Rbt.Library>
libRbt.so (2013.1, Build901 2013/11/27)

>  <Rbt.Parameter_File>
/export/apps/rDock/src/rDock_2013.1_src/data/scripts/dock_solv.prm

>  <Rbt.Receptor>
prm/pocket_docking_6.prm

>  <SCORE>
-8.59247

>  <SCORE.INTER>
-6.05907

>  <SCORE.INTER.CONST>
1

>  <SCORE.INTER.POLAR>
0

>  <SCORE.INTER.ROT>
6

>  <SCORE.INTER.SOLV>
13.537

>  <SCORE.INTER.VDW>
-16.1517

>  <SCORE.INTER.norm>
-0.195454

>  <SCORE.INTRA>
-2.53339

>  <SCORE.INTRA.DIHEDRAL>
-9.56425

>  <SCORE.INTRA.DIHEDRAL.0>
14.7001

>  <SCORE.INTRA.POLAR>
0

>  <SCORE.INTRA.POLAR.0>
0

>  <SCORE.INTRA.REPUL>
0

>  <SCORE.INTRA.REPUL.0>
0

>  <SCORE.INTRA.SOLV>
-0.726075

>  <SCORE.INTRA.SOLV.lig_0>
-65.3082

>  <SCORE.INTRA.VDW>
2.61177

>  <SCORE.INTRA.VDW.0>
-4.21408

>  <SCORE.INTRA.norm>
-0.0817224

>  <SCORE.RESTR>
0

>  <SCORE.RESTR.CAVITY>
0

>  <SCORE.RESTR.norm>
0

>  <SCORE.SYSTEM>
0

>  <SCORE.SYSTEM.CONST>
0

>  <SCORE.SYSTEM.DIHEDRAL>
0

>  <SCORE.SYSTEM.SOLV>
0

>  <SCORE.SYSTEM.norm>
0

>  <SCORE.heavy>
31

>  <SCORE.norm>
-0.277176

>  <RMSD>
6.186

$$$$
ligand
 OpenBabel11021811493D
libRbt.so/2013.1/901 2013/11/27
 31 33  0  0  0  0  0  0  0  0999 V2000
    4.0810   19.4271   35.1856 C   0  0  2  0  0  0  0  0  0  0  0  0
    3.6261   18.9298   36.4295 O   0  0  0  0  0  0  0  0  0  0  0  0
    1.8137   15.5289   38.2209 C   0  0  2  0  0  0  0  0  0  0  0  0
    1.1212   14.2909   38.3416 N   0  0  0  0  0  0  0  0  0  0  0  0
    3.5018   13.1320   38.6699 C   0  0  2  0  0  0  0  0  0  0  0  0
    4.5578   20.9290   35.3980 C   0  0  2  0  0  0  0  0  0  0  0  0
    5.6031   20.9600   36.4153 N   0  0  0  0  0  0  0  0  0  0  0  0
    0.8694   16.5547   37.4490 C   0  0  0  0  0  0  0  0  0  0  0  0
    4.7549   12.1934   38.6620 C   0  0  2  0  0  0  0  0  0  0  0  0
    5.8002   12.8283   39.3674 O   0  0  0  0  0  0  0  0  0  0  0  0
    3.3434   21.8422   35.8045 C   0  0  0  0  0  0  0  0  0  0  0  0
    1.6336   17.9365   37.3295 C   0  0  2  0  0  0  0  0  0  0  0  0
    0.7766   18.8947   36.6301 N   0  0  0  0  0  0  0  0  0  0  0  0
    5.1686   11.9263   37.1690 C   0  0  1  0  0  0  0  0  0  0  0  0
    6.3769   11.0414   37.1318 N   0  0  0  0  0  0  0  0  0  0  0  0
    2.0292   21.4674   34.9992 C   0  0  0  0  0  0  0  0  0  0  0  0
    2.9737   17.7134   36.5161 C   0  0  2  0  0  0  0  0  0  0  0  0
    3.9354   11.1868   36.4071 C   0  0  1  0  0  0  0  0  0  0  0  0
    3.5880    9.9445   36.9862 O   0  0  0  0  0  0  0  0  0  0  0  0
    1.9493   20.3213   34.2804 C   0  0  1  0  0  0  0  0  0  0  0  0
    3.0144   19.3795   34.1868 O   0  0  0  0  0  0  0  0  0  0  0  0
    3.8953   16.6734   37.2795 C   0  0  2  0  0  0  0  0  0  0  0  0
    5.1064   16.4655   36.5244 O   0  0  0  0  0  0  0  0  0  0  0  0
    2.6803   12.1088   36.4536 C   0  0  0  0  0  0  0  0  0  0  0  0
    2.3679   12.4875   37.8910 O   0  0  0  0  0  0  0  0  0  0  0  0
    0.7148   19.9247   33.5065 C   0  0  0  0  0  0  0  0  0  0  0  0
   -0.1738   21.0624   33.5373 O   0  0  0  0  0  0  0  0  0  0  0  0
    3.1296   15.3010   37.4038 C   0  0  1  0  0  0  0  0  0  0  0  0
    3.9628   14.3985   38.0881 O   0  0  0  0  0  0  0  0  0  0  0  0
    4.1969   10.8705   34.9288 C   0  0  0  0  0  0  0  0  0  0  0  0
    6.2579    9.7425   37.8262 C   0  0  0  0  0  0  0  0  0  0  0  0
  1  2  1  1  0  0  0
  1  6  1  0  0  0  0
  1 21  1  0  0  0  0
  3  4  1  6  0  0  0
  3  8  1  0  0  0  0
  3 28  1  0  0  0  0
  5  9  1  0  0  0  0
  5 25  1  0  0  0  0
  5 29  1  6  0  0  0
  6  7  1  1  0  0  0
  6 11  1  0  0  0  0
  8 12  1  0  0  0  0
  9 10  1  1  0  0  0
  9 14  1  0  0  0  0
 11 16  1  0  0  0  0
 12 13  1  6  0  0  0
 12 17  1  0  0  0  0
 14 15  1  1  0  0  0
 14 18  1  0  0  0  0
 15 31  1  0  0  0  0
 16 20  1  0  0  0  0
 17  2  1  1  0  0  0
 17 22  1  0  0  0  0
 18 19  1  1  0  0  0
 18 24  1  0  0  0  0
 18 30  1  0  0  0  0
 20 21  1  0  0  0  0
 20 26  1  1  0  0  0
 22 23  1  6  0  0  0
 22 28  1  0  0  0  0
 24 25  1  0  0  0  0
 26 27  1  0  0  0  0
 28 29  1  1  0  0  0
M  END
>  <CHROM.1>
170.67760251,152.53486516,56.43901847,-129.23544350,8.74855997,46.71609398
3.31861594,15.95585764,36.60602551,-1.79617396,0.18144299,2.92110026

>  <Name>
ligand

>  <RI>
0

>  <Rbt.Current_Directory>
/home/itssahil/PROJECTS/Mol_Feturizer/New_Systems/rnas/4GPY

>  <Rbt.Executable>
rbdock ($Id: //depot/dev/client3/rdock/2013.1/src/exe/rbdock.cxx#4 $)

>  <Rbt.Library>
libRbt.so (2013.1, Build901 2013/11/27)

>  <Rbt.Parameter_File>
/export/apps/rDock/src/rDock_2013.1_src/data/scripts/dock_solv.prm

>  <Rbt.Receptor>
prm/blind_docking_100.prm

>  <SCORE>
6.17524

>  <SCORE.INTER>
-4.96947

>  <SCORE.INTER.CONST>
1

>  <SCORE.INTER.POLAR>
0

>  <SCORE.INTER.ROT>
6

>  <SCORE.INTER.SOLV>
16.1754

>  <SCORE.INTER.VDW>
-16.3048

>  <SCORE.INTER.norm>
-0.160305

>  <SCORE.INTRA>
9.15051

>  <SCORE.INTRA.DIHEDRAL>
-1.7372

>  <SCORE.INTRA.DIHEDRAL.0>
14.7001

>  <SCORE.INTRA.POLAR>
0

>  <SCORE.INTRA.POLAR.0>
0

>  <SCORE.INTRA.REPUL>
0

>  <SCORE.INTRA.REPUL.0>
0

>  <SCORE.INTRA.SOLV>
4.06044

>  <SCORE.INTRA.SOLV.lig_0>
-65.3082

>  <SCORE.INTRA.VDW>
7.98889

>  <SCORE.INTRA.VDW.0>
-4.21408

>  <SCORE.INTRA.norm>
0.295178

>  <SCORE.RESTR>
1.9942

>  <SCORE.RESTR.CAVITY>
1.9942

>  <SCORE.RESTR.norm>
0.0643291

>  <SCORE.SYSTEM>
0

>  <SCORE.SYSTEM.CONST>
0

>  <SCORE.SYSTEM.DIHEDRAL>
0

>  <SCORE.SYSTEM.SOLV>
0

>  <SCORE.SYSTEM.norm>
0

>  <SCORE.heavy>
31

>  <SCORE.norm>
0.199201

>  <RMSD>
6.191

$$$$
ligand
 OpenBabel11021811493D
libRbt.so/2013.1/901 2013/11/27
 31 33  0  0  0  0  0  0  0  0999 V2000
    3.2987   19.3282   34.7839 C   0  0  2  0  0  0  0  0  0  0  0  0
    3.4182   18.7473   36.0683 O   0  0  0  0  0  0  0  0  0  0  0  0
    1.6943   15.6780   38.4488 C   0  0  2  0  0  0  0  0  0  0  0  0
    1.0240   14.4699   38.7925 N   0  0  0  0  0  0  0  0  0  0  0  0
    5.1041   13.9533   37.9900 C   0  0  2  0  0  0  0  0  0  0  0  0
    4.5439   20.2910   34.5587 C   0  0  2  0  0  0  0  0  0  0  0  0
    5.7754   19.5215   34.6992 N   0  0  0  0  0  0  0  0  0  0  0  0
    0.7194   16.5458   37.5345 C   0  0  0  0  0  0  0  0  0  0  0  0
    4.6582   12.6976   37.1681 C   0  0  2  0  0  0  0  0  0  0  0  0
    3.7736   13.1140   36.1497 O   0  0  0  0  0  0  0  0  0  0  0  0
    4.5057   21.4909   35.5751 C   0  0  0  0  0  0  0  0  0  0  0  0
    1.4591   17.8967   37.1660 C   0  0  2  0  0  0  0  0  0  0  0  0
    0.5739   18.7114   36.3327 N   0  0  0  0  0  0  0  0  0  0  0  0
    3.9523   11.6875   38.1442 C   0  0  1  0  0  0  0  0  0  0  0  0
    3.5007   10.4805   37.3801 N   0  0  0  0  0  0  0  0  0  0  0  0
    3.0311   22.0348   35.7890 C   0  0  0  0  0  0  0  0  0  0  0  0
    2.7869   17.5553   36.3739 C   0  0  2  0  0  0  0  0  0  0  0  0
    5.0160   11.2336   39.2890 C   0  0  1  0  0  0  0  0  0  0  0  0
    6.1615   10.5936   38.7622 O   0  0  0  0  0  0  0  0  0  0  0  0
    1.9552   21.3377   35.3498 C   0  0  1  0  0  0  0  0  0  0  0  0
    2.0547   20.0882   34.6722 O   0  0  0  0  0  0  0  0  0  0  0  0
    3.7392   16.6717   37.2829 C   0  0  2  0  0  0  0  0  0  0  0  0
    4.9390   16.3536   36.5483 O   0  0  0  0  0  0  0  0  0  0  0  0
    5.4862   12.4929   40.0769 C   0  0  0  0  0  0  0  0  0  0  0  0
    6.0347   13.5320   39.1142 O   0  0  0  0  0  0  0  0  0  0  0  0
    0.5359   21.8170   35.5399 C   0  0  0  0  0  0  0  0  0  0  0  0
    0.2462   21.6975   36.9494 O   0  0  0  0  0  0  0  0  0  0  0  0
    2.9980   15.3310   37.6544 C   0  0  1  0  0  0  0  0  0  0  0  0
    3.8582   14.5683   38.4640 O   0  0  0  0  0  0  0  0  0  0  0  0
    4.4576   10.2481   40.3238 C   0  0  0  0  0  0  0  0  0  0  0  0
    2.1399    9.9886   37.6791 C   0  0  0  0  0  0  0  0  0  0  0  0
  1  2  1  1  0  0  0
  1  6  1  0  0  0  0
  1 21  1  0  0  0  0
  3  4  1  6  0  0  0
  3  8  1  0  0  0  0
  3 28  1  0  0  0  0
  5  9  1  0  0  0  0
  5 25  1  0  0  0  0
  5 29  1  1  0  0  0
  6  7  1  1  0  0  0
  6 11  1  0  0  0  0
  8 12  1  0  0  0  0
  9 10  1  6  0  0  0
  9 14  1  0  0  0  0
 11 16  1  0  0  0  0
 12 13  1  6  0  0  0
 12 17  1  0  0  0  0
 14 15  1  6  0  0  0
 14 18  1  0  0  0  0
 15 31  1  0  0  0  0
 16 20  1  0  0  0  0
 17  2  1  1  0  0  0
 17 22  1  0  0  0  0
 18 19  1  6  0  0  0
 18 24  1  0  0  0  0
 18 30  1  0  0  0  0
 20 21  1  0  0  0  0
 20 26  1  1  0  0  0
 22 23  1  6  0  0  0
 22 28  1  0  0  0  0
 24 25  1  0  0  0  0
 26 27  1  0  0  0  0
 28 29  1  1  0  0  0
M  END
>  <CHROM.1>
-157.13451567,-76.29430019,-135.69053366,-99.61525713,-70.47787614,173.28872155
3.34727326,16.11600115,37.12360577,-1.78048277,-0.17231275,2.78502887

>  <Name>
ligand

>  <RI>
0

>  <Rbt.Current_Directory>
/home/itssahil/PROJECTS/Mol_Feturizer/New_Systems/rnas/4GPY

>  <Rbt.Executable>
rbdock ($Id: //depot/dev/client3/rdock/2013.1/src/exe/rbdock.cxx#4 $)

>  <Rbt.Library>
libRbt.so (2013.1, Build901 2013/11/27)

>  <Rbt.Parameter_File>
/export/apps/rDock/src/rDock_2013.1_src/data/scripts/dock_solv.prm

>  <Rbt.Receptor>
prm/blind_docking_80.prm

>  <SCORE>
0.423095

>  <SCORE.INTER>
-4.93403

>  <SCORE.INTER.CONST>
1

>  <SCORE.INTER.POLAR>
0

>  <SCORE.INTER.ROT>
6

>  <SCORE.INTER.SOLV>
16.9814

>  <SCORE.INTER.VDW>
-16.5498

>  <SCORE.INTER.norm>
-0.159162

>  <SCORE.INTRA>
1.71244

>  <SCORE.INTRA.DIHEDRAL>
-1.1497

>  <SCORE.INTRA.DIHEDRAL.0>
14.7001

>  <SCORE.INTRA.POLAR>
0

>  <SCORE.INTRA.POLAR.0>
0

>  <SCORE.INTRA.REPUL>
0

>  <SCORE.INTRA.REPUL.0>
0

>  <SCORE.INTRA.SOLV>
2.8003

>  <SCORE.INTRA.SOLV.lig_0>
-65.3082

>  <SCORE.INTRA.VDW>
0.887134

>  <SCORE.INTRA.VDW.0>
-4.21408

>  <SCORE.INTRA.norm>
0.0552399

>  <SCORE.RESTR>
3.64469

>  <SCORE.RESTR.CAVITY>
3.64469

>  <SCORE.RESTR.norm>
0.117571

>  <SCORE.SYSTEM>
0

>  <SCORE.SYSTEM.CONST>
0

>  <SCORE.SYSTEM.DIHEDRAL>
0

>  <SCORE.SYSTEM.SOLV>
0

>  <SCORE.SYSTEM.norm>
0

>  <SCORE.heavy>
31

>  <SCORE.norm>
0.0136482

>  <RMSD>
6.218

$$$$
ligand
 OpenBabel11021811493D
libRbt.so/2013.1/901 2013/11/27
 31 33  0  0  0  0  0  0  0  0999 V2000
    3.9709   19.3241   35.0288 C   0  0  2  0  0  0  0  0  0  0  0  0
    3.5377   18.8929   36.3046 O   0  0  0  0  0  0  0  0  0  0  0  0
    1.6832   15.6330   38.3032 C   0  0  2  0  0  0  0  0  0  0  0  0
    1.0046   14.3972   38.5007 N   0  0  0  0  0  0  0  0  0  0  0  0
    5.1033   13.9152   37.9380 C   0  0  2  0  0  0  0  0  0  0  0  0
    4.6759   20.7392   35.1981 C   0  0  2  0  0  0  0  0  0  0  0  0
    5.7841   20.6124   36.1386 N   0  0  0  0  0  0  0  0  0  0  0  0
    0.7667   16.5645   37.3911 C   0  0  0  0  0  0  0  0  0  0  0  0
    4.6647   12.6306   37.1578 C   0  0  2  0  0  0  0  0  0  0  0  0
    3.7798   13.0086   36.1248 O   0  0  0  0  0  0  0  0  0  0  0  0
    3.6399   21.8182   35.6843 C   0  0  0  0  0  0  0  0  0  0  0  0
    1.5147   17.9451   37.1854 C   0  0  2  0  0  0  0  0  0  0  0  0
    0.6824   18.8177   36.3562 N   0  0  0  0  0  0  0  0  0  0  0  0
    3.9620   11.6502   38.1661 C   0  0  1  0  0  0  0  0  0  0  0  0
    3.5174   10.4163   37.4419 N   0  0  0  0  0  0  0  0  0  0  0  0
    2.2313   21.6432   34.9765 C   0  0  0  0  0  0  0  0  0  0  0  0
    2.9005   17.6763   36.4683 C   0  0  2  0  0  0  0  0  0  0  0  0
    5.0260   11.2399   39.3269 C   0  0  1  0  0  0  0  0  0  0  0  0
    6.1754   10.5881   38.8234 O   0  0  0  0  0  0  0  0  0  0  0  0
    1.9340   20.5244   34.2718 C   0  0  1  0  0  0  0  0  0  0  0  0
    2.8407   19.4376   34.1084 O   0  0  0  0  0  0  0  0  0  0  0  0
    3.7951   16.7294   37.3721 C   0  0  2  0  0  0  0  0  0  0  0  0
    5.0488   16.4784   36.7047 O   0  0  0  0  0  0  0  0  0  0  0  0
    5.4890   12.5269   40.0730 C   0  0  0  0  0  0  0  0  0  0  0  0
    6.0341   13.5360   39.0771 O   0  0  0  0  0  0  0  0  0  0  0  0
    0.6029   20.3161   33.5897 C   0  0  0  0  0  0  0  0  0  0  0  0
   -0.3414   21.1812   34.2566 O   0  0  0  0  0  0  0  0  0  0  0  0
    3.0453   15.3587   37.5817 C   0  0  1  0  0  0  0  0  0  0  0  0
    3.8538   14.5396   38.3894 O   0  0  0  0  0  0  0  0  0  0  0  0
    4.4706   10.2867   40.3931 C   0  0  0  0  0  0  0  0  0  0  0  0
    2.0757   10.1002   37.5128 C   0  0  0  0  0  0  0  0  0  0  0  0
  1  2  1  1  0  0  0
  1  6  1  0  0  0  0
  1 21  1  0  0  0  0
  3  4  1  6  0  0  0
  3  8  1  0  0  0  0
  3 28  1  0  0  0  0
  5  9  1  0  0  0  0
  5 25  1  0  0  0  0
  5 29  1  1  0  0  0
  6  7  1  1  0  0  0
  6 11  1  0  0  0  0
  8 12  1  0  0  0  0
  9 10  1  6  0  0  0
  9 14  1  0  0  0  0
 11 16  1  0  0  0  0
 12 13  1  6  0  0  0
 12 17  1  0  0  0  0
 14 15  1  6  0  0  0
 14 18  1  0  0  0  0
 15 31  1  0  0  0  0
 16 20  1  0  0  0  0
 17  2  1  1  0  0  0
 17 22  1  0  0  0  0
 18 19  1  6  0  0  0
 18 24  1  0  0  0  0
 18 30  1  0  0  0  0
 20 21  1  0  0  0  0
 20 26  1  1  0  0  0
 22 23  1  6  0  0  0
 22 28  1  0  0  0  0
 24 25  1  0  0  0  0
 26 27  1  0  0  0  0
 28 29  1  1  0  0  0
M  END
>  <CHROM.1>
-179.16010941,-81.55634863,-122.32039063,-124.87142910,-22.16525805,169.95370873
3.34753540,16.06031407,36.95681111,-1.79003554,0.20077241,2.79944252

>  <Name>
ligand

>  <RI>
0

>  <Rbt.Current_Directory>
/home/itssahil/PROJECTS/Mol_Feturizer/New_Systems/rnas/4GPY

>  <Rbt.Executable>
rbdock ($Id: //depot/dev/client3/rdock/2013.1/src/exe/rbdock.cxx#4 $)

>  <Rbt.Library>
libRbt.so (2013.1, Build901 2013/11/27)

>  <Rbt.Parameter_File>
/export/apps/rDock/src/rDock_2013.1_src/data/scripts/dock_solv.prm

>  <Rbt.Receptor>
prm/blind_docking_80.prm

>  <SCORE>
-1.41037

>  <SCORE.INTER>
-6.62259

>  <SCORE.INTER.CONST>
1

>  <SCORE.INTER.POLAR>
0

>  <SCORE.INTER.ROT>
6

>  <SCORE.INTER.SOLV>
13.4509

>  <SCORE.INTER.VDW>
-16.4987

>  <SCORE.INTER.norm>
-0.213632

>  <SCORE.INTRA>
1.69548

>  <SCORE.INTRA.DIHEDRAL>
-1.60938

>  <SCORE.INTRA.DIHEDRAL.0>
14.7001

>  <SCORE.INTRA.POLAR>
0

>  <SCORE.INTRA.POLAR.0>
0

>  <SCORE.INTRA.REPUL>
0

>  <SCORE.INTRA.REPUL.0>
0

>  <SCORE.INTRA.SOLV>
2.46499

>  <SCORE.INTRA.SOLV.lig_0>
-65.3082

>  <SCORE.INTRA.VDW>
1.26768

>  <SCORE.INTRA.VDW.0>
-4.21408

>  <SCORE.INTRA.norm>
0.0546929

>  <SCORE.RESTR>
3.51675

>  <SCORE.RESTR.CAVITY>
3.51675

>  <SCORE.RESTR.norm>
0.113443

>  <SCORE.SYSTEM>
0

>  <SCORE.SYSTEM.CONST>
0

>  <SCORE.SYSTEM.DIHEDRAL>
0

>  <SCORE.SYSTEM.SOLV>
0

>  <SCORE.SYSTEM.norm>
0

>  <SCORE.heavy>
31

>  <SCORE.norm>
-0.0454958

>  <RMSD>
6.220

$$$$
ligand
 OpenBabel11021811493D
libRbt.so/2013.1/901 2013/11/27
 31 33  0  0  0  0  0  0  0  0999 V2000
    4.1415   19.8028   34.9506 C   0  0  2  0  0  0  0  0  0  0  0  0
    3.4399   19.1687   36.0027 O   0  0  0  0  0  0  0  0  0  0  0  0
    1.2530   15.6500   36.9497 C   0  0  2  0  0  0  0  0  0  0  0  0
    0.5928   14.4001   36.7805 N   0  0  0  0  0  0  0  0  0  0  0  0
    2.7423   13.2865   37.8497 C   0  0  2  0  0  0  0  0  0  0  0  0
    4.7277   21.1738   35.5029 C   0  0  2  0  0  0  0  0  0  0  0  0
    5.5890   20.8993   36.6481 N   0  0  0  0  0  0  0  0  0  0  0  0
    0.5705   16.7099   35.9747 C   0  0  0  0  0  0  0  0  0  0  0  0
    3.6243   12.7521   39.0277 C   0  0  2  0  0  0  0  0  0  0  0  0
    3.6822   13.7404   40.0342 O   0  0  0  0  0  0  0  0  0  0  0  0
    3.5627   22.1563   35.8920 C   0  0  0  0  0  0  0  0  0  0  0  0
    1.2943   18.1040   36.1751 C   0  0  2  0  0  0  0  0  0  0  0  0
    0.6738   19.0930   35.2927 N   0  0  0  0  0  0  0  0  0  0  0  0
    5.0601   12.4347   38.4716 C   0  0  1  0  0  0  0  0  0  0  0  0
    5.9316   11.9350   39.5830 N   0  0  0  0  0  0  0  0  0  0  0  0
    2.3676   22.0942   34.8508 C   0  0  0  0  0  0  0  0  0  0  0  0
    2.8277   17.9428   35.8151 C   0  0  2  0  0  0  0  0  0  0  0  0
    4.9369   11.2863   37.3253 C   0  0  1  0  0  0  0  0  0  0  0  0
    4.3847   10.0767   37.8063 O   0  0  0  0  0  0  0  0  0  0  0  0
    2.2905   21.1039   33.9290 C   0  0  1  0  0  0  0  0  0  0  0  0
    3.2547   20.0608   33.8173 O   0  0  0  0  0  0  0  0  0  0  0  0
    3.4918   16.8690   36.7742 C   0  0  2  0  0  0  0  0  0  0  0  0
    4.8842   16.7182   36.4295 O   0  0  0  0  0  0  0  0  0  0  0  0
    4.0254   11.8091   36.1749 C   0  0  0  0  0  0  0  0  0  0  0  0
    2.6861   12.2547   36.7362 O   0  0  0  0  0  0  0  0  0  0  0  0
    1.1661   21.0050   32.9257 C   0  0  0  0  0  0  0  0  0  0  0  0
   -0.0504   21.3161   33.6386 O   0  0  0  0  0  0  0  0  0  0  0  0
    2.7648   15.4841   36.5783 C   0  0  1  0  0  0  0  0  0  0  0  0
    3.3660   14.5513   37.4418 O   0  0  0  0  0  0  0  0  0  0  0  0
    6.2699   10.8805   36.6832 C   0  0  0  0  0  0  0  0  0  0  0  0
    6.3790   12.9426   40.5668 C   0  0  0  0  0  0  0  0  0  0  0  0
  1  2  1  1  0  0  0
  1  6  1  0  0  0  0
  1 21  1  0  0  0  0
  3  4  1  6  0  0  0
  3  8  1  0  0  0  0
  3 28  1  0  0  0  0
  5  9  1  0  0  0  0
  5 25  1  0  0  0  0
  5 29  1  6  0  0  0
  6  7  1  1  0  0  0
  6 11  1  0  0  0  0
  8 12  1  0  0  0  0
  9 10  1  1  0  0  0
  9 14  1  0  0  0  0
 11 16  1  0  0  0  0
 12 13  1  6  0  0  0
 12 17  1  0  0  0  0
 14 15  1  1  0  0  0
 14 18  1  0  0  0  0
 15 31  1  0  0  0  0
 16 20  1  0  0  0  0
 17  2  1  1  0  0  0
 17 22  1  0  0  0  0
 18 19  1  1  0  0  0
 18 24  1  0  0  0  0
 18 30  1  0  0  0  0
 20 21  1  0  0  0  0
 20 26  1  1  0  0  0
 22 23  1  6  0  0  0
 22 28  1  0  0  0  0
 24 25  1  0  0  0  0
 26 27  1  0  0  0  0
 28 29  1  1  0  0  0
M  END
>  <CHROM.1>
-179.47788094,-168.05086125,-73.10217008,-123.10115840,-41.84886419,42.57437386
3.29598619,16.35603832,36.54024872,-1.81241554,0.42505736,2.86493945

>  <Name>
ligand

>  <RI>
0

>  <Rbt.Current_Directory>
/home/itssahil/PROJECTS/Mol_Feturizer/New_Systems/rnas/4GPY

>  <Rbt.Executable>
rbdock ($Id: //depot/dev/client3/rdock/2013.1/src/exe/rbdock.cxx#4 $)

>  <Rbt.Library>
libRbt.so (2013.1, Build901 2013/11/27)

>  <Rbt.Parameter_File>
/export/apps/rDock/src/rDock_2013.1_src/data/scripts/dock_solv.prm

>  <Rbt.Receptor>
prm/blind_docking_80.prm

>  <SCORE>
-4.25279

>  <SCORE.INTER>
-9.88102

>  <SCORE.INTER.CONST>
1

>  <SCORE.INTER.POLAR>
0

>  <SCORE.INTER.ROT>
6

>  <SCORE.INTER.SOLV>
14.5362

>  <SCORE.INTER.VDW>
-19.0328

>  <SCORE.INTER.norm>
-0.318743

>  <SCORE.INTRA>
3.76098

>  <SCORE.INTRA.DIHEDRAL>
-2.12965

>  <SCORE.INTRA.DIHEDRAL.0>
14.7001

>  <SCORE.INTRA.POLAR>
0

>  <SCORE.INTRA.POLAR.0>
0

>  <SCORE.INTRA.REPUL>
0

>  <SCORE.INTRA.REPUL.0>
0

>  <SCORE.INTRA.SOLV>
3.64552

>  <SCORE.INTRA.SOLV.lig_0>
-65.3082

>  <SCORE.INTRA.VDW>
3.00304

>  <SCORE.INTRA.VDW.0>
-4.21408

>  <SCORE.INTRA.norm>
0.121322

>  <SCORE.RESTR>
1.86725

>  <SCORE.RESTR.CAVITY>
1.86725

>  <SCORE.RESTR.norm>
0.060234

>  <SCORE.SYSTEM>
0

>  <SCORE.SYSTEM.CONST>
0

>  <SCORE.SYSTEM.DIHEDRAL>
0

>  <SCORE.SYSTEM.SOLV>
0

>  <SCORE.SYSTEM.norm>
0

>  <SCORE.heavy>
31

>  <SCORE.norm>
-0.137187

>  <RMSD>
6.225

$$$$
ligand
 OpenBabel11021811493D
libRbt.so/2013.1/901 2013/11/27
 31 33  0  0  0  0  0  0  0  0999 V2000
    4.1278   19.7881   34.9140 C   0  0  2  0  0  0  0  0  0  0  0  0
    3.4280   19.1662   35.9745 O   0  0  0  0  0  0  0  0  0  0  0  0
    1.2333   15.6637   36.9621 C   0  0  2  0  0  0  0  0  0  0  0  0
    0.5652   14.4162   36.8062 N   0  0  0  0  0  0  0  0  0  0  0  0
    2.7236   13.2930   37.8521 C   0  0  2  0  0  0  0  0  0  0  0  0
    4.7375   21.1526   35.4567 C   0  0  2  0  0  0  0  0  0  0  0  0
    5.6061   20.8697   36.5943 N   0  0  0  0  0  0  0  0  0  0  0  0
    0.5462   16.7218   35.9885 C   0  0  0  0  0  0  0  0  0  0  0  0
    3.6062   12.7651   39.0326 C   0  0  2  0  0  0  0  0  0  0  0  0
    3.6625   13.7581   40.0346 O   0  0  0  0  0  0  0  0  0  0  0  0
    3.5895   22.1516   35.8542 C   0  0  0  0  0  0  0  0  0  0  0  0
    1.2790   18.1133   36.1742 C   0  0  2  0  0  0  0  0  0  0  0  0
    0.6545   19.1008   35.2930 N   0  0  0  0  0  0  0  0  0  0  0  0
    5.0425   12.4473   38.4781 C   0  0  1  0  0  0  0  0  0  0  0  0
    5.9146   11.9537   39.5918 N   0  0  0  0  0  0  0  0  0  0  0  0
    2.3837   22.1027   34.8249 C   0  0  0  0  0  0  0  0  0  0  0  0
    2.8079   17.9425   35.7996 C   0  0  2  0  0  0  0  0  0  0  0  0
    4.9210   11.2935   37.3370 C   0  0  1  0  0  0  0  0  0  0  0  0
    4.3705   10.0853   37.8233 O   0  0  0  0  0  0  0  0  0  0  0  0
    2.2844   21.1110   33.9065 C   0  0  1  0  0  0  0  0  0  0  0  0
    3.2336   20.0549   33.7885 O   0  0  0  0  0  0  0  0  0  0  0  0
    3.4762   16.8704   36.7575 C   0  0  2  0  0  0  0  0  0  0  0  0
    4.8643   16.7108   36.3995 O   0  0  0  0  0  0  0  0  0  0  0  0
    4.0090   11.8099   36.1841 C   0  0  0  0  0  0  0  0  0  0  0  0
    2.6690   12.2562   36.7432 O   0  0  0  0  0  0  0  0  0  0  0  0
    1.1492   21.0245   32.9145 C   0  0  0  0  0  0  0  0  0  0  0  0
    0.0690   21.8158   33.4547 O   0  0  0  0  0  0  0  0  0  0  0  0
    2.7404   15.4881   36.5763 C   0  0  1  0  0  0  0  0  0  0  0  0
    3.3456   14.5568   37.4385 O   0  0  0  0  0  0  0  0  0  0  0  0
    6.2547   10.8867   36.6969 C   0  0  0  0  0  0  0  0  0  0  0  0
    6.4013   12.9746   40.5428 C   0  0  0  0  0  0  0  0  0  0  0  0
  1  2  1  1  0  0  0
  1  6  1  0  0  0  0
  1 21  1  0  0  0  0
  3  4  1  6  0  0  0
  3  8  1  0  0  0  0
  3 28  1  0  0  0  0
  5  9  1  0  0  0  0
  5 25  1  0  0  0  0
  5 29  1  6  0  0  0
  6  7  1  1  0  0  0
  6 11  1  0  0  0  0
  8 12  1  0  0  0  0
  9 10  1  1  0  0  0
  9 14  1  0  0  0  0
 11 16  1  0  0  0  0
 12 13  1  6  0  0  0
 12 17  1  0  0  0  0
 14 15  1  1  0  0  0
 14 18  1  0  0  0  0
 15 31  1  0  0  0  0
 16 20  1  0  0  0  0
 17  2  1  1  0  0  0
 17 22  1  0  0  0  0
 18 19  1  1  0  0  0
 18 24  1  0  0  0  0
 18 30  1  0  0  0  0
 20 21  1  0  0  0  0
 20 26  1  1  0  0  0
 22 23  1  6  0  0  0
 22 28  1  0  0  0  0
 24 25  1  0  0  0  0
 26 27  1  0  0  0  0
 28 29  1  1  0  0  0
M  END
>  <CHROM.1>
-178.89774276,-167.70684819,-75.28629608,-123.42315940,-20.49938805,43.01564944
3.28894637,16.37886628,36.52547652,-1.80872518,0.41508167,2.85702522

>  <Name>
ligand

>  <RI>
0

>  <Rbt.Current_Directory>
/home/itssahil/PROJECTS/Mol_Feturizer/New_Systems/rnas/4GPY

>  <Rbt.Executable>
rbdock ($Id: //depot/dev/client3/rdock/2013.1/src/exe/rbdock.cxx#4 $)

>  <Rbt.Library>
libRbt.so (2013.1, Build901 2013/11/27)

>  <Rbt.Parameter_File>
/export/apps/rDock/src/rDock_2013.1_src/data/scripts/dock_solv.prm

>  <Rbt.Receptor>
prm/blind_docking_80.prm

>  <SCORE>
-4.43388

>  <SCORE.INTER>
-9.77561

>  <SCORE.INTER.CONST>
1

>  <SCORE.INTER.POLAR>
0

>  <SCORE.INTER.ROT>
6

>  <SCORE.INTER.SOLV>
14.4608

>  <SCORE.INTER.VDW>
-18.9373

>  <SCORE.INTER.norm>
-0.315342

>  <SCORE.INTRA>
3.4131

>  <SCORE.INTRA.DIHEDRAL>
-3.13176

>  <SCORE.INTRA.DIHEDRAL.0>
14.7001

>  <SCORE.INTRA.POLAR>
0

>  <SCORE.INTRA.POLAR.0>
0

>  <SCORE.INTRA.REPUL>
0

>  <SCORE.INTRA.REPUL.0>
0

>  <SCORE.INTRA.SOLV>
3.30052

>  <SCORE.INTRA.SOLV.lig_0>
-65.3082

>  <SCORE.INTRA.VDW>
3.32872

>  <SCORE.INTRA.VDW.0>
-4.21408

>  <SCORE.INTRA.norm>
0.1101

>  <SCORE.RESTR>
1.92863

>  <SCORE.RESTR.CAVITY>
1.92863

>  <SCORE.RESTR.norm>
0.0622138

>  <SCORE.SYSTEM>
0

>  <SCORE.SYSTEM.CONST>
0

>  <SCORE.SYSTEM.DIHEDRAL>
0

>  <SCORE.SYSTEM.SOLV>
0

>  <SCORE.SYSTEM.norm>
0

>  <SCORE.heavy>
31

>  <SCORE.norm>
-0.143028

>  <RMSD>
6.226

$$$$
ligand
 OpenBabel11021811493D
libRbt.so/2013.1/901 2013/11/27
 31 33  0  0  0  0  0  0  0  0999 V2000
    4.1995   19.5652   35.1706 C   0  0  2  0  0  0  0  0  0  0  0  0
    3.3670   19.0329   36.1830 O   0  0  0  0  0  0  0  0  0  0  0  0
    1.0372   15.6110   37.1431 C   0  0  2  0  0  0  0  0  0  0  0  0
    0.3066   14.4007   36.9745 N   0  0  0  0  0  0  0  0  0  0  0  0
    4.5331   14.0461   37.5074 C   0  0  2  0  0  0  0  0  0  0  0  0
    4.8891   20.8807   35.7381 C   0  0  2  0  0  0  0  0  0  0  0  0
    5.6392   20.5458   36.9439 N   0  0  0  0  0  0  0  0  0  0  0  0
    0.3741   16.7262   36.2177 C   0  0  0  0  0  0  0  0  0  0  0  0
    4.5829   12.5329   37.1087 C   0  0  2  0  0  0  0  0  0  0  0  0
    3.9097   12.3665   35.8790 O   0  0  0  0  0  0  0  0  0  0  0  0
    3.8109   21.9880   36.0301 C   0  0  0  0  0  0  0  0  0  0  0  0
    1.1769   18.0764   36.4179 C   0  0  2  0  0  0  0  0  0  0  0  0
    0.5756   19.1156   35.5812 N   0  0  0  0  0  0  0  0  0  0  0  0
    3.8899   11.6949   38.2441 C   0  0  1  0  0  0  0  0  0  0  0  0
    3.9096   10.2415   37.8810 N   0  0  0  0  0  0  0  0  0  0  0  0
    2.6872   22.0255   34.9111 C   0  0  0  0  0  0  0  0  0  0  0  0
    2.6850   17.8447   35.9946 C   0  0  2  0  0  0  0  0  0  0  0  0
    4.7091   11.9146   39.6328 C   0  0  1  0  0  0  0  0  0  0  0  0
    6.0586   11.4998   39.5547 O   0  0  0  0  0  0  0  0  0  0  0  0
    2.5673   21.0267   34.0031 C   0  0  1  0  0  0  0  0  0  0  0  0
    3.4215   19.8867   33.9752 O   0  0  0  0  0  0  0  0  0  0  0  0
    3.3282   16.7169   36.9045 C   0  0  2  0  0  0  0  0  0  0  0  0
    4.6966   16.5025   36.5022 O   0  0  0  0  0  0  0  0  0  0  0  0
    4.6900   13.4280   40.0028 C   0  0  0  0  0  0  0  0  0  0  0  0
    5.2247   14.2519   38.8441 O   0  0  0  0  0  0  0  0  0  0  0  0
    1.5074   21.0211   32.9274 C   0  0  0  0  0  0  0  0  0  0  0  0
    0.7003   19.8449   33.1506 O   0  0  0  0  0  0  0  0  0  0  0  0
    2.5229   15.3759   36.7091 C   0  0  1  0  0  0  0  0  0  0  0  0
    3.1071   14.3942   37.5289 O   0  0  0  0  0  0  0  0  0  0  0  0
    4.1358   11.1578   40.8380 C   0  0  0  0  0  0  0  0  0  0  0  0
    3.0126    9.8301   36.7812 C   0  0  0  0  0  0  0  0  0  0  0  0
  1  2  1  1  0  0  0
  1  6  1  0  0  0  0
  1 21  1  0  0  0  0
  3  4  1  6  0  0  0
  3  8  1  0  0  0  0
  3 28  1  0  0  0  0
  5  9  1  0  0  0  0
  5 25  1  0  0  0  0
  5 29  1  1  0  0  0
  6  7  1  1  0  0  0
  6 11  1  0  0  0  0
  8 12  1  0  0  0  0
  9 10  1  6  0  0  0
  9 14  1  0  0  0  0
 11 16  1  0  0  0  0
 12 13  1  6  0  0  0
 12 17  1  0  0  0  0
 14 15  1  6  0  0  0
 14 18  1  0  0  0  0
 15 31  1  0  0  0  0
 16 20  1  0  0  0  0
 17  2  1  1  0  0  0
 17 22  1  0  0  0  0
 18 19  1  6  0  0  0
 18 24  1  0  0  0  0
 18 30  1  0  0  0  0
 20 21  1  0  0  0  0
 20 26  1  1  0  0  0
 22 23  1  6  0  0  0
 22 28  1  0  0  0  0
 24 25  1  0  0  0  0
 26 27  1  0  0  0  0
 28 29  1  1  0  0  0
M  END
>  <CHROM.1>
-176.84619908,-119.36144641,-71.33393633,-131.30959367,-119.10160396,-172.20768730
3.28196742,16.21641976,36.68023805,-1.75393605,0.52649331,2.83262723

>  <Name>
ligand

>  <RI>
0

>  <Rbt.Current_Directory>
/home/itssahil/PROJECTS/Mol_Feturizer/New_Systems/rnas/4GPY

>  <Rbt.Executable>
rbdock ($Id: //depot/dev/client3/rdock/2013.1/src/exe/rbdock.cxx#4 $)

>  <Rbt.Library>
libRbt.so (2013.1, Build901 2013/11/27)

>  <Rbt.Parameter_File>
/export/apps/rDock/src/rDock_2013.1_src/data/scripts/dock_solv.prm

>  <Rbt.Receptor>
prm/blind_docking_80.prm

>  <SCORE>
0.564345

>  <SCORE.INTER>
-6.13841

>  <SCORE.INTER.CONST>
1

>  <SCORE.INTER.POLAR>
0

>  <SCORE.INTER.ROT>
6

>  <SCORE.INTER.SOLV>
15.5973

>  <SCORE.INTER.VDW>
-16.8914

>  <SCORE.INTER.norm>
-0.198013

>  <SCORE.INTRA>
3.85533

>  <SCORE.INTRA.DIHEDRAL>
1.21973

>  <SCORE.INTRA.DIHEDRAL.0>
14.7001

>  <SCORE.INTRA.POLAR>
0

>  <SCORE.INTRA.POLAR.0>
0

>  <SCORE.INTRA.REPUL>
0

>  <SCORE.INTRA.REPUL.0>
0

>  <SCORE.INTRA.SOLV>
1.71001

>  <SCORE.INTRA.SOLV.lig_0>
-65.3082

>  <SCORE.INTRA.VDW>
2.39046

>  <SCORE.INTRA.VDW.0>
-4.21408

>  <SCORE.INTRA.norm>
0.124365

>  <SCORE.RESTR>
2.84743

>  <SCORE.RESTR.CAVITY>
2.84743

>  <SCORE.RESTR.norm>
0.0918526

>  <SCORE.SYSTEM>
0

>  <SCORE.SYSTEM.CONST>
0

>  <SCORE.SYSTEM.DIHEDRAL>
0

>  <SCORE.SYSTEM.SOLV>
0

>  <SCORE.SYSTEM.norm>
0

>  <SCORE.heavy>
31

>  <SCORE.norm>
0.0182047

>  <RMSD>
6.251

$$$$
ligand
 OpenBabel11021811493D
libRbt.so/2013.1/901 2013/11/27
 31 33  0  0  0  0  0  0  0  0999 V2000
    1.7539   20.0726   35.5647 C   0  0  2  0  0  0  0  0  0  0  0  0
    1.3847   18.7838   35.1131 O   0  0  0  0  0  0  0  0  0  0  0  0
    1.2764   16.0141   38.3345 C   0  0  2  0  0  0  0  0  0  0  0  0
    0.7673   15.0622   39.2627 N   0  0  0  0  0  0  0  0  0  0  0  0
    3.2304   14.2055   36.1748 C   0  0  2  0  0  0  0  0  0  0  0  0
    1.8576   21.0292   34.2989 C   0  0  2  0  0  0  0  0  0  0  0  0
    0.5766   21.0398   33.6007 N   0  0  0  0  0  0  0  0  0  0  0  0
    0.4240   17.3532   38.4762 C   0  0  0  0  0  0  0  0  0  0  0  0
    3.8114   12.8187   36.6113 C   0  0  2  0  0  0  0  0  0  0  0  0
    2.9297   11.8032   36.1817 O   0  0  0  0  0  0  0  0  0  0  0  0
    3.0188   20.5618   33.3464 C   0  0  0  0  0  0  0  0  0  0  0  0
    1.0011   18.4172   37.4551 C   0  0  2  0  0  0  0  0  0  0  0  0
    0.2350   19.6580   37.5778 N   0  0  0  0  0  0  0  0  0  0  0  0
    3.9563   12.8089   38.1767 C   0  0  1  0  0  0  0  0  0  0  0  0
    4.4970   11.4853   38.6243 N   0  0  0  0  0  0  0  0  0  0  0  0
    4.2914   20.0804   34.1617 C   0  0  0  0  0  0  0  0  0  0  0  0
    0.8702   17.8422   35.9857 C   0  0  2  0  0  0  0  0  0  0  0  0
    4.9877   13.9886   38.6155 C   0  0  1  0  0  0  0  0  0  0  0  0
    6.2798   13.8325   38.0629 O   0  0  0  0  0  0  0  0  0  0  0  0
    4.2260   19.8548   35.4964 C   0  0  1  0  0  0  0  0  0  0  0  0
    3.0377   20.0295   36.2630 O   0  0  0  0  0  0  0  0  0  0  0  0
    1.7015   16.4979   35.8618 C   0  0  2  0  0  0  0  0  0  0  0  0
    1.5645   15.9740   34.5250 O   0  0  0  0  0  0  0  0  0  0  0  0
    4.4234   15.3619   38.1429 C   0  0  0  0  0  0  0  0  0  0  0  0
    4.1442   15.3219   36.6504 O   0  0  0  0  0  0  0  0  0  0  0  0
    5.4118   19.3892   36.3071 C   0  0  0  0  0  0  0  0  0  0  0  0
    4.9163   18.3922   37.2264 O   0  0  0  0  0  0  0  0  0  0  0  0
    1.1300   15.4428   36.8842 C   0  0  1  0  0  0  0  0  0  0  0  0
    1.8855   14.2635   36.7602 O   0  0  0  0  0  0  0  0  0  0  0  0
    5.2195   14.1030   40.1278 C   0  0  0  0  0  0  0  0  0  0  0  0
    3.5228   10.3780   38.7151 C   0  0  0  0  0  0  0  0  0  0  0  0
  1  2  1  6  0  0  0
  1  6  1  0  0  0  0
  1 21  1  0  0  0  0
  3  4  1  1  0  0  0
  3  8  1  0  0  0  0
  3 28  1  0  0  0  0
  5  9  1  0  0  0  0
  5 25  1  0  0  0  0
  5 29  1  1  0  0  0
  6  7  1  6  0  0  0
  6 11  1  0  0  0  0
  8 12  1  0  0  0  0
  9 10  1  1  0  0  0
  9 14  1  0  0  0  0
 11 16  1  0  0  0  0
 12 13  1  6  0  0  0
 12 17  1  0  0  0  0
 14 15  1  6  0  0  0
 14 18  1  0  0  0  0
 15 31  1  0  0  0  0
 16 20  1  0  0  0  0
 17  2  1  6  0  0  0
 17 22  1  0  0  0  0
 18 19  1  6  0  0  0
 18 24  1  0  0  0  0
 18 30  1  0  0  0  0
 20 21  1  0  0  0  0
 20 26  1  6  0  0  0
 22 23  1  6  0  0  0
 22 28  1  0  0  0  0
 24 25  1  0  0  0  0
 26 27  1  0  0  0  0
 28 29  1  1  0  0  0
M  END
>  <CHROM.1>
-162.31815900,164.54005934,-80.20190072,-7.92037309,-138.58209355,-98.03614579
2.87685280,16.47940252,36.72573561,1.78969610,-0.02168721,-0.38833469

>  <Name>
ligand

>  <RI>
0

>  <Rbt.Current_Directory>
/home/itssahil/PROJECTS/Mol_Feturizer/New_Systems/rnas/4GPY

>  <Rbt.Executable>
rbdock ($Id: //depot/dev/client3/rdock/2013.1/src/exe/rbdock.cxx#4 $)

>  <Rbt.Library>
libRbt.so (2013.1, Build901 2013/11/27)

>  <Rbt.Parameter_File>
/export/apps/rDock/src/rDock_2013.1_src/data/scripts/dock_solv.prm

>  <Rbt.Receptor>
prm/blind_docking_100.prm

>  <SCORE>
11.0589

>  <SCORE.INTER>
-0.425059

>  <SCORE.INTER.CONST>
1

>  <SCORE.INTER.POLAR>
0

>  <SCORE.INTER.ROT>
6

>  <SCORE.INTER.SOLV>
19.6696

>  <SCORE.INTER.VDW>
-14.4399

>  <SCORE.INTER.norm>
-0.0137116

>  <SCORE.INTRA>
8.65314

>  <SCORE.INTRA.DIHEDRAL>
2.21811

>  <SCORE.INTRA.DIHEDRAL.0>
14.7001

>  <SCORE.INTRA.POLAR>
0

>  <SCORE.INTRA.POLAR.0>
0

>  <SCORE.INTRA.REPUL>
0.0810522

>  <SCORE.INTRA.REPUL.0>
0

>  <SCORE.INTRA.SOLV>
1.50142

>  <SCORE.INTRA.SOLV.lig_0>
-65.3082

>  <SCORE.INTRA.VDW>
6.38811

>  <SCORE.INTRA.VDW.0>
-4.21408

>  <SCORE.INTRA.norm>
0.279133

>  <SCORE.RESTR>
2.83083

>  <SCORE.RESTR.CAVITY>
2.83083

>  <SCORE.RESTR.norm>
0.0913172

>  <SCORE.SYSTEM>
0

>  <SCORE.SYSTEM.CONST>
0

>  <SCORE.SYSTEM.DIHEDRAL>
0

>  <SCORE.SYSTEM.SOLV>
0

>  <SCORE.SYSTEM.norm>
0

>  <SCORE.heavy>
31

>  <SCORE.norm>
0.356739

>  <RMSD>
6.254

$$$$
ligand
 OpenBabel11021811493D
libRbt.so/2013.1/901 2013/11/27
 31 33  0  0  0  0  0  0  0  0999 V2000
    3.7439   19.2764   34.9110 C   0  0  2  0  0  0  0  0  0  0  0  0
    3.4670   18.8277   36.2238 O   0  0  0  0  0  0  0  0  0  0  0  0
    1.6867   15.6297   38.3832 C   0  0  2  0  0  0  0  0  0  0  0  0
    1.0087   14.4047   38.6412 N   0  0  0  0  0  0  0  0  0  0  0  0
    5.0664   13.8664   37.8880 C   0  0  2  0  0  0  0  0  0  0  0  0
    4.6043   20.6094   35.0152 C   0  0  2  0  0  0  0  0  0  0  0  0
    5.8232   20.3347   35.7685 N   0  0  0  0  0  0  0  0  0  0  0  0
    0.7340   16.5491   37.4962 C   0  0  0  0  0  0  0  0  0  0  0  0
    4.5665   12.6122   37.0953 C   0  0  2  0  0  0  0  0  0  0  0  0
    3.6646   13.0384   36.0962 O   0  0  0  0  0  0  0  0  0  0  0  0
    3.7667   21.7567   35.6906 C   0  0  0  0  0  0  0  0  0  0  0  0
    1.4820   17.9180   37.2233 C   0  0  2  0  0  0  0  0  0  0  0  0
    0.6171   18.7796   36.4163 N   0  0  0  0  0  0  0  0  0  0  0  0
    3.8627   11.6327   38.1037 C   0  0  1  0  0  0  0  0  0  0  0  0
    3.3599   10.4283   37.3681 N   0  0  0  0  0  0  0  0  0  0  0  0
    2.2571   21.7485   35.2037 C   0  0  0  0  0  0  0  0  0  0  0  0
    2.8289   17.6209   36.4456 C   0  0  2  0  0  0  0  0  0  0  0  0
    4.9461   11.1662   39.2247 C   0  0  1  0  0  0  0  0  0  0  0  0
    6.0601   10.4907   38.6751 O   0  0  0  0  0  0  0  0  0  0  0  0
    1.7466   20.6973   34.5174 C   0  0  1  0  0  0  0  0  0  0  0  0
    2.5050   19.5390   34.1805 O   0  0  0  0  0  0  0  0  0  0  0  0
    3.7591   16.6861   37.3258 C   0  0  2  0  0  0  0  0  0  0  0  0
    4.9766   16.4091   36.6038 O   0  0  0  0  0  0  0  0  0  0  0  0
    5.4696   12.4228   39.9826 C   0  0  0  0  0  0  0  0  0  0  0  0
    6.0171   13.4355   38.9917 O   0  0  0  0  0  0  0  0  0  0  0  0
    0.3139   20.6474   34.0429 C   0  0  0  0  0  0  0  0  0  0  0  0
    0.3605   20.4908   32.6083 O   0  0  0  0  0  0  0  0  0  0  0  0
    3.0095   15.3272   37.6023 C   0  0  1  0  0  0  0  0  0  0  0  0
    3.8500   14.5188   38.3879 O   0  0  0  0  0  0  0  0  0  0  0  0
    4.3920   10.2082   40.2872 C   0  0  0  0  0  0  0  0  0  0  0  0
    4.3276    9.7550   36.4773 C   0  0  0  0  0  0  0  0  0  0  0  0
  1  2  1  1  0  0  0
  1  6  1  0  0  0  0
  1 21  1  0  0  0  0
  3  4  1  6  0  0  0
  3  8  1  0  0  0  0
  3 28  1  0  0  0  0
  5  9  1  0  0  0  0
  5 25  1  0  0  0  0
  5 29  1  1  0  0  0
  6  7  1  1  0  0  0
  6 11  1  0  0  0  0
  8 12  1  0  0  0  0
  9 10  1  6  0  0  0
  9 14  1  0  0  0  0
 11 16  1  0  0  0  0
 12 13  1  6  0  0  0
 12 17  1  0  0  0  0
 14 15  1  6  0  0  0
 14 18  1  0  0  0  0
 15 31  1  0  0  0  0
 16 20  1  0  0  0  0
 17  2  1  1  0  0  0
 17 22  1  0  0  0  0
 18 19  1  6  0  0  0
 18 24  1  0  0  0  0
 18 30  1  0  0  0  0
 20 21  1  0  0  0  0
 20 26  1  1  0  0  0
 22 23  1  6  0  0  0
 22 28  1  0  0  0  0
 24 25  1  0  0  0  0
 26 27  1  0  0  0  0
 28 29  1  1  0  0  0
M  END
>  <CHROM.1>
-174.38494446,-78.36294704,49.83217853,-119.71969715,121.47426566,169.55300536
3.38047739,16.00188738,36.85123772,-1.80836368,0.19199434,2.80367804

>  <Name>
ligand

>  <RI>
0

>  <Rbt.Current_Directory>
/home/itssahil/PROJECTS/Mol_Feturizer/New_Systems/rnas/4GPY

>  <Rbt.Executable>
rbdock ($Id: //depot/dev/client3/rdock/2013.1/src/exe/rbdock.cxx#4 $)

>  <Rbt.Library>
libRbt.so (2013.1, Build901 2013/11/27)

>  <Rbt.Parameter_File>
/export/apps/rDock/src/rDock_2013.1_src/data/scripts/dock_solv.prm

>  <Rbt.Receptor>
prm/blind_docking_80.prm

>  <SCORE>
-3.49807

>  <SCORE.INTER>
-7.72233

>  <SCORE.INTER.CONST>
1

>  <SCORE.INTER.POLAR>
0

>  <SCORE.INTER.ROT>
6

>  <SCORE.INTER.SOLV>
14.0403

>  <SCORE.INTER.VDW>
-17.4283

>  <SCORE.INTER.norm>
-0.249107

>  <SCORE.INTRA>
2.16314

>  <SCORE.INTRA.DIHEDRAL>
-3.50895

>  <SCORE.INTRA.DIHEDRAL.0>
14.7001

>  <SCORE.INTRA.POLAR>
0

>  <SCORE.INTRA.POLAR.0>
0

>  <SCORE.INTRA.REPUL>
0

>  <SCORE.INTRA.REPUL.0>
0

>  <SCORE.INTRA.SOLV>
2.33129

>  <SCORE.INTRA.SOLV.lig_0>
-65.3082

>  <SCORE.INTRA.VDW>
2.75197

>  <SCORE.INTRA.VDW.0>
-4.21408

>  <SCORE.INTRA.norm>
0.0697786

>  <SCORE.RESTR>
2.06111

>  <SCORE.RESTR.CAVITY>
2.06111

>  <SCORE.RESTR.norm>
0.0664876

>  <SCORE.SYSTEM>
0

>  <SCORE.SYSTEM.CONST>
0

>  <SCORE.SYSTEM.DIHEDRAL>
0

>  <SCORE.SYSTEM.SOLV>
0

>  <SCORE.SYSTEM.norm>
0

>  <SCORE.heavy>
31

>  <SCORE.norm>
-0.112841

>  <RMSD>
6.268

$$$$
ligand
 OpenBabel11021811493D
libRbt.so/2013.1/901 2013/11/27
 31 33  0  0  0  0  0  0  0  0999 V2000
    3.9668   19.3374   35.0542 C   0  0  2  0  0  0  0  0  0  0  0  0
    3.5429   18.9007   36.3312 O   0  0  0  0  0  0  0  0  0  0  0  0
    1.6826   15.6410   38.3247 C   0  0  2  0  0  0  0  0  0  0  0  0
    0.9915   14.4117   38.5198 N   0  0  0  0  0  0  0  0  0  0  0  0
    5.0555   13.8585   37.8670 C   0  0  2  0  0  0  0  0  0  0  0  0
    4.6910   20.7423   35.2271 C   0  0  2  0  0  0  0  0  0  0  0  0
    5.8081   20.5942   36.1538 N   0  0  0  0  0  0  0  0  0  0  0  0
    0.7619   16.5953   37.4407 C   0  0  0  0  0  0  0  0  0  0  0  0
    4.5544   12.5934   37.0925 C   0  0  2  0  0  0  0  0  0  0  0  0
    3.6524   13.0058   36.0877 O   0  0  0  0  0  0  0  0  0  0  0  0
    3.6739   21.8297   35.7342 C   0  0  0  0  0  0  0  0  0  0  0  0
    1.5240   17.9685   37.2377 C   0  0  2  0  0  0  0  0  0  0  0  0
    0.6883   18.8617   36.4344 N   0  0  0  0  0  0  0  0  0  0  0  0
    3.8505   11.6289   38.1151 C   0  0  1  0  0  0  0  0  0  0  0  0
    3.3466   10.4144   37.3971 N   0  0  0  0  0  0  0  0  0  0  0  0
    2.2552   21.6778   35.0411 C   0  0  0  0  0  0  0  0  0  0  0  0
    2.8929   17.6906   36.4921 C   0  0  2  0  0  0  0  0  0  0  0  0
    4.9341   11.1778   39.2422 C   0  0  1  0  0  0  0  0  0  0  0  0
    6.0474   10.4937   38.7018 O   0  0  0  0  0  0  0  0  0  0  0  0
    1.9363   20.5687   34.3306 C   0  0  1  0  0  0  0  0  0  0  0  0
    2.8277   19.4724   34.1477 O   0  0  0  0  0  0  0  0  0  0  0  0
    3.7913   16.7213   37.3680 C   0  0  2  0  0  0  0  0  0  0  0  0
    5.0293   16.4623   36.6748 O   0  0  0  0  0  0  0  0  0  0  0  0
    5.4587   12.4448   39.9818 C   0  0  0  0  0  0  0  0  0  0  0  0
    6.0064   13.4428   38.9763 O   0  0  0  0  0  0  0  0  0  0  0  0
    0.5951   20.3824   33.6621 C   0  0  0  0  0  0  0  0  0  0  0  0
   -0.0113   21.6904   33.5838 O   0  0  0  0  0  0  0  0  0  0  0  0
    3.0276   15.3579   37.5750 C   0  0  1  0  0  0  0  0  0  0  0  0
    3.8398   14.5188   38.3580 O   0  0  0  0  0  0  0  0  0  0  0  0
    4.3799   10.2355   40.3186 C   0  0  0  0  0  0  0  0  0  0  0  0
    4.3316    9.6893   36.5679 C   0  0  0  0  0  0  0  0  0  0  0  0
  1  2  1  1  0  0  0
  1  6  1  0  0  0  0
  1 21  1  0  0  0  0
  3  4  1  6  0  0  0
  3  8  1  0  0  0  0
  3 28  1  0  0  0  0
  5  9  1  0  0  0  0
  5 25  1  0  0  0  0
  5 29  1  1  0  0  0
  6  7  1  1  0  0  0
  6 11  1  0  0  0  0
  8 12  1  0  0  0  0
  9 10  1  6  0  0  0
  9 14  1  0  0  0  0
 11 16  1  0  0  0  0
 12 13  1  6  0  0  0
 12 17  1  0  0  0  0
 14 15  1  6  0  0  0
 14 18  1  0  0  0  0
 15 31  1  0  0  0  0
 16 20  1  0  0  0  0
 17  2  1  1  0  0  0
 17 22  1  0  0  0  0
 18 19  1  6  0  0  0
 18 24  1  0  0  0  0
 18 30  1  0  0  0  0
 20 21  1  0  0  0  0
 20 26  1  1  0  0  0
 22 23  1  6  0  0  0
 22 28  1  0  0  0  0
 24 25  1  0  0  0  0
 26 27  1  0  0  0  0
 28 29  1  1  0  0  0
M  END
>  <CHROM.1>
-179.15312041,-80.92308564,52.75137493,-125.32272583,17.35638516,168.44896810
3.40667278,16.05727328,36.89300939,-1.80100324,0.18575134,2.81808169

>  <Name>
ligand

>  <RI>
0

>  <Rbt.Current_Directory>
/home/itssahil/PROJECTS/Mol_Feturizer/New_Systems/rnas/4GPY

>  <Rbt.Executable>
rbdock ($Id: //depot/dev/client3/rdock/2013.1/src/exe/rbdock.cxx#4 $)

>  <Rbt.Library>
libRbt.so (2013.1, Build901 2013/11/27)

>  <Rbt.Parameter_File>
/export/apps/rDock/src/rDock_2013.1_src/data/scripts/dock_solv.prm

>  <Rbt.Receptor>
prm/blind_docking_80.prm

>  <SCORE>
-2.35795

>  <SCORE.INTER>
-7.75937

>  <SCORE.INTER.CONST>
1

>  <SCORE.INTER.POLAR>
0

>  <SCORE.INTER.ROT>
6

>  <SCORE.INTER.SOLV>
12.9412

>  <SCORE.INTER.VDW>
-17.0866

>  <SCORE.INTER.norm>
-0.250302

>  <SCORE.INTRA>
3.28371

>  <SCORE.INTRA.DIHEDRAL>
-2.94476

>  <SCORE.INTRA.DIHEDRAL.0>
14.7001

>  <SCORE.INTRA.POLAR>
0

>  <SCORE.INTRA.POLAR.0>
0

>  <SCORE.INTRA.REPUL>
0

>  <SCORE.INTRA.REPUL.0>
0

>  <SCORE.INTRA.SOLV>
2.13069

>  <SCORE.INTRA.SOLV.lig_0>
-65.3082

>  <SCORE.INTRA.VDW>
3.69074

>  <SCORE.INTRA.VDW.0>
-4.21408

>  <SCORE.INTRA.norm>
0.105926

>  <SCORE.RESTR>
2.1177

>  <SCORE.RESTR.CAVITY>
2.1177

>  <SCORE.RESTR.norm>
0.0683129

>  <SCORE.SYSTEM>
0

>  <SCORE.SYSTEM.CONST>
0

>  <SCORE.SYSTEM.DIHEDRAL>
0

>  <SCORE.SYSTEM.SOLV>
0

>  <SCORE.SYSTEM.norm>
0

>  <SCORE.heavy>
31

>  <SCORE.norm>
-0.076063

>  <RMSD>
6.280

$$$$
ligand
 OpenBabel11021811493D
libRbt.so/2013.1/901 2013/11/27
 31 33  0  0  0  0  0  0  0  0999 V2000
    1.9359   20.1740   35.3970 C   0  0  2  0  0  0  0  0  0  0  0  0
    1.5163   18.8966   34.9570 O   0  0  0  0  0  0  0  0  0  0  0  0
    1.3125   16.2035   38.2382 C   0  0  2  0  0  0  0  0  0  0  0  0
    0.7746   15.2782   39.1769 N   0  0  0  0  0  0  0  0  0  0  0  0
    3.3462   14.3499   36.3102 C   0  0  2  0  0  0  0  0  0  0  0  0
    2.2584   21.0573   34.1148 C   0  0  2  0  0  0  0  0  0  0  0  0
    1.0689   21.1316   33.2733 N   0  0  0  0  0  0  0  0  0  0  0  0
    0.4707   17.5535   38.3308 C   0  0  0  0  0  0  0  0  0  0  0  0
    3.7975   12.8796   36.6032 C   0  0  2  0  0  0  0  0  0  0  0  0
    2.9382   11.9966   35.9140 O   0  0  0  0  0  0  0  0  0  0  0  0
    3.4773   20.4571   33.3224 C   0  0  0  0  0  0  0  0  0  0  0  0
    1.0797   18.5880   37.2982 C   0  0  2  0  0  0  0  0  0  0  0  0
    0.3235   19.8385   37.3759 N   0  0  0  0  0  0  0  0  0  0  0  0
    3.7240   12.6351   38.1545 C   0  0  1  0  0  0  0  0  0  0  0  0
    4.1367   11.2283   38.4628 N   0  0  0  0  0  0  0  0  0  0  0  0
    4.6070   19.9202   34.2978 C   0  0  0  0  0  0  0  0  0  0  0  0
    0.9741   17.9804   35.8398 C   0  0  2  0  0  0  0  0  0  0  0  0
    4.7376   13.6692   38.8972 C   0  0  1  0  0  0  0  0  0  0  0  0
    6.0852   13.5097   38.4999 O   0  0  0  0  0  0  0  0  0  0  0  0
    4.3741   19.7654   35.6238 C   0  0  1  0  0  0  0  0  0  0  0  0
    3.1255   20.0671   36.2402 O   0  0  0  0  0  0  0  0  0  0  0  0
    1.7945   16.6258   35.7646 C   0  0  2  0  0  0  0  0  0  0  0  0
    1.6805   16.0724   34.4376 O   0  0  0  0  0  0  0  0  0  0  0  0
    4.3072   15.1302   38.5688 C   0  0  0  0  0  0  0  0  0  0  0  0
    4.2354   15.3239   37.0640 O   0  0  0  0  0  0  0  0  0  0  0  0
    5.4197   19.2507   36.5840 C   0  0  0  0  0  0  0  0  0  0  0  0
    4.7514   18.3163   37.4587 O   0  0  0  0  0  0  0  0  0  0  0  0
    1.1911   15.6001   36.7986 C   0  0  1  0  0  0  0  0  0  0  0  0
    1.9373   14.4112   36.7179 O   0  0  0  0  0  0  0  0  0  0  0  0
    4.7632   13.5492   40.4265 C   0  0  0  0  0  0  0  0  0  0  0  0
    5.4129   10.7765   37.8707 C   0  0  0  0  0  0  0  0  0  0  0  0
  1  2  1  6  0  0  0
  1  6  1  0  0  0  0
  1 21  1  0  0  0  0
  3  4  1  1  0  0  0
  3  8  1  0  0  0  0
  3 28  1  0  0  0  0
  5  9  1  0  0  0  0
  5 25  1  0  0  0  0
  5 29  1  1  0  0  0
  6  7  1  6  0  0  0
  6 11  1  0  0  0  0
  8 12  1  0  0  0  0
  9 10  1  6  0  0  0
  9 14  1  0  0  0  0
 11 16  1  0  0  0  0
 12 13  1  6  0  0  0
 12 17  1  0  0  0  0
 14 15  1  6  0  0  0
 14 18  1  0  0  0  0
 15 31  1  0  0  0  0
 16 20  1  0  0  0  0
 17  2  1  6  0  0  0
 17 22  1  0  0  0  0
 18 19  1  6  0  0  0
 18 24  1  0  0  0  0
 18 30  1  0  0  0  0
 20 21  1  0  0  0  0
 20 26  1  6  0  0  0
 22 23  1  6  0  0  0
 22 28  1  0  0  0  0
 24 25  1  0  0  0  0
 26 27  1  0  0  0  0
 28 29  1  1  0  0  0
M  END
>  <CHROM.1>
-170.00877877,170.77124546,50.51711418,-5.47675648,-137.26687810,-90.57700068
2.98253334,16.49122069,36.70906520,1.80156874,0.04775188,-0.41044014

>  <Name>
ligand

>  <RI>
0

>  <Rbt.Current_Directory>
/home/itssahil/PROJECTS/Mol_Feturizer/New_Systems/rnas/4GPY

>  <Rbt.Executable>
rbdock ($Id: //depot/dev/client3/rdock/2013.1/src/exe/rbdock.cxx#4 $)

>  <Rbt.Library>
libRbt.so (2013.1, Build901 2013/11/27)

>  <Rbt.Parameter_File>
/export/apps/rDock/src/rDock_2013.1_src/data/scripts/dock_solv.prm

>  <Rbt.Receptor>
prm/blind_docking_80.prm

>  <SCORE>
7.25643

>  <SCORE.INTER>
-2.17694

>  <SCORE.INTER.CONST>
1

>  <SCORE.INTER.POLAR>
0

>  <SCORE.INTER.ROT>
6

>  <SCORE.INTER.SOLV>
18.839

>  <SCORE.INTER.VDW>
-15.331

>  <SCORE.INTER.norm>
-0.0702238

>  <SCORE.INTRA>
8.76218

>  <SCORE.INTRA.DIHEDRAL>
-0.927218

>  <SCORE.INTRA.DIHEDRAL.0>
14.7001

>  <SCORE.INTRA.POLAR>
0

>  <SCORE.INTRA.POLAR.0>
0

>  <SCORE.INTRA.REPUL>
0.176268

>  <SCORE.INTRA.REPUL.0>
0

>  <SCORE.INTRA.SOLV>
2.02528

>  <SCORE.INTRA.SOLV.lig_0>
-65.3082

>  <SCORE.INTRA.VDW>
7.33181

>  <SCORE.INTRA.VDW.0>
-4.21408

>  <SCORE.INTRA.norm>
0.282651

>  <SCORE.RESTR>
0.671178

>  <SCORE.RESTR.CAVITY>
0.671178

>  <SCORE.RESTR.norm>
0.0216509

>  <SCORE.SYSTEM>
0

>  <SCORE.SYSTEM.CONST>
0

>  <SCORE.SYSTEM.DIHEDRAL>
0

>  <SCORE.SYSTEM.SOLV>
0

>  <SCORE.SYSTEM.norm>
0

>  <SCORE.heavy>
31

>  <SCORE.norm>
0.234078

>  <RMSD>
6.296

$$$$
ligand
 OpenBabel11021811493D
libRbt.so/2013.1/901 2013/11/27
 31 33  0  0  0  0  0  0  0  0999 V2000
    2.8905   22.2137   35.5903 C   0  0  2  0  0  0  0  0  0  0  0  0
    1.8831   21.3235   35.1500 O   0  0  0  0  0  0  0  0  0  0  0  0
    0.5491   17.3124   35.5878 C   0  0  2  0  0  0  0  0  0  0  0  0
    0.5715   15.9215   35.8905 N   0  0  0  0  0  0  0  0  0  0  0  0
    0.0916   17.3082   39.1789 C   0  0  2  0  0  0  0  0  0  0  0  0
    3.6995   22.7143   34.3162 C   0  0  2  0  0  0  0  0  0  0  0  0
    2.7763   23.3506   33.3827 N   0  0  0  0  0  0  0  0  0  0  0  0
    1.6823   17.6053   34.5063 C   0  0  0  0  0  0  0  0  0  0  0  0
    0.4433   15.8022   38.9346 C   0  0  2  0  0  0  0  0  0  0  0  0
    1.5332   15.7315   38.0400 O   0  0  0  0  0  0  0  0  0  0  0  0
    4.4569   21.5151   33.6362 C   0  0  0  0  0  0  0  0  0  0  0  0
    1.6461   19.1496   34.1577 C   0  0  2  0  0  0  0  0  0  0  0  0
    2.6758   19.4356   33.1579 N   0  0  0  0  0  0  0  0  0  0  0  0
   -0.8208   15.0858   38.3345 C   0  0  1  0  0  0  0  0  0  0  0  0
   -0.5072   13.6438   38.0759 N   0  0  0  0  0  0  0  0  0  0  0  0
    5.0776   20.5260   34.7096 C   0  0  0  0  0  0  0  0  0  0  0  0
    1.9253   19.9803   35.4765 C   0  0  2  0  0  0  0  0  0  0  0  0
   -2.0405   15.1882   39.4069 C   0  0  1  0  0  0  0  0  0  0  0  0
   -1.7454   14.5739   40.6458 O   0  0  0  0  0  0  0  0  0  0  0  0
    4.7274   20.5991   36.0167 C   0  0  1  0  0  0  0  0  0  0  0  0
    3.7964   21.5498   36.5263 O   0  0  0  0  0  0  0  0  0  0  0  0
    0.8066   19.6637   36.5544 C   0  0  2  0  0  0  0  0  0  0  0  0
    1.0772   20.4131   37.7567 O   0  0  0  0  0  0  0  0  0  0  0  0
   -2.3587   16.6894   39.6761 C   0  0  0  0  0  0  0  0  0  0  0  0
   -1.0992   17.4157   40.1159 O   0  0  0  0  0  0  0  0  0  0  0  0
    5.2895   19.6721   37.0680 C   0  0  0  0  0  0  0  0  0  0  0  0
    4.7167   18.3705   36.8180 O   0  0  0  0  0  0  0  0  0  0  0  0
    0.8397   18.1247   36.8943 C   0  0  1  0  0  0  0  0  0  0  0  0
   -0.1630   17.8677   37.8458 O   0  0  0  0  0  0  0  0  0  0  0  0
   -3.3502   14.5344   38.9474 C   0  0  0  0  0  0  0  0  0  0  0  0
   -0.4061   13.2407   36.6579 C   0  0  0  0  0  0  0  0  0  0  0  0
  1  2  1  6  0  0  0
  1  6  1  0  0  0  0
  1 21  1  0  0  0  0
  3  4  1  1  0  0  0
  3  8  1  0  0  0  0
  3 28  1  0  0  0  0
  5  9  1  0  0  0  0
  5 25  1  0  0  0  0
  5 29  1  6  0  0  0
  6  7  1  6  0  0  0
  6 11  1  0  0  0  0
  8 12  1  0  0  0  0
  9 10  1  6  0  0  0
  9 14  1  0  0  0  0
 11 16  1  0  0  0  0
 12 13  1  6  0  0  0
 12 17  1  0  0  0  0
 14 15  1  1  0  0  0
 14 18  1  0  0  0  0
 15 31  1  0  0  0  0
 16 20  1  0  0  0  0
 17  2  1  6  0  0  0
 17 22  1  0  0  0  0
 18 19  1  1  0  0  0
 18 24  1  0  0  0  0
 18 30  1  0  0  0  0
 20 21  1  0  0  0  0
 20 26  1  6  0  0  0
 22 23  1  1  0  0  0
 22 28  1  0  0  0  0
 24 25  1  0  0  0  0
 26 27  1  0  0  0  0
 28 29  1  1  0  0  0
M  END
>  <CHROM.1>
113.05736726,-72.67162396,-109.85182686,-133.03411630,-70.58232848,121.13545663
1.30484014,18.25778178,36.78404643,0.51444137,0.88025372,0.35295792

>  <Name>
ligand

>  <RI>
0

>  <Rbt.Current_Directory>
/home/itssahil/PROJECTS/Mol_Feturizer/New_Systems/rnas/4GPY

>  <Rbt.Executable>
rbdock ($Id: //depot/dev/client3/rdock/2013.1/src/exe/rbdock.cxx#4 $)

>  <Rbt.Library>
libRbt.so (2013.1, Build901 2013/11/27)

>  <Rbt.Parameter_File>
/export/apps/rDock/src/rDock_2013.1_src/data/scripts/dock_solv.prm

>  <Rbt.Receptor>
prm/blind_docking_60.prm

>  <SCORE>
37.1546

>  <SCORE.INTER>
5.34242

>  <SCORE.INTER.CONST>
1

>  <SCORE.INTER.POLAR>
0

>  <SCORE.INTER.ROT>
6

>  <SCORE.INTER.SOLV>
19.1273

>  <SCORE.INTER.VDW>
-10.4142

>  <SCORE.INTER.norm>
0.172336

>  <SCORE.INTRA>
12.1847

>  <SCORE.INTRA.DIHEDRAL>
11.1804

>  <SCORE.INTRA.DIHEDRAL.0>
14.7001

>  <SCORE.INTRA.POLAR>
0

>  <SCORE.INTRA.POLAR.0>
0

>  <SCORE.INTRA.REPUL>
0.041797

>  <SCORE.INTRA.REPUL.0>
0

>  <SCORE.INTRA.SOLV>
7.25734

>  <SCORE.INTRA.SOLV.lig_0>
-65.3082

>  <SCORE.INTRA.VDW>
2.75684

>  <SCORE.INTRA.VDW.0>
-4.21408

>  <SCORE.INTRA.norm>
0.393055

>  <SCORE.RESTR>
19.6275

>  <SCORE.RESTR.CAVITY>
19.6275

>  <SCORE.RESTR.norm>
0.633146

>  <SCORE.SYSTEM>
0

>  <SCORE.SYSTEM.CONST>
0

>  <SCORE.SYSTEM.DIHEDRAL>
0

>  <SCORE.SYSTEM.SOLV>
0

>  <SCORE.SYSTEM.norm>
0

>  <SCORE.heavy>
31

>  <SCORE.norm>
1.19854

>  <RMSD>
6.335

$$$$
ligand
 OpenBabel11021811493D
libRbt.so/2013.1/901 2013/11/27
 31 33  0  0  0  0  0  0  0  0999 V2000
    2.7050   20.4453   35.3478 C   0  0  2  0  0  0  0  0  0  0  0  0
    3.1044   19.1062   35.1275 O   0  0  0  0  0  0  0  0  0  0  0  0
    4.8083   15.8750   37.2992 C   0  0  2  0  0  0  0  0  0  0  0  0
    5.0922   14.9924   38.3797 N   0  0  0  0  0  0  0  0  0  0  0  0
    3.0301   13.3115   37.4314 C   0  0  2  0  0  0  0  0  0  0  0  0
    1.9694   20.9639   34.0371 C   0  0  2  0  0  0  0  0  0  0  0  0
    0.8338   20.0942   33.7496 N   0  0  0  0  0  0  0  0  0  0  0  0
    5.1822   17.3558   37.7541 C   0  0  0  0  0  0  0  0  0  0  0  0
    2.4280   12.1335   36.5941 C   0  0  2  0  0  0  0  0  0  0  0  0
    3.1482   12.0235   35.3848 O   0  0  0  0  0  0  0  0  0  0  0  0
    2.9693   21.0108   32.8238 C   0  0  0  0  0  0  0  0  0  0  0  0
    4.8818   18.3349   36.5463 C   0  0  2  0  0  0  0  0  0  0  0  0
    5.2281   19.7002   36.9436 N   0  0  0  0  0  0  0  0  0  0  0  0
    0.9119   12.4428   36.3165 C   0  0  1  0  0  0  0  0  0  0  0  0
    0.3130   11.3370   35.5022 N   0  0  0  0  0  0  0  0  0  0  0  0
    4.4031   21.5287   33.2621 C   0  0  0  0  0  0  0  0  0  0  0  0
    3.3422   18.2491   36.1866 C   0  0  2  0  0  0  0  0  0  0  0  0
    0.1290   12.5493   37.7391 C   0  0  1  0  0  0  0  0  0  0  0  0
    0.1930   11.3593   38.5002 O   0  0  0  0  0  0  0  0  0  0  0  0
    4.7433   21.6300   34.5700 C   0  0  1  0  0  0  0  0  0  0  0  0
    3.8622   21.2907   35.6371 O   0  0  0  0  0  0  0  0  0  0  0  0
    2.9752   16.7672   35.7589 C   0  0  2  0  0  0  0  0  0  0  0  0
    1.5687   16.6953   35.4474 O   0  0  0  0  0  0  0  0  0  0  0  0
    0.7592   13.6969   38.5839 C   0  0  0  0  0  0  0  0  0  0  0  0
    2.2548   13.4739   38.7276 O   0  0  0  0  0  0  0  0  0  0  0  0
    6.0993   22.1112   35.0283 C   0  0  0  0  0  0  0  0  0  0  0  0
    6.9117   20.9329   35.2190 O   0  0  0  0  0  0  0  0  0  0  0  0
    3.2820   15.7935   36.9600 C   0  0  1  0  0  0  0  0  0  0  0  0
    2.9549   14.4872   36.5556 O   0  0  0  0  0  0  0  0  0  0  0  0
   -1.3690   12.8589   37.6211 C   0  0  0  0  0  0  0  0  0  0  0  0
   -0.4641   11.7468   34.3141 C   0  0  0  0  0  0  0  0  0  0  0  0
  1  2  1  6  0  0  0
  1  6  1  0  0  0  0
  1 21  1  0  0  0  0
  3  4  1  1  0  0  0
  3  8  1  0  0  0  0
  3 28  1  0  0  0  0
  5  9  1  0  0  0  0
  5 25  1  0  0  0  0
  5 29  1  6  0  0  0
  6  7  1  6  0  0  0
  6 11  1  0  0  0  0
  8 12  1  0  0  0  0
  9 10  1  6  0  0  0
  9 14  1  0  0  0  0
 11 16  1  0  0  0  0
 12 13  1  1  0  0  0
 12 17  1  0  0  0  0
 14 15  1  6  0  0  0
 14 18  1  0  0  0  0
 15 31  1  0  0  0  0
 16 20  1  0  0  0  0
 17  2  1  6  0  0  0
 17 22  1  0  0  0  0
 18 19  1  1  0  0  0
 18 24  1  0  0  0  0
 18 30  1  0  0  0  0
 20 21  1  0  0  0  0
 20 26  1  6  0  0  0
 22 23  1  1  0  0  0
 22 28  1  0  0  0  0
 24 25  1  0  0  0  0
 26 27  1  0  0  0  0
 28 29  1  6  0  0  0
M  END
>  <CHROM.1>
-157.55547244,174.01798763,-131.08227711,-92.04920293,-93.78173378,65.21927160
2.83886976,16.56615658,36.10799527,1.14505187,-0.53083447,-0.47773486

>  <Name>
ligand

>  <RI>
0

>  <Rbt.Current_Directory>
/home/itssahil/PROJECTS/Mol_Feturizer/New_Systems/rnas/4GPY

>  <Rbt.Executable>
rbdock ($Id: //depot/dev/client3/rdock/2013.1/src/exe/rbdock.cxx#4 $)

>  <Rbt.Library>
libRbt.so (2013.1, Build901 2013/11/27)

>  <Rbt.Parameter_File>
/export/apps/rDock/src/rDock_2013.1_src/data/scripts/dock_solv.prm

>  <Rbt.Receptor>
prm/pocket_docking_8.prm

>  <SCORE>
-9.91877

>  <SCORE.INTER>
-10.4137

>  <SCORE.INTER.CONST>
1

>  <SCORE.INTER.POLAR>
0

>  <SCORE.INTER.ROT>
6

>  <SCORE.INTER.SOLV>
15.194

>  <SCORE.INTER.VDW>
-19.6072

>  <SCORE.INTER.norm>
-0.335927

>  <SCORE.INTRA>
0.49496

>  <SCORE.INTRA.DIHEDRAL>
-4.63194

>  <SCORE.INTRA.DIHEDRAL.0>
14.7001

>  <SCORE.INTRA.POLAR>
0

>  <SCORE.INTRA.POLAR.0>
0

>  <SCORE.INTRA.REPUL>
0

>  <SCORE.INTRA.REPUL.0>
0

>  <SCORE.INTRA.SOLV>
3.55313

>  <SCORE.INTRA.SOLV.lig_0>
-65.3082

>  <SCORE.INTRA.VDW>
1.03436

>  <SCORE.INTRA.VDW.0>
-4.21408

>  <SCORE.INTRA.norm>
0.0159664

>  <SCORE.RESTR>
0

>  <SCORE.RESTR.CAVITY>
0

>  <SCORE.RESTR.norm>
0

>  <SCORE.SYSTEM>
0

>  <SCORE.SYSTEM.CONST>
0

>  <SCORE.SYSTEM.DIHEDRAL>
0

>  <SCORE.SYSTEM.SOLV>
0

>  <SCORE.SYSTEM.norm>
0

>  <SCORE.heavy>
31

>  <SCORE.norm>
-0.31996

>  <RMSD>
6.338

$$$$
ligand
 OpenBabel11021811493D
libRbt.so/2013.1/901 2013/11/27
 31 33  0  0  0  0  0  0  0  0999 V2000
   -2.3655   16.0357   42.9997 C   0  0  2  0  0  0  0  0  0  0  0  0
   -2.7495   16.2527   41.6555 O   0  0  0  0  0  0  0  0  0  0  0  0
   -2.6772   12.2525   40.2227 C   0  0  2  0  0  0  0  0  0  0  0  0
   -2.8643   11.1397   39.3546 N   0  0  0  0  0  0  0  0  0  0  0  0
   -0.1688   11.8235   38.1586 C   0  0  2  0  0  0  0  0  0  0  0  0
   -2.4097   17.4324   43.7583 C   0  0  2  0  0  0  0  0  0  0  0  0
   -3.7540   17.9902   43.6562 N   0  0  0  0  0  0  0  0  0  0  0  0
   -4.0990   12.9215   40.4886 C   0  0  0  0  0  0  0  0  0  0  0  0
    1.3934   11.8004   38.0581 C   0  0  2  0  0  0  0  0  0  0  0  0
    1.9200   11.3672   39.2943 O   0  0  0  0  0  0  0  0  0  0  0  0
   -1.3394   18.4191   43.1627 C   0  0  0  0  0  0  0  0  0  0  0  0
   -3.8926   14.1492   41.4672 C   0  0  2  0  0  0  0  0  0  0  0  0
   -5.1910   14.7712   41.7300 N   0  0  0  0  0  0  0  0  0  0  0  0
    1.8925   13.2511   37.7146 C   0  0  1  0  0  0  0  0  0  0  0  0
    3.3881   13.2617   37.6273 N   0  0  0  0  0  0  0  0  0  0  0  0
    0.0185   17.6760   42.8165 C   0  0  0  0  0  0  0  0  0  0  0  0
   -2.9197   15.1939   40.7822 C   0  0  2  0  0  0  0  0  0  0  0  0
    1.2658   13.6957   36.2802 C   0  0  1  0  0  0  0  0  0  0  0  0
    1.6496   12.8457   35.2174 O   0  0  0  0  0  0  0  0  0  0  0  0
    0.0915   16.3230   42.7913 C   0  0  1  0  0  0  0  0  0  0  0  0
   -1.0178   15.4733   43.0697 O   0  0  0  0  0  0  0  0  0  0  0  0
   -1.5166   14.5120   40.4998 C   0  0  2  0  0  0  0  0  0  0  0  0
   -0.6423   15.4661   39.8628 O   0  0  0  0  0  0  0  0  0  0  0  0
   -0.2893   13.6777   36.3750 C   0  0  0  0  0  0  0  0  0  0  0  0
   -0.7641   12.3155   36.8505 O   0  0  0  0  0  0  0  0  0  0  0  0
    1.3624   15.5778   42.4595 C   0  0  0  0  0  0  0  0  0  0  0  0
    2.4401   16.5325   42.5687 O   0  0  0  0  0  0  0  0  0  0  0  0
   -1.7255   13.2858   39.5314 C   0  0  1  0  0  0  0  0  0  0  0  0
   -0.4707   12.6948   39.3008 O   0  0  0  0  0  0  0  0  0  0  0  0
    1.6641   15.1038   35.8192 C   0  0  0  0  0  0  0  0  0  0  0  0
    4.0704   14.4232   38.2347 C   0  0  0  0  0  0  0  0  0  0  0  0
  1  2  1  6  0  0  0
  1  6  1  0  0  0  0
  1 21  1  0  0  0  0
  3  4  1  6  0  0  0
  3  8  1  0  0  0  0
  3 28  1  0  0  0  0
  5  9  1  0  0  0  0
  5 25  1  0  0  0  0
  5 29  1  1  0  0  0
  6  7  1  6  0  0  0
  6 11  1  0  0  0  0
  8 12  1  0  0  0  0
  9 10  1  1  0  0  0
  9 14  1  0  0  0  0
 11 16  1  0  0  0  0
 12 13  1  6  0  0  0
 12 17  1  0  0  0  0
 14 15  1  6  0  0  0
 14 18  1  0  0  0  0
 15 31  1  0  0  0  0
 16 20  1  0  0  0  0
 17  2  1  1  0  0  0
 17 22  1  0  0  0  0
 18 19  1  6  0  0  0
 18 24  1  0  0  0  0
 18 30  1  0  0  0  0
 20 21  1  0  0  0  0
 20 26  1  6  0  0  0
 22 23  1  6  0  0  0
 22 28  1  0  0  0  0
 24 25  1  0  0  0  0
 26 27  1  0  0  0  0
 28 29  1  1  0  0  0
M  END
>  <CHROM.1>
-174.13141721,161.91692046,-138.57838877,51.78985079,15.54506097,81.71045967
-0.58666125,14.44054894,40.03751098,2.10327697,0.29724280,0.83730011

>  <Name>
ligand

>  <RI>
0

>  <Rbt.Current_Directory>
/home/itssahil/PROJECTS/Mol_Feturizer/New_Systems/rnas/4GPY

>  <Rbt.Executable>
rbdock ($Id: //depot/dev/client3/rdock/2013.1/src/exe/rbdock.cxx#4 $)

>  <Rbt.Library>
libRbt.so (2013.1, Build901 2013/11/27)

>  <Rbt.Parameter_File>
/export/apps/rDock/src/rDock_2013.1_src/data/scripts/dock_solv.prm

>  <Rbt.Receptor>
prm/pocket_docking_5.prm

>  <SCORE>
-1.03894

>  <SCORE.INTER>
0.873735

>  <SCORE.INTER.CONST>
1

>  <SCORE.INTER.POLAR>
0

>  <SCORE.INTER.ROT>
6

>  <SCORE.INTER.SOLV>
9.62381

>  <SCORE.INTER.VDW>
-10.2254

>  <SCORE.INTER.norm>
0.028185

>  <SCORE.INTRA>
-1.91948

>  <SCORE.INTRA.DIHEDRAL>
-7.69651

>  <SCORE.INTRA.DIHEDRAL.0>
14.7001

>  <SCORE.INTRA.POLAR>
0

>  <SCORE.INTRA.POLAR.0>
0

>  <SCORE.INTRA.REPUL>
0

>  <SCORE.INTRA.REPUL.0>
0

>  <SCORE.INTRA.SOLV>
-0.118081

>  <SCORE.INTRA.SOLV.lig_0>
-65.3082

>  <SCORE.INTRA.VDW>
1.98782

>  <SCORE.INTRA.VDW.0>
-4.21408

>  <SCORE.INTRA.norm>
-0.0619186

>  <SCORE.RESTR>
0.00679806

>  <SCORE.RESTR.CAVITY>
0.00679806

>  <SCORE.RESTR.norm>
0.000219292

>  <SCORE.SYSTEM>
0

>  <SCORE.SYSTEM.CONST>
0

>  <SCORE.SYSTEM.DIHEDRAL>
0

>  <SCORE.SYSTEM.SOLV>
0

>  <SCORE.SYSTEM.norm>
0

>  <SCORE.heavy>
31

>  <SCORE.norm>
-0.0335143

>  <RMSD>
6.344

$$$$
ligand
 OpenBabel11021811493D
libRbt.so/2013.1/901 2013/11/27
 31 33  0  0  0  0  0  0  0  0999 V2000
    1.7616   21.3463   36.4555 C   0  0  2  0  0  0  0  0  0  0  0  0
    1.7605   20.1160   35.7573 O   0  0  0  0  0  0  0  0  0  0  0  0
    2.7232   16.0034   36.2261 C   0  0  2  0  0  0  0  0  0  0  0  0
    3.2993   14.8181   36.7646 N   0  0  0  0  0  0  0  0  0  0  0  0
    0.5146   15.2433   38.9806 C   0  0  2  0  0  0  0  0  0  0  0  0
    1.4409   22.5055   35.4155 C   0  0  2  0  0  0  0  0  0  0  0  0
    0.1547   22.2370   34.7812 N   0  0  0  0  0  0  0  0  0  0  0  0
    3.9042   17.0054   35.8509 C   0  0  0  0  0  0  0  0  0  0  0  0
   -0.8326   14.4518   38.8821 C   0  0  2  0  0  0  0  0  0  0  0  0
   -0.7102   13.4743   37.8708 O   0  0  0  0  0  0  0  0  0  0  0  0
    2.5879   22.6210   34.3455 C   0  0  0  0  0  0  0  0  0  0  0  0
    3.2637   18.3170   35.2368 C   0  0  2  0  0  0  0  0  0  0  0  0
    4.3356   19.2463   34.8777 N   0  0  0  0  0  0  0  0  0  0  0  0
   -1.9840   15.4671   38.5428 C   0  0  1  0  0  0  0  0  0  0  0  0
   -3.2849   14.7331   38.4272 N   0  0  0  0  0  0  0  0  0  0  0  0
    4.0216   22.4274   34.9958 C   0  0  0  0  0  0  0  0  0  0  0  0
    2.3124   18.9777   36.3164 C   0  0  2  0  0  0  0  0  0  0  0  0
   -2.0878   16.5624   39.7417 C   0  0  1  0  0  0  0  0  0  0  0  0
   -2.3797   15.9855   40.9992 O   0  0  0  0  0  0  0  0  0  0  0  0
    4.1621   21.9466   36.2550 C   0  0  1  0  0  0  0  0  0  0  0  0
    3.0603   21.5854   37.0830 O   0  0  0  0  0  0  0  0  0  0  0  0
    1.1553   17.9643   36.7009 C   0  0  2  0  0  0  0  0  0  0  0  0
    0.3028   18.5688   37.6949 O   0  0  0  0  0  0  0  0  0  0  0  0
   -0.7309   17.3188   39.8611 C   0  0  0  0  0  0  0  0  0  0  0  0
    0.4029   16.3244   40.0420 O   0  0  0  0  0  0  0  0  0  0  0  0
    5.5084   21.7409   36.9073 C   0  0  0  0  0  0  0  0  0  0  0  0
    5.5958   20.3381   37.2380 O   0  0  0  0  0  0  0  0  0  0  0  0
    1.7956   16.6566   37.3050 C   0  0  1  0  0  0  0  0  0  0  0  0
    0.7524   15.7725   37.6321 O   0  0  0  0  0  0  0  0  0  0  0  0
   -3.1719   17.6290   39.5389 C   0  0  0  0  0  0  0  0  0  0  0  0
   -4.2339   15.2399   37.4143 C   0  0  0  0  0  0  0  0  0  0  0  0
  1  2  1  6  0  0  0
  1  6  1  0  0  0  0
  1 21  1  0  0  0  0
  3  4  1  1  0  0  0
  3  8  1  0  0  0  0
  3 28  1  0  0  0  0
  5  9  1  0  0  0  0
  5 25  1  0  0  0  0
  5 29  1  6  0  0  0
  6  7  1  6  0  0  0
  6 11  1  0  0  0  0
  8 12  1  0  0  0  0
  9 10  1  6  0  0  0
  9 14  1  0  0  0  0
 11 16  1  0  0  0  0
 12 13  1  1  0  0  0
 12 17  1  0  0  0  0
 14 15  1  1  0  0  0
 14 18  1  0  0  0  0
 15 31  1  0  0  0  0
 16 20  1  0  0  0  0
 17  2  1  6  0  0  0
 17 22  1  0  0  0  0
 18 19  1  1  0  0  0
 18 24  1  0  0  0  0
 18 30  1  0  0  0  0
 20 21  1  0  0  0  0
 20 26  1  6  0  0  0
 22 23  1  1  0  0  0
 22 28  1  0  0  0  0
 24 25  1  0  0  0  0
 26 27  1  0  0  0  0
 28 29  1  6  0  0  0
M  END
>  <CHROM.1>
164.47494093,173.60731813,-144.90259671,-131.52268266,-120.53256739,119.96807443
1.12434478,18.13678434,37.26117090,0.86163815,0.31042202,-0.24061674

>  <Name>
ligand

>  <RI>
0

>  <Rbt.Current_Directory>
/home/itssahil/PROJECTS/Mol_Feturizer/New_Systems/rnas/4GPY

>  <Rbt.Executable>
rbdock ($Id: //depot/dev/client3/rdock/2013.1/src/exe/rbdock.cxx#4 $)

>  <Rbt.Library>
libRbt.so (2013.1, Build901 2013/11/27)

>  <Rbt.Parameter_File>
/export/apps/rDock/src/rDock_2013.1_src/data/scripts/dock_solv.prm

>  <Rbt.Receptor>
prm/blind_docking_60.prm

>  <SCORE>
22.1828

>  <SCORE.INTER>
-2.12504

>  <SCORE.INTER.CONST>
1

>  <SCORE.INTER.POLAR>
0

>  <SCORE.INTER.ROT>
6

>  <SCORE.INTER.SOLV>
18.3

>  <SCORE.INTER.VDW>
-15.1167

>  <SCORE.INTER.norm>
-0.0685498

>  <SCORE.INTRA>
3.16405

>  <SCORE.INTRA.DIHEDRAL>
2.82015

>  <SCORE.INTRA.DIHEDRAL.0>
14.7001

>  <SCORE.INTRA.POLAR>
0

>  <SCORE.INTRA.POLAR.0>
0

>  <SCORE.INTRA.REPUL>
0

>  <SCORE.INTRA.REPUL.0>
0

>  <SCORE.INTRA.SOLV>
2.54394

>  <SCORE.INTRA.SOLV.lig_0>
-65.3082

>  <SCORE.INTRA.VDW>
0.482004

>  <SCORE.INTRA.VDW.0>
-4.21408

>  <SCORE.INTRA.norm>
0.102066

>  <SCORE.RESTR>
21.1438

>  <SCORE.RESTR.CAVITY>
21.1438

>  <SCORE.RESTR.norm>
0.682057

>  <SCORE.SYSTEM>
0

>  <SCORE.SYSTEM.CONST>
0

>  <SCORE.SYSTEM.DIHEDRAL>
0

>  <SCORE.SYSTEM.SOLV>
0

>  <SCORE.SYSTEM.norm>
0

>  <SCORE.heavy>
31

>  <SCORE.norm>
0.715573

>  <RMSD>
6.362

$$$$
ligand
 OpenBabel11021811493D
libRbt.so/2013.1/901 2013/11/27
 31 33  0  0  0  0  0  0  0  0999 V2000
    2.8152   12.6064   41.2374 C   0  0  2  0  0  0  0  0  0  0  0  0
    2.6679   12.4050   42.6299 O   0  0  0  0  0  0  0  0  0  0  0  0
   -0.8333    9.9964   42.6533 C   0  0  2  0  0  0  0  0  0  0  0  0
   -1.8689    9.1476   43.1368 N   0  0  0  0  0  0  0  0  0  0  0  0
   -3.4223   11.4199   43.5459 C   0  0  2  0  0  0  0  0  0  0  0  0
    4.1959   13.3548   40.9893 C   0  0  2  0  0  0  0  0  0  0  0  0
    5.2813   12.5533   41.5444 N   0  0  0  0  0  0  0  0  0  0  0  0
    0.5644    9.2792   42.9210 C   0  0  0  0  0  0  0  0  0  0  0  0
   -4.4843   12.4220   42.9811 C   0  0  2  0  0  0  0  0  0  0  0  0
   -4.2665   12.5785   41.5950 O   0  0  0  0  0  0  0  0  0  0  0  0
    4.1682   14.7920   41.6278 C   0  0  0  0  0  0  0  0  0  0  0  0
    1.7150   10.2163   42.3682 C   0  0  2  0  0  0  0  0  0  0  0  0
    3.0071    9.5686   42.5978 N   0  0  0  0  0  0  0  0  0  0  0  0
   -4.3239   13.7942   43.7313 C   0  0  1  0  0  0  0  0  0  0  0  0
   -5.3196   14.7788   43.1990 N   0  0  0  0  0  0  0  0  0  0  0  0
    2.7630   15.4993   41.4253 C   0  0  0  0  0  0  0  0  0  0  0  0
    1.6599   11.6021   43.1321 C   0  0  2  0  0  0  0  0  0  0  0  0
   -4.5942   13.5590   45.3187 C   0  0  1  0  0  0  0  0  0  0  0  0
   -5.8902   13.0662   45.5957 O   0  0  0  0  0  0  0  0  0  0  0  0
    1.6804   14.8019   41.0032 C   0  0  1  0  0  0  0  0  0  0  0  0
    1.7122   13.4080   40.7098 O   0  0  0  0  0  0  0  0  0  0  0  0
    0.2570   12.2962   42.8794 C   0  0  2  0  0  0  0  0  0  0  0  0
    0.2105   13.5502   43.5905 O   0  0  0  0  0  0  0  0  0  0  0  0
   -3.5596   12.5305   45.8658 C   0  0  0  0  0  0  0  0  0  0  0  0
   -3.6128   11.2542   45.0439 O   0  0  0  0  0  0  0  0  0  0  0  0
    0.3243   15.4361   40.8051 C   0  0  0  0  0  0  0  0  0  0  0  0
    0.1605   15.6220   39.3826 O   0  0  0  0  0  0  0  0  0  0  0  0
   -0.8871   11.3583   43.4237 C   0  0  1  0  0  0  0  0  0  0  0  0
   -2.1195   11.9911   43.1835 O   0  0  0  0  0  0  0  0  0  0  0  0
   -4.4619   14.8205   46.1819 C   0  0  0  0  0  0  0  0  0  0  0  0
   -4.9099   15.5404   42.0009 C   0  0  0  0  0  0  0  0  0  0  0  0
  1  2  1  1  0  0  0
  1  6  1  0  0  0  0
  1 21  1  0  0  0  0
  3  4  1  1  0  0  0
  3  8  1  0  0  0  0
  3 28  1  0  0  0  0
  5  9  1  0  0  0  0
  5 25  1  0  0  0  0
  5 29  1  1  0  0  0
  6  7  1  1  0  0  0
  6 11  1  0  0  0  0
  8 12  1  0  0  0  0
  9 10  1  6  0  0  0
  9 14  1  0  0  0  0
 11 16  1  0  0  0  0
 12 13  1  1  0  0  0
 12 17  1  0  0  0  0
 14 15  1  6  0  0  0
 14 18  1  0  0  0  0
 15 31  1  0  0  0  0
 16 20  1  0  0  0  0
 17  2  1  6  0  0  0
 17 22  1  0  0  0  0
 18 19  1  1  0  0  0
 18 24  1  0  0  0  0
 18 30  1  0  0  0  0
 20 21  1  0  0  0  0
 20 26  1  1  0  0  0
 22 23  1  1  0  0  0
 22 28  1  0  0  0  0
 24 25  1  0  0  0  0
 26 27  1  0  0  0  0
 28 29  1  6  0  0  0
M  END
>  <CHROM.1>
-170.22593205,-175.55797498,-86.09154532,51.03153822,102.66254938,61.18467450
-0.72889033,12.78069312,42.78200164,-0.10730239,-0.32999054,2.76020053

>  <Name>
ligand

>  <RI>
0

>  <Rbt.Current_Directory>
/home/itssahil/PROJECTS/Mol_Feturizer/New_Systems/rnas/4GPY

>  <Rbt.Executable>
rbdock ($Id: //depot/dev/client3/rdock/2013.1/src/exe/rbdock.cxx#4 $)

>  <Rbt.Library>
libRbt.so (2013.1, Build901 2013/11/27)

>  <Rbt.Parameter_File>
/export/apps/rDock/src/rDock_2013.1_src/data/scripts/dock_solv.prm

>  <Rbt.Receptor>
prm/pocket_docking_7.prm

>  <SCORE>
-3.29289

>  <SCORE.INTER>
0.40297

>  <SCORE.INTER.CONST>
1

>  <SCORE.INTER.POLAR>
0

>  <SCORE.INTER.ROT>
6

>  <SCORE.INTER.SOLV>
8.93412

>  <SCORE.INTER.VDW>
-10.3094

>  <SCORE.INTER.norm>
0.012999

>  <SCORE.INTRA>
-3.69586

>  <SCORE.INTRA.DIHEDRAL>
-11.2093

>  <SCORE.INTRA.DIHEDRAL.0>
14.7001

>  <SCORE.INTRA.POLAR>
0

>  <SCORE.INTRA.POLAR.0>
0

>  <SCORE.INTRA.REPUL>
0

>  <SCORE.INTRA.REPUL.0>
0

>  <SCORE.INTRA.SOLV>
0.421415

>  <SCORE.INTRA.SOLV.lig_0>
-65.3082

>  <SCORE.INTRA.VDW>
1.69806

>  <SCORE.INTRA.VDW.0>
-4.21408

>  <SCORE.INTRA.norm>
-0.119221

>  <SCORE.RESTR>
0

>  <SCORE.RESTR.CAVITY>
0

>  <SCORE.RESTR.norm>
0

>  <SCORE.SYSTEM>
0

>  <SCORE.SYSTEM.CONST>
0

>  <SCORE.SYSTEM.DIHEDRAL>
0

>  <SCORE.SYSTEM.SOLV>
0

>  <SCORE.SYSTEM.norm>
0

>  <SCORE.heavy>
31

>  <SCORE.norm>
-0.106222

>  <RMSD>
6.367

$$$$
ligand
 OpenBabel11021811493D
libRbt.so/2013.1/901 2013/11/27
 31 33  0  0  0  0  0  0  0  0999 V2000
    2.3203   20.6990   35.4443 C   0  0  2  0  0  0  0  0  0  0  0  0
    1.5479   19.6355   34.9211 O   0  0  0  0  0  0  0  0  0  0  0  0
    1.1406   16.8885   38.1380 C   0  0  2  0  0  0  0  0  0  0  0  0
    0.5439   15.9524   39.0293 N   0  0  0  0  0  0  0  0  0  0  0  0
    3.2715   15.0528   36.3406 C   0  0  2  0  0  0  0  0  0  0  0  0
    2.9864   21.4728   34.2253 C   0  0  2  0  0  0  0  0  0  0  0  0
    1.9375   21.9472   33.3290 N   0  0  0  0  0  0  0  0  0  0  0  0
    0.3068   18.2448   38.2083 C   0  0  0  0  0  0  0  0  0  0  0  0
    3.6579   13.5444   36.5037 C   0  0  2  0  0  0  0  0  0  0  0  0
    2.8466   12.7737   35.6428 O   0  0  0  0  0  0  0  0  0  0  0  0
    4.0015   20.5406   33.4673 C   0  0  0  0  0  0  0  0  0  0  0  0
    0.9807   19.2910   37.2290 C   0  0  2  0  0  0  0  0  0  0  0  0
    0.2323   20.5472   37.2874 N   0  0  0  0  0  0  0  0  0  0  0  0
    3.4326   13.1312   38.0037 C   0  0  1  0  0  0  0  0  0  0  0  0
    3.7807   11.6854   38.1857 N   0  0  0  0  0  0  0  0  0  0  0  0
    4.8392   19.6427   34.4713 C   0  0  0  0  0  0  0  0  0  0  0  0
    0.9500   18.7096   35.7566 C   0  0  2  0  0  0  0  0  0  0  0  0
    4.3960   14.0405   38.9488 C   0  0  1  0  0  0  0  0  0  0  0  0
    5.7709   13.8801   38.6602 O   0  0  0  0  0  0  0  0  0  0  0  0
    4.4851   19.5294   35.7745 C   0  0  1  0  0  0  0  0  0  0  0  0
    3.3589   20.1936   36.3407 O   0  0  0  0  0  0  0  0  0  0  0  0
    1.7614   17.3486   35.7024 C   0  0  2  0  0  0  0  0  0  0  0  0
    1.7157   16.8192   34.3615 O   0  0  0  0  0  0  0  0  0  0  0  0
    4.0335   15.5429   38.7516 C   0  0  0  0  0  0  0  0  0  0  0  0
    4.1086   15.9055   37.2785 O   0  0  0  0  0  0  0  0  0  0  0  0
    5.2512   18.6798   36.7601 C   0  0  0  0  0  0  0  0  0  0  0  0
    6.0038   19.5900   37.5907 O   0  0  0  0  0  0  0  0  0  0  0  0
    1.0932   16.3112   36.6834 C   0  0  1  0  0  0  0  0  0  0  0  0
    1.8323   15.1166   36.6227 O   0  0  0  0  0  0  0  0  0  0  0  0
    4.2743   13.7500   40.4504 C   0  0  0  0  0  0  0  0  0  0  0  0
    2.8690   10.7088   37.5545 C   0  0  0  0  0  0  0  0  0  0  0  0
  1  2  1  6  0  0  0
  1  6  1  0  0  0  0
  1 21  1  0  0  0  0
  3  4  1  1  0  0  0
  3  8  1  0  0  0  0
  3 28  1  0  0  0  0
  5  9  1  0  0  0  0
  5 25  1  0  0  0  0
  5 29  1  1  0  0  0
  6  7  1  6  0  0  0
  6 11  1  0  0  0  0
  8 12  1  0  0  0  0
  9 10  1  6  0  0  0
  9 14  1  0  0  0  0
 11 16  1  0  0  0  0
 12 13  1  6  0  0  0
 12 17  1  0  0  0  0
 14 15  1  6  0  0  0
 14 18  1  0  0  0  0
 15 31  1  0  0  0  0
 16 20  1  0  0  0  0
 17  2  1  6  0  0  0
 17 22  1  0  0  0  0
 18 19  1  6  0  0  0
 18 24  1  0  0  0  0
 18 30  1  0  0  0  0
 20 21  1  0  0  0  0
 20 26  1  6  0  0  0
 22 23  1  6  0  0  0
 22 28  1  0  0  0  0
 24 25  1  0  0  0  0
 26 27  1  0  0  0  0
 28 29  1  1  0  0  0
M  END
>  <CHROM.1>
173.88342473,175.13350573,-69.60565154,14.48947214,105.08807018,-88.21157087
2.92228069,16.97640291,36.69817250,1.69096987,-0.02434723,-0.37704101

>  <Name>
ligand

>  <RI>
0

>  <Rbt.Current_Directory>
/home/itssahil/PROJECTS/Mol_Feturizer/New_Systems/rnas/4GPY

>  <Rbt.Executable>
rbdock ($Id: //depot/dev/client3/rdock/2013.1/src/exe/rbdock.cxx#4 $)

>  <Rbt.Library>
libRbt.so (2013.1, Build901 2013/11/27)

>  <Rbt.Parameter_File>
/export/apps/rDock/src/rDock_2013.1_src/data/scripts/dock_solv.prm

>  <Rbt.Receptor>
prm/blind_docking_80.prm

>  <SCORE>
7.02584

>  <SCORE.INTER>
1.93298

>  <SCORE.INTER.CONST>
1

>  <SCORE.INTER.POLAR>
0

>  <SCORE.INTER.ROT>
6

>  <SCORE.INTER.SOLV>
20.0668

>  <SCORE.INTER.VDW>
-13.0003

>  <SCORE.INTER.norm>
0.0623542

>  <SCORE.INTRA>
3.92065

>  <SCORE.INTRA.DIHEDRAL>
-2.89223

>  <SCORE.INTRA.DIHEDRAL.0>
14.7001

>  <SCORE.INTRA.POLAR>
0

>  <SCORE.INTRA.POLAR.0>
0

>  <SCORE.INTRA.REPUL>
0

>  <SCORE.INTRA.REPUL.0>
0

>  <SCORE.INTRA.SOLV>
0.812945

>  <SCORE.INTRA.SOLV.lig_0>
-65.3082

>  <SCORE.INTRA.VDW>
4.96029

>  <SCORE.INTRA.VDW.0>
-4.21408

>  <SCORE.INTRA.norm>
0.126472

>  <SCORE.RESTR>
1.17221

>  <SCORE.RESTR.CAVITY>
1.17221

>  <SCORE.RESTR.norm>
0.0378134

>  <SCORE.SYSTEM>
0

>  <SCORE.SYSTEM.CONST>
0

>  <SCORE.SYSTEM.DIHEDRAL>
0

>  <SCORE.SYSTEM.SOLV>
0

>  <SCORE.SYSTEM.norm>
0

>  <SCORE.heavy>
31

>  <SCORE.norm>
0.22664

>  <RMSD>
6.372

$$$$
ligand
 OpenBabel11021811493D
libRbt.so/2013.1/901 2013/11/27
 31 33  0  0  0  0  0  0  0  0999 V2000
    2.3294   20.6977   35.4565 C   0  0  2  0  0  0  0  0  0  0  0  0
    1.5685   19.6248   34.9355 O   0  0  0  0  0  0  0  0  0  0  0  0
    1.1495   16.9083   38.1766 C   0  0  2  0  0  0  0  0  0  0  0  0
    0.5514   15.9755   39.0705 N   0  0  0  0  0  0  0  0  0  0  0  0
    3.3191   15.0748   36.4098 C   0  0  2  0  0  0  0  0  0  0  0  0
    2.9774   21.4831   34.2354 C   0  0  2  0  0  0  0  0  0  0  0  0
    1.9168   21.9451   33.3464 N   0  0  0  0  0  0  0  0  0  0  0  0
    0.3006   18.2562   38.2218 C   0  0  0  0  0  0  0  0  0  0  0  0
    3.7118   13.5656   36.5493 C   0  0  2  0  0  0  0  0  0  0  0  0
    2.9059   12.8055   35.6741 O   0  0  0  0  0  0  0  0  0  0  0  0
    4.0007   20.5667   33.4692 C   0  0  0  0  0  0  0  0  0  0  0  0
    0.9758   19.2990   37.2397 C   0  0  2  0  0  0  0  0  0  0  0  0
    0.2135   20.5477   37.2750 N   0  0  0  0  0  0  0  0  0  0  0  0
    3.4850   13.1272   38.0419 C   0  0  1  0  0  0  0  0  0  0  0  0
    3.8391   11.6802   38.2012 N   0  0  0  0  0  0  0  0  0  0  0  0
    4.8567   19.6782   34.4662 C   0  0  0  0  0  0  0  0  0  0  0  0
    0.9699   18.7016   35.7734 C   0  0  2  0  0  0  0  0  0  0  0  0
    4.4422   14.0253   39.0038 C   0  0  1  0  0  0  0  0  0  0  0  0
    5.8184   13.8756   38.7159 O   0  0  0  0  0  0  0  0  0  0  0  0
    4.5119   19.5572   35.7712 C   0  0  1  0  0  0  0  0  0  0  0  0
    3.3801   20.2046   36.3456 O   0  0  0  0  0  0  0  0  0  0  0  0
    1.7962   17.3488   35.7442 C   0  0  2  0  0  0  0  0  0  0  0  0
    1.7731   16.8046   34.4087 O   0  0  0  0  0  0  0  0  0  0  0  0
    4.0735   15.5291   38.8302 C   0  0  0  0  0  0  0  0  0  0  0  0
    4.1503   15.9159   37.3633 O   0  0  0  0  0  0  0  0  0  0  0  0
    5.2954   18.7160   36.7504 C   0  0  0  0  0  0  0  0  0  0  0  0
    6.0165   19.6356   37.5985 O   0  0  0  0  0  0  0  0  0  0  0  0
    1.1267   16.3149   36.7280 C   0  0  1  0  0  0  0  0  0  0  0  0
    1.8790   15.1277   36.6895 O   0  0  0  0  0  0  0  0  0  0  0  0
    4.3184   13.7099   40.5002 C   0  0  0  0  0  0  0  0  0  0  0  0
    2.9417   10.7107   37.5392 C   0  0  0  0  0  0  0  0  0  0  0  0
  1  2  1  6  0  0  0
  1  6  1  0  0  0  0
  1 21  1  0  0  0  0
  3  4  1  1  0  0  0
  3  8  1  0  0  0  0
  3 28  1  0  0  0  0
  5  9  1  0  0  0  0
  5 25  1  0  0  0  0
  5 29  1  1  0  0  0
  6  7  1  6  0  0  0
  6 11  1  0  0  0  0
  8 12  1  0  0  0  0
  9 10  1  6  0  0  0
  9 14  1  0  0  0  0
 11 16  1  0  0  0  0
 12 13  1  6  0  0  0
 12 17  1  0  0  0  0
 14 15  1  6  0  0  0
 14 18  1  0  0  0  0
 15 31  1  0  0  0  0
 16 20  1  0  0  0  0
 17  2  1  6  0  0  0
 17 22  1  0  0  0  0
 18 19  1  6  0  0  0
 18 24  1  0  0  0  0
 18 30  1  0  0  0  0
 20 21  1  0  0  0  0
 20 26  1  6  0  0  0
 22 23  1  6  0  0  0
 22 28  1  0  0  0  0
 24 25  1  0  0  0  0
 26 27  1  0  0  0  0
 28 29  1  1  0  0  0
M  END
>  <CHROM.1>
174.96666431,177.14148581,-68.93331763,14.85697420,106.37935402,-89.00489254
2.95066521,16.98410698,36.72636473,1.69746606,-0.00922370,-0.38277264

>  <Name>
ligand

>  <RI>
0

>  <Rbt.Current_Directory>
/home/itssahil/PROJECTS/Mol_Feturizer/New_Systems/rnas/4GPY

>  <Rbt.Executable>
rbdock ($Id: //depot/dev/client3/rdock/2013.1/src/exe/rbdock.cxx#4 $)

>  <Rbt.Library>
libRbt.so (2013.1, Build901 2013/11/27)

>  <Rbt.Parameter_File>
/export/apps/rDock/src/rDock_2013.1_src/data/scripts/dock_solv.prm

>  <Rbt.Receptor>
prm/blind_docking_80.prm

>  <SCORE>
7.21436

>  <SCORE.INTER>
2.37863

>  <SCORE.INTER.CONST>
1

>  <SCORE.INTER.POLAR>
0

>  <SCORE.INTER.ROT>
6

>  <SCORE.INTER.SOLV>
20.0243

>  <SCORE.INTER.VDW>
-12.689

>  <SCORE.INTER.norm>
0.0767299

>  <SCORE.INTRA>
3.75789

>  <SCORE.INTRA.DIHEDRAL>
-2.98013

>  <SCORE.INTRA.DIHEDRAL.0>
14.7001

>  <SCORE.INTRA.POLAR>
0

>  <SCORE.INTRA.POLAR.0>
0

>  <SCORE.INTRA.REPUL>
0

>  <SCORE.INTRA.REPUL.0>
0

>  <SCORE.INTRA.SOLV>
0.64574

>  <SCORE.INTRA.SOLV.lig_0>
-65.3082

>  <SCORE.INTRA.VDW>
4.92508

>  <SCORE.INTRA.VDW.0>
-4.21408

>  <SCORE.INTRA.norm>
0.121222

>  <SCORE.RESTR>
1.07785

>  <SCORE.RESTR.CAVITY>
1.07785

>  <SCORE.RESTR.norm>
0.0347692

>  <SCORE.SYSTEM>
0

>  <SCORE.SYSTEM.CONST>
0

>  <SCORE.SYSTEM.DIHEDRAL>
0

>  <SCORE.SYSTEM.SOLV>
0

>  <SCORE.SYSTEM.norm>
0

>  <SCORE.heavy>
31

>  <SCORE.norm>
0.232721

>  <RMSD>
6.389

$$$$
ligand
 OpenBabel11021811493D
libRbt.so/2013.1/901 2013/11/27
 31 33  0  0  0  0  0  0  0  0999 V2000
    1.0348   20.0340   34.2617 C   0  0  2  0  0  0  0  0  0  0  0  0
    2.4077   19.7469   34.4457 O   0  0  0  0  0  0  0  0  0  0  0  0
    4.4741   16.7911   36.6938 C   0  0  2  0  0  0  0  0  0  0  0  0
    4.9631   16.0643   37.8160 N   0  0  0  0  0  0  0  0  0  0  0  0
    2.6769   14.3762   37.6010 C   0  0  2  0  0  0  0  0  0  0  0  0
    0.9191   21.3692   33.4062 C   0  0  2  0  0  0  0  0  0  0  0  0
    1.6150   21.1862   32.1370 N   0  0  0  0  0  0  0  0  0  0  0  0
    4.9601   18.3028   36.8291 C   0  0  0  0  0  0  0  0  0  0  0  0
    2.0305   13.0746   37.0186 C   0  0  2  0  0  0  0  0  0  0  0  0
    2.6324   12.7882   35.7741 O   0  0  0  0  0  0  0  0  0  0  0  0
    1.5073   22.5901   34.2047 C   0  0  0  0  0  0  0  0  0  0  0  0
    4.4297   19.1071   35.5723 C   0  0  2  0  0  0  0  0  0  0  0  0
    4.8747   20.4975   35.6754 N   0  0  0  0  0  0  0  0  0  0  0  0
    0.4862   13.3166   36.8510 C   0  0  1  0  0  0  0  0  0  0  0  0
   -0.1569   12.0899   36.2798 N   0  0  0  0  0  0  0  0  0  0  0  0
    1.1290   22.5245   35.7437 C   0  0  0  0  0  0  0  0  0  0  0  0
    2.8477   19.0443   35.5528 C   0  0  2  0  0  0  0  0  0  0  0  0
   -0.1572   13.6318   38.3120 C   0  0  1  0  0  0  0  0  0  0  0  0
    0.0149   12.5752   39.2358 O   0  0  0  0  0  0  0  0  0  0  0  0
    0.6105   21.3987   36.2917 C   0  0  1  0  0  0  0  0  0  0  0  0
    0.3642   20.2078   35.5493 O   0  0  0  0  0  0  0  0  0  0  0  0
    2.3742   17.5352   35.4425 C   0  0  2  0  0  0  0  0  0  0  0  0
    0.9327   17.4867   35.4402 O   0  0  0  0  0  0  0  0  0  0  0  0
    0.5187   14.9049   38.9036 C   0  0  0  0  0  0  0  0  0  0  0  0
    2.0270   14.7272   38.9285 O   0  0  0  0  0  0  0  0  0  0  0  0
    0.2441   21.2932   37.7529 C   0  0  0  0  0  0  0  0  0  0  0  0
    0.3745   19.9005   38.1106 O   0  0  0  0  0  0  0  0  0  0  0  0
    2.9095   16.7349   36.6907 C   0  0  1  0  0  0  0  0  0  0  0  0
    2.4828   15.4008   36.5678 O   0  0  0  0  0  0  0  0  0  0  0  0
   -1.6680   13.8990   38.2994 C   0  0  0  0  0  0  0  0  0  0  0  0
   -0.3705   12.0841   34.8177 C   0  0  0  0  0  0  0  0  0  0  0  0
  1  2  1  1  0  0  0
  1  6  1  0  0  0  0
  1 21  1  0  0  0  0
  3  4  1  1  0  0  0
  3  8  1  0  0  0  0
  3 28  1  0  0  0  0
  5  9  1  0  0  0  0
  5 25  1  0  0  0  0
  5 29  1  6  0  0  0
  6  7  1  6  0  0  0
  6 11  1  0  0  0  0
  8 12  1  0  0  0  0
  9 10  1  6  0  0  0
  9 14  1  0  0  0  0
 11 16  1  0  0  0  0
 12 13  1  1  0  0  0
 12 17  1  0  0  0  0
 14 15  1  1  0  0  0
 14 18  1  0  0  0  0
 15 31  1  0  0  0  0
 16 20  1  0  0  0  0
 17  2  1  6  0  0  0
 17 22  1  0  0  0  0
 18 19  1  1  0  0  0
 18 24  1  0  0  0  0
 18 30  1  0  0  0  0
 20 21  1  0  0  0  0
 20 26  1  1  0  0  0
 22 23  1  1  0  0  0
 22 28  1  0  0  0  0
 24 25  1  0  0  0  0
 26 27  1  0  0  0  0
 28 29  1  6  0  0  0
M  END
>  <CHROM.1>
152.17282318,179.46297610,-96.67371288,-170.76460023,-152.18289506,67.54987629
1.69642481,17.21475498,36.34638697,1.45318035,0.04540132,-0.29380420

>  <Name>
ligand

>  <RI>
0

>  <Rbt.Current_Directory>
/home/itssahil/PROJECTS/Mol_Feturizer/New_Systems/rnas/4GPY

>  <Rbt.Executable>
rbdock ($Id: //depot/dev/client3/rdock/2013.1/src/exe/rbdock.cxx#4 $)

>  <Rbt.Library>
libRbt.so (2013.1, Build901 2013/11/27)

>  <Rbt.Parameter_File>
/export/apps/rDock/src/rDock_2013.1_src/data/scripts/dock_solv.prm

>  <Rbt.Receptor>
prm/pocket_docking_5.prm

>  <SCORE>
-12.6989

>  <SCORE.INTER>
-10.0404

>  <SCORE.INTER.CONST>
1

>  <SCORE.INTER.POLAR>
0

>  <SCORE.INTER.ROT>
6

>  <SCORE.INTER.SOLV>
18.7832

>  <SCORE.INTER.VDW>
-20.5547

>  <SCORE.INTER.norm>
-0.323885

>  <SCORE.INTRA>
-2.65845

>  <SCORE.INTRA.DIHEDRAL>
-7.25483

>  <SCORE.INTRA.DIHEDRAL.0>
14.7001

>  <SCORE.INTRA.POLAR>
0

>  <SCORE.INTRA.POLAR.0>
0

>  <SCORE.INTRA.REPUL>
0

>  <SCORE.INTRA.REPUL.0>
0

>  <SCORE.INTRA.SOLV>
-0.403758

>  <SCORE.INTRA.SOLV.lig_0>
-65.3082

>  <SCORE.INTRA.VDW>
1.17084

>  <SCORE.INTRA.VDW.0>
-4.21408

>  <SCORE.INTRA.norm>
-0.0857565

>  <SCORE.RESTR>
0

>  <SCORE.RESTR.CAVITY>
0

>  <SCORE.RESTR.norm>
0

>  <SCORE.SYSTEM>
0

>  <SCORE.SYSTEM.CONST>
0

>  <SCORE.SYSTEM.DIHEDRAL>
0

>  <SCORE.SYSTEM.SOLV>
0

>  <SCORE.SYSTEM.norm>
0

>  <SCORE.heavy>
31

>  <SCORE.norm>
-0.409641

>  <RMSD>
6.403

$$$$
ligand
 OpenBabel11021811493D
libRbt.so/2013.1/901 2013/11/27
 31 33  0  0  0  0  0  0  0  0999 V2000
    1.5182   22.1366   36.1629 C   0  0  2  0  0  0  0  0  0  0  0  0
    0.8880   21.0834   35.4594 O   0  0  0  0  0  0  0  0  0  0  0  0
    1.1507   16.8860   34.8487 C   0  0  2  0  0  0  0  0  0  0  0  0
    1.7111   15.5803   34.7608 N   0  0  0  0  0  0  0  0  0  0  0  0
    0.7820   16.6083   38.6600 C   0  0  2  0  0  0  0  0  0  0  0  0
    1.8200   23.3089   35.1320 C   0  0  2  0  0  0  0  0  0  0  0  0
    0.5697   23.7353   34.5126 N   0  0  0  0  0  0  0  0  0  0  0  0
    1.9379   17.8350   33.8390 C   0  0  0  0  0  0  0  0  0  0  0  0
    0.4044   15.1691   39.1472 C   0  0  2  0  0  0  0  0  0  0  0  0
    1.2207   14.2347   38.4735 O   0  0  0  0  0  0  0  0  0  0  0  0
    2.8582   22.8383   34.0482 C   0  0  0  0  0  0  0  0  0  0  0  0
    1.3034   19.2834   33.9251 C   0  0  2  0  0  0  0  0  0  0  0  0
    2.0092   20.1675   32.9967 N   0  0  0  0  0  0  0  0  0  0  0  0
   -1.1144   14.9173   38.8291 C   0  0  1  0  0  0  0  0  0  0  0  0
   -1.5000   13.5389   39.2717 N   0  0  0  0  0  0  0  0  0  0  0  0
    4.0018   21.9386   34.6798 C   0  0  0  0  0  0  0  0  0  0  0  0
    1.4531   19.8222   35.4064 C   0  0  2  0  0  0  0  0  0  0  0  0
   -2.0080   16.0121   39.6359 C   0  0  1  0  0  0  0  0  0  0  0  0
   -1.8444   15.9394   41.0385 O   0  0  0  0  0  0  0  0  0  0  0  0
    3.8901   21.4403   35.9350 C   0  0  1  0  0  0  0  0  0  0  0  0
    2.7643   21.6786   36.7752 O   0  0  0  0  0  0  0  0  0  0  0  0
    0.6873   18.8584   36.4056 C   0  0  2  0  0  0  0  0  0  0  0  0
    0.8413   19.3487   37.7533 O   0  0  0  0  0  0  0  0  0  0  0  0
   -1.5993   17.4435   39.1758 C   0  0  0  0  0  0  0  0  0  0  0  0
   -0.1022   17.6353   39.3464 O   0  0  0  0  0  0  0  0  0  0  0  0
    4.9522   20.5745   36.5696 C   0  0  0  0  0  0  0  0  0  0  0  0
    4.5039   19.2084   36.4362 O   0  0  0  0  0  0  0  0  0  0  0  0
    1.3156   17.4157   36.3128 C   0  0  1  0  0  0  0  0  0  0  0  0
    0.6176   16.5791   37.2015 O   0  0  0  0  0  0  0  0  0  0  0  0
   -3.5208   15.8909   39.4111 C   0  0  0  0  0  0  0  0  0  0  0  0
   -1.0969   13.1549   40.6404 C   0  0  0  0  0  0  0  0  0  0  0  0
  1  2  1  6  0  0  0
  1  6  1  0  0  0  0
  1 21  1  0  0  0  0
  3  4  1  1  0  0  0
  3  8  1  0  0  0  0
  3 28  1  0  0  0  0
  5  9  1  0  0  0  0
  5 25  1  0  0  0  0
  5 29  1  6  0  0  0
  6  7  1  6  0  0  0
  6 11  1  0  0  0  0
  8 12  1  0  0  0  0
  9 10  1  6  0  0  0
  9 14  1  0  0  0  0
 11 16  1  0  0  0  0
 12 13  1  6  0  0  0
 12 17  1  0  0  0  0
 14 15  1  1  0  0  0
 14 18  1  0  0  0  0
 15 31  1  0  0  0  0
 16 20  1  0  0  0  0
 17  2  1  6  0  0  0
 17 22  1  0  0  0  0
 18 19  1  1  0  0  0
 18 24  1  0  0  0  0
 18 30  1  0  0  0  0
 20 21  1  0  0  0  0
 20 26  1  6  0  0  0
 22 23  1  1  0  0  0
 22 28  1  0  0  0  0
 24 25  1  0  0  0  0
 26 27  1  0  0  0  0
 28 29  1  1  0  0  0
M  END
>  <CHROM.1>
120.19531897,-153.59415258,48.62938748,-137.61003685,-99.52603597,166.62962949
0.97892574,18.37423436,36.91112437,0.93176714,0.78615582,-0.11422267

>  <Name>
ligand

>  <RI>
0

>  <Rbt.Current_Directory>
/home/itssahil/PROJECTS/Mol_Feturizer/New_Systems/rnas/4GPY

>  <Rbt.Executable>
rbdock ($Id: //depot/dev/client3/rdock/2013.1/src/exe/rbdock.cxx#4 $)

>  <Rbt.Library>
libRbt.so (2013.1, Build901 2013/11/27)

>  <Rbt.Parameter_File>
/export/apps/rDock/src/rDock_2013.1_src/data/scripts/dock_solv.prm

>  <Rbt.Receptor>
prm/blind_docking_60.prm

>  <SCORE>
33.2998

>  <SCORE.INTER>
6.84648

>  <SCORE.INTER.CONST>
1

>  <SCORE.INTER.POLAR>
0

>  <SCORE.INTER.ROT>
6

>  <SCORE.INTER.SOLV>
20.7121

>  <SCORE.INTER.VDW>
-9.93972

>  <SCORE.INTER.norm>
0.220854

>  <SCORE.INTRA>
5.97758

>  <SCORE.INTRA.DIHEDRAL>
4.33728

>  <SCORE.INTRA.DIHEDRAL.0>
14.7001

>  <SCORE.INTRA.POLAR>
0

>  <SCORE.INTRA.POLAR.0>
0

>  <SCORE.INTRA.REPUL>
0

>  <SCORE.INTRA.REPUL.0>
0

>  <SCORE.INTRA.SOLV>
2.20181

>  <SCORE.INTRA.SOLV.lig_0>
-65.3082

>  <SCORE.INTRA.VDW>
2.70804

>  <SCORE.INTRA.VDW.0>
-4.21408

>  <SCORE.INTRA.norm>
0.192825

>  <SCORE.RESTR>
20.4757

>  <SCORE.RESTR.CAVITY>
20.4757

>  <SCORE.RESTR.norm>
0.660507

>  <SCORE.SYSTEM>
0

>  <SCORE.SYSTEM.CONST>
0

>  <SCORE.SYSTEM.DIHEDRAL>
0

>  <SCORE.SYSTEM.SOLV>
0

>  <SCORE.SYSTEM.norm>
0

>  <SCORE.heavy>
31

>  <SCORE.norm>
1.07419

>  <RMSD>
6.408

$$$$
ligand
 OpenBabel11021811493D
libRbt.so/2013.1/901 2013/11/27
 31 33  0  0  0  0  0  0  0  0999 V2000
    0.8570   20.2001   34.2773 C   0  0  2  0  0  0  0  0  0  0  0  0
    2.1878   19.7586   34.4653 O   0  0  0  0  0  0  0  0  0  0  0  0
    3.5681   16.2037   36.3407 C   0  0  2  0  0  0  0  0  0  0  0  0
    3.9338   15.2903   37.3697 N   0  0  0  0  0  0  0  0  0  0  0  0
    1.1231   14.3616   37.3676 C   0  0  2  0  0  0  0  0  0  0  0  0
    0.9015   21.5922   33.5103 C   0  0  2  0  0  0  0  0  0  0  0  0
    1.6048   21.4187   32.2439 N   0  0  0  0  0  0  0  0  0  0  0  0
    4.4458   17.5229   36.5105 C   0  0  0  0  0  0  0  0  0  0  0  0
   -0.4205   14.2302   37.5941 C   0  0  2  0  0  0  0  0  0  0  0  0
   -1.0351   13.9291   36.3593 O   0  0  0  0  0  0  0  0  0  0  0  0
    1.5942   22.6905   34.3980 C   0  0  0  0  0  0  0  0  0  0  0  0
    4.0503   18.5321   35.3560 C   0  0  2  0  0  0  0  0  0  0  0  0
    4.8540   19.7476   35.4912 N   0  0  0  0  0  0  0  0  0  0  0  0
   -0.9578   15.5910   38.1696 C   0  0  1  0  0  0  0  0  0  0  0  0
   -2.4379   15.4988   38.3821 N   0  0  0  0  0  0  0  0  0  0  0  0
    1.1743   22.5665   35.9225 C   0  0  0  0  0  0  0  0  0  0  0  0
    2.5116   18.8824   35.4852 C   0  0  2  0  0  0  0  0  0  0  0  0
   -0.2262   15.8840   39.5933 C   0  0  1  0  0  0  0  0  0  0  0  0
   -0.4693   14.8819   40.5607 O   0  0  0  0  0  0  0  0  0  0  0  0
    0.5285   21.4688   36.3857 C   0  0  1  0  0  0  0  0  0  0  0  0
    0.1775   20.3606   35.5618 O   0  0  0  0  0  0  0  0  0  0  0  0
    1.6485   17.5605   35.3392 C   0  0  2  0  0  0  0  0  0  0  0  0
    0.2499   17.8870   35.4727 O   0  0  0  0  0  0  0  0  0  0  0  0
    1.3128   15.9736   39.3674 C   0  0  0  0  0  0  0  0  0  0  0  0
    1.8095   14.7159   38.6756 O   0  0  0  0  0  0  0  0  0  0  0  0
    0.1182   21.3090   37.8302 C   0  0  0  0  0  0  0  0  0  0  0  0
    0.3303   19.9212   38.1674 O   0  0  0  0  0  0  0  0  0  0  0  0
    2.0491   16.5547   36.4849 C   0  0  1  0  0  0  0  0  0  0  0  0
    1.2763   15.3901   36.3314 O   0  0  0  0  0  0  0  0  0  0  0  0
   -0.6503   17.1936   40.2707 C   0  0  0  0  0  0  0  0  0  0  0  0
   -3.2532   16.5744   37.7807 C   0  0  0  0  0  0  0  0  0  0  0  0
  1  2  1  1  0  0  0
  1  6  1  0  0  0  0
  1 21  1  0  0  0  0
  3  4  1  1  0  0  0
  3  8  1  0  0  0  0
  3 28  1  0  0  0  0
  5  9  1  0  0  0  0
  5 25  1  0  0  0  0
  5 29  1  6  0  0  0
  6  7  1  6  0  0  0
  6 11  1  0  0  0  0
  8 12  1  0  0  0  0
  9 10  1  6  0  0  0
  9 14  1  0  0  0  0
 11 16  1  0  0  0  0
 12 13  1  1  0  0  0
 12 17  1  0  0  0  0
 14 15  1  1  0  0  0
 14 18  1  0  0  0  0
 15 31  1  0  0  0  0
 16 20  1  0  0  0  0
 17  2  1  6  0  0  0
 17 22  1  0  0  0  0
 18 19  1  1  0  0  0
 18 24  1  0  0  0  0
 18 30  1  0  0  0  0
 20 21  1  0  0  0  0
 20 26  1  1  0  0  0
 22 23  1  1  0  0  0
 22 28  1  0  0  0  0
 24 25  1  0  0  0  0
 26 27  1  0  0  0  0
 28 29  1  6  0  0  0
M  END
>  <CHROM.1>
155.93574246,124.08776097,-128.08075763,176.66500337,-141.89249094,76.64983623
1.02442146,17.84141863,36.70317941,1.28026408,0.42265153,-0.44323218

>  <Name>
ligand

>  <RI>
0

>  <Rbt.Current_Directory>
/home/itssahil/PROJECTS/Mol_Feturizer/New_Systems/rnas/4GPY

>  <Rbt.Executable>
rbdock ($Id: //depot/dev/client3/rdock/2013.1/src/exe/rbdock.cxx#4 $)

>  <Rbt.Library>
libRbt.so (2013.1, Build901 2013/11/27)

>  <Rbt.Parameter_File>
/export/apps/rDock/src/rDock_2013.1_src/data/scripts/dock_solv.prm

>  <Rbt.Receptor>
prm/blind_docking_60.prm

>  <SCORE>
20.7242

>  <SCORE.INTER>
1.50395

>  <SCORE.INTER.CONST>
1

>  <SCORE.INTER.POLAR>
0

>  <SCORE.INTER.ROT>
6

>  <SCORE.INTER.SOLV>
21.8402

>  <SCORE.INTER.VDW>
-13.8774

>  <SCORE.INTER.norm>
0.0485147

>  <SCORE.INTRA>
2.30846

>  <SCORE.INTRA.DIHEDRAL>
-0.348068

>  <SCORE.INTRA.DIHEDRAL.0>
14.7001

>  <SCORE.INTRA.POLAR>
0

>  <SCORE.INTRA.POLAR.0>
0

>  <SCORE.INTRA.REPUL>
0

>  <SCORE.INTRA.REPUL.0>
0

>  <SCORE.INTRA.SOLV>
0.779321

>  <SCORE.INTRA.SOLV.lig_0>
-65.3082

>  <SCORE.INTRA.VDW>
2.09283

>  <SCORE.INTRA.VDW.0>
-4.21408

>  <SCORE.INTRA.norm>
0.0744665

>  <SCORE.RESTR>
16.9118

>  <SCORE.RESTR.CAVITY>
16.9118

>  <SCORE.RESTR.norm>
0.545543

>  <SCORE.SYSTEM>
0

>  <SCORE.SYSTEM.CONST>
0

>  <SCORE.SYSTEM.DIHEDRAL>
0

>  <SCORE.SYSTEM.SOLV>
0

>  <SCORE.SYSTEM.norm>
0

>  <SCORE.heavy>
31

>  <SCORE.norm>
0.668524

>  <RMSD>
6.410

$$$$
ligand
 OpenBabel11021811493D
libRbt.so/2013.1/901 2013/11/27
 31 33  0  0  0  0  0  0  0  0999 V2000
    3.7518    8.9338   37.9907 C   0  0  2  0  0  0  0  0  0  0  0  0
    3.6920    9.5472   39.2641 O   0  0  0  0  0  0  0  0  0  0  0  0
   -0.3473   10.8673   39.3050 C   0  0  2  0  0  0  0  0  0  0  0  0
   -1.5985   11.3273   39.8047 N   0  0  0  0  0  0  0  0  0  0  0  0
    1.1673   14.4005   39.3218 C   0  0  2  0  0  0  0  0  0  0  0  0
    5.2564    8.4949   37.7234 C   0  0  2  0  0  0  0  0  0  0  0  0
    5.6881    7.5934   38.7862 N   0  0  0  0  0  0  0  0  0  0  0  0
   -0.0130    9.4749   40.0043 C   0  0  0  0  0  0  0  0  0  0  0  0
    0.6702   14.8370   40.7408 C   0  0  2  0  0  0  0  0  0  0  0  0
    0.9265   13.7896   41.6520 O   0  0  0  0  0  0  0  0  0  0  0  0
    6.1925    9.7559   37.6341 C   0  0  0  0  0  0  0  0  0  0  0  0
    1.3709    8.9558   39.4361 C   0  0  2  0  0  0  0  0  0  0  0  0
    1.6900    7.6718   40.0616 N   0  0  0  0  0  0  0  0  0  0  0  0
   -0.8697   15.1424   40.6577 C   0  0  1  0  0  0  0  0  0  0  0  0
   -1.3763   15.5485   42.0079 N   0  0  0  0  0  0  0  0  0  0  0  0
    5.4983   10.9506   36.8552 C   0  0  0  0  0  0  0  0  0  0  0  0
    2.4956   10.0178   39.7740 C   0  0  2  0  0  0  0  0  0  0  0  0
   -1.1071   16.3598   39.6044 C   0  0  1  0  0  0  0  0  0  0  0  0
   -0.4510   17.5553   39.9782 O   0  0  0  0  0  0  0  0  0  0  0  0
    4.1722   10.9305   36.5767 C   0  0  1  0  0  0  0  0  0  0  0  0
    3.3099    9.8588   36.9483 O   0  0  0  0  0  0  0  0  0  0  0  0
    2.1416   11.4057   39.0942 C   0  0  2  0  0  0  0  0  0  0  0  0
    3.1635   12.3703   39.4194 O   0  0  0  0  0  0  0  0  0  0  0  0
   -0.5738   15.9342   38.2037 C   0  0  0  0  0  0  0  0  0  0  0  0
    0.8770   15.4976   38.3119 O   0  0  0  0  0  0  0  0  0  0  0  0
    3.4724   12.0504   35.8442 C   0  0  0  0  0  0  0  0  0  0  0  0
    3.0561   13.0017   36.8475 O   0  0  0  0  0  0  0  0  0  0  0  0
    0.7602   11.9168   39.6559 C   0  0  1  0  0  0  0  0  0  0  0  0
    0.4653   13.1435   39.0352 O   0  0  0  0  0  0  0  0  0  0  0  0
   -2.5756   16.7617   39.4146 C   0  0  0  0  0  0  0  0  0  0  0  0
   -2.3642   14.6458   42.6343 C   0  0  0  0  0  0  0  0  0  0  0  0
  1  2  1  1  0  0  0
  1  6  1  0  0  0  0
  1 21  1  0  0  0  0
  3  4  1  1  0  0  0
  3  8  1  0  0  0  0
  3 28  1  0  0  0  0
  5  9  1  0  0  0  0
  5 25  1  0  0  0  0
  5 29  1  6  0  0  0
  6  7  1  1  0  0  0
  6 11  1  0  0  0  0
  8 12  1  0  0  0  0
  9 10  1  1  0  0  0
  9 14  1  0  0  0  0
 11 16  1  0  0  0  0
 12 13  1  1  0  0  0
 12 17  1  0  0  0  0
 14 15  1  1  0  0  0
 14 18  1  0  0  0  0
 15 31  1  0  0  0  0
 16 20  1  0  0  0  0
 17  2  1  6  0  0  0
 17 22  1  0  0  0  0
 18 19  1  1  0  0  0
 18 24  1  0  0  0  0
 18 30  1  0  0  0  0
 20 21  1  0  0  0  0
 20 26  1  1  0  0  0
 22 23  1  1  0  0  0
 22 28  1  0  0  0  0
 24 25  1  0  0  0  0
 26 27  1  0  0  0  0
 28 29  1  6  0  0  0
M  END
>  <CHROM.1>
-179.19443247,-72.65164530,-115.61088179,41.37739515,-88.21386176,169.64704773
1.56329412,12.26575918,39.11545783,0.66508816,-0.66775815,2.82386610

>  <Name>
ligand

>  <RI>
0

>  <Rbt.Current_Directory>
/home/itssahil/PROJECTS/Mol_Feturizer/New_Systems/rnas/4GPY

>  <Rbt.Executable>
rbdock ($Id: //depot/dev/client3/rdock/2013.1/src/exe/rbdock.cxx#4 $)

>  <Rbt.Library>
libRbt.so (2013.1, Build901 2013/11/27)

>  <Rbt.Parameter_File>
/export/apps/rDock/src/rDock_2013.1_src/data/scripts/dock_solv.prm

>  <Rbt.Receptor>
prm/pocket_docking_8.prm

>  <SCORE>
-2.75032

>  <SCORE.INTER>
-0.602826

>  <SCORE.INTER.CONST>
1

>  <SCORE.INTER.POLAR>
0

>  <SCORE.INTER.ROT>
6

>  <SCORE.INTER.SOLV>
7.14869

>  <SCORE.INTER.VDW>
-10.3848

>  <SCORE.INTER.norm>
-0.019446

>  <SCORE.INTRA>
-2.1475

>  <SCORE.INTRA.DIHEDRAL>
-7.91654

>  <SCORE.INTRA.DIHEDRAL.0>
14.7001

>  <SCORE.INTRA.POLAR>
0

>  <SCORE.INTRA.POLAR.0>
0

>  <SCORE.INTRA.REPUL>
0

>  <SCORE.INTRA.REPUL.0>
0

>  <SCORE.INTRA.SOLV>
1.10303

>  <SCORE.INTRA.SOLV.lig_0>
-65.3082

>  <SCORE.INTRA.VDW>
1.25926

>  <SCORE.INTRA.VDW.0>
-4.21408

>  <SCORE.INTRA.norm>
-0.0692741

>  <SCORE.RESTR>
0

>  <SCORE.RESTR.CAVITY>
0

>  <SCORE.RESTR.norm>
0

>  <SCORE.SYSTEM>
0

>  <SCORE.SYSTEM.CONST>
0

>  <SCORE.SYSTEM.DIHEDRAL>
0

>  <SCORE.SYSTEM.SOLV>
0

>  <SCORE.SYSTEM.norm>
0

>  <SCORE.heavy>
31

>  <SCORE.norm>
-0.0887201

>  <RMSD>
6.434

$$$$
ligand
 OpenBabel11021811493D
libRbt.so/2013.1/901 2013/11/27
 31 33  0  0  0  0  0  0  0  0999 V2000
    0.7431   20.0438   33.4406 C   0  0  2  0  0  0  0  0  0  0  0  0
    1.9767   19.3935   33.6786 O   0  0  0  0  0  0  0  0  0  0  0  0
    3.5669   16.9357   36.7592 C   0  0  2  0  0  0  0  0  0  0  0  0
    3.9762   16.5142   38.0561 N   0  0  0  0  0  0  0  0  0  0  0  0
    1.2613   15.4409   38.4312 C   0  0  2  0  0  0  0  0  0  0  0  0
    1.0145   21.2847   32.4842 C   0  0  2  0  0  0  0  0  0  0  0  0
    1.6310   20.8114   31.2495 N   0  0  0  0  0  0  0  0  0  0  0  0
    4.3466   18.2791   36.4028 C   0  0  0  0  0  0  0  0  0  0  0  0
    0.0936   14.3998   38.3688 C   0  0  2  0  0  0  0  0  0  0  0  0
    0.3673   13.4741   37.3386 O   0  0  0  0  0  0  0  0  0  0  0  0
    1.9256   22.3470   33.2022 C   0  0  0  0  0  0  0  0  0  0  0  0
    3.9034   18.7385   34.9537 C   0  0  2  0  0  0  0  0  0  0  0  0
    4.6172   19.9678   34.6056 N   0  0  0  0  0  0  0  0  0  0  0  0
   -1.2473   15.1706   38.0871 C   0  0  1  0  0  0  0  0  0  0  0  0
   -2.3817   14.1953   38.0069 N   0  0  0  0  0  0  0  0  0  0  0  0
    1.5422   22.5138   34.7322 C   0  0  0  0  0  0  0  0  0  0  0  0
    2.3417   18.9998   34.9531 C   0  0  2  0  0  0  0  0  0  0  0  0
   -1.5188   16.2140   39.3060 C   0  0  1  0  0  0  0  0  0  0  0  0
   -1.6429   15.5804   40.5639 O   0  0  0  0  0  0  0  0  0  0  0  0
    0.7231   21.6290   35.3511 C   0  0  1  0  0  0  0  0  0  0  0  0
    0.1482   20.5024   34.6950 O   0  0  0  0  0  0  0  0  0  0  0  0
    1.5763   17.6642   35.3325 C   0  0  2  0  0  0  0  0  0  0  0  0
    0.1560   17.9153   35.3438 O   0  0  0  0  0  0  0  0  0  0  0  0
   -0.3338   17.2223   39.3883 C   0  0  0  0  0  0  0  0  0  0  0  0
    0.9798   16.4698   39.5127 O   0  0  0  0  0  0  0  0  0  0  0  0
    0.3399   21.7481   36.8069 C   0  0  0  0  0  0  0  0  0  0  0  0
    0.6231   20.4687   37.4133 O   0  0  0  0  0  0  0  0  0  0  0  0
    2.0246   17.2048   36.7722 C   0  0  1  0  0  0  0  0  0  0  0  0
    1.3384   16.0177   37.0834 O   0  0  0  0  0  0  0  0  0  0  0  0
   -2.7986   17.0472   39.1590 C   0  0  0  0  0  0  0  0  0  0  0  0
   -2.7497   13.7301   36.6535 C   0  0  0  0  0  0  0  0  0  0  0  0
  1  2  1  1  0  0  0
  1  6  1  0  0  0  0
  1 21  1  0  0  0  0
  3  4  1  1  0  0  0
  3  8  1  0  0  0  0
  3 28  1  0  0  0  0
  5  9  1  0  0  0  0
  5 25  1  0  0  0  0
  5 29  1  6  0  0  0
  6  7  1  6  0  0  0
  6 11  1  0  0  0  0
  8 12  1  0  0  0  0
  9 10  1  6  0  0  0
  9 14  1  0  0  0  0
 11 16  1  0  0  0  0
 12 13  1  1  0  0  0
 12 17  1  0  0  0  0
 14 15  1  1  0  0  0
 14 18  1  0  0  0  0
 15 31  1  0  0  0  0
 16 20  1  0  0  0  0
 17  2  1  6  0  0  0
 17 22  1  0  0  0  0
 18 19  1  1  0  0  0
 18 24  1  0  0  0  0
 18 30  1  0  0  0  0
 20 21  1  0  0  0  0
 20 26  1  1  0  0  0
 22 23  1  1  0  0  0
 22 28  1  0  0  0  0
 24 25  1  0  0  0  0
 26 27  1  0  0  0  0
 28 29  1  6  0  0  0
M  END
>  <CHROM.1>
134.53186731,164.22700722,-94.98698721,-162.48154112,-128.11104536,75.32850898
0.88600172,17.97616945,36.41761135,1.20383604,0.20426601,-0.60728219

>  <Name>
ligand

>  <RI>
0

>  <Rbt.Current_Directory>
/home/itssahil/PROJECTS/Mol_Feturizer/New_Systems/rnas/4GPY

>  <Rbt.Executable>
rbdock ($Id: //depot/dev/client3/rdock/2013.1/src/exe/rbdock.cxx#4 $)

>  <Rbt.Library>
libRbt.so (2013.1, Build901 2013/11/27)

>  <Rbt.Parameter_File>
/export/apps/rDock/src/rDock_2013.1_src/data/scripts/dock_solv.prm

>  <Rbt.Receptor>
prm/blind_docking_60.prm

>  <SCORE>
16.5609

>  <SCORE.INTER>
-3.38678

>  <SCORE.INTER.CONST>
1

>  <SCORE.INTER.POLAR>
0

>  <SCORE.INTER.ROT>
6

>  <SCORE.INTER.SOLV>
17.5977

>  <SCORE.INTER.VDW>
-15.7237

>  <SCORE.INTER.norm>
-0.109251

>  <SCORE.INTRA>
-0.531291

>  <SCORE.INTRA.DIHEDRAL>
-2.2983

>  <SCORE.INTRA.DIHEDRAL.0>
14.7001

>  <SCORE.INTRA.POLAR>
0

>  <SCORE.INTRA.POLAR.0>
0

>  <SCORE.INTRA.REPUL>
0

>  <SCORE.INTRA.REPUL.0>
0

>  <SCORE.INTRA.SOLV>
0.85943

>  <SCORE.INTRA.SOLV.lig_0>
-65.3082

>  <SCORE.INTRA.VDW>
0.188142

>  <SCORE.INTRA.VDW.0>
-4.21408

>  <SCORE.INTRA.norm>
-0.0171384

>  <SCORE.RESTR>
20.479

>  <SCORE.RESTR.CAVITY>
20.479

>  <SCORE.RESTR.norm>
0.660612

>  <SCORE.SYSTEM>
0

>  <SCORE.SYSTEM.CONST>
0

>  <SCORE.SYSTEM.DIHEDRAL>
0

>  <SCORE.SYSTEM.SOLV>
0

>  <SCORE.SYSTEM.norm>
0

>  <SCORE.heavy>
31

>  <SCORE.norm>
0.534222

>  <RMSD>
6.443

$$$$
ligand
 OpenBabel11021811493D
libRbt.so/2013.1/901 2013/11/27
 31 33  0  0  0  0  0  0  0  0999 V2000
    3.2353   20.5928   34.0367 C   0  0  2  0  0  0  0  0  0  0  0  0
    3.1045   20.7324   35.4384 O   0  0  0  0  0  0  0  0  0  0  0  0
    3.5695   16.7123   36.7357 C   0  0  2  0  0  0  0  0  0  0  0  0
    3.8681   15.6062   37.5809 N   0  0  0  0  0  0  0  0  0  0  0  0
    1.1952   15.4943   38.2313 C   0  0  2  0  0  0  0  0  0  0  0  0
    2.2131   21.5934   33.3426 C   0  0  2  0  0  0  0  0  0  0  0  0
    2.4986   22.9536   33.7864 N   0  0  0  0  0  0  0  0  0  0  0  0
    4.8812   17.6079   36.6052 C   0  0  0  0  0  0  0  0  0  0  0  0
   -0.2112   14.8919   37.8991 C   0  0  2  0  0  0  0  0  0  0  0  0
   -0.3320   14.7708   36.4977 O   0  0  0  0  0  0  0  0  0  0  0  0
    0.7303   21.1878   33.6753 C   0  0  0  0  0  0  0  0  0  0  0  0
    4.5533   18.8292   35.6519 C   0  0  2  0  0  0  0  0  0  0  0  0
    5.7508   19.6588   35.5132 N   0  0  0  0  0  0  0  0  0  0  0  0
   -1.3141   15.8527   38.4751 C   0  0  1  0  0  0  0  0  0  0  0  0
   -2.6730   15.3075   38.1577 N   0  0  0  0  0  0  0  0  0  0  0  0
    0.5323   19.6141   33.6584 C   0  0  0  0  0  0  0  0  0  0  0  0
    3.3774   19.6767   36.2892 C   0  0  2  0  0  0  0  0  0  0  0  0
   -1.1355   15.9484   40.0897 C   0  0  1  0  0  0  0  0  0  0  0  0
   -1.2705   14.6999   40.7397 O   0  0  0  0  0  0  0  0  0  0  0  0
    1.5948   18.7731   33.6360 C   0  0  1  0  0  0  0  0  0  0  0  0
    2.9476   19.2204   33.6231 O   0  0  0  0  0  0  0  0  0  0  0  0
    2.0849   18.7705   36.4373 C   0  0  2  0  0  0  0  0  0  0  0  0
    1.0242   19.5462   37.0317 O   0  0  0  0  0  0  0  0  0  0  0  0
    0.2809   16.5108   40.4142 C   0  0  0  0  0  0  0  0  0  0  0  0
    1.3431   15.6648   39.7335 O   0  0  0  0  0  0  0  0  0  0  0  0
    1.4492   17.2701   33.6266 C   0  0  0  0  0  0  0  0  0  0  0  0
    2.3043   16.7670   34.6756 O   0  0  0  0  0  0  0  0  0  0  0  0
    2.4158   17.5516   37.3806 C   0  0  1  0  0  0  0  0  0  0  0  0
    1.2586   16.7608   37.4917 O   0  0  0  0  0  0  0  0  0  0  0  0
   -2.1463   16.8660   40.7899 C   0  0  0  0  0  0  0  0  0  0  0  0
   -3.3287   15.8485   36.9491 C   0  0  0  0  0  0  0  0  0  0  0  0
  1  2  1  1  0  0  0
  1  6  1  0  0  0  0
  1 21  1  0  0  0  0
  3  4  1  1  0  0  0
  3  8  1  0  0  0  0
  3 28  1  0  0  0  0
  5  9  1  0  0  0  0
  5 25  1  0  0  0  0
  5 29  1  6  0  0  0
  6  7  1  1  0  0  0
  6 11  1  0  0  0  0
  8 12  1  0  0  0  0
  9 10  1  6  0  0  0
  9 14  1  0  0  0  0
 11 16  1  0  0  0  0
 12 13  1  1  0  0  0
 12 17  1  0  0  0  0
 14 15  1  1  0  0  0
 14 18  1  0  0  0  0
 15 31  1  0  0  0  0
 16 20  1  0  0  0  0
 17  2  1  6  0  0  0
 17 22  1  0  0  0  0
 18 19  1  1  0  0  0
 18 24  1  0  0  0  0
 18 30  1  0  0  0  0
 20 21  1  0  0  0  0
 20 26  1  1  0  0  0
 22 23  1  1  0  0  0
 22 28  1  0  0  0  0
 24 25  1  0  0  0  0
 26 27  1  0  0  0  0
 28 29  1  6  0  0  0
M  END
>  <CHROM.1>
151.47907546,-172.05269878,-95.88836843,33.59587045,-129.64760702,58.06460156
1.38484270,17.75942110,36.60269176,1.03995903,-0.05184013,-0.82952762

>  <Name>
ligand

>  <RI>
0

>  <Rbt.Current_Directory>
/home/itssahil/PROJECTS/Mol_Feturizer/New_Systems/rnas/4GPY

>  <Rbt.Executable>
rbdock ($Id: //depot/dev/client3/rdock/2013.1/src/exe/rbdock.cxx#4 $)

>  <Rbt.Library>
libRbt.so (2013.1, Build901 2013/11/27)

>  <Rbt.Parameter_File>
/export/apps/rDock/src/rDock_2013.1_src/data/scripts/dock_solv.prm

>  <Rbt.Receptor>
prm/blind_docking_60.prm

>  <SCORE>
45.3223

>  <SCORE.INTER>
23.1606

>  <SCORE.INTER.CONST>
1

>  <SCORE.INTER.POLAR>
0

>  <SCORE.INTER.ROT>
6

>  <SCORE.INTER.SOLV>
21.0258

>  <SCORE.INTER.VDW>
0.831791

>  <SCORE.INTER.norm>
0.747116

>  <SCORE.INTRA>
6.21578

>  <SCORE.INTRA.DIHEDRAL>
-5.53747

>  <SCORE.INTRA.DIHEDRAL.0>
14.7001

>  <SCORE.INTRA.POLAR>
0

>  <SCORE.INTRA.POLAR.0>
0

>  <SCORE.INTRA.REPUL>
0

>  <SCORE.INTRA.REPUL.0>
0

>  <SCORE.INTRA.SOLV>
2.74184

>  <SCORE.INTRA.SOLV.lig_0>
-65.3082

>  <SCORE.INTRA.VDW>
7.61359

>  <SCORE.INTRA.VDW.0>
-4.21408

>  <SCORE.INTRA.norm>
0.200509

>  <SCORE.RESTR>
15.9459

>  <SCORE.RESTR.CAVITY>
15.9459

>  <SCORE.RESTR.norm>
0.514385

>  <SCORE.SYSTEM>
0

>  <SCORE.SYSTEM.CONST>
0

>  <SCORE.SYSTEM.DIHEDRAL>
0

>  <SCORE.SYSTEM.SOLV>
0

>  <SCORE.SYSTEM.norm>
0

>  <SCORE.heavy>
31

>  <SCORE.norm>
1.46201

>  <RMSD>
6.453

$$$$
ligand
 OpenBabel11021811493D
libRbt.so/2013.1/901 2013/11/27
 31 33  0  0  0  0  0  0  0  0999 V2000
    1.5747   18.2488   34.4954 C   0  0  2  0  0  0  0  0  0  0  0  0
    2.9482   18.1062   34.8029 O   0  0  0  0  0  0  0  0  0  0  0  0
    5.3293   16.1883   37.7545 C   0  0  2  0  0  0  0  0  0  0  0  0
    5.7909   15.7680   39.0340 N   0  0  0  0  0  0  0  0  0  0  0  0
    3.5139   13.4305   38.7180 C   0  0  2  0  0  0  0  0  0  0  0  0
    1.2373   19.8018   34.4470 C   0  0  2  0  0  0  0  0  0  0  0  0
    2.0904   20.4463   33.4543 N   0  0  0  0  0  0  0  0  0  0  0  0
    5.3197   17.7817   37.7270 C   0  0  0  0  0  0  0  0  0  0  0  0
    4.7280   12.4734   38.9653 C   0  0  2  0  0  0  0  0  0  0  0  0
    5.8930   13.2537   39.1306 O   0  0  0  0  0  0  0  0  0  0  0  0
    1.4268   20.4531   35.8662 C   0  0  0  0  0  0  0  0  0  0  0  0
    4.8218   18.2487   36.2982 C   0  0  2  0  0  0  0  0  0  0  0  0
    4.8150   19.7114   36.2518 N   0  0  0  0  0  0  0  0  0  0  0  0
    4.8676   11.5145   37.7273 C   0  0  1  0  0  0  0  0  0  0  0  0
    6.0336   10.5960   37.9305 N   0  0  0  0  0  0  0  0  0  0  0  0
    0.9103   19.5009   37.0249 C   0  0  0  0  0  0  0  0  0  0  0  0
    3.3594   17.6919   36.0567 C   0  0  2  0  0  0  0  0  0  0  0  0
    3.5058   10.6345   37.5891 C   0  0  1  0  0  0  0  0  0  0  0  0
    3.2421    9.8348   38.7251 O   0  0  0  0  0  0  0  0  0  0  0  0
    0.6190   18.1991   36.7861 C   0  0  1  0  0  0  0  0  0  0  0  0
    0.7463   17.5903   35.5042 O   0  0  0  0  0  0  0  0  0  0  0  0
    3.3753   16.1074   36.1100 C   0  0  2  0  0  0  0  0  0  0  0  0
    2.0373   15.6099   35.9037 O   0  0  0  0  0  0  0  0  0  0  0  0
    2.2962   11.5947   37.3834 C   0  0  0  0  0  0  0  0  0  0  0  0
    2.2487   12.6169   38.5060 O   0  0  0  0  0  0  0  0  0  0  0  0
    0.1320   17.2584   37.8624 C   0  0  0  0  0  0  0  0  0  0  0  0
   -0.0984   15.9847   37.2227 O   0  0  0  0  0  0  0  0  0  0  0  0
    3.8782   15.6449   37.5306 C   0  0  1  0  0  0  0  0  0  0  0  0
    3.8894   14.2390   37.5517 O   0  0  0  0  0  0  0  0  0  0  0  0
    3.4972    9.6539   36.4092 C   0  0  0  0  0  0  0  0  0  0  0  0
    6.6234   10.0082   36.7099 C   0  0  0  0  0  0  0  0  0  0  0  0
  1  2  1  1  0  0  0
  1  6  1  0  0  0  0
  1 21  1  0  0  0  0
  3  4  1  1  0  0  0
  3  8  1  0  0  0  0
  3 28  1  0  0  0  0
  5  9  1  0  0  0  0
  5 25  1  0  0  0  0
  5 29  1  6  0  0  0
  6  7  1  6  0  0  0
  6 11  1  0  0  0  0
  8 12  1  0  0  0  0
  9 10  1  6  0  0  0
  9 14  1  0  0  0  0
 11 16  1  0  0  0  0
 12 13  1  1  0  0  0
 12 17  1  0  0  0  0
 14 15  1  1  0  0  0
 14 18  1  0  0  0  0
 15 31  1  0  0  0  0
 16 20  1  0  0  0  0
 17  2  1  6  0  0  0
 17 22  1  0  0  0  0
 18 19  1  1  0  0  0
 18 24  1  0  0  0  0
 18 30  1  0  0  0  0
 20 21  1  0  0  0  0
 20 26  1  1  0  0  0
 22 23  1  1  0  0  0
 22 28  1  0  0  0  0
 24 25  1  0  0  0  0
 26 27  1  0  0  0  0
 28 29  1  6  0  0  0
M  END
>  <CHROM.1>
105.88316215,-126.20970094,-157.41676824,-154.50757797,178.61371509,99.26353575
3.22733049,15.37588546,36.95765789,1.87730356,-0.19781561,-0.22312271

>  <Name>
ligand

>  <RI>
0

>  <Rbt.Current_Directory>
/home/itssahil/PROJECTS/Mol_Feturizer/New_Systems/rnas/4GPY

>  <Rbt.Executable>
rbdock ($Id: //depot/dev/client3/rdock/2013.1/src/exe/rbdock.cxx#4 $)

>  <Rbt.Library>
libRbt.so (2013.1, Build901 2013/11/27)

>  <Rbt.Parameter_File>
/export/apps/rDock/src/rDock_2013.1_src/data/scripts/dock_solv.prm

>  <Rbt.Receptor>
prm/blind_docking_80.prm

>  <SCORE>
26.66

>  <SCORE.INTER>
12.8475

>  <SCORE.INTER.CONST>
1

>  <SCORE.INTER.POLAR>
0

>  <SCORE.INTER.ROT>
6

>  <SCORE.INTER.SOLV>
20.4297

>  <SCORE.INTER.VDW>
-5.84488

>  <SCORE.INTER.norm>
0.414437

>  <SCORE.INTRA>
10.739

>  <SCORE.INTRA.DIHEDRAL>
10.5751

>  <SCORE.INTRA.DIHEDRAL.0>
14.7001

>  <SCORE.INTRA.POLAR>
0

>  <SCORE.INTRA.POLAR.0>
0

>  <SCORE.INTRA.REPUL>
0

>  <SCORE.INTRA.REPUL.0>
0

>  <SCORE.INTRA.SOLV>
3.13882

>  <SCORE.INTRA.SOLV.lig_0>
-65.3082

>  <SCORE.INTRA.VDW>
3.88206

>  <SCORE.INTRA.VDW.0>
-4.21408

>  <SCORE.INTRA.norm>
0.34642

>  <SCORE.RESTR>
3.07339

>  <SCORE.RESTR.CAVITY>
3.07339

>  <SCORE.RESTR.norm>
0.0991418

>  <SCORE.SYSTEM>
0

>  <SCORE.SYSTEM.CONST>
0

>  <SCORE.SYSTEM.DIHEDRAL>
0

>  <SCORE.SYSTEM.SOLV>
0

>  <SCORE.SYSTEM.norm>
0

>  <SCORE.heavy>
31

>  <SCORE.norm>
0.859999

>  <RMSD>
6.505

$$$$
ligand
 OpenBabel11021811493D
libRbt.so/2013.1/901 2013/11/27
 31 33  0  0  0  0  0  0  0  0999 V2000
   -3.0494   10.7101   38.0135 C   0  0  2  0  0  0  0  0  0  0  0  0
   -1.9381   11.4824   38.4258 O   0  0  0  0  0  0  0  0  0  0  0  0
   -1.4824   15.3547   40.1161 C   0  0  2  0  0  0  0  0  0  0  0  0
   -1.5370   16.7713   40.2469 N   0  0  0  0  0  0  0  0  0  0  0  0
   -5.1268   14.8579   41.2485 C   0  0  2  0  0  0  0  0  0  0  0  0
   -2.9117    9.2626   38.6568 C   0  0  2  0  0  0  0  0  0  0  0  0
   -2.8410    9.3888   40.1086 N   0  0  0  0  0  0  0  0  0  0  0  0
   -0.6319   15.0070   38.8140 C   0  0  0  0  0  0  0  0  0  0  0  0
   -5.6113   15.8416   42.3660 C   0  0  2  0  0  0  0  0  0  0  0  0
   -5.2631   17.1578   41.9923 O   0  0  0  0  0  0  0  0  0  0  0  0
   -1.6444    8.5238   38.0893 C   0  0  0  0  0  0  0  0  0  0  0  0
   -0.5576   13.4311   38.6782 C   0  0  2  0  0  0  0  0  0  0  0  0
    0.2284   13.0928   37.4909 N   0  0  0  0  0  0  0  0  0  0  0  0
   -4.9167   15.4414   43.7184 C   0  0  1  0  0  0  0  0  0  0  0  0
   -5.3513   16.3776   44.8043 N   0  0  0  0  0  0  0  0  0  0  0  0
   -1.4514    8.7927   36.5380 C   0  0  0  0  0  0  0  0  0  0  0  0
   -2.0269   12.8581   38.5369 C   0  0  2  0  0  0  0  0  0  0  0  0
   -5.3586   13.9240   44.1062 C   0  0  1  0  0  0  0  0  0  0  0  0
   -6.7542   13.7777   44.2796 O   0  0  0  0  0  0  0  0  0  0  0  0
   -2.1497    9.7644   35.9018 C   0  0  1  0  0  0  0  0  0  0  0  0
   -3.0959   10.6051   36.5560 O   0  0  0  0  0  0  0  0  0  0  0  0
   -2.8717   13.2300   39.8259 C   0  0  2  0  0  0  0  0  0  0  0  0
   -4.2120   12.7169   39.6819 O   0  0  0  0  0  0  0  0  0  0  0  0
   -4.9091   12.9556   42.9714 C   0  0  0  0  0  0  0  0  0  0  0  0
   -5.4613   13.4280   41.6375 O   0  0  0  0  0  0  0  0  0  0  0  0
   -1.9899   10.0567   34.4290 C   0  0  0  0  0  0  0  0  0  0  0  0
   -1.4620   11.3970   34.3300 O   0  0  0  0  0  0  0  0  0  0  0  0
   -2.9381   14.7990   39.9632 C   0  0  1  0  0  0  0  0  0  0  0  0
   -3.6858   15.1037   41.1143 O   0  0  0  0  0  0  0  0  0  0  0  0
   -4.7443   13.3940   45.4084 C   0  0  0  0  0  0  0  0  0  0  0  0
   -4.3896   17.4345   45.1801 C   0  0  0  0  0  0  0  0  0  0  0  0
  1  2  1  6  0  0  0
  1  6  1  0  0  0  0
  1 21  1  0  0  0  0
  3  4  1  6  0  0  0
  3  8  1  0  0  0  0
  3 28  1  0  0  0  0
  5  9  1  0  0  0  0
  5 25  1  0  0  0  0
  5 29  1  1  0  0  0
  6  7  1  1  0  0  0
  6 11  1  0  0  0  0
  8 12  1  0  0  0  0
  9 10  1  6  0  0  0
  9 14  1  0  0  0  0
 11 16  1  0  0  0  0
 12 13  1  6  0  0  0
 12 17  1  0  0  0  0
 14 15  1  1  0  0  0
 14 18  1  0  0  0  0
 15 31  1  0  0  0  0
 16 20  1  0  0  0  0
 17  2  1  1  0  0  0
 17 22  1  0  0  0  0
 18 19  1  1  0  0  0
 18 24  1  0  0  0  0
 18 30  1  0  0  0  0
 20 21  1  0  0  0  0
 20 26  1  1  0  0  0
 22 23  1  6  0  0  0
 22 28  1  0  0  0  0
 24 25  1  0  0  0  0
 26 27  1  0  0  0  0
 28 29  1  1  0  0  0
M  END
>  <CHROM.1>
-151.89622094,-157.35482705,-101.99291020,-166.87931012,-116.13558095,173.17531574
-3.25808619,13.13402059,40.10633772,0.94800425,-0.92000534,-2.70946716

>  <Name>
ligand

>  <RI>
0

>  <Rbt.Current_Directory>
/home/itssahil/PROJECTS/Mol_Feturizer/New_Systems/rnas/4GPY

>  <Rbt.Executable>
rbdock ($Id: //depot/dev/client3/rdock/2013.1/src/exe/rbdock.cxx#4 $)

>  <Rbt.Library>
libRbt.so (2013.1, Build901 2013/11/27)

>  <Rbt.Parameter_File>
/export/apps/rDock/src/rDock_2013.1_src/data/scripts/dock_solv.prm

>  <Rbt.Receptor>
prm/pocket_docking_6.prm

>  <SCORE>
-5.77175

>  <SCORE.INTER>
-4.13615

>  <SCORE.INTER.CONST>
1

>  <SCORE.INTER.POLAR>
0

>  <SCORE.INTER.ROT>
6

>  <SCORE.INTER.SOLV>
10.5669

>  <SCORE.INTER.VDW>
-13.8797

>  <SCORE.INTER.norm>
-0.133424

>  <SCORE.INTRA>
-1.6356

>  <SCORE.INTRA.DIHEDRAL>
-5.50478

>  <SCORE.INTRA.DIHEDRAL.0>
14.7001

>  <SCORE.INTRA.POLAR>
0

>  <SCORE.INTRA.POLAR.0>
0

>  <SCORE.INTRA.REPUL>
0

>  <SCORE.INTRA.REPUL.0>
0

>  <SCORE.INTRA.SOLV>
-1.14546

>  <SCORE.INTRA.SOLV.lig_0>
-65.3082

>  <SCORE.INTRA.VDW>
1.68951

>  <SCORE.INTRA.VDW.0>
-4.21408

>  <SCORE.INTRA.norm>
-0.0527613

>  <SCORE.RESTR>
0

>  <SCORE.RESTR.CAVITY>
0

>  <SCORE.RESTR.norm>
0

>  <SCORE.SYSTEM>
0

>  <SCORE.SYSTEM.CONST>
0

>  <SCORE.SYSTEM.DIHEDRAL>
0

>  <SCORE.SYSTEM.SOLV>
0

>  <SCORE.SYSTEM.norm>
0

>  <SCORE.heavy>
31

>  <SCORE.norm>
-0.186185

>  <RMSD>
6.506

$$$$
ligand
 OpenBabel11021811493D
libRbt.so/2013.1/901 2013/11/27
 31 33  0  0  0  0  0  0  0  0999 V2000
    3.8261   19.5612   34.9907 C   0  0  2  0  0  0  0  0  0  0  0  0
    3.3584   18.9872   36.1961 O   0  0  0  0  0  0  0  0  0  0  0  0
    1.4803   15.4281   37.5619 C   0  0  2  0  0  0  0  0  0  0  0  0
    1.1246   14.0522   37.6475 N   0  0  0  0  0  0  0  0  0  0  0  0
    4.6624   14.6270   39.4972 C   0  0  2  0  0  0  0  0  0  0  0  0
    4.5800   20.9149   35.3474 C   0  0  2  0  0  0  0  0  0  0  0  0
    5.6686   20.6264   36.2749 N   0  0  0  0  0  0  0  0  0  0  0  0
    1.1166   15.9467   36.0995 C   0  0  0  0  0  0  0  0  0  0  0  0
    5.2650   13.9794   38.2054 C   0  0  2  0  0  0  0  0  0  0  0  0
    5.2710   14.9452   37.1756 O   0  0  0  0  0  0  0  0  0  0  0  0
    3.5773   21.9618   35.9577 C   0  0  0  0  0  0  0  0  0  0  0  0
    1.4972   17.4812   36.0101 C   0  0  2  0  0  0  0  0  0  0  0  0
    1.1615   17.9772   34.6748 N   0  0  0  0  0  0  0  0  0  0  0  0
    4.3794   12.7428   37.8077 C   0  0  1  0  0  0  0  0  0  0  0  0
    4.9253   12.1116   36.5634 N   0  0  0  0  0  0  0  0  0  0  0  0
    2.1738   21.9329   35.2191 C   0  0  0  0  0  0  0  0  0  0  0  0
    3.0504   17.6411   36.2731 C   0  0  2  0  0  0  0  0  0  0  0  0
    4.4153   11.6597   39.0216 C   0  0  1  0  0  0  0  0  0  0  0  0
    5.7163   11.1839   39.3050 O   0  0  0  0  0  0  0  0  0  0  0  0
    1.8461   20.9258   34.3736 C   0  0  1  0  0  0  0  0  0  0  0  0
    2.7147   19.8348   34.0811 O   0  0  0  0  0  0  0  0  0  0  0  0
    3.4057   17.1004   37.7205 C   0  0  2  0  0  0  0  0  0  0  0  0
    4.8239   17.2365   37.9455 O   0  0  0  0  0  0  0  0  0  0  0  0
    3.8517   12.3228   40.3141 C   0  0  0  0  0  0  0  0  0  0  0  0
    4.6148   13.6009   40.6163 O   0  0  0  0  0  0  0  0  0  0  0  0
    0.5187   20.8576   33.6570 C   0  0  0  0  0  0  0  0  0  0  0  0
   -0.3968   20.1858   34.5489 O   0  0  0  0  0  0  0  0  0  0  0  0
    3.0192   15.5747   37.8095 C   0  0  1  0  0  0  0  0  0  0  0  0
    3.3374   15.1199   39.1014 O   0  0  0  0  0  0  0  0  0  0  0  0
    3.5813   10.3960   38.7737 C   0  0  0  0  0  0  0  0  0  0  0  0
    6.2063   11.3888   36.7046 C   0  0  0  0  0  0  0  0  0  0  0  0
  1  2  1  1  0  0  0
  1  6  1  0  0  0  0
  1 21  1  0  0  0  0
  3  4  1  6  0  0  0
  3  8  1  0  0  0  0
  3 28  1  0  0  0  0
  5  9  1  0  0  0  0
  5 25  1  0  0  0  0
  5 29  1  6  0  0  0
  6  7  1  1  0  0  0
  6 11  1  0  0  0  0
  8 12  1  0  0  0  0
  9 10  1  6  0  0  0
  9 14  1  0  0  0  0
 11 16  1  0  0  0  0
 12 13  1  6  0  0  0
 12 17  1  0  0  0  0
 14 15  1  6  0  0  0
 14 18  1  0  0  0  0
 15 31  1  0  0  0  0
 16 20  1  0  0  0  0
 17  2  1  1  0  0  0
 17 22  1  0  0  0  0
 18 19  1  1  0  0  0
 18 24  1  0  0  0  0
 18 30  1  0  0  0  0
 20 21  1  0  0  0  0
 20 26  1  1  0  0  0
 22 23  1  6  0  0  0
 22 28  1  0  0  0  0
 24 25  1  0  0  0  0
 26 27  1  0  0  0  0
 28 29  1  1  0  0  0
M  END
>  <CHROM.1>
-159.24330309,-30.94082332,70.88763403,-94.57795522,-87.09284821,155.46927779
3.39315444,16.38020819,36.96211526,-1.83266153,0.34306104,2.79924400

>  <Name>
ligand

>  <RI>
0

>  <Rbt.Current_Directory>
/home/itssahil/PROJECTS/Mol_Feturizer/New_Systems/rnas/4GPY

>  <Rbt.Executable>
rbdock ($Id: //depot/dev/client3/rdock/2013.1/src/exe/rbdock.cxx#4 $)

>  <Rbt.Library>
libRbt.so (2013.1, Build901 2013/11/27)

>  <Rbt.Parameter_File>
/export/apps/rDock/src/rDock_2013.1_src/data/scripts/dock_solv.prm

>  <Rbt.Receptor>
prm/blind_docking_80.prm

>  <SCORE>
8.09454

>  <SCORE.INTER>
-5.82214

>  <SCORE.INTER.CONST>
1

>  <SCORE.INTER.POLAR>
0

>  <SCORE.INTER.ROT>
6

>  <SCORE.INTER.SOLV>
15.2768

>  <SCORE.INTER.VDW>
-16.5737

>  <SCORE.INTER.norm>
-0.187811

>  <SCORE.INTRA>
12.0311

>  <SCORE.INTRA.DIHEDRAL>
0.569298

>  <SCORE.INTRA.DIHEDRAL.0>
14.7001

>  <SCORE.INTRA.POLAR>
0

>  <SCORE.INTRA.POLAR.0>
0

>  <SCORE.INTRA.REPUL>
0

>  <SCORE.INTRA.REPUL.0>
0

>  <SCORE.INTRA.SOLV>
5.04973

>  <SCORE.INTRA.SOLV.lig_0>
-65.3082

>  <SCORE.INTRA.VDW>
9.22162

>  <SCORE.INTRA.VDW.0>
-4.21408

>  <SCORE.INTRA.norm>
0.388101

>  <SCORE.RESTR>
1.88555

>  <SCORE.RESTR.CAVITY>
1.88555

>  <SCORE.RESTR.norm>
0.0608241

>  <SCORE.SYSTEM>
0

>  <SCORE.SYSTEM.CONST>
0

>  <SCORE.SYSTEM.DIHEDRAL>
0

>  <SCORE.SYSTEM.SOLV>
0

>  <SCORE.SYSTEM.norm>
0

>  <SCORE.heavy>
31

>  <SCORE.norm>
0.261114

>  <RMSD>
6.515

$$$$
ligand
 OpenBabel11021811493D
libRbt.so/2013.1/901 2013/11/27
 31 33  0  0  0  0  0  0  0  0999 V2000
    4.6836   19.3806   35.4035 C   0  0  2  0  0  0  0  0  0  0  0  0
    3.8304   18.7062   36.3082 O   0  0  0  0  0  0  0  0  0  0  0  0
    1.5927   15.1255   36.7891 C   0  0  2  0  0  0  0  0  0  0  0  0
    0.9801   13.8794   36.4748 N   0  0  0  0  0  0  0  0  0  0  0  0
    5.0670   13.7850   37.7481 C   0  0  2  0  0  0  0  0  0  0  0  0
    5.3321   20.6174   36.1636 C   0  0  2  0  0  0  0  0  0  0  0  0
    6.0511   20.1342   37.3376 N   0  0  0  0  0  0  0  0  0  0  0  0
    1.0283   16.2257   35.7838 C   0  0  0  0  0  0  0  0  0  0  0  0
    5.2772   12.2523   37.5075 C   0  0  2  0  0  0  0  0  0  0  0  0
    4.8335   11.9336   36.2057 O   0  0  0  0  0  0  0  0  0  0  0  0
    4.2260   21.6609   36.5657 C   0  0  0  0  0  0  0  0  0  0  0  0
    1.6976   17.6148   36.1442 C   0  0  2  0  0  0  0  0  0  0  0  0
    1.1835   18.6403   35.2355 N   0  0  0  0  0  0  0  0  0  0  0  0
    4.4551   11.4604   38.5886 C   0  0  1  0  0  0  0  0  0  0  0  0
    4.6260    9.9878   38.3723 N   0  0  0  0  0  0  0  0  0  0  0  0
    3.1364   21.8327   35.4258 C   0  0  0  0  0  0  0  0  0  0  0  0
    3.2674   17.4855   35.9832 C   0  0  2  0  0  0  0  0  0  0  0  0
    5.0122   11.8564   40.0653 C   0  0  1  0  0  0  0  0  0  0  0  0
    6.3785   11.5414   40.2479 O   0  0  0  0  0  0  0  0  0  0  0  0
    3.0619   20.9631   34.3892 C   0  0  1  0  0  0  0  0  0  0  0  0
    3.9367   19.8488   34.2371 O   0  0  0  0  0  0  0  0  0  0  0  0
    3.8159   16.3720   36.9696 C   0  0  2  0  0  0  0  0  0  0  0  0
    5.2438   16.2510   36.8055 O   0  0  0  0  0  0  0  0  0  0  0  0
    4.8371   13.3893   40.2828 C   0  0  0  0  0  0  0  0  0  0  0  0
    5.5082   14.1531   39.1543 O   0  0  0  0  0  0  0  0  0  0  0  0
    2.0355   21.0873   33.2885 C   0  0  0  0  0  0  0  0  0  0  0  0
    0.7488   21.1923   33.9352 O   0  0  0  0  0  0  0  0  0  0  0  0
    3.1427   14.9918   36.6137 C   0  0  1  0  0  0  0  0  0  0  0  0
    3.6392   14.0232   37.5038 O   0  0  0  0  0  0  0  0  0  0  0  0
    4.2911   11.1602   41.2268 C   0  0  0  0  0  0  0  0  0  0  0  0
    3.9773    9.4238   37.1704 C   0  0  0  0  0  0  0  0  0  0  0  0
  1  2  1  1  0  0  0
  1  6  1  0  0  0  0
  1 21  1  0  0  0  0
  3  4  1  6  0  0  0
  3  8  1  0  0  0  0
  3 28  1  0  0  0  0
  5  9  1  0  0  0  0
  5 25  1  0  0  0  0
  5 29  1  1  0  0  0
  6  7  1  1  0  0  0
  6 11  1  0  0  0  0
  8 12  1  0  0  0  0
  9 10  1  6  0  0  0
  9 14  1  0  0  0  0
 11 16  1  0  0  0  0
 12 13  1  6  0  0  0
 12 17  1  0  0  0  0
 14 15  1  6  0  0  0
 14 18  1  0  0  0  0
 15 31  1  0  0  0  0
 16 20  1  0  0  0  0
 17  2  1  1  0  0  0
 17 22  1  0  0  0  0
 18 19  1  1  0  0  0
 18 24  1  0  0  0  0
 18 30  1  0  0  0  0
 20 21  1  0  0  0  0
 20 26  1  1  0  0  0
 22 23  1  6  0  0  0
 22 28  1  0  0  0  0
 24 25  1  0  0  0  0
 26 27  1  0  0  0  0
 28 29  1  1  0  0  0
M  END
>  <CHROM.1>
-171.17243721,-126.62993354,-70.18656338,-124.81984708,-52.08853625,-170.54826613
3.78488598,16.01318063,36.90155957,-1.78001830,0.61178683,2.86314805

>  <Name>
ligand

>  <RI>
0

>  <Rbt.Current_Directory>
/home/itssahil/PROJECTS/Mol_Feturizer/New_Systems/rnas/4GPY

>  <Rbt.Executable>
rbdock ($Id: //depot/dev/client3/rdock/2013.1/src/exe/rbdock.cxx#4 $)

>  <Rbt.Library>
libRbt.so (2013.1, Build901 2013/11/27)

>  <Rbt.Parameter_File>
/export/apps/rDock/src/rDock_2013.1_src/data/scripts/dock_solv.prm

>  <Rbt.Receptor>
prm/blind_docking_80.prm

>  <SCORE>
-1.66558

>  <SCORE.INTER>
-10.2699

>  <SCORE.INTER.CONST>
1

>  <SCORE.INTER.POLAR>
0

>  <SCORE.INTER.ROT>
6

>  <SCORE.INTER.SOLV>
16.4416

>  <SCORE.INTER.VDW>
-19.9271

>  <SCORE.INTER.norm>
-0.331287

>  <SCORE.INTRA>
5.37711

>  <SCORE.INTRA.DIHEDRAL>
3.78844

>  <SCORE.INTRA.DIHEDRAL.0>
14.7001

>  <SCORE.INTRA.POLAR>
0

>  <SCORE.INTRA.POLAR.0>
0

>  <SCORE.INTRA.REPUL>
0

>  <SCORE.INTRA.REPUL.0>
0

>  <SCORE.INTRA.SOLV>
1.56109

>  <SCORE.INTRA.SOLV.lig_0>
-65.3082

>  <SCORE.INTRA.VDW>
2.70234

>  <SCORE.INTRA.VDW.0>
-4.21408

>  <SCORE.INTRA.norm>
0.173455

>  <SCORE.RESTR>
3.22722

>  <SCORE.RESTR.CAVITY>
3.22722

>  <SCORE.RESTR.norm>
0.104104

>  <SCORE.SYSTEM>
0

>  <SCORE.SYSTEM.CONST>
0

>  <SCORE.SYSTEM.DIHEDRAL>
0

>  <SCORE.SYSTEM.SOLV>
0

>  <SCORE.SYSTEM.norm>
0

>  <SCORE.heavy>
31

>  <SCORE.norm>
-0.0537284

>  <RMSD>
6.517

$$$$
ligand
 OpenBabel11021811493D
libRbt.so/2013.1/901 2013/11/27
 31 33  0  0  0  0  0  0  0  0999 V2000
    3.5741   19.7719   34.7523 C   0  0  2  0  0  0  0  0  0  0  0  0
    2.9743   19.3535   35.9633 O   0  0  0  0  0  0  0  0  0  0  0  0
    0.9222   16.0716   37.7177 C   0  0  2  0  0  0  0  0  0  0  0  0
    0.4027   14.7573   37.8900 N   0  0  0  0  0  0  0  0  0  0  0  0
    4.4091   15.3112   39.1664 C   0  0  2  0  0  0  0  0  0  0  0  0
    4.2343   21.1979   34.9943 C   0  0  2  0  0  0  0  0  0  0  0  0
    5.2041   21.0985   36.0798 N   0  0  0  0  0  0  0  0  0  0  0  0
    0.3570   16.6549   36.3466 C   0  0  0  0  0  0  0  0  0  0  0  0
    4.9711   14.4505   37.9855 C   0  0  2  0  0  0  0  0  0  0  0  0
    4.6909   15.1119   36.7701 O   0  0  0  0  0  0  0  0  0  0  0  0
    3.1301   22.2707   35.3166 C   0  0  0  0  0  0  0  0  0  0  0  0
    0.9220   18.1228   36.1633 C   0  0  2  0  0  0  0  0  0  0  0  0
    0.4054   18.6782   34.9118 N   0  0  0  0  0  0  0  0  0  0  0  0
    4.2822   13.0379   38.0258 C   0  0  1  0  0  0  0  0  0  0  0  0
    4.7911   12.1968   36.8953 N   0  0  0  0  0  0  0  0  0  0  0  0
    1.8340   22.0680   34.4251 C   0  0  0  0  0  0  0  0  0  0  0  0
    2.5035   18.0622   36.1175 C   0  0  2  0  0  0  0  0  0  0  0  0
    4.6447   12.3175   39.4392 C   0  0  1  0  0  0  0  0  0  0  0  0
    6.0330   12.1246   39.6257 O   0  0  0  0  0  0  0  0  0  0  0  0
    1.6480   20.9357   33.7041 C   0  0  1  0  0  0  0  0  0  0  0  0
    2.5799   19.8581   33.6838 O   0  0  0  0  0  0  0  0  0  0  0  0
    3.0547   17.4583   37.4759 C   0  0  2  0  0  0  0  0  0  0  0  0
    4.4945   17.3933   37.4193 O   0  0  0  0  0  0  0  0  0  0  0  0
    4.1182   13.1988   40.6112 C   0  0  0  0  0  0  0  0  0  0  0  0
    4.6695   14.6089   40.4880 O   0  0  0  0  0  0  0  0  0  0  0  0
    0.4255   20.7010   32.8492 C   0  0  0  0  0  0  0  0  0  0  0  0
   -0.6934   21.2644   33.5672 O   0  0  0  0  0  0  0  0  0  0  0  0
    2.4851   15.9999   37.6597 C   0  0  1  0  0  0  0  0  0  0  0  0
    2.9820   15.4884   38.8715 O   0  0  0  0  0  0  0  0  0  0  0  0
    4.0276   10.9248   39.6218 C   0  0  0  0  0  0  0  0  0  0  0  0
    3.7670   11.5461   36.0519 C   0  0  0  0  0  0  0  0  0  0  0  0
  1  2  1  1  0  0  0
  1  6  1  0  0  0  0
  1 21  1  0  0  0  0
  3  4  1  6  0  0  0
  3  8  1  0  0  0  0
  3 28  1  0  0  0  0
  5  9  1  0  0  0  0
  5 25  1  0  0  0  0
  5 29  1  6  0  0  0
  6  7  1  1  0  0  0
  6 11  1  0  0  0  0
  8 12  1  0  0  0  0
  9 10  1  6  0  0  0
  9 14  1  0  0  0  0
 11 16  1  0  0  0  0
 12 13  1  6  0  0  0
 12 17  1  0  0  0  0
 14 15  1  6  0  0  0
 14 18  1  0  0  0  0
 15 31  1  0  0  0  0
 16 20  1  0  0  0  0
 17  2  1  1  0  0  0
 17 22  1  0  0  0  0
 18 19  1  1  0  0  0
 18 24  1  0  0  0  0
 18 30  1  0  0  0  0
 20 21  1  0  0  0  0
 20 26  1  1  0  0  0
 22 23  1  6  0  0  0
 22 28  1  0  0  0  0
 24 25  1  0  0  0  0
 26 27  1  0  0  0  0
 28 29  1  1  0  0  0
M  END
>  <CHROM.1>
-169.80375758,-53.85932178,-129.39265701,-109.96022751,-37.51890926,-178.84553545
3.04031678,16.82521087,36.79730793,-1.86433491,0.39944411,2.74484107

>  <Name>
ligand

>  <RI>
0

>  <Rbt.Current_Directory>
/home/itssahil/PROJECTS/Mol_Feturizer/New_Systems/rnas/4GPY

>  <Rbt.Executable>
rbdock ($Id: //depot/dev/client3/rdock/2013.1/src/exe/rbdock.cxx#4 $)

>  <Rbt.Library>
libRbt.so (2013.1, Build901 2013/11/27)

>  <Rbt.Parameter_File>
/export/apps/rDock/src/rDock_2013.1_src/data/scripts/dock_solv.prm

>  <Rbt.Receptor>
prm/blind_docking_80.prm

>  <SCORE>
2.88852

>  <SCORE.INTER>
-3.88573

>  <SCORE.INTER.CONST>
1

>  <SCORE.INTER.POLAR>
0

>  <SCORE.INTER.ROT>
6

>  <SCORE.INTER.SOLV>
14.9786

>  <SCORE.INTER.VDW>
-15.1833

>  <SCORE.INTER.norm>
-0.125346

>  <SCORE.INTRA>
4.98741

>  <SCORE.INTRA.DIHEDRAL>
-3.15136

>  <SCORE.INTRA.DIHEDRAL.0>
14.7001

>  <SCORE.INTRA.POLAR>
0

>  <SCORE.INTRA.POLAR.0>
0

>  <SCORE.INTRA.REPUL>
0

>  <SCORE.INTRA.REPUL.0>
0

>  <SCORE.INTRA.SOLV>
3.00405

>  <SCORE.INTRA.SOLV.lig_0>
-65.3082

>  <SCORE.INTRA.VDW>
5.06107

>  <SCORE.INTRA.VDW.0>
-4.21408

>  <SCORE.INTRA.norm>
0.160884

>  <SCORE.RESTR>
1.78683

>  <SCORE.RESTR.CAVITY>
1.78683

>  <SCORE.RESTR.norm>
0.0576398

>  <SCORE.SYSTEM>
0

>  <SCORE.SYSTEM.CONST>
0

>  <SCORE.SYSTEM.DIHEDRAL>
0

>  <SCORE.SYSTEM.SOLV>
0

>  <SCORE.SYSTEM.norm>
0

>  <SCORE.heavy>
31

>  <SCORE.norm>
0.0931779

>  <RMSD>
6.528

$$$$
ligand
 OpenBabel11021811493D
libRbt.so/2013.1/901 2013/11/27
 31 33  0  0  0  0  0  0  0  0999 V2000
    4.5695   19.4446   35.2538 C   0  0  2  0  0  0  0  0  0  0  0  0
    3.7857   18.7495   36.2045 O   0  0  0  0  0  0  0  0  0  0  0  0
    1.5862   15.1585   36.7758 C   0  0  2  0  0  0  0  0  0  0  0  0
    0.9923   13.8954   36.4952 N   0  0  0  0  0  0  0  0  0  0  0  0
    5.0652   13.8378   37.7606 C   0  0  2  0  0  0  0  0  0  0  0  0
    5.2718   20.6664   35.9901 C   0  0  2  0  0  0  0  0  0  0  0  0
    6.0757   20.1600   37.0973 N   0  0  0  0  0  0  0  0  0  0  0  0
    1.0201   16.2187   35.7293 C   0  0  0  0  0  0  0  0  0  0  0  0
    5.2430   12.3059   37.4902 C   0  0  2  0  0  0  0  0  0  0  0  0
    4.7685   12.0175   36.1922 O   0  0  0  0  0  0  0  0  0  0  0  0
    4.1979   21.6989   36.4947 C   0  0  0  0  0  0  0  0  0  0  0  0
    1.6684   17.6269   36.0521 C   0  0  2  0  0  0  0  0  0  0  0  0
    1.1524   18.6162   35.1051 N   0  0  0  0  0  0  0  0  0  0  0  0
    4.4279   11.5103   38.5738 C   0  0  1  0  0  0  0  0  0  0  0  0
    4.5680   10.0388   38.3295 N   0  0  0  0  0  0  0  0  0  0  0  0
    3.0270   21.8926   35.4423 C   0  0  0  0  0  0  0  0  0  0  0  0
    3.2414   17.5121   35.9128 C   0  0  2  0  0  0  0  0  0  0  0  0
    5.0206   11.8710   40.0458 C   0  0  1  0  0  0  0  0  0  0  0  0
    6.3843   11.5288   40.1960 O   0  0  0  0  0  0  0  0  0  0  0  0
    2.8766   21.0449   34.3958 C   0  0  1  0  0  0  0  0  0  0  0  0
    3.7383   19.9358   34.1559 O   0  0  0  0  0  0  0  0  0  0  0  0
    3.7919   16.4378   36.9407 C   0  0  2  0  0  0  0  0  0  0  0  0
    5.2229   16.3294   36.7966 O   0  0  0  0  0  0  0  0  0  0  0  0
    4.8774   13.4028   40.2923 C   0  0  0  0  0  0  0  0  0  0  0  0
    5.5402   14.1739   39.1638 O   0  0  0  0  0  0  0  0  0  0  0  0
    1.7716   21.1903   33.3768 C   0  0  0  0  0  0  0  0  0  0  0  0
    0.5290   21.1755   34.1118 O   0  0  0  0  0  0  0  0  0  0  0  0
    3.1396   15.0385   36.6221 C   0  0  1  0  0  0  0  0  0  0  0  0
    3.6375   14.1054   37.5485 O   0  0  0  0  0  0  0  0  0  0  0  0
    4.3096   11.1679   41.2094 C   0  0  0  0  0  0  0  0  0  0  0  0
    3.8891    9.5077   37.1293 C   0  0  0  0  0  0  0  0  0  0  0  0
  1  2  1  1  0  0  0
  1  6  1  0  0  0  0
  1 21  1  0  0  0  0
  3  4  1  6  0  0  0
  3  8  1  0  0  0  0
  3 28  1  0  0  0  0
  5  9  1  0  0  0  0
  5 25  1  0  0  0  0
  5 29  1  1  0  0  0
  6  7  1  1  0  0  0
  6 11  1  0  0  0  0
  8 12  1  0  0  0  0
  9 10  1  6  0  0  0
  9 14  1  0  0  0  0
 11 16  1  0  0  0  0
 12 13  1  6  0  0  0
 12 17  1  0  0  0  0
 14 15  1  6  0  0  0
 14 18  1  0  0  0  0
 15 31  1  0  0  0  0
 16 20  1  0  0  0  0
 17  2  1  1  0  0  0
 17 22  1  0  0  0  0
 18 19  1  1  0  0  0
 18 24  1  0  0  0  0
 18 30  1  0  0  0  0
 20 21  1  0  0  0  0
 20 26  1  1  0  0  0
 22 23  1  6  0  0  0
 22 28  1  0  0  0  0
 24 25  1  0  0  0  0
 26 27  1  0  0  0  0
 28 29  1  1  0  0  0
M  END
>  <CHROM.1>
-168.78509422,-122.38974667,-70.02321337,-120.62648513,-56.39167963,-174.24265341
3.73544491,16.05470611,36.86933445,-1.78906079,0.58833862,2.86159064

>  <Name>
ligand

>  <RI>
0

>  <Rbt.Current_Directory>
/home/itssahil/PROJECTS/Mol_Feturizer/New_Systems/rnas/4GPY

>  <Rbt.Executable>
rbdock ($Id: //depot/dev/client3/rdock/2013.1/src/exe/rbdock.cxx#4 $)

>  <Rbt.Library>
libRbt.so (2013.1, Build901 2013/11/27)

>  <Rbt.Parameter_File>
/export/apps/rDock/src/rDock_2013.1_src/data/scripts/dock_solv.prm

>  <Rbt.Receptor>
prm/blind_docking_80.prm

>  <SCORE>
-1.46943

>  <SCORE.INTER>
-10.0334

>  <SCORE.INTER.CONST>
1

>  <SCORE.INTER.POLAR>
0

>  <SCORE.INTER.ROT>
6

>  <SCORE.INTER.SOLV>
15.5546

>  <SCORE.INTER.VDW>
-19.4738

>  <SCORE.INTER.norm>
-0.323659

>  <SCORE.INTRA>
5.422

>  <SCORE.INTRA.DIHEDRAL>
4.10504

>  <SCORE.INTRA.DIHEDRAL.0>
14.7001

>  <SCORE.INTRA.POLAR>
0

>  <SCORE.INTRA.POLAR.0>
0

>  <SCORE.INTRA.REPUL>
0

>  <SCORE.INTRA.REPUL.0>
0

>  <SCORE.INTRA.SOLV>
1.84452

>  <SCORE.INTRA.SOLV.lig_0>
-65.3082

>  <SCORE.INTRA.VDW>
2.44722

>  <SCORE.INTRA.VDW.0>
-4.21408

>  <SCORE.INTRA.norm>
0.174903

>  <SCORE.RESTR>
3.14201

>  <SCORE.RESTR.CAVITY>
3.14201

>  <SCORE.RESTR.norm>
0.101355

>  <SCORE.SYSTEM>
0

>  <SCORE.SYSTEM.CONST>
0

>  <SCORE.SYSTEM.DIHEDRAL>
0

>  <SCORE.SYSTEM.SOLV>
0

>  <SCORE.SYSTEM.norm>
0

>  <SCORE.heavy>
31

>  <SCORE.norm>
-0.0474009

>  <RMSD>
6.529

$$$$
ligand
 OpenBabel11021811493D
libRbt.so/2013.1/901 2013/11/27
 31 33  0  0  0  0  0  0  0  0999 V2000
    5.2501   19.4187   35.7354 C   0  0  2  0  0  0  0  0  0  0  0  0
    4.1689   18.8774   36.4697 O   0  0  0  0  0  0  0  0  0  0  0  0
    1.7171   15.4167   36.7383 C   0  0  2  0  0  0  0  0  0  0  0  0
    1.0701   14.2044   36.3660 N   0  0  0  0  0  0  0  0  0  0  0  0
    5.0028   13.6966   37.7739 C   0  0  2  0  0  0  0  0  0  0  0  0
    5.8217   20.6639   36.5422 C   0  0  2  0  0  0  0  0  0  0  0  0
    6.2285   20.2261   37.8731 N   0  0  0  0  0  0  0  0  0  0  0  0
    1.2976   16.5460   35.6950 C   0  0  0  0  0  0  0  0  0  0  0  0
    4.8401   12.1655   38.0573 C   0  0  2  0  0  0  0  0  0  0  0  0
    4.1027   11.5858   37.0021 O   0  0  0  0  0  0  0  0  0  0  0  0
    4.7467   21.8091   36.6256 C   0  0  0  0  0  0  0  0  0  0  0  0
    2.0045   17.8981   36.1190 C   0  0  2  0  0  0  0  0  0  0  0  0
    1.6230   18.9500   35.1758 N   0  0  0  0  0  0  0  0  0  0  0  0
    4.0900   11.9888   39.4275 C   0  0  1  0  0  0  0  0  0  0  0  0
    3.9067   10.5303   39.7171 N   0  0  0  0  0  0  0  0  0  0  0  0
    3.9459   21.9653   35.2654 C   0  0  0  0  0  0  0  0  0  0  0  0
    3.5736   17.6879   36.0911 C   0  0  2  0  0  0  0  0  0  0  0  0
    4.9853   12.6639   40.6067 C   0  0  1  0  0  0  0  0  0  0  0  0
    6.2655   12.0781   40.7384 O   0  0  0  0  0  0  0  0  0  0  0  0
    4.0230   21.0242   34.2934 C   0  0  1  0  0  0  0  0  0  0  0  0
    4.8133   19.8441   34.4066 O   0  0  0  0  0  0  0  0  0  0  0  0
    3.9781   16.5462   37.1141 C   0  0  2  0  0  0  0  0  0  0  0  0
    5.4066   16.3517   37.0711 O   0  0  0  0  0  0  0  0  0  0  0  0
    5.1773   14.1790   40.2979 C   0  0  0  0  0  0  0  0  0  0  0  0
    5.7678   14.3545   38.9095 O   0  0  0  0  0  0  0  0  0  0  0  0
    3.2712   21.1319   32.9882 C   0  0  0  0  0  0  0  0  0  0  0  0
    4.2664   21.2024   31.9443 O   0  0  0  0  0  0  0  0  0  0  0  0
    3.2675   15.2031   36.6944 C   0  0  1  0  0  0  0  0  0  0  0  0
    3.6359   14.2090   37.6179 O   0  0  0  0  0  0  0  0  0  0  0  0
    4.3671   12.5735   42.0080 C   0  0  0  0  0  0  0  0  0  0  0  0
    2.5393    9.9967   39.5472 C   0  0  0  0  0  0  0  0  0  0  0  0
  1  2  1  1  0  0  0
  1  6  1  0  0  0  0
  1 21  1  0  0  0  0
  3  4  1  6  0  0  0
  3  8  1  0  0  0  0
  3 28  1  0  0  0  0
  5  9  1  0  0  0  0
  5 25  1  0  0  0  0
  5 29  1  1  0  0  0
  6  7  1  1  0  0  0
  6 11  1  0  0  0  0
  8 12  1  0  0  0  0
  9 10  1  6  0  0  0
  9 14  1  0  0  0  0
 11 16  1  0  0  0  0
 12 13  1  6  0  0  0
 12 17  1  0  0  0  0
 14 15  1  1  0  0  0
 14 18  1  0  0  0  0
 15 31  1  0  0  0  0
 16 20  1  0  0  0  0
 17  2  1  1  0  0  0
 17 22  1  0  0  0  0
 18 19  1  1  0  0  0
 18 24  1  0  0  0  0
 18 30  1  0  0  0  0
 20 21  1  0  0  0  0
 20 26  1  1  0  0  0
 22 23  1  6  0  0  0
 22 28  1  0  0  0  0
 24 25  1  0  0  0  0
 26 27  1  0  0  0  0
 28 29  1  1  0  0  0
M  END
>  <CHROM.1>
-172.28640365,-142.68416619,-106.02611271,-133.11890449,117.28633338,175.80182102
4.05979994,16.26976038,37.12288165,-1.59594358,0.71533026,2.65190105

>  <Name>
ligand

>  <RI>
0

>  <Rbt.Current_Directory>
/home/itssahil/PROJECTS/Mol_Feturizer/New_Systems/rnas/4GPY

>  <Rbt.Executable>
rbdock ($Id: //depot/dev/client3/rdock/2013.1/src/exe/rbdock.cxx#4 $)

>  <Rbt.Library>
libRbt.so (2013.1, Build901 2013/11/27)

>  <Rbt.Parameter_File>
/export/apps/rDock/src/rDock_2013.1_src/data/scripts/dock_solv.prm

>  <Rbt.Receptor>
prm/pocket_docking_6.prm

>  <SCORE>
-11.6255

>  <SCORE.INTER>
-12.1665

>  <SCORE.INTER.CONST>
1

>  <SCORE.INTER.POLAR>
0

>  <SCORE.INTER.ROT>
6

>  <SCORE.INTER.SOLV>
18.0655

>  <SCORE.INTER.VDW>
-21.7329

>  <SCORE.INTER.norm>
-0.392468

>  <SCORE.INTRA>
0.520435

>  <SCORE.INTRA.DIHEDRAL>
-0.252139

>  <SCORE.INTRA.DIHEDRAL.0>
14.7001

>  <SCORE.INTRA.POLAR>
0

>  <SCORE.INTRA.POLAR.0>
0

>  <SCORE.INTRA.REPUL>
0

>  <SCORE.INTRA.REPUL.0>
0

>  <SCORE.INTRA.SOLV>
0.442048

>  <SCORE.INTRA.SOLV.lig_0>
-65.3082

>  <SCORE.INTRA.VDW>
0.42548

>  <SCORE.INTRA.VDW.0>
-4.21408

>  <SCORE.INTRA.norm>
0.0167882

>  <SCORE.RESTR>
0.0206011

>  <SCORE.RESTR.CAVITY>
0.0206011

>  <SCORE.RESTR.norm>
0.000664553

>  <SCORE.SYSTEM>
0

>  <SCORE.SYSTEM.CONST>
0

>  <SCORE.SYSTEM.DIHEDRAL>
0

>  <SCORE.SYSTEM.SOLV>
0

>  <SCORE.SYSTEM.norm>
0

>  <SCORE.heavy>
31

>  <SCORE.norm>
-0.375015

>  <RMSD>
6.541

$$$$
ligand
 OpenBabel11021811493D
libRbt.so/2013.1/901 2013/11/27
 31 33  0  0  0  0  0  0  0  0999 V2000
    3.4159   19.5951   34.6494 C   0  0  2  0  0  0  0  0  0  0  0  0
    3.2836   18.9171   35.8840 O   0  0  0  0  0  0  0  0  0  0  0  0
    1.6976   15.3087   37.4727 C   0  0  2  0  0  0  0  0  0  0  0  0
    1.2712   13.9522   37.5423 N   0  0  0  0  0  0  0  0  0  0  0  0
    5.2610   14.0896   38.0159 C   0  0  2  0  0  0  0  0  0  0  0  0
    4.2443   20.9283   34.9036 C   0  0  2  0  0  0  0  0  0  0  0  0
    5.5393   20.5844   35.4809 N   0  0  0  0  0  0  0  0  0  0  0  0
    0.8859   16.0268   36.3043 C   0  0  0  0  0  0  0  0  0  0  0  0
    4.9631   12.6273   37.5424 C   0  0  2  0  0  0  0  0  0  0  0  0
    4.1705   12.6823   36.3753 O   0  0  0  0  0  0  0  0  0  0  0  0
    3.4456   21.9046   35.8432 C   0  0  0  0  0  0  0  0  0  0  0  0
    1.3486   17.5398   36.2381 C   0  0  2  0  0  0  0  0  0  0  0  0
    0.6060   18.2179   35.1749 N   0  0  0  0  0  0  0  0  0  0  0  0
    4.2080   11.8732   38.6968 C   0  0  1  0  0  0  0  0  0  0  0  0
    3.8961   10.4732   38.2642 N   0  0  0  0  0  0  0  0  0  0  0  0
    1.8959   21.9114   35.5048 C   0  0  0  0  0  0  0  0  0  0  0  0
    2.9012   17.5889   35.9312 C   0  0  2  0  0  0  0  0  0  0  0  0
    5.1671   11.8303   40.0107 C   0  0  1  0  0  0  0  0  0  0  0  0
    6.3902   11.1576   39.7854 O   0  0  0  0  0  0  0  0  0  0  0  0
    1.3498   20.9707   34.6966 C   0  0  1  0  0  0  0  0  0  0  0  0
    2.1036   19.9223   34.0942 O   0  0  0  0  0  0  0  0  0  0  0  0
    3.6979   16.8511   37.0865 C   0  0  2  0  0  0  0  0  0  0  0  0
    5.1092   16.8880   36.7913 O   0  0  0  0  0  0  0  0  0  0  0  0
    5.4926   13.2885   40.4528 C   0  0  0  0  0  0  0  0  0  0  0  0
    6.0885   14.0623   39.2895 O   0  0  0  0  0  0  0  0  0  0  0  0
   -0.1210   20.9379   34.3559 C   0  0  0  0  0  0  0  0  0  0  0  0
   -0.2154   21.0927   32.9234 O   0  0  0  0  0  0  0  0  0  0  0  0
    3.2303   15.3472   37.1554 C   0  0  1  0  0  0  0  0  0  0  0  0
    3.9449   14.7164   38.1890 O   0  0  0  0  0  0  0  0  0  0  0  0
    4.5512   11.1268   41.2271 C   0  0  0  0  0  0  0  0  0  0  0  0
    5.0256    9.6889   37.7234 C   0  0  0  0  0  0  0  0  0  0  0  0
  1  2  1  1  0  0  0
  1  6  1  0  0  0  0
  1 21  1  0  0  0  0
  3  4  1  6  0  0  0
  3  8  1  0  0  0  0
  3 28  1  0  0  0  0
  5  9  1  0  0  0  0
  5 25  1  0  0  0  0
  5 29  1  1  0  0  0
  6  7  1  1  0  0  0
  6 11  1  0  0  0  0
  8 12  1  0  0  0  0
  9 10  1  6  0  0  0
  9 14  1  0  0  0  0
 11 16  1  0  0  0  0
 12 13  1  6  0  0  0
 12 17  1  0  0  0  0
 14 15  1  6  0  0  0
 14 18  1  0  0  0  0
 15 31  1  0  0  0  0
 16 20  1  0  0  0  0
 17  2  1  1  0  0  0
 17 22  1  0  0  0  0
 18 19  1  6  0  0  0
 18 24  1  0  0  0  0
 18 30  1  0  0  0  0
 20 21  1  0  0  0  0
 20 26  1  1  0  0  0
 22 23  1  6  0  0  0
 22 28  1  0  0  0  0
 24 25  1  0  0  0  0
 26 27  1  0  0  0  0
 28 29  1  1  0  0  0
M  END
>  <CHROM.1>
-164.20452021,-86.56285556,51.11814497,-98.25353460,118.88136230,154.20859703
3.39973655,16.17930991,36.88785165,-1.89064211,0.39677166,2.81295407

>  <Name>
ligand

>  <RI>
0

>  <Rbt.Current_Directory>
/home/itssahil/PROJECTS/Mol_Feturizer/New_Systems/rnas/4GPY

>  <Rbt.Executable>
rbdock ($Id: //depot/dev/client3/rdock/2013.1/src/exe/rbdock.cxx#4 $)

>  <Rbt.Library>
libRbt.so (2013.1, Build901 2013/11/27)

>  <Rbt.Parameter_File>
/export/apps/rDock/src/rDock_2013.1_src/data/scripts/dock_solv.prm

>  <Rbt.Receptor>
prm/blind_docking_80.prm

>  <SCORE>
-2.5711

>  <SCORE.INTER>
-10.1048

>  <SCORE.INTER.CONST>
1

>  <SCORE.INTER.POLAR>
0

>  <SCORE.INTER.ROT>
6

>  <SCORE.INTER.SOLV>
12.9698

>  <SCORE.INTER.VDW>
-18.6598

>  <SCORE.INTER.norm>
-0.32596

>  <SCORE.INTRA>
4.2987

>  <SCORE.INTRA.DIHEDRAL>
-0.913696

>  <SCORE.INTRA.DIHEDRAL.0>
14.7001

>  <SCORE.INTRA.POLAR>
0

>  <SCORE.INTRA.POLAR.0>
0

>  <SCORE.INTRA.REPUL>
0

>  <SCORE.INTRA.REPUL.0>
0

>  <SCORE.INTRA.SOLV>
3.50487

>  <SCORE.INTRA.SOLV.lig_0>
-65.3082

>  <SCORE.INTRA.VDW>
3.00311

>  <SCORE.INTRA.VDW.0>
-4.21408

>  <SCORE.INTRA.norm>
0.138668

>  <SCORE.RESTR>
3.23497

>  <SCORE.RESTR.CAVITY>
3.23497

>  <SCORE.RESTR.norm>
0.104354

>  <SCORE.SYSTEM>
0

>  <SCORE.SYSTEM.CONST>
0

>  <SCORE.SYSTEM.DIHEDRAL>
0

>  <SCORE.SYSTEM.SOLV>
0

>  <SCORE.SYSTEM.norm>
0

>  <SCORE.heavy>
31

>  <SCORE.norm>
-0.0829388

>  <RMSD>
6.561

$$$$
ligand
 OpenBabel11021811493D
libRbt.so/2013.1/901 2013/11/27
 31 33  0  0  0  0  0  0  0  0999 V2000
    2.7046   20.8415   34.9920 C   0  0  2  0  0  0  0  0  0  0  0  0
    2.9492   19.4576   34.8302 O   0  0  0  0  0  0  0  0  0  0  0  0
    4.7589   16.3691   37.1207 C   0  0  2  0  0  0  0  0  0  0  0  0
    5.0692   15.5359   38.2326 N   0  0  0  0  0  0  0  0  0  0  0  0
    2.0665   14.0022   37.1727 C   0  0  2  0  0  0  0  0  0  0  0  0
    1.2174   21.0219   35.5246 C   0  0  2  0  0  0  0  0  0  0  0  0
    1.0652   20.2890   36.7768 N   0  0  0  0  0  0  0  0  0  0  0  0
    5.0760   17.8776   37.5247 C   0  0  0  0  0  0  0  0  0  0  0  0
    2.9215   12.7312   37.4969 C   0  0  2  0  0  0  0  0  0  0  0  0
    4.0848   13.1329   38.1888 O   0  0  0  0  0  0  0  0  0  0  0  0
    0.1814   20.5283   34.4489 C   0  0  0  0  0  0  0  0  0  0  0  0
    4.7462   18.8022   36.2822 C   0  0  2  0  0  0  0  0  0  0  0  0
    5.0403   20.1923   36.6326 N   0  0  0  0  0  0  0  0  0  0  0  0
    3.2919   12.0209   36.1443 C   0  0  1  0  0  0  0  0  0  0  0  0
    4.1247   10.8074   36.4242 N   0  0  0  0  0  0  0  0  0  0  0  0
    0.6193   20.9346   32.9795 C   0  0  0  0  0  0  0  0  0  0  0  0
    3.2127   18.6473   35.9196 C   0  0  2  0  0  0  0  0  0  0  0  0
    1.9193   11.5714   35.3946 C   0  0  1  0  0  0  0  0  0  0  0  0
    1.1396   10.6694   36.1547 O   0  0  0  0  0  0  0  0  0  0  0  0
    1.8679   21.3934   32.7208 C   0  0  1  0  0  0  0  0  0  0  0  0
    2.8686   21.5490   33.7231 O   0  0  0  0  0  0  0  0  0  0  0  0
    2.9024   17.1389   35.5428 C   0  0  2  0  0  0  0  0  0  0  0  0
    1.5011   17.0045   35.2285 O   0  0  0  0  0  0  0  0  0  0  0  0
    1.0549   12.8362   35.1109 C   0  0  0  0  0  0  0  0  0  0  0  0
    0.8205   13.6041   36.4003 O   0  0  0  0  0  0  0  0  0  0  0  0
    2.3261   21.7836   31.3358 C   0  0  0  0  0  0  0  0  0  0  0  0
    2.6826   23.1814   31.3985 O   0  0  0  0  0  0  0  0  0  0  0  0
    3.2384   16.2197   36.7786 C   0  0  1  0  0  0  0  0  0  0  0  0
    2.9613   14.8889   36.4191 O   0  0  0  0  0  0  0  0  0  0  0  0
    2.1295   10.8684   34.0472 C   0  0  0  0  0  0  0  0  0  0  0  0
    5.5761   11.0333   36.5854 C   0  0  0  0  0  0  0  0  0  0  0  0
  1  2  1  6  0  0  0
  1  6  1  0  0  0  0
  1 21  1  0  0  0  0
  3  4  1  1  0  0  0
  3  8  1  0  0  0  0
  3 28  1  0  0  0  0
  5  9  1  0  0  0  0
  5 25  1  0  0  0  0
  5 29  1  6  0  0  0
  6  7  1  1  0  0  0
  6 11  1  0  0  0  0
  8 12  1  0  0  0  0
  9 10  1  6  0  0  0
  9 14  1  0  0  0  0
 11 16  1  0  0  0  0
 12 13  1  1  0  0  0
 12 17  1  0  0  0  0
 14 15  1  1  0  0  0
 14 18  1  0  0  0  0
 15 31  1  0  0  0  0
 16 20  1  0  0  0  0
 17  2  1  6  0  0  0
 17 22  1  0  0  0  0
 18 19  1  1  0  0  0
 18 24  1  0  0  0  0
 18 30  1  0  0  0  0
 20 21  1  0  0  0  0
 20 26  1  6  0  0  0
 22 23  1  1  0  0  0
 22 28  1  0  0  0  0
 24 25  1  0  0  0  0
 26 27  1  0  0  0  0
 28 29  1  6  0  0  0
M  END
>  <CHROM.1>
-77.25154783,-125.14763566,-84.54270502,-82.02345773,119.15274389,116.53122301
2.76680475,16.65962001,35.57677903,-1.67514651,0.76875942,2.93608670

>  <Name>
ligand

>  <RI>
0

>  <Rbt.Current_Directory>
/home/itssahil/PROJECTS/Mol_Feturizer/New_Systems/rnas/4GPY

>  <Rbt.Executable>
rbdock ($Id: //depot/dev/client3/rdock/2013.1/src/exe/rbdock.cxx#4 $)

>  <Rbt.Library>
libRbt.so (2013.1, Build901 2013/11/27)

>  <Rbt.Parameter_File>
/export/apps/rDock/src/rDock_2013.1_src/data/scripts/dock_solv.prm

>  <Rbt.Receptor>
prm/pocket_docking_7.prm

>  <SCORE>
-10.0879

>  <SCORE.INTER>
-15.2802

>  <SCORE.INTER.CONST>
1

>  <SCORE.INTER.POLAR>
0

>  <SCORE.INTER.ROT>
6

>  <SCORE.INTER.SOLV>
16.6552

>  <SCORE.INTER.VDW>
-23.3385

>  <SCORE.INTER.norm>
-0.492909

>  <SCORE.INTRA>
5.1923

>  <SCORE.INTRA.DIHEDRAL>
5.1277

>  <SCORE.INTRA.DIHEDRAL.0>
14.7001

>  <SCORE.INTRA.POLAR>
0

>  <SCORE.INTRA.POLAR.0>
0

>  <SCORE.INTRA.REPUL>
0

>  <SCORE.INTRA.REPUL.0>
0

>  <SCORE.INTRA.SOLV>
2.9339

>  <SCORE.INTRA.SOLV.lig_0>
-65.3082

>  <SCORE.INTRA.VDW>
1.16149

>  <SCORE.INTRA.VDW.0>
-4.21408

>  <SCORE.INTRA.norm>
0.167493

>  <SCORE.RESTR>
0

>  <SCORE.RESTR.CAVITY>
0

>  <SCORE.RESTR.norm>
0

>  <SCORE.SYSTEM>
0

>  <SCORE.SYSTEM.CONST>
0

>  <SCORE.SYSTEM.DIHEDRAL>
0

>  <SCORE.SYSTEM.SOLV>
0

>  <SCORE.SYSTEM.norm>
0

>  <SCORE.heavy>
31

>  <SCORE.norm>
-0.325416

>  <RMSD>
6.586

$$$$
ligand
 OpenBabel11021811493D
libRbt.so/2013.1/901 2013/11/27
 31 33  0  0  0  0  0  0  0  0999 V2000
    1.8578   19.4088   34.4201 C   0  0  2  0  0  0  0  0  0  0  0  0
    3.1909   19.1246   34.7987 O   0  0  0  0  0  0  0  0  0  0  0  0
    5.2293   16.2896   37.2211 C   0  0  2  0  0  0  0  0  0  0  0  0
    5.5527   15.4791   38.3460 N   0  0  0  0  0  0  0  0  0  0  0  0
    2.8359   13.5623   36.8057 C   0  0  2  0  0  0  0  0  0  0  0  0
    1.4609   20.8221   35.0307 C   0  0  2  0  0  0  0  0  0  0  0  0
    2.3950   21.8325   34.5458 N   0  0  0  0  0  0  0  0  0  0  0  0
    5.2512   17.8146   37.6830 C   0  0  0  0  0  0  0  0  0  0  0  0
    3.2975   13.2585   38.2705 C   0  0  2  0  0  0  0  0  0  0  0  0
    3.3264   14.4692   38.9961 O   0  0  0  0  0  0  0  0  0  0  0  0
    1.4547   20.7631   36.6025 C   0  0  0  0  0  0  0  0  0  0  0  0
    4.9076   18.7166   36.4277 C   0  0  2  0  0  0  0  0  0  0  0  0
    4.9319   20.1229   36.8318 N   0  0  0  0  0  0  0  0  0  0  0  0
    4.7257   12.6034   38.2177 C   0  0  1  0  0  0  0  0  0  0  0  0
    5.1997   12.3155   39.6094 N   0  0  0  0  0  0  0  0  0  0  0  0
    0.8486   19.3988   37.1383 C   0  0  0  0  0  0  0  0  0  0  0  0
    3.4669   18.3300   35.8966 C   0  0  2  0  0  0  0  0  0  0  0  0
    4.6335   11.2108   37.3809 C   0  0  1  0  0  0  0  0  0  0  0  0
    3.7502   10.2707   37.9600 O   0  0  0  0  0  0  0  0  0  0  0  0
    0.6444   18.3474   36.3080 C   0  0  1  0  0  0  0  0  0  0  0  0
    0.9469   18.3783   34.9160 O   0  0  0  0  0  0  0  0  0  0  0  0
    3.4488   16.8052   35.4624 C   0  0  2  0  0  0  0  0  0  0  0  0
    2.1295   16.4584   34.9940 O   0  0  0  0  0  0  0  0  0  0  0  0
    4.1351   11.5152   35.9365 C   0  0  0  0  0  0  0  0  0  0  0  0
    2.8241   12.2803   35.9907 O   0  0  0  0  0  0  0  0  0  0  0  0
    0.0767   17.0300   36.7796 C   0  0  0  0  0  0  0  0  0  0  0  0
    0.2982   16.9728   38.2052 O   0  0  0  0  0  0  0  0  0  0  0  0
    3.7984   15.9098   36.7118 C   0  0  1  0  0  0  0  0  0  0  0  0
    3.7820   14.5651   36.3015 O   0  0  0  0  0  0  0  0  0  0  0  0
    5.9652   10.4620   37.2402 C   0  0  0  0  0  0  0  0  0  0  0  0
    5.6151   13.4836   40.4134 C   0  0  0  0  0  0  0  0  0  0  0  0
  1  2  1  1  0  0  0
  1  6  1  0  0  0  0
  1 21  1  0  0  0  0
  3  4  1  1  0  0  0
  3  8  1  0  0  0  0
  3 28  1  0  0  0  0
  5  9  1  0  0  0  0
  5 25  1  0  0  0  0
  5 29  1  6  0  0  0
  6  7  1  1  0  0  0
  6 11  1  0  0  0  0
  8 12  1  0  0  0  0
  9 10  1  1  0  0  0
  9 14  1  0  0  0  0
 11 16  1  0  0  0  0
 12 13  1  1  0  0  0
 12 17  1  0  0  0  0
 14 15  1  1  0  0  0
 14 18  1  0  0  0  0
 15 31  1  0  0  0  0
 16 20  1  0  0  0  0
 17  2  1  6  0  0  0
 17 22  1  0  0  0  0
 18 19  1  1  0  0  0
 18 24  1  0  0  0  0
 18 30  1  0  0  0  0
 20 21  1  0  0  0  0
 20 26  1  1  0  0  0
 22 23  1  1  0  0  0
 22 28  1  0  0  0  0
 24 25  1  0  0  0  0
 26 27  1  0  0  0  0
 28 29  1  6  0  0  0
M  END
>  <CHROM.1>
96.71164746,-72.60602322,-73.41325932,-155.12015681,-20.98255169,125.60714118
3.26870818,16.02403220,36.82621648,1.90508916,-0.44987642,-0.13421286

>  <Name>
ligand

>  <RI>
0

>  <Rbt.Current_Directory>
/home/itssahil/PROJECTS/Mol_Feturizer/New_Systems/rnas/4GPY

>  <Rbt.Executable>
rbdock ($Id: //depot/dev/client3/rdock/2013.1/src/exe/rbdock.cxx#4 $)

>  <Rbt.Library>
libRbt.so (2013.1, Build901 2013/11/27)

>  <Rbt.Parameter_File>
/export/apps/rDock/src/rDock_2013.1_src/data/scripts/dock_solv.prm

>  <Rbt.Receptor>
prm/blind_docking_80.prm

>  <SCORE>
6.31122

>  <SCORE.INTER>
-6.45531

>  <SCORE.INTER.CONST>
1

>  <SCORE.INTER.POLAR>
0

>  <SCORE.INTER.ROT>
6

>  <SCORE.INTER.SOLV>
18.7186

>  <SCORE.INTER.VDW>
-18.1431

>  <SCORE.INTER.norm>
-0.208236

>  <SCORE.INTRA>
12.1381

>  <SCORE.INTRA.DIHEDRAL>
2.9255

>  <SCORE.INTRA.DIHEDRAL.0>
14.7001

>  <SCORE.INTRA.POLAR>
0

>  <SCORE.INTRA.POLAR.0>
0

>  <SCORE.INTRA.REPUL>
0

>  <SCORE.INTRA.REPUL.0>
0

>  <SCORE.INTRA.SOLV>
5.91921

>  <SCORE.INTRA.SOLV.lig_0>
-65.3082

>  <SCORE.INTRA.VDW>
7.71576

>  <SCORE.INTRA.VDW.0>
-4.21408

>  <SCORE.INTRA.norm>
0.391552

>  <SCORE.RESTR>
0.628421

>  <SCORE.RESTR.CAVITY>
0.628421

>  <SCORE.RESTR.norm>
0.0202716

>  <SCORE.SYSTEM>
0

>  <SCORE.SYSTEM.CONST>
0

>  <SCORE.SYSTEM.DIHEDRAL>
0

>  <SCORE.SYSTEM.SOLV>
0

>  <SCORE.SYSTEM.norm>
0

>  <SCORE.heavy>
31

>  <SCORE.norm>
0.203588

>  <RMSD>
6.588

$$$$
ligand
 OpenBabel11021811493D
libRbt.so/2013.1/901 2013/11/27
 31 33  0  0  0  0  0  0  0  0999 V2000
   -4.2934   15.3369   40.9861 C   0  0  2  0  0  0  0  0  0  0  0  0
   -3.6447   14.6940   42.0665 O   0  0  0  0  0  0  0  0  0  0  0  0
   -2.8074   10.5999   42.8394 C   0  0  2  0  0  0  0  0  0  0  0  0
   -3.0203    9.2284   43.1563 N   0  0  0  0  0  0  0  0  0  0  0  0
   -3.7766    9.9473   39.1927 C   0  0  2  0  0  0  0  0  0  0  0  0
   -3.6283   16.7678   40.7906 C   0  0  2  0  0  0  0  0  0  0  0  0
   -2.1987   16.6023   40.5507 N   0  0  0  0  0  0  0  0  0  0  0  0
   -3.3742   11.4823   44.0393 C   0  0  0  0  0  0  0  0  0  0  0  0
   -3.1587    8.6375   38.5979 C   0  0  2  0  0  0  0  0  0  0  0  0
   -3.2978    7.6006   39.5459 O   0  0  0  0  0  0  0  0  0  0  0  0
   -3.8910   17.6759   42.0477 C   0  0  0  0  0  0  0  0  0  0  0  0
   -3.1223   13.0071   43.6938 C   0  0  2  0  0  0  0  0  0  0  0  0
   -3.6293   13.8330   44.7904 N   0  0  0  0  0  0  0  0  0  0  0  0
   -1.6428    8.9024   38.2765 C   0  0  1  0  0  0  0  0  0  0  0  0
   -1.0212    7.6584   37.7191 N   0  0  0  0  0  0  0  0  0  0  0  0
   -5.3599   17.4855   42.6151 C   0  0  0  0  0  0  0  0  0  0  0  0
   -3.8833   13.3618   42.3513 C   0  0  2  0  0  0  0  0  0  0  0  0
   -1.5407   10.0959   37.1751 C   0  0  1  0  0  0  0  0  0  0  0  0
   -2.1911    9.7874   35.9580 O   0  0  0  0  0  0  0  0  0  0  0  0
   -6.1424   16.4572   42.2066 C   0  0  1  0  0  0  0  0  0  0  0  0
   -5.7232   15.4846   41.2534 O   0  0  0  0  0  0  0  0  0  0  0  0
   -3.3293   12.4620   41.1693 C   0  0  2  0  0  0  0  0  0  0  0  0
   -4.0380   12.7816   39.9544 O   0  0  0  0  0  0  0  0  0  0  0  0
   -2.1933   11.3853   37.7576 C   0  0  0  0  0  0  0  0  0  0  0  0
   -3.6145   11.0904   38.2054 O   0  0  0  0  0  0  0  0  0  0  0  0
   -7.5425   16.2367   42.7275 C   0  0  0  0  0  0  0  0  0  0  0  0
   -8.4426   16.6495   41.6767 O   0  0  0  0  0  0  0  0  0  0  0  0
   -3.5745   10.9445   41.5188 C   0  0  1  0  0  0  0  0  0  0  0  0
   -3.0706   10.1676   40.4608 O   0  0  0  0  0  0  0  0  0  0  0  0
   -0.1088   10.4695   36.7704 C   0  0  0  0  0  0  0  0  0  0  0  0
   -0.4113    6.7364   38.6995 C   0  0  0  0  0  0  0  0  0  0  0  0
  1  2  1  1  0  0  0
  1  6  1  0  0  0  0
  1 21  1  0  0  0  0
  3  4  1  1  0  0  0
  3  8  1  0  0  0  0
  3 28  1  0  0  0  0
  5  9  1  0  0  0  0
  5 25  1  0  0  0  0
  5 29  1  1  0  0  0
  6  7  1  1  0  0  0
  6 11  1  0  0  0  0
  8 12  1  0  0  0  0
  9 10  1  1  0  0  0
  9 14  1  0  0  0  0
 11 16  1  0  0  0  0
 12 13  1  1  0  0  0
 12 17  1  0  0  0  0
 14 15  1  6  0  0  0
 14 18  1  0  0  0  0
 15 31  1  0  0  0  0
 16 20  1  0  0  0  0
 17  2  1  6  0  0  0
 17 22  1  0  0  0  0
 18 19  1  6  0  0  0
 18 24  1  0  0  0  0
 18 30  1  0  0  0  0
 20 21  1  0  0  0  0
 20 26  1  1  0  0  0
 22 23  1  6  0  0  0
 22 28  1  0  0  0  0
 24 25  1  0  0  0  0
 26 27  1  0  0  0  0
 28 29  1  6  0  0  0
M  END
>  <CHROM.1>
-170.88123534,-158.20853809,-90.57040189,-174.24512455,104.94651243,162.16532205
-3.49297218,12.36245783,40.57153386,-3.03970980,-1.17464465,2.17670966

>  <Name>
ligand

>  <RI>
0

>  <Rbt.Current_Directory>
/home/itssahil/PROJECTS/Mol_Feturizer/New_Systems/rnas/4GPY

>  <Rbt.Executable>
rbdock ($Id: //depot/dev/client3/rdock/2013.1/src/exe/rbdock.cxx#4 $)

>  <Rbt.Library>
libRbt.so (2013.1, Build901 2013/11/27)

>  <Rbt.Parameter_File>
/export/apps/rDock/src/rDock_2013.1_src/data/scripts/dock_solv.prm

>  <Rbt.Receptor>
prm/pocket_docking_6.prm

>  <SCORE>
-9.9641

>  <SCORE.INTER>
-6.68737

>  <SCORE.INTER.CONST>
1

>  <SCORE.INTER.POLAR>
0

>  <SCORE.INTER.ROT>
6

>  <SCORE.INTER.SOLV>
16.3831

>  <SCORE.INTER.VDW>
-17.5193

>  <SCORE.INTER.norm>
-0.215722

>  <SCORE.INTRA>
-3.27673

>  <SCORE.INTRA.DIHEDRAL>
-7.98959

>  <SCORE.INTRA.DIHEDRAL.0>
14.7001

>  <SCORE.INTRA.POLAR>
0

>  <SCORE.INTRA.POLAR.0>
0

>  <SCORE.INTRA.REPUL>
0

>  <SCORE.INTRA.REPUL.0>
0

>  <SCORE.INTRA.SOLV>
-2.14461

>  <SCORE.INTRA.SOLV.lig_0>
-65.3082

>  <SCORE.INTRA.VDW>
1.79037

>  <SCORE.INTRA.VDW.0>
-4.21408

>  <SCORE.INTRA.norm>
-0.105701

>  <SCORE.RESTR>
0

>  <SCORE.RESTR.CAVITY>
0

>  <SCORE.RESTR.norm>
0

>  <SCORE.SYSTEM>
0

>  <SCORE.SYSTEM.CONST>
0

>  <SCORE.SYSTEM.DIHEDRAL>
0

>  <SCORE.SYSTEM.SOLV>
0

>  <SCORE.SYSTEM.norm>
0

>  <SCORE.heavy>
31

>  <SCORE.norm>
-0.321423

>  <RMSD>
6.610

$$$$
ligand
 OpenBabel11021811493D
libRbt.so/2013.1/901 2013/11/27
 31 33  0  0  0  0  0  0  0  0999 V2000
    5.3291   19.2642   35.7741 C   0  0  2  0  0  0  0  0  0  0  0  0
    4.3707   18.6183   36.5900 O   0  0  0  0  0  0  0  0  0  0  0  0
    1.9879   15.1087   36.8459 C   0  0  2  0  0  0  0  0  0  0  0  0
    1.3725   13.8804   36.4726 N   0  0  0  0  0  0  0  0  0  0  0  0
    5.2778   13.4126   37.8965 C   0  0  2  0  0  0  0  0  0  0  0  0
    5.8885   20.5222   36.5696 C   0  0  2  0  0  0  0  0  0  0  0  0
    6.4599   20.0731   37.8346 N   0  0  0  0  0  0  0  0  0  0  0  0
    1.5617   16.2214   35.7876 C   0  0  0  0  0  0  0  0  0  0  0  0
    5.0935   11.8984   38.2492 C   0  0  2  0  0  0  0  0  0  0  0  0
    4.3086   11.2921   37.2444 O   0  0  0  0  0  0  0  0  0  0  0  0
    4.7475   21.5787   36.8059 C   0  0  0  0  0  0  0  0  0  0  0  0
    2.2332   17.5911   36.2124 C   0  0  2  0  0  0  0  0  0  0  0  0
    1.8449   18.6279   35.2553 N   0  0  0  0  0  0  0  0  0  0  0  0
    4.3873   11.7949   39.6499 C   0  0  1  0  0  0  0  0  0  0  0  0
    4.1840   10.3540   40.0063 N   0  0  0  0  0  0  0  0  0  0  0  0
    3.8024   21.7181   35.5396 C   0  0  0  0  0  0  0  0  0  0  0  0
    3.8066   17.4138   36.2109 C   0  0  2  0  0  0  0  0  0  0  0  0
    5.3362   12.4982   40.7692 C   0  0  1  0  0  0  0  0  0  0  0  0
    6.6078   11.8903   40.8825 O   0  0  0  0  0  0  0  0  0  0  0  0
    3.8477   20.8181   34.5275 C   0  0  1  0  0  0  0  0  0  0  0  0
    4.7289   19.6985   34.5136 O   0  0  0  0  0  0  0  0  0  0  0  0
    4.2185   16.2883   37.2489 C   0  0  2  0  0  0  0  0  0  0  0  0
    5.6512   16.1235   37.2300 O   0  0  0  0  0  0  0  0  0  0  0  0
    5.5486   13.9946   40.3909 C   0  0  0  0  0  0  0  0  0  0  0  0
    6.0947   14.0997   38.9774 O   0  0  0  0  0  0  0  0  0  0  0  0
    2.9605   20.9110   33.3090 C   0  0  0  0  0  0  0  0  0  0  0  0
    3.8323   21.1420   32.1815 O   0  0  0  0  0  0  0  0  0  0  0  0
    3.5429   14.9275   36.8282 C   0  0  1  0  0  0  0  0  0  0  0  0
    3.9173   13.9481   37.7649 O   0  0  0  0  0  0  0  0  0  0  0  0
    4.7646   12.4792   42.1929 C   0  0  0  0  0  0  0  0  0  0  0  0
    2.8174    9.8220   39.8250 C   0  0  0  0  0  0  0  0  0  0  0  0
  1  2  1  1  0  0  0
  1  6  1  0  0  0  0
  1 21  1  0  0  0  0
  3  4  1  6  0  0  0
  3  8  1  0  0  0  0
  3 28  1  0  0  0  0
  5  9  1  0  0  0  0
  5 25  1  0  0  0  0
  5 29  1  1  0  0  0
  6  7  1  1  0  0  0
  6 11  1  0  0  0  0
  8 12  1  0  0  0  0
  9 10  1  6  0  0  0
  9 14  1  0  0  0  0
 11 16  1  0  0  0  0
 12 13  1  6  0  0  0
 12 17  1  0  0  0  0
 14 15  1  1  0  0  0
 14 18  1  0  0  0  0
 15 31  1  0  0  0  0
 16 20  1  0  0  0  0
 17  2  1  1  0  0  0
 17 22  1  0  0  0  0
 18 19  1  1  0  0  0
 18 24  1  0  0  0  0
 18 30  1  0  0  0  0
 20 21  1  0  0  0  0
 20 26  1  1  0  0  0
 22 23  1  6  0  0  0
 22 28  1  0  0  0  0
 24 25  1  0  0  0  0
 26 27  1  0  0  0  0
 28 29  1  1  0  0  0
M  END
>  <CHROM.1>
-173.67430705,-143.79635326,-102.38209012,-124.68987798,115.16915213,172.30463006
4.23129540,16.04574240,37.27460278,-1.65017709,0.71523022,2.68560405

>  <Name>
ligand

>  <RI>
0

>  <Rbt.Current_Directory>
/home/itssahil/PROJECTS/Mol_Feturizer/New_Systems/rnas/4GPY

>  <Rbt.Executable>
rbdock ($Id: //depot/dev/client3/rdock/2013.1/src/exe/rbdock.cxx#4 $)

>  <Rbt.Library>
libRbt.so (2013.1, Build901 2013/11/27)

>  <Rbt.Parameter_File>
/export/apps/rDock/src/rDock_2013.1_src/data/scripts/dock_solv.prm

>  <Rbt.Receptor>
prm/pocket_docking_8.prm

>  <SCORE>
-12.2998

>  <SCORE.INTER>
-13.3218

>  <SCORE.INTER.CONST>
1

>  <SCORE.INTER.POLAR>
0

>  <SCORE.INTER.ROT>
6

>  <SCORE.INTER.SOLV>
18.2829

>  <SCORE.INTER.VDW>
-22.5755

>  <SCORE.INTER.norm>
-0.429735

>  <SCORE.INTRA>
1.02198

>  <SCORE.INTRA.DIHEDRAL>
0.303361

>  <SCORE.INTRA.DIHEDRAL.0>
14.7001

>  <SCORE.INTRA.POLAR>
0

>  <SCORE.INTRA.POLAR.0>
0

>  <SCORE.INTRA.REPUL>
0

>  <SCORE.INTRA.REPUL.0>
0

>  <SCORE.INTRA.SOLV>
1.06184

>  <SCORE.INTRA.SOLV.lig_0>
-65.3082

>  <SCORE.INTRA.VDW>
0.339374

>  <SCORE.INTRA.VDW.0>
-4.21408

>  <SCORE.INTRA.norm>
0.0329669

>  <SCORE.RESTR>
0

>  <SCORE.RESTR.CAVITY>
0

>  <SCORE.RESTR.norm>
0

>  <SCORE.SYSTEM>
0

>  <SCORE.SYSTEM.CONST>
0

>  <SCORE.SYSTEM.DIHEDRAL>
0

>  <SCORE.SYSTEM.SOLV>
0

>  <SCORE.SYSTEM.norm>
0

>  <SCORE.heavy>
31

>  <SCORE.norm>
-0.396768

>  <RMSD>
6.617

$$$$
ligand
 OpenBabel11021811493D
libRbt.so/2013.1/901 2013/11/27
 31 33  0  0  0  0  0  0  0  0999 V2000
    2.5357   19.5830   33.9671 C   0  0  2  0  0  0  0  0  0  0  0  0
    2.3692   19.7026   35.3668 O   0  0  0  0  0  0  0  0  0  0  0  0
    4.8538   16.5245   36.7034 C   0  0  2  0  0  0  0  0  0  0  0  0
    5.4612   15.5793   37.5777 N   0  0  0  0  0  0  0  0  0  0  0  0
    2.1652   14.0080   36.8158 C   0  0  2  0  0  0  0  0  0  0  0  0
    3.5172   20.7374   33.4853 C   0  0  2  0  0  0  0  0  0  0  0  0
    4.7838   20.6178   34.1996 N   0  0  0  0  0  0  0  0  0  0  0  0
    5.1475   17.9856   37.2675 C   0  0  0  0  0  0  0  0  0  0  0  0
    2.7474   13.8142   38.2562 C   0  0  2  0  0  0  0  0  0  0  0  0
    2.8154   15.0739   38.8900 O   0  0  0  0  0  0  0  0  0  0  0  0
    2.8658   22.1499   33.7185 C   0  0  0  0  0  0  0  0  0  0  0  0
    4.4857   19.0372   36.2858 C   0  0  2  0  0  0  0  0  0  0  0  0
    4.7533   20.3869   36.7842 N   0  0  0  0  0  0  0  0  0  0  0  0
    4.1767   13.1711   38.1341 C   0  0  1  0  0  0  0  0  0  0  0  0
    4.7651   12.9882   39.4997 N   0  0  0  0  0  0  0  0  0  0  0  0
    1.3164   22.1471   33.3791 C   0  0  0  0  0  0  0  0  0  0  0  0
    2.9245   18.7784   36.2330 C   0  0  2  0  0  0  0  0  0  0  0  0
    4.0395   11.7214   37.4078 C   0  0  1  0  0  0  0  0  0  0  0  0
    3.2201   10.8165   38.1213 O   0  0  0  0  0  0  0  0  0  0  0  0
    0.6408   20.9873   33.1922 C   0  0  1  0  0  0  0  0  0  0  0  0
    1.2508   19.7026   33.2798 O   0  0  0  0  0  0  0  0  0  0  0  0
    2.6434   17.3142   35.6937 C   0  0  2  0  0  0  0  0  0  0  0  0
    1.2201   17.0825   35.6629 O   0  0  0  0  0  0  0  0  0  0  0  0
    3.4223   11.9169   35.9906 C   0  0  0  0  0  0  0  0  0  0  0  0
    2.1081   12.6710   36.0968 O   0  0  0  0  0  0  0  0  0  0  0  0
   -0.8349   20.9413   32.8750 C   0  0  0  0  0  0  0  0  0  0  0  0
   -1.5290   20.9562   34.1410 O   0  0  0  0  0  0  0  0  0  0  0  0
    3.3094   16.2696   36.6685 C   0  0  1  0  0  0  0  0  0  0  0  0
    3.0522   14.9814   36.1672 O   0  0  0  0  0  0  0  0  0  0  0  0
    5.3672   10.9776   37.2128 C   0  0  0  0  0  0  0  0  0  0  0  0
    6.0781   13.6232   39.7365 C   0  0  0  0  0  0  0  0  0  0  0  0
  1  2  1  1  0  0  0
  1  6  1  0  0  0  0
  1 21  1  0  0  0  0
  3  4  1  1  0  0  0
  3  8  1  0  0  0  0
  3 28  1  0  0  0  0
  5  9  1  0  0  0  0
  5 25  1  0  0  0  0
  5 29  1  6  0  0  0
  6  7  1  1  0  0  0
  6 11  1  0  0  0  0
  8 12  1  0  0  0  0
  9 10  1  6  0  0  0
  9 14  1  0  0  0  0
 11 16  1  0  0  0  0
 12 13  1  1  0  0  0
 12 17  1  0  0  0  0
 14 15  1  1  0  0  0
 14 18  1  0  0  0  0
 15 31  1  0  0  0  0
 16 20  1  0  0  0  0
 17  2  1  6  0  0  0
 17 22  1  0  0  0  0
 18 19  1  1  0  0  0
 18 24  1  0  0  0  0
 18 30  1  0  0  0  0
 20 21  1  0  0  0  0
 20 26  1  1  0  0  0
 22 23  1  1  0  0  0
 22 28  1  0  0  0  0
 24 25  1  0  0  0  0
 26 27  1  0  0  0  0
 28 29  1  6  0  0  0
M  END
>  <CHROM.1>
-109.11258313,-57.38501788,-123.88854276,73.75885640,-86.81710978,130.36994236
3.04773928,16.82095514,36.09446226,-1.86931613,0.48579814,2.83347671

>  <Name>
ligand

>  <RI>
0

>  <Rbt.Current_Directory>
/home/itssahil/PROJECTS/Mol_Feturizer/New_Systems/rnas/4GPY

>  <Rbt.Executable>
rbdock ($Id: //depot/dev/client3/rdock/2013.1/src/exe/rbdock.cxx#4 $)

>  <Rbt.Library>
libRbt.so (2013.1, Build901 2013/11/27)

>  <Rbt.Parameter_File>
/export/apps/rDock/src/rDock_2013.1_src/data/scripts/dock_solv.prm

>  <Rbt.Receptor>
prm/blind_docking_80.prm

>  <SCORE>
3.03679

>  <SCORE.INTER>
-8.81023

>  <SCORE.INTER.CONST>
1

>  <SCORE.INTER.POLAR>
0

>  <SCORE.INTER.ROT>
6

>  <SCORE.INTER.SOLV>
17.2851

>  <SCORE.INTER.VDW>
-19.2352

>  <SCORE.INTER.norm>
-0.284201

>  <SCORE.INTRA>
9.59342

>  <SCORE.INTRA.DIHEDRAL>
3.52291

>  <SCORE.INTRA.DIHEDRAL.0>
14.7001

>  <SCORE.INTRA.POLAR>
0

>  <SCORE.INTRA.POLAR.0>
0

>  <SCORE.INTRA.REPUL>
0

>  <SCORE.INTRA.REPUL.0>
0

>  <SCORE.INTRA.SOLV>
7.90907

>  <SCORE.INTRA.SOLV.lig_0>
-65.3082

>  <SCORE.INTRA.VDW>
3.87743

>  <SCORE.INTRA.VDW.0>
-4.21408

>  <SCORE.INTRA.norm>
0.309465

>  <SCORE.RESTR>
2.2536

>  <SCORE.RESTR.CAVITY>
2.2536

>  <SCORE.RESTR.norm>
0.0726969

>  <SCORE.SYSTEM>
0

>  <SCORE.SYSTEM.CONST>
0

>  <SCORE.SYSTEM.DIHEDRAL>
0

>  <SCORE.SYSTEM.SOLV>
0

>  <SCORE.SYSTEM.norm>
0

>  <SCORE.heavy>
31

>  <SCORE.norm>
0.0979611

>  <RMSD>
6.620

$$$$
ligand
 OpenBabel11021811493D
libRbt.so/2013.1/901 2013/11/27
 31 33  0  0  0  0  0  0  0  0999 V2000
    2.5489   20.9127   34.8445 C   0  0  2  0  0  0  0  0  0  0  0  0
    2.7919   19.5272   34.6942 O   0  0  0  0  0  0  0  0  0  0  0  0
    4.7426   16.4933   36.9415 C   0  0  2  0  0  0  0  0  0  0  0  0
    5.1157   15.6815   38.0499 N   0  0  0  0  0  0  0  0  0  0  0  0
    2.0292   14.1228   37.1319 C   0  0  2  0  0  0  0  0  0  0  0  0
    1.0853   21.0966   35.4379 C   0  0  2  0  0  0  0  0  0  0  0  0
    0.9902   20.3832   36.7070 N   0  0  0  0  0  0  0  0  0  0  0  0
    5.0649   18.0111   37.3047 C   0  0  0  0  0  0  0  0  0  0  0  0
    2.8768   12.8538   37.4814 C   0  0  2  0  0  0  0  0  0  0  0  0
    4.0458   13.2630   38.1591 O   0  0  0  0  0  0  0  0  0  0  0  0
    0.0059   20.5823   34.4159 C   0  0  0  0  0  0  0  0  0  0  0  0
    4.6650   18.9119   36.0653 C   0  0  2  0  0  0  0  0  0  0  0  0
    4.9628   20.3102   36.3781 N   0  0  0  0  0  0  0  0  0  0  0  0
    3.2365   12.1102   36.1438 C   0  0  1  0  0  0  0  0  0  0  0  0
    4.0623   10.8977   36.4478 N   0  0  0  0  0  0  0  0  0  0  0  0
    0.3784   20.9666   32.9227 C   0  0  0  0  0  0  0  0  0  0  0  0
    3.1169   18.7376   35.7822 C   0  0  2  0  0  0  0  0  0  0  0  0
    1.8577   11.6532   35.4104 C   0  0  1  0  0  0  0  0  0  0  0  0
    1.0751   10.7742   36.1942 O   0  0  0  0  0  0  0  0  0  0  0  0
    1.6128   21.4255   32.6031 C   0  0  1  0  0  0  0  0  0  0  0  0
    2.6551   21.6004   33.5587 O   0  0  0  0  0  0  0  0  0  0  0  0
    2.8027   17.2204   35.4458 C   0  0  2  0  0  0  0  0  0  0  0  0
    1.3889   17.0685   35.2039 O   0  0  0  0  0  0  0  0  0  0  0  0
    1.0006   12.9172   35.1015 C   0  0  0  0  0  0  0  0  0  0  0  0
    0.7771   13.7159   36.3740 O   0  0  0  0  0  0  0  0  0  0  0  0
    2.0093   21.7950   31.1936 C   0  0  0  0  0  0  0  0  0  0  0  0
    2.3085   23.2075   31.2069 O   0  0  0  0  0  0  0  0  0  0  0  0
    3.2085   16.3249   36.6781 C   0  0  1  0  0  0  0  0  0  0  0  0
    2.9267   14.9860   36.3544 O   0  0  0  0  0  0  0  0  0  0  0  0
    2.0571   10.9183   34.0785 C   0  0  0  0  0  0  0  0  0  0  0  0
    5.5218   11.1077   36.5435 C   0  0  0  0  0  0  0  0  0  0  0  0
  1  2  1  6  0  0  0
  1  6  1  0  0  0  0
  1 21  1  0  0  0  0
  3  4  1  1  0  0  0
  3  8  1  0  0  0  0
  3 28  1  0  0  0  0
  5  9  1  0  0  0  0
  5 25  1  0  0  0  0
  5 29  1  6  0  0  0
  6  7  1  1  0  0  0
  6 11  1  0  0  0  0
  8 12  1  0  0  0  0
  9 10  1  6  0  0  0
  9 14  1  0  0  0  0
 11 16  1  0  0  0  0
 12 13  1  1  0  0  0
 12 17  1  0  0  0  0
 14 15  1  1  0  0  0
 14 18  1  0  0  0  0
 15 31  1  0  0  0  0
 16 20  1  0  0  0  0
 17  2  1  6  0  0  0
 17 22  1  0  0  0  0
 18 19  1  1  0  0  0
 18 24  1  0  0  0  0
 18 30  1  0  0  0  0
 20 21  1  0  0  0  0
 20 26  1  6  0  0  0
 22 23  1  1  0  0  0
 22 28  1  0  0  0  0
 24 25  1  0  0  0  0
 26 27  1  0  0  0  0
 28 29  1  6  0  0  0
M  END
>  <CHROM.1>
-77.82501388,-125.52028325,-86.93568645,-81.70819730,116.80724531,119.50943141
2.66239008,16.74444111,35.49118264,-1.69664816,0.73202298,2.93392036

>  <Name>
ligand

>  <RI>
0

>  <Rbt.Current_Directory>
/home/itssahil/PROJECTS/Mol_Feturizer/New_Systems/rnas/4GPY

>  <Rbt.Executable>
rbdock ($Id: //depot/dev/client3/rdock/2013.1/src/exe/rbdock.cxx#4 $)

>  <Rbt.Library>
libRbt.so (2013.1, Build901 2013/11/27)

>  <Rbt.Parameter_File>
/export/apps/rDock/src/rDock_2013.1_src/data/scripts/dock_solv.prm

>  <Rbt.Receptor>
prm/pocket_docking_8.prm

>  <SCORE>
-10.2051

>  <SCORE.INTER>
-15.2476

>  <SCORE.INTER.CONST>
1

>  <SCORE.INTER.POLAR>
0

>  <SCORE.INTER.ROT>
6

>  <SCORE.INTER.SOLV>
16.7435

>  <SCORE.INTER.VDW>
-23.3463

>  <SCORE.INTER.norm>
-0.491859

>  <SCORE.INTRA>
5.04255

>  <SCORE.INTRA.DIHEDRAL>
5.28355

>  <SCORE.INTRA.DIHEDRAL.0>
14.7001

>  <SCORE.INTRA.POLAR>
0

>  <SCORE.INTRA.POLAR.0>
0

>  <SCORE.INTRA.REPUL>
0

>  <SCORE.INTRA.REPUL.0>
0

>  <SCORE.INTRA.SOLV>
2.8296

>  <SCORE.INTRA.SOLV.lig_0>
-65.3082

>  <SCORE.INTRA.VDW>
0.985969

>  <SCORE.INTRA.VDW.0>
-4.21408

>  <SCORE.INTRA.norm>
0.162663

>  <SCORE.RESTR>
0

>  <SCORE.RESTR.CAVITY>
0

>  <SCORE.RESTR.norm>
0

>  <SCORE.SYSTEM>
0

>  <SCORE.SYSTEM.CONST>
0

>  <SCORE.SYSTEM.DIHEDRAL>
0

>  <SCORE.SYSTEM.SOLV>
0

>  <SCORE.SYSTEM.norm>
0

>  <SCORE.heavy>
31

>  <SCORE.norm>
-0.329196

>  <RMSD>
6.632

$$$$
ligand
 OpenBabel11021811493D
libRbt.so/2013.1/901 2013/11/27
 31 33  0  0  0  0  0  0  0  0999 V2000
    1.1203   20.4219   33.7982 C   0  0  2  0  0  0  0  0  0  0  0  0
    2.4386   19.9215   33.9113 O   0  0  0  0  0  0  0  0  0  0  0  0
    4.3047   16.9906   36.3583 C   0  0  2  0  0  0  0  0  0  0  0  0
    4.7778   16.3286   37.5265 N   0  0  0  0  0  0  0  0  0  0  0  0
    2.1281   14.9811   37.6718 C   0  0  2  0  0  0  0  0  0  0  0  0
    1.2003   21.8993   33.2159 C   0  0  2  0  0  0  0  0  0  0  0  0
    1.8871   21.8700   31.9290 N   0  0  0  0  0  0  0  0  0  0  0  0
    4.9565   18.4441   36.3108 C   0  0  0  0  0  0  0  0  0  0  0  0
    0.9360   13.9936   37.4368 C   0  0  2  0  0  0  0  0  0  0  0  0
    1.1540   13.3013   36.2259 O   0  0  0  0  0  0  0  0  0  0  0  0
    1.9337   22.8536   34.2286 C   0  0  0  0  0  0  0  0  0  0  0  0
    4.4428   19.1739   35.0027 C   0  0  2  0  0  0  0  0  0  0  0  0
    5.0391   20.5088   34.9378 N   0  0  0  0  0  0  0  0  0  0  0  0
   -0.3962   14.8259   37.3738 C   0  0  1  0  0  0  0  0  0  0  0  0
   -1.5540   13.9060   37.1338 N   0  0  0  0  0  0  0  0  0  0  0  0
    1.5234   22.5465   35.7297 C   0  0  0  0  0  0  0  0  0  0  0  0
    2.8647   19.2875   35.0642 C   0  0  2  0  0  0  0  0  0  0  0  0
   -0.6029   15.5936   38.7936 C   0  0  1  0  0  0  0  0  0  0  0  0
   -0.6984   14.7115   39.8946 O   0  0  0  0  0  0  0  0  0  0  0  0
    0.8485   21.4175   36.0561 C   0  0  1  0  0  0  0  0  0  0  0  0
    0.4570   20.4353   35.1011 O   0  0  0  0  0  0  0  0  0  0  0  0
    2.2270   17.8377   35.1357 C   0  0  2  0  0  0  0  0  0  0  0  0
    0.7909   17.9515   35.2063 O   0  0  0  0  0  0  0  0  0  0  0  0
    0.6063   16.5446   39.0406 C   0  0  0  0  0  0  0  0  0  0  0  0
    1.9062   15.7636   38.9548 O   0  0  0  0  0  0  0  0  0  0  0  0
    0.4461   21.0850   37.4730 C   0  0  0  0  0  0  0  0  0  0  0  0
   -0.5378   22.0672   37.8630 O   0  0  0  0  0  0  0  0  0  0  0  0
    2.7455   17.1105   36.4347 C   0  0  1  0  0  0  0  0  0  0  0  0
    2.1722   15.8272   36.4730 O   0  0  0  0  0  0  0  0  0  0  0  0
   -1.8682   16.4577   38.8730 C   0  0  0  0  0  0  0  0  0  0  0  0
   -1.6618   12.7413   38.0368 C   0  0  0  0  0  0  0  0  0  0  0  0
  1  2  1  1  0  0  0
  1  6  1  0  0  0  0
  1 21  1  0  0  0  0
  3  4  1  1  0  0  0
  3  8  1  0  0  0  0
  3 28  1  0  0  0  0
  5  9  1  0  0  0  0
  5 25  1  0  0  0  0
  5 29  1  6  0  0  0
  6  7  1  6  0  0  0
  6 11  1  0  0  0  0
  8 12  1  0  0  0  0
  9 10  1  6  0  0  0
  9 14  1  0  0  0  0
 11 16  1  0  0  0  0
 12 13  1  1  0  0  0
 12 17  1  0  0  0  0
 14 15  1  1  0  0  0
 14 18  1  0  0  0  0
 15 31  1  0  0  0  0
 16 20  1  0  0  0  0
 17  2  1  6  0  0  0
 17 22  1  0  0  0  0
 18 19  1  1  0  0  0
 18 24  1  0  0  0  0
 18 30  1  0  0  0  0
 20 21  1  0  0  0  0
 20 26  1  1  0  0  0
 22 23  1  1  0  0  0
 22 28  1  0  0  0  0
 24 25  1  0  0  0  0
 26 27  1  0  0  0  0
 28 29  1  6  0  0  0
M  END
>  <CHROM.1>
132.99996502,156.78491274,51.23637816,-166.44585266,66.82234454,77.89113637
1.43238874,17.93914575,36.38668719,1.29466825,0.38468576,-0.37101378

>  <Name>
ligand

>  <RI>
0

>  <Rbt.Current_Directory>
/home/itssahil/PROJECTS/Mol_Feturizer/New_Systems/rnas/4GPY

>  <Rbt.Executable>
rbdock ($Id: //depot/dev/client3/rdock/2013.1/src/exe/rbdock.cxx#4 $)

>  <Rbt.Library>
libRbt.so (2013.1, Build901 2013/11/27)

>  <Rbt.Parameter_File>
/export/apps/rDock/src/rDock_2013.1_src/data/scripts/dock_solv.prm

>  <Rbt.Receptor>
prm/blind_docking_60.prm

>  <SCORE>
19.3013

>  <SCORE.INTER>
-4.23917

>  <SCORE.INTER.CONST>
1

>  <SCORE.INTER.POLAR>
0

>  <SCORE.INTER.ROT>
6

>  <SCORE.INTER.SOLV>
19.6677

>  <SCORE.INTER.VDW>
-16.982

>  <SCORE.INTER.norm>
-0.136747

>  <SCORE.INTRA>
3.46731

>  <SCORE.INTRA.DIHEDRAL>
-0.0117014

>  <SCORE.INTRA.DIHEDRAL.0>
14.7001

>  <SCORE.INTRA.POLAR>
0

>  <SCORE.INTRA.POLAR.0>
0

>  <SCORE.INTRA.REPUL>
0

>  <SCORE.INTRA.REPUL.0>
0

>  <SCORE.INTRA.SOLV>
0.0848466

>  <SCORE.INTRA.SOLV.lig_0>
-65.3082

>  <SCORE.INTRA.VDW>
3.43074

>  <SCORE.INTRA.VDW.0>
-4.21408

>  <SCORE.INTRA.norm>
0.111849

>  <SCORE.RESTR>
20.0731

>  <SCORE.RESTR.CAVITY>
20.0731

>  <SCORE.RESTR.norm>
0.647521

>  <SCORE.SYSTEM>
0

>  <SCORE.SYSTEM.CONST>
0

>  <SCORE.SYSTEM.DIHEDRAL>
0

>  <SCORE.SYSTEM.SOLV>
0

>  <SCORE.SYSTEM.norm>
0

>  <SCORE.heavy>
31

>  <SCORE.norm>
0.622622

>  <RMSD>
6.633

$$$$
ligand
 OpenBabel11021811493D
libRbt.so/2013.1/901 2013/11/27
 31 33  0  0  0  0  0  0  0  0999 V2000
   -1.8272   10.3878   36.3108 C   0  0  2  0  0  0  0  0  0  0  0  0
   -0.5150   10.9159   36.3398 O   0  0  0  0  0  0  0  0  0  0  0  0
    1.2502   14.6126   37.4704 C   0  0  2  0  0  0  0  0  0  0  0  0
    1.5155   16.0107   37.5100 N   0  0  0  0  0  0  0  0  0  0  0  0
   -0.4297   16.2210   39.6104 C   0  0  2  0  0  0  0  0  0  0  0  0
   -1.7492    8.8477   36.6982 C   0  0  2  0  0  0  0  0  0  0  0  0
   -1.1349    8.7158   38.0149 N   0  0  0  0  0  0  0  0  0  0  0  0
    1.4818   14.1036   35.9781 C   0  0  0  0  0  0  0  0  0  0  0  0
   -0.5802   16.2091   41.1687 C   0  0  2  0  0  0  0  0  0  0  0  0
    0.4592   15.4270   41.7177 O   0  0  0  0  0  0  0  0  0  0  0  0
   -0.9420    8.0450   35.6127 C   0  0  0  0  0  0  0  0  0  0  0  0
    1.2026   12.5454   35.9381 C   0  0  2  0  0  0  0  0  0  0  0  0
    1.4194   12.0584   34.5751 N   0  0  0  0  0  0  0  0  0  0  0  0
   -1.9859   15.6046   41.5295 C   0  0  1  0  0  0  0  0  0  0  0  0
   -2.1510   15.5669   43.0180 N   0  0  0  0  0  0  0  0  0  0  0  0
   -1.2753    8.5421   34.1438 C   0  0  0  0  0  0  0  0  0  0  0  0
   -0.2958   12.2809   36.3763 C   0  0  2  0  0  0  0  0  0  0  0  0
   -3.1440   16.5471   40.8825 C   0  0  1  0  0  0  0  0  0  0  0  0
   -3.1116   17.8770   41.3617 O   0  0  0  0  0  0  0  0  0  0  0  0
   -1.9541    9.6954   33.9302 C   0  0  1  0  0  0  0  0  0  0  0  0
   -2.4174   10.5379   34.9817 O   0  0  0  0  0  0  0  0  0  0  0  0
   -0.5225   12.8125   37.8527 C   0  0  2  0  0  0  0  0  0  0  0  0
   -1.8930   12.5807   38.2377 O   0  0  0  0  0  0  0  0  0  0  0  0
   -2.9643   16.5871   39.3353 C   0  0  0  0  0  0  0  0  0  0  0  0
   -1.5538   17.0315   38.9884 O   0  0  0  0  0  0  0  0  0  0  0  0
   -2.2847   10.2068   32.5483 C   0  0  0  0  0  0  0  0  0  0  0  0
   -1.8285   11.5757   32.4957 O   0  0  0  0  0  0  0  0  0  0  0  0
   -0.2368   14.3623   37.8917 C   0  0  1  0  0  0  0  0  0  0  0  0
   -0.4382   14.8088   39.2096 O   0  0  0  0  0  0  0  0  0  0  0  0
   -4.5774   16.0695   41.1486 C   0  0  0  0  0  0  0  0  0  0  0  0
   -2.2705   14.2268   43.6290 C   0  0  0  0  0  0  0  0  0  0  0  0
  1  2  1  6  0  0  0
  1  6  1  0  0  0  0
  1 21  1  0  0  0  0
  3  4  1  6  0  0  0
  3  8  1  0  0  0  0
  3 28  1  0  0  0  0
  5  9  1  0  0  0  0
  5 25  1  0  0  0  0
  5 29  1  6  0  0  0
  6  7  1  1  0  0  0
  6 11  1  0  0  0  0
  8 12  1  0  0  0  0
  9 10  1  1  0  0  0
  9 14  1  0  0  0  0
 11 16  1  0  0  0  0
 12 13  1  6  0  0  0
 12 17  1  0  0  0  0
 14 15  1  1  0  0  0
 14 18  1  0  0  0  0
 15 31  1  0  0  0  0
 16 20  1  0  0  0  0
 17  2  1  1  0  0  0
 17 22  1  0  0  0  0
 18 19  1  1  0  0  0
 18 24  1  0  0  0  0
 18 30  1  0  0  0  0
 20 21  1  0  0  0  0
 20 26  1  6  0  0  0
 22 23  1  6  0  0  0
 22 28  1  0  0  0  0
 24 25  1  0  0  0  0
 26 27  1  0  0  0  0
 28 29  1  1  0  0  0
M  END
>  <CHROM.1>
-163.68596739,-175.61900149,-115.75931154,-162.11478071,-128.35435191,69.33694632
-1.14497041,13.27835290,37.89971248,1.44763283,-0.84875418,-2.41988346

>  <Name>
ligand

>  <RI>
0

>  <Rbt.Current_Directory>
/home/itssahil/PROJECTS/Mol_Feturizer/New_Systems/rnas/4GPY

>  <Rbt.Executable>
rbdock ($Id: //depot/dev/client3/rdock/2013.1/src/exe/rbdock.cxx#4 $)

>  <Rbt.Library>
libRbt.so (2013.1, Build901 2013/11/27)

>  <Rbt.Parameter_File>
/export/apps/rDock/src/rDock_2013.1_src/data/scripts/dock_solv.prm

>  <Rbt.Receptor>
prm/pocket_docking_6.prm

>  <SCORE>
-7.20368

>  <SCORE.INTER>
-3.41886

>  <SCORE.INTER.CONST>
1

>  <SCORE.INTER.POLAR>
0

>  <SCORE.INTER.ROT>
6

>  <SCORE.INTER.SOLV>
10.6446

>  <SCORE.INTER.VDW>
-13.4274

>  <SCORE.INTER.norm>
-0.110286

>  <SCORE.INTRA>
-3.78482

>  <SCORE.INTRA.DIHEDRAL>
-8.51906

>  <SCORE.INTRA.DIHEDRAL.0>
14.7001

>  <SCORE.INTRA.POLAR>
0

>  <SCORE.INTRA.POLAR.0>
0

>  <SCORE.INTRA.REPUL>
0

>  <SCORE.INTRA.REPUL.0>
0

>  <SCORE.INTRA.SOLV>
-0.275972

>  <SCORE.INTRA.SOLV.lig_0>
-65.3082

>  <SCORE.INTRA.VDW>
0.612695

>  <SCORE.INTRA.VDW.0>
-4.21408

>  <SCORE.INTRA.norm>
-0.122091

>  <SCORE.RESTR>
0

>  <SCORE.RESTR.CAVITY>
0

>  <SCORE.RESTR.norm>
0

>  <SCORE.SYSTEM>
0

>  <SCORE.SYSTEM.CONST>
0

>  <SCORE.SYSTEM.DIHEDRAL>
0

>  <SCORE.SYSTEM.SOLV>
0

>  <SCORE.SYSTEM.norm>
0

>  <SCORE.heavy>
31

>  <SCORE.norm>
-0.232377

>  <RMSD>
6.635

$$$$
ligand
 OpenBabel11021811493D
libRbt.so/2013.1/901 2013/11/27
 31 33  0  0  0  0  0  0  0  0999 V2000
    3.1472   20.3023   33.7732 C   0  0  2  0  0  0  0  0  0  0  0  0
    3.5226   20.6970   35.0788 O   0  0  0  0  0  0  0  0  0  0  0  0
    4.4438   16.9667   36.8944 C   0  0  2  0  0  0  0  0  0  0  0  0
    4.6631   15.9908   37.9075 N   0  0  0  0  0  0  0  0  0  0  0  0
    0.6491   16.5394   36.4856 C   0  0  2  0  0  0  0  0  0  0  0  0
    3.5195   21.4816   32.7738 C   0  0  2  0  0  0  0  0  0  0  0  0
    4.9484   21.7592   32.8722 N   0  0  0  0  0  0  0  0  0  0  0  0
    5.4382   18.1849   37.1524 C   0  0  0  0  0  0  0  0  0  0  0  0
    0.0537   17.1512   37.7980 C   0  0  2  0  0  0  0  0  0  0  0  0
    0.7363   18.3528   38.0872 O   0  0  0  0  0  0  0  0  0  0  0  0
    2.6689   22.7656   33.0927 C   0  0  0  0  0  0  0  0  0  0  0  0
    5.2053   19.2627   36.0159 C   0  0  2  0  0  0  0  0  0  0  0  0
    6.1177   20.3863   36.2321 N   0  0  0  0  0  0  0  0  0  0  0  0
    0.2364   16.1098   38.9614 C   0  0  1  0  0  0  0  0  0  0  0  0
   -0.3118   16.6763   40.2354 N   0  0  0  0  0  0  0  0  0  0  0  0
    1.1710   22.4019   33.4669 C   0  0  0  0  0  0  0  0  0  0  0  0
    3.7044   19.7627   36.0822 C   0  0  2  0  0  0  0  0  0  0  0  0
   -0.5758   14.7516   38.5821 C   0  0  1  0  0  0  0  0  0  0  0  0
   -1.9630   14.9629   38.4076 O   0  0  0  0  0  0  0  0  0  0  0  0
    0.8053   21.1253   33.7375 C   0  0  1  0  0  0  0  0  0  0  0  0
    1.7128   20.0273   33.7069 O   0  0  0  0  0  0  0  0  0  0  0  0
    2.7230   18.5396   35.8485 C   0  0  2  0  0  0  0  0  0  0  0  0
    1.3588   19.0015   35.9251 O   0  0  0  0  0  0  0  0  0  0  0  0
   -0.0054   14.1698   37.2541 C   0  0  0  0  0  0  0  0  0  0  0  0
   -0.0463   15.2275   36.1647 O   0  0  0  0  0  0  0  0  0  0  0  0
   -0.6076   20.7388   34.1046 C   0  0  0  0  0  0  0  0  0  0  0  0
   -0.5435   19.3961   34.6316 O   0  0  0  0  0  0  0  0  0  0  0  0
    2.9618   17.4648   36.9767 C   0  0  1  0  0  0  0  0  0  0  0  0
    2.0861   16.3893   36.7454 O   0  0  0  0  0  0  0  0  0  0  0  0
   -0.4782   13.6363   39.6311 C   0  0  0  0  0  0  0  0  0  0  0  0
   -1.7407   17.0528   40.2221 C   0  0  0  0  0  0  0  0  0  0  0  0
  1  2  1  1  0  0  0
  1  6  1  0  0  0  0
  1 21  1  0  0  0  0
  3  4  1  1  0  0  0
  3  8  1  0  0  0  0
  3 28  1  0  0  0  0
  5  9  1  0  0  0  0
  5 25  1  0  0  0  0
  5 29  1  1  0  0  0
  6  7  1  1  0  0  0
  6 11  1  0  0  0  0
  8 12  1  0  0  0  0
  9 10  1  1  0  0  0
  9 14  1  0  0  0  0
 11 16  1  0  0  0  0
 12 13  1  1  0  0  0
 12 17  1  0  0  0  0
 14 15  1  1  0  0  0
 14 18  1  0  0  0  0
 15 31  1  0  0  0  0
 16 20  1  0  0  0  0
 17  2  1  6  0  0  0
 17 22  1  0  0  0  0
 18 19  1  6  0  0  0
 18 24  1  0  0  0  0
 18 30  1  0  0  0  0
 20 21  1  0  0  0  0
 20 26  1  1  0  0  0
 22 23  1  1  0  0  0
 22 28  1  0  0  0  0
 24 25  1  0  0  0  0
 26 27  1  0  0  0  0
 28 29  1  6  0  0  0
M  END
>  <CHROM.1>
-160.16077278,-64.17892279,58.87302770,87.62186656,-166.23714932,-167.36006908
1.73945108,18.28350204,36.29327937,1.12021364,-0.05656118,-0.71226619

>  <Name>
ligand

>  <RI>
0

>  <Rbt.Current_Directory>
/home/itssahil/PROJECTS/Mol_Feturizer/New_Systems/rnas/4GPY

>  <Rbt.Executable>
rbdock ($Id: //depot/dev/client3/rdock/2013.1/src/exe/rbdock.cxx#4 $)

>  <Rbt.Library>
libRbt.so (2013.1, Build901 2013/11/27)

>  <Rbt.Parameter_File>
/export/apps/rDock/src/rDock_2013.1_src/data/scripts/dock_solv.prm

>  <Rbt.Receptor>
prm/blind_docking_60.prm

>  <SCORE>
20.8674

>  <SCORE.INTER>
-3.84712

>  <SCORE.INTER.CONST>
1

>  <SCORE.INTER.POLAR>
0

>  <SCORE.INTER.ROT>
6

>  <SCORE.INTER.SOLV>
18.8633

>  <SCORE.INTER.VDW>
-16.4525

>  <SCORE.INTER.norm>
-0.124101

>  <SCORE.INTRA>
8.42366

>  <SCORE.INTRA.DIHEDRAL>
-5.55894

>  <SCORE.INTRA.DIHEDRAL.0>
14.7001

>  <SCORE.INTRA.POLAR>
0

>  <SCORE.INTRA.POLAR.0>
0

>  <SCORE.INTRA.REPUL>
0

>  <SCORE.INTRA.REPUL.0>
0

>  <SCORE.INTRA.SOLV>
0.830714

>  <SCORE.INTRA.SOLV.lig_0>
-65.3082

>  <SCORE.INTRA.VDW>
10.7878

>  <SCORE.INTRA.VDW.0>
-4.21408

>  <SCORE.INTRA.norm>
0.271731

>  <SCORE.RESTR>
16.2909

>  <SCORE.RESTR.CAVITY>
16.2909

>  <SCORE.RESTR.norm>
0.525513

>  <SCORE.SYSTEM>
0

>  <SCORE.SYSTEM.CONST>
0

>  <SCORE.SYSTEM.DIHEDRAL>
0

>  <SCORE.SYSTEM.SOLV>
0

>  <SCORE.SYSTEM.norm>
0

>  <SCORE.heavy>
31

>  <SCORE.norm>
0.673143

>  <RMSD>
6.636

$$$$
ligand
 OpenBabel11021811493D
libRbt.so/2013.1/901 2013/11/27
 31 33  0  0  0  0  0  0  0  0999 V2000
   -4.1785   15.3346   41.0112 C   0  0  2  0  0  0  0  0  0  0  0  0
   -3.5522   14.6711   42.0923 O   0  0  0  0  0  0  0  0  0  0  0  0
   -2.8107   10.5556   42.8488 C   0  0  2  0  0  0  0  0  0  0  0  0
   -3.0561    9.1872   43.1557 N   0  0  0  0  0  0  0  0  0  0  0  0
   -3.7520    9.9584   39.1832 C   0  0  2  0  0  0  0  0  0  0  0  0
   -3.5367   16.7835   40.8814 C   0  0  2  0  0  0  0  0  0  0  0  0
   -2.0970   16.6533   40.6839 N   0  0  0  0  0  0  0  0  0  0  0  0
   -3.3694   11.4432   44.0486 C   0  0  0  0  0  0  0  0  0  0  0  0
   -3.1657    8.6361   38.5841 C   0  0  2  0  0  0  0  0  0  0  0  0
   -3.3536    7.5940   39.5179 O   0  0  0  0  0  0  0  0  0  0  0  0
   -3.8585   17.6469   42.1563 C   0  0  0  0  0  0  0  0  0  0  0  0
   -3.0814   12.9641   43.7144 C   0  0  2  0  0  0  0  0  0  0  0  0
   -3.5806   13.7946   44.8111 N   0  0  0  0  0  0  0  0  0  0  0  0
   -1.6369    8.8562   38.2910 C   0  0  1  0  0  0  0  0  0  0  0  0
   -1.0455    7.5992   37.7301 N   0  0  0  0  0  0  0  0  0  0  0  0
   -5.3409   17.4104   42.6688 C   0  0  0  0  0  0  0  0  0  0  0  0
   -3.8221   13.3428   42.3671 C   0  0  2  0  0  0  0  0  0  0  0  0
   -1.4785   10.0577   37.2050 C   0  0  1  0  0  0  0  0  0  0  0  0
   -2.1174    9.7831   35.9739 O   0  0  0  0  0  0  0  0  0  0  0  0
   -6.0885   16.3803   42.2035 C   0  0  1  0  0  0  0  0  0  0  0  0
   -5.6189   15.4462   41.2355 O   0  0  0  0  0  0  0  0  0  0  0  0
   -3.2768   12.4379   41.1849 C   0  0  2  0  0  0  0  0  0  0  0  0
   -3.9671   12.7796   39.9655 O   0  0  0  0  0  0  0  0  0  0  0  0
   -2.0999   11.3607   37.7912 C   0  0  0  0  0  0  0  0  0  0  0  0
   -3.5371   11.1063   38.2117 O   0  0  0  0  0  0  0  0  0  0  0  0
   -7.5000   16.1167   42.6709 C   0  0  0  0  0  0  0  0  0  0  0  0
   -7.4750   14.8493   43.3622 O   0  0  0  0  0  0  0  0  0  0  0  0
   -3.5579   10.9242   41.5233 C   0  0  1  0  0  0  0  0  0  0  0  0
   -3.0611   10.1425   40.4653 O   0  0  0  0  0  0  0  0  0  0  0  0
   -0.0288   10.3900   36.8286 C   0  0  0  0  0  0  0  0  0  0  0  0
   -0.5711    6.6040   38.7140 C   0  0  0  0  0  0  0  0  0  0  0  0
  1  2  1  1  0  0  0
  1  6  1  0  0  0  0
  1 21  1  0  0  0  0
  3  4  1  1  0  0  0
  3  8  1  0  0  0  0
  3 28  1  0  0  0  0
  5  9  1  0  0  0  0
  5 25  1  0  0  0  0
  5 29  1  1  0  0  0
  6  7  1  1  0  0  0
  6 11  1  0  0  0  0
  8 12  1  0  0  0  0
  9 10  1  1  0  0  0
  9 14  1  0  0  0  0
 11 16  1  0  0  0  0
 12 13  1  1  0  0  0
 12 17  1  0  0  0  0
 14 15  1  6  0  0  0
 14 18  1  0  0  0  0
 15 31  1  0  0  0  0
 16 20  1  0  0  0  0
 17  2  1  6  0  0  0
 17 22  1  0  0  0  0
 18 19  1  6  0  0  0
 18 24  1  0  0  0  0
 18 30  1  0  0  0  0
 20 21  1  0  0  0  0
 20 26  1  1  0  0  0
 22 23  1  6  0  0  0
 22 28  1  0  0  0  0
 24 25  1  0  0  0  0
 26 27  1  0  0  0  0
 28 29  1  6  0  0  0
M  END
>  <CHROM.1>
-174.02330694,-158.24284868,-86.26530810,-174.13965472,-114.86158462,162.96788654
-3.42281487,12.26616544,40.65185858,-2.72334662,-1.16528077,2.56263990

>  <Name>
ligand

>  <RI>
0

>  <Rbt.Current_Directory>
/home/itssahil/PROJECTS/Mol_Feturizer/New_Systems/rnas/4GPY

>  <Rbt.Executable>
rbdock ($Id: //depot/dev/client3/rdock/2013.1/src/exe/rbdock.cxx#4 $)

>  <Rbt.Library>
libRbt.so (2013.1, Build901 2013/11/27)

>  <Rbt.Parameter_File>
/export/apps/rDock/src/rDock_2013.1_src/data/scripts/dock_solv.prm

>  <Rbt.Receptor>
prm/pocket_docking_7.prm

>  <SCORE>
-10.0659

>  <SCORE.INTER>
-6.50833

>  <SCORE.INTER.CONST>
1

>  <SCORE.INTER.POLAR>
0

>  <SCORE.INTER.ROT>
6

>  <SCORE.INTER.SOLV>
16.1555

>  <SCORE.INTER.VDW>
-17.324

>  <SCORE.INTER.norm>
-0.209946

>  <SCORE.INTRA>
-3.55759

>  <SCORE.INTRA.DIHEDRAL>
-8.71854

>  <SCORE.INTRA.DIHEDRAL.0>
14.7001

>  <SCORE.INTRA.POLAR>
0

>  <SCORE.INTRA.POLAR.0>
0

>  <SCORE.INTRA.REPUL>
0

>  <SCORE.INTRA.REPUL.0>
0

>  <SCORE.INTRA.SOLV>
-2.0073

>  <SCORE.INTRA.SOLV.lig_0>
-65.3082

>  <SCORE.INTRA.VDW>
1.80533

>  <SCORE.INTRA.VDW.0>
-4.21408

>  <SCORE.INTRA.norm>
-0.114761

>  <SCORE.RESTR>
0

>  <SCORE.RESTR.CAVITY>
0

>  <SCORE.RESTR.norm>
0

>  <SCORE.SYSTEM>
0

>  <SCORE.SYSTEM.CONST>
0

>  <SCORE.SYSTEM.DIHEDRAL>
0

>  <SCORE.SYSTEM.SOLV>
0

>  <SCORE.SYSTEM.norm>
0

>  <SCORE.heavy>
31

>  <SCORE.norm>
-0.324707

>  <RMSD>
6.645

$$$$
ligand
 OpenBabel11021811493D
libRbt.so/2013.1/901 2013/11/27
 31 33  0  0  0  0  0  0  0  0999 V2000
    3.7326   19.2861   35.1844 C   0  0  2  0  0  0  0  0  0  0  0  0
    3.1162   18.5216   36.2027 O   0  0  0  0  0  0  0  0  0  0  0  0
    1.4584   14.6896   36.9947 C   0  0  2  0  0  0  0  0  0  0  0  0
    0.9683   13.3722   36.7687 N   0  0  0  0  0  0  0  0  0  0  0  0
    5.1420   14.0368   37.6698 C   0  0  2  0  0  0  0  0  0  0  0  0
    4.2643   20.6368   35.8332 C   0  0  2  0  0  0  0  0  0  0  0  0
    5.1905   20.3164   36.9140 N   0  0  0  0  0  0  0  0  0  0  0  0
    0.6067   15.6981   36.1019 C   0  0  0  0  0  0  0  0  0  0  0  0
    5.7407   12.5902   37.6721 C   0  0  2  0  0  0  0  0  0  0  0  0
    5.4639   11.9839   36.4276 O   0  0  0  0  0  0  0  0  0  0  0  0
    3.0641   21.5094   36.3548 C   0  0  0  0  0  0  0  0  0  0  0  0
    1.1414   17.1650   36.3661 C   0  0  2  0  0  0  0  0  0  0  0  0
    0.3637   18.1068   35.5599 N   0  0  0  0  0  0  0  0  0  0  0  0
    5.0831   11.7801   38.8481 C   0  0  1  0  0  0  0  0  0  0  0  0
    5.6275   10.3844   38.8645 N   0  0  0  0  0  0  0  0  0  0  0  0
    1.8287   21.4659   35.3608 C   0  0  0  0  0  0  0  0  0  0  0  0
    2.6697   17.2356   35.9584 C   0  0  2  0  0  0  0  0  0  0  0  0
    5.4406   12.5146   40.2555 C   0  0  1  0  0  0  0  0  0  0  0  0
    6.8299   12.5881   40.5079 O   0  0  0  0  0  0  0  0  0  0  0  0
    1.7664   20.5566   34.3579 C   0  0  1  0  0  0  0  0  0  0  0  0
    2.7823   19.5875   34.1150 O   0  0  0  0  0  0  0  0  0  0  0  0
    3.5045   16.2117   36.8350 C   0  0  2  0  0  0  0  0  0  0  0  0
    4.8923   16.2724   36.4468 O   0  0  0  0  0  0  0  0  0  0  0  0
    4.8771   13.9670   40.2308 C   0  0  0  0  0  0  0  0  0  0  0  0
    5.3984   14.7049   39.0098 O   0  0  0  0  0  0  0  0  0  0  0  0
    0.6054   20.4775   33.3955 C   0  0  0  0  0  0  0  0  0  0  0  0
   -0.5659   20.8975   34.1279 O   0  0  0  0  0  0  0  0  0  0  0  0
    2.9657   14.7531   36.5760 C   0  0  1  0  0  0  0  0  0  0  0  0
    3.7159   13.8653   37.3671 O   0  0  0  0  0  0  0  0  0  0  0  0
    4.8521   11.8333   41.4978 C   0  0  0  0  0  0  0  0  0  0  0  0
    5.3076    9.5440   37.6920 C   0  0  0  0  0  0  0  0  0  0  0  0
  1  2  1  1  0  0  0
  1  6  1  0  0  0  0
  1 21  1  0  0  0  0
  3  4  1  6  0  0  0
  3  8  1  0  0  0  0
  3 28  1  0  0  0  0
  5  9  1  0  0  0  0
  5 25  1  0  0  0  0
  5 29  1  1  0  0  0
  6  7  1  1  0  0  0
  6 11  1  0  0  0  0
  8 12  1  0  0  0  0
  9 10  1  6  0  0  0
  9 14  1  0  0  0  0
 11 16  1  0  0  0  0
 12 13  1  6  0  0  0
 12 17  1  0  0  0  0
 14 15  1  1  0  0  0
 14 18  1  0  0  0  0
 15 31  1  0  0  0  0
 16 20  1  0  0  0  0
 17  2  1  1  0  0  0
 17 22  1  0  0  0  0
 18 19  1  1  0  0  0
 18 24  1  0  0  0  0
 18 30  1  0  0  0  0
 20 21  1  0  0  0  0
 20 26  1  1  0  0  0
 22 23  1  6  0  0  0
 22 28  1  0  0  0  0
 24 25  1  0  0  0  0
 26 27  1  0  0  0  0
 28 29  1  1  0  0  0
M  END
>  <CHROM.1>
-173.85592249,-143.29817306,-64.86806920,-125.32854146,-31.33912608,-153.18344409
3.49585034,16.00448777,36.95171675,-1.99299779,0.54778221,2.91905364

>  <Name>
ligand

>  <RI>
0

>  <Rbt.Current_Directory>
/home/itssahil/PROJECTS/Mol_Feturizer/New_Systems/rnas/4GPY

>  <Rbt.Executable>
rbdock ($Id: //depot/dev/client3/rdock/2013.1/src/exe/rbdock.cxx#4 $)

>  <Rbt.Library>
libRbt.so (2013.1, Build901 2013/11/27)

>  <Rbt.Parameter_File>
/export/apps/rDock/src/rDock_2013.1_src/data/scripts/dock_solv.prm

>  <Rbt.Receptor>
prm/blind_docking_100.prm

>  <SCORE>
5.05529

>  <SCORE.INTER>
-5.71855

>  <SCORE.INTER.CONST>
1

>  <SCORE.INTER.POLAR>
0

>  <SCORE.INTER.ROT>
6

>  <SCORE.INTER.SOLV>
17.7552

>  <SCORE.INTER.VDW>
-17.3308

>  <SCORE.INTER.norm>
-0.184469

>  <SCORE.INTRA>
7.18006

>  <SCORE.INTRA.DIHEDRAL>
3.11202

>  <SCORE.INTRA.DIHEDRAL.0>
14.7001

>  <SCORE.INTRA.POLAR>
0

>  <SCORE.INTRA.POLAR.0>
0

>  <SCORE.INTRA.REPUL>
0

>  <SCORE.INTRA.REPUL.0>
0

>  <SCORE.INTRA.SOLV>
1.3886

>  <SCORE.INTRA.SOLV.lig_0>
-65.3082

>  <SCORE.INTRA.VDW>
4.92976

>  <SCORE.INTRA.VDW.0>
-4.21408

>  <SCORE.INTRA.norm>
0.231615

>  <SCORE.RESTR>
3.59378

>  <SCORE.RESTR.CAVITY>
3.59378

>  <SCORE.RESTR.norm>
0.115928

>  <SCORE.SYSTEM>
0

>  <SCORE.SYSTEM.CONST>
0

>  <SCORE.SYSTEM.DIHEDRAL>
0

>  <SCORE.SYSTEM.SOLV>
0

>  <SCORE.SYSTEM.norm>
0

>  <SCORE.heavy>
31

>  <SCORE.norm>
0.163074

>  <RMSD>
6.649

$$$$
ligand
 OpenBabel11021811493D
libRbt.so/2013.1/901 2013/11/27
 31 33  0  0  0  0  0  0  0  0999 V2000
    0.8723   18.4103   34.8762 C   0  0  2  0  0  0  0  0  0  0  0  0
    2.2783   18.2561   34.8998 O   0  0  0  0  0  0  0  0  0  0  0  0
    5.1990   16.0374   37.0462 C   0  0  2  0  0  0  0  0  0  0  0  0
    5.8886   15.4434   38.1409 N   0  0  0  0  0  0  0  0  0  0  0  0
    3.5235   13.0458   37.7690 C   0  0  2  0  0  0  0  0  0  0  0  0
    0.5339   19.9187   35.2480 C   0  0  2  0  0  0  0  0  0  0  0  0
    1.1980   20.8061   34.2992 N   0  0  0  0  0  0  0  0  0  0  0  0
    5.1277   17.6096   37.2963 C   0  0  0  0  0  0  0  0  0  0  0  0
    4.8402   12.2108   37.9120 C   0  0  2  0  0  0  0  0  0  0  0  0
    5.9001   13.0879   38.2290 O   0  0  0  0  0  0  0  0  0  0  0  0
    0.9733   20.2361   36.7246 C   0  0  0  0  0  0  0  0  0  0  0  0
    4.3750   18.2718   36.0704 C   0  0  2  0  0  0  0  0  0  0  0  0
    4.3080   19.7187   36.2791 N   0  0  0  0  0  0  0  0  0  0  0  0
    5.1127   11.4723   36.5512 C   0  0  1  0  0  0  0  0  0  0  0  0
    6.3776   10.6761   36.6546 N   0  0  0  0  0  0  0  0  0  0  0  0
    0.6694   19.0248   37.7026 C   0  0  0  0  0  0  0  0  0  0  0  0
    2.9137   17.6690   35.9788 C   0  0  2  0  0  0  0  0  0  0  0  0
    3.8690   10.4701   36.2397 C   0  0  1  0  0  0  0  0  0  0  0  0
    3.6865    9.4832   37.2358 O   0  0  0  0  0  0  0  0  0  0  0  0
    0.3386   17.8013   37.2230 C   0  0  1  0  0  0  0  0  0  0  0  0
    0.2353   17.5066   35.8328 O   0  0  0  0  0  0  0  0  0  0  0  0
    2.9953   16.1016   35.7544 C   0  0  2  0  0  0  0  0  0  0  0  0
    1.6605   15.5595   35.6869 O   0  0  0  0  0  0  0  0  0  0  0  0
    2.5558   11.3024   36.1386 C   0  0  0  0  0  0  0  0  0  0  0  0
    2.3688   12.1312   37.3977 O   0  0  0  0  0  0  0  0  0  0  0  0
    0.0492   16.6213   38.1198 C   0  0  0  0  0  0  0  0  0  0  0  0
   -1.3730   16.6325   38.3690 O   0  0  0  0  0  0  0  0  0  0  0  0
    3.7514   15.4456   36.9721 C   0  0  1  0  0  0  0  0  0  0  0  0
    3.8164   14.0590   36.7480 O   0  0  0  0  0  0  0  0  0  0  0  0
    3.9963    9.6843   34.9282 C   0  0  0  0  0  0  0  0  0  0  0  0
    6.4585    9.7203   37.7785 C   0  0  0  0  0  0  0  0  0  0  0  0
  1  2  1  1  0  0  0
  1  6  1  0  0  0  0
  1 21  1  0  0  0  0
  3  4  1  1  0  0  0
  3  8  1  0  0  0  0
  3 28  1  0  0  0  0
  5  9  1  0  0  0  0
  5 25  1  0  0  0  0
  5 29  1  6  0  0  0
  6  7  1  6  0  0  0
  6 11  1  0  0  0  0
  8 12  1  0  0  0  0
  9 10  1  6  0  0  0
  9 14  1  0  0  0  0
 11 16  1  0  0  0  0
 12 13  1  1  0  0  0
 12 17  1  0  0  0  0
 14 15  1  1  0  0  0
 14 18  1  0  0  0  0
 15 31  1  0  0  0  0
 16 20  1  0  0  0  0
 17  2  1  6  0  0  0
 17 22  1  0  0  0  0
 18 19  1  1  0  0  0
 18 24  1  0  0  0  0
 18 30  1  0  0  0  0
 20 21  1  0  0  0  0
 20 26  1  6  0  0  0
 22 23  1  1  0  0  0
 22 28  1  0  0  0  0
 24 25  1  0  0  0  0
 26 27  1  0  0  0  0
 28 29  1  6  0  0  0
M  END
>  <CHROM.1>
101.16361135,-120.24566844,54.21361727,-151.75536804,91.26162670,106.64592972
3.02613697,15.25579743,36.65844911,1.97743838,-0.04079432,-0.08719304

>  <Name>
ligand

>  <RI>
0

>  <Rbt.Current_Directory>
/home/itssahil/PROJECTS/Mol_Feturizer/New_Systems/rnas/4GPY

>  <Rbt.Executable>
rbdock ($Id: //depot/dev/client3/rdock/2013.1/src/exe/rbdock.cxx#4 $)

>  <Rbt.Library>
libRbt.so (2013.1, Build901 2013/11/27)

>  <Rbt.Parameter_File>
/export/apps/rDock/src/rDock_2013.1_src/data/scripts/dock_solv.prm

>  <Rbt.Receptor>
prm/blind_docking_100.prm

>  <SCORE>
11.9643

>  <SCORE.INTER>
-3.22073

>  <SCORE.INTER.CONST>
1

>  <SCORE.INTER.POLAR>
0

>  <SCORE.INTER.ROT>
6

>  <SCORE.INTER.SOLV>
23.7634

>  <SCORE.INTER.VDW>
-17.6683

>  <SCORE.INTER.norm>
-0.103894

>  <SCORE.INTRA>
12.074

>  <SCORE.INTRA.DIHEDRAL>
10.308

>  <SCORE.INTRA.DIHEDRAL.0>
14.7001

>  <SCORE.INTRA.POLAR>
0

>  <SCORE.INTRA.POLAR.0>
0

>  <SCORE.INTRA.REPUL>
0

>  <SCORE.INTRA.REPUL.0>
0

>  <SCORE.INTRA.SOLV>
3.20038

>  <SCORE.INTRA.SOLV.lig_0>
-65.3082

>  <SCORE.INTRA.VDW>
5.3198

>  <SCORE.INTRA.VDW.0>
-4.21408

>  <SCORE.INTRA.norm>
0.389484

>  <SCORE.RESTR>
3.111

>  <SCORE.RESTR.CAVITY>
3.111

>  <SCORE.RESTR.norm>
0.100355

>  <SCORE.SYSTEM>
0

>  <SCORE.SYSTEM.CONST>
0

>  <SCORE.SYSTEM.DIHEDRAL>
0

>  <SCORE.SYSTEM.SOLV>
0

>  <SCORE.SYSTEM.norm>
0

>  <SCORE.heavy>
31

>  <SCORE.norm>
0.385945

>  <RMSD>
6.672

$$$$
ligand
 OpenBabel11021811493D
libRbt.so/2013.1/901 2013/11/27
 31 33  0  0  0  0  0  0  0  0999 V2000
   -4.4281   15.3552   40.9840 C   0  0  2  0  0  0  0  0  0  0  0  0
   -3.7228   14.6964   42.0183 O   0  0  0  0  0  0  0  0  0  0  0  0
   -2.8658   10.6105   42.8129 C   0  0  2  0  0  0  0  0  0  0  0  0
   -3.0729    9.2383   43.1307 N   0  0  0  0  0  0  0  0  0  0  0  0
   -3.7643    9.9756   39.1400 C   0  0  2  0  0  0  0  0  0  0  0  0
   -3.7931   16.8007   40.7954 C   0  0  2  0  0  0  0  0  0  0  0  0
   -2.3734   16.6635   40.4887 N   0  0  0  0  0  0  0  0  0  0  0  0
   -3.4544   11.4919   44.0030 C   0  0  0  0  0  0  0  0  0  0  0  0
   -3.1549    8.6581   38.5535 C   0  0  2  0  0  0  0  0  0  0  0  0
   -3.3464    7.6163   39.4870 O   0  0  0  0  0  0  0  0  0  0  0  0
   -4.0130   17.6737   42.0852 C   0  0  0  0  0  0  0  0  0  0  0  0
   -3.2091   13.0175   43.6567 C   0  0  2  0  0  0  0  0  0  0  0  0
   -3.7361   13.8426   44.7445 N   0  0  0  0  0  0  0  0  0  0  0  0
   -1.6241    8.8935   38.2837 C   0  0  1  0  0  0  0  0  0  0  0  0
   -1.0109    7.6414   37.7353 N   0  0  0  0  0  0  0  0  0  0  0  0
   -5.4524   17.4464   42.7118 C   0  0  0  0  0  0  0  0  0  0  0  0
   -3.9553   13.3632   42.3037 C   0  0  2  0  0  0  0  0  0  0  0  0
   -1.4614   10.0939   37.1971 C   0  0  1  0  0  0  0  0  0  0  0  0
   -2.0782    9.8096   35.9569 O   0  0  0  0  0  0  0  0  0  0  0  0
   -6.2371   16.4162   42.3124 C   0  0  1  0  0  0  0  0  0  0  0  0
   -5.8466   15.4739   41.3176 O   0  0  0  0  0  0  0  0  0  0  0  0
   -3.3797   12.4644   41.1312 C   0  0  2  0  0  0  0  0  0  0  0  0
   -4.0750   12.7757   39.9065 O   0  0  0  0  0  0  0  0  0  0  0  0
   -2.1054   11.3918   37.7701 C   0  0  0  0  0  0  0  0  0  0  0  0
   -3.5463   11.1233   38.1690 O   0  0  0  0  0  0  0  0  0  0  0  0
   -7.6094   16.1612   42.8887 C   0  0  0  0  0  0  0  0  0  0  0  0
   -8.5607   16.5476   41.8735 O   0  0  0  0  0  0  0  0  0  0  0  0
   -3.6184   10.9461   41.4816 C   0  0  1  0  0  0  0  0  0  0  0  0
   -3.0954   10.1701   40.4322 O   0  0  0  0  0  0  0  0  0  0  0  0
   -0.0096   10.4405   36.8424 C   0  0  0  0  0  0  0  0  0  0  0  0
   -0.4745    6.6870   38.7277 C   0  0  0  0  0  0  0  0  0  0  0  0
  1  2  1  1  0  0  0
  1  6  1  0  0  0  0
  1 21  1  0  0  0  0
  3  4  1  1  0  0  0
  3  8  1  0  0  0  0
  3 28  1  0  0  0  0
  5  9  1  0  0  0  0
  5 25  1  0  0  0  0
  5 29  1  1  0  0  0
  6  7  1  1  0  0  0
  6 11  1  0  0  0  0
  8 12  1  0  0  0  0
  9 10  1  1  0  0  0
  9 14  1  0  0  0  0
 11 16  1  0  0  0  0
 12 13  1  1  0  0  0
 12 17  1  0  0  0  0
 14 15  1  6  0  0  0
 14 18  1  0  0  0  0
 15 31  1  0  0  0  0
 16 20  1  0  0  0  0
 17  2  1  6  0  0  0
 17 22  1  0  0  0  0
 18 19  1  6  0  0  0
 18 24  1  0  0  0  0
 18 30  1  0  0  0  0
 20 21  1  0  0  0  0
 20 26  1  1  0  0  0
 22 23  1  6  0  0  0
 22 28  1  0  0  0  0
 24 25  1  0  0  0  0
 26 27  1  0  0  0  0
 28 29  1  6  0  0  0
M  END
>  <CHROM.1>
-172.65395313,-158.06080695,-89.50156276,-170.00674973,106.64357893,164.15678713
-3.53757088,12.35925584,40.57697623,-2.94710319,-1.15434301,2.28845232

>  <Name>
ligand

>  <RI>
0

>  <Rbt.Current_Directory>
/home/itssahil/PROJECTS/Mol_Feturizer/New_Systems/rnas/4GPY

>  <Rbt.Executable>
rbdock ($Id: //depot/dev/client3/rdock/2013.1/src/exe/rbdock.cxx#4 $)

>  <Rbt.Library>
libRbt.so (2013.1, Build901 2013/11/27)

>  <Rbt.Parameter_File>
/export/apps/rDock/src/rDock_2013.1_src/data/scripts/dock_solv.prm

>  <Rbt.Receptor>
prm/pocket_docking_6.prm

>  <SCORE>
-9.94091

>  <SCORE.INTER>
-6.57396

>  <SCORE.INTER.CONST>
1

>  <SCORE.INTER.POLAR>
0

>  <SCORE.INTER.ROT>
6

>  <SCORE.INTER.SOLV>
16.6763

>  <SCORE.INTER.VDW>
-17.5414

>  <SCORE.INTER.norm>
-0.212063

>  <SCORE.INTRA>
-3.36695

>  <SCORE.INTRA.DIHEDRAL>
-8.16464

>  <SCORE.INTRA.DIHEDRAL.0>
14.7001

>  <SCORE.INTRA.POLAR>
0

>  <SCORE.INTRA.POLAR.0>
0

>  <SCORE.INTRA.REPUL>
0

>  <SCORE.INTRA.REPUL.0>
0

>  <SCORE.INTRA.SOLV>
-2.02268

>  <SCORE.INTRA.SOLV.lig_0>
-65.3082

>  <SCORE.INTRA.VDW>
1.72671

>  <SCORE.INTRA.VDW.0>
-4.21408

>  <SCORE.INTRA.norm>
-0.108611

>  <SCORE.RESTR>
0

>  <SCORE.RESTR.CAVITY>
0

>  <SCORE.RESTR.norm>
0

>  <SCORE.SYSTEM>
0

>  <SCORE.SYSTEM.CONST>
0

>  <SCORE.SYSTEM.DIHEDRAL>
0

>  <SCORE.SYSTEM.SOLV>
0

>  <SCORE.SYSTEM.norm>
0

>  <SCORE.heavy>
31

>  <SCORE.norm>
-0.320674

>  <RMSD>
6.674

$$$$
ligand
 OpenBabel11021811493D
libRbt.so/2013.1/901 2013/11/27
 31 33  0  0  0  0  0  0  0  0999 V2000
    1.2250   16.9945   34.9988 C   0  0  2  0  0  0  0  0  0  0  0  0
    2.6083   16.7969   35.2194 O   0  0  0  0  0  0  0  0  0  0  0  0
    5.2497   14.9472   37.9874 C   0  0  2  0  0  0  0  0  0  0  0  0
    5.7684   14.4633   39.2217 N   0  0  0  0  0  0  0  0  0  0  0  0
    5.4521   12.2164   37.5443 C   0  0  2  0  0  0  0  0  0  0  0  0
    0.9861   18.5395   34.7094 C   0  0  2  0  0  0  0  0  0  0  0  0
    1.7869   18.9402   33.5575 N   0  0  0  0  0  0  0  0  0  0  0  0
    4.9988   16.5142   38.1324 C   0  0  0  0  0  0  0  0  0  0  0  0
    5.3642   11.0609   36.4915 C   0  0  2  0  0  0  0  0  0  0  0  0
    4.9554   11.6056   35.2548 O   0  0  0  0  0  0  0  0  0  0  0  0
    1.3436   19.4009   35.9760 C   0  0  0  0  0  0  0  0  0  0  0  0
    4.4373   17.0548   36.7539 C   0  0  2  0  0  0  0  0  0  0  0  0
    4.2091   18.4960   36.8660 N   0  0  0  0  0  0  0  0  0  0  0  0
    4.3271    9.9965   37.0045 C   0  0  1  0  0  0  0  0  0  0  0  0
    4.2113    8.8846   36.0071 N   0  0  0  0  0  0  0  0  0  0  0  0
    0.8722   18.6987   37.3179 C   0  0  0  0  0  0  0  0  0  0  0  0
    3.0764   16.3142   36.4280 C   0  0  2  0  0  0  0  0  0  0  0  0
    4.8503    9.3955   38.4233 C   0  0  1  0  0  0  0  0  0  0  0  0
    6.1090    8.7585   38.3278 O   0  0  0  0  0  0  0  0  0  0  0  0
    0.4770   17.4025   37.3305 C   0  0  1  0  0  0  0  0  0  0  0  0
    0.4493   16.5807   36.1669 O   0  0  0  0  0  0  0  0  0  0  0  0
    3.3321   14.7539   36.3097 C   0  0  2  0  0  0  0  0  0  0  0  0
    2.0851   14.0864   36.0273 O   0  0  0  0  0  0  0  0  0  0  0  0
    4.9740   10.5566   39.4549 C   0  0  0  0  0  0  0  0  0  0  0  0
    5.8612   11.6552   38.8953 O   0  0  0  0  0  0  0  0  0  0  0  0
    0.0283   16.6957   38.5873 C   0  0  0  0  0  0  0  0  0  0  0  0
   -1.1350   15.9186   38.2297 O   0  0  0  0  0  0  0  0  0  0  0  0
    3.8979   14.2194   37.6805 C   0  0  1  0  0  0  0  0  0  0  0  0
    4.1220   12.8375   37.5495 O   0  0  0  0  0  0  0  0  0  0  0  0
    3.9256    8.3441   39.0504 C   0  0  0  0  0  0  0  0  0  0  0  0
    3.6010    9.2330   34.7073 C   0  0  0  0  0  0  0  0  0  0  0  0
  1  2  1  1  0  0  0
  1  6  1  0  0  0  0
  1 21  1  0  0  0  0
  3  4  1  1  0  0  0
  3  8  1  0  0  0  0
  3 28  1  0  0  0  0
  5  9  1  0  0  0  0
  5 25  1  0  0  0  0
  5 29  1  1  0  0  0
  6  7  1  6  0  0  0
  6 11  1  0  0  0  0
  8 12  1  0  0  0  0
  9 10  1  6  0  0  0
  9 14  1  0  0  0  0
 11 16  1  0  0  0  0
 12 13  1  1  0  0  0
 12 17  1  0  0  0  0
 14 15  1  6  0  0  0
 14 18  1  0  0  0  0
 15 31  1  0  0  0  0
 16 20  1  0  0  0  0
 17  2  1  6  0  0  0
 17 22  1  0  0  0  0
 18 19  1  6  0  0  0
 18 24  1  0  0  0  0
 18 30  1  0  0  0  0
 20 21  1  0  0  0  0
 20 26  1  1  0  0  0
 22 23  1  1  0  0  0
 22 28  1  0  0  0  0
 24 25  1  0  0  0  0
 26 27  1  0  0  0  0
 28 29  1  6  0  0  0
M  END
>  <CHROM.1>
118.50824645,-142.20466558,-67.51740040,-142.72103900,137.39237021,-6.72472109
3.32205459,14.19331165,36.97499333,2.07001355,-0.58381330,0.11414940

>  <Name>
ligand

>  <RI>
0

>  <Rbt.Current_Directory>
/home/itssahil/PROJECTS/Mol_Feturizer/New_Systems/rnas/4GPY

>  <Rbt.Executable>
rbdock ($Id: //depot/dev/client3/rdock/2013.1/src/exe/rbdock.cxx#4 $)

>  <Rbt.Library>
libRbt.so (2013.1, Build901 2013/11/27)

>  <Rbt.Parameter_File>
/export/apps/rDock/src/rDock_2013.1_src/data/scripts/dock_solv.prm

>  <Rbt.Receptor>
prm/blind_docking_80.prm

>  <SCORE>
7.58534

>  <SCORE.INTER>
-7.53722

>  <SCORE.INTER.CONST>
1

>  <SCORE.INTER.POLAR>
0

>  <SCORE.INTER.ROT>
6

>  <SCORE.INTER.SOLV>
23.7877

>  <SCORE.INTER.VDW>
-20.554

>  <SCORE.INTER.norm>
-0.243136

>  <SCORE.INTRA>
10.8804

>  <SCORE.INTRA.DIHEDRAL>
11.5261

>  <SCORE.INTRA.DIHEDRAL.0>
14.7001

>  <SCORE.INTRA.POLAR>
0

>  <SCORE.INTRA.POLAR.0>
0

>  <SCORE.INTRA.REPUL>
0

>  <SCORE.INTRA.REPUL.0>
0

>  <SCORE.INTRA.SOLV>
2.84255

>  <SCORE.INTRA.SOLV.lig_0>
-65.3082

>  <SCORE.INTRA.VDW>
3.69604

>  <SCORE.INTRA.VDW.0>
-4.21408

>  <SCORE.INTRA.norm>
0.35098

>  <SCORE.RESTR>
4.24218

>  <SCORE.RESTR.CAVITY>
4.24218

>  <SCORE.RESTR.norm>
0.136845

>  <SCORE.SYSTEM>
0

>  <SCORE.SYSTEM.CONST>
0

>  <SCORE.SYSTEM.DIHEDRAL>
0

>  <SCORE.SYSTEM.SOLV>
0

>  <SCORE.SYSTEM.norm>
0

>  <SCORE.heavy>
31

>  <SCORE.norm>
0.244688

>  <RMSD>
6.681

$$$$
ligand
 OpenBabel11021811493D
libRbt.so/2013.1/901 2013/11/27
 31 33  0  0  0  0  0  0  0  0999 V2000
   -2.5427    9.4573   38.6340 C   0  0  2  0  0  0  0  0  0  0  0  0
   -1.8048   10.6623   38.7023 O   0  0  0  0  0  0  0  0  0  0  0  0
   -2.5194   14.5950   40.1459 C   0  0  2  0  0  0  0  0  0  0  0  0
   -3.1377   15.8667   40.3113 N   0  0  0  0  0  0  0  0  0  0  0  0
   -4.8742   12.8070   42.6120 C   0  0  2  0  0  0  0  0  0  0  0  0
   -1.5478    8.2511   38.9229 C   0  0  2  0  0  0  0  0  0  0  0  0
   -0.9313    8.4421   40.2313 N   0  0  0  0  0  0  0  0  0  0  0  0
   -2.1310   14.4260   38.6096 C   0  0  0  0  0  0  0  0  0  0  0  0
   -5.3255   13.6617   43.8437 C   0  0  2  0  0  0  0  0  0  0  0  0
   -5.7907   14.9117   43.3810 O   0  0  0  0  0  0  0  0  0  0  0  0
   -0.4591    8.1496   37.7922 C   0  0  0  0  0  0  0  0  0  0  0  0
   -1.4285   13.0183   38.4290 C   0  0  2  0  0  0  0  0  0  0  0  0
   -1.0564   12.8494   37.0238 N   0  0  0  0  0  0  0  0  0  0  0  0
   -4.0934   13.8432   44.8032 C   0  0  1  0  0  0  0  0  0  0  0  0
   -4.4935   14.6719   45.9855 N   0  0  0  0  0  0  0  0  0  0  0  0
   -1.0736    8.4269   36.3564 C   0  0  0  0  0  0  0  0  0  0  0  0
   -2.4404   11.8802   38.8624 C   0  0  2  0  0  0  0  0  0  0  0  0
   -3.6051   12.3771   45.3132 C   0  0  1  0  0  0  0  0  0  0  0  0
   -4.6044   11.6738   46.0246 O   0  0  0  0  0  0  0  0  0  0  0  0
   -2.3133    8.9553   36.2136 C   0  0  1  0  0  0  0  0  0  0  0  0
   -3.1513    9.2959   37.3145 O   0  0  0  0  0  0  0  0  0  0  0  0
   -2.8395   12.0712   40.3849 C   0  0  2  0  0  0  0  0  0  0  0  0
   -3.7722   11.0393   40.7664 O   0  0  0  0  0  0  0  0  0  0  0  0
   -3.1955   11.5179   44.0797 C   0  0  0  0  0  0  0  0  0  0  0  0
   -4.3393   11.4650   43.0817 O   0  0  0  0  0  0  0  0  0  0  0  0
   -2.9312    9.2409   34.8656 C   0  0  0  0  0  0  0  0  0  0  0  0
   -4.1311    8.4419   34.7850 O   0  0  0  0  0  0  0  0  0  0  0  0
   -3.5318   13.4761   40.5635 C   0  0  1  0  0  0  0  0  0  0  0  0
   -3.8705   13.6249   41.9200 O   0  0  0  0  0  0  0  0  0  0  0  0
   -2.3955   12.4004   46.2567 C   0  0  0  0  0  0  0  0  0  0  0  0
   -4.0363   16.0770   45.9839 C   0  0  0  0  0  0  0  0  0  0  0  0
  1  2  1  6  0  0  0
  1  6  1  0  0  0  0
  1 21  1  0  0  0  0
  3  4  1  6  0  0  0
  3  8  1  0  0  0  0
  3 28  1  0  0  0  0
  5  9  1  0  0  0  0
  5 25  1  0  0  0  0
  5 29  1  1  0  0  0
  6  7  1  1  0  0  0
  6 11  1  0  0  0  0
  8 12  1  0  0  0  0
  9 10  1  6  0  0  0
  9 14  1  0  0  0  0
 11 16  1  0  0  0  0
 12 13  1  6  0  0  0
 12 17  1  0  0  0  0
 14 15  1  1  0  0  0
 14 18  1  0  0  0  0
 15 31  1  0  0  0  0
 16 20  1  0  0  0  0
 17  2  1  1  0  0  0
 17 22  1  0  0  0  0
 18 19  1  1  0  0  0
 18 24  1  0  0  0  0
 18 30  1  0  0  0  0
 20 21  1  0  0  0  0
 20 26  1  1  0  0  0
 22 23  1  6  0  0  0
 22 28  1  0  0  0  0
 24 25  1  0  0  0  0
 26 27  1  0  0  0  0
 28 29  1  1  0  0  0
M  END
>  <CHROM.1>
-161.94916699,-157.56177219,-103.89738696,-161.66834658,119.42987768,175.17998641
-3.07442031,11.84522609,40.73114153,-0.19106566,-1.34352205,2.43889045

>  <Name>
ligand

>  <RI>
0

>  <Rbt.Current_Directory>
/home/itssahil/PROJECTS/Mol_Feturizer/New_Systems/rnas/4GPY

>  <Rbt.Executable>
rbdock ($Id: //depot/dev/client3/rdock/2013.1/src/exe/rbdock.cxx#4 $)

>  <Rbt.Library>
libRbt.so (2013.1, Build901 2013/11/27)

>  <Rbt.Parameter_File>
/export/apps/rDock/src/rDock_2013.1_src/data/scripts/dock_solv.prm

>  <Rbt.Receptor>
prm/pocket_docking_8.prm

>  <SCORE>
-10.1644

>  <SCORE.INTER>
-7.87425

>  <SCORE.INTER.CONST>
1

>  <SCORE.INTER.POLAR>
0

>  <SCORE.INTER.ROT>
6

>  <SCORE.INTER.SOLV>
14.6699

>  <SCORE.INTER.VDW>
-17.7395

>  <SCORE.INTER.norm>
-0.254008

>  <SCORE.INTRA>
-2.29013

>  <SCORE.INTRA.DIHEDRAL>
-6.65993

>  <SCORE.INTRA.DIHEDRAL.0>
14.7001

>  <SCORE.INTRA.POLAR>
0

>  <SCORE.INTRA.POLAR.0>
0

>  <SCORE.INTRA.REPUL>
0

>  <SCORE.INTRA.REPUL.0>
0

>  <SCORE.INTRA.SOLV>
-1.44833

>  <SCORE.INTRA.SOLV.lig_0>
-65.3082

>  <SCORE.INTRA.VDW>
1.76401

>  <SCORE.INTRA.VDW.0>
-4.21408

>  <SCORE.INTRA.norm>
-0.073875

>  <SCORE.RESTR>
0

>  <SCORE.RESTR.CAVITY>
0

>  <SCORE.RESTR.norm>
0

>  <SCORE.SYSTEM>
0

>  <SCORE.SYSTEM.CONST>
0

>  <SCORE.SYSTEM.DIHEDRAL>
0

>  <SCORE.SYSTEM.SOLV>
0

>  <SCORE.SYSTEM.norm>
0

>  <SCORE.heavy>
31

>  <SCORE.norm>
-0.327883

>  <RMSD>
6.683

$$$$
ligand
 OpenBabel11021811493D
libRbt.so/2013.1/901 2013/11/27
 31 33  0  0  0  0  0  0  0  0999 V2000
   -4.4449   15.3061   41.0313 C   0  0  2  0  0  0  0  0  0  0  0  0
   -3.7138   14.6814   42.0689 O   0  0  0  0  0  0  0  0  0  0  0  0
   -2.7213   10.6218   42.8399 C   0  0  2  0  0  0  0  0  0  0  0  0
   -2.8801    9.2463   43.1707 N   0  0  0  0  0  0  0  0  0  0  0  0
   -3.7533    9.9558   39.2070 C   0  0  2  0  0  0  0  0  0  0  0  0
   -3.8321   16.7545   40.7972 C   0  0  2  0  0  0  0  0  0  0  0  0
   -2.4161   16.6280   40.4697 N   0  0  0  0  0  0  0  0  0  0  0  0
   -3.2813   11.4933   44.0510 C   0  0  0  0  0  0  0  0  0  0  0  0
   -3.1519    8.6410   38.6064 C   0  0  2  0  0  0  0  0  0  0  0  0
   -3.2978    7.6033   39.5525 O   0  0  0  0  0  0  0  0  0  0  0  0
   -4.0418   17.6556   42.0693 C   0  0  0  0  0  0  0  0  0  0  0  0
   -3.0894   13.0231   43.6896 C   0  0  2  0  0  0  0  0  0  0  0  0
   -3.5908   13.8394   44.7959 N   0  0  0  0  0  0  0  0  0  0  0  0
   -1.6346    8.8907   38.2790 C   0  0  1  0  0  0  0  0  0  0  0  0
   -1.0286    7.6415   37.7160 N   0  0  0  0  0  0  0  0  0  0  0  0
   -5.4673   17.4253   42.7257 C   0  0  0  0  0  0  0  0  0  0  0  0
   -3.9004   13.3441   42.3681 C   0  0  2  0  0  0  0  0  0  0  0  0
   -1.5247   10.0857   37.1801 C   0  0  1  0  0  0  0  0  0  0  0  0
   -2.1836    9.7871   35.9651 O   0  0  0  0  0  0  0  0  0  0  0  0
   -6.2451   16.3760   42.3646 C   0  0  1  0  0  0  0  0  0  0  0  0
   -5.8590   15.4149   41.3861 O   0  0  0  0  0  0  0  0  0  0  0  0
   -3.3521   12.4550   41.1754 C   0  0  2  0  0  0  0  0  0  0  0  0
   -4.1060   12.7434   39.9800 O   0  0  0  0  0  0  0  0  0  0  0  0
   -2.1611   11.3805   37.7686 C   0  0  0  0  0  0  0  0  0  0  0  0
   -3.5834   11.0995   38.2218 O   0  0  0  0  0  0  0  0  0  0  0  0
   -7.6041   16.1176   42.9702 C   0  0  0  0  0  0  0  0  0  0  0  0
   -8.5770   16.4578   41.9590 O   0  0  0  0  0  0  0  0  0  0  0  0
   -3.5374   10.9327   41.5405 C   0  0  1  0  0  0  0  0  0  0  0  0
   -3.0396   10.1655   40.4725 O   0  0  0  0  0  0  0  0  0  0  0  0
   -0.0907   10.4452   36.7701 C   0  0  0  0  0  0  0  0  0  0  0  0
   -0.4164    6.7149   38.6906 C   0  0  0  0  0  0  0  0  0  0  0  0
  1  2  1  1  0  0  0
  1  6  1  0  0  0  0
  1 21  1  0  0  0  0
  3  4  1  1  0  0  0
  3  8  1  0  0  0  0
  3 28  1  0  0  0  0
  5  9  1  0  0  0  0
  5 25  1  0  0  0  0
  5 29  1  1  0  0  0
  6  7  1  1  0  0  0
  6 11  1  0  0  0  0
  8 12  1  0  0  0  0
  9 10  1  1  0  0  0
  9 14  1  0  0  0  0
 11 16  1  0  0  0  0
 12 13  1  1  0  0  0
 12 17  1  0  0  0  0
 14 15  1  6  0  0  0
 14 18  1  0  0  0  0
 15 31  1  0  0  0  0
 16 20  1  0  0  0  0
 17  2  1  6  0  0  0
 17 22  1  0  0  0  0
 18 19  1  6  0  0  0
 18 24  1  0  0  0  0
 18 30  1  0  0  0  0
 20 21  1  0  0  0  0
 20 26  1  1  0  0  0
 22 23  1  6  0  0  0
 22 28  1  0  0  0  0
 24 25  1  0  0  0  0
 26 27  1  0  0  0  0
 28 29  1  6  0  0  0
M  END
>  <CHROM.1>
-171.03863481,-157.45357845,-90.95934729,-172.26087091,107.05770408,164.56786265
-3.52106532,12.34080781,40.60782153,-3.08054710,-1.16196456,2.14851248

>  <Name>
ligand

>  <RI>
0

>  <Rbt.Current_Directory>
/home/itssahil/PROJECTS/Mol_Feturizer/New_Systems/rnas/4GPY

>  <Rbt.Executable>
rbdock ($Id: //depot/dev/client3/rdock/2013.1/src/exe/rbdock.cxx#4 $)

>  <Rbt.Library>
libRbt.so (2013.1, Build901 2013/11/27)

>  <Rbt.Parameter_File>
/export/apps/rDock/src/rDock_2013.1_src/data/scripts/dock_solv.prm

>  <Rbt.Receptor>
prm/pocket_docking_7.prm

>  <SCORE>
-9.92828

>  <SCORE.INTER>
-6.56271

>  <SCORE.INTER.CONST>
1

>  <SCORE.INTER.POLAR>
0

>  <SCORE.INTER.ROT>
6

>  <SCORE.INTER.SOLV>
16.1932

>  <SCORE.INTER.VDW>
-17.3729

>  <SCORE.INTER.norm>
-0.2117

>  <SCORE.INTRA>
-3.36557

>  <SCORE.INTRA.DIHEDRAL>
-8.14746

>  <SCORE.INTRA.DIHEDRAL.0>
14.7001

>  <SCORE.INTRA.POLAR>
0

>  <SCORE.INTRA.POLAR.0>
0

>  <SCORE.INTRA.REPUL>
0

>  <SCORE.INTRA.REPUL.0>
0

>  <SCORE.INTRA.SOLV>
-2.09881

>  <SCORE.INTRA.SOLV.lig_0>
-65.3082

>  <SCORE.INTRA.VDW>
1.75756

>  <SCORE.INTRA.VDW.0>
-4.21408

>  <SCORE.INTRA.norm>
-0.108567

>  <SCORE.RESTR>
0

>  <SCORE.RESTR.CAVITY>
0

>  <SCORE.RESTR.norm>
0

>  <SCORE.SYSTEM>
0

>  <SCORE.SYSTEM.CONST>
0

>  <SCORE.SYSTEM.DIHEDRAL>
0

>  <SCORE.SYSTEM.SOLV>
0

>  <SCORE.SYSTEM.norm>
0

>  <SCORE.heavy>
31

>  <SCORE.norm>
-0.320267

>  <RMSD>
6.694

$$$$
ligand
 OpenBabel11021811493D
libRbt.so/2013.1/901 2013/11/27
 31 33  0  0  0  0  0  0  0  0999 V2000
    3.0598   20.6011   35.7694 C   0  0  2  0  0  0  0  0  0  0  0  0
    3.0655   19.5883   34.7817 O   0  0  0  0  0  0  0  0  0  0  0  0
    1.1069   16.4826   36.9215 C   0  0  2  0  0  0  0  0  0  0  0  0
    0.4800   15.2327   37.1887 N   0  0  0  0  0  0  0  0  0  0  0  0
    2.7686   14.4796   38.2970 C   0  0  2  0  0  0  0  0  0  0  0  0
    3.0611   22.0102   35.0328 C   0  0  2  0  0  0  0  0  0  0  0  0
    1.8975   22.0934   34.1566 N   0  0  0  0  0  0  0  0  0  0  0  0
    0.2979   17.2064   35.7547 C   0  0  0  0  0  0  0  0  0  0  0  0
    3.9148   14.1119   39.2982 C   0  0  2  0  0  0  0  0  0  0  0  0
    4.2598   15.2659   40.0347 O   0  0  0  0  0  0  0  0  0  0  0  0
    4.3954   22.2101   34.2243 C   0  0  0  0  0  0  0  0  0  0  0  0
    0.9859   18.6038   35.4691 C   0  0  2  0  0  0  0  0  0  0  0  0
    0.2498   19.2874   34.4048 N   0  0  0  0  0  0  0  0  0  0  0  0
    5.1459   13.5844   38.4750 C   0  0  1  0  0  0  0  0  0  0  0  0
    6.2654   13.2388   39.4087 N   0  0  0  0  0  0  0  0  0  0  0  0
    5.6531   21.6581   35.0177 C   0  0  0  0  0  0  0  0  0  0  0  0
    2.4838   18.3564   35.0196 C   0  0  2  0  0  0  0  0  0  0  0  0
    4.6971   12.2523   37.6553 C   0  0  1  0  0  0  0  0  0  0  0  0
    4.2598   11.2025   38.4956 O   0  0  0  0  0  0  0  0  0  0  0  0
    5.5034   20.8737   36.1126 C   0  0  1  0  0  0  0  0  0  0  0  0
    4.2339   20.4896   36.6334 O   0  0  0  0  0  0  0  0  0  0  0  0
    3.2734   17.6145   36.1770 C   0  0  2  0  0  0  0  0  0  0  0  0
    4.6321   17.3803   35.7532 O   0  0  0  0  0  0  0  0  0  0  0  0
    3.5294   12.6161   36.6900 C   0  0  0  0  0  0  0  0  0  0  0  0
    2.3960   13.2626   37.4677 O   0  0  0  0  0  0  0  0  0  0  0  0
    6.6740   20.3224   36.8911 C   0  0  0  0  0  0  0  0  0  0  0  0
    6.4977   20.7510   38.2586 O   0  0  0  0  0  0  0  0  0  0  0  0
    2.5825   16.2271   36.4647 C   0  0  1  0  0  0  0  0  0  0  0  0
    3.2954   15.5917   37.4966 O   0  0  0  0  0  0  0  0  0  0  0  0
    5.8042   11.6299   36.7946 C   0  0  0  0  0  0  0  0  0  0  0  0
    5.9185   12.3697   40.5522 C   0  0  0  0  0  0  0  0  0  0  0  0
  1  2  1  6  0  0  0
  1  6  1  0  0  0  0
  1 21  1  0  0  0  0
  3  4  1  6  0  0  0
  3  8  1  0  0  0  0
  3 28  1  0  0  0  0
  5  9  1  0  0  0  0
  5 25  1  0  0  0  0
  5 29  1  6  0  0  0
  6  7  1  6  0  0  0
  6 11  1  0  0  0  0
  8 12  1  0  0  0  0
  9 10  1  6  0  0  0
  9 14  1  0  0  0  0
 11 16  1  0  0  0  0
 12 13  1  6  0  0  0
 12 17  1  0  0  0  0
 14 15  1  1  0  0  0
 14 18  1  0  0  0  0
 15 31  1  0  0  0  0
 16 20  1  0  0  0  0
 17  2  1  1  0  0  0
 17 22  1  0  0  0  0
 18 19  1  1  0  0  0
 18 24  1  0  0  0  0
 18 30  1  0  0  0  0
 20 21  1  0  0  0  0
 20 26  1  6  0  0  0
 22 23  1  6  0  0  0
 22 28  1  0  0  0  0
 24 25  1  0  0  0  0
 26 27  1  0  0  0  0
 28 29  1  1  0  0  0
M  END
>  <CHROM.1>
-150.55463632,179.70694961,50.20397516,54.55983547,124.16017425,43.77228457
3.66110956,16.96109197,36.82581415,1.67337475,-0.41077149,-0.33330082

>  <Name>
ligand

>  <RI>
0

>  <Rbt.Current_Directory>
/home/itssahil/PROJECTS/Mol_Feturizer/New_Systems/rnas/4GPY

>  <Rbt.Executable>
rbdock ($Id: //depot/dev/client3/rdock/2013.1/src/exe/rbdock.cxx#4 $)

>  <Rbt.Library>
libRbt.so (2013.1, Build901 2013/11/27)

>  <Rbt.Parameter_File>
/export/apps/rDock/src/rDock_2013.1_src/data/scripts/dock_solv.prm

>  <Rbt.Receptor>
prm/blind_docking_80.prm

>  <SCORE>
-1.58974

>  <SCORE.INTER>
-7.26045

>  <SCORE.INTER.CONST>
1

>  <SCORE.INTER.POLAR>
0

>  <SCORE.INTER.ROT>
6

>  <SCORE.INTER.SOLV>
17.1749

>  <SCORE.INTER.VDW>
-18.1653

>  <SCORE.INTER.norm>
-0.234208

>  <SCORE.INTRA>
1.60837

>  <SCORE.INTRA.DIHEDRAL>
-8.04891

>  <SCORE.INTRA.DIHEDRAL.0>
14.7001

>  <SCORE.INTRA.POLAR>
0

>  <SCORE.INTRA.POLAR.0>
0

>  <SCORE.INTRA.REPUL>
0

>  <SCORE.INTRA.REPUL.0>
0

>  <SCORE.INTRA.SOLV>
2.48329

>  <SCORE.INTRA.SOLV.lig_0>
-65.3082

>  <SCORE.INTRA.VDW>
4.39118

>  <SCORE.INTRA.VDW.0>
-4.21408

>  <SCORE.INTRA.norm>
0.0518828

>  <SCORE.RESTR>
4.06234

>  <SCORE.RESTR.CAVITY>
4.06234

>  <SCORE.RESTR.norm>
0.131043

>  <SCORE.SYSTEM>
0

>  <SCORE.SYSTEM.CONST>
0

>  <SCORE.SYSTEM.DIHEDRAL>
0

>  <SCORE.SYSTEM.SOLV>
0

>  <SCORE.SYSTEM.norm>
0

>  <SCORE.heavy>
31

>  <SCORE.norm>
-0.051282

>  <RMSD>
6.712

$$$$
ligand
 OpenBabel11021811493D
libRbt.so/2013.1/901 2013/11/27
 31 33  0  0  0  0  0  0  0  0999 V2000
    2.1486   15.1217   37.0844 C   0  0  2  0  0  0  0  0  0  0  0  0
    2.9184   14.1786   36.3638 O   0  0  0  0  0  0  0  0  0  0  0  0
    2.7560   10.0777   35.2611 C   0  0  2  0  0  0  0  0  0  0  0  0
    2.5415    8.6738   35.3611 N   0  0  0  0  0  0  0  0  0  0  0  0
   -0.9337   10.8447   34.4801 C   0  0  2  0  0  0  0  0  0  0  0  0
    2.3936   16.5550   36.4413 C   0  0  2  0  0  0  0  0  0  0  0  0
    2.0286   16.5148   35.0293 N   0  0  0  0  0  0  0  0  0  0  0  0
    3.7989   10.5038   36.3882 C   0  0  0  0  0  0  0  0  0  0  0  0
   -1.6670    9.7469   33.6384 C   0  0  2  0  0  0  0  0  0  0  0  0
   -1.4082    8.4852   34.2167 O   0  0  0  0  0  0  0  0  0  0  0  0
    3.8920   16.9956   36.6274 C   0  0  0  0  0  0  0  0  0  0  0  0
    4.0496   12.0626   36.2661 C   0  0  2  0  0  0  0  0  0  0  0  0
    5.0130   12.4707   37.2893 N   0  0  0  0  0  0  0  0  0  0  0  0
   -1.1285    9.8073   32.1626 C   0  0  1  0  0  0  0  0  0  0  0  0
   -1.8033    8.7551   31.3367 N   0  0  0  0  0  0  0  0  0  0  0  0
    4.4516   16.5915   38.0556 C   0  0  0  0  0  0  0  0  0  0  0  0
    2.6768   12.8218   36.4805 C   0  0  2  0  0  0  0  0  0  0  0  0
   -1.4607   11.2746   31.5425 C   0  0  1  0  0  0  0  0  0  0  0  0
   -2.8443   11.5640   31.5077 O   0  0  0  0  0  0  0  0  0  0  0  0
    3.7758   15.7327   38.8570 C   0  0  1  0  0  0  0  0  0  0  0  0
    2.5336   15.1361   38.4948 O   0  0  0  0  0  0  0  0  0  0  0  0
    1.6388   12.3731   35.3693 C   0  0  2  0  0  0  0  0  0  0  0  0
    0.3874   13.0584   35.5811 O   0  0  0  0  0  0  0  0  0  0  0  0
   -0.7612   12.3649   32.4081 C   0  0  0  0  0  0  0  0  0  0  0  0
   -1.1695   12.2127   33.8632 O   0  0  0  0  0  0  0  0  0  0  0  0
    4.2776   15.3173   40.2194 C   0  0  0  0  0  0  0  0  0  0  0  0
    3.3176   15.8091   41.1793 O   0  0  0  0  0  0  0  0  0  0  0  0
    1.3964   10.8200   35.4880 C   0  0  1  0  0  0  0  0  0  0  0  0
    0.4789   10.4454   34.4906 O   0  0  0  0  0  0  0  0  0  0  0  0
   -0.9810   11.4807   30.0998 C   0  0  0  0  0  0  0  0  0  0  0  0
   -1.0245    7.5259   31.0801 C   0  0  0  0  0  0  0  0  0  0  0  0
  1  2  1  6  0  0  0
  1  6  1  0  0  0  0
  1 21  1  0  0  0  0
  3  4  1  1  0  0  0
  3  8  1  0  0  0  0
  3 28  1  0  0  0  0
  5  9  1  0  0  0  0
  5 25  1  0  0  0  0
  5 29  1  6  0  0  0
  6  7  1  6  0  0  0
  6 11  1  0  0  0  0
  8 12  1  0  0  0  0
  9 10  1  1  0  0  0
  9 14  1  0  0  0  0
 11 16  1  0  0  0  0
 12 13  1  1  0  0  0
 12 17  1  0  0  0  0
 14 15  1  6  0  0  0
 14 18  1  0  0  0  0
 15 31  1  0  0  0  0
 16 20  1  0  0  0  0
 17  2  1  6  0  0  0
 17 22  1  0  0  0  0
 18 19  1  1  0  0  0
 18 24  1  0  0  0  0
 18 30  1  0  0  0  0
 20 21  1  0  0  0  0
 20 26  1  6  0  0  0
 22 23  1  1  0  0  0
 22 28  1  0  0  0  0
 24 25  1  0  0  0  0
 26 27  1  0  0  0  0
 28 29  1  6  0  0  0
M  END
>  <CHROM.1>
-164.60268364,-155.33605109,-101.11508299,-149.42084839,116.09212847,173.42256267
1.29945772,12.43002478,35.25089064,0.71470946,-0.83164496,0.12491047

>  <Name>
ligand

>  <RI>
0

>  <Rbt.Current_Directory>
/home/itssahil/PROJECTS/Mol_Feturizer/New_Systems/rnas/4GPY

>  <Rbt.Executable>
rbdock ($Id: //depot/dev/client3/rdock/2013.1/src/exe/rbdock.cxx#4 $)

>  <Rbt.Library>
libRbt.so (2013.1, Build901 2013/11/27)

>  <Rbt.Parameter_File>
/export/apps/rDock/src/rDock_2013.1_src/data/scripts/dock_solv.prm

>  <Rbt.Receptor>
prm/pocket_docking_8.prm

>  <SCORE>
-11.4812

>  <SCORE.INTER>
-10.1376

>  <SCORE.INTER.CONST>
1

>  <SCORE.INTER.POLAR>
0

>  <SCORE.INTER.ROT>
6

>  <SCORE.INTER.SOLV>
17.1797

>  <SCORE.INTER.VDW>
-20.085

>  <SCORE.INTER.norm>
-0.327019

>  <SCORE.INTRA>
-1.34362

>  <SCORE.INTRA.DIHEDRAL>
-4.42735

>  <SCORE.INTRA.DIHEDRAL.0>
14.7001

>  <SCORE.INTRA.POLAR>
0

>  <SCORE.INTRA.POLAR.0>
0

>  <SCORE.INTRA.REPUL>
0

>  <SCORE.INTRA.REPUL.0>
0

>  <SCORE.INTRA.SOLV>
-0.610708

>  <SCORE.INTRA.SOLV.lig_0>
-65.3082

>  <SCORE.INTRA.VDW>
1.17541

>  <SCORE.INTRA.VDW.0>
-4.21408

>  <SCORE.INTRA.norm>
-0.0433425

>  <SCORE.RESTR>
0

>  <SCORE.RESTR.CAVITY>
0

>  <SCORE.RESTR.norm>
0

>  <SCORE.SYSTEM>
0

>  <SCORE.SYSTEM.CONST>
0

>  <SCORE.SYSTEM.DIHEDRAL>
0

>  <SCORE.SYSTEM.SOLV>
0

>  <SCORE.SYSTEM.norm>
0

>  <SCORE.heavy>
31

>  <SCORE.norm>
-0.370362

>  <RMSD>
6.717

$$$$
ligand
 OpenBabel11021811493D
libRbt.so/2013.1/901 2013/11/27
 31 33  0  0  0  0  0  0  0  0999 V2000
    3.1608   21.0937   34.9109 C   0  0  2  0  0  0  0  0  0  0  0  0
    3.0662   20.8655   36.3039 O   0  0  0  0  0  0  0  0  0  0  0  0
    4.2851   16.7970   36.4502 C   0  0  2  0  0  0  0  0  0  0  0  0
    4.6178   15.5193   36.9828 N   0  0  0  0  0  0  0  0  0  0  0  0
    1.4738   14.9459   36.8528 C   0  0  2  0  0  0  0  0  0  0  0  0
    3.3396   22.6562   34.6767 C   0  0  2  0  0  0  0  0  0  0  0  0
    4.5281   23.1139   35.3884 N   0  0  0  0  0  0  0  0  0  0  0  0
    5.2339   17.8824   37.1295 C   0  0  0  0  0  0  0  0  0  0  0  0
   -0.0429   15.2055   37.1412 C   0  0  2  0  0  0  0  0  0  0  0  0
   -0.6897   15.5086   35.9234 O   0  0  0  0  0  0  0  0  0  0  0  0
    2.0588   23.4363   35.1511 C   0  0  0  0  0  0  0  0  0  0  0  0
    4.8747   19.3011   36.5247 C   0  0  2  0  0  0  0  0  0  0  0  0
    5.7435   20.3104   37.1315 N   0  0  0  0  0  0  0  0  0  0  0  0
   -0.1605   16.4047   38.1510 C   0  0  1  0  0  0  0  0  0  0  0  0
   -1.6047   16.6856   38.4335 N   0  0  0  0  0  0  0  0  0  0  0  0
    0.7257   22.6622   34.7777 C   0  0  0  0  0  0  0  0  0  0  0  0
    3.3588   19.6271   36.8455 C   0  0  2  0  0  0  0  0  0  0  0  0
    0.5908   15.9996   39.5364 C   0  0  1  0  0  0  0  0  0  0  0  0
    0.0348   14.8578   40.1579 O   0  0  0  0  0  0  0  0  0  0  0  0
    0.7558   21.3727   34.3619 C   0  0  1  0  0  0  0  0  0  0  0  0
    1.9588   20.6216   34.2253 O   0  0  0  0  0  0  0  0  0  0  0  0
    2.4249   18.5286   36.1861 C   0  0  2  0  0  0  0  0  0  0  0  0
    1.0478   18.8254   36.4957 O   0  0  0  0  0  0  0  0  0  0  0  0
    2.0907   15.7035   39.2360 C   0  0  0  0  0  0  0  0  0  0  0  0
    2.2033   14.6463   38.1511 O   0  0  0  0  0  0  0  0  0  0  0  0
   -0.4905   20.5986   34.0042 C   0  0  0  0  0  0  0  0  0  0  0  0
   -0.4180   19.3473   34.7211 O   0  0  0  0  0  0  0  0  0  0  0  0
    2.7893   17.1164   36.7842 C   0  0  1  0  0  0  0  0  0  0  0  0
    1.9537   16.1598   36.1811 O   0  0  0  0  0  0  0  0  0  0  0  0
    0.5633   17.0871   40.6183 C   0  0  0  0  0  0  0  0  0  0  0  0
   -2.3722   15.5921   39.0649 C   0  0  0  0  0  0  0  0  0  0  0  0
  1  2  1  1  0  0  0
  1  6  1  0  0  0  0
  1 21  1  0  0  0  0
  3  4  1  1  0  0  0
  3  8  1  0  0  0  0
  3 28  1  0  0  0  0
  5  9  1  0  0  0  0
  5 25  1  0  0  0  0
  5 29  1  1  0  0  0
  6  7  1  1  0  0  0
  6 11  1  0  0  0  0
  8 12  1  0  0  0  0
  9 10  1  6  0  0  0
  9 14  1  0  0  0  0
 11 16  1  0  0  0  0
 12 13  1  1  0  0  0
 12 17  1  0  0  0  0
 14 15  1  1  0  0  0
 14 18  1  0  0  0  0
 15 31  1  0  0  0  0
 16 20  1  0  0  0  0
 17  2  1  6  0  0  0
 17 22  1  0  0  0  0
 18 19  1  1  0  0  0
 18 24  1  0  0  0  0
 18 30  1  0  0  0  0
 20 21  1  0  0  0  0
 20 26  1  1  0  0  0
 22 23  1  1  0  0  0
 22 28  1  0  0  0  0
 24 25  1  0  0  0  0
 26 27  1  0  0  0  0
 28 29  1  6  0  0  0
M  END
>  <CHROM.1>
-157.72187464,107.18384467,61.73095858,61.49876008,-130.09383606,93.82928300
1.79604759,18.30984968,36.73143020,-1.24690765,0.08027770,2.61668635

>  <Name>
ligand

>  <RI>
0

>  <Rbt.Current_Directory>
/home/itssahil/PROJECTS/Mol_Feturizer/New_Systems/rnas/4GPY

>  <Rbt.Executable>
rbdock ($Id: //depot/dev/client3/rdock/2013.1/src/exe/rbdock.cxx#4 $)

>  <Rbt.Library>
libRbt.so (2013.1, Build901 2013/11/27)

>  <Rbt.Parameter_File>
/export/apps/rDock/src/rDock_2013.1_src/data/scripts/dock_solv.prm

>  <Rbt.Receptor>
prm/blind_docking_60.prm

>  <SCORE>
82.5423

>  <SCORE.INTER>
62.4572

>  <SCORE.INTER.CONST>
1

>  <SCORE.INTER.POLAR>
0

>  <SCORE.INTER.ROT>
6

>  <SCORE.INTER.SOLV>
25.333

>  <SCORE.INTER.VDW>
25.5938

>  <SCORE.INTER.norm>
2.01475

>  <SCORE.INTRA>
6.49586

>  <SCORE.INTRA.DIHEDRAL>
0.0447425

>  <SCORE.INTRA.DIHEDRAL.0>
14.7001

>  <SCORE.INTRA.POLAR>
0

>  <SCORE.INTRA.POLAR.0>
0

>  <SCORE.INTRA.REPUL>
0.0505731

>  <SCORE.INTRA.REPUL.0>
0

>  <SCORE.INTRA.SOLV>
3.32665

>  <SCORE.INTRA.SOLV.lig_0>
-65.3082

>  <SCORE.INTRA.VDW>
4.5573

>  <SCORE.INTRA.VDW.0>
-4.21408

>  <SCORE.INTRA.norm>
0.209544

>  <SCORE.RESTR>
13.5893

>  <SCORE.RESTR.CAVITY>
13.5893

>  <SCORE.RESTR.norm>
0.438363

>  <SCORE.SYSTEM>
0

>  <SCORE.SYSTEM.CONST>
0

>  <SCORE.SYSTEM.DIHEDRAL>
0

>  <SCORE.SYSTEM.SOLV>
0

>  <SCORE.SYSTEM.norm>
0

>  <SCORE.heavy>
31

>  <SCORE.norm>
2.66266

>  <RMSD>
6.735

$$$$
ligand
 OpenBabel11021811493D
libRbt.so/2013.1/901 2013/11/27
 31 33  0  0  0  0  0  0  0  0999 V2000
    3.6061   19.8965   34.5621 C   0  0  2  0  0  0  0  0  0  0  0  0
    3.0469   19.2439   35.6858 O   0  0  0  0  0  0  0  0  0  0  0  0
    1.1422   15.6384   36.8827 C   0  0  2  0  0  0  0  0  0  0  0  0
    0.5423   14.3503   36.7948 N   0  0  0  0  0  0  0  0  0  0  0  0
    4.7596   14.8451   37.5839 C   0  0  2  0  0  0  0  0  0  0  0  0
    4.1495   21.3145   35.0333 C   0  0  2  0  0  0  0  0  0  0  0  0
    5.1282   21.1223   36.0981 N   0  0  0  0  0  0  0  0  0  0  0  0
    0.3271   16.6329   35.9413 C   0  0  0  0  0  0  0  0  0  0  0  0
    5.2762   13.4116   37.9435 C   0  0  2  0  0  0  0  0  0  0  0  0
    5.0374   12.5560   36.8461 O   0  0  0  0  0  0  0  0  0  0  0  0
    2.9632   22.2298   35.5118 C   0  0  0  0  0  0  0  0  0  0  0  0
    0.9847   18.0692   36.0520 C   0  0  2  0  0  0  0  0  0  0  0  0
    0.2425   18.9988   35.1995 N   0  0  0  0  0  0  0  0  0  0  0  0
    4.5089   12.9108   39.2209 C   0  0  1  0  0  0  0  0  0  0  0  0
    4.9734   11.5322   39.5794 N   0  0  0  0  0  0  0  0  0  0  0  0
    1.6843   22.0675   34.5876 C   0  0  0  0  0  0  0  0  0  0  0  0
    2.4920   17.9819   35.5751 C   0  0  2  0  0  0  0  0  0  0  0  0
    4.8259   13.9240   40.4542 C   0  0  1  0  0  0  0  0  0  0  0  0
    6.2006   13.9940   40.7779 O   0  0  0  0  0  0  0  0  0  0  0  0
    1.5880   21.0529   33.6944 C   0  0  1  0  0  0  0  0  0  0  0  0
    2.6041   20.0709   33.5118 O   0  0  0  0  0  0  0  0  0  0  0  0
    3.2883   16.9722   36.5025 C   0  0  2  0  0  0  0  0  0  0  0  0
    4.6558   16.8880   36.0519 O   0  0  0  0  0  0  0  0  0  0  0  0
    4.3460   15.3567   40.0741 C   0  0  0  0  0  0  0  0  0  0  0  0
    4.9759   15.7828   38.7592 O   0  0  0  0  0  0  0  0  0  0  0  0
    0.3853   20.8593   32.8020 C   0  0  0  0  0  0  0  0  0  0  0  0
   -0.7578   21.3408   33.5411 O   0  0  0  0  0  0  0  0  0  0  0  0
    2.6274   15.5449   36.3964 C   0  0  1  0  0  0  0  0  0  0  0  0
    3.3457   14.6699   37.2303 O   0  0  0  0  0  0  0  0  0  0  0  0
    4.1309   13.5605   41.7729 C   0  0  0  0  0  0  0  0  0  0  0  0
    4.6028   10.4527   38.6410 C   0  0  0  0  0  0  0  0  0  0  0  0
  1  2  1  1  0  0  0
  1  6  1  0  0  0  0
  1 21  1  0  0  0  0
  3  4  1  6  0  0  0
  3  8  1  0  0  0  0
  3 28  1  0  0  0  0
  5  9  1  0  0  0  0
  5 25  1  0  0  0  0
  5 29  1  1  0  0  0
  6  7  1  1  0  0  0
  6 11  1  0  0  0  0
  8 12  1  0  0  0  0
  9 10  1  6  0  0  0
  9 14  1  0  0  0  0
 11 16  1  0  0  0  0
 12 13  1  6  0  0  0
 12 17  1  0  0  0  0
 14 15  1  1  0  0  0
 14 18  1  0  0  0  0
 15 31  1  0  0  0  0
 16 20  1  0  0  0  0
 17  2  1  1  0  0  0
 17 22  1  0  0  0  0
 18 19  1  1  0  0  0
 18 24  1  0  0  0  0
 18 30  1  0  0  0  0
 20 21  1  0  0  0  0
 20 26  1  1  0  0  0
 22 23  1  6  0  0  0
 22 28  1  0  0  0  0
 24 25  1  0  0  0  0
 26 27  1  0  0  0  0
 28 29  1  1  0  0  0
M  END
>  <CHROM.1>
179.99586000,-155.47657220,-68.48633769,-121.95996376,-31.67289373,-145.52155864
3.16711409,16.86429303,36.75452296,-1.93433133,0.52680444,2.76228650

>  <Name>
ligand

>  <RI>
0

>  <Rbt.Current_Directory>
/home/itssahil/PROJECTS/Mol_Feturizer/New_Systems/rnas/4GPY

>  <Rbt.Executable>
rbdock ($Id: //depot/dev/client3/rdock/2013.1/src/exe/rbdock.cxx#4 $)

>  <Rbt.Library>
libRbt.so (2013.1, Build901 2013/11/27)

>  <Rbt.Parameter_File>
/export/apps/rDock/src/rDock_2013.1_src/data/scripts/dock_solv.prm

>  <Rbt.Receptor>
prm/blind_docking_80.prm

>  <SCORE>
1.34385

>  <SCORE.INTER>
-7.48526

>  <SCORE.INTER.CONST>
1

>  <SCORE.INTER.POLAR>
0

>  <SCORE.INTER.ROT>
6

>  <SCORE.INTER.SOLV>
15.0071

>  <SCORE.INTER.VDW>
-17.5926

>  <SCORE.INTER.norm>
-0.24146

>  <SCORE.INTRA>
7.03232

>  <SCORE.INTRA.DIHEDRAL>
2.27833

>  <SCORE.INTRA.DIHEDRAL.0>
14.7001

>  <SCORE.INTRA.POLAR>
0

>  <SCORE.INTRA.POLAR.0>
0

>  <SCORE.INTRA.REPUL>
0

>  <SCORE.INTRA.REPUL.0>
0

>  <SCORE.INTRA.SOLV>
1.85466

>  <SCORE.INTRA.SOLV.lig_0>
-65.3082

>  <SCORE.INTRA.VDW>
4.96583

>  <SCORE.INTRA.VDW.0>
-4.21408

>  <SCORE.INTRA.norm>
0.226849

>  <SCORE.RESTR>
1.79679

>  <SCORE.RESTR.CAVITY>
1.79679

>  <SCORE.RESTR.norm>
0.0579609

>  <SCORE.SYSTEM>
0

>  <SCORE.SYSTEM.CONST>
0

>  <SCORE.SYSTEM.DIHEDRAL>
0

>  <SCORE.SYSTEM.SOLV>
0

>  <SCORE.SYSTEM.norm>
0

>  <SCORE.heavy>
31

>  <SCORE.norm>
0.04335

>  <RMSD>
6.749

$$$$
ligand
 OpenBabel11021811493D
libRbt.so/2013.1/901 2013/11/27
 31 33  0  0  0  0  0  0  0  0999 V2000
    3.7743   19.9104   34.8040 C   0  0  2  0  0  0  0  0  0  0  0  0
    3.0934   19.2525   35.8551 O   0  0  0  0  0  0  0  0  0  0  0  0
    1.2207   15.5715   36.8566 C   0  0  2  0  0  0  0  0  0  0  0  0
    0.6416   14.2802   36.7010 N   0  0  0  0  0  0  0  0  0  0  0  0
    4.8303   14.8082   37.6062 C   0  0  2  0  0  0  0  0  0  0  0  0
    4.2457   21.3333   35.3343 C   0  0  2  0  0  0  0  0  0  0  0  0
    5.0948   21.1500   36.5064 N   0  0  0  0  0  0  0  0  0  0  0  0
    0.4083   16.5950   35.9445 C   0  0  0  0  0  0  0  0  0  0  0  0
    5.3465   13.3802   37.9879 C   0  0  2  0  0  0  0  0  0  0  0  0
    5.1547   12.5200   36.8850 O   0  0  0  0  0  0  0  0  0  0  0  0
    3.0031   22.2375   35.6697 C   0  0  0  0  0  0  0  0  0  0  0  0
    1.0424   18.0341   36.1305 C   0  0  2  0  0  0  0  0  0  0  0  0
    0.3022   18.9900   35.3057 N   0  0  0  0  0  0  0  0  0  0  0  0
    4.5385   12.8755   39.2385 C   0  0  1  0  0  0  0  0  0  0  0  0
    5.0022   11.5021   39.6171 N   0  0  0  0  0  0  0  0  0  0  0  0
    1.8428   22.0635   34.6024 C   0  0  0  0  0  0  0  0  0  0  0  0
    2.5593   17.9890   35.6788 C   0  0  2  0  0  0  0  0  0  0  0  0
    4.8022   13.8945   40.4796 C   0  0  1  0  0  0  0  0  0  0  0  0
    6.1637   13.9777   40.8520 O   0  0  0  0  0  0  0  0  0  0  0  0
    1.8610   21.0482   33.7049 C   0  0  1  0  0  0  0  0  0  0  0  0
    2.9005   20.0757   33.6435 O   0  0  0  0  0  0  0  0  0  0  0  0
    3.3534   16.9505   36.5758 C   0  0  2  0  0  0  0  0  0  0  0  0
    4.7300   16.9054   36.1478 O   0  0  0  0  0  0  0  0  0  0  0  0
    4.3233   15.3219   40.0787 C   0  0  0  0  0  0  0  0  0  0  0  0
    4.9961   15.7506   38.7861 O   0  0  0  0  0  0  0  0  0  0  0  0
    0.7729   20.8436   32.6781 C   0  0  0  0  0  0  0  0  0  0  0  0
   -0.4542   21.3091   33.2800 O   0  0  0  0  0  0  0  0  0  0  0  0
    2.7157   15.5202   36.3947 C   0  0  1  0  0  0  0  0  0  0  0  0
    3.4315   14.6194   37.2029 O   0  0  0  0  0  0  0  0  0  0  0  0
    4.0638   13.5279   41.7736 C   0  0  0  0  0  0  0  0  0  0  0  0
    4.6569   10.4138   38.6792 C   0  0  0  0  0  0  0  0  0  0  0  0
  1  2  1  1  0  0  0
  1  6  1  0  0  0  0
  1 21  1  0  0  0  0
  3  4  1  6  0  0  0
  3  8  1  0  0  0  0
  3 28  1  0  0  0  0
  5  9  1  0  0  0  0
  5 25  1  0  0  0  0
  5 29  1  1  0  0  0
  6  7  1  1  0  0  0
  6 11  1  0  0  0  0
  8 12  1  0  0  0  0
  9 10  1  6  0  0  0
  9 14  1  0  0  0  0
 11 16  1  0  0  0  0
 12 13  1  6  0  0  0
 12 17  1  0  0  0  0
 14 15  1  1  0  0  0
 14 18  1  0  0  0  0
 15 31  1  0  0  0  0
 16 20  1  0  0  0  0
 17  2  1  1  0  0  0
 17 22  1  0  0  0  0
 18 19  1  1  0  0  0
 18 24  1  0  0  0  0
 18 30  1  0  0  0  0
 20 21  1  0  0  0  0
 20 26  1  1  0  0  0
 22 23  1  6  0  0  0
 22 28  1  0  0  0  0
 24 25  1  0  0  0  0
 26 27  1  0  0  0  0
 28 29  1  1  0  0  0
M  END
>  <CHROM.1>
179.57012650,-158.74636211,-69.39386891,-127.94006375,-31.91194991,-144.60723751
3.25607763,16.84436495,36.80764699,-1.92943068,0.59106771,2.78559977

>  <Name>
ligand

>  <RI>
0

>  <Rbt.Current_Directory>
/home/itssahil/PROJECTS/Mol_Feturizer/New_Systems/rnas/4GPY

>  <Rbt.Executable>
rbdock ($Id: //depot/dev/client3/rdock/2013.1/src/exe/rbdock.cxx#4 $)

>  <Rbt.Library>
libRbt.so (2013.1, Build901 2013/11/27)

>  <Rbt.Parameter_File>
/export/apps/rDock/src/rDock_2013.1_src/data/scripts/dock_solv.prm

>  <Rbt.Receptor>
prm/blind_docking_80.prm

>  <SCORE>
1.1574

>  <SCORE.INTER>
-6.93386

>  <SCORE.INTER.CONST>
1

>  <SCORE.INTER.POLAR>
0

>  <SCORE.INTER.ROT>
6

>  <SCORE.INTER.SOLV>
15.4833

>  <SCORE.INTER.VDW>
-17.3837

>  <SCORE.INTER.norm>
-0.223673

>  <SCORE.INTRA>
6.20731

>  <SCORE.INTRA.DIHEDRAL>
1.60935

>  <SCORE.INTRA.DIHEDRAL.0>
14.7001

>  <SCORE.INTRA.POLAR>
0

>  <SCORE.INTRA.POLAR.0>
0

>  <SCORE.INTRA.REPUL>
0

>  <SCORE.INTRA.REPUL.0>
0

>  <SCORE.INTRA.SOLV>
1.40692

>  <SCORE.INTRA.SOLV.lig_0>
-65.3082

>  <SCORE.INTRA.VDW>
4.69918

>  <SCORE.INTRA.VDW.0>
-4.21408

>  <SCORE.INTRA.norm>
0.200236

>  <SCORE.RESTR>
1.88394

>  <SCORE.RESTR.CAVITY>
1.88394

>  <SCORE.RESTR.norm>
0.0607724

>  <SCORE.SYSTEM>
0

>  <SCORE.SYSTEM.CONST>
0

>  <SCORE.SYSTEM.DIHEDRAL>
0

>  <SCORE.SYSTEM.SOLV>
0

>  <SCORE.SYSTEM.norm>
0

>  <SCORE.heavy>
31

>  <SCORE.norm>
0.0373354

>  <RMSD>
6.750

$$$$
ligand
 OpenBabel11021811493D
libRbt.so/2013.1/901 2013/11/27
 31 33  0  0  0  0  0  0  0  0999 V2000
    4.1226   20.9312   34.6004 C   0  0  2  0  0  0  0  0  0  0  0  0
    3.7377   19.5704   34.6371 O   0  0  0  0  0  0  0  0  0  0  0  0
    4.6452   16.4959   37.4271 C   0  0  2  0  0  0  0  0  0  0  0  0
    4.6695   15.7616   38.6465 N   0  0  0  0  0  0  0  0  0  0  0  0
    2.1335   14.4199   37.7081 C   0  0  2  0  0  0  0  0  0  0  0  0
    3.0304   21.7318   33.7671 C   0  0  2  0  0  0  0  0  0  0  0  0
    1.7240   21.5489   34.3904 N   0  0  0  0  0  0  0  0  0  0  0  0
    5.2256   17.9526   37.7110 C   0  0  0  0  0  0  0  0  0  0  0  0
    2.6150   12.9877   37.2979 C   0  0  2  0  0  0  0  0  0  0  0  0
    4.0214   13.0009   37.1757 O   0  0  0  0  0  0  0  0  0  0  0  0
    3.0165   21.2516   32.2694 C   0  0  0  0  0  0  0  0  0  0  0  0
    5.2137   18.7635   36.3509 C   0  0  2  0  0  0  0  0  0  0  0  0
    5.7525   20.1028   36.5912 N   0  0  0  0  0  0  0  0  0  0  0  0
    1.9379   12.6062   35.9313 C   0  0  1  0  0  0  0  0  0  0  0  0
    2.3937   11.2438   35.5064 N   0  0  0  0  0  0  0  0  0  0  0  0
    4.4813   20.9823   31.7236 C   0  0  0  0  0  0  0  0  0  0  0  0
    3.7232   18.8648   35.8265 C   0  0  2  0  0  0  0  0  0  0  0  0
    0.3229   12.5963   36.1306 C   0  0  1  0  0  0  0  0  0  0  0  0
   -0.1126   11.6650   37.1013 O   0  0  0  0  0  0  0  0  0  0  0  0
    5.5424   20.9163   32.5640 C   0  0  1  0  0  0  0  0  0  0  0  0
    5.4355   21.0821   33.9751 O   0  0  0  0  0  0  0  0  0  0  0  0
    3.1468   17.4102   35.5702 C   0  0  2  0  0  0  0  0  0  0  0  0
    1.7847   17.5118   35.1071 O   0  0  0  0  0  0  0  0  0  0  0  0
   -0.1449   14.0137   36.5776 C   0  0  0  0  0  0  0  0  0  0  0  0
    0.6186   14.4445   37.8181 O   0  0  0  0  0  0  0  0  0  0  0  0
    6.9506   20.6549   32.0855 C   0  0  0  0  0  0  0  0  0  0  0  0
    7.3334   19.3676   32.6158 O   0  0  0  0  0  0  0  0  0  0  0  0
    3.1665   16.6025   36.9239 C   0  0  1  0  0  0  0  0  0  0  0  0
    2.6575   15.3166   36.6706 O   0  0  0  0  0  0  0  0  0  0  0  0
   -0.4734   12.2464   34.8668 C   0  0  0  0  0  0  0  0  0  0  0  0
    3.7526   11.1584   34.9323 C   0  0  0  0  0  0  0  0  0  0  0  0
  1  2  1  6  0  0  0
  1  6  1  0  0  0  0
  1 21  1  0  0  0  0
  3  4  1  1  0  0  0
  3  8  1  0  0  0  0
  3 28  1  0  0  0  0
  5  9  1  0  0  0  0
  5 25  1  0  0  0  0
  5 29  1  6  0  0  0
  6  7  1  1  0  0  0
  6 11  1  0  0  0  0
  8 12  1  0  0  0  0
  9 10  1  6  0  0  0
  9 14  1  0  0  0  0
 11 16  1  0  0  0  0
 12 13  1  1  0  0  0
 12 17  1  0  0  0  0
 14 15  1  1  0  0  0
 14 18  1  0  0  0  0
 15 31  1  0  0  0  0
 16 20  1  0  0  0  0
 17  2  1  6  0  0  0
 17 22  1  0  0  0  0
 18 19  1  1  0  0  0
 18 24  1  0  0  0  0
 18 30  1  0  0  0  0
 20 21  1  0  0  0  0
 20 26  1  1  0  0  0
 22 23  1  1  0  0  0
 22 28  1  0  0  0  0
 24 25  1  0  0  0  0
 26 27  1  0  0  0  0
 28 29  1  6  0  0  0
M  END
>  <CHROM.1>
-131.53990061,-141.43943434,-76.78296689,-64.98444469,-113.72921621,81.08150433
3.29897061,16.84564792,35.49118014,1.17213104,-0.38471603,-0.50943755

>  <Name>
ligand

>  <RI>
0

>  <Rbt.Current_Directory>
/home/itssahil/PROJECTS/Mol_Feturizer/New_Systems/rnas/4GPY

>  <Rbt.Executable>
rbdock ($Id: //depot/dev/client3/rdock/2013.1/src/exe/rbdock.cxx#4 $)

>  <Rbt.Library>
libRbt.so (2013.1, Build901 2013/11/27)

>  <Rbt.Parameter_File>
/export/apps/rDock/src/rDock_2013.1_src/data/scripts/dock_solv.prm

>  <Rbt.Receptor>
prm/pocket_docking_8.prm

>  <SCORE>
-9.89241

>  <SCORE.INTER>
-13.0288

>  <SCORE.INTER.CONST>
1

>  <SCORE.INTER.POLAR>
0

>  <SCORE.INTER.ROT>
6

>  <SCORE.INTER.SOLV>
15.2736

>  <SCORE.INTER.VDW>
-21.3771

>  <SCORE.INTER.norm>
-0.420284

>  <SCORE.INTRA>
3.13638

>  <SCORE.INTRA.DIHEDRAL>
1.07702

>  <SCORE.INTRA.DIHEDRAL.0>
14.7001

>  <SCORE.INTRA.POLAR>
0

>  <SCORE.INTRA.POLAR.0>
0

>  <SCORE.INTRA.REPUL>
0

>  <SCORE.INTRA.REPUL.0>
0

>  <SCORE.INTRA.SOLV>
1.38487

>  <SCORE.INTRA.SOLV.lig_0>
-65.3082

>  <SCORE.INTRA.VDW>
1.90544

>  <SCORE.INTRA.VDW.0>
-4.21408

>  <SCORE.INTRA.norm>
0.101174

>  <SCORE.RESTR>
0

>  <SCORE.RESTR.CAVITY>
0

>  <SCORE.RESTR.norm>
0

>  <SCORE.SYSTEM>
0

>  <SCORE.SYSTEM.CONST>
0

>  <SCORE.SYSTEM.DIHEDRAL>
0

>  <SCORE.SYSTEM.SOLV>
0

>  <SCORE.SYSTEM.norm>
0

>  <SCORE.heavy>
31

>  <SCORE.norm>
-0.31911

>  <RMSD>
6.761

$$$$
ligand
 OpenBabel11021811493D
libRbt.so/2013.1/901 2013/11/27
 31 33  0  0  0  0  0  0  0  0999 V2000
    3.8494   19.7581   34.9212 C   0  0  2  0  0  0  0  0  0  0  0  0
    3.3578   19.0716   36.0562 O   0  0  0  0  0  0  0  0  0  0  0  0
    1.5789   15.3161   36.9460 C   0  0  2  0  0  0  0  0  0  0  0  0
    1.3307   13.9145   36.9194 N   0  0  0  0  0  0  0  0  0  0  0  0
    4.4282   15.0417   39.5201 C   0  0  2  0  0  0  0  0  0  0  0  0
    4.5415   21.1010   35.4168 C   0  0  2  0  0  0  0  0  0  0  0  0
    5.6045   20.7717   36.3603 N   0  0  0  0  0  0  0  0  0  0  0  0
    1.4291   15.8768   35.4618 C   0  0  0  0  0  0  0  0  0  0  0  0
    5.4693   14.4050   38.5393 C   0  0  2  0  0  0  0  0  0  0  0  0
    5.4975   15.1678   37.3517 O   0  0  0  0  0  0  0  0  0  0  0  0
    3.4806   22.0612   36.0700 C   0  0  0  0  0  0  0  0  0  0  0  0
    1.6892   17.4385   35.4946 C   0  0  2  0  0  0  0  0  0  0  0  0
    1.5468   17.9727   34.1395 N   0  0  0  0  0  0  0  0  0  0  0  0
    5.0343   12.9236   38.2430 C   0  0  1  0  0  0  0  0  0  0  0  0
    6.0065   12.2936   37.2930 N   0  0  0  0  0  0  0  0  0  0  0  0
    2.1074   22.0487   35.2761 C   0  0  0  0  0  0  0  0  0  0  0  0
    3.1553   17.7037   36.0305 C   0  0  2  0  0  0  0  0  0  0  0  0
    5.0281   12.0891   39.6400 C   0  0  1  0  0  0  0  0  0  0  0  0
    6.2935   12.0481   40.2696 O   0  0  0  0  0  0  0  0  0  0  0  0
    1.8469   21.1050   34.3390 C   0  0  1  0  0  0  0  0  0  0  0  0
    2.7635   20.0704   33.9933 O   0  0  0  0  0  0  0  0  0  0  0  0
    3.3015   17.1209   37.4977 C   0  0  2  0  0  0  0  0  0  0  0  0
    4.6436   17.3539   37.9718 O   0  0  0  0  0  0  0  0  0  0  0  0
    4.0198   12.7516   40.6258 C   0  0  0  0  0  0  0  0  0  0  0  0
    4.3535   14.2234   40.7978 O   0  0  0  0  0  0  0  0  0  0  0  0
    0.5501   21.0541   33.5669 C   0  0  0  0  0  0  0  0  0  0  0  0
   -0.3286   20.1701   34.2958 O   0  0  0  0  0  0  0  0  0  0  0  0
    3.0349   15.5676   37.4638 C   0  0  1  0  0  0  0  0  0  0  0  0
    3.1640   15.0753   38.7745 O   0  0  0  0  0  0  0  0  0  0  0  0
    4.6110   10.6191   39.5028 C   0  0  0  0  0  0  0  0  0  0  0  0
    5.4832   11.1949   36.4548 C   0  0  0  0  0  0  0  0  0  0  0  0
  1  2  1  1  0  0  0
  1  6  1  0  0  0  0
  1 21  1  0  0  0  0
  3  4  1  6  0  0  0
  3  8  1  0  0  0  0
  3 28  1  0  0  0  0
  5  9  1  0  0  0  0
  5 25  1  0  0  0  0
  5 29  1  6  0  0  0
  6  7  1  1  0  0  0
  6 11  1  0  0  0  0
  8 12  1  0  0  0  0
  9 10  1  6  0  0  0
  9 14  1  0  0  0  0
 11 16  1  0  0  0  0
 12 13  1  6  0  0  0
 12 17  1  0  0  0  0
 14 15  1  6  0  0  0
 14 18  1  0  0  0  0
 15 31  1  0  0  0  0
 16 20  1  0  0  0  0
 17  2  1  1  0  0  0
 17 22  1  0  0  0  0
 18 19  1  1  0  0  0
 18 24  1  0  0  0  0
 18 30  1  0  0  0  0
 20 21  1  0  0  0  0
 20 26  1  1  0  0  0
 22 23  1  6  0  0  0
 22 28  1  0  0  0  0
 24 25  1  0  0  0  0
 26 27  1  0  0  0  0
 28 29  1  1  0  0  0
M  END
>  <CHROM.1>
-156.11714306,-48.58658312,-153.64445164,-88.08643059,-92.81544420,174.47678602
3.52108007,16.54397278,36.95782404,-1.91332255,0.58854904,2.84848807

>  <Name>
ligand

>  <RI>
0

>  <Rbt.Current_Directory>
/home/itssahil/PROJECTS/Mol_Feturizer/New_Systems/rnas/4GPY

>  <Rbt.Executable>
rbdock ($Id: //depot/dev/client3/rdock/2013.1/src/exe/rbdock.cxx#4 $)

>  <Rbt.Library>
libRbt.so (2013.1, Build901 2013/11/27)

>  <Rbt.Parameter_File>
/export/apps/rDock/src/rDock_2013.1_src/data/scripts/dock_solv.prm

>  <Rbt.Receptor>
prm/blind_docking_100.prm

>  <SCORE>
0.195941

>  <SCORE.INTER>
-8.50292

>  <SCORE.INTER.CONST>
1

>  <SCORE.INTER.POLAR>
0

>  <SCORE.INTER.ROT>
6

>  <SCORE.INTER.SOLV>
17.6222

>  <SCORE.INTER.VDW>
-19.1427

>  <SCORE.INTER.norm>
-0.274288

>  <SCORE.INTRA>
4.43934

>  <SCORE.INTRA.DIHEDRAL>
-5.22619

>  <SCORE.INTRA.DIHEDRAL.0>
14.7001

>  <SCORE.INTRA.POLAR>
0

>  <SCORE.INTRA.POLAR.0>
0

>  <SCORE.INTRA.REPUL>
0

>  <SCORE.INTRA.REPUL.0>
0

>  <SCORE.INTRA.SOLV>
3.24741

>  <SCORE.INTRA.SOLV.lig_0>
-65.3082

>  <SCORE.INTRA.VDW>
5.42873

>  <SCORE.INTRA.VDW.0>
-4.21408

>  <SCORE.INTRA.norm>
0.143205

>  <SCORE.RESTR>
4.25952

>  <SCORE.RESTR.CAVITY>
4.25952

>  <SCORE.RESTR.norm>
0.137404

>  <SCORE.SYSTEM>
0

>  <SCORE.SYSTEM.CONST>
0

>  <SCORE.SYSTEM.DIHEDRAL>
0

>  <SCORE.SYSTEM.SOLV>
0

>  <SCORE.SYSTEM.norm>
0

>  <SCORE.heavy>
31

>  <SCORE.norm>
0.00632067

>  <RMSD>
6.781

$$$$
ligand
 OpenBabel11021811493D
libRbt.so/2013.1/901 2013/11/27
 31 33  0  0  0  0  0  0  0  0999 V2000
   -3.4871   14.7161   41.5235 C   0  0  2  0  0  0  0  0  0  0  0  0
   -4.1717   13.9449   40.5550 O   0  0  0  0  0  0  0  0  0  0  0  0
   -1.2342   10.9683   39.7996 C   0  0  2  0  0  0  0  0  0  0  0  0
   -0.6215    9.7999   39.2645 N   0  0  0  0  0  0  0  0  0  0  0  0
   -0.4187   13.1826   36.7561 C   0  0  2  0  0  0  0  0  0  0  0  0
   -4.5135   15.7639   42.1372 C   0  0  2  0  0  0  0  0  0  0  0  0
   -5.6461   15.0448   42.7107 N   0  0  0  0  0  0  0  0  0  0  0  0
   -2.5574   10.5282   40.5709 C   0  0  0  0  0  0  0  0  0  0  0  0
    0.8252   12.7168   35.9272 C   0  0  2  0  0  0  0  0  0  0  0  0
    0.7038   11.3345   35.6674 O   0  0  0  0  0  0  0  0  0  0  0  0
   -4.9872   16.7832   41.0368 C   0  0  0  0  0  0  0  0  0  0  0  0
   -3.2297   11.8262   41.1799 C   0  0  2  0  0  0  0  0  0  0  0  0
   -4.4434   11.4395   41.9005 N   0  0  0  0  0  0  0  0  0  0  0  0
    2.1224   13.0176   36.7628 C   0  0  1  0  0  0  0  0  0  0  0  0
    3.3296   12.5670   35.9986 N   0  0  0  0  0  0  0  0  0  0  0  0
   -3.7973   17.2112   40.0793 C   0  0  0  0  0  0  0  0  0  0  0  0
   -3.5924   12.8182   40.0004 C   0  0  2  0  0  0  0  0  0  0  0  0
    2.2178   14.6208   37.0248 C   0  0  1  0  0  0  0  0  0  0  0  0
    2.2897   15.3765   35.8319 O   0  0  0  0  0  0  0  0  0  0  0  0
   -2.6202   16.5396   40.0790 C   0  0  1  0  0  0  0  0  0  0  0  0
   -2.3566   15.4206   40.9208 O   0  0  0  0  0  0  0  0  0  0  0  0
   -2.2729   13.2309   39.2244 C   0  0  2  0  0  0  0  0  0  0  0  0
   -2.6145   14.1224   38.1433 O   0  0  0  0  0  0  0  0  0  0  0  0
    0.9577   15.0848   37.8150 C   0  0  0  0  0  0  0  0  0  0  0  0
   -0.3014   14.6627   37.0775 O   0  0  0  0  0  0  0  0  0  0  0  0
   -1.4663   16.9105   39.1784 C   0  0  0  0  0  0  0  0  0  0  0  0
   -0.3355   17.1621   40.0402 O   0  0  0  0  0  0  0  0  0  0  0  0
   -1.6015   11.9365   38.6254 C   0  0  1  0  0  0  0  0  0  0  0  0
   -0.4325   12.3263   37.9484 O   0  0  0  0  0  0  0  0  0  0  0  0
    3.4390   15.0618   37.8422 C   0  0  0  0  0  0  0  0  0  0  0  0
    3.9134   11.2712   36.4030 C   0  0  0  0  0  0  0  0  0  0  0  0
  1  2  1  6  0  0  0
  1  6  1  0  0  0  0
  1 21  1  0  0  0  0
  3  4  1  6  0  0  0
  3  8  1  0  0  0  0
  3 28  1  0  0  0  0
  5  9  1  0  0  0  0
  5 25  1  0  0  0  0
  5 29  1  1  0  0  0
  6  7  1  6  0  0  0
  6 11  1  0  0  0  0
  8 12  1  0  0  0  0
  9 10  1  1  0  0  0
  9 14  1  0  0  0  0
 11 16  1  0  0  0  0
 12 13  1  6  0  0  0
 12 17  1  0  0  0  0
 14 15  1  6  0  0  0
 14 18  1  0  0  0  0
 15 31  1  0  0  0  0
 16 20  1  0  0  0  0
 17  2  1  1  0  0  0
 17 22  1  0  0  0  0
 18 19  1  6  0  0  0
 18 24  1  0  0  0  0
 18 30  1  0  0  0  0
 20 21  1  0  0  0  0
 20 26  1  6  0  0  0
 22 23  1  6  0  0  0
 22 28  1  0  0  0  0
 24 25  1  0  0  0  0
 26 27  1  0  0  0  0
 28 29  1  1  0  0  0
M  END
>  <CHROM.1>
-169.93202683,-149.05650603,-100.57005293,57.49722727,123.04366552,177.06436114
-1.15737200,13.80990918,38.93610795,-2.90010578,-0.63854885,-3.10070380

>  <Name>
ligand

>  <RI>
0

>  <Rbt.Current_Directory>
/home/itssahil/PROJECTS/Mol_Feturizer/New_Systems/rnas/4GPY

>  <Rbt.Executable>
rbdock ($Id: //depot/dev/client3/rdock/2013.1/src/exe/rbdock.cxx#4 $)

>  <Rbt.Library>
libRbt.so (2013.1, Build901 2013/11/27)

>  <Rbt.Parameter_File>
/export/apps/rDock/src/rDock_2013.1_src/data/scripts/dock_solv.prm

>  <Rbt.Receptor>
prm/pocket_docking_4.prm

>  <SCORE>
-7.33103

>  <SCORE.INTER>
-4.43976

>  <SCORE.INTER.CONST>
1

>  <SCORE.INTER.POLAR>
0

>  <SCORE.INTER.ROT>
6

>  <SCORE.INTER.SOLV>
14.7512

>  <SCORE.INTER.VDW>
-15.4769

>  <SCORE.INTER.norm>
-0.143218

>  <SCORE.INTRA>
-2.89128

>  <SCORE.INTRA.DIHEDRAL>
-7.74311

>  <SCORE.INTRA.DIHEDRAL.0>
14.7001

>  <SCORE.INTRA.POLAR>
0

>  <SCORE.INTRA.POLAR.0>
0

>  <SCORE.INTRA.REPUL>
0

>  <SCORE.INTRA.REPUL.0>
0

>  <SCORE.INTRA.SOLV>
-0.261736

>  <SCORE.INTRA.SOLV.lig_0>
-65.3082

>  <SCORE.INTRA.VDW>
1.11115

>  <SCORE.INTRA.VDW.0>
-4.21408

>  <SCORE.INTRA.norm>
-0.0932669

>  <SCORE.RESTR>
0

>  <SCORE.RESTR.CAVITY>
0

>  <SCORE.RESTR.norm>
0

>  <SCORE.SYSTEM>
0

>  <SCORE.SYSTEM.CONST>
0

>  <SCORE.SYSTEM.DIHEDRAL>
0

>  <SCORE.SYSTEM.SOLV>
0

>  <SCORE.SYSTEM.norm>
0

>  <SCORE.heavy>
31

>  <SCORE.norm>
-0.236485

>  <RMSD>
6.784

$$$$
ligand
 OpenBabel11021811493D
libRbt.so/2013.1/901 2013/11/27
 31 33  0  0  0  0  0  0  0  0999 V2000
    3.6629   20.0656   34.7252 C   0  0  2  0  0  0  0  0  0  0  0  0
    3.1002   19.3392   35.8008 O   0  0  0  0  0  0  0  0  0  0  0  0
    1.6297   15.4912   36.8449 C   0  0  2  0  0  0  0  0  0  0  0  0
    1.1558   14.1565   36.7003 N   0  0  0  0  0  0  0  0  0  0  0  0
    4.9424   15.2060   37.9742 C   0  0  2  0  0  0  0  0  0  0  0  0
    4.0002   21.5313   35.2410 C   0  0  2  0  0  0  0  0  0  0  0  0
    4.9115   21.4411   36.3768 N   0  0  0  0  0  0  0  0  0  0  0  0
    0.6696   16.4536   36.0134 C   0  0  0  0  0  0  0  0  0  0  0  0
    5.6063   13.9101   38.5497 C   0  0  2  0  0  0  0  0  0  0  0  0
    6.1140   13.1468   37.4760 O   0  0  0  0  0  0  0  0  0  0  0  0
    2.6826   22.2972   35.6304 C   0  0  0  0  0  0  0  0  0  0  0  0
    1.1874   17.9399   36.1880 C   0  0  2  0  0  0  0  0  0  0  0  0
    0.3110   18.8399   35.4372 N   0  0  0  0  0  0  0  0  0  0  0  0
    4.5169   13.1024   39.3448 C   0  0  1  0  0  0  0  0  0  0  0  0
    5.1220   11.8471   39.8947 N   0  0  0  0  0  0  0  0  0  0  0  0
    1.5048   21.9988   34.6107 C   0  0  0  0  0  0  0  0  0  0  0  0
    2.6672   18.0365   35.6330 C   0  0  2  0  0  0  0  0  0  0  0  0
    3.9742   14.0220   40.5728 C   0  0  1  0  0  0  0  0  0  0  0  0
    4.9902   14.3876   41.4857 O   0  0  0  0  0  0  0  0  0  0  0  0
    1.5951   20.9907   33.7095 C   0  0  1  0  0  0  0  0  0  0  0  0
    2.7295   20.1353   33.6020 O   0  0  0  0  0  0  0  0  0  0  0  0
    3.6094   17.0577   36.4504 C   0  0  2  0  0  0  0  0  0  0  0  0
    4.9515   17.1415   35.9286 O   0  0  0  0  0  0  0  0  0  0  0  0
    3.3510   15.3282   39.9957 C   0  0  0  0  0  0  0  0  0  0  0  0
    4.3591   16.0347   39.1059 O   0  0  0  0  0  0  0  0  0  0  0  0
    0.4939   20.6696   32.7273 C   0  0  0  0  0  0  0  0  0  0  0  0
   -0.6867   21.3583   33.1926 O   0  0  0  0  0  0  0  0  0  0  0  0
    3.0877   15.5799   36.2812 C   0  0  1  0  0  0  0  0  0  0  0  0
    3.9338   14.7327   37.0182 O   0  0  0  0  0  0  0  0  0  0  0  0
    2.8921   13.3598   41.4355 C   0  0  0  0  0  0  0  0  0  0  0  0
    4.9916   10.6369   39.0570 C   0  0  0  0  0  0  0  0  0  0  0  0
  1  2  1  1  0  0  0
  1  6  1  0  0  0  0
  1 21  1  0  0  0  0
  3  4  1  6  0  0  0
  3  8  1  0  0  0  0
  3 28  1  0  0  0  0
  5  9  1  0  0  0  0
  5 25  1  0  0  0  0
  5 29  1  6  0  0  0
  6  7  1  1  0  0  0
  6 11  1  0  0  0  0
  8 12  1  0  0  0  0
  9 10  1  6  0  0  0
  9 14  1  0  0  0  0
 11 16  1  0  0  0  0
 12 13  1  6  0  0  0
 12 17  1  0  0  0  0
 14 15  1  1  0  0  0
 14 18  1  0  0  0  0
 15 31  1  0  0  0  0
 16 20  1  0  0  0  0
 17  2  1  1  0  0  0
 17 22  1  0  0  0  0
 18 19  1  1  0  0  0
 18 24  1  0  0  0  0
 18 30  1  0  0  0  0
 20 21  1  0  0  0  0
 20 26  1  1  0  0  0
 22 23  1  6  0  0  0
 22 28  1  0  0  0  0
 24 25  1  0  0  0  0
 26 27  1  0  0  0  0
 28 29  1  1  0  0  0
M  END
>  <CHROM.1>
177.92974247,179.16076140,-93.15072518,-128.80799548,-14.93081841,-107.49653550
3.17790791,16.96333358,36.87407624,-1.89716456,0.48350519,2.70496868

>  <Name>
ligand

>  <RI>
0

>  <Rbt.Current_Directory>
/home/itssahil/PROJECTS/Mol_Feturizer/New_Systems/rnas/4GPY

>  <Rbt.Executable>
rbdock ($Id: //depot/dev/client3/rdock/2013.1/src/exe/rbdock.cxx#4 $)

>  <Rbt.Library>
libRbt.so (2013.1, Build901 2013/11/27)

>  <Rbt.Parameter_File>
/export/apps/rDock/src/rDock_2013.1_src/data/scripts/dock_solv.prm

>  <Rbt.Receptor>
prm/blind_docking_80.prm

>  <SCORE>
1.08439

>  <SCORE.INTER>
-5.55758

>  <SCORE.INTER.CONST>
1

>  <SCORE.INTER.POLAR>
0

>  <SCORE.INTER.ROT>
6

>  <SCORE.INTER.SOLV>
16.6172

>  <SCORE.INTER.VDW>
-16.8441

>  <SCORE.INTER.norm>
-0.179277

>  <SCORE.INTRA>
4.13237

>  <SCORE.INTRA.DIHEDRAL>
1.25434

>  <SCORE.INTRA.DIHEDRAL.0>
14.7001

>  <SCORE.INTRA.POLAR>
0

>  <SCORE.INTRA.POLAR.0>
0

>  <SCORE.INTRA.REPUL>
0

>  <SCORE.INTRA.REPUL.0>
0

>  <SCORE.INTRA.SOLV>
1.65139

>  <SCORE.INTRA.SOLV.lig_0>
-65.3082

>  <SCORE.INTRA.VDW>
2.67951

>  <SCORE.INTRA.VDW.0>
-4.21408

>  <SCORE.INTRA.norm>
0.133302

>  <SCORE.RESTR>
2.5096

>  <SCORE.RESTR.CAVITY>
2.5096

>  <SCORE.RESTR.norm>
0.0809549

>  <SCORE.SYSTEM>
0

>  <SCORE.SYSTEM.CONST>
0

>  <SCORE.SYSTEM.DIHEDRAL>
0

>  <SCORE.SYSTEM.SOLV>
0

>  <SCORE.SYSTEM.norm>
0

>  <SCORE.heavy>
31

>  <SCORE.norm>
0.0349803

>  <RMSD>
6.787

$$$$
ligand
 OpenBabel11021811493D
libRbt.so/2013.1/901 2013/11/27
 31 33  0  0  0  0  0  0  0  0999 V2000
    0.9674   19.6407   34.4234 C   0  0  2  0  0  0  0  0  0  0  0  0
    2.3632   19.4318   34.5209 O   0  0  0  0  0  0  0  0  0  0  0  0
    4.9869   16.8709   36.6698 C   0  0  2  0  0  0  0  0  0  0  0  0
    5.5869   16.1845   37.7633 N   0  0  0  0  0  0  0  0  0  0  0  0
    2.4715   14.1492   36.9742 C   0  0  2  0  0  0  0  0  0  0  0  0
    0.7250   21.0106   33.6534 C   0  0  2  0  0  0  0  0  0  0  0  0
    1.3612   20.9416   32.3423 N   0  0  0  0  0  0  0  0  0  0  0  0
    5.0780   18.4363   36.9538 C   0  0  0  0  0  0  0  0  0  0  0  0
    3.1506   13.7906   38.3385 C   0  0  2  0  0  0  0  0  0  0  0  0
    3.4248   14.9872   39.0358 O   0  0  0  0  0  0  0  0  0  0  0  0
    1.2804   22.2210   34.4904 C   0  0  0  0  0  0  0  0  0  0  0  0
    4.4252   19.1998   35.7296 C   0  0  2  0  0  0  0  0  0  0  0  0
    4.5080   20.6411   35.9694 N   0  0  0  0  0  0  0  0  0  0  0  0
    4.4761   12.9987   38.0430 C   0  0  1  0  0  0  0  0  0  0  0  0
    5.1561   12.6553   39.3330 N   0  0  0  0  0  0  0  0  0  0  0  0
    0.9904   22.0476   36.0402 C   0  0  0  0  0  0  0  0  0  0  0  0
    2.9104   18.7584   35.5979 C   0  0  2  0  0  0  0  0  0  0  0  0
    4.1026   11.6281   37.2491 C   0  0  1  0  0  0  0  0  0  0  0  0
    3.2465   10.7752   37.9833 O   0  0  0  0  0  0  0  0  0  0  0  0
    0.5714   20.8629   36.5477 C   0  0  1  0  0  0  0  0  0  0  0  0
    0.3581   19.7010   35.7511 O   0  0  0  0  0  0  0  0  0  0  0  0
    2.8295   17.1961   35.3399 C   0  0  2  0  0  0  0  0  0  0  0  0
    1.4463   16.8009   35.2359 O   0  0  0  0  0  0  0  0  0  0  0  0
    3.3911   11.9909   35.9113 C   0  0  0  0  0  0  0  0  0  0  0  0
    2.1913   12.8807   36.1867 O   0  0  0  0  0  0  0  0  0  0  0  0
    0.2916   20.6548   38.0170 C   0  0  0  0  0  0  0  0  0  0  0  0
    0.3092   19.2287   38.2416 O   0  0  0  0  0  0  0  0  0  0  0  0
    3.4865   16.4385   36.5562 C   0  0  1  0  0  0  0  0  0  0  0  0
    3.4084   15.0578   36.3022 O   0  0  0  0  0  0  0  0  0  0  0  0
    5.3091   10.7531   36.8849 C   0  0  0  0  0  0  0  0  0  0  0  0
    5.9730   13.7230   39.9460 C   0  0  0  0  0  0  0  0  0  0  0  0
  1  2  1  1  0  0  0
  1  6  1  0  0  0  0
  1 21  1  0  0  0  0
  3  4  1  1  0  0  0
  3  8  1  0  0  0  0
  3 28  1  0  0  0  0
  5  9  1  0  0  0  0
  5 25  1  0  0  0  0
  5 29  1  6  0  0  0
  6  7  1  6  0  0  0
  6 11  1  0  0  0  0
  8 12  1  0  0  0  0
  9 10  1  6  0  0  0
  9 14  1  0  0  0  0
 11 16  1  0  0  0  0
 12 13  1  1  0  0  0
 12 17  1  0  0  0  0
 14 15  1  1  0  0  0
 14 18  1  0  0  0  0
 15 31  1  0  0  0  0
 16 20  1  0  0  0  0
 17  2  1  6  0  0  0
 17 22  1  0  0  0  0
 18 19  1  1  0  0  0
 18 24  1  0  0  0  0
 18 30  1  0  0  0  0
 20 21  1  0  0  0  0
 20 26  1  1  0  0  0
 22 23  1  1  0  0  0
 22 28  1  0  0  0  0
 24 25  1  0  0  0  0
 26 27  1  0  0  0  0
 28 29  1  6  0  0  0
M  END
>  <CHROM.1>
148.80926108,-82.48385261,-81.51367638,-156.91090619,-161.39845629,135.93853040
2.90790286,16.79112248,36.53631480,2.03804136,-0.79872441,0.04080960

>  <Name>
ligand

>  <RI>
0

>  <Rbt.Current_Directory>
/home/itssahil/PROJECTS/Mol_Feturizer/New_Systems/rnas/4GPY

>  <Rbt.Executable>
rbdock ($Id: //depot/dev/client3/rdock/2013.1/src/exe/rbdock.cxx#4 $)

>  <Rbt.Library>
libRbt.so (2013.1, Build901 2013/11/27)

>  <Rbt.Parameter_File>
/export/apps/rDock/src/rDock_2013.1_src/data/scripts/dock_solv.prm

>  <Rbt.Receptor>
prm/blind_docking_100.prm

>  <SCORE>
-5.12032

>  <SCORE.INTER>
-11.8303

>  <SCORE.INTER.CONST>
1

>  <SCORE.INTER.POLAR>
0

>  <SCORE.INTER.ROT>
6

>  <SCORE.INTER.SOLV>
21.0193

>  <SCORE.INTER.VDW>
-22.4933

>  <SCORE.INTER.norm>
-0.381623

>  <SCORE.INTRA>
3.74297

>  <SCORE.INTRA.DIHEDRAL>
3.20319

>  <SCORE.INTRA.DIHEDRAL.0>
14.7001

>  <SCORE.INTRA.POLAR>
0

>  <SCORE.INTRA.POLAR.0>
0

>  <SCORE.INTRA.REPUL>
0

>  <SCORE.INTRA.REPUL.0>
0

>  <SCORE.INTRA.SOLV>
2.8817

>  <SCORE.INTRA.SOLV.lig_0>
-65.3082

>  <SCORE.INTRA.VDW>
0.700525

>  <SCORE.INTRA.VDW.0>
-4.21408

>  <SCORE.INTRA.norm>
0.120741

>  <SCORE.RESTR>
2.96702

>  <SCORE.RESTR.CAVITY>
2.96702

>  <SCORE.RESTR.norm>
0.0957103

>  <SCORE.SYSTEM>
0

>  <SCORE.SYSTEM.CONST>
0

>  <SCORE.SYSTEM.DIHEDRAL>
0

>  <SCORE.SYSTEM.SOLV>
0

>  <SCORE.SYSTEM.norm>
0

>  <SCORE.heavy>
31

>  <SCORE.norm>
-0.165171

>  <RMSD>
6.796

$$$$
ligand
 OpenBabel11021811493D
libRbt.so/2013.1/901 2013/11/27
 31 33  0  0  0  0  0  0  0  0999 V2000
    3.0700   20.9914   34.1864 C   0  0  2  0  0  0  0  0  0  0  0  0
    3.4277   20.9702   35.5549 O   0  0  0  0  0  0  0  0  0  0  0  0
    3.8614   16.7840   36.1444 C   0  0  2  0  0  0  0  0  0  0  0  0
    4.0583   15.5408   36.8097 N   0  0  0  0  0  0  0  0  0  0  0  0
    1.2965   15.2775   36.9514 C   0  0  2  0  0  0  0  0  0  0  0  0
    3.4230   22.4287   33.6052 C   0  0  2  0  0  0  0  0  0  0  0  0
    4.8447   22.6893   33.8036 N   0  0  0  0  0  0  0  0  0  0  0  0
    5.1246   17.7108   36.4362 C   0  0  0  0  0  0  0  0  0  0  0  0
   -0.2406   15.0969   37.1881 C   0  0  2  0  0  0  0  0  0  0  0  0
   -0.9189   15.3622   35.9786 O   0  0  0  0  0  0  0  0  0  0  0  0
    2.5421   23.5350   34.2937 C   0  0  0  0  0  0  0  0  0  0  0  0
    4.9126   19.0873   35.6826 C   0  0  2  0  0  0  0  0  0  0  0  0
    6.0688   19.9490   35.9324 N   0  0  0  0  0  0  0  0  0  0  0  0
   -0.6927   16.0963   38.3143 C   0  0  1  0  0  0  0  0  0  0  0  0
   -2.1654   15.9555   38.5511 N   0  0  0  0  0  0  0  0  0  0  0  0
    1.0501   23.0451   34.5172 C   0  0  0  0  0  0  0  0  0  0  0  0
    3.5957   19.7750   36.2301 C   0  0  2  0  0  0  0  0  0  0  0  0
    0.1099   15.7407   39.6845 C   0  0  1  0  0  0  0  0  0  0  0  0
   -0.1366   14.4283   40.1495 O   0  0  0  0  0  0  0  0  0  0  0  0
    0.7108   21.7408   34.3754 C   0  0  1  0  0  0  0  0  0  0  0  0
    1.6425   20.7233   34.0192 O   0  0  0  0  0  0  0  0  0  0  0  0
    2.3487   18.8347   35.9569 C   0  0  2  0  0  0  0  0  0  0  0  0
    1.1564   19.4623   36.4718 O   0  0  0  0  0  0  0  0  0  0  0  0
    1.6406   15.8834   39.4311 C   0  0  0  0  0  0  0  0  0  0  0  0
    2.0519   15.0276   38.2454 O   0  0  0  0  0  0  0  0  0  0  0  0
   -0.6957   21.2331   34.5861 C   0  0  0  0  0  0  0  0  0  0  0  0
   -0.6430   19.7984   34.4326 O   0  0  0  0  0  0  0  0  0  0  0  0
    2.5653   17.4625   36.7019 C   0  0  1  0  0  0  0  0  0  0  0  0
    1.4516   16.6450   36.4405 O   0  0  0  0  0  0  0  0  0  0  0  0
   -0.2274   16.6480   40.8748 C   0  0  0  0  0  0  0  0  0  0  0  0
   -2.8469   17.1246   39.1445 C   0  0  0  0  0  0  0  0  0  0  0  0
  1  2  1  1  0  0  0
  1  6  1  0  0  0  0
  1 21  1  0  0  0  0
  3  4  1  1  0  0  0
  3  8  1  0  0  0  0
  3 28  1  0  0  0  0
  5  9  1  0  0  0  0
  5 25  1  0  0  0  0
  5 29  1  1  0  0  0
  6  7  1  1  0  0  0
  6 11  1  0  0  0  0
  8 12  1  0  0  0  0
  9 10  1  6  0  0  0
  9 14  1  0  0  0  0
 11 16  1  0  0  0  0
 12 13  1  1  0  0  0
 12 17  1  0  0  0  0
 14 15  1  1  0  0  0
 14 18  1  0  0  0  0
 15 31  1  0  0  0  0
 16 20  1  0  0  0  0
 17  2  1  6  0  0  0
 17 22  1  0  0  0  0
 18 19  1  1  0  0  0
 18 24  1  0  0  0  0
 18 30  1  0  0  0  0
 20 21  1  0  0  0  0
 20 26  1  1  0  0  0
 22 23  1  1  0  0  0
 22 28  1  0  0  0  0
 24 25  1  0  0  0  0
 26 27  1  0  0  0  0
 28 29  1  6  0  0  0
M  END
>  <CHROM.1>
-161.53639686,146.84048867,-156.50056453,70.17638202,-176.34048949,60.70322556
1.64304479,18.40173621,36.48676214,-1.17623572,-0.11245028,2.58044278

>  <Name>
ligand

>  <RI>
0

>  <Rbt.Current_Directory>
/home/itssahil/PROJECTS/Mol_Feturizer/New_Systems/rnas/4GPY

>  <Rbt.Executable>
rbdock ($Id: //depot/dev/client3/rdock/2013.1/src/exe/rbdock.cxx#4 $)

>  <Rbt.Library>
libRbt.so (2013.1, Build901 2013/11/27)

>  <Rbt.Parameter_File>
/export/apps/rDock/src/rDock_2013.1_src/data/scripts/dock_solv.prm

>  <Rbt.Receptor>
prm/blind_docking_60.prm

>  <SCORE>
45.4141

>  <SCORE.INTER>
25.5797

>  <SCORE.INTER.CONST>
1

>  <SCORE.INTER.POLAR>
0

>  <SCORE.INTER.ROT>
6

>  <SCORE.INTER.SOLV>
20.1356

>  <SCORE.INTER.VDW>
2.74127

>  <SCORE.INTER.norm>
0.825151

>  <SCORE.INTRA>
2.82747

>  <SCORE.INTRA.DIHEDRAL>
-4.45932

>  <SCORE.INTRA.DIHEDRAL.0>
14.7001

>  <SCORE.INTRA.POLAR>
0

>  <SCORE.INTRA.POLAR.0>
0

>  <SCORE.INTRA.REPUL>
0.0646782

>  <SCORE.INTRA.REPUL.0>
0

>  <SCORE.INTRA.SOLV>
2.39222

>  <SCORE.INTRA.SOLV.lig_0>
-65.3082

>  <SCORE.INTRA.VDW>
3.53763

>  <SCORE.INTRA.VDW.0>
-4.21408

>  <SCORE.INTRA.norm>
0.0912086

>  <SCORE.RESTR>
17.007

>  <SCORE.RESTR.CAVITY>
17.007

>  <SCORE.RESTR.norm>
0.548612

>  <SCORE.SYSTEM>
0

>  <SCORE.SYSTEM.CONST>
0

>  <SCORE.SYSTEM.DIHEDRAL>
0

>  <SCORE.SYSTEM.SOLV>
0

>  <SCORE.SYSTEM.norm>
0

>  <SCORE.heavy>
31

>  <SCORE.norm>
1.46497

>  <RMSD>
6.797

$$$$
ligand
 OpenBabel11021811493D
libRbt.so/2013.1/901 2013/11/27
 31 33  0  0  0  0  0  0  0  0999 V2000
    1.0757   19.6730   34.5692 C   0  0  2  0  0  0  0  0  0  0  0  0
    2.4674   19.4227   34.6130 O   0  0  0  0  0  0  0  0  0  0  0  0
    5.1545   16.8691   36.6911 C   0  0  2  0  0  0  0  0  0  0  0  0
    5.7770   16.1743   37.7666 N   0  0  0  0  0  0  0  0  0  0  0  0
    2.6496   14.1117   36.9359 C   0  0  2  0  0  0  0  0  0  0  0  0
    0.8580   21.2466   34.5038 C   0  0  2  0  0  0  0  0  0  0  0  0
    1.5468   21.7768   33.3320 N   0  0  0  0  0  0  0  0  0  0  0  0
    5.2235   18.4308   37.0006 C   0  0  0  0  0  0  0  0  0  0  0  0
    3.2746   13.7552   38.3264 C   0  0  2  0  0  0  0  0  0  0  0  0
    3.5015   14.9517   39.0406 O   0  0  0  0  0  0  0  0  0  0  0  0
    1.3735   21.9313   35.8227 C   0  0  0  0  0  0  0  0  0  0  0  0
    4.5456   19.2040   35.7963 C   0  0  2  0  0  0  0  0  0  0  0  0
    4.6078   20.6423   36.0595 N   0  0  0  0  0  0  0  0  0  0  0  0
    4.6227   12.9836   38.0842 C   0  0  1  0  0  0  0  0  0  0  0  0
    5.2515   12.6427   39.4006 N   0  0  0  0  0  0  0  0  0  0  0  0
    1.0222   21.0716   37.1086 C   0  0  0  0  0  0  0  0  0  0  0  0
    3.0367   18.7403   35.6727 C   0  0  2  0  0  0  0  0  0  0  0  0
    4.3031   11.6123   37.2684 C   0  0  1  0  0  0  0  0  0  0  0  0
    3.4285   10.7435   37.9609 O   0  0  0  0  0  0  0  0  0  0  0  0
    0.5888   19.7921   37.0006 C   0  0  1  0  0  0  0  0  0  0  0  0
    0.4132   19.1272   35.7528 O   0  0  0  0  0  0  0  0  0  0  0  0
    2.9782   17.1815   35.3892 C   0  0  2  0  0  0  0  0  0  0  0  0
    1.6005   16.7658   35.2928 O   0  0  0  0  0  0  0  0  0  0  0  0
    3.6446   11.9723   35.9030 C   0  0  0  0  0  0  0  0  0  0  0  0
    2.4216   12.8438   36.1309 O   0  0  0  0  0  0  0  0  0  0  0  0
    0.2510   18.9383   38.1995 C   0  0  0  0  0  0  0  0  0  0  0  0
    0.9059   17.6674   37.9976 O   0  0  0  0  0  0  0  0  0  0  0  0
    3.6601   16.4144   36.5857 C   0  0  1  0  0  0  0  0  0  0  0  0
    3.6014   15.0371   36.3092 O   0  0  0  0  0  0  0  0  0  0  0  0
    5.5364   10.7563   36.9521 C   0  0  0  0  0  0  0  0  0  0  0  0
    6.0782   13.6974   40.0231 C   0  0  0  0  0  0  0  0  0  0  0  0
  1  2  1  1  0  0  0
  1  6  1  0  0  0  0
  1 21  1  0  0  0  0
  3  4  1  1  0  0  0
  3  8  1  0  0  0  0
  3 28  1  0  0  0  0
  5  9  1  0  0  0  0
  5 25  1  0  0  0  0
  5 29  1  6  0  0  0
  6  7  1  6  0  0  0
  6 11  1  0  0  0  0
  8 12  1  0  0  0  0
  9 10  1  6  0  0  0
  9 14  1  0  0  0  0
 11 16  1  0  0  0  0
 12 13  1  1  0  0  0
 12 17  1  0  0  0  0
 14 15  1  1  0  0  0
 14 18  1  0  0  0  0
 15 31  1  0  0  0  0
 16 20  1  0  0  0  0
 17  2  1  6  0  0  0
 17 22  1  0  0  0  0
 18 19  1  1  0  0  0
 18 24  1  0  0  0  0
 18 30  1  0  0  0  0
 20 21  1  0  0  0  0
 20 26  1  1  0  0  0
 22 23  1  1  0  0  0
 22 28  1  0  0  0  0
 24 25  1  0  0  0  0
 26 27  1  0  0  0  0
 28 29  1  6  0  0  0
M  END
>  <CHROM.1>
120.70876147,-81.64119333,-84.27187477,-153.49097367,-132.33945276,138.52195287
3.05913539,16.60801042,36.70613343,1.92062016,-0.39200162,-0.14148912

>  <Name>
ligand

>  <RI>
0

>  <Rbt.Current_Directory>
/home/itssahil/PROJECTS/Mol_Feturizer/New_Systems/rnas/4GPY

>  <Rbt.Executable>
rbdock ($Id: //depot/dev/client3/rdock/2013.1/src/exe/rbdock.cxx#4 $)

>  <Rbt.Library>
libRbt.so (2013.1, Build901 2013/11/27)

>  <Rbt.Parameter_File>
/export/apps/rDock/src/rDock_2013.1_src/data/scripts/dock_solv.prm

>  <Rbt.Receptor>
prm/blind_docking_100.prm

>  <SCORE>
1.55936

>  <SCORE.INTER>
-5.27643

>  <SCORE.INTER.CONST>
1

>  <SCORE.INTER.POLAR>
0

>  <SCORE.INTER.ROT>
6

>  <SCORE.INTER.SOLV>
19.4791

>  <SCORE.INTER.VDW>
-17.6106

>  <SCORE.INTER.norm>
-0.170208

>  <SCORE.INTRA>
4.96364

>  <SCORE.INTRA.DIHEDRAL>
5.444

>  <SCORE.INTRA.DIHEDRAL.0>
14.7001

>  <SCORE.INTRA.POLAR>
0

>  <SCORE.INTRA.POLAR.0>
0

>  <SCORE.INTRA.REPUL>
0

>  <SCORE.INTRA.REPUL.0>
0

>  <SCORE.INTRA.SOLV>
4.36136

>  <SCORE.INTRA.SOLV.lig_0>
-65.3082

>  <SCORE.INTRA.VDW>
0.0609586

>  <SCORE.INTRA.VDW.0>
-4.21408

>  <SCORE.INTRA.norm>
0.160118

>  <SCORE.RESTR>
1.87215

>  <SCORE.RESTR.CAVITY>
1.87215

>  <SCORE.RESTR.norm>
0.0603919

>  <SCORE.SYSTEM>
0

>  <SCORE.SYSTEM.CONST>
0

>  <SCORE.SYSTEM.DIHEDRAL>
0

>  <SCORE.SYSTEM.SOLV>
0

>  <SCORE.SYSTEM.norm>
0

>  <SCORE.heavy>
31

>  <SCORE.norm>
0.0503018

>  <RMSD>
6.798

$$$$
ligand
 OpenBabel11021811493D
libRbt.so/2013.1/901 2013/11/27
 31 33  0  0  0  0  0  0  0  0999 V2000
    3.4298   19.7325   34.6778 C   0  0  2  0  0  0  0  0  0  0  0  0
    3.2885   19.0366   35.9013 O   0  0  0  0  0  0  0  0  0  0  0  0
    1.6413   15.2484   36.8998 C   0  0  2  0  0  0  0  0  0  0  0  0
    1.4518   13.8377   36.9252 N   0  0  0  0  0  0  0  0  0  0  0  0
    4.4523   15.0615   39.5103 C   0  0  2  0  0  0  0  0  0  0  0  0
    4.2858   21.0443   34.9510 C   0  0  2  0  0  0  0  0  0  0  0  0
    5.5757   20.6649   35.5172 N   0  0  0  0  0  0  0  0  0  0  0  0
    1.5102   15.7416   35.3901 C   0  0  0  0  0  0  0  0  0  0  0  0
    5.4578   14.3905   38.5153 C   0  0  2  0  0  0  0  0  0  0  0  0
    5.5040   15.1589   37.3318 O   0  0  0  0  0  0  0  0  0  0  0  0
    3.5104   22.0204   35.9102 C   0  0  0  0  0  0  0  0  0  0  0  0
    1.7048   17.3130   35.3645 C   0  0  2  0  0  0  0  0  0  0  0  0
    1.5787   17.7852   33.9851 N   0  0  0  0  0  0  0  0  0  0  0  0
    4.9620   12.9292   38.2149 C   0  0  1  0  0  0  0  0  0  0  0  0
    5.8991   12.2674   37.2515 N   0  0  0  0  0  0  0  0  0  0  0  0
    1.9599   22.0640   35.5781 C   0  0  0  0  0  0  0  0  0  0  0  0
    3.1432   17.6614   35.9274 C   0  0  2  0  0  0  0  0  0  0  0  0
    4.9370   12.0870   39.6071 C   0  0  1  0  0  0  0  0  0  0  0  0
    6.2061   11.9926   40.2235 O   0  0  0  0  0  0  0  0  0  0  0  0
    1.3920   21.1482   34.7564 C   0  0  1  0  0  0  0  0  0  0  0  0
    2.1223   20.0953   34.1334 O   0  0  0  0  0  0  0  0  0  0  0  0
    3.2720   17.1454   37.4209 C   0  0  2  0  0  0  0  0  0  0  0  0
    4.5896   17.4539   37.9201 O   0  0  0  0  0  0  0  0  0  0  0  0
    3.9654   12.7825   40.6070 C   0  0  0  0  0  0  0  0  0  0  0  0
    4.3584   14.2390   40.7840 O   0  0  0  0  0  0  0  0  0  0  0  0
   -0.0804   21.1507   34.4211 C   0  0  0  0  0  0  0  0  0  0  0  0
   -0.1747   21.1908   32.9808 O   0  0  0  0  0  0  0  0  0  0  0  0
    3.0706   15.5821   37.4449 C   0  0  1  0  0  0  0  0  0  0  0  0
    3.1831   15.1493   38.7779 O   0  0  0  0  0  0  0  0  0  0  0  0
    4.4611   10.6354   39.4658 C   0  0  0  0  0  0  0  0  0  0  0  0
    5.3273   11.1881   36.4198 C   0  0  0  0  0  0  0  0  0  0  0  0
  1  2  1  1  0  0  0
  1  6  1  0  0  0  0
  1 21  1  0  0  0  0
  3  4  1  6  0  0  0
  3  8  1  0  0  0  0
  3 28  1  0  0  0  0
  5  9  1  0  0  0  0
  5 25  1  0  0  0  0
  5 29  1  6  0  0  0
  6  7  1  1  0  0  0
  6 11  1  0  0  0  0
  8 12  1  0  0  0  0
  9 10  1  6  0  0  0
  9 14  1  0  0  0  0
 11 16  1  0  0  0  0
 12 13  1  6  0  0  0
 12 17  1  0  0  0  0
 14 15  1  6  0  0  0
 14 18  1  0  0  0  0
 15 31  1  0  0  0  0
 16 20  1  0  0  0  0
 17  2  1  1  0  0  0
 17 22  1  0  0  0  0
 18 19  1  1  0  0  0
 18 24  1  0  0  0  0
 18 30  1  0  0  0  0
 20 21  1  0  0  0  0
 20 26  1  1  0  0  0
 22 23  1  6  0  0  0
 22 28  1  0  0  0  0
 24 25  1  0  0  0  0
 26 27  1  0  0  0  0
 28 29  1  1  0  0  0
M  END
>  <CHROM.1>
-151.16131142,-44.76527205,-154.10084172,-70.87259137,124.72984745,167.49852069
3.42821526,16.56522161,36.87577695,-1.93852985,0.61954749,2.86728176

>  <Name>
ligand

>  <RI>
0

>  <Rbt.Current_Directory>
/home/itssahil/PROJECTS/Mol_Feturizer/New_Systems/rnas/4GPY

>  <Rbt.Executable>
rbdock ($Id: //depot/dev/client3/rdock/2013.1/src/exe/rbdock.cxx#4 $)

>  <Rbt.Library>
libRbt.so (2013.1, Build901 2013/11/27)

>  <Rbt.Parameter_File>
/export/apps/rDock/src/rDock_2013.1_src/data/scripts/dock_solv.prm

>  <Rbt.Receptor>
prm/blind_docking_80.prm

>  <SCORE>
-2.5883

>  <SCORE.INTER>
-9.04226

>  <SCORE.INTER.CONST>
1

>  <SCORE.INTER.POLAR>
0

>  <SCORE.INTER.ROT>
6

>  <SCORE.INTER.SOLV>
17.1898

>  <SCORE.INTER.VDW>
-19.3581

>  <SCORE.INTER.norm>
-0.291686

>  <SCORE.INTRA>
4.11618

>  <SCORE.INTRA.DIHEDRAL>
-6.73192

>  <SCORE.INTRA.DIHEDRAL.0>
14.7001

>  <SCORE.INTRA.POLAR>
0

>  <SCORE.INTRA.POLAR.0>
0

>  <SCORE.INTRA.REPUL>
0

>  <SCORE.INTRA.REPUL.0>
0

>  <SCORE.INTRA.SOLV>
2.30996

>  <SCORE.INTRA.SOLV.lig_0>
-65.3082

>  <SCORE.INTRA.VDW>
6.32716

>  <SCORE.INTRA.VDW.0>
-4.21408

>  <SCORE.INTRA.norm>
0.13278

>  <SCORE.RESTR>
2.33778

>  <SCORE.RESTR.CAVITY>
2.33778

>  <SCORE.RESTR.norm>
0.0754124

>  <SCORE.SYSTEM>
0

>  <SCORE.SYSTEM.CONST>
0

>  <SCORE.SYSTEM.DIHEDRAL>
0

>  <SCORE.SYSTEM.SOLV>
0

>  <SCORE.SYSTEM.norm>
0

>  <SCORE.heavy>
31

>  <SCORE.norm>
-0.0834935

>  <RMSD>
6.801

$$$$
ligand
 OpenBabel11021811493D
libRbt.so/2013.1/901 2013/11/27
 31 33  0  0  0  0  0  0  0  0999 V2000
    3.9251   19.7531   34.8298 C   0  0  2  0  0  0  0  0  0  0  0  0
    3.4279   19.0732   35.9664 O   0  0  0  0  0  0  0  0  0  0  0  0
    1.6608   15.3095   36.8449 C   0  0  2  0  0  0  0  0  0  0  0  0
    1.4302   13.9047   36.8301 N   0  0  0  0  0  0  0  0  0  0  0  0
    4.4256   15.0490   39.5066 C   0  0  2  0  0  0  0  0  0  0  0  0
    4.5907   21.1120   35.3182 C   0  0  2  0  0  0  0  0  0  0  0  0
    5.6451   20.8098   36.2802 N   0  0  0  0  0  0  0  0  0  0  0  0
    1.5607   15.8467   35.3479 C   0  0  0  0  0  0  0  0  0  0  0  0
    5.4756   14.4057   38.5397 C   0  0  2  0  0  0  0  0  0  0  0  0
    5.5425   15.1827   37.3628 O   0  0  0  0  0  0  0  0  0  0  0  0
    3.5070   22.0642   35.9450 C   0  0  0  0  0  0  0  0  0  0  0  0
    1.8010   17.4117   35.3669 C   0  0  2  0  0  0  0  0  0  0  0  0
    1.7037   17.9243   33.9996 N   0  0  0  0  0  0  0  0  0  0  0  0
    5.0204   12.9364   38.2152 C   0  0  1  0  0  0  0  0  0  0  0  0
    6.0010   12.3007   37.2777 N   0  0  0  0  0  0  0  0  0  0  0  0
    2.1452   22.0219   35.1327 C   0  0  0  0  0  0  0  0  0  0  0  0
    3.2425   17.7027   35.9537 C   0  0  2  0  0  0  0  0  0  0  0  0
    4.9697   12.0847   39.6009 C   0  0  1  0  0  0  0  0  0  0  0  0
    6.2206   12.0128   40.2562 O   0  0  0  0  0  0  0  0  0  0  0  0
    1.9115   21.0632   34.2038 C   0  0  1  0  0  0  0  0  0  0  0  0
    2.8477   20.0381   33.8834 O   0  0  0  0  0  0  0  0  0  0  0  0
    3.3399   17.1433   37.4339 C   0  0  2  0  0  0  0  0  0  0  0  0
    4.6603   17.3996   37.9547 O   0  0  0  0  0  0  0  0  0  0  0  0
    3.9528   12.7530   40.5739 C   0  0  0  0  0  0  0  0  0  0  0  0
    4.3092   14.2162   40.7718 O   0  0  0  0  0  0  0  0  0  0  0  0
    0.6264   20.9838   33.4148 C   0  0  0  0  0  0  0  0  0  0  0  0
   -0.2687   20.1387   34.1694 O   0  0  0  0  0  0  0  0  0  0  0  0
    3.0930   15.5865   37.4134 C   0  0  1  0  0  0  0  0  0  0  0  0
    3.1783   15.1150   38.7353 O   0  0  0  0  0  0  0  0  0  0  0  0
    4.5292   10.6243   39.4361 C   0  0  0  0  0  0  0  0  0  0  0  0
    5.4852   11.1967   36.4418 C   0  0  0  0  0  0  0  0  0  0  0  0
  1  2  1  1  0  0  0
  1  6  1  0  0  0  0
  1 21  1  0  0  0  0
  3  4  1  6  0  0  0
  3  8  1  0  0  0  0
  3 28  1  0  0  0  0
  5  9  1  0  0  0  0
  5 25  1  0  0  0  0
  5 29  1  6  0  0  0
  6  7  1  1  0  0  0
  6 11  1  0  0  0  0
  8 12  1  0  0  0  0
  9 10  1  6  0  0  0
  9 14  1  0  0  0  0
 11 16  1  0  0  0  0
 12 13  1  6  0  0  0
 12 17  1  0  0  0  0
 14 15  1  6  0  0  0
 14 18  1  0  0  0  0
 15 31  1  0  0  0  0
 16 20  1  0  0  0  0
 17  2  1  1  0  0  0
 17 22  1  0  0  0  0
 18 19  1  1  0  0  0
 18 24  1  0  0  0  0
 18 30  1  0  0  0  0
 20 21  1  0  0  0  0
 20 26  1  1  0  0  0
 22 23  1  6  0  0  0
 22 28  1  0  0  0  0
 24 25  1  0  0  0  0
 26 27  1  0  0  0  0
 28 29  1  1  0  0  0
M  END
>  <CHROM.1>
-156.27902595,-46.47306032,-155.30729882,-86.61704139,-90.57524544,171.46802368
3.55538574,16.53936667,36.88673796,-1.90566718,0.62133381,2.84317764

>  <Name>
ligand

>  <RI>
0

>  <Rbt.Current_Directory>
/home/itssahil/PROJECTS/Mol_Feturizer/New_Systems/rnas/4GPY

>  <Rbt.Executable>
rbdock ($Id: //depot/dev/client3/rdock/2013.1/src/exe/rbdock.cxx#4 $)

>  <Rbt.Library>
libRbt.so (2013.1, Build901 2013/11/27)

>  <Rbt.Parameter_File>
/export/apps/rDock/src/rDock_2013.1_src/data/scripts/dock_solv.prm

>  <Rbt.Receptor>
prm/blind_docking_80.prm

>  <SCORE>
-2.60367

>  <SCORE.INTER>
-9.70049

>  <SCORE.INTER.CONST>
1

>  <SCORE.INTER.POLAR>
0

>  <SCORE.INTER.ROT>
6

>  <SCORE.INTER.SOLV>
18.1537

>  <SCORE.INTER.VDW>
-20.1182

>  <SCORE.INTER.norm>
-0.312919

>  <SCORE.INTRA>
4.80427

>  <SCORE.INTRA.DIHEDRAL>
-5.02263

>  <SCORE.INTRA.DIHEDRAL.0>
14.7001

>  <SCORE.INTRA.POLAR>
0

>  <SCORE.INTRA.POLAR.0>
0

>  <SCORE.INTRA.REPUL>
0

>  <SCORE.INTRA.REPUL.0>
0

>  <SCORE.INTRA.SOLV>
3.31845

>  <SCORE.INTRA.SOLV.lig_0>
-65.3082

>  <SCORE.INTRA.VDW>
5.65636

>  <SCORE.INTRA.VDW.0>
-4.21408

>  <SCORE.INTRA.norm>
0.154977

>  <SCORE.RESTR>
2.29255

>  <SCORE.RESTR.CAVITY>
2.29255

>  <SCORE.RESTR.norm>
0.0739532

>  <SCORE.SYSTEM>
0

>  <SCORE.SYSTEM.CONST>
0

>  <SCORE.SYSTEM.DIHEDRAL>
0

>  <SCORE.SYSTEM.SOLV>
0

>  <SCORE.SYSTEM.norm>
0

>  <SCORE.heavy>
31

>  <SCORE.norm>
-0.0839894

>  <RMSD>
6.806

$$$$
ligand
 OpenBabel11021811493D
libRbt.so/2013.1/901 2013/11/27
 31 33  0  0  0  0  0  0  0  0999 V2000
    1.0293   19.6993   34.5618 C   0  0  2  0  0  0  0  0  0  0  0  0
    2.4309   19.5774   34.7101 O   0  0  0  0  0  0  0  0  0  0  0  0
    5.0199   16.8388   36.6741 C   0  0  2  0  0  0  0  0  0  0  0  0
    5.6191   16.0800   37.7191 N   0  0  0  0  0  0  0  0  0  0  0  0
    2.4329   14.1726   36.8753 C   0  0  2  0  0  0  0  0  0  0  0  0
    0.7343   21.0080   33.7084 C   0  0  2  0  0  0  0  0  0  0  0  0
    1.4140   20.9037   32.4216 N   0  0  0  0  0  0  0  0  0  0  0  0
    5.1577   18.3841   37.0383 C   0  0  0  0  0  0  0  0  0  0  0  0
    3.0413   13.8526   38.2819 C   0  0  2  0  0  0  0  0  0  0  0  0
    3.2511   15.0668   38.9711 O   0  0  0  0  0  0  0  0  0  0  0  0
    1.1941   22.2931   34.4902 C   0  0  0  0  0  0  0  0  0  0  0  0
    4.5057   19.2281   35.8678 C   0  0  2  0  0  0  0  0  0  0  0  0
    4.6312   20.6521   36.1816 N   0  0  0  0  0  0  0  0  0  0  0  0
    4.3974   13.0845   38.0758 C   0  0  1  0  0  0  0  0  0  0  0  0
    5.0106   12.7784   39.4080 N   0  0  0  0  0  0  0  0  0  0  0  0
    0.8661   22.1892   36.0387 C   0  0  0  0  0  0  0  0  0  0  0  0
    2.9775   18.8338   35.7402 C   0  0  2  0  0  0  0  0  0  0  0  0
    4.0975   11.6926   37.2879 C   0  0  1  0  0  0  0  0  0  0  0  0
    3.2192   10.8343   37.9888 O   0  0  0  0  0  0  0  0  0  0  0  0
    0.4989   21.0121   36.6010 C   0  0  1  0  0  0  0  0  0  0  0  0
    0.3764   19.7975   35.8662 O   0  0  0  0  0  0  0  0  0  0  0  0
    2.8504   17.2901   35.4019 C   0  0  2  0  0  0  0  0  0  0  0  0
    1.4555   16.9371   35.3020 O   0  0  0  0  0  0  0  0  0  0  0  0
    3.4552   12.0165   35.9059 C   0  0  0  0  0  0  0  0  0  0  0  0
    2.2237   12.8849   36.0971 O   0  0  0  0  0  0  0  0  0  0  0  0
    0.1855   20.8697   38.0713 C   0  0  0  0  0  0  0  0  0  0  0  0
    0.2527   19.4591   38.3720 O   0  0  0  0  0  0  0  0  0  0  0  0
    3.5067   16.4522   36.5647 C   0  0  1  0  0  0  0  0  0  0  0  0
    3.3872   15.0894   36.2399 O   0  0  0  0  0  0  0  0  0  0  0  0
    5.3403   10.8376   37.0081 C   0  0  0  0  0  0  0  0  0  0  0  0
    6.0517   13.7150   39.8793 C   0  0  0  0  0  0  0  0  0  0  0  0
  1  2  1  1  0  0  0
  1  6  1  0  0  0  0
  1 21  1  0  0  0  0
  3  4  1  1  0  0  0
  3  8  1  0  0  0  0
  3 28  1  0  0  0  0
  5  9  1  0  0  0  0
  5 25  1  0  0  0  0
  5 29  1  6  0  0  0
  6  7  1  6  0  0  0
  6 11  1  0  0  0  0
  8 12  1  0  0  0  0
  9 10  1  6  0  0  0
  9 14  1  0  0  0  0
 11 16  1  0  0  0  0
 12 13  1  1  0  0  0
 12 17  1  0  0  0  0
 14 15  1  1  0  0  0
 14 18  1  0  0  0  0
 15 31  1  0  0  0  0
 16 20  1  0  0  0  0
 17  2  1  6  0  0  0
 17 22  1  0  0  0  0
 18 19  1  1  0  0  0
 18 24  1  0  0  0  0
 18 30  1  0  0  0  0
 20 21  1  0  0  0  0
 20 26  1  1  0  0  0
 22 23  1  1  0  0  0
 22 28  1  0  0  0  0
 24 25  1  0  0  0  0
 26 27  1  0  0  0  0
 28 29  1  6  0  0  0
M  END
>  <CHROM.1>
158.05763898,-76.21479512,-97.31365767,-164.25599510,-162.40969273,136.25147063
2.90232586,16.85305432,36.57853429,2.02063835,-0.75268095,0.02907810

>  <Name>
ligand

>  <RI>
0

>  <Rbt.Current_Directory>
/home/itssahil/PROJECTS/Mol_Feturizer/New_Systems/rnas/4GPY

>  <Rbt.Executable>
rbdock ($Id: //depot/dev/client3/rdock/2013.1/src/exe/rbdock.cxx#4 $)

>  <Rbt.Library>
libRbt.so (2013.1, Build901 2013/11/27)

>  <Rbt.Parameter_File>
/export/apps/rDock/src/rDock_2013.1_src/data/scripts/dock_solv.prm

>  <Rbt.Receptor>
prm/blind_docking_100.prm

>  <SCORE>
-5.91392

>  <SCORE.INTER>
-10.6834

>  <SCORE.INTER.CONST>
1

>  <SCORE.INTER.POLAR>
0

>  <SCORE.INTER.ROT>
6

>  <SCORE.INTER.SOLV>
21.473

>  <SCORE.INTER.VDW>
-21.88

>  <SCORE.INTER.norm>
-0.344627

>  <SCORE.INTRA>
1.67224

>  <SCORE.INTRA.DIHEDRAL>
-0.183408

>  <SCORE.INTRA.DIHEDRAL.0>
14.7001

>  <SCORE.INTRA.POLAR>
0

>  <SCORE.INTRA.POLAR.0>
0

>  <SCORE.INTRA.REPUL>
0

>  <SCORE.INTRA.REPUL.0>
0

>  <SCORE.INTRA.SOLV>
2.31859

>  <SCORE.INTRA.SOLV.lig_0>
-65.3082

>  <SCORE.INTRA.VDW>
0.604644

>  <SCORE.INTRA.VDW.0>
-4.21408

>  <SCORE.INTRA.norm>
0.0539431

>  <SCORE.RESTR>
3.09729

>  <SCORE.RESTR.CAVITY>
3.09729

>  <SCORE.RESTR.norm>
0.0999125

>  <SCORE.SYSTEM>
0

>  <SCORE.SYSTEM.CONST>
0

>  <SCORE.SYSTEM.DIHEDRAL>
0

>  <SCORE.SYSTEM.SOLV>
0

>  <SCORE.SYSTEM.norm>
0

>  <SCORE.heavy>
31

>  <SCORE.norm>
-0.190772

>  <RMSD>
6.813

$$$$
ligand
 OpenBabel11021811493D
libRbt.so/2013.1/901 2013/11/27
 31 33  0  0  0  0  0  0  0  0999 V2000
   -0.3526   16.9121   42.5083 C   0  0  2  0  0  0  0  0  0  0  0  0
   -0.5499   15.8089   43.3717 O   0  0  0  0  0  0  0  0  0  0  0  0
    0.3850   11.6917   42.8868 C   0  0  2  0  0  0  0  0  0  0  0  0
    0.3121   10.3509   42.4139 N   0  0  0  0  0  0  0  0  0  0  0  0
    2.1573   11.0933   40.3276 C   0  0  2  0  0  0  0  0  0  0  0  0
   -0.4221   18.2404   43.3794 C   0  0  2  0  0  0  0  0  0  0  0  0
    0.5898   18.1784   44.4285 N   0  0  0  0  0  0  0  0  0  0  0  0
   -1.0159   12.0631   43.5496 C   0  0  0  0  0  0  0  0  0  0  0  0
    3.6417   11.2057   39.8426 C   0  0  2  0  0  0  0  0  0  0  0  0
    4.4737   11.3826   40.9693 O   0  0  0  0  0  0  0  0  0  0  0  0
   -1.8601   18.4272   43.9887 C   0  0  0  0  0  0  0  0  0  0  0  0
   -0.9289   13.5490   44.0900 C   0  0  2  0  0  0  0  0  0  0  0  0
   -2.2055   13.9046   44.7109 N   0  0  0  0  0  0  0  0  0  0  0  0
    3.7555   12.4315   38.8648 C   0  0  1  0  0  0  0  0  0  0  0  0
    5.1715   12.5723   38.3962 N   0  0  0  0  0  0  0  0  0  0  0  0
   -2.9943   18.0199   42.9573 C   0  0  0  0  0  0  0  0  0  0  0  0
   -0.6273   14.5200   42.8762 C   0  0  2  0  0  0  0  0  0  0  0  0
    2.7869   12.1719   37.5831 C   0  0  1  0  0  0  0  0  0  0  0  0
    3.1265   11.0081   36.8554 O   0  0  0  0  0  0  0  0  0  0  0  0
   -2.6998   17.3400   41.8225 C   0  0  1  0  0  0  0  0  0  0  0  0
   -1.3779   16.9453   41.4666 O   0  0  0  0  0  0  0  0  0  0  0  0
    0.7561   14.1272   42.2086 C   0  0  2  0  0  0  0  0  0  0  0  0
    1.0152   15.0071   41.0956 O   0  0  0  0  0  0  0  0  0  0  0  0
    1.3168   12.0209   38.0766 C   0  0  0  0  0  0  0  0  0  0  0  0
    1.2335   10.9322   39.1325 O   0  0  0  0  0  0  0  0  0  0  0  0
   -3.7505   16.9276   40.8193 C   0  0  0  0  0  0  0  0  0  0  0  0
   -3.4591   17.6437   39.5998 O   0  0  0  0  0  0  0  0  0  0  0  0
    0.6695   12.6453   41.6781 C   0  0  1  0  0  0  0  0  0  0  0  0
    1.9074   12.3183   41.0969 O   0  0  0  0  0  0  0  0  0  0  0  0
    2.7902   13.2995   36.5427 C   0  0  0  0  0  0  0  0  0  0  0  0
    5.7617   13.9233   38.4951 C   0  0  0  0  0  0  0  0  0  0  0  0
  1  2  1  1  0  0  0
  1  6  1  0  0  0  0
  1 21  1  0  0  0  0
  3  4  1  6  0  0  0
  3  8  1  0  0  0  0
  3 28  1  0  0  0  0
  5  9  1  0  0  0  0
  5 25  1  0  0  0  0
  5 29  1  6  0  0  0
  6  7  1  1  0  0  0
  6 11  1  0  0  0  0
  8 12  1  0  0  0  0
  9 10  1  1  0  0  0
  9 14  1  0  0  0  0
 11 16  1  0  0  0  0
 12 13  1  6  0  0  0
 12 17  1  0  0  0  0
 14 15  1  6  0  0  0
 14 18  1  0  0  0  0
 15 31  1  0  0  0  0
 16 20  1  0  0  0  0
 17  2  1  1  0  0  0
 17 22  1  0  0  0  0
 18 19  1  6  0  0  0
 18 24  1  0  0  0  0
 18 30  1  0  0  0  0
 20 21  1  0  0  0  0
 20 26  1  1  0  0  0
 22 23  1  6  0  0  0
 22 28  1  0  0  0  0
 24 25  1  0  0  0  0
 26 27  1  0  0  0  0
 28 29  1  1  0  0  0
M  END
>  <CHROM.1>
175.76678032,177.71288931,-130.75455170,-176.92371679,115.57094215,70.36339320
0.64655053,14.08789437,41.11856794,-2.99817161,-0.88893294,2.42185180

>  <Name>
ligand

>  <RI>
0

>  <Rbt.Current_Directory>
/home/itssahil/PROJECTS/Mol_Feturizer/New_Systems/rnas/4GPY

>  <Rbt.Executable>
rbdock ($Id: //depot/dev/client3/rdock/2013.1/src/exe/rbdock.cxx#4 $)

>  <Rbt.Library>
libRbt.so (2013.1, Build901 2013/11/27)

>  <Rbt.Parameter_File>
/export/apps/rDock/src/rDock_2013.1_src/data/scripts/dock_solv.prm

>  <Rbt.Receptor>
prm/pocket_docking_6.prm

>  <SCORE>
-5.23142

>  <SCORE.INTER>
-0.126534

>  <SCORE.INTER.CONST>
1

>  <SCORE.INTER.POLAR>
0

>  <SCORE.INTER.ROT>
6

>  <SCORE.INTER.SOLV>
7.14789

>  <SCORE.INTER.VDW>
-10.067

>  <SCORE.INTER.norm>
-0.00408173

>  <SCORE.INTRA>
-5.10489

>  <SCORE.INTRA.DIHEDRAL>
-11.2011

>  <SCORE.INTRA.DIHEDRAL.0>
14.7001

>  <SCORE.INTRA.POLAR>
0

>  <SCORE.INTRA.POLAR.0>
0

>  <SCORE.INTRA.REPUL>
0

>  <SCORE.INTRA.REPUL.0>
0

>  <SCORE.INTRA.SOLV>
-1.63644

>  <SCORE.INTRA.SOLV.lig_0>
-65.3082

>  <SCORE.INTRA.VDW>
1.31389

>  <SCORE.INTRA.VDW.0>
-4.21408

>  <SCORE.INTRA.norm>
-0.164674

>  <SCORE.RESTR>
0

>  <SCORE.RESTR.CAVITY>
0

>  <SCORE.RESTR.norm>
0

>  <SCORE.SYSTEM>
0

>  <SCORE.SYSTEM.CONST>
0

>  <SCORE.SYSTEM.DIHEDRAL>
0

>  <SCORE.SYSTEM.SOLV>
0

>  <SCORE.SYSTEM.norm>
0

>  <SCORE.heavy>
31

>  <SCORE.norm>
-0.168755

>  <RMSD>
6.829

$$$$
ligand
 OpenBabel11021811493D
libRbt.so/2013.1/901 2013/11/27
 31 33  0  0  0  0  0  0  0  0999 V2000
    0.8237   19.7433   34.4830 C   0  0  2  0  0  0  0  0  0  0  0  0
    2.2264   19.5727   34.5517 O   0  0  0  0  0  0  0  0  0  0  0  0
    4.9616   17.0529   36.6082 C   0  0  2  0  0  0  0  0  0  0  0  0
    5.6009   16.3657   37.6787 N   0  0  0  0  0  0  0  0  0  0  0  0
    2.4523   14.2742   36.8198 C   0  0  2  0  0  0  0  0  0  0  0  0
    0.5236   21.0091   33.5688 C   0  0  2  0  0  0  0  0  0  0  0  0
    1.1148   20.7991   32.2515 N   0  0  0  0  0  0  0  0  0  0  0  0
    5.0124   18.6153   36.9183 C   0  0  0  0  0  0  0  0  0  0  0  0
    3.0085   13.9289   38.2420 C   0  0  2  0  0  0  0  0  0  0  0  0
    3.1933   15.1305   38.9597 O   0  0  0  0  0  0  0  0  0  0  0  0
    1.0806   22.3189   34.2382 C   0  0  0  0  0  0  0  0  0  0  0  0
    4.3158   19.3803   35.7196 C   0  0  2  0  0  0  0  0  0  0  0  0
    4.3612   20.8191   35.9835 N   0  0  0  0  0  0  0  0  0  0  0  0
    4.3710   13.1631   38.0723 C   0  0  1  0  0  0  0  0  0  0  0  0
    4.9346   12.8329   39.4206 N   0  0  0  0  0  0  0  0  0  0  0  0
    0.8492   22.3225   35.8074 C   0  0  0  0  0  0  0  0  0  0  0  0
    2.8122   18.8971   35.6067 C   0  0  2  0  0  0  0  0  0  0  0  0
    4.0997   11.7855   37.2496 C   0  0  1  0  0  0  0  0  0  0  0  0
    3.1958   10.9160   37.9024 O   0  0  0  0  0  0  0  0  0  0  0  0
    0.4751   21.1978   36.4644 C   0  0  1  0  0  0  0  0  0  0  0  0
    0.2601   19.9471   35.8165 O   0  0  0  0  0  0  0  0  0  0  0  0
    2.7720   17.3378   35.3224 C   0  0  2  0  0  0  0  0  0  0  0  0
    1.3991   16.9042   35.2357 O   0  0  0  0  0  0  0  0  0  0  0  0
    3.5087   12.1344   35.8508 C   0  0  0  0  0  0  0  0  0  0  0  0
    2.2714   13.0006   36.0118 O   0  0  0  0  0  0  0  0  0  0  0  0
    0.2517   21.1577   37.9573 C   0  0  0  0  0  0  0  0  0  0  0  0
    0.2380   19.7640   38.3344 O   0  0  0  0  0  0  0  0  0  0  0  0
    3.4725   16.5789   36.5133 C   0  0  1  0  0  0  0  0  0  0  0  0
    3.4298   15.2011   36.2362 O   0  0  0  0  0  0  0  0  0  0  0  0
    5.3516   10.9344   37.0005 C   0  0  0  0  0  0  0  0  0  0  0  0
    5.7591   13.8799   40.0589 C   0  0  0  0  0  0  0  0  0  0  0  0
  1  2  1  1  0  0  0
  1  6  1  0  0  0  0
  1 21  1  0  0  0  0
  3  4  1  1  0  0  0
  3  8  1  0  0  0  0
  3 28  1  0  0  0  0
  5  9  1  0  0  0  0
  5 25  1  0  0  0  0
  5 29  1  6  0  0  0
  6  7  1  6  0  0  0
  6 11  1  0  0  0  0
  8 12  1  0  0  0  0
  9 10  1  1  0  0  0
  9 14  1  0  0  0  0
 11 16  1  0  0  0  0
 12 13  1  1  0  0  0
 12 17  1  0  0  0  0
 14 15  1  1  0  0  0
 14 18  1  0  0  0  0
 15 31  1  0  0  0  0
 16 20  1  0  0  0  0
 17  2  1  6  0  0  0
 17 22  1  0  0  0  0
 18 19  1  1  0  0  0
 18 24  1  0  0  0  0
 18 30  1  0  0  0  0
 20 21  1  0  0  0  0
 20 26  1  1  0  0  0
 22 23  1  1  0  0  0
 22 28  1  0  0  0  0
 24 25  1  0  0  0  0
 26 27  1  0  0  0  0
 28 29  1  6  0  0  0
M  END
>  <CHROM.1>
156.56521245,-81.24955436,-86.12938703,-156.86243346,-164.39023509,141.63164514
2.82289122,16.96386321,36.50030751,2.14552491,-0.93187983,0.17683016

>  <Name>
ligand

>  <RI>
0

>  <Rbt.Current_Directory>
/home/itssahil/PROJECTS/Mol_Feturizer/New_Systems/rnas/4GPY

>  <Rbt.Executable>
rbdock ($Id: //depot/dev/client3/rdock/2013.1/src/exe/rbdock.cxx#4 $)

>  <Rbt.Library>
libRbt.so (2013.1, Build901 2013/11/27)

>  <Rbt.Parameter_File>
/export/apps/rDock/src/rDock_2013.1_src/data/scripts/dock_solv.prm

>  <Rbt.Receptor>
prm/blind_docking_80.prm

>  <SCORE>
-7.44495

>  <SCORE.INTER>
-11.1515

>  <SCORE.INTER.CONST>
1

>  <SCORE.INTER.POLAR>
0

>  <SCORE.INTER.ROT>
6

>  <SCORE.INTER.SOLV>
21.9328

>  <SCORE.INTER.VDW>
-22.3452

>  <SCORE.INTER.norm>
-0.359725

>  <SCORE.INTRA>
2.18847

>  <SCORE.INTRA.DIHEDRAL>
0.928852

>  <SCORE.INTRA.DIHEDRAL.0>
14.7001

>  <SCORE.INTRA.POLAR>
0

>  <SCORE.INTRA.POLAR.0>
0

>  <SCORE.INTRA.REPUL>
0

>  <SCORE.INTRA.REPUL.0>
0

>  <SCORE.INTRA.SOLV>
2.27834

>  <SCORE.INTRA.SOLV.lig_0>
-65.3082

>  <SCORE.INTRA.VDW>
0.58488

>  <SCORE.INTRA.VDW.0>
-4.21408

>  <SCORE.INTRA.norm>
0.070596

>  <SCORE.RESTR>
1.51805

>  <SCORE.RESTR.CAVITY>
1.51805

>  <SCORE.RESTR.norm>
0.0489694

>  <SCORE.SYSTEM>
0

>  <SCORE.SYSTEM.CONST>
0

>  <SCORE.SYSTEM.DIHEDRAL>
0

>  <SCORE.SYSTEM.SOLV>
0

>  <SCORE.SYSTEM.norm>
0

>  <SCORE.heavy>
31

>  <SCORE.norm>
-0.24016

>  <RMSD>
6.846

$$$$
ligand
 OpenBabel11021811493D
libRbt.so/2013.1/901 2013/11/27
 31 33  0  0  0  0  0  0  0  0999 V2000
    5.7327   19.9011   35.6559 C   0  0  2  0  0  0  0  0  0  0  0  0
    4.3261   19.9981   35.7720 O   0  0  0  0  0  0  0  0  0  0  0  0
    1.2762   17.0719   36.2139 C   0  0  2  0  0  0  0  0  0  0  0  0
    0.4033   15.9924   35.8985 N   0  0  0  0  0  0  0  0  0  0  0  0
    4.2717   15.0026   37.4496 C   0  0  2  0  0  0  0  0  0  0  0  0
    6.3754   21.1816   36.3453 C   0  0  2  0  0  0  0  0  0  0  0  0
    5.9439   21.2429   37.7376 N   0  0  0  0  0  0  0  0  0  0  0  0
    1.0484   18.2270   35.1399 C   0  0  0  0  0  0  0  0  0  0  0  0
    3.9816   13.5778   38.0301 C   0  0  2  0  0  0  0  0  0  0  0  0
    3.2636   12.8348   37.0680 O   0  0  0  0  0  0  0  0  0  0  0  0
    5.9722   22.4885   35.5684 C   0  0  0  0  0  0  0  0  0  0  0  0
    2.0077   19.4341   35.5009 C   0  0  2  0  0  0  0  0  0  0  0  0
    1.8053   20.5092   34.5288 N   0  0  0  0  0  0  0  0  0  0  0  0
    3.1453   13.7384   39.3516 C   0  0  1  0  0  0  0  0  0  0  0  0
    2.8396   12.3871   39.9217 N   0  0  0  0  0  0  0  0  0  0  0  0
    5.9818   22.2667   33.9979 C   0  0  0  0  0  0  0  0  0  0  0  0
    3.5081   18.9310   35.4482 C   0  0  2  0  0  0  0  0  0  0  0  0
    4.0207   14.5912   40.4261 C   0  0  1  0  0  0  0  0  0  0  0  0
    5.2450   13.9702   40.7646 O   0  0  0  0  0  0  0  0  0  0  0  0
    6.0566   21.0229   33.4651 C   0  0  1  0  0  0  0  0  0  0  0  0
    6.1340   19.8372   34.2514 O   0  0  0  0  0  0  0  0  0  0  0  0
    3.7183   17.7659   36.5028 C   0  0  2  0  0  0  0  0  0  0  0  0
    5.0832   17.3043   36.4375 O   0  0  0  0  0  0  0  0  0  0  0  0
    4.3402   15.9931   39.8262 C   0  0  0  0  0  0  0  0  0  0  0  0
    5.0185   15.8371   38.4760 O   0  0  0  0  0  0  0  0  0  0  0  0
    6.0612   20.7688   31.9765 C   0  0  0  0  0  0  0  0  0  0  0  0
    4.6821   20.7975   31.5496 O   0  0  0  0  0  0  0  0  0  0  0  0
    2.7572   16.5686   36.1458 C   0  0  1  0  0  0  0  0  0  0  0  0
    2.9571   15.5520   37.0964 O   0  0  0  0  0  0  0  0  0  0  0  0
    3.3203   14.8346   41.7693 C   0  0  0  0  0  0  0  0  0  0  0  0
    1.5152   11.8219   39.5902 C   0  0  0  0  0  0  0  0  0  0  0  0
  1  2  1  6  0  0  0
  1  6  1  0  0  0  0
  1 21  1  0  0  0  0
  3  4  1  6  0  0  0
  3  8  1  0  0  0  0
  3 28  1  0  0  0  0
  5  9  1  0  0  0  0
  5 25  1  0  0  0  0
  5 29  1  1  0  0  0
  6  7  1  1  0  0  0
  6 11  1  0  0  0  0
  8 12  1  0  0  0  0
  9 10  1  6  0  0  0
  9 14  1  0  0  0  0
 11 16  1  0  0  0  0
 12 13  1  6  0  0  0
 12 17  1  0  0  0  0
 14 15  1  1  0  0  0
 14 18  1  0  0  0  0
 15 31  1  0  0  0  0
 16 20  1  0  0  0  0
 17  2  1  1  0  0  0
 17 22  1  0  0  0  0
 18 19  1  1  0  0  0
 18 24  1  0  0  0  0
 18 30  1  0  0  0  0
 20 21  1  0  0  0  0
 20 26  1  1  0  0  0
 22 23  1  6  0  0  0
 22 28  1  0  0  0  0
 24 25  1  0  0  0  0
 26 27  1  0  0  0  0
 28 29  1  1  0  0  0
M  END
>  <CHROM.1>
-169.89929905,-156.83842488,-96.82722866,-172.43678928,-82.19777991,-170.04758490
3.97815879,17.43944123,36.70610578,-1.30451341,0.63251328,2.35767639

>  <Name>
ligand

>  <RI>
0

>  <Rbt.Current_Directory>
/home/itssahil/PROJECTS/Mol_Feturizer/New_Systems/rnas/4GPY

>  <Rbt.Executable>
rbdock ($Id: //depot/dev/client3/rdock/2013.1/src/exe/rbdock.cxx#4 $)

>  <Rbt.Library>
libRbt.so (2013.1, Build901 2013/11/27)

>  <Rbt.Parameter_File>
/export/apps/rDock/src/rDock_2013.1_src/data/scripts/dock_solv.prm

>  <Rbt.Receptor>
prm/pocket_docking_7.prm

>  <SCORE>
-12.952

>  <SCORE.INTER>
-10.8252

>  <SCORE.INTER.CONST>
1

>  <SCORE.INTER.POLAR>
0

>  <SCORE.INTER.ROT>
6

>  <SCORE.INTER.SOLV>
19.0218

>  <SCORE.INTER.VDW>
-21.1574

>  <SCORE.INTER.norm>
-0.349199

>  <SCORE.INTRA>
-2.12686

>  <SCORE.INTRA.DIHEDRAL>
-7.27267

>  <SCORE.INTRA.DIHEDRAL.0>
14.7001

>  <SCORE.INTRA.POLAR>
0

>  <SCORE.INTRA.POLAR.0>
0

>  <SCORE.INTRA.REPUL>
0

>  <SCORE.INTRA.REPUL.0>
0

>  <SCORE.INTRA.SOLV>
-2.26637

>  <SCORE.INTRA.SOLV.lig_0>
-65.3082

>  <SCORE.INTRA.VDW>
2.64266

>  <SCORE.INTRA.VDW.0>
-4.21408

>  <SCORE.INTRA.norm>
-0.0686084

>  <SCORE.RESTR>
0

>  <SCORE.RESTR.CAVITY>
0

>  <SCORE.RESTR.norm>
0

>  <SCORE.SYSTEM>
0

>  <SCORE.SYSTEM.CONST>
0

>  <SCORE.SYSTEM.DIHEDRAL>
0

>  <SCORE.SYSTEM.SOLV>
0

>  <SCORE.SYSTEM.norm>
0

>  <SCORE.heavy>
31

>  <SCORE.norm>
-0.417807

>  <RMSD>
6.874

$$$$
ligand
 OpenBabel11021811493D
libRbt.so/2013.1/901 2013/11/27
 31 33  0  0  0  0  0  0  0  0999 V2000
    0.6611   20.1740   35.3623 C   0  0  2  0  0  0  0  0  0  0  0  0
    2.0737   20.2378   35.4024 O   0  0  0  0  0  0  0  0  0  0  0  0
    4.8917   17.2358   36.4545 C   0  0  2  0  0  0  0  0  0  0  0  0
    5.6760   16.3612   37.2588 N   0  0  0  0  0  0  0  0  0  0  0  0
    2.0865   14.7399   36.9031 C   0  0  2  0  0  0  0  0  0  0  0  0
    0.2088   20.1791   33.8380 C   0  0  2  0  0  0  0  0  0  0  0  0
    0.8276   19.0502   33.1514 N   0  0  0  0  0  0  0  0  0  0  0  0
    5.1996   18.7341   36.9015 C   0  0  0  0  0  0  0  0  0  0  0  0
    2.6085   14.4626   38.3529 C   0  0  2  0  0  0  0  0  0  0  0  0
    2.8257   15.6985   38.9998 O   0  0  0  0  0  0  0  0  0  0  0  0
    0.5941   21.5409   33.1517 C   0  0  0  0  0  0  0  0  0  0  0  0
    4.3394   19.7072   35.9956 C   0  0  2  0  0  0  0  0  0  0  0  0
    4.6166   21.0899   36.3867 N   0  0  0  0  0  0  0  0  0  0  0  0
    3.9448   13.6405   38.2532 C   0  0  1  0  0  0  0  0  0  0  0  0
    4.4758   13.3736   39.6284 N   0  0  0  0  0  0  0  0  0  0  0  0
    0.3570   22.7756   34.1187 C   0  0  0  0  0  0  0  0  0  0  0  0
    2.8043   19.3816   36.2061 C   0  0  2  0  0  0  0  0  0  0  0  0
    3.6364   12.2258   37.5106 C   0  0  1  0  0  0  0  0  0  0  0  0
    2.6920   11.4299   38.1991 O   0  0  0  0  0  0  0  0  0  0  0  0
    0.1238   22.5964   35.4416 C   0  0  1  0  0  0  0  0  0  0  0  0
    0.0704   21.3143   36.0610 O   0  0  0  0  0  0  0  0  0  0  0  0
    2.5129   17.8821   35.7817 C   0  0  2  0  0  0  0  0  0  0  0  0
    1.1159   17.5902   35.9905 O   0  0  0  0  0  0  0  0  0  0  0  0
    3.0795   12.5092   36.0833 C   0  0  0  0  0  0  0  0  0  0  0  0
    1.8719   13.4266   36.1705 O   0  0  0  0  0  0  0  0  0  0  0  0
   -0.0994   23.7448   36.3965 C   0  0  0  0  0  0  0  0  0  0  0  0
   -1.0598   23.2877   37.3730 O   0  0  0  0  0  0  0  0  0  0  0  0
    3.3758   16.9157   36.6797 C   0  0  1  0  0  0  0  0  0  0  0  0
    3.1054   15.5946   36.2815 O   0  0  0  0  0  0  0  0  0  0  0  0
    4.8604   11.3176   37.3350 C   0  0  0  0  0  0  0  0  0  0  0  0
    5.9200   13.6128   39.8295 C   0  0  0  0  0  0  0  0  0  0  0  0
  1  2  1  6  0  0  0
  1  6  1  0  0  0  0
  1 21  1  0  0  0  0
  3  4  1  1  0  0  0
  3  8  1  0  0  0  0
  3 28  1  0  0  0  0
  5  9  1  0  0  0  0
  5 25  1  0  0  0  0
  5 29  1  6  0  0  0
  6  7  1  6  0  0  0
  6 11  1  0  0  0  0
  8 12  1  0  0  0  0
  9 10  1  6  0  0  0
  9 14  1  0  0  0  0
 11 16  1  0  0  0  0
 12 13  1  1  0  0  0
 12 17  1  0  0  0  0
 14 15  1  1  0  0  0
 14 18  1  0  0  0  0
 15 31  1  0  0  0  0
 16 20  1  0  0  0  0
 17  2  1  6  0  0  0
 17 22  1  0  0  0  0
 18 19  1  1  0  0  0
 18 24  1  0  0  0  0
 18 30  1  0  0  0  0
 20 21  1  0  0  0  0
 20 26  1  1  0  0  0
 22 23  1  1  0  0  0
 22 28  1  0  0  0  0
 24 25  1  0  0  0  0
 26 27  1  0  0  0  0
 28 29  1  6  0  0  0
M  END
>  <CHROM.1>
-132.39484092,-67.33293565,-134.19506558,179.18831144,145.26294162,148.23951796
2.53539209,17.46322150,36.52110321,1.97746119,-0.54468189,-0.07344474

>  <Name>
ligand

>  <RI>
0

>  <Rbt.Current_Directory>
/home/itssahil/PROJECTS/Mol_Feturizer/New_Systems/rnas/4GPY

>  <Rbt.Executable>
rbdock ($Id: //depot/dev/client3/rdock/2013.1/src/exe/rbdock.cxx#4 $)

>  <Rbt.Library>
libRbt.so (2013.1, Build901 2013/11/27)

>  <Rbt.Parameter_File>
/export/apps/rDock/src/rDock_2013.1_src/data/scripts/dock_solv.prm

>  <Rbt.Receptor>
prm/blind_docking_100.prm

>  <SCORE>
-0.727183

>  <SCORE.INTER>
-5.32986

>  <SCORE.INTER.CONST>
1

>  <SCORE.INTER.POLAR>
0

>  <SCORE.INTER.ROT>
6

>  <SCORE.INTER.SOLV>
22.9701

>  <SCORE.INTER.VDW>
-18.8099

>  <SCORE.INTER.norm>
-0.171931

>  <SCORE.INTRA>
2.45669

>  <SCORE.INTRA.DIHEDRAL>
-0.588013

>  <SCORE.INTRA.DIHEDRAL.0>
14.7001

>  <SCORE.INTRA.POLAR>
0

>  <SCORE.INTRA.POLAR.0>
0

>  <SCORE.INTRA.REPUL>
0

>  <SCORE.INTRA.REPUL.0>
0

>  <SCORE.INTRA.SOLV>
1.82518

>  <SCORE.INTRA.SOLV.lig_0>
-65.3082

>  <SCORE.INTRA.VDW>
1.83811

>  <SCORE.INTRA.VDW.0>
-4.21408

>  <SCORE.INTRA.norm>
0.0792482

>  <SCORE.RESTR>
2.14599

>  <SCORE.RESTR.CAVITY>
2.14599

>  <SCORE.RESTR.norm>
0.0692253

>  <SCORE.SYSTEM>
0

>  <SCORE.SYSTEM.CONST>
0

>  <SCORE.SYSTEM.DIHEDRAL>
0

>  <SCORE.SYSTEM.SOLV>
0

>  <SCORE.SYSTEM.norm>
0

>  <SCORE.heavy>
31

>  <SCORE.norm>
-0.0234575

>  <RMSD>
6.876

$$$$
ligand
 OpenBabel11021811493D
libRbt.so/2013.1/901 2013/11/27
 31 33  0  0  0  0  0  0  0  0999 V2000
    0.7484   19.9486   34.2741 C   0  0  2  0  0  0  0  0  0  0  0  0
    2.1522   19.7841   34.3330 O   0  0  0  0  0  0  0  0  0  0  0  0
    4.9089   17.3111   36.4174 C   0  0  2  0  0  0  0  0  0  0  0  0
    5.5609   16.6499   37.4966 N   0  0  0  0  0  0  0  0  0  0  0  0
    2.3277   14.5636   36.6418 C   0  0  2  0  0  0  0  0  0  0  0  0
    0.4368   21.2193   33.3706 C   0  0  2  0  0  0  0  0  0  0  0  0
    1.0207   21.0212   32.0483 N   0  0  0  0  0  0  0  0  0  0  0  0
    4.9674   18.8807   36.6865 C   0  0  0  0  0  0  0  0  0  0  0  0
    2.5894   14.4916   38.1837 C   0  0  2  0  0  0  0  0  0  0  0  0
    2.5743   15.8027   38.7070 O   0  0  0  0  0  0  0  0  0  0  0  0
    0.9920   22.5271   34.0456 C   0  0  0  0  0  0  0  0  0  0  0  0
    4.2566   19.6165   35.4777 C   0  0  2  0  0  0  0  0  0  0  0  0
    4.3086   21.0614   35.7039 N   0  0  0  0  0  0  0  0  0  0  0  0
    3.9860   13.8101   38.4213 C   0  0  1  0  0  0  0  0  0  0  0  0
    4.2698   13.7418   39.8908 N   0  0  0  0  0  0  0  0  0  0  0  0
    0.7703   22.5188   35.6162 C   0  0  0  0  0  0  0  0  0  0  0  0
    2.7505   19.1343   35.3972 C   0  0  2  0  0  0  0  0  0  0  0  0
    3.9452   12.3027   37.8096 C   0  0  1  0  0  0  0  0  0  0  0  0
    2.9600   11.4850   38.4095 O   0  0  0  0  0  0  0  0  0  0  0  0
    0.4054   21.3878   36.2677 C   0  0  1  0  0  0  0  0  0  0  0  0
    0.1922   20.1406   35.6126 O   0  0  0  0  0  0  0  0  0  0  0  0
    2.7031   17.5684   35.1537 C   0  0  2  0  0  0  0  0  0  0  0  0
    1.3282   17.1362   35.0964 O   0  0  0  0  0  0  0  0  0  0  0  0
    3.6446   12.3794   36.2828 C   0  0  0  0  0  0  0  0  0  0  0  0
    2.3681   13.1675   36.0445 O   0  0  0  0  0  0  0  0  0  0  0  0
    0.1916   21.3364   37.7616 C   0  0  0  0  0  0  0  0  0  0  0  0
    0.3126   19.9503   38.1475 O   0  0  0  0  0  0  0  0  0  0  0  0
    3.4177   16.8386   36.3544 C   0  0  1  0  0  0  0  0  0  0  0  0
    3.3682   15.4542   36.1135 O   0  0  0  0  0  0  0  0  0  0  0  0
    5.2537   11.5165   37.9634 C   0  0  0  0  0  0  0  0  0  0  0  0
    4.5727   15.0246   40.5586 C   0  0  0  0  0  0  0  0  0  0  0  0
  1  2  1  1  0  0  0
  1  6  1  0  0  0  0
  1 21  1  0  0  0  0
  3  4  1  1  0  0  0
  3  8  1  0  0  0  0
  3 28  1  0  0  0  0
  5  9  1  0  0  0  0
  5 25  1  0  0  0  0
  5 29  1  6  0  0  0
  6  7  1  6  0  0  0
  6 11  1  0  0  0  0
  8 12  1  0  0  0  0
  9 10  1  6  0  0  0
  9 14  1  0  0  0  0
 11 16  1  0  0  0  0
 12 13  1  1  0  0  0
 12 17  1  0  0  0  0
 14 15  1  1  0  0  0
 14 18  1  0  0  0  0
 15 31  1  0  0  0  0
 16 20  1  0  0  0  0
 17  2  1  6  0  0  0
 17 22  1  0  0  0  0
 18 19  1  1  0  0  0
 18 24  1  0  0  0  0
 18 30  1  0  0  0  0
 20 21  1  0  0  0  0
 20 26  1  1  0  0  0
 22 23  1  1  0  0  0
 22 28  1  0  0  0  0
 24 25  1  0  0  0  0
 26 27  1  0  0  0  0
 28 29  1  6  0  0  0
M  END
>  <CHROM.1>
154.86119244,-69.69306800,-71.01829905,-157.28408695,-159.10176664,147.11455463
2.66514979,17.31382437,36.48278874,2.48267470,-1.18171646,0.49521089

>  <Name>
ligand

>  <RI>
0

>  <Rbt.Current_Directory>
/home/itssahil/PROJECTS/Mol_Feturizer/New_Systems/rnas/4GPY

>  <Rbt.Executable>
rbdock ($Id: //depot/dev/client3/rdock/2013.1/src/exe/rbdock.cxx#4 $)

>  <Rbt.Library>
libRbt.so (2013.1, Build901 2013/11/27)

>  <Rbt.Parameter_File>
/export/apps/rDock/src/rDock_2013.1_src/data/scripts/dock_solv.prm

>  <Rbt.Receptor>
prm/blind_docking_80.prm

>  <SCORE>
-6.17083

>  <SCORE.INTER>
-9.51732

>  <SCORE.INTER.CONST>
1

>  <SCORE.INTER.POLAR>
0

>  <SCORE.INTER.ROT>
6

>  <SCORE.INTER.SOLV>
21.5787

>  <SCORE.INTER.VDW>
-21.1378

>  <SCORE.INTER.norm>
-0.30701

>  <SCORE.INTRA>
1.85912

>  <SCORE.INTRA.DIHEDRAL>
-1.97433

>  <SCORE.INTRA.DIHEDRAL.0>
14.7001

>  <SCORE.INTRA.POLAR>
0

>  <SCORE.INTRA.POLAR.0>
0

>  <SCORE.INTRA.REPUL>
0

>  <SCORE.INTRA.REPUL.0>
0

>  <SCORE.INTRA.SOLV>
2.0824

>  <SCORE.INTRA.SOLV.lig_0>
-65.3082

>  <SCORE.INTRA.VDW>
1.80509

>  <SCORE.INTRA.VDW.0>
-4.21408

>  <SCORE.INTRA.norm>
0.0599716

>  <SCORE.RESTR>
1.48737

>  <SCORE.RESTR.CAVITY>
1.48737

>  <SCORE.RESTR.norm>
0.0479797

>  <SCORE.SYSTEM>
0

>  <SCORE.SYSTEM.CONST>
0

>  <SCORE.SYSTEM.DIHEDRAL>
0

>  <SCORE.SYSTEM.SOLV>
0

>  <SCORE.SYSTEM.norm>
0

>  <SCORE.heavy>
31

>  <SCORE.norm>
-0.199059

>  <RMSD>
6.903

$$$$
ligand
 OpenBabel11021811493D
libRbt.so/2013.1/901 2013/11/27
 31 33  0  0  0  0  0  0  0  0999 V2000
   -3.1296   13.4107   39.5827 C   0  0  2  0  0  0  0  0  0  0  0  0
   -1.9056   13.6016   40.2658 O   0  0  0  0  0  0  0  0  0  0  0  0
   -0.1928   16.6373   37.8346 C   0  0  2  0  0  0  0  0  0  0  0  0
    0.7299   17.6179   37.3720 N   0  0  0  0  0  0  0  0  0  0  0  0
    2.2751   15.0130   36.0370 C   0  0  2  0  0  0  0  0  0  0  0  0
   -4.0983   12.5759   40.5276 C   0  0  2  0  0  0  0  0  0  0  0  0
   -4.2788   13.2956   41.7838 N   0  0  0  0  0  0  0  0  0  0  0  0
   -0.6407   17.0324   39.3121 C   0  0  0  0  0  0  0  0  0  0  0  0
    3.0123   13.7205   36.5241 C   0  0  2  0  0  0  0  0  0  0  0  0
    2.3024   12.5922   36.0593 O   0  0  0  0  0  0  0  0  0  0  0  0
   -3.5198   11.1348   40.7776 C   0  0  0  0  0  0  0  0  0  0  0  0
   -1.6795   15.9504   39.8199 C   0  0  2  0  0  0  0  0  0  0  0  0
   -2.1091   16.3026   41.1738 N   0  0  0  0  0  0  0  0  0  0  0  0
    3.0667   13.7395   38.0952 C   0  0  1  0  0  0  0  0  0  0  0  0
    3.7548   12.5043   38.5904 N   0  0  0  0  0  0  0  0  0  0  0  0
   -2.8699   10.5252   39.4653 C   0  0  0  0  0  0  0  0  0  0  0  0
   -0.9799   14.5300   39.8254 C   0  0  2  0  0  0  0  0  0  0  0  0
    3.9019   15.0510   38.5755 C   0  0  1  0  0  0  0  0  0  0  0  0
    5.2329   15.0687   38.0987 O   0  0  0  0  0  0  0  0  0  0  0  0
   -2.6206   11.2989   38.3810 C   0  0  1  0  0  0  0  0  0  0  0  0
   -2.9164   12.6916   38.3277 O   0  0  0  0  0  0  0  0  0  0  0  0
   -0.5164   14.1569   38.3558 C   0  0  2  0  0  0  0  0  0  0  0  0
    0.1324   12.8688   38.3731 O   0  0  0  0  0  0  0  0  0  0  0  0
    3.1850   16.3320   38.0534 C   0  0  0  0  0  0  0  0  0  0  0  0
    3.0003   16.2460   36.5482 O   0  0  0  0  0  0  0  0  0  0  0  0
   -1.9970   10.7590   37.1160 C   0  0  0  0  0  0  0  0  0  0  0  0
   -3.0778   10.5449   36.1829 O   0  0  0  0  0  0  0  0  0  0  0  0
    0.5118   15.2393   37.8497 C   0  0  1  0  0  0  0  0  0  0  0  0
    0.9031   14.8910   36.5449 O   0  0  0  0  0  0  0  0  0  0  0  0
    4.0285   15.2044   40.0968 C   0  0  0  0  0  0  0  0  0  0  0  0
    2.8801   11.4296   39.1036 C   0  0  0  0  0  0  0  0  0  0  0  0
  1  2  1  1  0  0  0
  1  6  1  0  0  0  0
  1 21  1  0  0  0  0
  3  4  1  1  0  0  0
  3  8  1  0  0  0  0
  3 28  1  0  0  0  0
  5  9  1  0  0  0  0
  5 25  1  0  0  0  0
  5 29  1  1  0  0  0
  6  7  1  1  0  0  0
  6 11  1  0  0  0  0
  8 12  1  0  0  0  0
  9 10  1  1  0  0  0
  9 14  1  0  0  0  0
 11 16  1  0  0  0  0
 12 13  1  1  0  0  0
 12 17  1  0  0  0  0
 14 15  1  6  0  0  0
 14 18  1  0  0  0  0
 15 31  1  0  0  0  0
 16 20  1  0  0  0  0
 17  2  1  6  0  0  0
 17 22  1  0  0  0  0
 18 19  1  6  0  0  0
 18 24  1  0  0  0  0
 18 30  1  0  0  0  0
 20 21  1  0  0  0  0
 20 26  1  1  0  0  0
 22 23  1  1  0  0  0
 22 28  1  0  0  0  0
 24 25  1  0  0  0  0
 26 27  1  0  0  0  0
 28 29  1  6  0  0  0
M  END
>  <CHROM.1>
-165.72321359,82.72809570,-101.54579050,58.85292986,100.01371078,101.38361020
0.10063301,13.90605071,38.50871762,2.87054007,-0.39019295,-2.79849780

>  <Name>
ligand

>  <RI>
0

>  <Rbt.Current_Directory>
/home/itssahil/PROJECTS/Mol_Feturizer/New_Systems/rnas/4GPY

>  <Rbt.Executable>
rbdock ($Id: //depot/dev/client3/rdock/2013.1/src/exe/rbdock.cxx#4 $)

>  <Rbt.Library>
libRbt.so (2013.1, Build901 2013/11/27)

>  <Rbt.Parameter_File>
/export/apps/rDock/src/rDock_2013.1_src/data/scripts/dock_solv.prm

>  <Rbt.Receptor>
prm/pocket_docking_5.prm

>  <SCORE>
-5.64739

>  <SCORE.INTER>
-6.96311

>  <SCORE.INTER.CONST>
1

>  <SCORE.INTER.POLAR>
0

>  <SCORE.INTER.ROT>
6

>  <SCORE.INTER.SOLV>
13.3589

>  <SCORE.INTER.VDW>
-16.6951

>  <SCORE.INTER.norm>
-0.224616

>  <SCORE.INTRA>
1.31572

>  <SCORE.INTRA.DIHEDRAL>
-2.75325

>  <SCORE.INTRA.DIHEDRAL.0>
14.7001

>  <SCORE.INTRA.POLAR>
0

>  <SCORE.INTRA.POLAR.0>
0

>  <SCORE.INTRA.REPUL>
0

>  <SCORE.INTRA.REPUL.0>
0

>  <SCORE.INTRA.SOLV>
2.92859

>  <SCORE.INTRA.SOLV.lig_0>
-65.3082

>  <SCORE.INTRA.VDW>
1.22805

>  <SCORE.INTRA.VDW.0>
-4.21408

>  <SCORE.INTRA.norm>
0.0424425

>  <SCORE.RESTR>
0

>  <SCORE.RESTR.CAVITY>
0

>  <SCORE.RESTR.norm>
0

>  <SCORE.SYSTEM>
0

>  <SCORE.SYSTEM.CONST>
0

>  <SCORE.SYSTEM.DIHEDRAL>
0

>  <SCORE.SYSTEM.SOLV>
0

>  <SCORE.SYSTEM.norm>
0

>  <SCORE.heavy>
31

>  <SCORE.norm>
-0.182174

>  <RMSD>
6.926

$$$$
ligand
 OpenBabel11021811493D
libRbt.so/2013.1/901 2013/11/27
 31 33  0  0  0  0  0  0  0  0999 V2000
    0.8376   20.1745   34.5324 C   0  0  2  0  0  0  0  0  0  0  0  0
    2.2337   20.2123   34.7574 O   0  0  0  0  0  0  0  0  0  0  0  0
    4.8166   17.3003   36.4631 C   0  0  2  0  0  0  0  0  0  0  0  0
    5.4572   16.4923   37.4447 N   0  0  0  0  0  0  0  0  0  0  0  0
    2.0304   14.8128   36.7831 C   0  0  2  0  0  0  0  0  0  0  0  0
    0.4909   21.2318   33.3966 C   0  0  2  0  0  0  0  0  0  0  0  0
    1.2485   20.9067   32.1928 N   0  0  0  0  0  0  0  0  0  0  0  0
    5.0741   18.8293   36.8310 C   0  0  0  0  0  0  0  0  0  0  0  0
    2.5918   14.4772   38.2055 C   0  0  2  0  0  0  0  0  0  0  0  0
    2.8698   15.6864   38.8792 O   0  0  0  0  0  0  0  0  0  0  0  0
    0.8049   22.6929   33.8870 C   0  0  0  0  0  0  0  0  0  0  0  0
    4.3753   19.7274   35.7298 C   0  0  2  0  0  0  0  0  0  0  0  0
    4.6093   21.1368   36.0471 N   0  0  0  0  0  0  0  0  0  0  0  0
    3.8972   13.6177   38.0365 C   0  0  1  0  0  0  0  0  0  0  0  0
    4.4655   13.2943   39.3845 N   0  0  0  0  0  0  0  0  0  0  0  0
    0.3987   22.9044   35.4056 C   0  0  0  0  0  0  0  0  0  0  0  0
    2.8215   19.4226   35.7289 C   0  0  2  0  0  0  0  0  0  0  0  0
    3.5192   12.2355   37.2653 C   0  0  1  0  0  0  0  0  0  0  0  0
    2.5738   11.4492   37.9634 O   0  0  0  0  0  0  0  0  0  0  0  0
    0.0924   21.8526   36.2034 C   0  0  1  0  0  0  0  0  0  0  0  0
    0.1061   20.4999   35.7558 O   0  0  0  0  0  0  0  0  0  0  0  0
    2.5770   17.8942   35.3859 C   0  0  2  0  0  0  0  0  0  0  0  0
    1.1605   17.6226   35.4018 O   0  0  0  0  0  0  0  0  0  0  0  0
    2.9238   12.5776   35.8668 C   0  0  0  0  0  0  0  0  0  0  0  0
    1.7497   13.5287   36.0215 O   0  0  0  0  0  0  0  0  0  0  0  0
   -0.2918   22.0107   37.6552 C   0  0  0  0  0  0  0  0  0  0  0  0
    0.2478   20.8664   38.3510 O   0  0  0  0  0  0  0  0  0  0  0  0
    3.2797   17.0021   36.4792 C   0  0  1  0  0  0  0  0  0  0  0  0
    3.0544   15.6536   36.1510 O   0  0  0  0  0  0  0  0  0  0  0  0
    4.7072   11.2956   37.0219 C   0  0  0  0  0  0  0  0  0  0  0  0
    5.8255   13.8024   39.6598 C   0  0  0  0  0  0  0  0  0  0  0  0
  1  2  1  1  0  0  0
  1  6  1  0  0  0  0
  1 21  1  0  0  0  0
  3  4  1  1  0  0  0
  3  8  1  0  0  0  0
  3 28  1  0  0  0  0
  5  9  1  0  0  0  0
  5 25  1  0  0  0  0
  5 29  1  6  0  0  0
  6  7  1  6  0  0  0
  6 11  1  0  0  0  0
  8 12  1  0  0  0  0
  9 10  1  6  0  0  0
  9 14  1  0  0  0  0
 11 16  1  0  0  0  0
 12 13  1  1  0  0  0
 12 17  1  0  0  0  0
 14 15  1  1  0  0  0
 14 18  1  0  0  0  0
 15 31  1  0  0  0  0
 16 20  1  0  0  0  0
 17  2  1  6  0  0  0
 17 22  1  0  0  0  0
 18 19  1  1  0  0  0
 18 24  1  0  0  0  0
 18 30  1  0  0  0  0
 20 21  1  0  0  0  0
 20 26  1  1  0  0  0
 22 23  1  1  0  0  0
 22 28  1  0  0  0  0
 24 25  1  0  0  0  0
 26 27  1  0  0  0  0
 28 29  1  6  0  0  0
M  END
>  <CHROM.1>
177.93939807,-74.62227522,-118.84268642,-179.06963335,-144.99665999,141.38349534
2.57738206,17.42858705,36.43777372,1.95039303,-0.62573009,-0.07032355

>  <Name>
ligand

>  <RI>
0

>  <Rbt.Current_Directory>
/home/itssahil/PROJECTS/Mol_Feturizer/New_Systems/rnas/4GPY

>  <Rbt.Executable>
rbdock ($Id: //depot/dev/client3/rdock/2013.1/src/exe/rbdock.cxx#4 $)

>  <Rbt.Library>
libRbt.so (2013.1, Build901 2013/11/27)

>  <Rbt.Parameter_File>
/export/apps/rDock/src/rDock_2013.1_src/data/scripts/dock_solv.prm

>  <Rbt.Receptor>
prm/blind_docking_100.prm

>  <SCORE>
-4.91938

>  <SCORE.INTER>
-7.69421

>  <SCORE.INTER.CONST>
1

>  <SCORE.INTER.POLAR>
0

>  <SCORE.INTER.ROT>
6

>  <SCORE.INTER.SOLV>
20.8153

>  <SCORE.INTER.VDW>
-19.6679

>  <SCORE.INTER.norm>
-0.2482

>  <SCORE.INTRA>
-0.976457

>  <SCORE.INTRA.DIHEDRAL>
-4.91255

>  <SCORE.INTRA.DIHEDRAL.0>
14.7001

>  <SCORE.INTRA.POLAR>
0

>  <SCORE.INTRA.POLAR.0>
0

>  <SCORE.INTRA.REPUL>
0

>  <SCORE.INTRA.REPUL.0>
0

>  <SCORE.INTRA.SOLV>
0.821306

>  <SCORE.INTRA.SOLV.lig_0>
-65.3082

>  <SCORE.INTRA.VDW>
1.06916

>  <SCORE.INTRA.VDW.0>
-4.21408

>  <SCORE.INTRA.norm>
-0.0314986

>  <SCORE.RESTR>
3.75129

>  <SCORE.RESTR.CAVITY>
3.75129

>  <SCORE.RESTR.norm>
0.121009

>  <SCORE.SYSTEM>
0

>  <SCORE.SYSTEM.CONST>
0

>  <SCORE.SYSTEM.DIHEDRAL>
0

>  <SCORE.SYSTEM.SOLV>
0

>  <SCORE.SYSTEM.norm>
0

>  <SCORE.heavy>
31

>  <SCORE.norm>
-0.15869

>  <RMSD>
6.930

$$$$
ligand
 OpenBabel11021811493D
libRbt.so/2013.1/901 2013/11/27
 31 33  0  0  0  0  0  0  0  0999 V2000
    0.7738   19.9239   34.3253 C   0  0  2  0  0  0  0  0  0  0  0  0
    2.1769   19.7579   34.3968 O   0  0  0  0  0  0  0  0  0  0  0  0
    4.9029   17.2392   36.4667 C   0  0  2  0  0  0  0  0  0  0  0  0
    5.5428   16.5592   37.5414 N   0  0  0  0  0  0  0  0  0  0  0  0
    2.3548   14.4896   36.7059 C   0  0  2  0  0  0  0  0  0  0  0  0
    0.4714   21.1886   33.4103 C   0  0  2  0  0  0  0  0  0  0  0  0
    1.0658   20.9803   32.0943 N   0  0  0  0  0  0  0  0  0  0  0  0
    4.9691   18.8046   36.7579 C   0  0  0  0  0  0  0  0  0  0  0  0
    2.7999   14.2815   38.1925 C   0  0  2  0  0  0  0  0  0  0  0  0
    2.8935   15.5438   38.8177 O   0  0  0  0  0  0  0  0  0  0  0  0
    1.0228   22.5004   34.0806 C   0  0  0  0  0  0  0  0  0  0  0  0
    4.2717   19.5614   35.5543 C   0  0  2  0  0  0  0  0  0  0  0  0
    4.3310   21.0028   35.8008 N   0  0  0  0  0  0  0  0  0  0  0  0
    4.1910   13.5492   38.1987 C   0  0  1  0  0  0  0  0  0  0  0  0
    4.6493   13.3503   39.6112 N   0  0  0  0  0  0  0  0  0  0  0  0
    0.7883   22.5035   35.6493 C   0  0  0  0  0  0  0  0  0  0  0  0
    2.7634   19.0899   35.4562 C   0  0  2  0  0  0  0  0  0  0  0  0
    4.0245   12.1002   37.4771 C   0  0  1  0  0  0  0  0  0  0  0  0
    3.0923   11.2586   38.1269 O   0  0  0  0  0  0  0  0  0  0  0  0
    0.4166   21.3777   36.3057 C   0  0  1  0  0  0  0  0  0  0  0  0
    0.2070   20.1262   35.6577 O   0  0  0  0  0  0  0  0  0  0  0  0
    2.7080   17.5278   35.1908 C   0  0  2  0  0  0  0  0  0  0  0  0
    1.3310   17.1050   35.1176 O   0  0  0  0  0  0  0  0  0  0  0  0
    3.5428   12.3126   36.0107 C   0  0  0  0  0  0  0  0  0  0  0  0
    2.2744   13.1483   35.9974 O   0  0  0  0  0  0  0  0  0  0  0  0
    0.1905   21.3371   37.7982 C   0  0  0  0  0  0  0  0  0  0  0  0
    0.3448   19.9591   38.2008 O   0  0  0  0  0  0  0  0  0  0  0  0
    3.4093   16.7770   36.3864 C   0  0  1  0  0  0  0  0  0  0  0  0
    3.3531   15.3964   36.1261 O   0  0  0  0  0  0  0  0  0  0  0  0
    5.3143   11.2727   37.4030 C   0  0  0  0  0  0  0  0  0  0  0  0
    6.0919   13.5454   39.8642 C   0  0  0  0  0  0  0  0  0  0  0  0
  1  2  1  1  0  0  0
  1  6  1  0  0  0  0
  1 21  1  0  0  0  0
  3  4  1  1  0  0  0
  3  8  1  0  0  0  0
  3 28  1  0  0  0  0
  5  9  1  0  0  0  0
  5 25  1  0  0  0  0
  5 29  1  6  0  0  0
  6  7  1  6  0  0  0
  6 11  1  0  0  0  0
  8 12  1  0  0  0  0
  9 10  1  6  0  0  0
  9 14  1  0  0  0  0
 11 16  1  0  0  0  0
 12 13  1  1  0  0  0
 12 17  1  0  0  0  0
 14 15  1  1  0  0  0
 14 18  1  0  0  0  0
 15 31  1  0  0  0  0
 16 20  1  0  0  0  0
 17  2  1  6  0  0  0
 17 22  1  0  0  0  0
 18 19  1  1  0  0  0
 18 24  1  0  0  0  0
 18 30  1  0  0  0  0
 20 21  1  0  0  0  0
 20 26  1  1  0  0  0
 22 23  1  1  0  0  0
 22 28  1  0  0  0  0
 24 25  1  0  0  0  0
 26 27  1  0  0  0  0
 28 29  1  6  0  0  0
M  END
>  <CHROM.1>
156.26013009,-75.16251293,-140.78651808,-157.73213218,-157.47731422,142.89248424
2.76432815,17.17595938,36.43085183,2.10095964,-0.87582175,0.08459742

>  <Name>
ligand

>  <RI>
0

>  <Rbt.Current_Directory>
/home/itssahil/PROJECTS/Mol_Feturizer/New_Systems/rnas/4GPY

>  <Rbt.Executable>
rbdock ($Id: //depot/dev/client3/rdock/2013.1/src/exe/rbdock.cxx#4 $)

>  <Rbt.Library>
libRbt.so (2013.1, Build901 2013/11/27)

>  <Rbt.Parameter_File>
/export/apps/rDock/src/rDock_2013.1_src/data/scripts/dock_solv.prm

>  <Rbt.Receptor>
prm/blind_docking_80.prm

>  <SCORE>
-7.87562

>  <SCORE.INTER>
-10.7105

>  <SCORE.INTER.CONST>
1

>  <SCORE.INTER.POLAR>
0

>  <SCORE.INTER.ROT>
6

>  <SCORE.INTER.SOLV>
21.9455

>  <SCORE.INTER.VDW>
-22.0555

>  <SCORE.INTER.norm>
-0.345501

>  <SCORE.INTRA>
1.4161

>  <SCORE.INTRA.DIHEDRAL>
-0.210095

>  <SCORE.INTRA.DIHEDRAL.0>
14.7001

>  <SCORE.INTRA.POLAR>
0

>  <SCORE.INTRA.POLAR.0>
0

>  <SCORE.INTRA.REPUL>
0

>  <SCORE.INTRA.REPUL.0>
0

>  <SCORE.INTRA.SOLV>
1.94805

>  <SCORE.INTRA.SOLV.lig_0>
-65.3082

>  <SCORE.INTRA.VDW>
0.547127

>  <SCORE.INTRA.VDW.0>
-4.21408

>  <SCORE.INTRA.norm>
0.0456808

>  <SCORE.RESTR>
1.4188

>  <SCORE.RESTR.CAVITY>
1.4188

>  <SCORE.RESTR.norm>
0.0457676

>  <SCORE.SYSTEM>
0

>  <SCORE.SYSTEM.CONST>
0

>  <SCORE.SYSTEM.DIHEDRAL>
0

>  <SCORE.SYSTEM.SOLV>
0

>  <SCORE.SYSTEM.norm>
0

>  <SCORE.heavy>
31

>  <SCORE.norm>
-0.254052

>  <RMSD>
6.930

$$$$
ligand
 OpenBabel11021811493D
libRbt.so/2013.1/901 2013/11/27
 31 33  0  0  0  0  0  0  0  0999 V2000
    0.8566   20.1260   34.5149 C   0  0  2  0  0  0  0  0  0  0  0  0
    2.2554   20.1597   34.7236 O   0  0  0  0  0  0  0  0  0  0  0  0
    4.8537   17.2981   36.4899 C   0  0  2  0  0  0  0  0  0  0  0  0
    5.4993   16.5151   37.4884 N   0  0  0  0  0  0  0  0  0  0  0  0
    2.0868   14.8030   36.8774 C   0  0  2  0  0  0  0  0  0  0  0  0
    0.4972   21.1996   33.3985 C   0  0  2  0  0  0  0  0  0  0  0  0
    1.2400   20.8913   32.1812 N   0  0  0  0  0  0  0  0  0  0  0  0
    5.1048   18.8361   36.8233 C   0  0  0  0  0  0  0  0  0  0  0  0
    2.6859   14.4618   38.2831 C   0  0  2  0  0  0  0  0  0  0  0  0
    2.9916   15.6683   38.9496 O   0  0  0  0  0  0  0  0  0  0  0  0
    0.8181   22.6534   33.9059 C   0  0  0  0  0  0  0  0  0  0  0  0
    4.4005   19.7063   35.7034 C   0  0  2  0  0  0  0  0  0  0  0  0
    4.6285   21.1234   35.9889 N   0  0  0  0  0  0  0  0  0  0  0  0
    3.9798   13.5931   38.0764 C   0  0  1  0  0  0  0  0  0  0  0  0
    4.5837   13.2643   39.4074 N   0  0  0  0  0  0  0  0  0  0  0  0
    0.4303   22.8434   35.4322 C   0  0  0  0  0  0  0  0  0  0  0  0
    2.8481   19.3946   35.7116 C   0  0  2  0  0  0  0  0  0  0  0  0
    3.5701   12.2145   37.3151 C   0  0  1  0  0  0  0  0  0  0  0  0
    2.6392   11.4343   38.0390 O   0  0  0  0  0  0  0  0  0  0  0  0
    0.1328   21.7804   36.2184 C   0  0  1  0  0  0  0  0  0  0  0  0
    0.1402   20.4343   35.7515 O   0  0  0  0  0  0  0  0  0  0  0  0
    2.6100   17.8578   35.4031 C   0  0  2  0  0  0  0  0  0  0  0  0
    1.1948   17.5803   35.4271 O   0  0  0  0  0  0  0  0  0  0  0  0
    2.9378   12.5624   35.9343 C   0  0  0  0  0  0  0  0  0  0  0  0
    1.7754   13.5217   36.1230 O   0  0  0  0  0  0  0  0  0  0  0  0
   -0.2338   21.9180   37.6768 C   0  0  0  0  0  0  0  0  0  0  0  0
    0.1455   20.6799   38.3155 O   0  0  0  0  0  0  0  0  0  0  0  0
    3.3182   16.9935   36.5150 C   0  0  1  0  0  0  0  0  0  0  0  0
    3.0986   15.6370   36.2172 O   0  0  0  0  0  0  0  0  0  0  0  0
    4.7439   11.2663   37.0374 C   0  0  0  0  0  0  0  0  0  0  0  0
    5.9810   13.6972   39.6164 C   0  0  0  0  0  0  0  0  0  0  0  0
  1  2  1  1  0  0  0
  1  6  1  0  0  0  0
  1 21  1  0  0  0  0
  3  4  1  1  0  0  0
  3  8  1  0  0  0  0
  3 28  1  0  0  0  0
  5  9  1  0  0  0  0
  5 25  1  0  0  0  0
  5 29  1  6  0  0  0
  6  7  1  6  0  0  0
  6 11  1  0  0  0  0
  8 12  1  0  0  0  0
  9 10  1  6  0  0  0
  9 14  1  0  0  0  0
 11 16  1  0  0  0  0
 12 13  1  1  0  0  0
 12 17  1  0  0  0  0
 14 15  1  1  0  0  0
 14 18  1  0  0  0  0
 15 31  1  0  0  0  0
 16 20  1  0  0  0  0
 17  2  1  6  0  0  0
 17 22  1  0  0  0  0
 18 19  1  1  0  0  0
 18 24  1  0  0  0  0
 18 30  1  0  0  0  0
 20 21  1  0  0  0  0
 20 26  1  1  0  0  0
 22 23  1  1  0  0  0
 22 28  1  0  0  0  0
 24 25  1  0  0  0  0
 26 27  1  0  0  0  0
 28 29  1  6  0  0  0
M  END
>  <CHROM.1>
175.40049837,-76.41805971,-122.11877001,-178.10358201,-152.89539733,140.84459929
2.61802005,17.39226999,36.45911459,1.93847746,-0.55157615,-0.11034659

>  <Name>
ligand

>  <RI>
0

>  <Rbt.Current_Directory>
/home/itssahil/PROJECTS/Mol_Feturizer/New_Systems/rnas/4GPY

>  <Rbt.Executable>
rbdock ($Id: //depot/dev/client3/rdock/2013.1/src/exe/rbdock.cxx#4 $)

>  <Rbt.Library>
libRbt.so (2013.1, Build901 2013/11/27)

>  <Rbt.Parameter_File>
/export/apps/rDock/src/rDock_2013.1_src/data/scripts/dock_solv.prm

>  <Rbt.Receptor>
prm/blind_docking_100.prm

>  <SCORE>
-4.98489

>  <SCORE.INTER>
-8.17136

>  <SCORE.INTER.CONST>
1

>  <SCORE.INTER.POLAR>
0

>  <SCORE.INTER.ROT>
6

>  <SCORE.INTER.SOLV>
20.9226

>  <SCORE.INTER.VDW>
-20.0218

>  <SCORE.INTER.norm>
-0.263592

>  <SCORE.INTRA>
-0.541984

>  <SCORE.INTRA.DIHEDRAL>
-4.08891

>  <SCORE.INTRA.DIHEDRAL.0>
14.7001

>  <SCORE.INTRA.POLAR>
0

>  <SCORE.INTRA.POLAR.0>
0

>  <SCORE.INTRA.REPUL>
0

>  <SCORE.INTRA.REPUL.0>
0

>  <SCORE.INTRA.SOLV>
0.848228

>  <SCORE.INTRA.SOLV.lig_0>
-65.3082

>  <SCORE.INTRA.VDW>
1.07835

>  <SCORE.INTRA.VDW.0>
-4.21408

>  <SCORE.INTRA.norm>
-0.0174834

>  <SCORE.RESTR>
3.72846

>  <SCORE.RESTR.CAVITY>
3.72846

>  <SCORE.RESTR.norm>
0.120273

>  <SCORE.SYSTEM>
0

>  <SCORE.SYSTEM.CONST>
0

>  <SCORE.SYSTEM.DIHEDRAL>
0

>  <SCORE.SYSTEM.SOLV>
0

>  <SCORE.SYSTEM.norm>
0

>  <SCORE.heavy>
31

>  <SCORE.norm>
-0.160803

>  <RMSD>
6.937

$$$$
ligand
 OpenBabel11021811493D
libRbt.so/2013.1/901 2013/11/27
 31 33  0  0  0  0  0  0  0  0999 V2000
    0.7481   19.7798   34.3041 C   0  0  2  0  0  0  0  0  0  0  0  0
    2.1518   19.6041   34.2988 O   0  0  0  0  0  0  0  0  0  0  0  0
    5.1010   17.7648   36.7440 C   0  0  2  0  0  0  0  0  0  0  0  0
    5.8344   17.3994   37.9083 N   0  0  0  0  0  0  0  0  0  0  0  0
    2.7330   15.1195   37.9148 C   0  0  2  0  0  0  0  0  0  0  0  0
    0.4144   21.1193   33.5151 C   0  0  2  0  0  0  0  0  0  0  0  0
    0.9489   21.0231   32.1610 N   0  0  0  0  0  0  0  0  0  0  0  0
    5.1241   19.3533   36.6188 C   0  0  0  0  0  0  0  0  0  0  0  0
    3.6245   13.9692   38.4922 C   0  0  2  0  0  0  0  0  0  0  0  0
    4.7685   14.5404   39.0907 O   0  0  0  0  0  0  0  0  0  0  0  0
    1.0036   22.3670   34.2702 C   0  0  0  0  0  0  0  0  0  0  0  0
    4.3223   19.7583   35.3147 C   0  0  2  0  0  0  0  0  0  0  0  0
    4.3406   21.2154   35.1787 N   0  0  0  0  0  0  0  0  0  0  0  0
    4.0289   13.0117   37.3127 C   0  0  1  0  0  0  0  0  0  0  0  0
    4.8969   11.9079   37.8349 N   0  0  0  0  0  0  0  0  0  0  0  0
    0.8383   22.2361   35.8423 C   0  0  0  0  0  0  0  0  0  0  0  0
    2.8304   19.2451   35.4492 C   0  0  2  0  0  0  0  0  0  0  0  0
    2.6778   12.3752   36.6668 C   0  0  1  0  0  0  0  0  0  0  0  0
    1.9200   11.6213   37.5924 O   0  0  0  0  0  0  0  0  0  0  0  0
    0.4881   21.0591   36.4157 C   0  0  1  0  0  0  0  0  0  0  0  0
    0.2418   19.8685   35.6728 O   0  0  0  0  0  0  0  0  0  0  0  0
    2.8196   17.6667   35.5975 C   0  0  2  0  0  0  0  0  0  0  0  0
    1.4584   17.2098   35.7339 O   0  0  0  0  0  0  0  0  0  0  0  0
    1.7766   13.5274   36.1303 C   0  0  0  0  0  0  0  0  0  0  0  0
    1.5069   14.5328   37.2365 O   0  0  0  0  0  0  0  0  0  0  0  0
    0.3276   20.8912   37.9078 C   0  0  0  0  0  0  0  0  0  0  0  0
    0.3724   19.4719   38.1697 O   0  0  0  0  0  0  0  0  0  0  0  0
    3.6246   17.2655   36.8921 C   0  0  1  0  0  0  0  0  0  0  0  0
    3.6061   15.8636   36.9989 O   0  0  0  0  0  0  0  0  0  0  0  0
    2.9216   11.4208   35.4906 C   0  0  0  0  0  0  0  0  0  0  0  0
    5.8220   11.2883   36.8635 C   0  0  0  0  0  0  0  0  0  0  0  0
  1  2  1  1  0  0  0
  1  6  1  0  0  0  0
  1 21  1  0  0  0  0
  3  4  1  1  0  0  0
  3  8  1  0  0  0  0
  3 28  1  0  0  0  0
  5  9  1  0  0  0  0
  5 25  1  0  0  0  0
  5 29  1  6  0  0  0
  6  7  1  6  0  0  0
  6 11  1  0  0  0  0
  8 12  1  0  0  0  0
  9 10  1  6  0  0  0
  9 14  1  0  0  0  0
 11 16  1  0  0  0  0
 12 13  1  1  0  0  0
 12 17  1  0  0  0  0
 14 15  1  1  0  0  0
 14 18  1  0  0  0  0
 15 31  1  0  0  0  0
 16 20  1  0  0  0  0
 17  2  1  6  0  0  0
 17 22  1  0  0  0  0
 18 19  1  1  0  0  0
 18 24  1  0  0  0  0
 18 30  1  0  0  0  0
 20 21  1  0  0  0  0
 20 26  1  1  0  0  0
 22 23  1  1  0  0  0
 22 28  1  0  0  0  0
 24 25  1  0  0  0  0
 26 27  1  0  0  0  0
 28 29  1  6  0  0  0
M  END
>  <CHROM.1>
134.82353727,-139.25384090,-154.28177427,-154.59378536,-162.40787974,139.45725971
2.66652142,17.16702579,36.33084602,1.85911371,-0.34861552,-0.16601730

>  <Name>
ligand

>  <RI>
0

>  <Rbt.Current_Directory>
/home/itssahil/PROJECTS/Mol_Feturizer/New_Systems/rnas/4GPY

>  <Rbt.Executable>
rbdock ($Id: //depot/dev/client3/rdock/2013.1/src/exe/rbdock.cxx#4 $)

>  <Rbt.Library>
libRbt.so (2013.1, Build901 2013/11/27)

>  <Rbt.Parameter_File>
/export/apps/rDock/src/rDock_2013.1_src/data/scripts/dock_solv.prm

>  <Rbt.Receptor>
prm/blind_docking_100.prm

>  <SCORE>
0.567555

>  <SCORE.INTER>
-9.41171

>  <SCORE.INTER.CONST>
1

>  <SCORE.INTER.POLAR>
0

>  <SCORE.INTER.ROT>
6

>  <SCORE.INTER.SOLV>
21.5145

>  <SCORE.INTER.VDW>
-21.046

>  <SCORE.INTER.norm>
-0.303603

>  <SCORE.INTRA>
5.91869

>  <SCORE.INTRA.DIHEDRAL>
8.90192

>  <SCORE.INTRA.DIHEDRAL.0>
14.7001

>  <SCORE.INTRA.POLAR>
0

>  <SCORE.INTRA.POLAR.0>
0

>  <SCORE.INTRA.REPUL>
0

>  <SCORE.INTRA.REPUL.0>
0

>  <SCORE.INTRA.SOLV>
0.847705

>  <SCORE.INTRA.SOLV.lig_0>
-65.3082

>  <SCORE.INTRA.VDW>
1.04388

>  <SCORE.INTRA.VDW.0>
-4.21408

>  <SCORE.INTRA.norm>
0.190925

>  <SCORE.RESTR>
4.06057

>  <SCORE.RESTR.CAVITY>
4.06057

>  <SCORE.RESTR.norm>
0.130986

>  <SCORE.SYSTEM>
0

>  <SCORE.SYSTEM.CONST>
0

>  <SCORE.SYSTEM.DIHEDRAL>
0

>  <SCORE.SYSTEM.SOLV>
0

>  <SCORE.SYSTEM.norm>
0

>  <SCORE.heavy>
31

>  <SCORE.norm>
0.0183082

>  <RMSD>
6.952

$$$$
ligand
 OpenBabel11021811493D
libRbt.so/2013.1/901 2013/11/27
 31 33  0  0  0  0  0  0  0  0999 V2000
    5.8711   19.9092   35.6182 C   0  0  2  0  0  0  0  0  0  0  0  0
    4.4689   20.0947   35.6445 O   0  0  0  0  0  0  0  0  0  0  0  0
    1.2839   17.3198   36.1092 C   0  0  2  0  0  0  0  0  0  0  0  0
    0.3658   16.2751   35.8050 N   0  0  0  0  0  0  0  0  0  0  0  0
    4.1627   15.1098   37.3863 C   0  0  2  0  0  0  0  0  0  0  0  0
    6.5544   21.2193   36.2054 C   0  0  2  0  0  0  0  0  0  0  0  0
    6.0584   21.4529   37.5574 N   0  0  0  0  0  0  0  0  0  0  0  0
    1.1201   18.4625   35.0106 C   0  0  0  0  0  0  0  0  0  0  0  0
    3.7867   13.6918   37.9333 C   0  0  2  0  0  0  0  0  0  0  0  0
    3.0324   13.0134   36.9514 O   0  0  0  0  0  0  0  0  0  0  0  0
    6.2698   22.4554   35.2753 C   0  0  0  0  0  0  0  0  0  0  0  0
    2.1299   19.6316   35.3588 C   0  0  2  0  0  0  0  0  0  0  0  0
    1.9869   20.6954   34.3639 N   0  0  0  0  0  0  0  0  0  0  0  0
    2.9533   13.8716   39.2541 C   0  0  1  0  0  0  0  0  0  0  0  0
    2.5661   12.5281   39.7923 N   0  0  0  0  0  0  0  0  0  0  0  0
    6.3445   22.0663   33.7394 C   0  0  0  0  0  0  0  0  0  0  0  0
    3.6062   19.0597   35.3324 C   0  0  2  0  0  0  0  0  0  0  0  0
    3.8703   14.6479   40.3516 C   0  0  1  0  0  0  0  0  0  0  0  0
    5.0544   13.9492   40.6818 O   0  0  0  0  0  0  0  0  0  0  0  0
    6.3709   20.7704   33.3440 C   0  0  1  0  0  0  0  0  0  0  0  0
    6.3375   19.6734   34.2527 O   0  0  0  0  0  0  0  0  0  0  0  0
    3.7522   17.9074   36.4116 C   0  0  2  0  0  0  0  0  0  0  0  0
    5.0951   17.3828   36.3703 O   0  0  0  0  0  0  0  0  0  0  0  0
    4.2745   16.0418   39.7848 C   0  0  0  0  0  0  0  0  0  0  0  0
    4.9506   15.8764   38.4347 O   0  0  0  0  0  0  0  0  0  0  0  0
    6.4345   20.3583   31.8926 C   0  0  0  0  0  0  0  0  0  0  0  0
    7.5865   19.4983   31.7588 O   0  0  0  0  0  0  0  0  0  0  0  0
    2.7409   16.7482   36.0672 C   0  0  1  0  0  0  0  0  0  0  0  0
    2.8844   15.7426   37.0394 O   0  0  0  0  0  0  0  0  0  0  0  0
    3.1773   14.9019   41.6966 C   0  0  0  0  0  0  0  0  0  0  0  0
    1.1274   12.1944   39.7445 C   0  0  0  0  0  0  0  0  0  0  0  0
  1  2  1  6  0  0  0
  1  6  1  0  0  0  0
  1 21  1  0  0  0  0
  3  4  1  6  0  0  0
  3  8  1  0  0  0  0
  3 28  1  0  0  0  0
  5  9  1  0  0  0  0
  5 25  1  0  0  0  0
  5 29  1  1  0  0  0
  6  7  1  1  0  0  0
  6 11  1  0  0  0  0
  8 12  1  0  0  0  0
  9 10  1  6  0  0  0
  9 14  1  0  0  0  0
 11 16  1  0  0  0  0
 12 13  1  6  0  0  0
 12 17  1  0  0  0  0
 14 15  1  1  0  0  0
 14 18  1  0  0  0  0
 15 31  1  0  0  0  0
 16 20  1  0  0  0  0
 17  2  1  1  0  0  0
 17 22  1  0  0  0  0
 18 19  1  1  0  0  0
 18 24  1  0  0  0  0
 18 30  1  0  0  0  0
 20 21  1  0  0  0  0
 20 26  1  6  0  0  0
 22 23  1  6  0  0  0
 22 28  1  0  0  0  0
 24 25  1  0  0  0  0
 26 27  1  0  0  0  0
 28 29  1  1  0  0  0
M  END
>  <CHROM.1>
-172.69445855,-153.83188453,-111.85575866,-176.01010930,124.61990740,-172.15221532
4.09821022,17.46879601,36.62051581,-1.22054407,0.46530413,2.33106609

>  <Name>
ligand

>  <RI>
0

>  <Rbt.Current_Directory>
/home/itssahil/PROJECTS/Mol_Feturizer/New_Systems/rnas/4GPY

>  <Rbt.Executable>
rbdock ($Id: //depot/dev/client3/rdock/2013.1/src/exe/rbdock.cxx#4 $)

>  <Rbt.Library>
libRbt.so (2013.1, Build901 2013/11/27)

>  <Rbt.Parameter_File>
/export/apps/rDock/src/rDock_2013.1_src/data/scripts/dock_solv.prm

>  <Rbt.Receptor>
prm/pocket_docking_8.prm

>  <SCORE>
-14.1876

>  <SCORE.INTER>
-11.1878

>  <SCORE.INTER.CONST>
1

>  <SCORE.INTER.POLAR>
0

>  <SCORE.INTER.ROT>
6

>  <SCORE.INTER.SOLV>
19.3422

>  <SCORE.INTER.VDW>
-21.5059

>  <SCORE.INTER.norm>
-0.360896

>  <SCORE.INTRA>
-2.99983

>  <SCORE.INTRA.DIHEDRAL>
-8.31608

>  <SCORE.INTRA.DIHEDRAL.0>
14.7001

>  <SCORE.INTRA.POLAR>
0

>  <SCORE.INTRA.POLAR.0>
0

>  <SCORE.INTRA.REPUL>
0

>  <SCORE.INTRA.REPUL.0>
0

>  <SCORE.INTRA.SOLV>
-2.60936

>  <SCORE.INTRA.SOLV.lig_0>
-65.3082

>  <SCORE.INTRA.VDW>
2.46289

>  <SCORE.INTRA.VDW.0>
-4.21408

>  <SCORE.INTRA.norm>
-0.0967688

>  <SCORE.RESTR>
0

>  <SCORE.RESTR.CAVITY>
0

>  <SCORE.RESTR.norm>
0

>  <SCORE.SYSTEM>
0

>  <SCORE.SYSTEM.CONST>
0

>  <SCORE.SYSTEM.DIHEDRAL>
0

>  <SCORE.SYSTEM.SOLV>
0

>  <SCORE.SYSTEM.norm>
0

>  <SCORE.heavy>
31

>  <SCORE.norm>
-0.457665

>  <RMSD>
6.977

$$$$
ligand
 OpenBabel11021811493D
libRbt.so/2013.1/901 2013/11/27
 31 33  0  0  0  0  0  0  0  0999 V2000
    2.3781   21.2584   34.1573 C   0  0  2  0  0  0  0  0  0  0  0  0
    2.5706   19.8571   34.1845 O   0  0  0  0  0  0  0  0  0  0  0  0
    5.0610   17.3500   36.5451 C   0  0  2  0  0  0  0  0  0  0  0  0
    5.6084   16.7064   37.6910 N   0  0  0  0  0  0  0  0  0  0  0  0
    2.3994   14.7214   36.8050 C   0  0  2  0  0  0  0  0  0  0  0  0
    1.6678   21.6865   35.5138 C   0  0  2  0  0  0  0  0  0  0  0  0
    2.4961   21.2695   36.6401 N   0  0  0  0  0  0  0  0  0  0  0  0
    5.1799   18.9254   36.7543 C   0  0  0  0  0  0  0  0  0  0  0  0
    2.8529   14.4677   38.2819 C   0  0  2  0  0  0  0  0  0  0  0  0
    3.0513   15.7141   38.9147 O   0  0  0  0  0  0  0  0  0  0  0  0
    0.2282   21.0596   35.6057 C   0  0  0  0  0  0  0  0  0  0  0  0
    4.5859   19.6407   35.4724 C   0  0  2  0  0  0  0  0  0  0  0  0
    4.6951   21.0900   35.6433 N   0  0  0  0  0  0  0  0  0  0  0  0
    4.1853   13.6336   38.2583 C   0  0  1  0  0  0  0  0  0  0  0  0
    4.6513   13.3888   39.6609 N   0  0  0  0  0  0  0  0  0  0  0  0
   -0.5159   21.0852   34.2051 C   0  0  0  0  0  0  0  0  0  0  0  0
    3.0661   19.2267   35.3114 C   0  0  2  0  0  0  0  0  0  0  0  0
    3.8986   12.2074   37.5290 C   0  0  1  0  0  0  0  0  0  0  0  0
    2.9173   11.4321   38.1888 O   0  0  0  0  0  0  0  0  0  0  0  0
    0.1538   21.3603   33.0595 C   0  0  1  0  0  0  0  0  0  0  0  0
    1.5491   21.6459   33.0170 O   0  0  0  0  0  0  0  0  0  0  0  0
    2.9567   17.6557   35.1284 C   0  0  2  0  0  0  0  0  0  0  0  0
    1.5686   17.2865   34.9973 O   0  0  0  0  0  0  0  0  0  0  0  0
    3.4092   12.4679   36.0729 C   0  0  0  0  0  0  0  0  0  0  0  0
    2.2069   13.3960   36.0881 O   0  0  0  0  0  0  0  0  0  0  0  0
   -0.5157   21.3874   31.7062 C   0  0  0  0  0  0  0  0  0  0  0  0
   -1.9330   21.2494   31.9451 O   0  0  0  0  0  0  0  0  0  0  0  0
    3.5553   16.9458   36.4022 C   0  0  1  0  0  0  0  0  0  0  0  0
    3.4527   15.5561   36.2144 O   0  0  0  0  0  0  0  0  0  0  0  0
    5.1214   11.2865   37.4261 C   0  0  0  0  0  0  0  0  0  0  0  0
    6.0923   13.5933   39.9163 C   0  0  0  0  0  0  0  0  0  0  0  0
  1  2  1  1  0  0  0
  1  6  1  0  0  0  0
  1 21  1  0  0  0  0
  3  4  1  1  0  0  0
  3  8  1  0  0  0  0
  3 28  1  0  0  0  0
  5  9  1  0  0  0  0
  5 25  1  0  0  0  0
  5 29  1  6  0  0  0
  6  7  1  1  0  0  0
  6 11  1  0  0  0  0
  8 12  1  0  0  0  0
  9 10  1  6  0  0  0
  9 14  1  0  0  0  0
 11 16  1  0  0  0  0
 12 13  1  1  0  0  0
 12 17  1  0  0  0  0
 14 15  1  1  0  0  0
 14 18  1  0  0  0  0
 15 31  1  0  0  0  0
 16 20  1  0  0  0  0
 17  2  1  6  0  0  0
 17 22  1  0  0  0  0
 18 19  1  1  0  0  0
 18 24  1  0  0  0  0
 18 30  1  0  0  0  0
 20 21  1  0  0  0  0
 20 26  1  6  0  0  0
 22 23  1  1  0  0  0
 22 28  1  0  0  0  0
 24 25  1  0  0  0  0
 26 27  1  0  0  0  0
 28 29  1  6  0  0  0
M  END
>  <CHROM.1>
-45.27738381,-80.27521152,-135.42880708,-69.53166037,7.26258028,141.60609328
2.82860620,17.34508172,36.03009562,-1.99664137,0.61517810,2.91037863

>  <Name>
ligand

>  <RI>
0

>  <Rbt.Current_Directory>
/home/itssahil/PROJECTS/Mol_Feturizer/New_Systems/rnas/4GPY

>  <Rbt.Executable>
rbdock ($Id: //depot/dev/client3/rdock/2013.1/src/exe/rbdock.cxx#4 $)

>  <Rbt.Library>
libRbt.so (2013.1, Build901 2013/11/27)

>  <Rbt.Parameter_File>
/export/apps/rDock/src/rDock_2013.1_src/data/scripts/dock_solv.prm

>  <Rbt.Receptor>
prm/blind_docking_80.prm

>  <SCORE>
-0.675379

>  <SCORE.INTER>
-11.6646

>  <SCORE.INTER.CONST>
1

>  <SCORE.INTER.POLAR>
0

>  <SCORE.INTER.ROT>
6

>  <SCORE.INTER.SOLV>
17.9324

>  <SCORE.INTER.VDW>
-21.3538

>  <SCORE.INTER.norm>
-0.376277

>  <SCORE.INTRA>
8.18052

>  <SCORE.INTRA.DIHEDRAL>
-3.50406

>  <SCORE.INTRA.DIHEDRAL.0>
14.7001

>  <SCORE.INTRA.POLAR>
0

>  <SCORE.INTRA.POLAR.0>
0

>  <SCORE.INTRA.REPUL>
0

>  <SCORE.INTRA.REPUL.0>
0

>  <SCORE.INTRA.SOLV>
7.20615

>  <SCORE.INTRA.SOLV.lig_0>
-65.3082

>  <SCORE.INTRA.VDW>
6.32948

>  <SCORE.INTRA.VDW.0>
-4.21408

>  <SCORE.INTRA.norm>
0.263888

>  <SCORE.RESTR>
2.80868

>  <SCORE.RESTR.CAVITY>
2.80868

>  <SCORE.RESTR.norm>
0.0906024

>  <SCORE.SYSTEM>
0

>  <SCORE.SYSTEM.CONST>
0

>  <SCORE.SYSTEM.DIHEDRAL>
0

>  <SCORE.SYSTEM.SOLV>
0

>  <SCORE.SYSTEM.norm>
0

>  <SCORE.heavy>
31

>  <SCORE.norm>
-0.0217864

>  <RMSD>
6.986

$$$$
ligand
 OpenBabel11021811493D
libRbt.so/2013.1/901 2013/11/27
 31 33  0  0  0  0  0  0  0  0999 V2000
    2.9999   20.4521   35.9680 C   0  0  2  0  0  0  0  0  0  0  0  0
    2.9958   19.4856   34.9350 O   0  0  0  0  0  0  0  0  0  0  0  0
    0.8944   16.3502   36.8879 C   0  0  2  0  0  0  0  0  0  0  0  0
    0.2216   15.1109   37.0836 N   0  0  0  0  0  0  0  0  0  0  0  0
    4.5008   15.3208   37.6069 C   0  0  2  0  0  0  0  0  0  0  0  0
    2.7567   21.8794   35.3109 C   0  0  2  0  0  0  0  0  0  0  0  0
    1.4926   21.8619   34.5826 N   0  0  0  0  0  0  0  0  0  0  0  0
    0.1328   17.1551   35.7426 C   0  0  0  0  0  0  0  0  0  0  0  0
    4.8528   13.8125   37.8354 C   0  0  2  0  0  0  0  0  0  0  0  0
    4.3422   13.0600   36.7554 O   0  0  0  0  0  0  0  0  0  0  0  0
    3.9521   22.2625   34.3632 C   0  0  0  0  0  0  0  0  0  0  0  0
    0.8718   18.5405   35.5367 C   0  0  2  0  0  0  0  0  0  0  0  0
    0.1796   19.2979   34.4931 N   0  0  0  0  0  0  0  0  0  0  0  0
    4.2094   13.3503   39.1933 C   0  0  1  0  0  0  0  0  0  0  0  0
    4.5180   11.9035   39.4303 N   0  0  0  0  0  0  0  0  0  0  0  0
    5.3502   21.8287   34.9740 C   0  0  0  0  0  0  0  0  0  0  0  0
    2.3693   18.2641   35.1031 C   0  0  2  0  0  0  0  0  0  0  0  0
    4.8382   14.2405   40.4017 C   0  0  1  0  0  0  0  0  0  0  0  0
    6.2405   14.1045   40.5218 O   0  0  0  0  0  0  0  0  0  0  0  0
    5.4224   20.9905   36.0365 C   0  0  1  0  0  0  0  0  0  0  0  0
    4.2759   20.4431   36.6816 O   0  0  0  0  0  0  0  0  0  0  0  0
    3.1112   17.4422   36.2379 C   0  0  2  0  0  0  0  0  0  0  0  0
    4.4695   17.1826   35.8280 O   0  0  0  0  0  0  0  0  0  0  0  0
    4.5191   15.7442   40.1475 C   0  0  0  0  0  0  0  0  0  0  0  0
    5.0121   16.1533   38.7702 O   0  0  0  0  0  0  0  0  0  0  0  0
    6.7328   20.5480   36.6426 C   0  0  0  0  0  0  0  0  0  0  0  0
    6.5081   20.4236   38.0635 O   0  0  0  0  0  0  0  0  0  0  0  0
    2.3695   16.0669   36.4462 C   0  0  1  0  0  0  0  0  0  0  0  0
    3.0407   15.3598   37.4593 O   0  0  0  0  0  0  0  0  0  0  0  0
    4.2911   13.9020   41.7945 C   0  0  0  0  0  0  0  0  0  0  0  0
    3.8913   10.9405   38.5012 C   0  0  0  0  0  0  0  0  0  0  0  0
  1  2  1  6  0  0  0
  1  6  1  0  0  0  0
  1 21  1  0  0  0  0
  3  4  1  6  0  0  0
  3  8  1  0  0  0  0
  3 28  1  0  0  0  0
  5  9  1  0  0  0  0
  5 25  1  0  0  0  0
  5 29  1  1  0  0  0
  6  7  1  6  0  0  0
  6 11  1  0  0  0  0
  8 12  1  0  0  0  0
  9 10  1  6  0  0  0
  9 14  1  0  0  0  0
 11 16  1  0  0  0  0
 12 13  1  6  0  0  0
 12 17  1  0  0  0  0
 14 15  1  1  0  0  0
 14 18  1  0  0  0  0
 15 31  1  0  0  0  0
 16 20  1  0  0  0  0
 17  2  1  1  0  0  0
 17 22  1  0  0  0  0
 18 19  1  1  0  0  0
 18 24  1  0  0  0  0
 18 30  1  0  0  0  0
 20 21  1  0  0  0  0
 20 26  1  6  0  0  0
 22 23  1  6  0  0  0
 22 28  1  0  0  0  0
 24 25  1  0  0  0  0
 26 27  1  0  0  0  0
 28 29  1  1  0  0  0
M  END
>  <CHROM.1>
-138.87658101,-133.42755983,-67.23641484,54.34105833,145.26460668,-158.30597759
3.63767810,17.18682092,37.09809999,-1.70749926,0.50317624,2.72244329

>  <Name>
ligand

>  <RI>
0

>  <Rbt.Current_Directory>
/home/itssahil/PROJECTS/Mol_Feturizer/New_Systems/rnas/4GPY

>  <Rbt.Executable>
rbdock ($Id: //depot/dev/client3/rdock/2013.1/src/exe/rbdock.cxx#4 $)

>  <Rbt.Library>
libRbt.so (2013.1, Build901 2013/11/27)

>  <Rbt.Parameter_File>
/export/apps/rDock/src/rDock_2013.1_src/data/scripts/dock_solv.prm

>  <Rbt.Receptor>
prm/blind_docking_80.prm

>  <SCORE>
7.29624

>  <SCORE.INTER>
-3.14449

>  <SCORE.INTER.CONST>
1

>  <SCORE.INTER.POLAR>
0

>  <SCORE.INTER.ROT>
6

>  <SCORE.INTER.SOLV>
17.7505

>  <SCORE.INTER.VDW>
-15.6131

>  <SCORE.INTER.norm>
-0.101435

>  <SCORE.INTRA>
6.23162

>  <SCORE.INTRA.DIHEDRAL>
1.91891

>  <SCORE.INTRA.DIHEDRAL.0>
14.7001

>  <SCORE.INTRA.POLAR>
0

>  <SCORE.INTRA.POLAR.0>
0

>  <SCORE.INTRA.REPUL>
0

>  <SCORE.INTRA.REPUL.0>
0

>  <SCORE.INTRA.SOLV>
0.972511

>  <SCORE.INTRA.SOLV.lig_0>
-65.3082

>  <SCORE.INTRA.VDW>
4.78591

>  <SCORE.INTRA.VDW.0>
-4.21408

>  <SCORE.INTRA.norm>
0.20102

>  <SCORE.RESTR>
4.2091

>  <SCORE.RESTR.CAVITY>
4.2091

>  <SCORE.RESTR.norm>
0.135778

>  <SCORE.SYSTEM>
0

>  <SCORE.SYSTEM.CONST>
0

>  <SCORE.SYSTEM.DIHEDRAL>
0

>  <SCORE.SYSTEM.SOLV>
0

>  <SCORE.SYSTEM.norm>
0

>  <SCORE.heavy>
31

>  <SCORE.norm>
0.235362

>  <RMSD>
6.988

$$$$
ligand
 OpenBabel11021811493D
libRbt.so/2013.1/901 2013/11/27
 31 33  0  0  0  0  0  0  0  0999 V2000
    0.6800   19.8623   34.1765 C   0  0  2  0  0  0  0  0  0  0  0  0
    2.0757   19.6310   34.1778 O   0  0  0  0  0  0  0  0  0  0  0  0
    5.0542   18.0371   36.7562 C   0  0  2  0  0  0  0  0  0  0  0  0
    5.7872   17.7677   37.9466 N   0  0  0  0  0  0  0  0  0  0  0  0
    2.6355   15.3823   37.9377 C   0  0  2  0  0  0  0  0  0  0  0  0
    0.3986   21.1845   33.3394 C   0  0  2  0  0  0  0  0  0  0  0  0
    0.9273   21.0181   31.9898 N   0  0  0  0  0  0  0  0  0  0  0  0
    5.0329   19.6145   36.5303 C   0  0  0  0  0  0  0  0  0  0  0  0
    3.4370   14.2021   38.5825 C   0  0  2  0  0  0  0  0  0  0  0  0
    4.5318   14.7356   39.2967 O   0  0  0  0  0  0  0  0  0  0  0  0
    1.0378   22.4344   34.0489 C   0  0  0  0  0  0  0  0  0  0  0  0
    4.2316   19.9125   35.1974 C   0  0  2  0  0  0  0  0  0  0  0  0
    4.2094   21.3579   34.9691 N   0  0  0  0  0  0  0  0  0  0  0  0
    3.9294   13.2476   37.4344 C   0  0  1  0  0  0  0  0  0  0  0  0
    4.7141   12.1151   38.0227 N   0  0  0  0  0  0  0  0  0  0  0  0
    0.8694   22.3672   35.6247 C   0  0  0  0  0  0  0  0  0  0  0  0
    2.7539   19.3656   35.3536 C   0  0  2  0  0  0  0  0  0  0  0  0
    2.6315   12.6548   36.6521 C   0  0  1  0  0  0  0  0  0  0  0  0
    1.7685   11.9110   37.4895 O   0  0  0  0  0  0  0  0  0  0  0  0
    0.4735   21.2266   36.2403 C   0  0  1  0  0  0  0  0  0  0  0  0
    0.1793   20.0206   35.5410 O   0  0  0  0  0  0  0  0  0  0  0  0
    2.7869   17.8001   35.6020 C   0  0  2  0  0  0  0  0  0  0  0  0
    1.4381   17.3134   35.7575 O   0  0  0  0  0  0  0  0  0  0  0  0
    1.8164   13.8368   36.0470 C   0  0  0  0  0  0  0  0  0  0  0  0
    1.4664   14.8365   37.1358 O   0  0  0  0  0  0  0  0  0  0  0  0
    0.3083   21.1193   37.7375 C   0  0  0  0  0  0  0  0  0  0  0  0
    0.3798   19.7138   38.0601 O   0  0  0  0  0  0  0  0  0  0  0  0
    3.5914   17.5054   36.9252 C   0  0  1  0  0  0  0  0  0  0  0  0
    3.6121   16.1132   37.1209 O   0  0  0  0  0  0  0  0  0  0  0  0
    2.9639   11.7077   35.4918 C   0  0  0  0  0  0  0  0  0  0  0  0
    5.6722   11.4446   37.1194 C   0  0  0  0  0  0  0  0  0  0  0  0
  1  2  1  1  0  0  0
  1  6  1  0  0  0  0
  1 21  1  0  0  0  0
  3  4  1  1  0  0  0
  3  8  1  0  0  0  0
  3 28  1  0  0  0  0
  5  9  1  0  0  0  0
  5 25  1  0  0  0  0
  5 29  1  6  0  0  0
  6  7  1  6  0  0  0
  6 11  1  0  0  0  0
  8 12  1  0  0  0  0
  9 10  1  6  0  0  0
  9 14  1  0  0  0  0
 11 16  1  0  0  0  0
 12 13  1  1  0  0  0
 12 17  1  0  0  0  0
 14 15  1  1  0  0  0
 14 18  1  0  0  0  0
 15 31  1  0  0  0  0
 16 20  1  0  0  0  0
 17  2  1  6  0  0  0
 17 22  1  0  0  0  0
 18 19  1  1  0  0  0
 18 24  1  0  0  0  0
 18 30  1  0  0  0  0
 20 21  1  0  0  0  0
 20 26  1  1  0  0  0
 22 23  1  1  0  0  0
 22 28  1  0  0  0  0
 24 25  1  0  0  0  0
 26 27  1  0  0  0  0
 28 29  1  6  0  0  0
M  END
>  <CHROM.1>
130.93574727,-146.14844990,-156.78950140,-149.93863951,-158.95840175,148.06481271
2.60567604,17.35955842,36.28952102,1.86582325,-0.45719205,-0.16606595

>  <Name>
ligand

>  <RI>
0

>  <Rbt.Current_Directory>
/home/itssahil/PROJECTS/Mol_Feturizer/New_Systems/rnas/4GPY

>  <Rbt.Executable>
rbdock ($Id: //depot/dev/client3/rdock/2013.1/src/exe/rbdock.cxx#4 $)

>  <Rbt.Library>
libRbt.so (2013.1, Build901 2013/11/27)

>  <Rbt.Parameter_File>
/export/apps/rDock/src/rDock_2013.1_src/data/scripts/dock_solv.prm

>  <Rbt.Receptor>
prm/blind_docking_80.prm

>  <SCORE>
-0.999012

>  <SCORE.INTER>
-9.6455

>  <SCORE.INTER.CONST>
1

>  <SCORE.INTER.POLAR>
0

>  <SCORE.INTER.ROT>
6

>  <SCORE.INTER.SOLV>
21.5875

>  <SCORE.INTER.VDW>
-21.2262

>  <SCORE.INTER.norm>
-0.311145

>  <SCORE.INTRA>
5.31994

>  <SCORE.INTRA.DIHEDRAL>
7.2853

>  <SCORE.INTRA.DIHEDRAL.0>
14.7001

>  <SCORE.INTRA.POLAR>
0

>  <SCORE.INTRA.POLAR.0>
0

>  <SCORE.INTRA.REPUL>
0

>  <SCORE.INTRA.REPUL.0>
0

>  <SCORE.INTRA.SOLV>
0.936376

>  <SCORE.INTRA.SOLV.lig_0>
-65.3082

>  <SCORE.INTRA.VDW>
1.2091

>  <SCORE.INTRA.VDW.0>
-4.21408

>  <SCORE.INTRA.norm>
0.171611

>  <SCORE.RESTR>
3.32654

>  <SCORE.RESTR.CAVITY>
3.32654

>  <SCORE.RESTR.norm>
0.107308

>  <SCORE.SYSTEM>
0

>  <SCORE.SYSTEM.CONST>
0

>  <SCORE.SYSTEM.DIHEDRAL>
0

>  <SCORE.SYSTEM.SOLV>
0

>  <SCORE.SYSTEM.norm>
0

>  <SCORE.heavy>
31

>  <SCORE.norm>
-0.0322262

>  <RMSD>
6.988

$$$$
ligand
 OpenBabel11021811493D
libRbt.so/2013.1/901 2013/11/27
 31 33  0  0  0  0  0  0  0  0999 V2000
    0.4165   20.2592   34.9743 C   0  0  2  0  0  0  0  0  0  0  0  0
    1.8177   20.4495   34.9330 O   0  0  0  0  0  0  0  0  0  0  0  0
    4.8389   17.9916   36.6334 C   0  0  2  0  0  0  0  0  0  0  0  0
    5.7164   17.4298   37.6035 N   0  0  0  0  0  0  0  0  0  0  0  0
    2.1357   15.7018   37.9984 C   0  0  2  0  0  0  0  0  0  0  0  0
   -0.1902   20.7495   33.5888 C   0  0  2  0  0  0  0  0  0  0  0  0
    0.4322   20.0009   32.5021 N   0  0  0  0  0  0  0  0  0  0  0  0
    5.1058   19.5615   36.5700 C   0  0  0  0  0  0  0  0  0  0  0  0
    2.7099   14.2779   38.3051 C   0  0  2  0  0  0  0  0  0  0  0  0
    3.9997   14.4203   38.8614 O   0  0  0  0  0  0  0  0  0  0  0  0
    0.0252   22.2970   33.4077 C   0  0  0  0  0  0  0  0  0  0  0  0
    4.1410   20.1835   35.4792 C   0  0  2  0  0  0  0  0  0  0  0  0
    4.3788   21.6254   35.4009 N   0  0  0  0  0  0  0  0  0  0  0  0
    2.7666   13.4629   36.9619 C   0  0  1  0  0  0  0  0  0  0  0  0
    3.3278   12.0987   37.2237 N   0  0  0  0  0  0  0  0  0  0  0  0
   -0.1970   23.0855   34.7659 C   0  0  0  0  0  0  0  0  0  0  0  0
    2.6408   19.9037   35.9012 C   0  0  2  0  0  0  0  0  0  0  0  0
    1.2573   13.3205   36.3706 C   0  0  1  0  0  0  0  0  0  0  0  0
    0.3774   12.6445   37.2471 O   0  0  0  0  0  0  0  0  0  0  0  0
   -0.2789   22.4331   35.9510 C   0  0  1  0  0  0  0  0  0  0  0  0
   -0.1776   21.0172   36.0743 O   0  0  0  0  0  0  0  0  0  0  0  0
    2.3920   18.3401   35.9851 C   0  0  2  0  0  0  0  0  0  0  0  0
    1.0278   18.0950   36.3841 O   0  0  0  0  0  0  0  0  0  0  0  0
    0.6767   14.7418   36.1053 C   0  0  0  0  0  0  0  0  0  0  0  0
    0.7582   15.5796   37.3697 O   0  0  0  0  0  0  0  0  0  0  0  0
   -0.4825   23.1469   37.2660 C   0  0  0  0  0  0  0  0  0  0  0  0
   -0.3838   24.5601   36.9872 O   0  0  0  0  0  0  0  0  0  0  0  0
    3.3586   17.7220   37.0661 C   0  0  1  0  0  0  0  0  0  0  0  0
    3.1241   16.3367   37.1181 O   0  0  0  0  0  0  0  0  0  0  0  0
    1.1608   12.5498   35.0475 C   0  0  0  0  0  0  0  0  0  0  0  0
    4.3740   11.6319   36.2905 C   0  0  0  0  0  0  0  0  0  0  0  0
  1  2  1  6  0  0  0
  1  6  1  0  0  0  0
  1 21  1  0  0  0  0
  3  4  1  1  0  0  0
  3  8  1  0  0  0  0
  3 28  1  0  0  0  0
  5  9  1  0  0  0  0
  5 25  1  0  0  0  0
  5 29  1  6  0  0  0
  6  7  1  6  0  0  0
  6 11  1  0  0  0  0
  8 12  1  0  0  0  0
  9 10  1  6  0  0  0
  9 14  1  0  0  0  0
 11 16  1  0  0  0  0
 12 13  1  1  0  0  0
 12 17  1  0  0  0  0
 14 15  1  1  0  0  0
 14 18  1  0  0  0  0
 15 31  1  0  0  0  0
 16 20  1  0  0  0  0
 17  2  1  6  0  0  0
 17 22  1  0  0  0  0
 18 19  1  1  0  0  0
 18 24  1  0  0  0  0
 18 30  1  0  0  0  0
 20 21  1  0  0  0  0
 20 26  1  1  0  0  0
 22 23  1  1  0  0  0
 22 28  1  0  0  0  0
 24 25  1  0  0  0  0
 26 27  1  0  0  0  0
 28 29  1  6  0  0  0
M  END
>  <CHROM.1>
-168.68699993,-150.36305187,-133.38017752,174.49414383,-7.33003986,151.90061375
1.95150097,17.90738722,36.22504771,1.81340717,-0.32318838,-0.11693351

>  <Name>
ligand

>  <RI>
0

>  <Rbt.Current_Directory>
/home/itssahil/PROJECTS/Mol_Feturizer/New_Systems/rnas/4GPY

>  <Rbt.Executable>
rbdock ($Id: //depot/dev/client3/rdock/2013.1/src/exe/rbdock.cxx#4 $)

>  <Rbt.Library>
libRbt.so (2013.1, Build901 2013/11/27)

>  <Rbt.Parameter_File>
/export/apps/rDock/src/rDock_2013.1_src/data/scripts/dock_solv.prm

>  <Rbt.Receptor>
prm/blind_docking_100.prm

>  <SCORE>
5.36891

>  <SCORE.INTER>
1.84983

>  <SCORE.INTER.CONST>
1

>  <SCORE.INTER.POLAR>
0

>  <SCORE.INTER.ROT>
6

>  <SCORE.INTER.SOLV>
21.7697

>  <SCORE.INTER.VDW>
-13.6234

>  <SCORE.INTER.norm>
0.0596719

>  <SCORE.INTRA>
-0.239101

>  <SCORE.INTRA.DIHEDRAL>
-4.35347

>  <SCORE.INTRA.DIHEDRAL.0>
14.7001

>  <SCORE.INTRA.POLAR>
0

>  <SCORE.INTRA.POLAR.0>
0

>  <SCORE.INTRA.REPUL>
0

>  <SCORE.INTRA.REPUL.0>
0

>  <SCORE.INTRA.SOLV>
-2.06467

>  <SCORE.INTRA.SOLV.lig_0>
-65.3082

>  <SCORE.INTRA.VDW>
2.96997

>  <SCORE.INTRA.VDW.0>
-4.21408

>  <SCORE.INTRA.norm>
-0.00771292

>  <SCORE.RESTR>
3.75818

>  <SCORE.RESTR.CAVITY>
3.75818

>  <SCORE.RESTR.norm>
0.121232

>  <SCORE.SYSTEM>
0

>  <SCORE.SYSTEM.CONST>
0

>  <SCORE.SYSTEM.DIHEDRAL>
0

>  <SCORE.SYSTEM.SOLV>
0

>  <SCORE.SYSTEM.norm>
0

>  <SCORE.heavy>
31

>  <SCORE.norm>
0.173191

>  <RMSD>
7.005

$$$$
ligand
 OpenBabel11021811493D
libRbt.so/2013.1/901 2013/11/27
 31 33  0  0  0  0  0  0  0  0999 V2000
    0.3928   19.6800   34.2942 C   0  0  2  0  0  0  0  0  0  0  0  0
    1.7493   19.2891   34.2028 O   0  0  0  0  0  0  0  0  0  0  0  0
    5.0058   18.0371   36.6294 C   0  0  2  0  0  0  0  0  0  0  0  0
    5.8366   17.8798   37.7747 N   0  0  0  0  0  0  0  0  0  0  0  0
    2.8336   15.2734   38.0549 C   0  0  2  0  0  0  0  0  0  0  0  0
    0.1900   20.9761   33.3958 C   0  0  2  0  0  0  0  0  0  0  0  0
    0.5812   20.6731   32.0233 N   0  0  0  0  0  0  0  0  0  0  0  0
    4.8553   19.5957   36.3333 C   0  0  0  0  0  0  0  0  0  0  0  0
    3.6978   14.0889   38.6040 C   0  0  2  0  0  0  0  0  0  0  0  0
    4.8374   14.6200   39.2463 O   0  0  0  0  0  0  0  0  0  0  0  0
    1.0211   22.1819   33.9695 C   0  0  0  0  0  0  0  0  0  0  0  0
    3.9445   19.7696   35.0496 C   0  0  2  0  0  0  0  0  0  0  0  0
    3.8025   21.1965   34.7572 N   0  0  0  0  0  0  0  0  0  0  0  0
    4.1124   13.1722   37.3961 C   0  0  1  0  0  0  0  0  0  0  0  0
    4.9548   12.0366   37.8915 N   0  0  0  0  0  0  0  0  0  0  0  0
    0.9799   22.2244   35.5546 C   0  0  0  0  0  0  0  0  0  0  0  0
    2.5244   19.1312   35.3373 C   0  0  2  0  0  0  0  0  0  0  0  0
    2.7658   12.5805   36.7000 C   0  0  1  0  0  0  0  0  0  0  0  0
    1.9797   11.8023   37.5808 O   0  0  0  0  0  0  0  0  0  0  0  0
    0.5135   21.1742   36.2730 C   0  0  1  0  0  0  0  0  0  0  0  0
    0.0295   19.9725   35.6798 O   0  0  0  0  0  0  0  0  0  0  0  0
    2.6873   17.5864   35.6545 C   0  0  2  0  0  0  0  0  0  0  0  0
    1.3910   17.0168   35.9295 O   0  0  0  0  0  0  0  0  0  0  0  0
    1.8912   13.7655   36.1916 C   0  0  0  0  0  0  0  0  0  0  0  0
    1.6133   14.7310   37.3308 O   0  0  0  0  0  0  0  0  0  0  0  0
    0.4643   21.1721   37.7823 C   0  0  0  0  0  0  0  0  0  0  0  0
   -0.5497   22.1271   38.1626 O   0  0  0  0  0  0  0  0  0  0  0  0
    3.6002   17.4155   36.9282 C   0  0  1  0  0  0  0  0  0  0  0  0
    3.7347   16.0398   37.1857 O   0  0  0  0  0  0  0  0  0  0  0  0
    3.0199   11.6689   35.4924 C   0  0  0  0  0  0  0  0  0  0  0  0
    5.8190   11.3780   36.8900 C   0  0  0  0  0  0  0  0  0  0  0  0
  1  2  1  1  0  0  0
  1  6  1  0  0  0  0
  1 21  1  0  0  0  0
  3  4  1  1  0  0  0
  3  8  1  0  0  0  0
  3 28  1  0  0  0  0
  5  9  1  0  0  0  0
  5 25  1  0  0  0  0
  5 29  1  6  0  0  0
  6  7  1  6  0  0  0
  6 11  1  0  0  0  0
  8 12  1  0  0  0  0
  9 10  1  6  0  0  0
  9 14  1  0  0  0  0
 11 16  1  0  0  0  0
 12 13  1  1  0  0  0
 12 17  1  0  0  0  0
 14 15  1  1  0  0  0
 14 18  1  0  0  0  0
 15 31  1  0  0  0  0
 16 20  1  0  0  0  0
 17  2  1  6  0  0  0
 17 22  1  0  0  0  0
 18 19  1  1  0  0  0
 18 24  1  0  0  0  0
 18 30  1  0  0  0  0
 20 21  1  0  0  0  0
 20 26  1  1  0  0  0
 22 23  1  1  0  0  0
 22 28  1  0  0  0  0
 24 25  1  0  0  0  0
 26 27  1  0  0  0  0
 28 29  1  6  0  0  0
M  END
>  <CHROM.1>
125.04902785,-152.62428436,-158.56213849,-137.57843779,69.20897553,151.05440287
2.56804988,17.33112000,36.29168277,1.93916186,-0.53116309,-0.07577750

>  <Name>
ligand

>  <RI>
0

>  <Rbt.Current_Directory>
/home/itssahil/PROJECTS/Mol_Feturizer/New_Systems/rnas/4GPY

>  <Rbt.Executable>
rbdock ($Id: //depot/dev/client3/rdock/2013.1/src/exe/rbdock.cxx#4 $)

>  <Rbt.Library>
libRbt.so (2013.1, Build901 2013/11/27)

>  <Rbt.Parameter_File>
/export/apps/rDock/src/rDock_2013.1_src/data/scripts/dock_solv.prm

>  <Rbt.Receptor>
prm/blind_docking_100.prm

>  <SCORE>
2.50976

>  <SCORE.INTER>
-7.74786

>  <SCORE.INTER.CONST>
1

>  <SCORE.INTER.POLAR>
0

>  <SCORE.INTER.ROT>
6

>  <SCORE.INTER.SOLV>
23.4309

>  <SCORE.INTER.VDW>
-20.5755

>  <SCORE.INTER.norm>
-0.249931

>  <SCORE.INTRA>
6.70152

>  <SCORE.INTRA.DIHEDRAL>
8.49166

>  <SCORE.INTRA.DIHEDRAL.0>
14.7001

>  <SCORE.INTRA.POLAR>
0

>  <SCORE.INTRA.POLAR.0>
0

>  <SCORE.INTRA.REPUL>
0

>  <SCORE.INTRA.REPUL.0>
0

>  <SCORE.INTRA.SOLV>
1.42838

>  <SCORE.INTRA.SOLV.lig_0>
-65.3082

>  <SCORE.INTRA.VDW>
1.7415

>  <SCORE.INTRA.VDW.0>
-4.21408

>  <SCORE.INTRA.norm>
0.216178

>  <SCORE.RESTR>
3.5561

>  <SCORE.RESTR.CAVITY>
3.5561

>  <SCORE.RESTR.norm>
0.114713

>  <SCORE.SYSTEM>
0

>  <SCORE.SYSTEM.CONST>
0

>  <SCORE.SYSTEM.DIHEDRAL>
0

>  <SCORE.SYSTEM.SOLV>
0

>  <SCORE.SYSTEM.norm>
0

>  <SCORE.heavy>
31

>  <SCORE.norm>
0.0809599

>  <RMSD>
7.010

$$$$
ligand
 OpenBabel11021811493D
libRbt.so/2013.1/901 2013/11/27
 31 33  0  0  0  0  0  0  0  0999 V2000
    0.8592   20.2249   34.7666 C   0  0  2  0  0  0  0  0  0  0  0  0
    2.2443   20.3595   35.0207 O   0  0  0  0  0  0  0  0  0  0  0  0
    4.9017   17.3904   36.4981 C   0  0  2  0  0  0  0  0  0  0  0  0
    5.5949   16.5559   37.4201 N   0  0  0  0  0  0  0  0  0  0  0  0
    2.0792   14.9356   36.9004 C   0  0  2  0  0  0  0  0  0  0  0  0
    0.4884   21.1633   33.5377 C   0  0  2  0  0  0  0  0  0  0  0  0
    1.2963   20.7826   32.3840 N   0  0  0  0  0  0  0  0  0  0  0  0
    5.1958   18.9089   36.8821 C   0  0  0  0  0  0  0  0  0  0  0  0
    2.6721   14.5429   38.2952 C   0  0  2  0  0  0  0  0  0  0  0  0
    3.0051   15.7237   38.9940 O   0  0  0  0  0  0  0  0  0  0  0  0
    0.7090   22.6753   33.9105 C   0  0  0  0  0  0  0  0  0  0  0  0
    4.4378   19.8365   35.8464 C   0  0  2  0  0  0  0  0  0  0  0  0
    4.7041   21.2367   36.1787 N   0  0  0  0  0  0  0  0  0  0  0  0
    3.9462   13.6519   38.0626 C   0  0  1  0  0  0  0  0  0  0  0  0
    4.5442   13.2735   39.3832 N   0  0  0  0  0  0  0  0  0  0  0  0
    0.2491   22.9889   35.3958 C   0  0  0  0  0  0  0  0  0  0  0  0
    2.8843   19.5441   35.9363 C   0  0  2  0  0  0  0  0  0  0  0  0
    3.5053   12.3040   37.2646 C   0  0  1  0  0  0  0  0  0  0  0  0
    2.5582   11.5250   37.9685 O   0  0  0  0  0  0  0  0  0  0  0  0
   -0.0225   21.9912   36.2719 C   0  0  1  0  0  0  0  0  0  0  0  0
    0.0768   20.6091   35.9404 O   0  0  0  0  0  0  0  0  0  0  0  0
    2.6047   18.0255   35.5764 C   0  0  2  0  0  0  0  0  0  0  0  0
    1.1896   17.7648   35.6751 O   0  0  0  0  0  0  0  0  0  0  0  0
    2.8793   12.7035   35.8949 C   0  0  0  0  0  0  0  0  0  0  0  0
    1.7386   13.6827   36.1119 O   0  0  0  0  0  0  0  0  0  0  0  0
   -0.4558   22.2474   37.6956 C   0  0  0  0  0  0  0  0  0  0  0  0
   -0.8835   23.6252   37.7544 O   0  0  0  0  0  0  0  0  0  0  0  0
    3.3661   17.1040   36.6041 C   0  0  1  0  0  0  0  0  0  0  0  0
    3.1084   15.7649   36.2616 O   0  0  0  0  0  0  0  0  0  0  0  0
    4.6575   11.3381   36.9590 C   0  0  0  0  0  0  0  0  0  0  0  0
    5.8922   13.8077   39.6677 C   0  0  0  0  0  0  0  0  0  0  0  0
  1  2  1  1  0  0  0
  1  6  1  0  0  0  0
  1 21  1  0  0  0  0
  3  4  1  1  0  0  0
  3  8  1  0  0  0  0
  3 28  1  0  0  0  0
  5  9  1  0  0  0  0
  5 25  1  0  0  0  0
  5 29  1  6  0  0  0
  6  7  1  6  0  0  0
  6 11  1  0  0  0  0
  8 12  1  0  0  0  0
  9 10  1  6  0  0  0
  9 14  1  0  0  0  0
 11 16  1  0  0  0  0
 12 13  1  1  0  0  0
 12 17  1  0  0  0  0
 14 15  1  1  0  0  0
 14 18  1  0  0  0  0
 15 31  1  0  0  0  0
 16 20  1  0  0  0  0
 17  2  1  6  0  0  0
 17 22  1  0  0  0  0
 18 19  1  1  0  0  0
 18 24  1  0  0  0  0
 18 30  1  0  0  0  0
 20 21  1  0  0  0  0
 20 26  1  1  0  0  0
 22 23  1  1  0  0  0
 22 28  1  0  0  0  0
 24 25  1  0  0  0  0
 26 27  1  0  0  0  0
 28 29  1  6  0  0  0
M  END
>  <CHROM.1>
-172.41983379,-75.83818008,-115.01842623,173.19217979,16.69760922,144.06908235
2.55557477,17.60424450,36.50584772,1.93749394,-0.44280651,-0.09835270

>  <Name>
ligand

>  <RI>
0

>  <Rbt.Current_Directory>
/home/itssahil/PROJECTS/Mol_Feturizer/New_Systems/rnas/4GPY

>  <Rbt.Executable>
rbdock ($Id: //depot/dev/client3/rdock/2013.1/src/exe/rbdock.cxx#4 $)

>  <Rbt.Library>
libRbt.so (2013.1, Build901 2013/11/27)

>  <Rbt.Parameter_File>
/export/apps/rDock/src/rDock_2013.1_src/data/scripts/dock_solv.prm

>  <Rbt.Receptor>
prm/blind_docking_100.prm

>  <SCORE>
-2.90579

>  <SCORE.INTER>
-5.94728

>  <SCORE.INTER.CONST>
1

>  <SCORE.INTER.POLAR>
0

>  <SCORE.INTER.ROT>
6

>  <SCORE.INTER.SOLV>
20.4671

>  <SCORE.INTER.VDW>
-18.3872

>  <SCORE.INTER.norm>
-0.191848

>  <SCORE.INTRA>
0.455452

>  <SCORE.INTRA.DIHEDRAL>
-5.12089

>  <SCORE.INTRA.DIHEDRAL.0>
14.7001

>  <SCORE.INTRA.POLAR>
0

>  <SCORE.INTRA.POLAR.0>
0

>  <SCORE.INTRA.REPUL>
0

>  <SCORE.INTRA.REPUL.0>
0

>  <SCORE.INTRA.SOLV>
0.407309

>  <SCORE.INTRA.SOLV.lig_0>
-65.3082

>  <SCORE.INTRA.VDW>
2.81224

>  <SCORE.INTRA.VDW.0>
-4.21408

>  <SCORE.INTRA.norm>
0.014692

>  <SCORE.RESTR>
2.58603

>  <SCORE.RESTR.CAVITY>
2.58603

>  <SCORE.RESTR.norm>
0.0834205

>  <SCORE.SYSTEM>
0

>  <SCORE.SYSTEM.CONST>
0

>  <SCORE.SYSTEM.DIHEDRAL>
0

>  <SCORE.SYSTEM.SOLV>
0

>  <SCORE.SYSTEM.norm>
0

>  <SCORE.heavy>
31

>  <SCORE.norm>
-0.0937351

>  <RMSD>
7.012

$$$$
ligand
 OpenBabel11021811493D
libRbt.so/2013.1/901 2013/11/27
 31 33  0  0  0  0  0  0  0  0999 V2000
    0.8766   20.2175   34.7753 C   0  0  2  0  0  0  0  0  0  0  0  0
    2.2611   20.3411   35.0383 O   0  0  0  0  0  0  0  0  0  0  0  0
    4.9129   17.3807   36.5430 C   0  0  2  0  0  0  0  0  0  0  0  0
    5.5934   16.5428   37.4714 N   0  0  0  0  0  0  0  0  0  0  0  0
    2.1309   14.8847   36.8842 C   0  0  2  0  0  0  0  0  0  0  0  0
    0.5190   21.1672   33.5513 C   0  0  2  0  0  0  0  0  0  0  0  0
    1.3309   20.7897   32.3994 N   0  0  0  0  0  0  0  0  0  0  0  0
    5.1844   18.8976   36.9490 C   0  0  0  0  0  0  0  0  0  0  0  0
    2.6764   14.5992   38.3237 C   0  0  2  0  0  0  0  0  0  0  0  0
    2.9056   15.8315   38.9734 O   0  0  0  0  0  0  0  0  0  0  0  0
    0.7474   22.6751   33.9365 C   0  0  0  0  0  0  0  0  0  0  0  0
    4.4408   19.8292   35.9065 C   0  0  2  0  0  0  0  0  0  0  0  0
    4.6868   21.2281   36.2591 N   0  0  0  0  0  0  0  0  0  0  0  0
    4.0100   13.7764   38.1976 C   0  0  1  0  0  0  0  0  0  0  0  0
    4.5634   13.5017   39.5624 N   0  0  0  0  0  0  0  0  0  0  0  0
    0.2811   22.9807   35.4215 C   0  0  0  0  0  0  0  0  0  0  0  0
    2.8885   19.5218   35.9592 C   0  0  2  0  0  0  0  0  0  0  0  0
    3.6879   12.3659   37.4528 C   0  0  1  0  0  0  0  0  0  0  0  0
    2.7542   11.5673   38.1526 O   0  0  0  0  0  0  0  0  0  0  0  0
   -0.0021   21.9785   36.2886 C   0  0  1  0  0  0  0  0  0  0  0  0
    0.0901   20.5981   35.9476 O   0  0  0  0  0  0  0  0  0  0  0  0
    2.6309   18.0047   35.5776 C   0  0  2  0  0  0  0  0  0  0  0  0
    1.2164   17.7302   35.6424 O   0  0  0  0  0  0  0  0  0  0  0  0
    3.1078   12.6574   36.0364 C   0  0  0  0  0  0  0  0  0  0  0  0
    1.9029   13.5754   36.1484 O   0  0  0  0  0  0  0  0  0  0  0  0
   -0.4417   22.2270   37.7117 C   0  0  0  0  0  0  0  0  0  0  0  0
   -0.7912   23.6254   37.7965 O   0  0  0  0  0  0  0  0  0  0  0  0
    3.3781   17.0794   36.6122 C   0  0  1  0  0  0  0  0  0  0  0  0
    3.1403   15.7416   36.2504 O   0  0  0  0  0  0  0  0  0  0  0  0
    4.9079   11.4574   37.2522 C   0  0  0  0  0  0  0  0  0  0  0  0
    6.0335   13.5661   39.6971 C   0  0  0  0  0  0  0  0  0  0  0  0
  1  2  1  1  0  0  0
  1  6  1  0  0  0  0
  1 21  1  0  0  0  0
  3  4  1  1  0  0  0
  3  8  1  0  0  0  0
  3 28  1  0  0  0  0
  5  9  1  0  0  0  0
  5 25  1  0  0  0  0
  5 29  1  6  0  0  0
  6  7  1  6  0  0  0
  6 11  1  0  0  0  0
  8 12  1  0  0  0  0
  9 10  1  6  0  0  0
  9 14  1  0  0  0  0
 11 16  1  0  0  0  0
 12 13  1  1  0  0  0
 12 17  1  0  0  0  0
 14 15  1  1  0  0  0
 14 18  1  0  0  0  0
 15 31  1  0  0  0  0
 16 20  1  0  0  0  0
 17  2  1  6  0  0  0
 17 22  1  0  0  0  0
 18 19  1  1  0  0  0
 18 24  1  0  0  0  0
 18 30  1  0  0  0  0
 20 21  1  0  0  0  0
 20 26  1  1  0  0  0
 22 23  1  1  0  0  0
 22 28  1  0  0  0  0
 24 25  1  0  0  0  0
 26 27  1  0  0  0  0
 28 29  1  6  0  0  0
M  END
>  <CHROM.1>
-172.94120367,-70.24795076,-141.95005516,174.69134438,13.62719200,142.24244352
2.60805155,17.60506504,36.55894813,1.95802732,-0.48442274,-0.08583850

>  <Name>
ligand

>  <RI>
0

>  <Rbt.Current_Directory>
/home/itssahil/PROJECTS/Mol_Feturizer/New_Systems/rnas/4GPY

>  <Rbt.Executable>
rbdock ($Id: //depot/dev/client3/rdock/2013.1/src/exe/rbdock.cxx#4 $)

>  <Rbt.Library>
libRbt.so (2013.1, Build901 2013/11/27)

>  <Rbt.Parameter_File>
/export/apps/rDock/src/rDock_2013.1_src/data/scripts/dock_solv.prm

>  <Rbt.Receptor>
prm/blind_docking_100.prm

>  <SCORE>
-3.46523

>  <SCORE.INTER>
-6.43695

>  <SCORE.INTER.CONST>
1

>  <SCORE.INTER.POLAR>
0

>  <SCORE.INTER.ROT>
6

>  <SCORE.INTER.SOLV>
20.7187

>  <SCORE.INTER.VDW>
-18.7975

>  <SCORE.INTER.norm>
-0.207643

>  <SCORE.INTRA>
0.471099

>  <SCORE.INTRA.DIHEDRAL>
-6.03074

>  <SCORE.INTRA.DIHEDRAL.0>
14.7001

>  <SCORE.INTRA.POLAR>
0

>  <SCORE.INTRA.POLAR.0>
0

>  <SCORE.INTRA.REPUL>
0

>  <SCORE.INTRA.REPUL.0>
0

>  <SCORE.INTRA.SOLV>
0.499925

>  <SCORE.INTRA.SOLV.lig_0>
-65.3082

>  <SCORE.INTRA.VDW>
3.23651

>  <SCORE.INTRA.VDW.0>
-4.21408

>  <SCORE.INTRA.norm>
0.0151967

>  <SCORE.RESTR>
2.50062

>  <SCORE.RESTR.CAVITY>
2.50062

>  <SCORE.RESTR.norm>
0.0806651

>  <SCORE.SYSTEM>
0

>  <SCORE.SYSTEM.CONST>
0

>  <SCORE.SYSTEM.DIHEDRAL>
0

>  <SCORE.SYSTEM.SOLV>
0

>  <SCORE.SYSTEM.norm>
0

>  <SCORE.heavy>
31

>  <SCORE.norm>
-0.111782

>  <RMSD>
7.029

$$$$
ligand
 OpenBabel11021811493D
libRbt.so/2013.1/901 2013/11/27
 31 33  0  0  0  0  0  0  0  0999 V2000
    5.9086   19.8908   35.6629 C   0  0  2  0  0  0  0  0  0  0  0  0
    4.5108   20.1053   35.6254 O   0  0  0  0  0  0  0  0  0  0  0  0
    1.2795   17.3857   36.0972 C   0  0  2  0  0  0  0  0  0  0  0  0
    0.3517   16.3474   35.8006 N   0  0  0  0  0  0  0  0  0  0  0  0
    4.1000   15.1433   37.4499 C   0  0  2  0  0  0  0  0  0  0  0  0
    6.5945   21.2010   36.2468 C   0  0  2  0  0  0  0  0  0  0  0  0
    6.0475   21.4783   37.5706 N   0  0  0  0  0  0  0  0  0  0  0  0
    1.1501   18.5060   34.9712 C   0  0  0  0  0  0  0  0  0  0  0  0
    3.6762   13.8070   38.1470 C   0  0  2  0  0  0  0  0  0  0  0  0
    2.8493   13.0787   37.2643 O   0  0  0  0  0  0  0  0  0  0  0  0
    6.3755   22.4190   35.2760 C   0  0  0  0  0  0  0  0  0  0  0  0
    2.1705   19.6684   35.3105 C   0  0  2  0  0  0  0  0  0  0  0  0
    2.0591   20.7117   34.2903 N   0  0  0  0  0  0  0  0  0  0  0  0
    2.9077   14.1578   39.4728 C   0  0  1  0  0  0  0  0  0  0  0  0
    2.4762   12.8952   40.1541 N   0  0  0  0  0  0  0  0  0  0  0  0
    6.5061   21.9903   33.7544 C   0  0  0  0  0  0  0  0  0  0  0  0
    3.6387   19.0757   35.3216 C   0  0  2  0  0  0  0  0  0  0  0  0
    3.9067   14.9858   40.4549 C   0  0  1  0  0  0  0  0  0  0  0  0
    5.0669   14.2595   40.8094 O   0  0  0  0  0  0  0  0  0  0  0  0
    6.5213   20.6846   33.3919 C   0  0  1  0  0  0  0  0  0  0  0  0
    6.4265   19.6116   34.3245 O   0  0  0  0  0  0  0  0  0  0  0  0
    3.7505   17.9457   36.4281 C   0  0  2  0  0  0  0  0  0  0  0  0
    5.0863   17.4018   36.4209 O   0  0  0  0  0  0  0  0  0  0  0  0
    4.3566   16.2948   39.7395 C   0  0  0  0  0  0  0  0  0  0  0  0
    4.9676   15.9639   38.3888 O   0  0  0  0  0  0  0  0  0  0  0  0
    6.6367   20.2353   31.9548 C   0  0  0  0  0  0  0  0  0  0  0  0
    7.8130   19.4015   31.8772 O   0  0  0  0  0  0  0  0  0  0  0  0
    2.7286   16.7933   36.0923 C   0  0  1  0  0  0  0  0  0  0  0  0
    2.8417   15.8076   37.0886 O   0  0  0  0  0  0  0  0  0  0  0  0
    3.2830   15.4052   41.7924 C   0  0  0  0  0  0  0  0  0  0  0  0
    1.0794   12.4721   39.9231 C   0  0  0  0  0  0  0  0  0  0  0  0
  1  2  1  6  0  0  0
  1  6  1  0  0  0  0
  1 21  1  0  0  0  0
  3  4  1  6  0  0  0
  3  8  1  0  0  0  0
  3 28  1  0  0  0  0
  5  9  1  0  0  0  0
  5 25  1  0  0  0  0
  5 29  1  1  0  0  0
  6  7  1  1  0  0  0
  6 11  1  0  0  0  0
  8 12  1  0  0  0  0
  9 10  1  6  0  0  0
  9 14  1  0  0  0  0
 11 16  1  0  0  0  0
 12 13  1  6  0  0  0
 12 17  1  0  0  0  0
 14 15  1  1  0  0  0
 14 18  1  0  0  0  0
 15 31  1  0  0  0  0
 16 20  1  0  0  0  0
 17  2  1  1  0  0  0
 17 22  1  0  0  0  0
 18 19  1  1  0  0  0
 18 24  1  0  0  0  0
 18 30  1  0  0  0  0
 20 21  1  0  0  0  0
 20 26  1  6  0  0  0
 22 23  1  6  0  0  0
 22 28  1  0  0  0  0
 24 25  1  0  0  0  0
 26 27  1  0  0  0  0
 28 29  1  1  0  0  0
M  END
>  <CHROM.1>
-171.71852511,-158.68913124,-97.99949040,-177.77538381,121.86956773,-173.59212106
4.12581788,17.55181019,36.68397940,-1.19435687,0.45870635,2.28883482

>  <Name>
ligand

>  <RI>
0

>  <Rbt.Current_Directory>
/home/itssahil/PROJECTS/Mol_Feturizer/New_Systems/rnas/4GPY

>  <Rbt.Executable>
rbdock ($Id: //depot/dev/client3/rdock/2013.1/src/exe/rbdock.cxx#4 $)

>  <Rbt.Library>
libRbt.so (2013.1, Build901 2013/11/27)

>  <Rbt.Parameter_File>
/export/apps/rDock/src/rDock_2013.1_src/data/scripts/dock_solv.prm

>  <Rbt.Receptor>
prm/pocket_docking_8.prm

>  <SCORE>
-14.3776

>  <SCORE.INTER>
-11.3132

>  <SCORE.INTER.CONST>
1

>  <SCORE.INTER.POLAR>
0

>  <SCORE.INTER.ROT>
6

>  <SCORE.INTER.SOLV>
19.6956

>  <SCORE.INTER.VDW>
-21.7073

>  <SCORE.INTER.norm>
-0.364942

>  <SCORE.INTRA>
-3.06445

>  <SCORE.INTRA.DIHEDRAL>
-9.58573

>  <SCORE.INTRA.DIHEDRAL.0>
14.7001

>  <SCORE.INTRA.POLAR>
0

>  <SCORE.INTRA.POLAR.0>
0

>  <SCORE.INTRA.REPUL>
0

>  <SCORE.INTRA.REPUL.0>
0

>  <SCORE.INTRA.SOLV>
-2.58839

>  <SCORE.INTRA.SOLV.lig_0>
-65.3082

>  <SCORE.INTRA.VDW>
3.02261

>  <SCORE.INTRA.VDW.0>
-4.21408

>  <SCORE.INTRA.norm>
-0.0988533

>  <SCORE.RESTR>
0

>  <SCORE.RESTR.CAVITY>
0

>  <SCORE.RESTR.norm>
0

>  <SCORE.SYSTEM>
0

>  <SCORE.SYSTEM.CONST>
0

>  <SCORE.SYSTEM.DIHEDRAL>
0

>  <SCORE.SYSTEM.SOLV>
0

>  <SCORE.SYSTEM.norm>
0

>  <SCORE.heavy>
31

>  <SCORE.norm>
-0.463795

>  <RMSD>
7.031

$$$$
ligand
 OpenBabel11021811493D
libRbt.so/2013.1/901 2013/11/27
 31 33  0  0  0  0  0  0  0  0999 V2000
    5.4667   21.6789   37.0880 C   0  0  2  0  0  0  0  0  0  0  0  0
    4.1723   22.1389   36.7500 O   0  0  0  0  0  0  0  0  0  0  0  0
    0.5542   20.5258   35.2114 C   0  0  2  0  0  0  0  0  0  0  0  0
   -0.3319   19.7847   34.3793 N   0  0  0  0  0  0  0  0  0  0  0  0
    0.1362   17.4498   36.2160 C   0  0  2  0  0  0  0  0  0  0  0  0
    6.4894   22.2428   36.0090 C   0  0  2  0  0  0  0  0  0  0  0  0
    6.4131   23.6997   35.9927 N   0  0  0  0  0  0  0  0  0  0  0  0
    1.3626   21.5472   34.2933 C   0  0  0  0  0  0  0  0  0  0  0  0
   -0.1456   16.5695   37.4797 C   0  0  2  0  0  0  0  0  0  0  0  0
   -0.8750   17.3378   38.4128 O   0  0  0  0  0  0  0  0  0  0  0  0
    6.1807   21.6427   34.5883 C   0  0  0  0  0  0  0  0  0  0  0  0
    2.3362   22.3827   35.2216 C   0  0  2  0  0  0  0  0  0  0  0  0
    3.0814   23.3334   34.3954 N   0  0  0  0  0  0  0  0  0  0  0  0
    1.2308   16.1116   38.0857 C   0  0  1  0  0  0  0  0  0  0  0  0
    0.9911   15.2786   39.3076 N   0  0  0  0  0  0  0  0  0  0  0  0
    5.7823   20.1095   34.6704 C   0  0  0  0  0  0  0  0  0  0  0  0
    3.3372   21.3894   35.9416 C   0  0  2  0  0  0  0  0  0  0  0  0
    2.0238   15.2244   36.9757 C   0  0  1  0  0  0  0  0  0  0  0  0
    1.3186   14.0631   36.5840 O   0  0  0  0  0  0  0  0  0  0  0  0
    5.4868   19.5236   35.8561 C   0  0  1  0  0  0  0  0  0  0  0  0
    5.5110   20.2176   37.1003 O   0  0  0  0  0  0  0  0  0  0  0  0
    2.5221   20.3624   36.8331 C   0  0  2  0  0  0  0  0  0  0  0  0
    3.4406   19.4529   37.4731 O   0  0  0  0  0  0  0  0  0  0  0  0
    2.2656   16.0937   35.7054 C   0  0  0  0  0  0  0  0  0  0  0  0
    0.9473   16.6581   35.2046 O   0  0  0  0  0  0  0  0  0  0  0  0
    5.0963   18.0699   35.9761 C   0  0  0  0  0  0  0  0  0  0  0  0
    3.9771   17.8693   35.0862 O   0  0  0  0  0  0  0  0  0  0  0  0
    1.5484   19.5371   35.9080 C   0  0  1  0  0  0  0  0  0  0  0  0
    0.8336   18.6391   36.7201 O   0  0  0  0  0  0  0  0  0  0  0  0
    3.3975   14.7141   37.4300 C   0  0  0  0  0  0  0  0  0  0  0  0
   -0.1329   14.3220   39.2367 C   0  0  0  0  0  0  0  0  0  0  0  0
  1  2  1  6  0  0  0
  1  6  1  0  0  0  0
  1 21  1  0  0  0  0
  3  4  1  6  0  0  0
  3  8  1  0  0  0  0
  3 28  1  0  0  0  0
  5  9  1  0  0  0  0
  5 25  1  0  0  0  0
  5 29  1  1  0  0  0
  6  7  1  6  0  0  0
  6 11  1  0  0  0  0
  8 12  1  0  0  0  0
  9 10  1  1  0  0  0
  9 14  1  0  0  0  0
 11 16  1  0  0  0  0
 12 13  1  6  0  0  0
 12 17  1  0  0  0  0
 14 15  1  1  0  0  0
 14 18  1  0  0  0  0
 15 31  1  0  0  0  0
 16 20  1  0  0  0  0
 17  2  1  1  0  0  0
 17 22  1  0  0  0  0
 18 19  1  6  0  0  0
 18 24  1  0  0  0  0
 18 30  1  0  0  0  0
 20 21  1  0  0  0  0
 20 26  1  6  0  0  0
 22 23  1  6  0  0  0
 22 28  1  0  0  0  0
 24 25  1  0  0  0  0
 26 27  1  0  0  0  0
 28 29  1  1  0  0  0
M  END
>  <CHROM.1>
91.65271409,164.29253831,40.23030047,-153.96709928,-54.75268368,80.24842595
2.71261452,18.91824459,36.34474913,-1.01567279,0.08063624,2.79930958

>  <Name>
ligand

>  <RI>
0

>  <Rbt.Current_Directory>
/home/itssahil/PROJECTS/Mol_Feturizer/New_Systems/rnas/4GPY

>  <Rbt.Executable>
rbdock ($Id: //depot/dev/client3/rdock/2013.1/src/exe/rbdock.cxx#4 $)

>  <Rbt.Library>
libRbt.so (2013.1, Build901 2013/11/27)

>  <Rbt.Parameter_File>
/export/apps/rDock/src/rDock_2013.1_src/data/scripts/dock_solv.prm

>  <Rbt.Receptor>
prm/blind_docking_60.prm

>  <SCORE>
74.4219

>  <SCORE.INTER>
45.2092

>  <SCORE.INTER.CONST>
1

>  <SCORE.INTER.POLAR>
0

>  <SCORE.INTER.ROT>
6

>  <SCORE.INTER.SOLV>
22.7649

>  <SCORE.INTER.VDW>
14.9512

>  <SCORE.INTER.norm>
1.45836

>  <SCORE.INTRA>
12.4121

>  <SCORE.INTRA.DIHEDRAL>
-1.0787

>  <SCORE.INTRA.DIHEDRAL.0>
14.7001

>  <SCORE.INTRA.POLAR>
0

>  <SCORE.INTRA.POLAR.0>
0

>  <SCORE.INTRA.REPUL>
0

>  <SCORE.INTRA.REPUL.0>
0

>  <SCORE.INTRA.SOLV>
3.55422

>  <SCORE.INTRA.SOLV.lig_0>
-65.3082

>  <SCORE.INTRA.VDW>
11.1744

>  <SCORE.INTRA.VDW.0>
-4.21408

>  <SCORE.INTRA.norm>
0.400391

>  <SCORE.RESTR>
16.8006

>  <SCORE.RESTR.CAVITY>
16.8006

>  <SCORE.RESTR.norm>
0.541953

>  <SCORE.SYSTEM>
0

>  <SCORE.SYSTEM.CONST>
0

>  <SCORE.SYSTEM.DIHEDRAL>
0

>  <SCORE.SYSTEM.SOLV>
0

>  <SCORE.SYSTEM.norm>
0

>  <SCORE.heavy>
31

>  <SCORE.norm>
2.40071

>  <RMSD>
7.035

$$$$
ligand
 OpenBabel11021811493D
libRbt.so/2013.1/901 2013/11/27
 31 33  0  0  0  0  0  0  0  0999 V2000
   -4.5690   14.6667   41.2048 C   0  0  2  0  0  0  0  0  0  0  0  0
   -3.5173   14.3332   42.0902 O   0  0  0  0  0  0  0  0  0  0  0  0
   -1.4170   10.6728   42.5903 C   0  0  2  0  0  0  0  0  0  0  0  0
   -1.1413    9.3324   42.9830 N   0  0  0  0  0  0  0  0  0  0  0  0
   -3.3261    9.3572   39.5547 C   0  0  2  0  0  0  0  0  0  0  0  0
   -4.5628   16.2437   41.0014 C   0  0  2  0  0  0  0  0  0  0  0  0
   -3.2615   16.6546   40.4852 N   0  0  0  0  0  0  0  0  0  0  0  0
   -1.7691   11.5126   43.8981 C   0  0  0  0  0  0  0  0  0  0  0  0
   -2.5460    8.3079   38.6936 C   0  0  2  0  0  0  0  0  0  0  0  0
   -1.9182    7.3877   39.5610 O   0  0  0  0  0  0  0  0  0  0  0  0
   -4.8941   16.9767   42.3530 C   0  0  0  0  0  0  0  0  0  0  0  0
   -2.0596   13.0072   43.4627 C   0  0  2  0  0  0  0  0  0  0  0  0
   -2.3766   13.7962   44.6538 N   0  0  0  0  0  0  0  0  0  0  0  0
   -1.4829    9.0698   37.8214 C   0  0  1  0  0  0  0  0  0  0  0  0
   -0.7097    8.0865   36.9969 N   0  0  0  0  0  0  0  0  0  0  0  0
   -6.0267   16.2236   43.1692 C   0  0  0  0  0  0  0  0  0  0  0  0
   -3.2858   13.0211   42.4610 C   0  0  2  0  0  0  0  0  0  0  0  0
   -2.2586   10.1070   36.8363 C   0  0  1  0  0  0  0  0  0  0  0  0
   -3.1605    9.4683   35.9543 O   0  0  0  0  0  0  0  0  0  0  0  0
   -6.4167   14.9695   42.8349 C   0  0  1  0  0  0  0  0  0  0  0  0
   -5.8580   14.2394   41.7464 O   0  0  0  0  0  0  0  0  0  0  0  0
   -2.9348   12.1632   41.1748 C   0  0  2  0  0  0  0  0  0  0  0  0
   -4.0622   12.1694   40.2752 O   0  0  0  0  0  0  0  0  0  0  0  0
   -3.0651   11.1237   37.6986 C   0  0  0  0  0  0  0  0  0  0  0  0
   -3.9886   10.3804   38.6482 O   0  0  0  0  0  0  0  0  0  0  0  0
   -7.4854   14.2159   43.5902 C   0  0  0  0  0  0  0  0  0  0  0  0
   -8.3062   13.5613   42.5990 O   0  0  0  0  0  0  0  0  0  0  0  0
   -2.6388   10.6777   41.6114 C   0  0  1  0  0  0  0  0  0  0  0  0
   -2.3249    9.9392   40.4569 O   0  0  0  0  0  0  0  0  0  0  0  0
   -1.3386   10.9314   35.9264 C   0  0  0  0  0  0  0  0  0  0  0  0
    0.5268    7.5527   37.6049 C   0  0  0  0  0  0  0  0  0  0  0  0
  1  2  1  1  0  0  0
  1  6  1  0  0  0  0
  1 21  1  0  0  0  0
  3  4  1  1  0  0  0
  3  8  1  0  0  0  0
  3 28  1  0  0  0  0
  5  9  1  0  0  0  0
  5 25  1  0  0  0  0
  5 29  1  1  0  0  0
  6  7  1  1  0  0  0
  6 11  1  0  0  0  0
  8 12  1  0  0  0  0
  9 10  1  1  0  0  0
  9 14  1  0  0  0  0
 11 16  1  0  0  0  0
 12 13  1  1  0  0  0
 12 17  1  0  0  0  0
 14 15  1  6  0  0  0
 14 18  1  0  0  0  0
 15 31  1  0  0  0  0
 16 20  1  0  0  0  0
 17  2  1  6  0  0  0
 17 22  1  0  0  0  0
 18 19  1  6  0  0  0
 18 24  1  0  0  0  0
 18 30  1  0  0  0  0
 20 21  1  0  0  0  0
 20 26  1  1  0  0  0
 22 23  1  6  0  0  0
 22 28  1  0  0  0  0
 24 25  1  0  0  0  0
 26 27  1  0  0  0  0
 28 29  1  6  0  0  0
M  END
>  <CHROM.1>
179.53839990,-163.79065909,-90.92932910,-179.32963443,137.92889968,158.66149340
-3.32045174,11.91629455,40.61335406,2.31701853,-0.89237207,1.27867805

>  <Name>
ligand

>  <RI>
0

>  <Rbt.Current_Directory>
/home/itssahil/PROJECTS/Mol_Feturizer/New_Systems/rnas/4GPY

>  <Rbt.Executable>
rbdock ($Id: //depot/dev/client3/rdock/2013.1/src/exe/rbdock.cxx#4 $)

>  <Rbt.Library>
libRbt.so (2013.1, Build901 2013/11/27)

>  <Rbt.Parameter_File>
/export/apps/rDock/src/rDock_2013.1_src/data/scripts/dock_solv.prm

>  <Rbt.Receptor>
prm/pocket_docking_5.prm

>  <SCORE>
-7.30635

>  <SCORE.INTER>
-4.31721

>  <SCORE.INTER.CONST>
1

>  <SCORE.INTER.POLAR>
0

>  <SCORE.INTER.ROT>
6

>  <SCORE.INTER.SOLV>
13.668

>  <SCORE.INTER.VDW>
-15.0341

>  <SCORE.INTER.norm>
-0.139265

>  <SCORE.INTRA>
-2.98914

>  <SCORE.INTRA.DIHEDRAL>
-8.74484

>  <SCORE.INTRA.DIHEDRAL.0>
14.7001

>  <SCORE.INTRA.POLAR>
0

>  <SCORE.INTRA.POLAR.0>
0

>  <SCORE.INTRA.REPUL>
0

>  <SCORE.INTRA.REPUL.0>
0

>  <SCORE.INTRA.SOLV>
-2.29256

>  <SCORE.INTRA.SOLV.lig_0>
-65.3082

>  <SCORE.INTRA.VDW>
2.52956

>  <SCORE.INTRA.VDW.0>
-4.21408

>  <SCORE.INTRA.norm>
-0.0964239

>  <SCORE.RESTR>
0

>  <SCORE.RESTR.CAVITY>
0

>  <SCORE.RESTR.norm>
0

>  <SCORE.SYSTEM>
0

>  <SCORE.SYSTEM.CONST>
0

>  <SCORE.SYSTEM.DIHEDRAL>
0

>  <SCORE.SYSTEM.SOLV>
0

>  <SCORE.SYSTEM.norm>
0

>  <SCORE.heavy>
31

>  <SCORE.norm>
-0.235689

>  <RMSD>
7.049

$$$$
ligand
 OpenBabel11021811493D
libRbt.so/2013.1/901 2013/11/27
 31 33  0  0  0  0  0  0  0  0999 V2000
    0.8609   20.2390   34.7273 C   0  0  2  0  0  0  0  0  0  0  0  0
    2.2432   20.3694   34.9984 O   0  0  0  0  0  0  0  0  0  0  0  0
    4.9158   17.4464   36.5391 C   0  0  2  0  0  0  0  0  0  0  0  0
    5.5938   16.6166   37.4763 N   0  0  0  0  0  0  0  0  0  0  0  0
    2.1605   14.9093   36.8186 C   0  0  2  0  0  0  0  0  0  0  0  0
    0.5023   21.2004   33.5127 C   0  0  2  0  0  0  0  0  0  0  0  0
    1.3223   20.8422   32.3604 N   0  0  0  0  0  0  0  0  0  0  0  0
    5.1565   18.9662   36.9538 C   0  0  0  0  0  0  0  0  0  0  0  0
    2.6386   14.6828   38.2922 C   0  0  2  0  0  0  0  0  0  0  0  0
    2.7948   15.9399   38.9155 O   0  0  0  0  0  0  0  0  0  0  0  0
    0.7179   22.7052   33.9166 C   0  0  0  0  0  0  0  0  0  0  0  0
    4.4159   19.8892   35.9016 C   0  0  2  0  0  0  0  0  0  0  0  0
    4.6338   21.2907   36.2622 N   0  0  0  0  0  0  0  0  0  0  0  0
    4.0021   13.9009   38.2596 C   0  0  1  0  0  0  0  0  0  0  0  0
    4.4916   13.6833   39.6587 N   0  0  0  0  0  0  0  0  0  0  0  0
    0.2424   22.9901   35.4027 C   0  0  0  0  0  0  0  0  0  0  0  0
    2.8679   19.5573   35.9274 C   0  0  2  0  0  0  0  0  0  0  0  0
    3.7637   12.4601   37.5418 C   0  0  1  0  0  0  0  0  0  0  0  0
    2.8200   11.6514   38.2164 O   0  0  0  0  0  0  0  0  0  0  0  0
   -0.0376   21.9758   36.2568 C   0  0  1  0  0  0  0  0  0  0  0  0
    0.0661   20.6002   35.9001 O   0  0  0  0  0  0  0  0  0  0  0  0
    2.6407   18.0374   35.5372 C   0  0  2  0  0  0  0  0  0  0  0  0
    1.2299   17.7405   35.5776 O   0  0  0  0  0  0  0  0  0  0  0  0
    3.2497   12.6922   36.0894 C   0  0  0  0  0  0  0  0  0  0  0  0
    2.0124   13.5730   36.1117 O   0  0  0  0  0  0  0  0  0  0  0  0
   -0.4859   22.2045   37.6805 C   0  0  0  0  0  0  0  0  0  0  0  0
   -0.8752   23.5919   37.7719 O   0  0  0  0  0  0  0  0  0  0  0  0
    3.3850   17.1208   36.5816 C   0  0  1  0  0  0  0  0  0  0  0  0
    3.1744   15.7806   36.2121 O   0  0  0  0  0  0  0  0  0  0  0  0
    5.0203   11.5868   37.4316 C   0  0  0  0  0  0  0  0  0  0  0  0
    5.9559   13.5861   39.8315 C   0  0  0  0  0  0  0  0  0  0  0  0
  1  2  1  1  0  0  0
  1  6  1  0  0  0  0
  1 21  1  0  0  0  0
  3  4  1  1  0  0  0
  3  8  1  0  0  0  0
  3 28  1  0  0  0  0
  5  9  1  0  0  0  0
  5 25  1  0  0  0  0
  5 29  1  6  0  0  0
  6  7  1  6  0  0  0
  6 11  1  0  0  0  0
  8 12  1  0  0  0  0
  9 10  1  6  0  0  0
  9 14  1  0  0  0  0
 11 16  1  0  0  0  0
 12 13  1  1  0  0  0
 12 17  1  0  0  0  0
 14 15  1  1  0  0  0
 14 18  1  0  0  0  0
 15 31  1  0  0  0  0
 16 20  1  0  0  0  0
 17  2  1  6  0  0  0
 17 22  1  0  0  0  0
 18 19  1  1  0  0  0
 18 24  1  0  0  0  0
 18 30  1  0  0  0  0
 20 21  1  0  0  0  0
 20 26  1  1  0  0  0
 22 23  1  1  0  0  0
 22 28  1  0  0  0  0
 24 25  1  0  0  0  0
 26 27  1  0  0  0  0
 28 29  1  6  0  0  0
M  END
>  <CHROM.1>
-173.92204210,-67.70253662,-151.32376099,175.70310477,14.92480003,142.78546430
2.60337280,17.65240306,36.55700523,1.97346257,-0.51306085,-0.08001675

>  <Name>
ligand

>  <RI>
0

>  <Rbt.Current_Directory>
/home/itssahil/PROJECTS/Mol_Feturizer/New_Systems/rnas/4GPY

>  <Rbt.Executable>
rbdock ($Id: //depot/dev/client3/rdock/2013.1/src/exe/rbdock.cxx#4 $)

>  <Rbt.Library>
libRbt.so (2013.1, Build901 2013/11/27)

>  <Rbt.Parameter_File>
/export/apps/rDock/src/rDock_2013.1_src/data/scripts/dock_solv.prm

>  <Rbt.Receptor>
prm/blind_docking_100.prm

>  <SCORE>
-3.52881

>  <SCORE.INTER>
-6.61345

>  <SCORE.INTER.CONST>
1

>  <SCORE.INTER.POLAR>
0

>  <SCORE.INTER.ROT>
6

>  <SCORE.INTER.SOLV>
20.9147

>  <SCORE.INTER.VDW>
-18.9805

>  <SCORE.INTER.norm>
-0.213337

>  <SCORE.INTRA>
0.570042

>  <SCORE.INTRA.DIHEDRAL>
-6.69447

>  <SCORE.INTRA.DIHEDRAL.0>
14.7001

>  <SCORE.INTRA.POLAR>
0

>  <SCORE.INTRA.POLAR.0>
0

>  <SCORE.INTRA.REPUL>
0

>  <SCORE.INTRA.REPUL.0>
0

>  <SCORE.INTRA.SOLV>
0.434841

>  <SCORE.INTRA.SOLV.lig_0>
-65.3082

>  <SCORE.INTRA.VDW>
3.69986

>  <SCORE.INTRA.VDW.0>
-4.21408

>  <SCORE.INTRA.norm>
0.0183885

>  <SCORE.RESTR>
2.5146

>  <SCORE.RESTR.CAVITY>
2.5146

>  <SCORE.RESTR.norm>
0.0811161

>  <SCORE.SYSTEM>
0

>  <SCORE.SYSTEM.CONST>
0

>  <SCORE.SYSTEM.DIHEDRAL>
0

>  <SCORE.SYSTEM.SOLV>
0

>  <SCORE.SYSTEM.norm>
0

>  <SCORE.heavy>
31

>  <SCORE.norm>
-0.113833

>  <RMSD>
7.058

$$$$
ligand
 OpenBabel11021811493D
libRbt.so/2013.1/901 2013/11/27
 31 33  0  0  0  0  0  0  0  0999 V2000
    5.2237   19.9902   36.9127 C   0  0  2  0  0  0  0  0  0  0  0  0
    5.0981   19.8015   35.5163 O   0  0  0  0  0  0  0  0  0  0  0  0
    0.9078   20.0537   34.8544 C   0  0  2  0  0  0  0  0  0  0  0  0
   -0.3682   19.8308   34.2637 N   0  0  0  0  0  0  0  0  0  0  0  0
   -0.0401   16.8568   36.2541 C   0  0  2  0  0  0  0  0  0  0  0  0
    4.7539   21.4699   37.2560 C   0  0  2  0  0  0  0  0  0  0  0  0
    3.3803   21.6539   36.8001 N   0  0  0  0  0  0  0  0  0  0  0  0
    1.8743   20.6566   33.7398 C   0  0  0  0  0  0  0  0  0  0  0  0
   -0.2492   16.3840   37.7320 C   0  0  2  0  0  0  0  0  0  0  0  0
   -0.9792   17.3741   38.4248 O   0  0  0  0  0  0  0  0  0  0  0  0
    5.7170   22.5231   36.5947 C   0  0  0  0  0  0  0  0  0  0  0  0
    3.2887   20.9196   34.4015 C   0  0  2  0  0  0  0  0  0  0  0  0
    4.1879   21.4824   33.3933 N   0  0  0  0  0  0  0  0  0  0  0  0
    1.1617   16.1655   38.3901 C   0  0  1  0  0  0  0  0  0  0  0  0
    0.9916   15.7266   39.8124 N   0  0  0  0  0  0  0  0  0  0  0  0
    7.2338   22.0664   36.6756 C   0  0  0  0  0  0  0  0  0  0  0  0
    3.8676   19.5472   34.9385 C   0  0  2  0  0  0  0  0  0  0  0  0
    1.9543   15.0112   37.5610 C   0  0  1  0  0  0  0  0  0  0  0  0
    1.2830   13.7667   37.5592 O   0  0  0  0  0  0  0  0  0  0  0  0
    7.5680   20.7998   37.0228 C   0  0  1  0  0  0  0  0  0  0  0  0
    6.6083   19.7954   37.3399 O   0  0  0  0  0  0  0  0  0  0  0  0
    2.8872   18.9437   36.0286 C   0  0  2  0  0  0  0  0  0  0  0  0
    3.4149   17.6873   36.5012 O   0  0  0  0  0  0  0  0  0  0  0  0
    2.1236   15.4703   36.0818 C   0  0  0  0  0  0  0  0  0  0  0  0
    0.7699   15.8235   35.4902 O   0  0  0  0  0  0  0  0  0  0  0  0
    8.9987   20.3237   37.1044 C   0  0  0  0  0  0  0  0  0  0  0  0
    9.1317   19.6333   38.3655 O   0  0  0  0  0  0  0  0  0  0  0  0
    1.4779   18.6897   35.3697 C   0  0  1  0  0  0  0  0  0  0  0  0
    0.6257   18.1612   36.3553 O   0  0  0  0  0  0  0  0  0  0  0  0
    3.3599   14.6974   38.0899 C   0  0  0  0  0  0  0  0  0  0  0  0
   -0.0747   16.4009   40.5817 C   0  0  0  0  0  0  0  0  0  0  0  0
  1  2  1  6  0  0  0
  1  6  1  0  0  0  0
  1 21  1  0  0  0  0
  3  4  1  6  0  0  0
  3  8  1  0  0  0  0
  3 28  1  0  0  0  0
  5  9  1  0  0  0  0
  5 25  1  0  0  0  0
  5 29  1  1  0  0  0
  6  7  1  6  0  0  0
  6 11  1  0  0  0  0
  8 12  1  0  0  0  0
  9 10  1  1  0  0  0
  9 14  1  0  0  0  0
 11 16  1  0  0  0  0
 12 13  1  6  0  0  0
 12 17  1  0  0  0  0
 14 15  1  1  0  0  0
 14 18  1  0  0  0  0
 15 31  1  0  0  0  0
 16 20  1  0  0  0  0
 17  2  1  1  0  0  0
 17 22  1  0  0  0  0
 18 19  1  1  0  0  0
 18 24  1  0  0  0  0
 18 30  1  0  0  0  0
 20 21  1  0  0  0  0
 20 26  1  6  0  0  0
 22 23  1  6  0  0  0
 22 28  1  0  0  0  0
 24 25  1  0  0  0  0
 26 27  1  0  0  0  0
 28 29  1  1  0  0  0
M  END
>  <CHROM.1>
-78.52300904,152.45294044,-40.53480583,96.54659442,131.98434553,120.62676432
3.11388976,18.59527751,36.65437552,-0.62015932,0.34418814,2.47761610

>  <Name>
ligand

>  <RI>
0

>  <Rbt.Current_Directory>
/home/itssahil/PROJECTS/Mol_Feturizer/New_Systems/rnas/4GPY

>  <Rbt.Executable>
rbdock ($Id: //depot/dev/client3/rdock/2013.1/src/exe/rbdock.cxx#4 $)

>  <Rbt.Library>
libRbt.so (2013.1, Build901 2013/11/27)

>  <Rbt.Parameter_File>
/export/apps/rDock/src/rDock_2013.1_src/data/scripts/dock_solv.prm

>  <Rbt.Receptor>
prm/blind_docking_60.prm

>  <SCORE>
34.1006

>  <SCORE.INTER>
1.76731

>  <SCORE.INTER.CONST>
1

>  <SCORE.INTER.POLAR>
0

>  <SCORE.INTER.ROT>
6

>  <SCORE.INTER.SOLV>
21.0828

>  <SCORE.INTER.VDW>
-13.4494

>  <SCORE.INTER.norm>
0.0570099

>  <SCORE.INTRA>
16.8842

>  <SCORE.INTRA.DIHEDRAL>
4.15332

>  <SCORE.INTRA.DIHEDRAL.0>
14.7001

>  <SCORE.INTRA.POLAR>
0

>  <SCORE.INTRA.POLAR.0>
0

>  <SCORE.INTRA.REPUL>
0

>  <SCORE.INTRA.REPUL.0>
0

>  <SCORE.INTRA.SOLV>
5.10208

>  <SCORE.INTRA.SOLV.lig_0>
-65.3082

>  <SCORE.INTRA.VDW>
12.2565

>  <SCORE.INTRA.VDW.0>
-4.21408

>  <SCORE.INTRA.norm>
0.544651

>  <SCORE.RESTR>
15.4492

>  <SCORE.RESTR.CAVITY>
15.4492

>  <SCORE.RESTR.norm>
0.49836

>  <SCORE.SYSTEM>
0

>  <SCORE.SYSTEM.CONST>
0

>  <SCORE.SYSTEM.DIHEDRAL>
0

>  <SCORE.SYSTEM.SOLV>
0

>  <SCORE.SYSTEM.norm>
0

>  <SCORE.heavy>
31

>  <SCORE.norm>
1.10002

>  <RMSD>
7.063

$$$$
ligand
 OpenBabel11021811493D
libRbt.so/2013.1/901 2013/11/27
 31 33  0  0  0  0  0  0  0  0999 V2000
    0.7732   20.0361   34.5768 C   0  0  2  0  0  0  0  0  0  0  0  0
    2.1822   20.0932   34.6892 O   0  0  0  0  0  0  0  0  0  0  0  0
    4.9341   17.4094   36.5016 C   0  0  2  0  0  0  0  0  0  0  0  0
    5.6518   16.7120   37.5142 N   0  0  0  0  0  0  0  0  0  0  0  0
    2.4418   14.8576   37.3835 C   0  0  2  0  0  0  0  0  0  0  0  0
    0.3188   21.1145   33.5005 C   0  0  2  0  0  0  0  0  0  0  0  0
    0.9811   20.8327   32.2314 N   0  0  0  0  0  0  0  0  0  0  0  0
    5.1742   18.9714   36.7066 C   0  0  0  0  0  0  0  0  0  0  0  0
    3.4697   14.4304   38.4844 C   0  0  2  0  0  0  0  0  0  0  0  0
    4.0270   15.5934   39.0589 O   0  0  0  0  0  0  0  0  0  0  0  0
    0.6484   22.5686   34.0017 C   0  0  0  0  0  0  0  0  0  0  0  0
    4.3890   19.7458   35.5702 C   0  0  2  0  0  0  0  0  0  0  0  0
    4.6057   21.1834   35.7378 N   0  0  0  0  0  0  0  0  0  0  0  0
    4.5843   13.5495   37.8112 C   0  0  1  0  0  0  0  0  0  0  0  0
    5.5920   13.1385   38.8409 N   0  0  0  0  0  0  0  0  0  0  0  0
    0.3636   22.7354   35.5532 C   0  0  0  0  0  0  0  0  0  0  0  0
    2.8461   19.4121   35.6933 C   0  0  2  0  0  0  0  0  0  0  0  0
    3.8910   12.2216   37.1757 C   0  0  1  0  0  0  0  0  0  0  0  0
    3.2336   11.4217   38.1386 O   0  0  0  0  0  0  0  0  0  0  0  0
    0.1398   21.6589   36.3455 C   0  0  1  0  0  0  0  0  0  0  0  0
    0.1384   20.3182   35.8633 O   0  0  0  0  0  0  0  0  0  0  0  0
    2.6205   17.8533   35.5121 C   0  0  2  0  0  0  0  0  0  0  0  0
    1.2147   17.5569   35.6403 O   0  0  0  0  0  0  0  0  0  0  0  0
    2.8404   12.6548   36.1097 C   0  0  0  0  0  0  0  0  0  0  0  0
    1.8466   13.6247   36.7252 O   0  0  0  0  0  0  0  0  0  0  0  0
   -0.1278   21.7745   37.8272 C   0  0  0  0  0  0  0  0  0  0  0  0
   -0.8690   22.9989   38.0176 O   0  0  0  0  0  0  0  0  0  0  0  0
    3.4089   17.0842   36.6399 C   0  0  1  0  0  0  0  0  0  0  0  0
    3.1987   15.7063   36.4552 O   0  0  0  0  0  0  0  0  0  0  0  0
    4.8656   11.2674   36.4732 C   0  0  0  0  0  0  0  0  0  0  0  0
    5.0537   12.5413   40.0807 C   0  0  0  0  0  0  0  0  0  0  0  0
  1  2  1  1  0  0  0
  1  6  1  0  0  0  0
  1 21  1  0  0  0  0
  3  4  1  1  0  0  0
  3  8  1  0  0  0  0
  3 28  1  0  0  0  0
  5  9  1  0  0  0  0
  5 25  1  0  0  0  0
  5 29  1  6  0  0  0
  6  7  1  6  0  0  0
  6 11  1  0  0  0  0
  8 12  1  0  0  0  0
  9 10  1  6  0  0  0
  9 14  1  0  0  0  0
 11 16  1  0  0  0  0
 12 13  1  1  0  0  0
 12 17  1  0  0  0  0
 14 15  1  1  0  0  0
 14 18  1  0  0  0  0
 15 31  1  0  0  0  0
 16 20  1  0  0  0  0
 17  2  1  6  0  0  0
 17 22  1  0  0  0  0
 18 19  1  1  0  0  0
 18 24  1  0  0  0  0
 18 30  1  0  0  0  0
 20 21  1  0  0  0  0
 20 26  1  1  0  0  0
 22 23  1  1  0  0  0
 22 28  1  0  0  0  0
 24 25  1  0  0  0  0
 26 27  1  0  0  0  0
 28 29  1  6  0  0  0
M  END
>  <CHROM.1>
170.16890177,-84.90147702,50.26705884,-177.32535743,34.17630512,128.86019900
2.69791177,17.42996996,36.50430089,1.98770608,-0.52289842,-0.06825706

>  <Name>
ligand

>  <RI>
0

>  <Rbt.Current_Directory>
/home/itssahil/PROJECTS/Mol_Feturizer/New_Systems/rnas/4GPY

>  <Rbt.Executable>
rbdock ($Id: //depot/dev/client3/rdock/2013.1/src/exe/rbdock.cxx#4 $)

>  <Rbt.Library>
libRbt.so (2013.1, Build901 2013/11/27)

>  <Rbt.Parameter_File>
/export/apps/rDock/src/rDock_2013.1_src/data/scripts/dock_solv.prm

>  <Rbt.Receptor>
prm/blind_docking_100.prm

>  <SCORE>
-1.55009

>  <SCORE.INTER>
-7.96619

>  <SCORE.INTER.CONST>
1

>  <SCORE.INTER.POLAR>
0

>  <SCORE.INTER.ROT>
6

>  <SCORE.INTER.SOLV>
21.0912

>  <SCORE.INTER.VDW>
-19.9412

>  <SCORE.INTER.norm>
-0.256974

>  <SCORE.INTRA>
3.89957

>  <SCORE.INTRA.DIHEDRAL>
-1.80699

>  <SCORE.INTRA.DIHEDRAL.0>
14.7001

>  <SCORE.INTRA.POLAR>
0

>  <SCORE.INTRA.POLAR.0>
0

>  <SCORE.INTRA.REPUL>
0

>  <SCORE.INTRA.REPUL.0>
0

>  <SCORE.INTRA.SOLV>
0.874765

>  <SCORE.INTRA.SOLV.lig_0>
-65.3082

>  <SCORE.INTRA.VDW>
4.36568

>  <SCORE.INTRA.VDW.0>
-4.21408

>  <SCORE.INTRA.norm>
0.125793

>  <SCORE.RESTR>
2.51653

>  <SCORE.RESTR.CAVITY>
2.51653

>  <SCORE.RESTR.norm>
0.0811782

>  <SCORE.SYSTEM>
0

>  <SCORE.SYSTEM.CONST>
0

>  <SCORE.SYSTEM.DIHEDRAL>
0

>  <SCORE.SYSTEM.SOLV>
0

>  <SCORE.SYSTEM.norm>
0

>  <SCORE.heavy>
31

>  <SCORE.norm>
-0.050003

>  <RMSD>
7.075

$$$$
ligand
 OpenBabel11021811493D
libRbt.so/2013.1/901 2013/11/27
 31 33  0  0  0  0  0  0  0  0999 V2000
    0.7823   19.9445   34.4161 C   0  0  2  0  0  0  0  0  0  0  0  0
    2.1952   19.8978   34.4686 O   0  0  0  0  0  0  0  0  0  0  0  0
    4.9302   17.2445   36.3500 C   0  0  2  0  0  0  0  0  0  0  0  0
    5.6385   16.5639   37.3806 N   0  0  0  0  0  0  0  0  0  0  0  0
    2.4724   14.6975   37.2752 C   0  0  2  0  0  0  0  0  0  0  0  0
    0.3622   21.1479   33.4656 C   0  0  2  0  0  0  0  0  0  0  0  0
    0.9527   20.9448   32.1470 N   0  0  0  0  0  0  0  0  0  0  0  0
    5.1683   18.8097   36.5318 C   0  0  0  0  0  0  0  0  0  0  0  0
    3.4804   14.4479   38.4469 C   0  0  2  0  0  0  0  0  0  0  0  0
    3.9059   15.6960   38.9514 O   0  0  0  0  0  0  0  0  0  0  0  0
    0.8120   22.5229   34.0829 C   0  0  0  0  0  0  0  0  0  0  0  0
    4.3938   19.5653   35.3757 C   0  0  2  0  0  0  0  0  0  0  0  0
    4.6087   21.0055   35.5218 N   0  0  0  0  0  0  0  0  0  0  0  0
    4.6984   13.6245   37.8902 C   0  0  1  0  0  0  0  0  0  0  0  0
    5.6881   13.3838   38.9889 N   0  0  0  0  0  0  0  0  0  0  0  0
    0.6010   22.5600   35.6545 C   0  0  0  0  0  0  0  0  0  0  0  0
    2.8498   19.2334   35.4898 C   0  0  2  0  0  0  0  0  0  0  0  0
    4.1547   12.1958   37.3322 C   0  0  1  0  0  0  0  0  0  0  0  0
    3.5248   11.4129   38.3270 O   0  0  0  0  0  0  0  0  0  0  0  0
    0.3340   21.4303   36.3538 C   0  0  1  0  0  0  0  0  0  0  0  0
    0.2201   20.1443   35.7509 O   0  0  0  0  0  0  0  0  0  0  0  0
    2.6259   17.6717   35.3319 C   0  0  2  0  0  0  0  0  0  0  0  0
    1.2190   17.3772   35.4518 O   0  0  0  0  0  0  0  0  0  0  0  0
    3.1221   12.4519   36.1939 C   0  0  0  0  0  0  0  0  0  0  0  0
    2.0192   13.3704   36.6912 O   0  0  0  0  0  0  0  0  0  0  0  0
    0.1339   21.4220   37.8506 C   0  0  0  0  0  0  0  0  0  0  0  0
   -0.9408   22.3457   38.1275 O   0  0  0  0  0  0  0  0  0  0  0  0
    3.4038   16.9213   36.4794 C   0  0  1  0  0  0  0  0  0  0  0  0
    3.1955   15.5405   36.3152 O   0  0  0  0  0  0  0  0  0  0  0  0
    5.2413   11.2848   36.7463 C   0  0  0  0  0  0  0  0  0  0  0  0
    5.1972   12.6220   40.1559 C   0  0  0  0  0  0  0  0  0  0  0  0
  1  2  1  1  0  0  0
  1  6  1  0  0  0  0
  1 21  1  0  0  0  0
  3  4  1  1  0  0  0
  3  8  1  0  0  0  0
  3 28  1  0  0  0  0
  5  9  1  0  0  0  0
  5 25  1  0  0  0  0
  5 29  1  6  0  0  0
  6  7  1  6  0  0  0
  6 11  1  0  0  0  0
  8 12  1  0  0  0  0
  9 10  1  6  0  0  0
  9 14  1  0  0  0  0
 11 16  1  0  0  0  0
 12 13  1  1  0  0  0
 12 17  1  0  0  0  0
 14 15  1  1  0  0  0
 14 18  1  0  0  0  0
 15 31  1  0  0  0  0
 16 20  1  0  0  0  0
 17  2  1  6  0  0  0
 17 22  1  0  0  0  0
 18 19  1  1  0  0  0
 18 24  1  0  0  0  0
 18 30  1  0  0  0  0
 20 21  1  0  0  0  0
 20 26  1  1  0  0  0
 22 23  1  1  0  0  0
 22 28  1  0  0  0  0
 24 25  1  0  0  0  0
 26 27  1  0  0  0  0
 28 29  1  6  0  0  0
M  END
>  <CHROM.1>
160.96179841,-77.41094224,60.50262561,-171.26087001,56.68467951,126.49355647
2.78007498,17.31179568,36.46277852,1.94031322,0.07223811,-0.33969074

>  <Name>
ligand

>  <RI>
0

>  <Rbt.Current_Directory>
/home/itssahil/PROJECTS/Mol_Feturizer/New_Systems/rnas/4GPY

>  <Rbt.Executable>
rbdock ($Id: //depot/dev/client3/rdock/2013.1/src/exe/rbdock.cxx#4 $)

>  <Rbt.Library>
libRbt.so (2013.1, Build901 2013/11/27)

>  <Rbt.Parameter_File>
/export/apps/rDock/src/rDock_2013.1_src/data/scripts/dock_solv.prm

>  <Rbt.Receptor>
prm/blind_docking_100.prm

>  <SCORE>
-3.40813

>  <SCORE.INTER>
-10.9611

>  <SCORE.INTER.CONST>
1

>  <SCORE.INTER.POLAR>
0

>  <SCORE.INTER.ROT>
6

>  <SCORE.INTER.SOLV>
21.6876

>  <SCORE.INTER.VDW>
-22.1366

>  <SCORE.INTER.norm>
-0.353585

>  <SCORE.INTRA>
4.6384

>  <SCORE.INTRA.DIHEDRAL>
-0.714138

>  <SCORE.INTRA.DIHEDRAL.0>
14.7001

>  <SCORE.INTRA.POLAR>
0

>  <SCORE.INTRA.POLAR.0>
0

>  <SCORE.INTRA.REPUL>
0

>  <SCORE.INTRA.REPUL.0>
0

>  <SCORE.INTRA.SOLV>
1.67619

>  <SCORE.INTRA.SOLV.lig_0>
-65.3082

>  <SCORE.INTRA.VDW>
4.15737

>  <SCORE.INTRA.VDW.0>
-4.21408

>  <SCORE.INTRA.norm>
0.149626

>  <SCORE.RESTR>
2.91462

>  <SCORE.RESTR.CAVITY>
2.91462

>  <SCORE.RESTR.norm>
0.09402

>  <SCORE.SYSTEM>
0

>  <SCORE.SYSTEM.CONST>
0

>  <SCORE.SYSTEM.DIHEDRAL>
0

>  <SCORE.SYSTEM.SOLV>
0

>  <SCORE.SYSTEM.norm>
0

>  <SCORE.heavy>
31

>  <SCORE.norm>
-0.10994

>  <RMSD>
7.084

$$$$
ligand
 OpenBabel11021811493D
libRbt.so/2013.1/901 2013/11/27
 31 33  0  0  0  0  0  0  0  0999 V2000
    5.7227   20.2576   36.2197 C   0  0  2  0  0  0  0  0  0  0  0  0
    4.4056   19.9827   35.7828 O   0  0  0  0  0  0  0  0  0  0  0  0
    2.0468   16.4596   36.0716 C   0  0  2  0  0  0  0  0  0  0  0  0
    1.5819   15.1376   35.8205 N   0  0  0  0  0  0  0  0  0  0  0  0
    3.3169   14.2336   37.9284 C   0  0  2  0  0  0  0  0  0  0  0  0
    5.7641   21.7543   36.7548 C   0  0  2  0  0  0  0  0  0  0  0  0
    4.7882   21.9059   37.8287 N   0  0  0  0  0  0  0  0  0  0  0  0
    2.0074   17.2704   34.7002 C   0  0  0  0  0  0  0  0  0  0  0  0
    2.9227   13.9922   39.4243 C   0  0  2  0  0  0  0  0  0  0  0  0
    1.8078   14.8009   39.7346 O   0  0  0  0  0  0  0  0  0  0  0  0
    5.4823   22.7674   35.5851 C   0  0  0  0  0  0  0  0  0  0  0  0
    2.5091   18.7455   34.9833 C   0  0  2  0  0  0  0  0  0  0  0  0
    2.4711   19.5083   33.7349 N   0  0  0  0  0  0  0  0  0  0  0  0
    4.1527   14.3630   40.3303 C   0  0  1  0  0  0  0  0  0  0  0  0
    3.7978   14.1557   41.7710 N   0  0  0  0  0  0  0  0  0  0  0  0
    6.1879   22.3210   34.2365 C   0  0  0  0  0  0  0  0  0  0  0  0
    3.9911   18.6863   35.5375 C   0  0  2  0  0  0  0  0  0  0  0  0
    5.4028   13.3975   39.9389 C   0  0  1  0  0  0  0  0  0  0  0  0
    5.1264   12.0240   40.1298 O   0  0  0  0  0  0  0  0  0  0  0  0
    6.7121   21.0792   34.0962 C   0  0  1  0  0  0  0  0  0  0  0  0
    6.6773   20.0936   35.1245 O   0  0  0  0  0  0  0  0  0  0  0  0
    4.0236   17.8573   36.8886 C   0  0  2  0  0  0  0  0  0  0  0  0
    5.3790   17.7963   37.3781 O   0  0  0  0  0  0  0  0  0  0  0  0
    5.7640   13.6132   38.4387 C   0  0  0  0  0  0  0  0  0  0  0  0
    4.5346   13.3979   37.5731 O   0  0  0  0  0  0  0  0  0  0  0  0
    7.3850   20.6132   32.8272 C   0  0  0  0  0  0  0  0  0  0  0  0
    6.4838   19.6725   32.2047 O   0  0  0  0  0  0  0  0  0  0  0  0
    3.5169   16.3916   36.6059 C   0  0  1  0  0  0  0  0  0  0  0  0
    3.5490   15.6789   37.8175 O   0  0  0  0  0  0  0  0  0  0  0  0
    6.6836   13.6549   40.7433 C   0  0  0  0  0  0  0  0  0  0  0  0
    3.2447   15.3263   42.4832 C   0  0  0  0  0  0  0  0  0  0  0  0
  1  2  1  6  0  0  0
  1  6  1  0  0  0  0
  1 21  1  0  0  0  0
  3  4  1  6  0  0  0
  3  8  1  0  0  0  0
  3 28  1  0  0  0  0
  5  9  1  0  0  0  0
  5 25  1  0  0  0  0
  5 29  1  1  0  0  0
  6  7  1  1  0  0  0
  6 11  1  0  0  0  0
  8 12  1  0  0  0  0
  9 10  1  1  0  0  0
  9 14  1  0  0  0  0
 11 16  1  0  0  0  0
 12 13  1  6  0  0  0
 12 17  1  0  0  0  0
 14 15  1  1  0  0  0
 14 18  1  0  0  0  0
 15 31  1  0  0  0  0
 16 20  1  0  0  0  0
 17  2  1  1  0  0  0
 17 22  1  0  0  0  0
 18 19  1  1  0  0  0
 18 24  1  0  0  0  0
 18 30  1  0  0  0  0
 20 21  1  0  0  0  0
 20 26  1  6  0  0  0
 22 23  1  6  0  0  0
 22 28  1  0  0  0  0
 24 25  1  0  0  0  0
 26 27  1  0  0  0  0
 28 29  1  1  0  0  0
M  END
>  <CHROM.1>
-165.83942152,-159.42264505,-91.55711405,-176.54695926,-107.75346247,69.80061211
4.45231726,17.29500893,37.06549852,-1.34728368,0.72455173,2.34391935

>  <Name>
ligand

>  <RI>
0

>  <Rbt.Current_Directory>
/home/itssahil/PROJECTS/Mol_Feturizer/New_Systems/rnas/4GPY

>  <Rbt.Executable>
rbdock ($Id: //depot/dev/client3/rdock/2013.1/src/exe/rbdock.cxx#4 $)

>  <Rbt.Library>
libRbt.so (2013.1, Build901 2013/11/27)

>  <Rbt.Parameter_File>
/export/apps/rDock/src/rDock_2013.1_src/data/scripts/dock_solv.prm

>  <Rbt.Receptor>
prm/pocket_docking_8.prm

>  <SCORE>
-14.9957

>  <SCORE.INTER>
-11.4892

>  <SCORE.INTER.CONST>
1

>  <SCORE.INTER.POLAR>
0

>  <SCORE.INTER.ROT>
6

>  <SCORE.INTER.SOLV>
23.4358

>  <SCORE.INTER.VDW>
-23.0714

>  <SCORE.INTER.norm>
-0.37062

>  <SCORE.INTRA>
-3.50651

>  <SCORE.INTRA.DIHEDRAL>
-8.80875

>  <SCORE.INTRA.DIHEDRAL.0>
14.7001

>  <SCORE.INTRA.POLAR>
0

>  <SCORE.INTRA.POLAR.0>
0

>  <SCORE.INTRA.REPUL>
0

>  <SCORE.INTRA.REPUL.0>
0

>  <SCORE.INTRA.SOLV>
-1.11179

>  <SCORE.INTRA.SOLV.lig_0>
-65.3082

>  <SCORE.INTRA.VDW>
1.45376

>  <SCORE.INTRA.VDW.0>
-4.21408

>  <SCORE.INTRA.norm>
-0.113113

>  <SCORE.RESTR>
0

>  <SCORE.RESTR.CAVITY>
0

>  <SCORE.RESTR.norm>
0

>  <SCORE.SYSTEM>
0

>  <SCORE.SYSTEM.CONST>
0

>  <SCORE.SYSTEM.DIHEDRAL>
0

>  <SCORE.SYSTEM.SOLV>
0

>  <SCORE.SYSTEM.norm>
0

>  <SCORE.heavy>
31

>  <SCORE.norm>
-0.483733

>  <RMSD>
7.091

$$$$
ligand
 OpenBabel11021811493D
libRbt.so/2013.1/901 2013/11/27
 31 33  0  0  0  0  0  0  0  0999 V2000
    3.7485   15.6622   39.9705 C   0  0  2  0  0  0  0  0  0  0  0  0
    2.6438   14.8277   39.6799 O   0  0  0  0  0  0  0  0  0  0  0  0
   -0.4733   13.2981   42.1303 C   0  0  2  0  0  0  0  0  0  0  0  0
   -1.1332   12.5237   43.1260 N   0  0  0  0  0  0  0  0  0  0  0  0
    0.7274   15.9324   44.6631 C   0  0  2  0  0  0  0  0  0  0  0  0
    4.3059   16.2407   38.5984 C   0  0  2  0  0  0  0  0  0  0  0  0
    3.2386   16.9634   37.9149 N   0  0  0  0  0  0  0  0  0  0  0  0
    0.2223   12.2990   41.1019 C   0  0  0  0  0  0  0  0  0  0  0  0
   -0.2789   16.2176   45.8281 C   0  0  2  0  0  0  0  0  0  0  0  0
   -0.7188   14.9851   46.3580 O   0  0  0  0  0  0  0  0  0  0  0  0
    4.8720   15.0811   37.6990 C   0  0  0  0  0  0  0  0  0  0  0  0
    0.9425   13.1607   39.9854 C   0  0  2  0  0  0  0  0  0  0  0  0
    1.5802   12.2582   39.0260 N   0  0  0  0  0  0  0  0  0  0  0  0
   -1.4872   17.0427   45.2528 C   0  0  1  0  0  0  0  0  0  0  0  0
   -2.4752   17.3171   46.3450 N   0  0  0  0  0  0  0  0  0  0  0  0
    5.6586   14.0021   38.5552 C   0  0  0  0  0  0  0  0  0  0  0  0
    2.0330   14.0813   40.6711 C   0  0  2  0  0  0  0  0  0  0  0  0
   -0.9271   18.4532   44.6657 C   0  0  1  0  0  0  0  0  0  0  0  0
   -0.2895   19.2498   45.6447 O   0  0  0  0  0  0  0  0  0  0  0  0
    5.5768   13.9840   39.9078 C   0  0  1  0  0  0  0  0  0  0  0  0
    4.7984   14.9121   40.6580 O   0  0  0  0  0  0  0  0  0  0  0  0
    1.3343   15.0545   41.7097 C   0  0  2  0  0  0  0  0  0  0  0  0
    2.3364   15.8786   42.3396 O   0  0  0  0  0  0  0  0  0  0  0  0
    0.1038   18.1619   43.5343 C   0  0  0  0  0  0  0  0  0  0  0  0
    1.1959   17.2419   44.0521 O   0  0  0  0  0  0  0  0  0  0  0  0
    6.3037   12.9699   40.7584 C   0  0  0  0  0  0  0  0  0  0  0  0
    5.2889   12.1802   41.4152 O   0  0  0  0  0  0  0  0  0  0  0  0
    0.6120   14.1945   42.8158 C   0  0  1  0  0  0  0  0  0  0  0  0
   -0.0041   15.0776   43.7201 O   0  0  0  0  0  0  0  0  0  0  0  0
   -2.0029   19.3638   44.0596 C   0  0  0  0  0  0  0  0  0  0  0  0
   -3.6363   16.4063   46.4205 C   0  0  0  0  0  0  0  0  0  0  0  0
  1  2  1  6  0  0  0
  1  6  1  0  0  0  0
  1 21  1  0  0  0  0
  3  4  1  1  0  0  0
  3  8  1  0  0  0  0
  3 28  1  0  0  0  0
  5  9  1  0  0  0  0
  5 25  1  0  0  0  0
  5 29  1  6  0  0  0
  6  7  1  6  0  0  0
  6 11  1  0  0  0  0
  8 12  1  0  0  0  0
  9 10  1  6  0  0  0
  9 14  1  0  0  0  0
 11 16  1  0  0  0  0
 12 13  1  6  0  0  0
 12 17  1  0  0  0  0
 14 15  1  1  0  0  0
 14 18  1  0  0  0  0
 15 31  1  0  0  0  0
 16 20  1  0  0  0  0
 17  2  1  6  0  0  0
 17 22  1  0  0  0  0
 18 19  1  1  0  0  0
 18 24  1  0  0  0  0
 18 30  1  0  0  0  0
 20 21  1  0  0  0  0
 20 26  1  6  0  0  0
 22 23  1  1  0  0  0
 22 28  1  0  0  0  0
 24 25  1  0  0  0  0
 26 27  1  0  0  0  0
 28 29  1  1  0  0  0
M  END
>  <CHROM.1>
173.70245349,-155.46668209,-97.68090004,-174.34701753,-115.68312151,171.44589919
1.42816958,15.33714904,42.25000155,-0.48228916,0.73478758,0.20207854

>  <Name>
ligand

>  <RI>
0

>  <Rbt.Current_Directory>
/home/itssahil/PROJECTS/Mol_Feturizer/New_Systems/rnas/4GPY

>  <Rbt.Executable>
rbdock ($Id: //depot/dev/client3/rdock/2013.1/src/exe/rbdock.cxx#4 $)

>  <Rbt.Library>
libRbt.so (2013.1, Build901 2013/11/27)

>  <Rbt.Parameter_File>
/export/apps/rDock/src/rDock_2013.1_src/data/scripts/dock_solv.prm

>  <Rbt.Receptor>
prm/pocket_docking_8.prm

>  <SCORE>
-5.5449

>  <SCORE.INTER>
-1.76628

>  <SCORE.INTER.CONST>
1

>  <SCORE.INTER.POLAR>
0

>  <SCORE.INTER.ROT>
6

>  <SCORE.INTER.SOLV>
8.47457

>  <SCORE.INTER.VDW>
-11.6024

>  <SCORE.INTER.norm>
-0.0569768

>  <SCORE.INTRA>
-3.77862

>  <SCORE.INTRA.DIHEDRAL>
-8.8625

>  <SCORE.INTRA.DIHEDRAL.0>
14.7001

>  <SCORE.INTRA.POLAR>
0

>  <SCORE.INTRA.POLAR.0>
0

>  <SCORE.INTRA.REPUL>
0

>  <SCORE.INTRA.REPUL.0>
0

>  <SCORE.INTRA.SOLV>
-2.08834

>  <SCORE.INTRA.SOLV.lig_0>
-65.3082

>  <SCORE.INTRA.VDW>
1.6968

>  <SCORE.INTRA.VDW.0>
-4.21408

>  <SCORE.INTRA.norm>
-0.121891

>  <SCORE.RESTR>
0

>  <SCORE.RESTR.CAVITY>
0

>  <SCORE.RESTR.norm>
0

>  <SCORE.SYSTEM>
0

>  <SCORE.SYSTEM.CONST>
0

>  <SCORE.SYSTEM.DIHEDRAL>
0

>  <SCORE.SYSTEM.SOLV>
0

>  <SCORE.SYSTEM.norm>
0

>  <SCORE.heavy>
31

>  <SCORE.norm>
-0.178868

>  <RMSD>
7.093

$$$$
ligand
 OpenBabel11021811493D
libRbt.so/2013.1/901 2013/11/27
 31 33  0  0  0  0  0  0  0  0999 V2000
   -0.3275    9.4101   35.5513 C   0  0  2  0  0  0  0  0  0  0  0  0
   -0.3355   10.6965   34.9627 O   0  0  0  0  0  0  0  0  0  0  0  0
    2.2607   12.7302   37.6430 C   0  0  2  0  0  0  0  0  0  0  0  0
    3.0611   13.7670   38.2009 N   0  0  0  0  0  0  0  0  0  0  0  0
    0.8390   14.5385   39.7334 C   0  0  2  0  0  0  0  0  0  0  0  0
   -1.0414    8.4032   34.5490 C   0  0  2  0  0  0  0  0  0  0  0  0
   -0.3408    8.4242   33.2695 N   0  0  0  0  0  0  0  0  0  0  0  0
    2.8024   12.4165   36.1774 C   0  0  0  0  0  0  0  0  0  0  0  0
   -0.0485   14.5024   41.0227 C   0  0  2  0  0  0  0  0  0  0  0  0
   -0.0094   13.1986   41.5626 O   0  0  0  0  0  0  0  0  0  0  0  0
   -2.5577    8.7821   34.3717 C   0  0  0  0  0  0  0  0  0  0  0  0
    1.9222   11.2519   35.5637 C   0  0  2  0  0  0  0  0  0  0  0  0
    2.4117   10.9441   34.2193 N   0  0  0  0  0  0  0  0  0  0  0  0
   -1.5173   14.9011   40.6285 C   0  0  1  0  0  0  0  0  0  0  0  0
   -2.3936   14.8600   41.8429 N   0  0  0  0  0  0  0  0  0  0  0  0
   -3.2155    9.2359   35.7418 C   0  0  0  0  0  0  0  0  0  0  0  0
    0.4142   11.7296   35.4953 C   0  0  2  0  0  0  0  0  0  0  0  0
   -1.5063   16.4114   40.0226 C   0  0  1  0  0  0  0  0  0  0  0  0
   -1.0303   17.3760   40.9405 O   0  0  0  0  0  0  0  0  0  0  0  0
   -2.4541    9.5138   36.8279 C   0  0  1  0  0  0  0  0  0  0  0  0
   -1.0323    9.4215   36.8322 O   0  0  0  0  0  0  0  0  0  0  0  0
   -0.1077   12.0622   36.9550 C   0  0  2  0  0  0  0  0  0  0  0  0
   -1.4767   12.5101   36.8814 O   0  0  0  0  0  0  0  0  0  0  0  0
   -0.5895   16.4497   38.7635 C   0  0  0  0  0  0  0  0  0  0  0  0
    0.7923   15.9238   39.1119 O   0  0  0  0  0  0  0  0  0  0  0  0
   -3.0406    9.9555   38.1475 C   0  0  0  0  0  0  0  0  0  0  0  0
   -2.8428    8.8642   39.0720 O   0  0  0  0  0  0  0  0  0  0  0  0
    0.7745   13.2166   37.5667 C   0  0  1  0  0  0  0  0  0  0  0  0
    0.2975   13.4894   38.8609 O   0  0  0  0  0  0  0  0  0  0  0  0
   -2.8811   16.9326   39.5843 C   0  0  0  0  0  0  0  0  0  0  0  0
   -3.4122   13.7902   41.8783 C   0  0  0  0  0  0  0  0  0  0  0  0
  1  2  1  6  0  0  0
  1  6  1  0  0  0  0
  1 21  1  0  0  0  0
  3  4  1  6  0  0  0
  3  8  1  0  0  0  0
  3 28  1  0  0  0  0
  5  9  1  0  0  0  0
  5 25  1  0  0  0  0
  5 29  1  6  0  0  0
  6  7  1  6  0  0  0
  6 11  1  0  0  0  0
  8 12  1  0  0  0  0
  9 10  1  6  0  0  0
  9 14  1  0  0  0  0
 11 16  1  0  0  0  0
 12 13  1  6  0  0  0
 12 17  1  0  0  0  0
 14 15  1  1  0  0  0
 14 18  1  0  0  0  0
 15 31  1  0  0  0  0
 16 20  1  0  0  0  0
 17  2  1  1  0  0  0
 17 22  1  0  0  0  0
 18 19  1  1  0  0  0
 18 24  1  0  0  0  0
 18 30  1  0  0  0  0
 20 21  1  0  0  0  0
 20 26  1  6  0  0  0
 22 23  1  6  0  0  0
 22 28  1  0  0  0  0
 24 25  1  0  0  0  0
 26 27  1  0  0  0  0
 28 29  1  1  0  0  0
M  END
>  <CHROM.1>
-168.81024014,177.38586008,-111.21621480,55.95813514,110.37799893,63.62354187
-0.56398857,12.45677306,37.84510600,1.53741402,-0.50276949,-2.44103492

>  <Name>
ligand

>  <RI>
0

>  <Rbt.Current_Directory>
/home/itssahil/PROJECTS/Mol_Feturizer/New_Systems/rnas/4GPY

>  <Rbt.Executable>
rbdock ($Id: //depot/dev/client3/rdock/2013.1/src/exe/rbdock.cxx#4 $)

>  <Rbt.Library>
libRbt.so (2013.1, Build901 2013/11/27)

>  <Rbt.Parameter_File>
/export/apps/rDock/src/rDock_2013.1_src/data/scripts/dock_solv.prm

>  <Rbt.Receptor>
prm/pocket_docking_8.prm

>  <SCORE>
-9.07362

>  <SCORE.INTER>
-5.0402

>  <SCORE.INTER.CONST>
1

>  <SCORE.INTER.POLAR>
0

>  <SCORE.INTER.ROT>
6

>  <SCORE.INTER.SOLV>
7.70509

>  <SCORE.INTER.VDW>
-13.5285

>  <SCORE.INTER.norm>
-0.162587

>  <SCORE.INTRA>
-4.03342

>  <SCORE.INTRA.DIHEDRAL>
-10.9753

>  <SCORE.INTRA.DIHEDRAL.0>
14.7001

>  <SCORE.INTRA.POLAR>
0

>  <SCORE.INTRA.POLAR.0>
0

>  <SCORE.INTRA.REPUL>
0

>  <SCORE.INTRA.REPUL.0>
0

>  <SCORE.INTRA.SOLV>
0.508826

>  <SCORE.INTRA.SOLV.lig_0>
-65.3082

>  <SCORE.INTRA.VDW>
1.19983

>  <SCORE.INTRA.VDW.0>
-4.21408

>  <SCORE.INTRA.norm>
-0.13011

>  <SCORE.RESTR>
0

>  <SCORE.RESTR.CAVITY>
0

>  <SCORE.RESTR.norm>
0

>  <SCORE.SYSTEM>
0

>  <SCORE.SYSTEM.CONST>
0

>  <SCORE.SYSTEM.DIHEDRAL>
0

>  <SCORE.SYSTEM.SOLV>
0

>  <SCORE.SYSTEM.norm>
0

>  <SCORE.heavy>
31

>  <SCORE.norm>
-0.292698

>  <RMSD>
7.100

$$$$
ligand
 OpenBabel11021811493D
libRbt.so/2013.1/901 2013/11/27
 31 33  0  0  0  0  0  0  0  0999 V2000
    0.8548   20.2887   34.7665 C   0  0  2  0  0  0  0  0  0  0  0  0
    2.2381   20.4424   35.0199 O   0  0  0  0  0  0  0  0  0  0  0  0
    4.9756   17.5522   36.5073 C   0  0  2  0  0  0  0  0  0  0  0  0
    5.6808   16.7296   37.4308 N   0  0  0  0  0  0  0  0  0  0  0  0
    2.2017   15.0038   36.7675 C   0  0  2  0  0  0  0  0  0  0  0  0
    0.4692   21.2263   33.5416 C   0  0  2  0  0  0  0  0  0  0  0  0
    1.2813   20.8619   32.3857 N   0  0  0  0  0  0  0  0  0  0  0  0
    5.2034   19.0742   36.9211 C   0  0  0  0  0  0  0  0  0  0  0  0
    2.6494   14.7114   38.2390 C   0  0  2  0  0  0  0  0  0  0  0  0
    2.8336   15.9406   38.9086 O   0  0  0  0  0  0  0  0  0  0  0  0
    0.6681   22.7400   33.9201 C   0  0  0  0  0  0  0  0  0  0  0  0
    4.4324   19.9894   35.8840 C   0  0  2  0  0  0  0  0  0  0  0  0
    4.6380   21.3930   36.2438 N   0  0  0  0  0  0  0  0  0  0  0  0
    3.9889   13.8895   38.1988 C   0  0  1  0  0  0  0  0  0  0  0  0
    4.4494   13.6083   39.5965 N   0  0  0  0  0  0  0  0  0  0  0  0
    0.2052   23.0410   35.4071 C   0  0  0  0  0  0  0  0  0  0  0  0
    2.8896   19.6369   35.9360 C   0  0  2  0  0  0  0  0  0  0  0  0
    3.7184   12.4826   37.4272 C   0  0  1  0  0  0  0  0  0  0  0  0
    2.7402   11.6804   38.0588 O   0  0  0  0  0  0  0  0  0  0  0  0
   -0.0510   22.0361   36.2795 C   0  0  1  0  0  0  0  0  0  0  0  0
    0.0681   20.6568   35.9426 O   0  0  0  0  0  0  0  0  0  0  0  0
    2.6758   18.1149   35.5466 C   0  0  2  0  0  0  0  0  0  0  0  0
    1.2699   17.7993   35.6109 O   0  0  0  0  0  0  0  0  0  0  0  0
    3.2347   12.7809   35.9764 C   0  0  0  0  0  0  0  0  0  0  0  0
    2.0244   13.6981   36.0116 O   0  0  0  0  0  0  0  0  0  0  0  0
   -0.4865   22.2804   37.7046 C   0  0  0  0  0  0  0  0  0  0  0  0
   -0.6954   23.7033   37.8333 O   0  0  0  0  0  0  0  0  0  0  0  0
    3.4502   17.2062   36.5759 C   0  0  1  0  0  0  0  0  0  0  0  0
    3.2510   15.8641   36.2071 O   0  0  0  0  0  0  0  0  0  0  0  0
    4.9496   11.5754   37.3047 C   0  0  0  0  0  0  0  0  0  0  0  0
    5.9088   13.6486   39.8247 C   0  0  0  0  0  0  0  0  0  0  0  0
  1  2  1  1  0  0  0
  1  6  1  0  0  0  0
  1 21  1  0  0  0  0
  3  4  1  1  0  0  0
  3  8  1  0  0  0  0
  3 28  1  0  0  0  0
  5  9  1  0  0  0  0
  5 25  1  0  0  0  0
  5 29  1  6  0  0  0
  6  7  1  6  0  0  0
  6 11  1  0  0  0  0
  8 12  1  0  0  0  0
  9 10  1  1  0  0  0
  9 14  1  0  0  0  0
 11 16  1  0  0  0  0
 12 13  1  1  0  0  0
 12 17  1  0  0  0  0
 14 15  1  1  0  0  0
 14 18  1  0  0  0  0
 15 31  1  0  0  0  0
 16 20  1  0  0  0  0
 17  2  1  6  0  0  0
 17 22  1  0  0  0  0
 18 19  1  1  0  0  0
 18 24  1  0  0  0  0
 18 30  1  0  0  0  0
 20 21  1  0  0  0  0
 20 26  1  1  0  0  0
 22 23  1  1  0  0  0
 22 28  1  0  0  0  0
 24 25  1  0  0  0  0
 26 27  1  0  0  0  0
 28 29  1  6  0  0  0
M  END
>  <CHROM.1>
-172.71724386,-71.26056904,-143.00556448,175.30369596,6.22636871,146.95144407
2.61167408,17.71151868,36.53512020,1.97516917,-0.54009439,-0.05634422

>  <Name>
ligand

>  <RI>
0

>  <Rbt.Current_Directory>
/home/itssahil/PROJECTS/Mol_Feturizer/New_Systems/rnas/4GPY

>  <Rbt.Executable>
rbdock ($Id: //depot/dev/client3/rdock/2013.1/src/exe/rbdock.cxx#4 $)

>  <Rbt.Library>
libRbt.so (2013.1, Build901 2013/11/27)

>  <Rbt.Parameter_File>
/export/apps/rDock/src/rDock_2013.1_src/data/scripts/dock_solv.prm

>  <Rbt.Receptor>
prm/blind_docking_100.prm

>  <SCORE>
-2.66554

>  <SCORE.INTER>
-5.08904

>  <SCORE.INTER.CONST>
1

>  <SCORE.INTER.POLAR>
0

>  <SCORE.INTER.ROT>
6

>  <SCORE.INTER.SOLV>
21.2792

>  <SCORE.INTER.VDW>
-18.0858

>  <SCORE.INTER.norm>
-0.164163

>  <SCORE.INTRA>
-0.0946091

>  <SCORE.INTRA.DIHEDRAL>
-7.00627

>  <SCORE.INTRA.DIHEDRAL.0>
14.7001

>  <SCORE.INTRA.POLAR>
0

>  <SCORE.INTRA.POLAR.0>
0

>  <SCORE.INTRA.REPUL>
0

>  <SCORE.INTRA.REPUL.0>
0

>  <SCORE.INTRA.SOLV>
0.0619734

>  <SCORE.INTRA.SOLV.lig_0>
-65.3082

>  <SCORE.INTRA.VDW>
3.37754

>  <SCORE.INTRA.VDW.0>
-4.21408

>  <SCORE.INTRA.norm>
-0.00305191

>  <SCORE.RESTR>
2.51811

>  <SCORE.RESTR.CAVITY>
2.51811

>  <SCORE.RESTR.norm>
0.0812295

>  <SCORE.SYSTEM>
0

>  <SCORE.SYSTEM.CONST>
0

>  <SCORE.SYSTEM.DIHEDRAL>
0

>  <SCORE.SYSTEM.SOLV>
0

>  <SCORE.SYSTEM.norm>
0

>  <SCORE.heavy>
31

>  <SCORE.norm>
-0.0859851

>  <RMSD>
7.101

$$$$
ligand
 OpenBabel11021811493D
libRbt.so/2013.1/901 2013/11/27
 31 33  0  0  0  0  0  0  0  0999 V2000
   -3.2867   13.9200   40.3047 C   0  0  2  0  0  0  0  0  0  0  0  0
   -2.5934   12.7828   40.7817 O   0  0  0  0  0  0  0  0  0  0  0  0
   -2.3091    8.7123   39.5941 C   0  0  2  0  0  0  0  0  0  0  0  0
   -2.7033    7.3820   39.2751 N   0  0  0  0  0  0  0  0  0  0  0  0
   -2.8860   10.3166   36.1509 C   0  0  2  0  0  0  0  0  0  0  0  0
   -2.5017   15.2159   40.7869 C   0  0  2  0  0  0  0  0  0  0  0  0
   -1.1324   15.1599   40.2866 N   0  0  0  0  0  0  0  0  0  0  0  0
   -2.7606    9.0203   41.0911 C   0  0  0  0  0  0  0  0  0  0  0  0
   -2.8919    9.3803   34.8961 C   0  0  2  0  0  0  0  0  0  0  0  0
   -3.8442    8.3579   35.0988 O   0  0  0  0  0  0  0  0  0  0  0  0
   -2.5284   15.3266   42.3556 C   0  0  0  0  0  0  0  0  0  0  0  0
   -2.3074   10.4943   41.4509 C   0  0  2  0  0  0  0  0  0  0  0  0
   -2.7066   10.7917   42.8272 N   0  0  0  0  0  0  0  0  0  0  0  0
   -1.4515    8.7762   34.7178 C   0  0  1  0  0  0  0  0  0  0  0  0
   -1.4319    7.8623   33.5308 N   0  0  0  0  0  0  0  0  0  0  0  0
   -3.9377   14.9087   42.9516 C   0  0  0  0  0  0  0  0  0  0  0  0
   -3.0076   11.5048   40.4531 C   0  0  2  0  0  0  0  0  0  0  0  0
   -0.3980    9.9932   34.4784 C   0  0  1  0  0  0  0  0  0  0  0  0
   -0.6877   10.7619   33.3275 O   0  0  0  0  0  0  0  0  0  0  0  0
   -4.8632   14.2776   42.1889 C   0  0  1  0  0  0  0  0  0  0  0  0
   -4.6552   13.9465   40.8188 O   0  0  0  0  0  0  0  0  0  0  0  0
   -2.5713   11.1749   38.9649 C   0  0  2  0  0  0  0  0  0  0  0  0
   -3.2249   12.0905   38.0623 O   0  0  0  0  0  0  0  0  0  0  0  0
   -0.4264   10.9431   35.7130 C   0  0  0  0  0  0  0  0  0  0  0  0
   -1.8475   11.4112   35.9746 O   0  0  0  0  0  0  0  0  0  0  0  0
   -6.2127   13.8569   42.7199 C   0  0  0  0  0  0  0  0  0  0  0  0
   -7.0706   15.0146   42.6281 O   0  0  0  0  0  0  0  0  0  0  0  0
   -3.0168    9.7047   38.6115 C   0  0  1  0  0  0  0  0  0  0  0  0
   -2.6145    9.4336   37.2918 O   0  0  0  0  0  0  0  0  0  0  0  0
    1.0591    9.5487   34.2962 C   0  0  0  0  0  0  0  0  0  0  0  0
   -1.3008    6.4189   33.8189 C   0  0  0  0  0  0  0  0  0  0  0  0
  1  2  1  1  0  0  0
  1  6  1  0  0  0  0
  1 21  1  0  0  0  0
  3  4  1  6  0  0  0
  3  8  1  0  0  0  0
  3 28  1  0  0  0  0
  5  9  1  0  0  0  0
  5 25  1  0  0  0  0
  5 29  1  1  0  0  0
  6  7  1  1  0  0  0
  6 11  1  0  0  0  0
  8 12  1  0  0  0  0
  9 10  1  1  0  0  0
  9 14  1  0  0  0  0
 11 16  1  0  0  0  0
 12 13  1  1  0  0  0
 12 17  1  0  0  0  0
 14 15  1  6  0  0  0
 14 18  1  0  0  0  0
 15 31  1  0  0  0  0
 16 20  1  0  0  0  0
 17  2  1  1  0  0  0
 17 22  1  0  0  0  0
 18 19  1  6  0  0  0
 18 24  1  0  0  0  0
 18 30  1  0  0  0  0
 20 21  1  0  0  0  0
 20 26  1  1  0  0  0
 22 23  1  6  0  0  0
 22 28  1  0  0  0  0
 24 25  1  0  0  0  0
 26 27  1  0  0  0  0
 28 29  1  6  0  0  0
M  END
>  <CHROM.1>
-176.45067802,-154.10786287,-109.77689087,-163.99283107,83.84041085,-168.33437666
-2.66711179,11.25030064,38.53151817,-2.31155755,-1.11781451,-2.87329096

>  <Name>
ligand

>  <RI>
0

>  <Rbt.Current_Directory>
/home/itssahil/PROJECTS/Mol_Feturizer/New_Systems/rnas/4GPY

>  <Rbt.Executable>
rbdock ($Id: //depot/dev/client3/rdock/2013.1/src/exe/rbdock.cxx#4 $)

>  <Rbt.Library>
libRbt.so (2013.1, Build901 2013/11/27)

>  <Rbt.Parameter_File>
/export/apps/rDock/src/rDock_2013.1_src/data/scripts/dock_solv.prm

>  <Rbt.Receptor>
prm/pocket_docking_8.prm

>  <SCORE>
-6.34825

>  <SCORE.INTER>
-4.50284

>  <SCORE.INTER.CONST>
1

>  <SCORE.INTER.POLAR>
0

>  <SCORE.INTER.ROT>
6

>  <SCORE.INTER.SOLV>
15.4553

>  <SCORE.INTER.VDW>
-15.7536

>  <SCORE.INTER.norm>
-0.145253

>  <SCORE.INTRA>
-1.84541

>  <SCORE.INTRA.DIHEDRAL>
-5.89644

>  <SCORE.INTRA.DIHEDRAL.0>
14.7001

>  <SCORE.INTRA.POLAR>
0

>  <SCORE.INTRA.POLAR.0>
0

>  <SCORE.INTRA.REPUL>
0

>  <SCORE.INTRA.REPUL.0>
0

>  <SCORE.INTRA.SOLV>
-2.12054

>  <SCORE.INTRA.SOLV.lig_0>
-65.3082

>  <SCORE.INTRA.VDW>
2.16308

>  <SCORE.INTRA.VDW.0>
-4.21408

>  <SCORE.INTRA.norm>
-0.0595294

>  <SCORE.RESTR>
0

>  <SCORE.RESTR.CAVITY>
0

>  <SCORE.RESTR.norm>
0

>  <SCORE.SYSTEM>
0

>  <SCORE.SYSTEM.CONST>
0

>  <SCORE.SYSTEM.DIHEDRAL>
0

>  <SCORE.SYSTEM.SOLV>
0

>  <SCORE.SYSTEM.norm>
0

>  <SCORE.heavy>
31

>  <SCORE.norm>
-0.204782

>  <RMSD>
7.102

$$$$
ligand
 OpenBabel11021811493D
libRbt.so/2013.1/901 2013/11/27
 31 33  0  0  0  0  0  0  0  0999 V2000
    5.8997   19.8164   35.8255 C   0  0  2  0  0  0  0  0  0  0  0  0
    4.7658   20.6616   35.8636 O   0  0  0  0  0  0  0  0  0  0  0  0
    0.6114   20.4376   34.9974 C   0  0  2  0  0  0  0  0  0  0  0  0
   -0.5957   20.1356   34.3056 N   0  0  0  0  0  0  0  0  0  0  0  0
    0.1229   16.9457   35.8781 C   0  0  2  0  0  0  0  0  0  0  0  0
    6.3310   19.4997   37.3227 C   0  0  2  0  0  0  0  0  0  0  0  0
    5.2104   18.8812   38.0230 N   0  0  0  0  0  0  0  0  0  0  0  0
    1.5229   21.3303   34.0425 C   0  0  0  0  0  0  0  0  0  0  0  0
   -0.0655   16.2498   37.2679 C   0  0  2  0  0  0  0  0  0  0  0  0
   -0.9856   17.0022   38.0297 O   0  0  0  0  0  0  0  0  0  0  0  0
    6.8009   20.8118   38.0519 C   0  0  0  0  0  0  0  0  0  0  0  0
    2.8584   21.6795   34.8185 C   0  0  2  0  0  0  0  0  0  0  0  0
    3.7051   22.5076   33.9588 N   0  0  0  0  0  0  0  0  0  0  0  0
    1.3318   16.1820   37.9852 C   0  0  1  0  0  0  0  0  0  0  0  0
    1.1783   15.5331   39.3268 N   0  0  0  0  0  0  0  0  0  0  0  0
    7.6553   21.7440   37.0943 C   0  0  0  0  0  0  0  0  0  0  0  0
    3.6078   20.3331   35.1825 C   0  0  2  0  0  0  0  0  0  0  0  0
    2.3480   15.2979   37.0721 C   0  0  1  0  0  0  0  0  0  0  0  0
    1.9034   13.9710   36.8698 O   0  0  0  0  0  0  0  0  0  0  0  0
    7.7004   21.5241   35.7578 C   0  0  1  0  0  0  0  0  0  0  0  0
    7.0031   20.4607   35.1149 O   0  0  0  0  0  0  0  0  0  0  0  0
    2.6835   19.4417   36.1124 C   0  0  2  0  0  0  0  0  0  0  0  0
    3.3681   18.2117   36.4267 O   0  0  0  0  0  0  0  0  0  0  0  0
    2.4997   15.9741   35.6766 C   0  0  0  0  0  0  0  0  0  0  0  0
    1.1325   16.1740   35.0458 O   0  0  0  0  0  0  0  0  0  0  0  0
    8.4953   22.3921   34.8117 C   0  0  0  0  0  0  0  0  0  0  0  0
    7.5798   23.3799   34.2914 O   0  0  0  0  0  0  0  0  0  0  0  0
    1.3517   19.1015   35.3407 C   0  0  1  0  0  0  0  0  0  0  0  0
    0.5474   18.3169   36.1859 O   0  0  0  0  0  0  0  0  0  0  0  0
    3.7622   15.1536   37.6492 C   0  0  0  0  0  0  0  0  0  0  0  0
    0.1800   16.1358   40.2343 C   0  0  0  0  0  0  0  0  0  0  0  0
  1  2  1  1  0  0  0
  1  6  1  0  0  0  0
  1 21  1  0  0  0  0
  3  4  1  6  0  0  0
  3  8  1  0  0  0  0
  3 28  1  0  0  0  0
  5  9  1  0  0  0  0
  5 25  1  0  0  0  0
  5 29  1  1  0  0  0
  6  7  1  1  0  0  0
  6 11  1  0  0  0  0
  8 12  1  0  0  0  0
  9 10  1  1  0  0  0
  9 14  1  0  0  0  0
 11 16  1  0  0  0  0
 12 13  1  6  0  0  0
 12 17  1  0  0  0  0
 14 15  1  1  0  0  0
 14 18  1  0  0  0  0
 15 31  1  0  0  0  0
 16 20  1  0  0  0  0
 17  2  1  1  0  0  0
 17 22  1  0  0  0  0
 18 19  1  6  0  0  0
 18 24  1  0  0  0  0
 18 30  1  0  0  0  0
 20 21  1  0  0  0  0
 20 26  1  6  0  0  0
 22 23  1  6  0  0  0
 22 28  1  0  0  0  0
 24 25  1  0  0  0  0
 26 27  1  0  0  0  0
 28 29  1  1  0  0  0
M  END
>  <CHROM.1>
-126.39247862,151.59170401,-54.81430241,-152.42214581,-94.89165868,123.05374466
3.24529284,18.86077473,36.27993649,-0.74320188,0.26139268,2.54251500

>  <Name>
ligand

>  <RI>
0

>  <Rbt.Current_Directory>
/home/itssahil/PROJECTS/Mol_Feturizer/New_Systems/rnas/4GPY

>  <Rbt.Executable>
rbdock ($Id: //depot/dev/client3/rdock/2013.1/src/exe/rbdock.cxx#4 $)

>  <Rbt.Library>
libRbt.so (2013.1, Build901 2013/11/27)

>  <Rbt.Parameter_File>
/export/apps/rDock/src/rDock_2013.1_src/data/scripts/dock_solv.prm

>  <Rbt.Receptor>
prm/blind_docking_60.prm

>  <SCORE>
32.5489

>  <SCORE.INTER>
3.94214

>  <SCORE.INTER.CONST>
1

>  <SCORE.INTER.POLAR>
0

>  <SCORE.INTER.ROT>
6

>  <SCORE.INTER.SOLV>
23.1243

>  <SCORE.INTER.VDW>
-12.68

>  <SCORE.INTER.norm>
0.127166

>  <SCORE.INTRA>
11.1473

>  <SCORE.INTRA.DIHEDRAL>
8.31152

>  <SCORE.INTRA.DIHEDRAL.0>
14.7001

>  <SCORE.INTRA.POLAR>
0

>  <SCORE.INTRA.POLAR.0>
0

>  <SCORE.INTRA.REPUL>
0

>  <SCORE.INTRA.REPUL.0>
0

>  <SCORE.INTRA.SOLV>
1.35242

>  <SCORE.INTRA.SOLV.lig_0>
-65.3082

>  <SCORE.INTRA.VDW>
6.31534

>  <SCORE.INTRA.VDW.0>
-4.21408

>  <SCORE.INTRA.norm>
0.359591

>  <SCORE.RESTR>
17.4595

>  <SCORE.RESTR.CAVITY>
17.4595

>  <SCORE.RESTR.norm>
0.56321

>  <SCORE.SYSTEM>
0

>  <SCORE.SYSTEM.CONST>
0

>  <SCORE.SYSTEM.DIHEDRAL>
0

>  <SCORE.SYSTEM.SOLV>
0

>  <SCORE.SYSTEM.norm>
0

>  <SCORE.heavy>
31

>  <SCORE.norm>
1.04997

>  <RMSD>
7.106

$$$$
ligand
 OpenBabel11021811493D
libRbt.so/2013.1/901 2013/11/27
 31 33  0  0  0  0  0  0  0  0999 V2000
    0.8782   20.2588   34.5789 C   0  0  2  0  0  0  0  0  0  0  0  0
    2.2719   20.4348   34.7458 O   0  0  0  0  0  0  0  0  0  0  0  0
    5.1313   18.0214   36.7606 C   0  0  2  0  0  0  0  0  0  0  0  0
    5.8585   17.4175   37.8252 N   0  0  0  0  0  0  0  0  0  0  0  0
    3.5785   15.2663   37.8632 C   0  0  2  0  0  0  0  0  0  0  0  0
    0.3893   21.2440   33.4307 C   0  0  2  0  0  0  0  0  0  0  0  0
    1.1281   20.9558   32.2060 N   0  0  0  0  0  0  0  0  0  0  0  0
    5.2610   19.6033   36.9031 C   0  0  0  0  0  0  0  0  0  0  0  0
    2.8904   13.9570   37.3497 C   0  0  2  0  0  0  0  0  0  0  0  0
    3.5508   13.5284   36.1778 O   0  0  0  0  0  0  0  0  0  0  0  0
    0.5808   22.7424   33.8693 C   0  0  0  0  0  0  0  0  0  0  0  0
    4.4656   20.2743   35.7094 C   0  0  2  0  0  0  0  0  0  0  0  0
    4.5814   21.7290   35.8193 N   0  0  0  0  0  0  0  0  0  0  0  0
    1.3778   14.2704   37.0571 C   0  0  1  0  0  0  0  0  0  0  0  0
    0.6970   13.0365   36.5488 N   0  0  0  0  0  0  0  0  0  0  0  0
    0.2144   22.9601   35.3971 C   0  0  0  0  0  0  0  0  0  0  0  0
    2.9447   19.8431   35.7993 C   0  0  2  0  0  0  0  0  0  0  0  0
    0.6643   14.7491   38.4391 C   0  0  1  0  0  0  0  0  0  0  0  0
    0.7115   13.7700   39.4581 O   0  0  0  0  0  0  0  0  0  0  0  0
    0.0404   21.9085   36.2341 C   0  0  1  0  0  0  0  0  0  0  0  0
    0.1661   20.5504   35.8220 O   0  0  0  0  0  0  0  0  0  0  0  0
    2.8284   18.2664   35.6810 C   0  0  2  0  0  0  0  0  0  0  0  0
    1.4417   17.8819   35.7785 O   0  0  0  0  0  0  0  0  0  0  0  0
    1.3795   16.0291   38.9660 C   0  0  0  0  0  0  0  0  0  0  0  0
    2.8692   15.7692   39.1088 O   0  0  0  0  0  0  0  0  0  0  0  0
   -0.3016   22.0733   37.6956 C   0  0  0  0  0  0  0  0  0  0  0  0
   -1.0204   23.3201   37.8123 O   0  0  0  0  0  0  0  0  0  0  0  0
    3.6269   17.6006   36.8659 C   0  0  1  0  0  0  0  0  0  0  0  0
    3.5143   16.2051   36.7364 O   0  0  0  0  0  0  0  0  0  0  0  0
   -0.8230   15.0993   38.3007 C   0  0  0  0  0  0  0  0  0  0  0  0
    0.8901   12.7258   35.1171 C   0  0  0  0  0  0  0  0  0  0  0  0
  1  2  1  1  0  0  0
  1  6  1  0  0  0  0
  1 21  1  0  0  0  0
  3  4  1  1  0  0  0
  3  8  1  0  0  0  0
  3 28  1  0  0  0  0
  5  9  1  0  0  0  0
  5 25  1  0  0  0  0
  5 29  1  6  0  0  0
  6  7  1  6  0  0  0
  6 11  1  0  0  0  0
  8 12  1  0  0  0  0
  9 10  1  6  0  0  0
  9 14  1  0  0  0  0
 11 16  1  0  0  0  0
 12 13  1  1  0  0  0
 12 17  1  0  0  0  0
 14 15  1  1  0  0  0
 14 18  1  0  0  0  0
 15 31  1  0  0  0  0
 16 20  1  0  0  0  0
 17  2  1  6  0  0  0
 17 22  1  0  0  0  0
 18 19  1  1  0  0  0
 18 24  1  0  0  0  0
 18 30  1  0  0  0  0
 20 21  1  0  0  0  0
 20 26  1  1  0  0  0
 22 23  1  1  0  0  0
 22 28  1  0  0  0  0
 24 25  1  0  0  0  0
 26 27  1  0  0  0  0
 28 29  1  6  0  0  0
M  END
>  <CHROM.1>
171.09088352,159.35276237,-80.72713088,-178.46310799,28.03639290,89.43082432
1.96480408,18.08948321,36.47207610,1.69476568,0.06537238,-0.29508314

>  <Name>
ligand

>  <RI>
0

>  <Rbt.Current_Directory>
/home/itssahil/PROJECTS/Mol_Feturizer/New_Systems/rnas/4GPY

>  <Rbt.Executable>
rbdock ($Id: //depot/dev/client3/rdock/2013.1/src/exe/rbdock.cxx#4 $)

>  <Rbt.Library>
libRbt.so (2013.1, Build901 2013/11/27)

>  <Rbt.Parameter_File>
/export/apps/rDock/src/rDock_2013.1_src/data/scripts/dock_solv.prm

>  <Rbt.Receptor>
prm/blind_docking_100.prm

>  <SCORE>
3.34527

>  <SCORE.INTER>
0.277828

>  <SCORE.INTER.CONST>
1

>  <SCORE.INTER.POLAR>
0

>  <SCORE.INTER.ROT>
6

>  <SCORE.INTER.SOLV>
22.841

>  <SCORE.INTER.VDW>
-15.0285

>  <SCORE.INTER.norm>
0.00896219

>  <SCORE.INTRA>
-1.52169

>  <SCORE.INTRA.DIHEDRAL>
-6.03911

>  <SCORE.INTRA.DIHEDRAL.0>
14.7001

>  <SCORE.INTRA.POLAR>
0

>  <SCORE.INTRA.POLAR.0>
0

>  <SCORE.INTRA.REPUL>
0

>  <SCORE.INTRA.REPUL.0>
0

>  <SCORE.INTRA.SOLV>
-1.7093

>  <SCORE.INTRA.SOLV.lig_0>
-65.3082

>  <SCORE.INTRA.VDW>
2.35252

>  <SCORE.INTRA.VDW.0>
-4.21408

>  <SCORE.INTRA.norm>
-0.0490866

>  <SCORE.RESTR>
4.58912

>  <SCORE.RESTR.CAVITY>
4.58912

>  <SCORE.RESTR.norm>
0.148036

>  <SCORE.SYSTEM>
0

>  <SCORE.SYSTEM.CONST>
0

>  <SCORE.SYSTEM.DIHEDRAL>
0

>  <SCORE.SYSTEM.SOLV>
0

>  <SCORE.SYSTEM.norm>
0

>  <SCORE.heavy>
31

>  <SCORE.norm>
0.107912

>  <RMSD>
7.126

$$$$
ligand
 OpenBabel11021811493D
libRbt.so/2013.1/901 2013/11/27
 31 33  0  0  0  0  0  0  0  0999 V2000
    5.7829   20.0186   37.1130 C   0  0  2  0  0  0  0  0  0  0  0  0
    5.7304   19.7214   35.7309 O   0  0  0  0  0  0  0  0  0  0  0  0
    1.5680   19.1045   35.1361 C   0  0  2  0  0  0  0  0  0  0  0  0
    0.3542   18.6580   34.5411 N   0  0  0  0  0  0  0  0  0  0  0  0
    2.0285   15.6590   36.7216 C   0  0  2  0  0  0  0  0  0  0  0  0
    5.3269   21.5288   37.3117 C   0  0  2  0  0  0  0  0  0  0  0  0
    3.9848   21.6993   36.7656 N   0  0  0  0  0  0  0  0  0  0  0  0
    2.3475   19.9956   34.0693 C   0  0  0  0  0  0  0  0  0  0  0  0
    0.6348   15.0072   37.0112 C   0  0  2  0  0  0  0  0  0  0  0  0
   -0.2190   15.2590   35.9153 O   0  0  0  0  0  0  0  0  0  0  0  0
    6.3474   22.5093   36.6252 C   0  0  0  0  0  0  0  0  0  0  0  0
    3.6897   20.5055   34.7373 C   0  0  2  0  0  0  0  0  0  0  0  0
    4.4154   21.3340   33.7735 N   0  0  0  0  0  0  0  0  0  0  0  0
    0.0540   15.6369   38.3294 C   0  0  1  0  0  0  0  0  0  0  0  0
   -1.2891   15.0414   38.6229 N   0  0  0  0  0  0  0  0  0  0  0  0
    7.8473   22.0347   36.8276 C   0  0  0  0  0  0  0  0  0  0  0  0
    4.5683   19.2531   35.1454 C   0  0  2  0  0  0  0  0  0  0  0  0
    1.0689   15.3097   39.5586 C   0  0  1  0  0  0  0  0  0  0  0  0
    1.2424   13.9245   39.7836 O   0  0  0  0  0  0  0  0  0  0  0  0
    8.1345   20.7942   37.2917 C   0  0  1  0  0  0  0  0  0  0  0  0
    7.1374   19.8349   37.6319 O   0  0  0  0  0  0  0  0  0  0  0  0
    3.7746   18.3605   36.1880 C   0  0  2  0  0  0  0  0  0  0  0  0
    4.5761   17.2151   36.5426 O   0  0  0  0  0  0  0  0  0  0  0  0
    2.4650   15.9264   39.2458 C   0  0  0  0  0  0  0  0  0  0  0  0
    2.9612   15.4302   37.8986 O   0  0  0  0  0  0  0  0  0  0  0  0
    9.5479   20.3018   37.4914 C   0  0  0  0  0  0  0  0  0  0  0  0
    9.4909   19.2940   38.5238 O   0  0  0  0  0  0  0  0  0  0  0  0
    2.4355   17.8602   35.5235 C   0  0  1  0  0  0  0  0  0  0  0  0
    1.7476   17.0772   36.4673 O   0  0  0  0  0  0  0  0  0  0  0  0
    0.6300   15.8751   40.9157 C   0  0  0  0  0  0  0  0  0  0  0  0
   -2.3066   15.9616   39.1716 C   0  0  0  0  0  0  0  0  0  0  0  0
  1  2  1  6  0  0  0
  1  6  1  0  0  0  0
  1 21  1  0  0  0  0
  3  4  1  6  0  0  0
  3  8  1  0  0  0  0
  3 28  1  0  0  0  0
  5  9  1  0  0  0  0
  5 25  1  0  0  0  0
  5 29  1  1  0  0  0
  6  7  1  6  0  0  0
  6 11  1  0  0  0  0
  8 12  1  0  0  0  0
  9 10  1  6  0  0  0
  9 14  1  0  0  0  0
 11 16  1  0  0  0  0
 12 13  1  6  0  0  0
 12 17  1  0  0  0  0
 14 15  1  1  0  0  0
 14 18  1  0  0  0  0
 15 31  1  0  0  0  0
 16 20  1  0  0  0  0
 17  2  1  1  0  0  0
 17 22  1  0  0  0  0
 18 19  1  1  0  0  0
 18 24  1  0  0  0  0
 18 30  1  0  0  0  0
 20 21  1  0  0  0  0
 20 26  1  6  0  0  0
 22 23  1  6  0  0  0
 22 28  1  0  0  0  0
 24 25  1  0  0  0  0
 26 27  1  0  0  0  0
 28 29  1  1  0  0  0
M  END
>  <CHROM.1>
-88.10139058,-143.68584763,-142.10279330,86.30830994,153.49728396,158.96955130
3.43633861,18.22096623,37.01610520,-0.57037128,0.40500584,2.30568237

>  <Name>
ligand

>  <RI>
0

>  <Rbt.Current_Directory>
/home/itssahil/PROJECTS/Mol_Feturizer/New_Systems/rnas/4GPY

>  <Rbt.Executable>
rbdock ($Id: //depot/dev/client3/rdock/2013.1/src/exe/rbdock.cxx#4 $)

>  <Rbt.Library>
libRbt.so (2013.1, Build901 2013/11/27)

>  <Rbt.Parameter_File>
/export/apps/rDock/src/rDock_2013.1_src/data/scripts/dock_solv.prm

>  <Rbt.Receptor>
prm/blind_docking_60.prm

>  <SCORE>
36.3804

>  <SCORE.INTER>
4.10348

>  <SCORE.INTER.CONST>
1

>  <SCORE.INTER.POLAR>
0

>  <SCORE.INTER.ROT>
6

>  <SCORE.INTER.SOLV>
20.8249

>  <SCORE.INTER.VDW>
-11.806

>  <SCORE.INTER.norm>
0.13237

>  <SCORE.INTRA>
9.98754

>  <SCORE.INTRA.DIHEDRAL>
1.851

>  <SCORE.INTRA.DIHEDRAL.0>
14.7001

>  <SCORE.INTRA.POLAR>
0

>  <SCORE.INTRA.POLAR.0>
0

>  <SCORE.INTRA.REPUL>
0

>  <SCORE.INTRA.REPUL.0>
0

>  <SCORE.INTRA.SOLV>
4.47031

>  <SCORE.INTRA.SOLV.lig_0>
-65.3082

>  <SCORE.INTRA.VDW>
6.82688

>  <SCORE.INTRA.VDW.0>
-4.21408

>  <SCORE.INTRA.norm>
0.322179

>  <SCORE.RESTR>
22.2894

>  <SCORE.RESTR.CAVITY>
22.2894

>  <SCORE.RESTR.norm>
0.719012

>  <SCORE.SYSTEM>
0

>  <SCORE.SYSTEM.CONST>
0

>  <SCORE.SYSTEM.DIHEDRAL>
0

>  <SCORE.SYSTEM.SOLV>
0

>  <SCORE.SYSTEM.norm>
0

>  <SCORE.heavy>
31

>  <SCORE.norm>
1.17356

>  <RMSD>
7.130

$$$$
ligand
 OpenBabel11021811493D
libRbt.so/2013.1/901 2013/11/27
 31 33  0  0  0  0  0  0  0  0999 V2000
    1.4026   20.6630   34.2571 C   0  0  2  0  0  0  0  0  0  0  0  0
    2.7829   20.6012   34.5611 O   0  0  0  0  0  0  0  0  0  0  0  0
    5.1219   17.6360   36.5095 C   0  0  2  0  0  0  0  0  0  0  0  0
    5.6431   16.8134   37.5480 N   0  0  0  0  0  0  0  0  0  0  0  0
    3.1818   14.9366   36.9788 C   0  0  2  0  0  0  0  0  0  0  0  0
    1.1238   22.0333   33.5003 C   0  0  2  0  0  0  0  0  0  0  0  0
    1.9519   22.0946   32.3007 N   0  0  0  0  0  0  0  0  0  0  0  0
    5.3690   19.1588   36.9087 C   0  0  0  0  0  0  0  0  0  0  0  0
    1.9196   14.1553   36.4814 C   0  0  2  0  0  0  0  0  0  0  0  0
    2.1410   13.7379   35.1510 O   0  0  0  0  0  0  0  0  0  0  0  0
    1.4072   23.2560   34.4483 C   0  0  0  0  0  0  0  0  0  0  0  0
    4.8039   20.0730   35.7457 C   0  0  2  0  0  0  0  0  0  0  0  0
    5.0305   21.4768   36.0917 N   0  0  0  0  0  0  0  0  0  0  0  0
    0.6747   15.1115   36.5682 C   0  0  1  0  0  0  0  0  0  0  0  0
   -0.5471   14.3932   36.0828 N   0  0  0  0  0  0  0  0  0  0  0  0
    0.9112   22.9802   35.9295 C   0  0  0  0  0  0  0  0  0  0  0  0
    3.2530   19.7980   35.5842 C   0  0  2  0  0  0  0  0  0  0  0  0
    0.4596   15.5532   38.1196 C   0  0  1  0  0  0  0  0  0  0  0  0
    0.2221   14.4584   38.9823 O   0  0  0  0  0  0  0  0  0  0  0  0
    0.5584   21.7349   36.3312 C   0  0  1  0  0  0  0  0  0  0  0  0
    0.5994   20.5953   35.4769 O   0  0  0  0  0  0  0  0  0  0  0  0
    3.0162   18.2754   35.2110 C   0  0  2  0  0  0  0  0  0  0  0  0
    1.6008   18.0310   35.0803 O   0  0  0  0  0  0  0  0  0  0  0  0
    1.7349   16.2948   38.6207 C   0  0  0  0  0  0  0  0  0  0  0  0
    2.9608   15.4254   38.4000 O   0  0  0  0  0  0  0  0  0  0  0  0
    0.0883   21.4294   37.7333 C   0  0  0  0  0  0  0  0  0  0  0  0
   -0.9272   22.4060   38.0491 O   0  0  0  0  0  0  0  0  0  0  0  0
    3.5862   17.3672   36.3666 C   0  0  1  0  0  0  0  0  0  0  0  0
    3.3705   16.0241   36.0109 O   0  0  0  0  0  0  0  0  0  0  0  0
   -0.7237   16.5010   38.3545 C   0  0  0  0  0  0  0  0  0  0  0  0
   -0.8177   13.0759   36.6952 C   0  0  0  0  0  0  0  0  0  0  0  0
  1  2  1  1  0  0  0
  1  6  1  0  0  0  0
  1 21  1  0  0  0  0
  3  4  1  1  0  0  0
  3  8  1  0  0  0  0
  3 28  1  0  0  0  0
  5  9  1  0  0  0  0
  5 25  1  0  0  0  0
  5 29  1  6  0  0  0
  6  7  1  6  0  0  0
  6 11  1  0  0  0  0
  8 12  1  0  0  0  0
  9 10  1  6  0  0  0
  9 14  1  0  0  0  0
 11 16  1  0  0  0  0
 12 13  1  1  0  0  0
 12 17  1  0  0  0  0
 14 15  1  1  0  0  0
 14 18  1  0  0  0  0
 15 31  1  0  0  0  0
 16 20  1  0  0  0  0
 17  2  1  6  0  0  0
 17 22  1  0  0  0  0
 18 19  1  1  0  0  0
 18 24  1  0  0  0  0
 18 30  1  0  0  0  0
 20 21  1  0  0  0  0
 20 26  1  1  0  0  0
 22 23  1  1  0  0  0
 22 28  1  0  0  0  0
 24 25  1  0  0  0  0
 26 27  1  0  0  0  0
 28 29  1  6  0  0  0
M  END
>  <CHROM.1>
157.41834472,131.84589110,51.72729452,-174.48119303,49.00905920,90.28194453
1.96113294,18.23372127,36.27755304,1.51780215,0.18139475,-0.26229952

>  <Name>
ligand

>  <RI>
0

>  <Rbt.Current_Directory>
/home/itssahil/PROJECTS/Mol_Feturizer/New_Systems/rnas/4GPY

>  <Rbt.Executable>
rbdock ($Id: //depot/dev/client3/rdock/2013.1/src/exe/rbdock.cxx#4 $)

>  <Rbt.Library>
libRbt.so (2013.1, Build901 2013/11/27)

>  <Rbt.Parameter_File>
/export/apps/rDock/src/rDock_2013.1_src/data/scripts/dock_solv.prm

>  <Rbt.Receptor>
prm/blind_docking_60.prm

>  <SCORE>
21.9833

>  <SCORE.INTER>
-0.7909

>  <SCORE.INTER.CONST>
1

>  <SCORE.INTER.POLAR>
0

>  <SCORE.INTER.ROT>
6

>  <SCORE.INTER.SOLV>
21.8962

>  <SCORE.INTER.VDW>
-15.426

>  <SCORE.INTER.norm>
-0.0255129

>  <SCORE.INTRA>
3.78198

>  <SCORE.INTRA.DIHEDRAL>
1.37153

>  <SCORE.INTRA.DIHEDRAL.0>
14.7001

>  <SCORE.INTRA.POLAR>
0

>  <SCORE.INTRA.POLAR.0>
0

>  <SCORE.INTRA.REPUL>
0

>  <SCORE.INTRA.REPUL.0>
0

>  <SCORE.INTRA.SOLV>
-0.387416

>  <SCORE.INTRA.SOLV.lig_0>
-65.3082

>  <SCORE.INTRA.VDW>
3.28992

>  <SCORE.INTRA.VDW.0>
-4.21408

>  <SCORE.INTRA.norm>
0.121999

>  <SCORE.RESTR>
18.9922

>  <SCORE.RESTR.CAVITY>
18.9922

>  <SCORE.RESTR.norm>
0.612651

>  <SCORE.SYSTEM>
0

>  <SCORE.SYSTEM.CONST>
0

>  <SCORE.SYSTEM.DIHEDRAL>
0

>  <SCORE.SYSTEM.SOLV>
0

>  <SCORE.SYSTEM.norm>
0

>  <SCORE.heavy>
31

>  <SCORE.norm>
0.709137

>  <RMSD>
7.181

$$$$
ligand
 OpenBabel11021811493D
libRbt.so/2013.1/901 2013/11/27
 31 33  0  0  0  0  0  0  0  0999 V2000
   -0.5460    9.9801   40.7497 C   0  0  2  0  0  0  0  0  0  0  0  0
    0.1970   10.5875   39.7103 O   0  0  0  0  0  0  0  0  0  0  0  0
    0.3544   14.6497   38.4719 C   0  0  2  0  0  0  0  0  0  0  0  0
   -0.0340   15.8798   37.8695 N   0  0  0  0  0  0  0  0  0  0  0  0
   -1.2463   16.6112   40.3861 C   0  0  2  0  0  0  0  0  0  0  0  0
    0.1691    8.6133   41.1352 C   0  0  2  0  0  0  0  0  0  0  0  0
    1.5450    8.8889   41.5346 N   0  0  0  0  0  0  0  0  0  0  0  0
    0.3761   13.5264   37.3417 C   0  0  0  0  0  0  0  0  0  0  0  0
   -1.2087   17.2738   41.8041 C   0  0  2  0  0  0  0  0  0  0  0  0
    0.1158   17.2269   42.2906 O   0  0  0  0  0  0  0  0  0  0  0  0
    0.1197    7.6044   39.9295 C   0  0  0  0  0  0  0  0  0  0  0  0
    0.8240   12.1620   38.0089 C   0  0  2  0  0  0  0  0  0  0  0  0
    0.8581   11.1194   36.9824 N   0  0  0  0  0  0  0  0  0  0  0  0
   -2.1813   16.4809   42.7511 C   0  0  1  0  0  0  0  0  0  0  0  0
   -2.1536   17.0852   44.1217 N   0  0  0  0  0  0  0  0  0  0  0  0
   -1.2738    7.6576   39.1737 C   0  0  0  0  0  0  0  0  0  0  0  0
   -0.2167   11.7768   39.1384 C   0  0  2  0  0  0  0  0  0  0  0  0
   -3.6909   16.5754   42.1509 C   0  0  1  0  0  0  0  0  0  0  0  0
   -4.1701   17.9022   42.0556 O   0  0  0  0  0  0  0  0  0  0  0  0
   -2.1588    8.6581   39.4027 C   0  0  1  0  0  0  0  0  0  0  0  0
   -1.9196    9.7203   40.3219 O   0  0  0  0  0  0  0  0  0  0  0  0
   -0.2485   12.9116   40.2452 C   0  0  2  0  0  0  0  0  0  0  0  0
   -1.2093   12.5594   41.2617 O   0  0  0  0  0  0  0  0  0  0  0  0
   -3.7128   15.9506   40.7237 C   0  0  0  0  0  0  0  0  0  0  0  0
   -2.6671   16.6198   39.8486 O   0  0  0  0  0  0  0  0  0  0  0  0
   -3.4918    8.7490   38.6991 C   0  0  0  0  0  0  0  0  0  0  0  0
   -3.4395    9.9289   37.8685 O   0  0  0  0  0  0  0  0  0  0  0  0
   -0.6875   14.2703   39.5772 C   0  0  1  0  0  0  0  0  0  0  0  0
   -0.7026   15.2608   40.5751 O   0  0  0  0  0  0  0  0  0  0  0  0
   -4.7521   15.8338   42.9742 C   0  0  0  0  0  0  0  0  0  0  0  0
   -1.4950   16.2858   45.1756 C   0  0  0  0  0  0  0  0  0  0  0  0
  1  2  1  6  0  0  0
  1  6  1  0  0  0  0
  1 21  1  0  0  0  0
  3  4  1  6  0  0  0
  3  8  1  0  0  0  0
  3 28  1  0  0  0  0
  5  9  1  0  0  0  0
  5 25  1  0  0  0  0
  5 29  1  1  0  0  0
  6  7  1  6  0  0  0
  6 11  1  0  0  0  0
  8 12  1  0  0  0  0
  9 10  1  1  0  0  0
  9 14  1  0  0  0  0
 11 16  1  0  0  0  0
 12 13  1  6  0  0  0
 12 17  1  0  0  0  0
 14 15  1  1  0  0  0
 14 18  1  0  0  0  0
 15 31  1  0  0  0  0
 16 20  1  0  0  0  0
 17  2  1  1  0  0  0
 17 22  1  0  0  0  0
 18 19  1  6  0  0  0
 18 24  1  0  0  0  0
 18 30  1  0  0  0  0
 20 21  1  0  0  0  0
 20 26  1  6  0  0  0
 22 23  1  1  0  0  0
 22 28  1  0  0  0  0
 24 25  1  0  0  0  0
 26 27  1  0  0  0  0
 28 29  1  1  0  0  0
M  END
>  <CHROM.1>
177.84168609,172.97601601,-109.21615992,-179.37673662,-114.01759885,70.78709662
-1.27651431,13.19353258,40.41457206,1.22330320,-0.96571960,-3.07928672

>  <Name>
ligand

>  <RI>
0

>  <Rbt.Current_Directory>
/home/itssahil/PROJECTS/Mol_Feturizer/New_Systems/rnas/4GPY

>  <Rbt.Executable>
rbdock ($Id: //depot/dev/client3/rdock/2013.1/src/exe/rbdock.cxx#4 $)

>  <Rbt.Library>
libRbt.so (2013.1, Build901 2013/11/27)

>  <Rbt.Parameter_File>
/export/apps/rDock/src/rDock_2013.1_src/data/scripts/dock_solv.prm

>  <Rbt.Receptor>
prm/pocket_docking_7.prm

>  <SCORE>
-7.20092

>  <SCORE.INTER>
-2.13504

>  <SCORE.INTER.CONST>
1

>  <SCORE.INTER.POLAR>
0

>  <SCORE.INTER.ROT>
6

>  <SCORE.INTER.SOLV>
7.73534

>  <SCORE.INTER.VDW>
-11.6018

>  <SCORE.INTER.norm>
-0.0688722

>  <SCORE.INTRA>
-5.06588

>  <SCORE.INTRA.DIHEDRAL>
-11.0329

>  <SCORE.INTRA.DIHEDRAL.0>
14.7001

>  <SCORE.INTRA.POLAR>
0

>  <SCORE.INTRA.POLAR.0>
0

>  <SCORE.INTRA.REPUL>
0

>  <SCORE.INTRA.REPUL.0>
0

>  <SCORE.INTRA.SOLV>
-1.49929

>  <SCORE.INTRA.SOLV.lig_0>
-65.3082

>  <SCORE.INTRA.VDW>
1.20022

>  <SCORE.INTRA.VDW.0>
-4.21408

>  <SCORE.INTRA.norm>
-0.163415

>  <SCORE.RESTR>
0

>  <SCORE.RESTR.CAVITY>
0

>  <SCORE.RESTR.norm>
0

>  <SCORE.SYSTEM>
0

>  <SCORE.SYSTEM.CONST>
0

>  <SCORE.SYSTEM.DIHEDRAL>
0

>  <SCORE.SYSTEM.SOLV>
0

>  <SCORE.SYSTEM.norm>
0

>  <SCORE.heavy>
31

>  <SCORE.norm>
-0.232288

>  <RMSD>
7.222

$$$$
ligand
 OpenBabel11021811493D
libRbt.so/2013.1/901 2013/11/27
 31 33  0  0  0  0  0  0  0  0999 V2000
    0.2071   20.8035   35.4120 C   0  0  2  0  0  0  0  0  0  0  0  0
    1.6112   20.9687   35.3615 O   0  0  0  0  0  0  0  0  0  0  0  0
    4.4843   17.9262   36.1019 C   0  0  2  0  0  0  0  0  0  0  0  0
    5.3790   17.0764   36.8121 N   0  0  0  0  0  0  0  0  0  0  0  0
    1.7560   15.5876   37.2652 C   0  0  2  0  0  0  0  0  0  0  0  0
   -0.3764   21.0836   33.9597 C   0  0  2  0  0  0  0  0  0  0  0  0
    0.2484   20.1707   33.0085 N   0  0  0  0  0  0  0  0  0  0  0  0
    4.9161   19.4371   36.3671 C   0  0  0  0  0  0  0  0  0  0  0  0
    2.6865   14.9655   38.3599 C   0  0  2  0  0  0  0  0  0  0  0  0
    3.3942   16.0074   38.9977 O   0  0  0  0  0  0  0  0  0  0  0  0
   -0.1375   22.5827   33.5477 C   0  0  0  0  0  0  0  0  0  0  0  0
    3.9308   20.3813   35.5639 C   0  0  2  0  0  0  0  0  0  0  0  0
    4.3184   21.7745   35.7889 N   0  0  0  0  0  0  0  0  0  0  0  0
    3.6757   13.9623   37.6622 C   0  0  1  0  0  0  0  0  0  0  0  0
    4.5901   13.3624   38.6862 N   0  0  0  0  0  0  0  0  0  0  0  0
   -0.3649   23.5719   34.7667 C   0  0  0  0  0  0  0  0  0  0  0  0
    2.4535   20.1396   36.0797 C   0  0  2  0  0  0  0  0  0  0  0  0
    2.8108   12.7801   36.9534 C   0  0  1  0  0  0  0  0  0  0  0  0
    2.0231   12.0424   37.8670 O   0  0  0  0  0  0  0  0  0  0  0  0
   -0.4698   23.1090   36.0361 C   0  0  1  0  0  0  0  0  0  0  0  0
   -0.3895   21.7275   36.3753 O   0  0  0  0  0  0  0  0  0  0  0  0
    2.0422   18.6283   35.8336 C   0  0  2  0  0  0  0  0  0  0  0  0
    0.7012   18.4139   36.3196 O   0  0  0  0  0  0  0  0  0  0  0  0
    1.8580   13.4100   35.8936 C   0  0  0  0  0  0  0  0  0  0  0  0
    1.0025   14.4860   36.5398 O   0  0  0  0  0  0  0  0  0  0  0  0
   -0.6791   24.0175   37.2240 C   0  0  0  0  0  0  0  0  0  0  0  0
    0.1140   25.1998   36.9832 O   0  0  0  0  0  0  0  0  0  0  0  0
    3.0288   17.6901   36.6282 C   0  0  1  0  0  0  0  0  0  0  0  0
    2.6485   16.3575   36.3901 O   0  0  0  0  0  0  0  0  0  0  0  0
    3.6515   11.7264   36.2209 C   0  0  0  0  0  0  0  0  0  0  0  0
    5.9651   13.9015   38.7309 C   0  0  0  0  0  0  0  0  0  0  0  0
  1  2  1  6  0  0  0
  1  6  1  0  0  0  0
  1 21  1  0  0  0  0
  3  4  1  1  0  0  0
  3  8  1  0  0  0  0
  3 28  1  0  0  0  0
  5  9  1  0  0  0  0
  5 25  1  0  0  0  0
  5 29  1  6  0  0  0
  6  7  1  6  0  0  0
  6 11  1  0  0  0  0
  8 12  1  0  0  0  0
  9 10  1  6  0  0  0
  9 14  1  0  0  0  0
 11 16  1  0  0  0  0
 12 13  1  1  0  0  0
 12 17  1  0  0  0  0
 14 15  1  1  0  0  0
 14 18  1  0  0  0  0
 15 31  1  0  0  0  0
 16 20  1  0  0  0  0
 17  2  1  6  0  0  0
 17 22  1  0  0  0  0
 18 19  1  1  0  0  0
 18 24  1  0  0  0  0
 18 30  1  0  0  0  0
 20 21  1  0  0  0  0
 20 26  1  1  0  0  0
 22 23  1  1  0  0  0
 22 28  1  0  0  0  0
 24 25  1  0  0  0  0
 26 27  1  0  0  0  0
 28 29  1  6  0  0  0
M  END
>  <CHROM.1>
-142.16229311,-86.38018446,-103.03009441,167.84733819,-38.18653467,147.22990947
2.14576963,18.16003506,36.40103031,1.91550546,-0.35207445,-0.09406218

>  <Name>
ligand

>  <RI>
0

>  <Rbt.Current_Directory>
/home/itssahil/PROJECTS/Mol_Feturizer/New_Systems/rnas/4GPY

>  <Rbt.Executable>
rbdock ($Id: //depot/dev/client3/rdock/2013.1/src/exe/rbdock.cxx#4 $)

>  <Rbt.Library>
libRbt.so (2013.1, Build901 2013/11/27)

>  <Rbt.Parameter_File>
/export/apps/rDock/src/rDock_2013.1_src/data/scripts/dock_solv.prm

>  <Rbt.Receptor>
prm/blind_docking_100.prm

>  <SCORE>
0.0362889

>  <SCORE.INTER>
-7.74488

>  <SCORE.INTER.CONST>
1

>  <SCORE.INTER.POLAR>
0

>  <SCORE.INTER.ROT>
6

>  <SCORE.INTER.SOLV>
20.6562

>  <SCORE.INTER.VDW>
-19.6487

>  <SCORE.INTER.norm>
-0.249835

>  <SCORE.INTRA>
4.1449

>  <SCORE.INTRA.DIHEDRAL>
2.09876

>  <SCORE.INTRA.DIHEDRAL.0>
14.7001

>  <SCORE.INTRA.POLAR>
0

>  <SCORE.INTRA.POLAR.0>
0

>  <SCORE.INTRA.REPUL>
0

>  <SCORE.INTRA.REPUL.0>
0

>  <SCORE.INTRA.SOLV>
0.873634

>  <SCORE.INTRA.SOLV.lig_0>
-65.3082

>  <SCORE.INTRA.VDW>
2.65871

>  <SCORE.INTRA.VDW.0>
-4.21408

>  <SCORE.INTRA.norm>
0.133707

>  <SCORE.RESTR>
3.63626

>  <SCORE.RESTR.CAVITY>
3.63626

>  <SCORE.RESTR.norm>
0.117299

>  <SCORE.SYSTEM>
0

>  <SCORE.SYSTEM.CONST>
0

>  <SCORE.SYSTEM.DIHEDRAL>
0

>  <SCORE.SYSTEM.SOLV>
0

>  <SCORE.SYSTEM.norm>
0

>  <SCORE.heavy>
31

>  <SCORE.norm>
0.00117061

>  <RMSD>
7.223

$$$$
ligand
 OpenBabel11021811493D
libRbt.so/2013.1/901 2013/11/27
 31 33  0  0  0  0  0  0  0  0999 V2000
   -2.5622   10.9121   39.6006 C   0  0  2  0  0  0  0  0  0  0  0  0
   -1.5225   11.3353   40.4615 O   0  0  0  0  0  0  0  0  0  0  0  0
   -1.8512   15.5436   39.9690 C   0  0  2  0  0  0  0  0  0  0  0  0
   -1.5978   16.9338   40.1421 N   0  0  0  0  0  0  0  0  0  0  0  0
    0.7612   14.7934   37.2583 C   0  0  2  0  0  0  0  0  0  0  0  0
   -2.7368    9.3409   39.7712 C   0  0  2  0  0  0  0  0  0  0  0  0
   -3.0271    9.0406   41.1691 N   0  0  0  0  0  0  0  0  0  0  0  0
   -2.2416   14.9281   41.3862 C   0  0  0  0  0  0  0  0  0  0  0  0
    2.1640   15.1718   37.8415 C   0  0  2  0  0  0  0  0  0  0  0  0
    2.2388   14.7125   39.1744 O   0  0  0  0  0  0  0  0  0  0  0  0
   -1.4458    8.5853   39.2849 C   0  0  0  0  0  0  0  0  0  0  0  0
   -2.5393   13.3852   41.1902 C   0  0  2  0  0  0  0  0  0  0  0  0
   -2.9086   12.8045   42.4818 N   0  0  0  0  0  0  0  0  0  0  0  0
    2.3256   16.7343   37.7780 C   0  0  1  0  0  0  0  0  0  0  0  0
    3.6557   17.1266   38.3451 N   0  0  0  0  0  0  0  0  0  0  0  0
   -0.8375    9.2415   37.9752 C   0  0  0  0  0  0  0  0  0  0  0  0
   -1.2379   12.6782   40.6302 C   0  0  2  0  0  0  0  0  0  0  0  0
    2.2417   17.2078   36.2234 C   0  0  1  0  0  0  0  0  0  0  0  0
    3.2502   16.6377   35.4127 O   0  0  0  0  0  0  0  0  0  0  0  0
   -1.2508   10.4573   37.5423 C   0  0  1  0  0  0  0  0  0  0  0  0
   -2.2451   11.2299   38.2092 O   0  0  0  0  0  0  0  0  0  0  0  0
   -0.8440   13.3139   39.2322 C   0  0  2  0  0  0  0  0  0  0  0  0
    0.3501   12.6742   38.7370 O   0  0  0  0  0  0  0  0  0  0  0  0
    0.8591   16.7926   35.6373 C   0  0  0  0  0  0  0  0  0  0  0  0
    0.6396   15.3023   35.8321 O   0  0  0  0  0  0  0  0  0  0  0  0
   -0.6921   11.1193   36.3054 C   0  0  0  0  0  0  0  0  0  0  0  0
   -1.7810   11.2151   35.3620 O   0  0  0  0  0  0  0  0  0  0  0  0
   -0.5553   14.8511   39.4284 C   0  0  1  0  0  0  0  0  0  0  0  0
   -0.2146   15.3931   38.1765 O   0  0  0  0  0  0  0  0  0  0  0  0
    2.3759   18.7211   36.0095 C   0  0  0  0  0  0  0  0  0  0  0  0
    4.8420   16.5070   37.7190 C   0  0  0  0  0  0  0  0  0  0  0  0
  1  2  1  1  0  0  0
  1  6  1  0  0  0  0
  1 21  1  0  0  0  0
  3  4  1  1  0  0  0
  3  8  1  0  0  0  0
  3 28  1  0  0  0  0
  5  9  1  0  0  0  0
  5 25  1  0  0  0  0
  5 29  1  1  0  0  0
  6  7  1  1  0  0  0
  6 11  1  0  0  0  0
  8 12  1  0  0  0  0
  9 10  1  1  0  0  0
  9 14  1  0  0  0  0
 11 16  1  0  0  0  0
 12 13  1  1  0  0  0
 12 17  1  0  0  0  0
 14 15  1  6  0  0  0
 14 18  1  0  0  0  0
 15 31  1  0  0  0  0
 16 20  1  0  0  0  0
 17  2  1  6  0  0  0
 17 22  1  0  0  0  0
 18 19  1  6  0  0  0
 18 24  1  0  0  0  0
 18 30  1  0  0  0  0
 20 21  1  0  0  0  0
 20 26  1  1  0  0  0
 22 23  1  1  0  0  0
 22 28  1  0  0  0  0
 24 25  1  0  0  0  0
 26 27  1  0  0  0  0
 28 29  1  6  0  0  0
M  END
>  <CHROM.1>
-173.25106906,-77.76315999,56.51311599,59.48010569,115.25160292,-166.40332650
-0.17512665,13.70461816,38.48240594,-2.71437266,0.90975133,0.63440610

>  <Name>
ligand

>  <RI>
0

>  <Rbt.Current_Directory>
/home/itssahil/PROJECTS/Mol_Feturizer/New_Systems/rnas/4GPY

>  <Rbt.Executable>
rbdock ($Id: //depot/dev/client3/rdock/2013.1/src/exe/rbdock.cxx#4 $)

>  <Rbt.Library>
libRbt.so (2013.1, Build901 2013/11/27)

>  <Rbt.Parameter_File>
/export/apps/rDock/src/rDock_2013.1_src/data/scripts/dock_solv.prm

>  <Rbt.Receptor>
prm/pocket_docking_3.prm

>  <SCORE>
-3.88214

>  <SCORE.INTER>
-3.46998

>  <SCORE.INTER.CONST>
1

>  <SCORE.INTER.POLAR>
0

>  <SCORE.INTER.ROT>
6

>  <SCORE.INTER.SOLV>
14.8807

>  <SCORE.INTER.VDW>
-14.8735

>  <SCORE.INTER.norm>
-0.111935

>  <SCORE.INTRA>
-0.412161

>  <SCORE.INTRA.DIHEDRAL>
-10.4263

>  <SCORE.INTRA.DIHEDRAL.0>
14.7001

>  <SCORE.INTRA.POLAR>
0

>  <SCORE.INTRA.POLAR.0>
0

>  <SCORE.INTRA.REPUL>
0

>  <SCORE.INTRA.REPUL.0>
0

>  <SCORE.INTRA.SOLV>
-0.456071

>  <SCORE.INTRA.SOLV.lig_0>
-65.3082

>  <SCORE.INTRA.VDW>
5.029

>  <SCORE.INTRA.VDW.0>
-4.21408

>  <SCORE.INTRA.norm>
-0.0132955

>  <SCORE.RESTR>
0

>  <SCORE.RESTR.CAVITY>
0

>  <SCORE.RESTR.norm>
0

>  <SCORE.SYSTEM>
0

>  <SCORE.SYSTEM.CONST>
0

>  <SCORE.SYSTEM.DIHEDRAL>
0

>  <SCORE.SYSTEM.SOLV>
0

>  <SCORE.SYSTEM.norm>
0

>  <SCORE.heavy>
31

>  <SCORE.norm>
-0.12523

>  <RMSD>
7.267

$$$$
ligand
 OpenBabel11021811493D
libRbt.so/2013.1/901 2013/11/27
 31 33  0  0  0  0  0  0  0  0999 V2000
   -1.9628   17.0569   42.2066 C   0  0  2  0  0  0  0  0  0  0  0  0
   -1.7565   15.7012   42.5543 O   0  0  0  0  0  0  0  0  0  0  0  0
    2.4600   15.7294   43.0835 C   0  0  2  0  0  0  0  0  0  0  0  0
    3.7713   15.2716   43.3964 N   0  0  0  0  0  0  0  0  0  0  0  0
    4.0561   14.5096   40.6454 C   0  0  2  0  0  0  0  0  0  0  0  0
   -3.5101   17.2592   41.9012 C   0  0  2  0  0  0  0  0  0  0  0  0
   -4.2844   16.8712   43.0752 N   0  0  0  0  0  0  0  0  0  0  0  0
    1.5491   15.5552   44.3795 C   0  0  0  0  0  0  0  0  0  0  0  0
    4.6845   15.2863   39.4399 C   0  0  2  0  0  0  0  0  0  0  0  0
    4.5892   16.6716   39.6952 O   0  0  0  0  0  0  0  0  0  0  0  0
   -3.9379   16.4248   40.6384 C   0  0  0  0  0  0  0  0  0  0  0  0
    0.0950   16.0797   44.0361 C   0  0  2  0  0  0  0  0  0  0  0  0
   -0.7542   15.9355   45.2192 N   0  0  0  0  0  0  0  0  0  0  0  0
    3.8974   14.9023   38.1344 C   0  0  1  0  0  0  0  0  0  0  0  0
    4.4688   15.6443   36.9650 N   0  0  0  0  0  0  0  0  0  0  0  0
   -2.8297   16.4629   39.5042 C   0  0  0  0  0  0  0  0  0  0  0  0
   -0.4909   15.2226   42.8406 C   0  0  2  0  0  0  0  0  0  0  0  0
    4.0479   13.3016   37.8827 C   0  0  1  0  0  0  0  0  0  0  0  0
    5.3895   12.8884   37.7134 O   0  0  0  0  0  0  0  0  0  0  0  0
   -1.5827   16.9297   39.7566 C   0  0  1  0  0  0  0  0  0  0  0  0
   -1.1718   17.4169   41.0309 O   0  0  0  0  0  0  0  0  0  0  0  0
    0.4353   15.3832   41.5638 C   0  0  2  0  0  0  0  0  0  0  0  0
   -0.0977   14.5880   40.4850 O   0  0  0  0  0  0  0  0  0  0  0  0
    3.4572   12.5351   39.1038 C   0  0  0  0  0  0  0  0  0  0  0  0
    4.1169   13.0142   40.3853 O   0  0  0  0  0  0  0  0  0  0  0  0
   -0.4979   16.9760   38.7072 C   0  0  0  0  0  0  0  0  0  0  0  0
   -0.0364   18.3430   38.6519 O   0  0  0  0  0  0  0  0  0  0  0  0
    1.8840   14.8674   41.9103 C   0  0  1  0  0  0  0  0  0  0  0  0
    2.6870   15.0251   40.7669 O   0  0  0  0  0  0  0  0  0  0  0  0
    3.3174   12.7803   36.6383 C   0  0  0  0  0  0  0  0  0  0  0  0
    3.8780   16.9681   36.6786 C   0  0  0  0  0  0  0  0  0  0  0  0
  1  2  1  6  0  0  0
  1  6  1  0  0  0  0
  1 21  1  0  0  0  0
  3  4  1  1  0  0  0
  3  8  1  0  0  0  0
  3 28  1  0  0  0  0
  5  9  1  0  0  0  0
  5 25  1  0  0  0  0
  5 29  1  6  0  0  0
  6  7  1  1  0  0  0
  6 11  1  0  0  0  0
  8 12  1  0  0  0  0
  9 10  1  1  0  0  0
  9 14  1  0  0  0  0
 11 16  1  0  0  0  0
 12 13  1  1  0  0  0
 12 17  1  0  0  0  0
 14 15  1  6  0  0  0
 14 18  1  0  0  0  0
 15 31  1  0  0  0  0
 16 20  1  0  0  0  0
 17  2  1  6  0  0  0
 17 22  1  0  0  0  0
 18 19  1  6  0  0  0
 18 24  1  0  0  0  0
 18 30  1  0  0  0  0
 20 21  1  0  0  0  0
 20 26  1  1  0  0  0
 22 23  1  6  0  0  0
 22 28  1  0  0  0  0
 24 25  1  0  0  0  0
 26 27  1  0  0  0  0
 28 29  1  6  0  0  0
M  END
>  <CHROM.1>
178.32823801,-162.80149882,-89.56199338,57.50859873,124.69956532,69.18909593
1.18152298,15.53445534,40.57029146,2.67892142,-0.39490635,1.68722431

>  <Name>
ligand

>  <RI>
0

>  <Rbt.Current_Directory>
/home/itssahil/PROJECTS/Mol_Feturizer/New_Systems/rnas/4GPY

>  <Rbt.Executable>
rbdock ($Id: //depot/dev/client3/rdock/2013.1/src/exe/rbdock.cxx#4 $)

>  <Rbt.Library>
libRbt.so (2013.1, Build901 2013/11/27)

>  <Rbt.Parameter_File>
/export/apps/rDock/src/rDock_2013.1_src/data/scripts/dock_solv.prm

>  <Rbt.Receptor>
prm/pocket_docking_7.prm

>  <SCORE>
-9.20579

>  <SCORE.INTER>
-6.02854

>  <SCORE.INTER.CONST>
1

>  <SCORE.INTER.POLAR>
0

>  <SCORE.INTER.ROT>
6

>  <SCORE.INTER.SOLV>
12.2048

>  <SCORE.INTER.VDW>
-15.6873

>  <SCORE.INTER.norm>
-0.194469

>  <SCORE.INTRA>
-3.17725

>  <SCORE.INTRA.DIHEDRAL>
-10.5788

>  <SCORE.INTRA.DIHEDRAL.0>
14.7001

>  <SCORE.INTRA.POLAR>
0

>  <SCORE.INTRA.POLAR.0>
0

>  <SCORE.INTRA.REPUL>
0

>  <SCORE.INTRA.REPUL.0>
0

>  <SCORE.INTRA.SOLV>
0.000294077

>  <SCORE.INTRA.SOLV.lig_0>
-65.3082

>  <SCORE.INTRA.VDW>
2.11202

>  <SCORE.INTRA.VDW.0>
-4.21408

>  <SCORE.INTRA.norm>
-0.102492

>  <SCORE.RESTR>
0

>  <SCORE.RESTR.CAVITY>
0

>  <SCORE.RESTR.norm>
0

>  <SCORE.SYSTEM>
0

>  <SCORE.SYSTEM.CONST>
0

>  <SCORE.SYSTEM.DIHEDRAL>
0

>  <SCORE.SYSTEM.SOLV>
0

>  <SCORE.SYSTEM.norm>
0

>  <SCORE.heavy>
31

>  <SCORE.norm>
-0.296961

>  <RMSD>
7.267

$$$$
ligand
 OpenBabel11021811493D
libRbt.so/2013.1/901 2013/11/27
 31 33  0  0  0  0  0  0  0  0999 V2000
   -3.4778   13.0302   40.5588 C   0  0  2  0  0  0  0  0  0  0  0  0
   -2.4918   13.6056   41.3943 O   0  0  0  0  0  0  0  0  0  0  0  0
   -0.7344   16.3552   38.6719 C   0  0  2  0  0  0  0  0  0  0  0  0
    0.0619   17.4299   38.1844 N   0  0  0  0  0  0  0  0  0  0  0  0
    2.0991   15.5643   37.6547 C   0  0  2  0  0  0  0  0  0  0  0  0
   -4.3136   11.9904   41.4238 C   0  0  2  0  0  0  0  0  0  0  0  0
   -4.9001   12.6812   42.5673 N   0  0  0  0  0  0  0  0  0  0  0  0
   -1.7309   16.9331   39.7731 C   0  0  0  0  0  0  0  0  0  0  0  0
    2.8642   14.5531   36.7364 C   0  0  2  0  0  0  0  0  0  0  0  0
    1.9320   13.9186   35.8868 O   0  0  0  0  0  0  0  0  0  0  0  0
   -3.3998   10.7978   41.8893 C   0  0  0  0  0  0  0  0  0  0  0  0
   -2.6277   15.7405   40.3033 C   0  0  2  0  0  0  0  0  0  0  0  0
   -3.5563   16.2553   41.3105 N   0  0  0  0  0  0  0  0  0  0  0  0
    3.5937   13.5025   37.6506 C   0  0  1  0  0  0  0  0  0  0  0  0
    4.3230   12.5114   36.7960 N   0  0  0  0  0  0  0  0  0  0  0  0
   -2.3923   10.3484   40.7496 C   0  0  0  0  0  0  0  0  0  0  0  0
   -1.6892   14.6381   40.9443 C   0  0  2  0  0  0  0  0  0  0  0  0
    4.6603   14.2837   38.5994 C   0  0  1  0  0  0  0  0  0  0  0  0
    5.6508   14.9791   37.8683 O   0  0  0  0  0  0  0  0  0  0  0  0
   -2.1945   11.1107   39.6468 C   0  0  1  0  0  0  0  0  0  0  0  0
   -2.8609   12.3498   39.4213 O   0  0  0  0  0  0  0  0  0  0  0  0
   -0.6858   14.0870   39.8475 C   0  0  2  0  0  0  0  0  0  0  0  0
    0.1743   13.0945   40.4437 O   0  0  0  0  0  0  0  0  0  0  0  0
    3.8975   15.3167   39.4819 C   0  0  0  0  0  0  0  0  0  0  0  0
    3.0738   16.2417   38.6026 O   0  0  0  0  0  0  0  0  0  0  0  0
   -1.2396   10.7222   38.5434 C   0  0  0  0  0  0  0  0  0  0  0  0
   -2.0302   10.5881   37.3427 O   0  0  0  0  0  0  0  0  0  0  0  0
    0.2007   15.2772   39.3159 C   0  0  1  0  0  0  0  0  0  0  0  0
    1.0767   14.7661   38.3421 O   0  0  0  0  0  0  0  0  0  0  0  0
    5.4444   13.3777   39.5576 C   0  0  0  0  0  0  0  0  0  0  0  0
    3.5454   11.3376   36.3475 C   0  0  0  0  0  0  0  0  0  0  0  0
  1  2  1  1  0  0  0
  1  6  1  0  0  0  0
  1 21  1  0  0  0  0
  3  4  1  1  0  0  0
  3  8  1  0  0  0  0
  3 28  1  0  0  0  0
  5  9  1  0  0  0  0
  5 25  1  0  0  0  0
  5 29  1  1  0  0  0
  6  7  1  1  0  0  0
  6 11  1  0  0  0  0
  8 12  1  0  0  0  0
  9 10  1  6  0  0  0
  9 14  1  0  0  0  0
 11 16  1  0  0  0  0
 12 13  1  1  0  0  0
 12 17  1  0  0  0  0
 14 15  1  6  0  0  0
 14 18  1  0  0  0  0
 15 31  1  0  0  0  0
 16 20  1  0  0  0  0
 17  2  1  6  0  0  0
 17 22  1  0  0  0  0
 18 19  1  6  0  0  0
 18 24  1  0  0  0  0
 18 30  1  0  0  0  0
 20 21  1  0  0  0  0
 20 26  1  1  0  0  0
 22 23  1  1  0  0  0
 22 28  1  0  0  0  0
 24 25  1  0  0  0  0
 26 27  1  0  0  0  0
 28 29  1  6  0  0  0
M  END
>  <CHROM.1>
-174.10837530,176.90081380,-87.37667171,49.64874200,118.95635914,64.12722754
0.10826725,13.76470040,39.19500091,-3.01296320,0.43350563,0.16062590

>  <Name>
ligand

>  <RI>
0

>  <Rbt.Current_Directory>
/home/itssahil/PROJECTS/Mol_Feturizer/New_Systems/rnas/4GPY

>  <Rbt.Executable>
rbdock ($Id: //depot/dev/client3/rdock/2013.1/src/exe/rbdock.cxx#4 $)

>  <Rbt.Library>
libRbt.so (2013.1, Build901 2013/11/27)

>  <Rbt.Parameter_File>
/export/apps/rDock/src/rDock_2013.1_src/data/scripts/dock_solv.prm

>  <Rbt.Receptor>
prm/pocket_docking_4.prm

>  <SCORE>
-8.86362

>  <SCORE.INTER>
-4.75458

>  <SCORE.INTER.CONST>
1

>  <SCORE.INTER.POLAR>
0

>  <SCORE.INTER.ROT>
6

>  <SCORE.INTER.SOLV>
15.2478

>  <SCORE.INTER.VDW>
-15.8523

>  <SCORE.INTER.norm>
-0.153374

>  <SCORE.INTRA>
-4.10904

>  <SCORE.INTRA.DIHEDRAL>
-11.6744

>  <SCORE.INTRA.DIHEDRAL.0>
14.7001

>  <SCORE.INTRA.POLAR>
0

>  <SCORE.INTRA.POLAR.0>
0

>  <SCORE.INTRA.REPUL>
0

>  <SCORE.INTRA.REPUL.0>
0

>  <SCORE.INTRA.SOLV>
0.308013

>  <SCORE.INTRA.SOLV.lig_0>
-65.3082

>  <SCORE.INTRA.VDW>
1.57414

>  <SCORE.INTRA.VDW.0>
-4.21408

>  <SCORE.INTRA.norm>
-0.13255

>  <SCORE.RESTR>
0

>  <SCORE.RESTR.CAVITY>
0

>  <SCORE.RESTR.norm>
0

>  <SCORE.SYSTEM>
0

>  <SCORE.SYSTEM.CONST>
0

>  <SCORE.SYSTEM.DIHEDRAL>
0

>  <SCORE.SYSTEM.SOLV>
0

>  <SCORE.SYSTEM.norm>
0

>  <SCORE.heavy>
31

>  <SCORE.norm>
-0.285923

>  <RMSD>
7.270

$$$$
ligand
 OpenBabel11021811493D
libRbt.so/2013.1/901 2013/11/27
 31 33  0  0  0  0  0  0  0  0999 V2000
   -3.6342   12.9285   41.2349 C   0  0  2  0  0  0  0  0  0  0  0  0
   -2.4308   13.3221   41.8660 O   0  0  0  0  0  0  0  0  0  0  0  0
   -1.1494   16.3898   39.2189 C   0  0  2  0  0  0  0  0  0  0  0  0
   -0.4332   17.5169   38.7254 N   0  0  0  0  0  0  0  0  0  0  0  0
    1.3370   15.7622   37.5371 C   0  0  2  0  0  0  0  0  0  0  0  0
   -4.3284   11.8212   42.1406 C   0  0  2  0  0  0  0  0  0  0  0  0
   -4.5624   12.3697   43.4721 N   0  0  0  0  0  0  0  0  0  0  0  0
   -1.9084   16.8259   40.5505 C   0  0  0  0  0  0  0  0  0  0  0  0
    2.0331   14.8470   36.4745 C   0  0  2  0  0  0  0  0  0  0  0  0
    1.0389   14.1303   35.7738 O   0  0  0  0  0  0  0  0  0  0  0  0
   -3.4388   10.5258   42.2091 C   0  0  0  0  0  0  0  0  0  0  0  0
   -2.7180   15.5764   41.0901 C   0  0  2  0  0  0  0  0  0  0  0  0
   -3.4295   15.9616   42.3096 N   0  0  0  0  0  0  0  0  0  0  0  0
    3.0076   13.8662   37.2227 C   0  0  1  0  0  0  0  0  0  0  0  0
    3.6773   12.9664   36.2295 N   0  0  0  0  0  0  0  0  0  0  0  0
   -2.7754   10.1922   40.8075 C   0  0  0  0  0  0  0  0  0  0  0  0
   -1.7024   14.4026   41.4027 C   0  0  2  0  0  0  0  0  0  0  0  0
    4.1357   14.7415   38.0033 C   0  0  1  0  0  0  0  0  0  0  0  0
    4.9142   15.5446   37.1382 O   0  0  0  0  0  0  0  0  0  0  0  0
   -2.7794   11.0946   39.7964 C   0  0  1  0  0  0  0  0  0  0  0  0
   -3.3684   12.3876   39.9028 O   0  0  0  0  0  0  0  0  0  0  0  0
   -0.9352   13.9926   40.0772 C   0  0  2  0  0  0  0  0  0  0  0  0
   -0.0023   12.9334   40.3745 O   0  0  0  0  0  0  0  0  0  0  0  0
    3.4337   15.6790   39.0308 C   0  0  0  0  0  0  0  0  0  0  0  0
    2.3852   16.5249   38.3290 O   0  0  0  0  0  0  0  0  0  0  0  0
   -2.1528   10.8187   38.4504 C   0  0  0  0  0  0  0  0  0  0  0  0
   -0.7338   11.0364   38.6045 O   0  0  0  0  0  0  0  0  0  0  0  0
   -0.1360   15.2398   39.5380 C   0  0  1  0  0  0  0  0  0  0  0  0
    0.5301   14.8542   38.3613 O   0  0  0  0  0  0  0  0  0  0  0  0
    5.1568   13.9095   38.7901 C   0  0  0  0  0  0  0  0  0  0  0  0
    3.0845   11.6236   36.0601 C   0  0  0  0  0  0  0  0  0  0  0  0
  1  2  1  1  0  0  0
  1  6  1  0  0  0  0
  1 21  1  0  0  0  0
  3  4  1  1  0  0  0
  3  8  1  0  0  0  0
  3 28  1  0  0  0  0
  5  9  1  0  0  0  0
  5 25  1  0  0  0  0
  5 29  1  1  0  0  0
  6  7  1  1  0  0  0
  6 11  1  0  0  0  0
  8 12  1  0  0  0  0
  9 10  1  1  0  0  0
  9 14  1  0  0  0  0
 11 16  1  0  0  0  0
 12 13  1  1  0  0  0
 12 17  1  0  0  0  0
 14 15  1  6  0  0  0
 14 18  1  0  0  0  0
 15 31  1  0  0  0  0
 16 20  1  0  0  0  0
 17  2  1  6  0  0  0
 17 22  1  0  0  0  0
 18 19  1  6  0  0  0
 18 24  1  0  0  0  0
 18 30  1  0  0  0  0
 20 21  1  0  0  0  0
 20 26  1  1  0  0  0
 22 23  1  1  0  0  0
 22 28  1  0  0  0  0
 24 25  1  0  0  0  0
 26 27  1  0  0  0  0
 28 29  1  6  0  0  0
M  END
>  <CHROM.1>
-171.10173805,172.02327057,-97.82409761,44.02175028,-80.21974161,58.93891029
-0.21581076,13.84619064,39.34842126,2.99899204,-0.59835801,-2.92965600

>  <Name>
ligand

>  <RI>
0

>  <Rbt.Current_Directory>
/home/itssahil/PROJECTS/Mol_Feturizer/New_Systems/rnas/4GPY

>  <Rbt.Executable>
rbdock ($Id: //depot/dev/client3/rdock/2013.1/src/exe/rbdock.cxx#4 $)

>  <Rbt.Library>
libRbt.so (2013.1, Build901 2013/11/27)

>  <Rbt.Parameter_File>
/export/apps/rDock/src/rDock_2013.1_src/data/scripts/dock_solv.prm

>  <Rbt.Receptor>
prm/pocket_docking_5.prm

>  <SCORE>
-8.38977

>  <SCORE.INTER>
-6.01245

>  <SCORE.INTER.CONST>
1

>  <SCORE.INTER.POLAR>
0

>  <SCORE.INTER.ROT>
6

>  <SCORE.INTER.SOLV>
15.4412

>  <SCORE.INTER.VDW>
-16.7554

>  <SCORE.INTER.norm>
-0.19395

>  <SCORE.INTRA>
-2.37732

>  <SCORE.INTRA.DIHEDRAL>
-8.85381

>  <SCORE.INTRA.DIHEDRAL.0>
14.7001

>  <SCORE.INTRA.POLAR>
0

>  <SCORE.INTRA.POLAR.0>
0

>  <SCORE.INTRA.REPUL>
0

>  <SCORE.INTRA.REPUL.0>
0

>  <SCORE.INTRA.SOLV>
1.32992

>  <SCORE.INTRA.SOLV.lig_0>
-65.3082

>  <SCORE.INTRA.VDW>
1.38462

>  <SCORE.INTRA.VDW.0>
-4.21408

>  <SCORE.INTRA.norm>
-0.0766877

>  <SCORE.RESTR>
0

>  <SCORE.RESTR.CAVITY>
0

>  <SCORE.RESTR.norm>
0

>  <SCORE.SYSTEM>
0

>  <SCORE.SYSTEM.CONST>
0

>  <SCORE.SYSTEM.DIHEDRAL>
0

>  <SCORE.SYSTEM.SOLV>
0

>  <SCORE.SYSTEM.norm>
0

>  <SCORE.heavy>
31

>  <SCORE.norm>
-0.270638

>  <RMSD>
7.316

$$$$
ligand
 OpenBabel11021811493D
libRbt.so/2013.1/901 2013/11/27
 31 33  0  0  0  0  0  0  0  0999 V2000
   -2.3101   11.6007   38.7211 C   0  0  2  0  0  0  0  0  0  0  0  0
   -1.6825   12.0396   39.9106 O   0  0  0  0  0  0  0  0  0  0  0  0
   -1.0732   16.1340   38.9489 C   0  0  2  0  0  0  0  0  0  0  0  0
   -0.7551   17.5123   39.1103 N   0  0  0  0  0  0  0  0  0  0  0  0
    1.2870   15.1382   37.0012 C   0  0  2  0  0  0  0  0  0  0  0  0
   -2.4684   10.0206   38.7996 C   0  0  2  0  0  0  0  0  0  0  0  0
   -3.2431    9.6755   39.9868 N   0  0  0  0  0  0  0  0  0  0  0  0
   -2.2558   15.7745   39.9548 C   0  0  0  0  0  0  0  0  0  0  0  0
    2.7420   15.4588   36.5200 C   0  0  2  0  0  0  0  0  0  0  0  0
    3.6561   14.8246   37.3892 O   0  0  0  0  0  0  0  0  0  0  0  0
   -1.0583    9.3241   38.8203 C   0  0  0  0  0  0  0  0  0  0  0  0
   -2.6203   14.2454   39.7632 C   0  0  2  0  0  0  0  0  0  0  0  0
   -3.7122   13.8993   40.6741 N   0  0  0  0  0  0  0  0  0  0  0  0
    2.9414   17.0181   36.5388 C   0  0  1  0  0  0  0  0  0  0  0  0
    4.3330   17.3534   36.0966 N   0  0  0  0  0  0  0  0  0  0  0  0
   -0.0364   10.0338   37.8364 C   0  0  0  0  0  0  0  0  0  0  0  0
   -1.3432   13.3684   40.0899 C   0  0  2  0  0  0  0  0  0  0  0  0
    1.8727   17.6961   35.5159 C   0  0  1  0  0  0  0  0  0  0  0  0
    2.0263   17.2588   34.1800 O   0  0  0  0  0  0  0  0  0  0  0  0
   -0.3111   11.2444   37.2927 C   0  0  1  0  0  0  0  0  0  0  0  0
   -1.5137   11.9640   37.5501 O   0  0  0  0  0  0  0  0  0  0  0  0
   -0.1651   13.7504   39.1001 C   0  0  2  0  0  0  0  0  0  0  0  0
    0.9979   12.9574   39.4144 O   0  0  0  0  0  0  0  0  0  0  0  0
    0.4278   17.3398   35.9772 C   0  0  0  0  0  0  0  0  0  0  0  0
    0.2797   15.8332   36.1013 O   0  0  0  0  0  0  0  0  0  0  0  0
    0.6375   11.9564   36.3581 C   0  0  0  0  0  0  0  0  0  0  0  0
   -0.1804   12.6641   35.4016 O   0  0  0  0  0  0  0  0  0  0  0  0
    0.1910   15.2746   39.2873 C   0  0  1  0  0  0  0  0  0  0  0  0
    1.2320   15.5907   38.3966 O   0  0  0  0  0  0  0  0  0  0  0  0
    1.9470   19.2265   35.4382 C   0  0  0  0  0  0  0  0  0  0  0  0
    5.0819   18.2963   36.9530 C   0  0  0  0  0  0  0  0  0  0  0  0
  1  2  1  1  0  0  0
  1  6  1  0  0  0  0
  1 21  1  0  0  0  0
  3  4  1  1  0  0  0
  3  8  1  0  0  0  0
  3 28  1  0  0  0  0
  5  9  1  0  0  0  0
  5 25  1  0  0  0  0
  5 29  1  1  0  0  0
  6  7  1  1  0  0  0
  6 11  1  0  0  0  0
  8 12  1  0  0  0  0
  9 10  1  1  0  0  0
  9 14  1  0  0  0  0
 11 16  1  0  0  0  0
 12 13  1  1  0  0  0
 12 17  1  0  0  0  0
 14 15  1  6  0  0  0
 14 18  1  0  0  0  0
 15 31  1  0  0  0  0
 16 20  1  0  0  0  0
 17  2  1  6  0  0  0
 17 22  1  0  0  0  0
 18 19  1  6  0  0  0
 18 24  1  0  0  0  0
 18 30  1  0  0  0  0
 20 21  1  0  0  0  0
 20 26  1  1  0  0  0
 22 23  1  1  0  0  0
 22 28  1  0  0  0  0
 24 25  1  0  0  0  0
 26 27  1  0  0  0  0
 28 29  1  6  0  0  0
M  END
>  <CHROM.1>
176.18881742,-167.85322894,-131.11586676,50.53526543,145.51082794,-75.50030552
0.19366672,14.34588664,37.81272751,-2.38650402,0.69168893,0.14205799

>  <Name>
ligand

>  <RI>
0

>  <Rbt.Current_Directory>
/home/itssahil/PROJECTS/Mol_Feturizer/New_Systems/rnas/4GPY

>  <Rbt.Executable>
rbdock ($Id: //depot/dev/client3/rdock/2013.1/src/exe/rbdock.cxx#4 $)

>  <Rbt.Library>
libRbt.so (2013.1, Build901 2013/11/27)

>  <Rbt.Parameter_File>
/export/apps/rDock/src/rDock_2013.1_src/data/scripts/dock_solv.prm

>  <Rbt.Receptor>
prm/pocket_docking_3.prm

>  <SCORE>
-8.70413

>  <SCORE.INTER>
-5.53011

>  <SCORE.INTER.CONST>
1

>  <SCORE.INTER.POLAR>
0

>  <SCORE.INTER.ROT>
6

>  <SCORE.INTER.SOLV>
19.3943

>  <SCORE.INTER.VDW>
-17.7515

>  <SCORE.INTER.norm>
-0.178391

>  <SCORE.INTRA>
-3.17402

>  <SCORE.INTRA.DIHEDRAL>
-8.84389

>  <SCORE.INTRA.DIHEDRAL.0>
14.7001

>  <SCORE.INTRA.POLAR>
0

>  <SCORE.INTRA.POLAR.0>
0

>  <SCORE.INTRA.REPUL>
0

>  <SCORE.INTRA.REPUL.0>
0

>  <SCORE.INTRA.SOLV>
0.800612

>  <SCORE.INTRA.SOLV.lig_0>
-65.3082

>  <SCORE.INTRA.VDW>
0.847619

>  <SCORE.INTRA.VDW.0>
-4.21408

>  <SCORE.INTRA.norm>
-0.102388

>  <SCORE.RESTR>
0

>  <SCORE.RESTR.CAVITY>
0

>  <SCORE.RESTR.norm>
0

>  <SCORE.SYSTEM>
0

>  <SCORE.SYSTEM.CONST>
0

>  <SCORE.SYSTEM.DIHEDRAL>
0

>  <SCORE.SYSTEM.SOLV>
0

>  <SCORE.SYSTEM.norm>
0

>  <SCORE.heavy>
31

>  <SCORE.norm>
-0.280778

>  <RMSD>
7.317

$$$$
ligand
 OpenBabel11021811493D
libRbt.so/2013.1/901 2013/11/27
 31 33  0  0  0  0  0  0  0  0999 V2000
   -1.1938   10.4018   41.1655 C   0  0  2  0  0  0  0  0  0  0  0  0
   -0.4428   11.1744   40.2487 O   0  0  0  0  0  0  0  0  0  0  0  0
   -0.7255   15.2498   39.0779 C   0  0  2  0  0  0  0  0  0  0  0  0
   -1.2337   16.4360   38.4766 N   0  0  0  0  0  0  0  0  0  0  0  0
   -2.5117   17.0199   40.9164 C   0  0  2  0  0  0  0  0  0  0  0  0
   -0.2876    9.1875   41.6477 C   0  0  2  0  0  0  0  0  0  0  0  0
    0.9356    9.7113   42.2462 N   0  0  0  0  0  0  0  0  0  0  0  0
   -0.5195   14.1600   37.9335 C   0  0  0  0  0  0  0  0  0  0  0  0
   -2.5506   17.6953   42.3283 C   0  0  2  0  0  0  0  0  0  0  0  0
   -1.2462   17.6905   42.8683 O   0  0  0  0  0  0  0  0  0  0  0  0
    0.0357    8.2273   40.4446 C   0  0  0  0  0  0  0  0  0  0  0  0
    0.0613   12.8464   38.6004 C   0  0  2  0  0  0  0  0  0  0  0  0
    0.2655   11.8361   37.5614 N   0  0  0  0  0  0  0  0  0  0  0  0
   -3.5380   16.8826   43.2428 C   0  0  1  0  0  0  0  0  0  0  0  0
   -3.5832   17.4989   44.6076 N   0  0  0  0  0  0  0  0  0  0  0  0
   -1.2177    8.0340   39.4921 C   0  0  0  0  0  0  0  0  0  0  0  0
   -0.9726   12.3164   39.6761 C   0  0  2  0  0  0  0  0  0  0  0  0
   -5.0240   16.9286   42.5813 C   0  0  1  0  0  0  0  0  0  0  0  0
   -5.5364   18.2403   42.4540 O   0  0  0  0  0  0  0  0  0  0  0  0
   -2.3053    8.8365   39.5914 C   0  0  1  0  0  0  0  0  0  0  0  0
   -2.4138    9.8948   40.5392 O   0  0  0  0  0  0  0  0  0  0  0  0
   -1.1891   13.4169   40.7968 C   0  0  2  0  0  0  0  0  0  0  0  0
   -2.1428   12.9316   41.7638 O   0  0  0  0  0  0  0  0  0  0  0  0
   -4.9701   16.2916   41.1604 C   0  0  0  0  0  0  0  0  0  0  0  0
   -3.9091   16.9832   40.3219 O   0  0  0  0  0  0  0  0  0  0  0  0
   -3.5150    8.6901   38.6995 C   0  0  0  0  0  0  0  0  0  0  0  0
   -3.4531    9.7685   37.7414 O   0  0  0  0  0  0  0  0  0  0  0  0
   -1.7602   14.7260   40.1295 C   0  0  1  0  0  0  0  0  0  0  0  0
   -1.9380   15.6873   41.1401 O   0  0  0  0  0  0  0  0  0  0  0  0
   -6.0963   16.1637   43.3681 C   0  0  0  0  0  0  0  0  0  0  0  0
   -3.0805   16.6647   45.7188 C   0  0  0  0  0  0  0  0  0  0  0  0
  1  2  1  6  0  0  0
  1  6  1  0  0  0  0
  1 21  1  0  0  0  0
  3  4  1  6  0  0  0
  3  8  1  0  0  0  0
  3 28  1  0  0  0  0
  5  9  1  0  0  0  0
  5 25  1  0  0  0  0
  5 29  1  1  0  0  0
  6  7  1  6  0  0  0
  6 11  1  0  0  0  0
  8 12  1  0  0  0  0
  9 10  1  1  0  0  0
  9 14  1  0  0  0  0
 11 16  1  0  0  0  0
 12 13  1  6  0  0  0
 12 17  1  0  0  0  0
 14 15  1  1  0  0  0
 14 18  1  0  0  0  0
 15 31  1  0  0  0  0
 16 20  1  0  0  0  0
 17  2  1  1  0  0  0
 17 22  1  0  0  0  0
 18 19  1  6  0  0  0
 18 24  1  0  0  0  0
 18 30  1  0  0  0  0
 20 21  1  0  0  0  0
 20 26  1  6  0  0  0
 22 23  1  1  0  0  0
 22 28  1  0  0  0  0
 24 25  1  0  0  0  0
 26 27  1  0  0  0  0
 28 29  1  1  0  0  0
M  END
>  <CHROM.1>
-178.93532274,178.07314524,-115.74517839,-174.26122003,-104.71949446,64.38518827
-2.16209963,13.61570536,40.87133613,0.88721619,-1.06891066,2.89336663

>  <Name>
ligand

>  <RI>
0

>  <Rbt.Current_Directory>
/home/itssahil/PROJECTS/Mol_Feturizer/New_Systems/rnas/4GPY

>  <Rbt.Executable>
rbdock ($Id: //depot/dev/client3/rdock/2013.1/src/exe/rbdock.cxx#4 $)

>  <Rbt.Library>
libRbt.so (2013.1, Build901 2013/11/27)

>  <Rbt.Parameter_File>
/export/apps/rDock/src/rDock_2013.1_src/data/scripts/dock_solv.prm

>  <Rbt.Receptor>
prm/pocket_docking_7.prm

>  <SCORE>
-7.13621

>  <SCORE.INTER>
-2.07654

>  <SCORE.INTER.CONST>
1

>  <SCORE.INTER.POLAR>
0

>  <SCORE.INTER.ROT>
6

>  <SCORE.INTER.SOLV>
9.08523

>  <SCORE.INTER.VDW>
-12.0128

>  <SCORE.INTER.norm>
-0.0669852

>  <SCORE.INTRA>
-5.05967

>  <SCORE.INTRA.DIHEDRAL>
-11.2539

>  <SCORE.INTRA.DIHEDRAL.0>
14.7001

>  <SCORE.INTRA.POLAR>
0

>  <SCORE.INTRA.POLAR.0>
0

>  <SCORE.INTRA.REPUL>
0

>  <SCORE.INTRA.REPUL.0>
0

>  <SCORE.INTRA.SOLV>
-1.19643

>  <SCORE.INTRA.SOLV.lig_0>
-65.3082

>  <SCORE.INTRA.VDW>
1.16547

>  <SCORE.INTRA.VDW.0>
-4.21408

>  <SCORE.INTRA.norm>
-0.163215

>  <SCORE.RESTR>
0

>  <SCORE.RESTR.CAVITY>
0

>  <SCORE.RESTR.norm>
0

>  <SCORE.SYSTEM>
0

>  <SCORE.SYSTEM.CONST>
0

>  <SCORE.SYSTEM.DIHEDRAL>
0

>  <SCORE.SYSTEM.SOLV>
0

>  <SCORE.SYSTEM.norm>
0

>  <SCORE.heavy>
31

>  <SCORE.norm>
-0.2302

>  <RMSD>
7.329

$$$$
ligand
 OpenBabel11021811493D
libRbt.so/2013.1/901 2013/11/27
 31 33  0  0  0  0  0  0  0  0999 V2000
    0.1496    9.7585   41.3128 C   0  0  2  0  0  0  0  0  0  0  0  0
    1.2570   10.2910   40.6117 O   0  0  0  0  0  0  0  0  0  0  0  0
    1.7037   13.7798   38.2266 C   0  0  2  0  0  0  0  0  0  0  0  0
    1.5592   14.6785   37.1318 N   0  0  0  0  0  0  0  0  0  0  0  0
   -1.4095   15.3870   38.7572 C   0  0  2  0  0  0  0  0  0  0  0  0
    0.7029    8.8487   42.4936 C   0  0  2  0  0  0  0  0  0  0  0  0
    1.5613    9.6537   43.3561 N   0  0  0  0  0  0  0  0  0  0  0  0
    2.3211   12.4181   37.6751 C   0  0  0  0  0  0  0  0  0  0  0  0
   -1.5717   16.7121   39.5751 C   0  0  2  0  0  0  0  0  0  0  0  0
   -0.3624   17.4373   39.5062 O   0  0  0  0  0  0  0  0  0  0  0  0
    1.4803    7.6084   41.9180 C   0  0  0  0  0  0  0  0  0  0  0  0
    2.4968   11.4247   38.8958 C   0  0  2  0  0  0  0  0  0  0  0  0
    3.0718   10.1701   38.4088 N   0  0  0  0  0  0  0  0  0  0  0  0
   -1.9176   16.3407   41.0631 C   0  0  1  0  0  0  0  0  0  0  0  0
   -2.0636   17.5921   41.8738 N   0  0  0  0  0  0  0  0  0  0  0  0
    0.7631    7.0061   40.6379 C   0  0  0  0  0  0  0  0  0  0  0  0
    1.0787   11.1546   39.5462 C   0  0  2  0  0  0  0  0  0  0  0  0
   -3.3209   15.5171   41.0857 C   0  0  1  0  0  0  0  0  0  0  0  0
   -4.4079   16.2549   40.5626 O   0  0  0  0  0  0  0  0  0  0  0  0
   -0.2244    7.6831   40.0029 C   0  0  1  0  0  0  0  0  0  0  0  0
   -0.6931    8.9614   40.4228 O   0  0  0  0  0  0  0  0  0  0  0  0
    0.4624   12.5184   40.0697 C   0  0  2  0  0  0  0  0  0  0  0  0
   -0.8348   12.2649   40.6470 O   0  0  0  0  0  0  0  0  0  0  0  0
   -3.1651   14.2198   40.2369 C   0  0  0  0  0  0  0  0  0  0  0  0
   -2.6874   14.5695   38.8381 O   0  0  0  0  0  0  0  0  0  0  0  0
   -0.9268    7.1481   38.7778 C   0  0  0  0  0  0  0  0  0  0  0  0
   -0.6315    8.0637   37.7011 O   0  0  0  0  0  0  0  0  0  0  0  0
    0.2953   13.5081   38.8542 C   0  0  1  0  0  0  0  0  0  0  0  0
   -0.2462   14.7101   39.3432 O   0  0  0  0  0  0  0  0  0  0  0  0
   -3.7807   15.0788   42.4822 C   0  0  0  0  0  0  0  0  0  0  0  0
   -0.9753   17.8823   42.8302 C   0  0  0  0  0  0  0  0  0  0  0  0
  1  2  1  6  0  0  0
  1  6  1  0  0  0  0
  1 21  1  0  0  0  0
  3  4  1  6  0  0  0
  3  8  1  0  0  0  0
  3 28  1  0  0  0  0
  5  9  1  0  0  0  0
  5 25  1  0  0  0  0
  5 29  1  1  0  0  0
  6  7  1  1  0  0  0
  6 11  1  0  0  0  0
  8 12  1  0  0  0  0
  9 10  1  1  0  0  0
  9 14  1  0  0  0  0
 11 16  1  0  0  0  0
 12 13  1  6  0  0  0
 12 17  1  0  0  0  0
 14 15  1  1  0  0  0
 14 18  1  0  0  0  0
 15 31  1  0  0  0  0
 16 20  1  0  0  0  0
 17  2  1  1  0  0  0
 17 22  1  0  0  0  0
 18 19  1  6  0  0  0
 18 24  1  0  0  0  0
 18 30  1  0  0  0  0
 20 21  1  0  0  0  0
 20 26  1  6  0  0  0
 22 23  1  6  0  0  0
 22 28  1  0  0  0  0
 24 25  1  0  0  0  0
 26 27  1  0  0  0  0
 28 29  1  1  0  0  0
M  END
>  <CHROM.1>
-178.29556527,-176.39245426,-107.60018249,-173.69364198,-116.75182173,111.33742268
-0.36781488,12.55311077,40.09007721,1.08839867,-0.75581364,2.84691583

>  <Name>
ligand

>  <RI>
0

>  <Rbt.Current_Directory>
/home/itssahil/PROJECTS/Mol_Feturizer/New_Systems/rnas/4GPY

>  <Rbt.Executable>
rbdock ($Id: //depot/dev/client3/rdock/2013.1/src/exe/rbdock.cxx#4 $)

>  <Rbt.Library>
libRbt.so (2013.1, Build901 2013/11/27)

>  <Rbt.Parameter_File>
/export/apps/rDock/src/rDock_2013.1_src/data/scripts/dock_solv.prm

>  <Rbt.Receptor>
prm/pocket_docking_5.prm

>  <SCORE>
-3.07989

>  <SCORE.INTER>
-0.212223

>  <SCORE.INTER.CONST>
1

>  <SCORE.INTER.POLAR>
0

>  <SCORE.INTER.ROT>
6

>  <SCORE.INTER.SOLV>
8.0361

>  <SCORE.INTER.VDW>
-10.4202

>  <SCORE.INTER.norm>
-0.0068459

>  <SCORE.INTRA>
-2.86766

>  <SCORE.INTRA.DIHEDRAL>
-4.82371

>  <SCORE.INTRA.DIHEDRAL.0>
14.7001

>  <SCORE.INTRA.POLAR>
0

>  <SCORE.INTRA.POLAR.0>
0

>  <SCORE.INTRA.REPUL>
0

>  <SCORE.INTRA.REPUL.0>
0

>  <SCORE.INTRA.SOLV>
-1.82358

>  <SCORE.INTRA.SOLV.lig_0>
-65.3082

>  <SCORE.INTRA.VDW>
0.455984

>  <SCORE.INTRA.VDW.0>
-4.21408

>  <SCORE.INTRA.norm>
-0.0925052

>  <SCORE.RESTR>
0

>  <SCORE.RESTR.CAVITY>
0

>  <SCORE.RESTR.norm>
0

>  <SCORE.SYSTEM>
0

>  <SCORE.SYSTEM.CONST>
0

>  <SCORE.SYSTEM.DIHEDRAL>
0

>  <SCORE.SYSTEM.SOLV>
0

>  <SCORE.SYSTEM.norm>
0

>  <SCORE.heavy>
31

>  <SCORE.norm>
-0.0993511

>  <RMSD>
7.343

$$$$
ligand
 OpenBabel11021811493D
libRbt.so/2013.1/901 2013/11/27
 31 33  0  0  0  0  0  0  0  0999 V2000
   -1.2764   10.3889   41.3109 C   0  0  2  0  0  0  0  0  0  0  0  0
   -0.5028   11.1934   40.4417 O   0  0  0  0  0  0  0  0  0  0  0  0
   -0.8268   15.2607   39.2532 C   0  0  2  0  0  0  0  0  0  0  0  0
   -1.3396   16.4361   38.6350 N   0  0  0  0  0  0  0  0  0  0  0  0
   -2.6404   17.0233   41.0279 C   0  0  2  0  0  0  0  0  0  0  0  0
   -0.3777    9.1652   41.7831 C   0  0  2  0  0  0  0  0  0  0  0  0
    0.8233    9.6767   42.4345 N   0  0  0  0  0  0  0  0  0  0  0  0
   -0.5689   14.1726   38.1178 C   0  0  0  0  0  0  0  0  0  0  0  0
   -2.7924   17.6789   42.4415 C   0  0  2  0  0  0  0  0  0  0  0  0
   -1.5394   17.6486   43.0914 O   0  0  0  0  0  0  0  0  0  0  0  0
   -0.0120    8.2442   40.5615 C   0  0  0  0  0  0  0  0  0  0  0  0
    0.0169   12.8711   38.8040 C   0  0  2  0  0  0  0  0  0  0  0  0
    0.2686   11.8627   37.7737 N   0  0  0  0  0  0  0  0  0  0  0  0
   -3.8648   16.8668   43.2552 C   0  0  1  0  0  0  0  0  0  0  0  0
   -4.0197   17.4641   44.6204 N   0  0  0  0  0  0  0  0  0  0  0  0
   -1.2347    8.0738   39.5656 C   0  0  0  0  0  0  0  0  0  0  0  0
   -1.0370   12.3244   39.8516 C   0  0  2  0  0  0  0  0  0  0  0  0
   -5.2877   16.9424   42.4693 C   0  0  1  0  0  0  0  0  0  0  0  0
   -5.7710   18.2627   42.3187 O   0  0  0  0  0  0  0  0  0  0  0  0
   -2.3297    8.8671   39.6563 C   0  0  1  0  0  0  0  0  0  0  0  0
   -2.4736    9.8951   40.6323 O   0  0  0  0  0  0  0  0  0  0  0  0
   -1.3050   13.4230   40.9630 C   0  0  2  0  0  0  0  0  0  0  0  0
   -2.2765   12.9221   41.9041 O   0  0  0  0  0  0  0  0  0  0  0  0
   -5.1195   16.3250   41.0487 C   0  0  0  0  0  0  0  0  0  0  0  0
   -3.9819   17.0141   40.3151 O   0  0  0  0  0  0  0  0  0  0  0  0
   -3.5108    8.7419   38.7236 C   0  0  0  0  0  0  0  0  0  0  0  0
   -3.4201    9.8431   37.7942 O   0  0  0  0  0  0  0  0  0  0  0  0
   -1.8810   14.7200   40.2768 C   0  0  1  0  0  0  0  0  0  0  0  0
   -2.1046   15.6799   41.2795 O   0  0  0  0  0  0  0  0  0  0  0  0
   -6.4330   16.1811   43.1492 C   0  0  0  0  0  0  0  0  0  0  0  0
   -3.3421   16.7546   45.7253 C   0  0  0  0  0  0  0  0  0  0  0  0
  1  2  1  6  0  0  0
  1  6  1  0  0  0  0
  1 21  1  0  0  0  0
  3  4  1  6  0  0  0
  3  8  1  0  0  0  0
  3 28  1  0  0  0  0
  5  9  1  0  0  0  0
  5 25  1  0  0  0  0
  5 29  1  1  0  0  0
  6  7  1  6  0  0  0
  6 11  1  0  0  0  0
  8 12  1  0  0  0  0
  9 10  1  1  0  0  0
  9 14  1  0  0  0  0
 11 16  1  0  0  0  0
 12 13  1  6  0  0  0
 12 17  1  0  0  0  0
 14 15  1  1  0  0  0
 14 18  1  0  0  0  0
 15 31  1  0  0  0  0
 16 20  1  0  0  0  0
 17  2  1  1  0  0  0
 17 22  1  0  0  0  0
 18 19  1  6  0  0  0
 18 24  1  0  0  0  0
 18 30  1  0  0  0  0
 20 21  1  0  0  0  0
 20 26  1  6  0  0  0
 22 23  1  1  0  0  0
 22 28  1  0  0  0  0
 24 25  1  0  0  0  0
 26 27  1  0  0  0  0
 28 29  1  1  0  0  0
M  END
>  <CHROM.1>
178.78158103,176.56031671,-101.85298978,-172.54170324,-104.23167381,61.53829402
-2.29450970,13.62684730,40.95684183,0.83551367,-1.05490679,2.83056051

>  <Name>
ligand

>  <RI>
0

>  <Rbt.Current_Directory>
/home/itssahil/PROJECTS/Mol_Feturizer/New_Systems/rnas/4GPY

>  <Rbt.Executable>
rbdock ($Id: //depot/dev/client3/rdock/2013.1/src/exe/rbdock.cxx#4 $)

>  <Rbt.Library>
libRbt.so (2013.1, Build901 2013/11/27)

>  <Rbt.Parameter_File>
/export/apps/rDock/src/rDock_2013.1_src/data/scripts/dock_solv.prm

>  <Rbt.Receptor>
prm/pocket_docking_7.prm

>  <SCORE>
-7.21495

>  <SCORE.INTER>
-2.31141

>  <SCORE.INTER.CONST>
1

>  <SCORE.INTER.POLAR>
0

>  <SCORE.INTER.ROT>
6

>  <SCORE.INTER.SOLV>
8.87946

>  <SCORE.INTER.VDW>
-12.1008

>  <SCORE.INTER.norm>
-0.0745617

>  <SCORE.INTRA>
-4.90354

>  <SCORE.INTRA.DIHEDRAL>
-11.4034

>  <SCORE.INTRA.DIHEDRAL.0>
14.7001

>  <SCORE.INTRA.POLAR>
0

>  <SCORE.INTRA.POLAR.0>
0

>  <SCORE.INTRA.REPUL>
0

>  <SCORE.INTRA.REPUL.0>
0

>  <SCORE.INTRA.SOLV>
-0.902835

>  <SCORE.INTRA.SOLV.lig_0>
-65.3082

>  <SCORE.INTRA.VDW>
1.2496

>  <SCORE.INTRA.VDW.0>
-4.21408

>  <SCORE.INTRA.norm>
-0.158179

>  <SCORE.RESTR>
0

>  <SCORE.RESTR.CAVITY>
0

>  <SCORE.RESTR.norm>
0

>  <SCORE.SYSTEM>
0

>  <SCORE.SYSTEM.CONST>
0

>  <SCORE.SYSTEM.DIHEDRAL>
0

>  <SCORE.SYSTEM.SOLV>
0

>  <SCORE.SYSTEM.norm>
0

>  <SCORE.heavy>
31

>  <SCORE.norm>
-0.23274

>  <RMSD>
7.357

$$$$
ligand
 OpenBabel11021811493D
libRbt.so/2013.1/901 2013/11/27
 31 33  0  0  0  0  0  0  0  0999 V2000
    5.1289   22.0132   37.0534 C   0  0  2  0  0  0  0  0  0  0  0  0
    3.8437   22.0620   36.4643 O   0  0  0  0  0  0  0  0  0  0  0  0
    1.2053   19.7983   34.0200 C   0  0  2  0  0  0  0  0  0  0  0  0
    0.7532   18.8217   33.0880 N   0  0  0  0  0  0  0  0  0  0  0  0
    0.6936   16.8439   35.5900 C   0  0  2  0  0  0  0  0  0  0  0  0
    6.2071   22.2451   35.9081 C   0  0  2  0  0  0  0  0  0  0  0  0
    5.9498   23.5272   35.2610 N   0  0  0  0  0  0  0  0  0  0  0  0
    2.2880   20.7156   33.2946 C   0  0  0  0  0  0  0  0  0  0  0  0
    0.2685   16.1981   36.9514 C   0  0  2  0  0  0  0  0  0  0  0  0
   -0.8684   16.8781   37.4395 O   0  0  0  0  0  0  0  0  0  0  0  0
    6.1698   21.0667   34.8669 C   0  0  0  0  0  0  0  0  0  0  0  0
    2.7785   21.8119   34.3266 C   0  0  2  0  0  0  0  0  0  0  0  0
    3.7681   22.6701   33.6740 N   0  0  0  0  0  0  0  0  0  0  0  0
    1.4694   16.3211   37.9584 C   0  0  1  0  0  0  0  0  0  0  0  0
    1.0843   15.7236   39.2772 N   0  0  0  0  0  0  0  0  0  0  0  0
    5.9613   19.6624   35.5742 C   0  0  0  0  0  0  0  0  0  0  0  0
    3.4287   21.0872   35.5753 C   0  0  2  0  0  0  0  0  0  0  0  0
    2.7464   15.5140   37.3534 C   0  0  1  0  0  0  0  0  0  0  0  0
    2.4913   14.1376   37.1541 O   0  0  0  0  0  0  0  0  0  0  0  0
    5.5864   19.5797   36.8739 C   0  0  1  0  0  0  0  0  0  0  0  0
    5.3558   20.7199   37.6966 O   0  0  0  0  0  0  0  0  0  0  0  0
    2.3509   20.1588   36.2753 C   0  0  2  0  0  0  0  0  0  0  0  0
    2.9558   19.4920   37.4021 O   0  0  0  0  0  0  0  0  0  0  0  0
    3.1391   16.1359   35.9799 C   0  0  0  0  0  0  0  0  0  0  0  0
    1.9349   16.1514   35.0542 O   0  0  0  0  0  0  0  0  0  0  0  0
    5.3705   18.2633   37.5815 C   0  0  0  0  0  0  0  0  0  0  0  0
    5.4589   17.2341   36.5727 O   0  0  0  0  0  0  0  0  0  0  0  0
    1.8587   19.0730   35.2440 C   0  0  1  0  0  0  0  0  0  0  0  0
    0.9011   18.2670   35.8846 O   0  0  0  0  0  0  0  0  0  0  0  0
    4.0026   15.5564   38.2330 C   0  0  0  0  0  0  0  0  0  0  0  0
   -0.0171   16.3916   40.0011 C   0  0  0  0  0  0  0  0  0  0  0  0
  1  2  1  6  0  0  0
  1  6  1  0  0  0  0
  1 21  1  0  0  0  0
  3  4  1  6  0  0  0
  3  8  1  0  0  0  0
  3 28  1  0  0  0  0
  5  9  1  0  0  0  0
  5 25  1  0  0  0  0
  5 29  1  1  0  0  0
  6  7  1  6  0  0  0
  6 11  1  0  0  0  0
  8 12  1  0  0  0  0
  9 10  1  1  0  0  0
  9 14  1  0  0  0  0
 11 16  1  0  0  0  0
 12 13  1  6  0  0  0
 12 17  1  0  0  0  0
 14 15  1  1  0  0  0
 14 18  1  0  0  0  0
 15 31  1  0  0  0  0
 16 20  1  0  0  0  0
 17  2  1  1  0  0  0
 17 22  1  0  0  0  0
 18 19  1  6  0  0  0
 18 24  1  0  0  0  0
 18 30  1  0  0  0  0
 20 21  1  0  0  0  0
 20 26  1  6  0  0  0
 22 23  1  1  0  0  0
 22 28  1  0  0  0  0
 24 25  1  0  0  0  0
 26 27  1  0  0  0  0
 28 29  1  1  0  0  0
M  END
>  <CHROM.1>
67.06675247,146.96687286,-64.09118314,-133.26201860,-7.68909320,93.23925174
3.03293766,18.80041411,36.27769466,-0.99092581,0.43836271,2.52211110

>  <Name>
ligand

>  <RI>
0

>  <Rbt.Current_Directory>
/home/itssahil/PROJECTS/Mol_Feturizer/New_Systems/rnas/4GPY

>  <Rbt.Executable>
rbdock ($Id: //depot/dev/client3/rdock/2013.1/src/exe/rbdock.cxx#4 $)

>  <Rbt.Library>
libRbt.so (2013.1, Build901 2013/11/27)

>  <Rbt.Parameter_File>
/export/apps/rDock/src/rDock_2013.1_src/data/scripts/dock_solv.prm

>  <Rbt.Receptor>
prm/blind_docking_60.prm

>  <SCORE>
59.1473

>  <SCORE.INTER>
30.2608

>  <SCORE.INTER.CONST>
1

>  <SCORE.INTER.POLAR>
0

>  <SCORE.INTER.ROT>
6

>  <SCORE.INTER.SOLV>
23.6608

>  <SCORE.INTER.VDW>
4.68696

>  <SCORE.INTER.norm>
0.976156

>  <SCORE.INTRA>
13.0102

>  <SCORE.INTRA.DIHEDRAL>
2.05574

>  <SCORE.INTRA.DIHEDRAL.0>
14.7001

>  <SCORE.INTRA.POLAR>
0

>  <SCORE.INTRA.POLAR.0>
0

>  <SCORE.INTRA.REPUL>
0

>  <SCORE.INTRA.REPUL.0>
0

>  <SCORE.INTRA.SOLV>
5.21826

>  <SCORE.INTRA.SOLV.lig_0>
-65.3082

>  <SCORE.INTRA.VDW>
9.37321

>  <SCORE.INTRA.VDW.0>
-4.21408

>  <SCORE.INTRA.norm>
0.419684

>  <SCORE.RESTR>
15.8763

>  <SCORE.RESTR.CAVITY>
15.8763

>  <SCORE.RESTR.norm>
0.512137

>  <SCORE.SYSTEM>
0

>  <SCORE.SYSTEM.CONST>
0

>  <SCORE.SYSTEM.DIHEDRAL>
0

>  <SCORE.SYSTEM.SOLV>
0

>  <SCORE.SYSTEM.norm>
0

>  <SCORE.heavy>
31

>  <SCORE.norm>
1.90798

>  <RMSD>
7.374

$$$$
ligand
 OpenBabel11021811493D
libRbt.so/2013.1/901 2013/11/27
 31 33  0  0  0  0  0  0  0  0999 V2000
   -3.1042   10.8354   39.6462 C   0  0  2  0  0  0  0  0  0  0  0  0
   -1.9195   11.6084   39.6271 O   0  0  0  0  0  0  0  0  0  0  0  0
   -1.0381   15.7553   39.9218 C   0  0  2  0  0  0  0  0  0  0  0  0
   -1.0326   17.1459   39.6168 N   0  0  0  0  0  0  0  0  0  0  0  0
   -3.2302   17.4486   41.3769 C   0  0  2  0  0  0  0  0  0  0  0  0
   -2.8227    9.5199   40.4936 C   0  0  2  0  0  0  0  0  0  0  0  0
   -2.3940    9.8979   41.8360 N   0  0  0  0  0  0  0  0  0  0  0  0
   -0.4820   14.9651   38.6544 C   0  0  0  0  0  0  0  0  0  0  0  0
   -3.5416   17.7850   42.8739 C   0  0  2  0  0  0  0  0  0  0  0  0
   -2.4650   17.3395   43.6712 O   0  0  0  0  0  0  0  0  0  0  0  0
   -1.7410    8.6257   39.7834 C   0  0  0  0  0  0  0  0  0  0  0  0
   -0.4730   13.4198   39.0000 C   0  0  2  0  0  0  0  0  0  0  0  0
    0.0439   12.6783   37.8490 N   0  0  0  0  0  0  0  0  0  0  0  0
   -4.8764   17.0608   43.2806 C   0  0  1  0  0  0  0  0  0  0  0  0
   -5.1912   17.3533   44.7158 N   0  0  0  0  0  0  0  0  0  0  0  0
   -1.9358    8.6043   38.2094 C   0  0  0  0  0  0  0  0  0  0  0  0
   -1.9524   12.9572   39.3230 C   0  0  2  0  0  0  0  0  0  0  0  0
   -6.0825   17.6167   42.3402 C   0  0  1  0  0  0  0  0  0  0  0  0
   -6.2921   19.0091   42.4688 O   0  0  0  0  0  0  0  0  0  0  0  0
   -2.7623    9.4833   37.5923 C   0  0  1  0  0  0  0  0  0  0  0  0
   -3.5107   10.4759   38.2886 O   0  0  0  0  0  0  0  0  0  0  0  0
   -2.5051   13.7660   40.5696 C   0  0  2  0  0  0  0  0  0  0  0  0
   -3.8576   13.3487   40.8472 O   0  0  0  0  0  0  0  0  0  0  0  0
   -5.7476   17.3148   40.8488 C   0  0  0  0  0  0  0  0  0  0  0  0
   -4.3867   17.8899   40.4962 O   0  0  0  0  0  0  0  0  0  0  0  0
   -2.9696    9.5006   36.0967 C   0  0  0  0  0  0  0  0  0  0  0  0
   -2.3155   10.6897   35.6039 O   0  0  0  0  0  0  0  0  0  0  0  0
   -2.5062   15.3045   40.2260 C   0  0  1  0  0  0  0  0  0  0  0  0
   -2.9938   16.0001   41.3464 O   0  0  0  0  0  0  0  0  0  0  0  0
   -7.4528   16.9866   42.6216 C   0  0  0  0  0  0  0  0  0  0  0  0
   -4.8368   16.3009   45.6906 C   0  0  0  0  0  0  0  0  0  0  0  0
  1  2  1  6  0  0  0
  1  6  1  0  0  0  0
  1 21  1  0  0  0  0
  3  4  1  6  0  0  0
  3  8  1  0  0  0  0
  3 28  1  0  0  0  0
  5  9  1  0  0  0  0
  5 25  1  0  0  0  0
  5 29  1  1  0  0  0
  6  7  1  1  0  0  0
  6 11  1  0  0  0  0
  8 12  1  0  0  0  0
  9 10  1  1  0  0  0
  9 14  1  0  0  0  0
 11 16  1  0  0  0  0
 12 13  1  6  0  0  0
 12 17  1  0  0  0  0
 14 15  1  1  0  0  0
 14 18  1  0  0  0  0
 15 31  1  0  0  0  0
 16 20  1  0  0  0  0
 17  2  1  1  0  0  0
 17 22  1  0  0  0  0
 18 19  1  1  0  0  0
 18 24  1  0  0  0  0
 18 30  1  0  0  0  0
 20 21  1  0  0  0  0
 20 26  1  6  0  0  0
 22 23  1  6  0  0  0
 22 28  1  0  0  0  0
 24 25  1  0  0  0  0
 26 27  1  0  0  0  0
 28 29  1  1  0  0  0
M  END
>  <CHROM.1>
-160.58507823,-171.17060003,-99.97542904,-164.68153260,-108.73716261,65.90377700
-3.13457513,14.10236705,40.48492418,1.10296165,-0.85397552,-2.95073405

>  <Name>
ligand

>  <RI>
0

>  <Rbt.Current_Directory>
/home/itssahil/PROJECTS/Mol_Feturizer/New_Systems/rnas/4GPY

>  <Rbt.Executable>
rbdock ($Id: //depot/dev/client3/rdock/2013.1/src/exe/rbdock.cxx#4 $)

>  <Rbt.Library>
libRbt.so (2013.1, Build901 2013/11/27)

>  <Rbt.Parameter_File>
/export/apps/rDock/src/rDock_2013.1_src/data/scripts/dock_solv.prm

>  <Rbt.Receptor>
prm/pocket_docking_6.prm

>  <SCORE>
-7.98926

>  <SCORE.INTER>
-4.44057

>  <SCORE.INTER.CONST>
1

>  <SCORE.INTER.POLAR>
0

>  <SCORE.INTER.ROT>
6

>  <SCORE.INTER.SOLV>
10.9755

>  <SCORE.INTER.VDW>
-14.2189

>  <SCORE.INTER.norm>
-0.143244

>  <SCORE.INTRA>
-3.56202

>  <SCORE.INTRA.DIHEDRAL>
-8.59831

>  <SCORE.INTRA.DIHEDRAL.0>
14.7001

>  <SCORE.INTRA.POLAR>
0

>  <SCORE.INTRA.POLAR.0>
0

>  <SCORE.INTRA.REPUL>
0.000260478

>  <SCORE.INTRA.REPUL.0>
0

>  <SCORE.INTRA.SOLV>
-0.291427

>  <SCORE.INTRA.SOLV.lig_0>
-65.3082

>  <SCORE.INTRA.VDW>
0.881546

>  <SCORE.INTRA.VDW.0>
-4.21408

>  <SCORE.INTRA.norm>
-0.114904

>  <SCORE.RESTR>
0.0133333

>  <SCORE.RESTR.CAVITY>
0.0133333

>  <SCORE.RESTR.norm>
0.000430107

>  <SCORE.SYSTEM>
0

>  <SCORE.SYSTEM.CONST>
0

>  <SCORE.SYSTEM.DIHEDRAL>
0

>  <SCORE.SYSTEM.SOLV>
0

>  <SCORE.SYSTEM.norm>
0

>  <SCORE.heavy>
31

>  <SCORE.norm>
-0.257718

>  <RMSD>
7.375

$$$$
ligand
 OpenBabel11021811493D
libRbt.so/2013.1/901 2013/11/27
 31 33  0  0  0  0  0  0  0  0999 V2000
   -3.0074   10.7169   39.8139 C   0  0  2  0  0  0  0  0  0  0  0  0
   -1.8309   11.5020   39.7856 O   0  0  0  0  0  0  0  0  0  0  0  0
   -0.9316   15.6542   39.8871 C   0  0  2  0  0  0  0  0  0  0  0  0
   -0.9353   17.0321   39.5290 N   0  0  0  0  0  0  0  0  0  0  0  0
   -3.0983   17.4029   41.3489 C   0  0  2  0  0  0  0  0  0  0  0  0
   -2.6886    9.3765   40.6075 C   0  0  2  0  0  0  0  0  0  0  0  0
   -2.2228    9.7135   41.9485 N   0  0  0  0  0  0  0  0  0  0  0  0
   -0.4258   14.8143   38.6307 C   0  0  0  0  0  0  0  0  0  0  0  0
   -3.3566   17.8020   42.8406 C   0  0  2  0  0  0  0  0  0  0  0  0
   -2.2390   17.4162   43.6122 O   0  0  0  0  0  0  0  0  0  0  0  0
   -1.6209    8.5176   39.8353 C   0  0  0  0  0  0  0  0  0  0  0  0
   -0.4062   13.2833   39.0347 C   0  0  2  0  0  0  0  0  0  0  0  0
    0.0650   12.4967   37.8942 N   0  0  0  0  0  0  0  0  0  0  0  0
   -4.6574   17.0703   43.3347 C   0  0  1  0  0  0  0  0  0  0  0  0
   -4.9205   17.4228   44.7668 N   0  0  0  0  0  0  0  0  0  0  0  0
   -1.8631    8.5471   38.2680 C   0  0  0  0  0  0  0  0  0  0  0  0
   -1.8730   12.8382   39.4314 C   0  0  2  0  0  0  0  0  0  0  0  0
   -5.9125   17.5571   42.4205 C   0  0  1  0  0  0  0  0  0  0  0  0
   -6.1478   18.9495   42.4940 O   0  0  0  0  0  0  0  0  0  0  0  0
   -2.7157    9.4381   37.7062 C   0  0  1  0  0  0  0  0  0  0  0  0
   -3.4517   10.3992   38.4577 O   0  0  0  0  0  0  0  0  0  0  0  0
   -2.3762   13.6959   40.6662 C   0  0  2  0  0  0  0  0  0  0  0  0
   -3.7178   13.2939   41.0110 O   0  0  0  0  0  0  0  0  0  0  0  0
   -5.6313   17.1931   40.9319 C   0  0  0  0  0  0  0  0  0  0  0  0
   -4.2988   17.7789   40.4975 O   0  0  0  0  0  0  0  0  0  0  0  0
   -2.9684    9.5035   36.2188 C   0  0  0  0  0  0  0  0  0  0  0  0
   -2.3450   10.7178   35.7482 O   0  0  0  0  0  0  0  0  0  0  0  0
   -2.3878   15.2201   40.2641 C   0  0  1  0  0  0  0  0  0  0  0  0
   -2.8309   15.9597   41.3748 O   0  0  0  0  0  0  0  0  0  0  0  0
   -7.2559   16.9129   42.7867 C   0  0  0  0  0  0  0  0  0  0  0  0
   -4.4438   16.4551   45.7766 C   0  0  0  0  0  0  0  0  0  0  0  0
  1  2  1  6  0  0  0
  1  6  1  0  0  0  0
  1 21  1  0  0  0  0
  3  4  1  6  0  0  0
  3  8  1  0  0  0  0
  3 28  1  0  0  0  0
  5  9  1  0  0  0  0
  5 25  1  0  0  0  0
  5 29  1  1  0  0  0
  6  7  1  1  0  0  0
  6 11  1  0  0  0  0
  8 12  1  0  0  0  0
  9 10  1  1  0  0  0
  9 14  1  0  0  0  0
 11 16  1  0  0  0  0
 12 13  1  6  0  0  0
 12 17  1  0  0  0  0
 14 15  1  1  0  0  0
 14 18  1  0  0  0  0
 15 31  1  0  0  0  0
 16 20  1  0  0  0  0
 17  2  1  1  0  0  0
 17 22  1  0  0  0  0
 18 19  1  1  0  0  0
 18 24  1  0  0  0  0
 18 30  1  0  0  0  0
 20 21  1  0  0  0  0
 20 26  1  6  0  0  0
 22 23  1  6  0  0  0
 22 28  1  0  0  0  0
 24 25  1  0  0  0  0
 26 27  1  0  0  0  0
 28 29  1  1  0  0  0
M  END
>  <CHROM.1>
-165.42995582,-171.91272345,-97.06228278,-161.45753577,-108.96647364,67.63123171
-3.00926757,14.03919612,40.55059388,1.10332335,-0.89366771,-2.97422058

>  <Name>
ligand

>  <RI>
0

>  <Rbt.Current_Directory>
/home/itssahil/PROJECTS/Mol_Feturizer/New_Systems/rnas/4GPY

>  <Rbt.Executable>
rbdock ($Id: //depot/dev/client3/rdock/2013.1/src/exe/rbdock.cxx#4 $)

>  <Rbt.Library>
libRbt.so (2013.1, Build901 2013/11/27)

>  <Rbt.Parameter_File>
/export/apps/rDock/src/rDock_2013.1_src/data/scripts/dock_solv.prm

>  <Rbt.Receptor>
prm/pocket_docking_8.prm

>  <SCORE>
-8.01111

>  <SCORE.INTER>
-4.25502

>  <SCORE.INTER.CONST>
1

>  <SCORE.INTER.POLAR>
0

>  <SCORE.INTER.ROT>
6

>  <SCORE.INTER.SOLV>
10.7095

>  <SCORE.INTER.VDW>
-14.0065

>  <SCORE.INTER.norm>
-0.137259

>  <SCORE.INTRA>
-3.75609

>  <SCORE.INTRA.DIHEDRAL>
-8.87164

>  <SCORE.INTRA.DIHEDRAL.0>
14.7001

>  <SCORE.INTRA.POLAR>
0

>  <SCORE.INTRA.POLAR.0>
0

>  <SCORE.INTRA.REPUL>
0

>  <SCORE.INTRA.REPUL.0>
0

>  <SCORE.INTRA.SOLV>
-0.101046

>  <SCORE.INTRA.SOLV.lig_0>
-65.3082

>  <SCORE.INTRA.VDW>
0.730254

>  <SCORE.INTRA.VDW.0>
-4.21408

>  <SCORE.INTRA.norm>
-0.121164

>  <SCORE.RESTR>
0

>  <SCORE.RESTR.CAVITY>
0

>  <SCORE.RESTR.norm>
0

>  <SCORE.SYSTEM>
0

>  <SCORE.SYSTEM.CONST>
0

>  <SCORE.SYSTEM.DIHEDRAL>
0

>  <SCORE.SYSTEM.SOLV>
0

>  <SCORE.SYSTEM.norm>
0

>  <SCORE.heavy>
31

>  <SCORE.norm>
-0.258423

>  <RMSD>
7.380

$$$$
ligand
 OpenBabel11021811493D
libRbt.so/2013.1/901 2013/11/27
 31 33  0  0  0  0  0  0  0  0999 V2000
   -1.8231   12.0898   43.1999 C   0  0  2  0  0  0  0  0  0  0  0  0
   -2.2246   13.4228   42.9484 O   0  0  0  0  0  0  0  0  0  0  0  0
   -1.0566   16.1397   39.8965 C   0  0  2  0  0  0  0  0  0  0  0  0
   -0.2562   17.0552   39.1561 N   0  0  0  0  0  0  0  0  0  0  0  0
    0.7057   14.8298   37.6296 C   0  0  2  0  0  0  0  0  0  0  0  0
   -3.0289   11.3360   43.9113 C   0  0  2  0  0  0  0  0  0  0  0  0
   -4.2068   11.4003   43.0528 N   0  0  0  0  0  0  0  0  0  0  0  0
   -1.2287   16.7107   41.3743 C   0  0  0  0  0  0  0  0  0  0  0  0
    0.6345   13.8557   36.4060 C   0  0  2  0  0  0  0  0  0  0  0  0
   -0.7140   13.7268   36.0082 O   0  0  0  0  0  0  0  0  0  0  0  0
   -3.3201   11.9674   45.3221 C   0  0  0  0  0  0  0  0  0  0  0  0
   -2.1326   15.7003   42.1927 C   0  0  2  0  0  0  0  0  0  0  0  0
   -2.3089   16.2138   43.5518 N   0  0  0  0  0  0  0  0  0  0  0  0
    1.2253   12.4651   36.8404 C   0  0  1  0  0  0  0  0  0  0  0  0
    1.1554   11.5068   35.6909 N   0  0  0  0  0  0  0  0  0  0  0  0
   -1.9823   12.3508   46.0832 C   0  0  0  0  0  0  0  0  0  0  0  0
   -1.4161   14.2890   42.2352 C   0  0  2  0  0  0  0  0  0  0  0  0
    2.7792   12.6690   37.2784 C   0  0  1  0  0  0  0  0  0  0  0  0
    3.5898   13.1741   36.2357 O   0  0  0  0  0  0  0  0  0  0  0  0
   -0.7900   12.3726   45.4394 C   0  0  1  0  0  0  0  0  0  0  0  0
   -0.6398   12.0577   44.0580 O   0  0  0  0  0  0  0  0  0  0  0  0
   -1.2277   13.7408   40.7595 C   0  0  2  0  0  0  0  0  0  0  0  0
   -0.5615   12.4624   40.8072 O   0  0  0  0  0  0  0  0  0  0  0  0
    2.8465   13.6703   38.4702 C   0  0  0  0  0  0  0  0  0  0  0  0
    2.1438   14.9651   38.1000 O   0  0  0  0  0  0  0  0  0  0  0  0
    0.5044   12.7389   46.1256 C   0  0  0  0  0  0  0  0  0  0  0  0
    0.9891   13.9353   45.4788 O   0  0  0  0  0  0  0  0  0  0  0  0
   -0.3338   14.7518   39.9446 C   0  0  1  0  0  0  0  0  0  0  0  0
   -0.1861   14.2481   38.6402 O   0  0  0  0  0  0  0  0  0  0  0  0
    3.4857   11.3870   37.7379 C   0  0  0  0  0  0  0  0  0  0  0  0
    0.0009   10.5847   35.6776 C   0  0  0  0  0  0  0  0  0  0  0  0
  1  2  1  1  0  0  0
  1  6  1  0  0  0  0
  1 21  1  0  0  0  0
  3  4  1  6  0  0  0
  3  8  1  0  0  0  0
  3 28  1  0  0  0  0
  5  9  1  0  0  0  0
  5 25  1  0  0  0  0
  5 29  1  1  0  0  0
  6  7  1  6  0  0  0
  6 11  1  0  0  0  0
  8 12  1  0  0  0  0
  9 10  1  1  0  0  0
  9 14  1  0  0  0  0
 11 16  1  0  0  0  0
 12 13  1  1  0  0  0
 12 17  1  0  0  0  0
 14 15  1  6  0  0  0
 14 18  1  0  0  0  0
 15 31  1  0  0  0  0
 16 20  1  0  0  0  0
 17  2  1  1  0  0  0
 17 22  1  0  0  0  0
 18 19  1  6  0  0  0
 18 24  1  0  0  0  0
 18 30  1  0  0  0  0
 20 21  1  0  0  0  0
 20 26  1  6  0  0  0
 22 23  1  1  0  0  0
 22 28  1  0  0  0  0
 24 25  1  0  0  0  0
 26 27  1  0  0  0  0
 28 29  1  6  0  0  0
M  END
>  <CHROM.1>
-174.59487294,174.60604638,-97.28291003,-177.60588863,-117.09828427,68.85396654
-0.27184608,13.46332594,40.63459401,-2.66424685,1.11563133,-0.50244771

>  <Name>
ligand

>  <RI>
0

>  <Rbt.Current_Directory>
/home/itssahil/PROJECTS/Mol_Feturizer/New_Systems/rnas/4GPY

>  <Rbt.Executable>
rbdock ($Id: //depot/dev/client3/rdock/2013.1/src/exe/rbdock.cxx#4 $)

>  <Rbt.Library>
libRbt.so (2013.1, Build901 2013/11/27)

>  <Rbt.Parameter_File>
/export/apps/rDock/src/rDock_2013.1_src/data/scripts/dock_solv.prm

>  <Rbt.Receptor>
prm/pocket_docking_7.prm

>  <SCORE>
-4.05864

>  <SCORE.INTER>
1.01949

>  <SCORE.INTER.CONST>
1

>  <SCORE.INTER.POLAR>
0

>  <SCORE.INTER.ROT>
6

>  <SCORE.INTER.SOLV>
13.2665

>  <SCORE.INTER.VDW>
-11.3425

>  <SCORE.INTER.norm>
0.0328869

>  <SCORE.INTRA>
-5.07813

>  <SCORE.INTRA.DIHEDRAL>
-11.4825

>  <SCORE.INTRA.DIHEDRAL.0>
14.7001

>  <SCORE.INTRA.POLAR>
0

>  <SCORE.INTRA.POLAR.0>
0

>  <SCORE.INTRA.REPUL>
0

>  <SCORE.INTRA.REPUL.0>
0

>  <SCORE.INTRA.SOLV>
-1.38327

>  <SCORE.INTRA.SOLV.lig_0>
-65.3082

>  <SCORE.INTRA.VDW>
1.35474

>  <SCORE.INTRA.VDW.0>
-4.21408

>  <SCORE.INTRA.norm>
-0.163811

>  <SCORE.RESTR>
0

>  <SCORE.RESTR.CAVITY>
0

>  <SCORE.RESTR.norm>
0

>  <SCORE.SYSTEM>
0

>  <SCORE.SYSTEM.CONST>
0

>  <SCORE.SYSTEM.DIHEDRAL>
0

>  <SCORE.SYSTEM.SOLV>
0

>  <SCORE.SYSTEM.norm>
0

>  <SCORE.heavy>
31

>  <SCORE.norm>
-0.130924

>  <RMSD>
7.386

$$$$
ligand
 OpenBabel11021811493D
libRbt.so/2013.1/901 2013/11/27
 31 33  0  0  0  0  0  0  0  0999 V2000
   -2.9468   10.5548   39.3882 C   0  0  2  0  0  0  0  0  0  0  0  0
   -1.8185    9.9505   39.9909 O   0  0  0  0  0  0  0  0  0  0  0  0
   -0.0655   10.5575   43.8143 C   0  0  2  0  0  0  0  0  0  0  0  0
    0.6664   11.1775   44.8663 N   0  0  0  0  0  0  0  0  0  0  0  0
   -1.7708   12.3545   45.7437 C   0  0  2  0  0  0  0  0  0  0  0  0
   -3.4495    9.6052   38.2162 C   0  0  2  0  0  0  0  0  0  0  0  0
   -3.7610    8.2902   38.7659 N   0  0  0  0  0  0  0  0  0  0  0  0
    0.9117   10.3727   42.5691 C   0  0  0  0  0  0  0  0  0  0  0  0
   -3.1119   12.5093   46.5366 C   0  0  2  0  0  0  0  0  0  0  0  0
   -3.6717   11.2282   46.7333 O   0  0  0  0  0  0  0  0  0  0  0  0
   -2.3635    9.5034   37.0829 C   0  0  0  0  0  0  0  0  0  0  0  0
    0.1017    9.6682   41.4050 C   0  0  2  0  0  0  0  0  0  0  0  0
    0.9872    9.4821   40.2548 N   0  0  0  0  0  0  0  0  0  0  0  0
   -4.0824   13.4220   45.7020 C   0  0  1  0  0  0  0  0  0  0  0  0
   -5.3820   13.5749   46.4315 N   0  0  0  0  0  0  0  0  0  0  0  0
   -1.6629   10.9004   36.8115 C   0  0  0  0  0  0  0  0  0  0  0  0
   -1.1234   10.5871   41.0029 C   0  0  2  0  0  0  0  0  0  0  0  0
   -3.3947   14.8847   45.5137 C   0  0  1  0  0  0  0  0  0  0  0  0
   -3.1357   15.5401   46.7395 O   0  0  0  0  0  0  0  0  0  0  0  0
   -1.8171   11.9408   37.6660 C   0  0  1  0  0  0  0  0  0  0  0  0
   -2.6051   11.8710   38.8510 O   0  0  0  0  0  0  0  0  0  0  0  0
   -2.0765   10.7848   42.2544 C   0  0  2  0  0  0  0  0  0  0  0  0
   -3.1812   11.6346   41.8830 O   0  0  0  0  0  0  0  0  0  0  0  0
   -2.0414   14.7193   44.7595 C   0  0  0  0  0  0  0  0  0  0  0  0
   -1.1592   13.7217   45.4901 O   0  0  0  0  0  0  0  0  0  0  0  0
   -1.1619   13.2837   37.4476 C   0  0  0  0  0  0  0  0  0  0  0  0
   -0.3053   13.5141   38.5868 O   0  0  0  0  0  0  0  0  0  0  0  0
   -1.2661   11.4795   43.4144 C   0  0  1  0  0  0  0  0  0  0  0  0
   -2.1288   11.6385   44.5132 O   0  0  0  0  0  0  0  0  0  0  0  0
   -4.2321   15.8837   44.7046 C   0  0  0  0  0  0  0  0  0  0  0  0
   -6.6039   13.5597   45.6008 C   0  0  0  0  0  0  0  0  0  0  0  0
  1  2  1  6  0  0  0
  1  6  1  0  0  0  0
  1 21  1  0  0  0  0
  3  4  1  1  0  0  0
  3  8  1  0  0  0  0
  3 28  1  0  0  0  0
  5  9  1  0  0  0  0
  5 25  1  0  0  0  0
  5 29  1  6  0  0  0
  6  7  1  1  0  0  0
  6 11  1  0  0  0  0
  8 12  1  0  0  0  0
  9 10  1  6  0  0  0
  9 14  1  0  0  0  0
 11 16  1  0  0  0  0
 12 13  1  6  0  0  0
 12 17  1  0  0  0  0
 14 15  1  1  0  0  0
 14 18  1  0  0  0  0
 15 31  1  0  0  0  0
 16 20  1  0  0  0  0
 17  2  1  6  0  0  0
 17 22  1  0  0  0  0
 18 19  1  1  0  0  0
 18 24  1  0  0  0  0
 18 30  1  0  0  0  0
 20 21  1  0  0  0  0
 20 26  1  1  0  0  0
 22 23  1  6  0  0  0
 22 28  1  0  0  0  0
 24 25  1  0  0  0  0
 26 27  1  0  0  0  0
 28 29  1  1  0  0  0
M  END
>  <CHROM.1>
176.66401966,169.21920366,-140.76821126,-177.79202382,-119.60800465,67.11863312
-2.19961234,11.91153188,42.36429508,1.31051242,0.60546226,-1.80972842

>  <Name>
ligand

>  <RI>
0

>  <Rbt.Current_Directory>
/home/itssahil/PROJECTS/Mol_Feturizer/New_Systems/rnas/4GPY

>  <Rbt.Executable>
rbdock ($Id: //depot/dev/client3/rdock/2013.1/src/exe/rbdock.cxx#4 $)

>  <Rbt.Library>
libRbt.so (2013.1, Build901 2013/11/27)

>  <Rbt.Parameter_File>
/export/apps/rDock/src/rDock_2013.1_src/data/scripts/dock_solv.prm

>  <Rbt.Receptor>
prm/pocket_docking_7.prm

>  <SCORE>
-8.98619

>  <SCORE.INTER>
-4.24334

>  <SCORE.INTER.CONST>
1

>  <SCORE.INTER.POLAR>
0

>  <SCORE.INTER.ROT>
6

>  <SCORE.INTER.SOLV>
17.2229

>  <SCORE.INTER.VDW>
-16.1699

>  <SCORE.INTER.norm>
-0.136882

>  <SCORE.INTRA>
-4.74285

>  <SCORE.INTRA.DIHEDRAL>
-11.2472

>  <SCORE.INTRA.DIHEDRAL.0>
14.7001

>  <SCORE.INTRA.POLAR>
0

>  <SCORE.INTRA.POLAR.0>
0

>  <SCORE.INTRA.REPUL>
0

>  <SCORE.INTRA.REPUL.0>
0

>  <SCORE.INTRA.SOLV>
-1.21457

>  <SCORE.INTRA.SOLV.lig_0>
-65.3082

>  <SCORE.INTRA.VDW>
1.48806

>  <SCORE.INTRA.VDW.0>
-4.21408

>  <SCORE.INTRA.norm>
-0.152995

>  <SCORE.RESTR>
0

>  <SCORE.RESTR.CAVITY>
0

>  <SCORE.RESTR.norm>
0

>  <SCORE.SYSTEM>
0

>  <SCORE.SYSTEM.CONST>
0

>  <SCORE.SYSTEM.DIHEDRAL>
0

>  <SCORE.SYSTEM.SOLV>
0

>  <SCORE.SYSTEM.norm>
0

>  <SCORE.heavy>
31

>  <SCORE.norm>
-0.289877

>  <RMSD>
7.407

$$$$
ligand
 OpenBabel11021811493D
libRbt.so/2013.1/901 2013/11/27
 31 33  0  0  0  0  0  0  0  0999 V2000
    4.5340   21.9431   36.3557 C   0  0  2  0  0  0  0  0  0  0  0  0
    4.3456   21.6975   34.9752 O   0  0  0  0  0  0  0  0  0  0  0  0
    0.3668   20.2061   35.0475 C   0  0  2  0  0  0  0  0  0  0  0  0
   -0.8862   19.7167   34.5814 N   0  0  0  0  0  0  0  0  0  0  0  0
    2.0573   17.4205   36.2930 C   0  0  2  0  0  0  0  0  0  0  0  0
    5.9493   22.6426   36.5449 C   0  0  2  0  0  0  0  0  0  0  0  0
    5.9842   23.8722   35.7603 N   0  0  0  0  0  0  0  0  0  0  0  0
    0.6103   21.6440   34.4050 C   0  0  0  0  0  0  0  0  0  0  0  0
    1.6164   15.9236   36.4206 C   0  0  2  0  0  0  0  0  0  0  0  0
    1.8390   15.2794   35.1842 O   0  0  0  0  0  0  0  0  0  0  0  0
    7.1088   21.6672   36.1227 C   0  0  0  0  0  0  0  0  0  0  0  0
    1.9965   22.1949   34.9366 C   0  0  2  0  0  0  0  0  0  0  0  0
    2.2328   23.5203   34.3630 N   0  0  0  0  0  0  0  0  0  0  0  0
    0.0929   15.8836   36.8064 C   0  0  1  0  0  0  0  0  0  0  0  0
   -0.3606   14.4602   36.9204 N   0  0  0  0  0  0  0  0  0  0  0  0
    6.8222   20.1770   36.5844 C   0  0  0  0  0  0  0  0  0  0  0  0
    3.1472   21.2005   34.4960 C   0  0  2  0  0  0  0  0  0  0  0  0
   -0.1053   16.6288   38.2394 C   0  0  1  0  0  0  0  0  0  0  0  0
    0.6204   16.0195   39.2888 O   0  0  0  0  0  0  0  0  0  0  0  0
    5.5972   19.8025   37.0267 C   0  0  1  0  0  0  0  0  0  0  0  0
    4.4898   20.6947   37.1153 O   0  0  0  0  0  0  0  0  0  0  0  0
    2.8830   19.7672   35.1201 C   0  0  2  0  0  0  0  0  0  0  0  0
    3.9276   18.8650   34.7017 O   0  0  0  0  0  0  0  0  0  0  0  0
    0.3728   18.1066   38.1165 C   0  0  0  0  0  0  0  0  0  0  0  0
    1.8011   18.1485   37.6013 O   0  0  0  0  0  0  0  0  0  0  0  0
    5.2819   18.3932   37.4682 C   0  0  0  0  0  0  0  0  0  0  0  0
    5.2539   18.4103   38.9117 O   0  0  0  0  0  0  0  0  0  0  0  0
    1.4993   19.2241   34.5954 C   0  0  1  0  0  0  0  0  0  0  0  0
    1.2846   17.9571   35.1660 O   0  0  0  0  0  0  0  0  0  0  0  0
   -1.5549   16.6735   38.7398 C   0  0  0  0  0  0  0  0  0  0  0  0
    0.4475   13.5845   37.7942 C   0  0  0  0  0  0  0  0  0  0  0  0
  1  2  1  6  0  0  0
  1  6  1  0  0  0  0
  1 21  1  0  0  0  0
  3  4  1  6  0  0  0
  3  8  1  0  0  0  0
  3 28  1  0  0  0  0
  5  9  1  0  0  0  0
  5 25  1  0  0  0  0
  5 29  1  6  0  0  0
  6  7  1  6  0  0  0
  6 11  1  0  0  0  0
  8 12  1  0  0  0  0
  9 10  1  6  0  0  0
  9 14  1  0  0  0  0
 11 16  1  0  0  0  0
 12 13  1  6  0  0  0
 12 17  1  0  0  0  0
 14 15  1  1  0  0  0
 14 18  1  0  0  0  0
 15 31  1  0  0  0  0
 16 20  1  0  0  0  0
 17  2  1  1  0  0  0
 17 22  1  0  0  0  0
 18 19  1  1  0  0  0
 18 24  1  0  0  0  0
 18 30  1  0  0  0  0
 20 21  1  0  0  0  0
 20 26  1  6  0  0  0
 22 23  1  6  0  0  0
 22 28  1  0  0  0  0
 24 25  1  0  0  0  0
 26 27  1  0  0  0  0
 28 29  1  1  0  0  0
M  END
>  <CHROM.1>
-174.30076761,-171.35447569,52.11706838,57.12390044,103.34835312,-104.79999644
2.56496243,19.04118082,36.33689080,-0.88215925,0.33006620,2.62392142

>  <Name>
ligand

>  <RI>
0

>  <Rbt.Current_Directory>
/home/itssahil/PROJECTS/Mol_Feturizer/New_Systems/rnas/4GPY

>  <Rbt.Executable>
rbdock ($Id: //depot/dev/client3/rdock/2013.1/src/exe/rbdock.cxx#4 $)

>  <Rbt.Library>
libRbt.so (2013.1, Build901 2013/11/27)

>  <Rbt.Parameter_File>
/export/apps/rDock/src/rDock_2013.1_src/data/scripts/dock_solv.prm

>  <Rbt.Receptor>
prm/blind_docking_60.prm

>  <SCORE>
30.4155

>  <SCORE.INTER>
12.329

>  <SCORE.INTER.CONST>
1

>  <SCORE.INTER.POLAR>
0

>  <SCORE.INTER.ROT>
6

>  <SCORE.INTER.SOLV>
28.5812

>  <SCORE.INTER.VDW>
-8.90771

>  <SCORE.INTER.norm>
0.39771

>  <SCORE.INTRA>
3.11121

>  <SCORE.INTRA.DIHEDRAL>
-5.94935

>  <SCORE.INTRA.DIHEDRAL.0>
14.7001

>  <SCORE.INTRA.POLAR>
0

>  <SCORE.INTRA.POLAR.0>
0

>  <SCORE.INTRA.REPUL>
0.441688

>  <SCORE.INTRA.REPUL.0>
0

>  <SCORE.INTRA.SOLV>
-0.0960114

>  <SCORE.INTRA.SOLV.lig_0>
-65.3082

>  <SCORE.INTRA.VDW>
3.92545

>  <SCORE.INTRA.VDW.0>
-4.21408

>  <SCORE.INTRA.norm>
0.100362

>  <SCORE.RESTR>
14.9752

>  <SCORE.RESTR.CAVITY>
14.9752

>  <SCORE.RESTR.norm>
0.483072

>  <SCORE.SYSTEM>
0

>  <SCORE.SYSTEM.CONST>
0

>  <SCORE.SYSTEM.DIHEDRAL>
0

>  <SCORE.SYSTEM.SOLV>
0

>  <SCORE.SYSTEM.norm>
0

>  <SCORE.heavy>
31

>  <SCORE.norm>
0.981144

>  <RMSD>
7.411

$$$$
ligand
 OpenBabel11021811493D
libRbt.so/2013.1/901 2013/11/27
 31 33  0  0  0  0  0  0  0  0999 V2000
    4.4588   21.9135   36.2356 C   0  0  2  0  0  0  0  0  0  0  0  0
    4.2737   21.5880   34.8714 O   0  0  0  0  0  0  0  0  0  0  0  0
    0.1754   20.4637   34.8871 C   0  0  2  0  0  0  0  0  0  0  0  0
   -1.0642   19.9227   34.4429 N   0  0  0  0  0  0  0  0  0  0  0  0
    0.6964   16.9137   35.5600 C   0  0  2  0  0  0  0  0  0  0  0  0
    5.8001   22.7574   36.3651 C   0  0  2  0  0  0  0  0  0  0  0  0
    5.6997   23.9474   35.5271 N   0  0  0  0  0  0  0  0  0  0  0  0
    0.6379   21.5738   33.8415 C   0  0  0  0  0  0  0  0  0  0  0  0
    0.3395   16.2223   36.9187 C   0  0  2  0  0  0  0  0  0  0  0  0
   -0.8215   16.8299   37.4443 O   0  0  0  0  0  0  0  0  0  0  0  0
    7.0442   21.8833   35.9623 C   0  0  0  0  0  0  0  0  0  0  0  0
    2.0085   22.1867   34.3447 C   0  0  2  0  0  0  0  0  0  0  0  0
    2.4445   23.2158   33.3998 N   0  0  0  0  0  0  0  0  0  0  0  0
    1.5550   16.3949   37.9006 C   0  0  1  0  0  0  0  0  0  0  0  0
    1.2343   15.7547   39.2166 N   0  0  0  0  0  0  0  0  0  0  0  0
    6.9151   20.3946   36.4944 C   0  0  0  0  0  0  0  0  0  0  0  0
    3.0887   21.0319   34.4250 C   0  0  2  0  0  0  0  0  0  0  0  0
    2.8600   15.6702   37.2525 C   0  0  1  0  0  0  0  0  0  0  0  0
    2.6766   14.2853   37.0340 O   0  0  0  0  0  0  0  0  0  0  0  0
    5.7408   19.9213   36.9776 C   0  0  1  0  0  0  0  0  0  0  0  0
    4.5515   20.7027   37.0498 O   0  0  0  0  0  0  0  0  0  0  0  0
    2.6083   19.9210   35.4491 C   0  0  2  0  0  0  0  0  0  0  0  0
    3.5909   18.8667   35.5047 O   0  0  0  0  0  0  0  0  0  0  0  0
    3.1857   16.3361   35.8821 C   0  0  0  0  0  0  0  0  0  0  0  0
    1.9611   16.3003   34.9841 O   0  0  0  0  0  0  0  0  0  0  0  0
    5.5745   18.5093   37.4865 C   0  0  0  0  0  0  0  0  0  0  0  0
    5.2873   18.6113   38.8978 O   0  0  0  0  0  0  0  0  0  0  0  0
    1.2401   19.3176   34.9501 C   0  0  1  0  0  0  0  0  0  0  0  0
    0.8320   18.3410   35.8757 O   0  0  0  0  0  0  0  0  0  0  0  0
    4.1322   15.7674   38.1045 C   0  0  0  0  0  0  0  0  0  0  0  0
    0.0675   16.2991   39.9415 C   0  0  0  0  0  0  0  0  0  0  0  0
  1  2  1  6  0  0  0
  1  6  1  0  0  0  0
  1 21  1  0  0  0  0
  3  4  1  6  0  0  0
  3  8  1  0  0  0  0
  3 28  1  0  0  0  0
  5  9  1  0  0  0  0
  5 25  1  0  0  0  0
  5 29  1  1  0  0  0
  6  7  1  6  0  0  0
  6 11  1  0  0  0  0
  8 12  1  0  0  0  0
  9 10  1  1  0  0  0
  9 14  1  0  0  0  0
 11 16  1  0  0  0  0
 12 13  1  6  0  0  0
 12 17  1  0  0  0  0
 14 15  1  1  0  0  0
 14 18  1  0  0  0  0
 15 31  1  0  0  0  0
 16 20  1  0  0  0  0
 17  2  1  1  0  0  0
 17 22  1  0  0  0  0
 18 19  1  6  0  0  0
 18 24  1  0  0  0  0
 18 30  1  0  0  0  0
 20 21  1  0  0  0  0
 20 26  1  6  0  0  0
 22 23  1  6  0  0  0
 22 28  1  0  0  0  0
 24 25  1  0  0  0  0
 26 27  1  0  0  0  0
 28 29  1  1  0  0  0
M  END
>  <CHROM.1>
-170.11076181,175.42809125,-60.76512789,76.64014389,115.09840428,125.35499242
2.86718018,19.04458741,36.25986328,-1.04812409,0.34601277,2.61866469

>  <Name>
ligand

>  <RI>
0

>  <Rbt.Current_Directory>
/home/itssahil/PROJECTS/Mol_Feturizer/New_Systems/rnas/4GPY

>  <Rbt.Executable>
rbdock ($Id: //depot/dev/client3/rdock/2013.1/src/exe/rbdock.cxx#4 $)

>  <Rbt.Library>
libRbt.so (2013.1, Build901 2013/11/27)

>  <Rbt.Parameter_File>
/export/apps/rDock/src/rDock_2013.1_src/data/scripts/dock_solv.prm

>  <Rbt.Receptor>
prm/blind_docking_60.prm

>  <SCORE>
29.6959

>  <SCORE.INTER>
7.80258

>  <SCORE.INTER.CONST>
1

>  <SCORE.INTER.POLAR>
0

>  <SCORE.INTER.ROT>
6

>  <SCORE.INTER.SOLV>
26.1334

>  <SCORE.INTER.VDW>
-11.1094

>  <SCORE.INTER.norm>
0.251696

>  <SCORE.INTRA>
4.71271

>  <SCORE.INTRA.DIHEDRAL>
-4.07716

>  <SCORE.INTRA.DIHEDRAL.0>
14.7001

>  <SCORE.INTRA.POLAR>
0

>  <SCORE.INTRA.POLAR.0>
0

>  <SCORE.INTRA.REPUL>
0

>  <SCORE.INTRA.REPUL.0>
0

>  <SCORE.INTRA.SOLV>
-0.046591

>  <SCORE.INTRA.SOLV.lig_0>
-65.3082

>  <SCORE.INTRA.VDW>
6.77458

>  <SCORE.INTRA.VDW.0>
-4.21408

>  <SCORE.INTRA.norm>
0.152023

>  <SCORE.RESTR>
17.1806

>  <SCORE.RESTR.CAVITY>
17.1806

>  <SCORE.RESTR.norm>
0.554212

>  <SCORE.SYSTEM>
0

>  <SCORE.SYSTEM.CONST>
0

>  <SCORE.SYSTEM.DIHEDRAL>
0

>  <SCORE.SYSTEM.SOLV>
0

>  <SCORE.SYSTEM.norm>
0

>  <SCORE.heavy>
31

>  <SCORE.norm>
0.957931

>  <RMSD>
7.418

$$$$
ligand
 OpenBabel11021811493D
libRbt.so/2013.1/901 2013/11/27
 31 33  0  0  0  0  0  0  0  0999 V2000
    4.7015   21.9986   36.2189 C   0  0  2  0  0  0  0  0  0  0  0  0
    4.5662   21.4292   34.9309 O   0  0  0  0  0  0  0  0  0  0  0  0
    0.3766   20.7227   34.8424 C   0  0  2  0  0  0  0  0  0  0  0  0
   -0.8884   20.2372   34.4056 N   0  0  0  0  0  0  0  0  0  0  0  0
    0.1705   17.4046   36.0187 C   0  0  2  0  0  0  0  0  0  0  0  0
    6.0711   22.8051   36.2617 C   0  0  2  0  0  0  0  0  0  0  0  0
    6.0622   23.8194   35.2129 N   0  0  0  0  0  0  0  0  0  0  0  0
    1.0087   21.5939   33.6672 C   0  0  0  0  0  0  0  0  0  0  0  0
    0.1673   16.7577   37.4444 C   0  0  2  0  0  0  0  0  0  0  0  0
   -0.5447   17.6028   38.3231 O   0  0  0  0  0  0  0  0  0  0  0  0
    7.2931   21.8287   36.0961 C   0  0  0  0  0  0  0  0  0  0  0  0
    2.4084   22.1472   34.1596 C   0  0  2  0  0  0  0  0  0  0  0  0
    3.0003   22.9581   33.0948 N   0  0  0  0  0  0  0  0  0  0  0  0
    1.6567   16.5857   37.9174 C   0  0  1  0  0  0  0  0  0  0  0  0
    1.6834   15.9817   39.2882 N   0  0  0  0  0  0  0  0  0  0  0  0
    7.0741   20.4717   36.8877 C   0  0  0  0  0  0  0  0  0  0  0  0
    3.3540   20.9232   34.4982 C   0  0  2  0  0  0  0  0  0  0  0  0
    2.4265   15.5980   36.8782 C   0  0  1  0  0  0  0  0  0  0  0  0
    1.8478   14.3101   36.8019 O   0  0  0  0  0  0  0  0  0  0  0  0
    5.8588   20.1382   37.3863 C   0  0  1  0  0  0  0  0  0  0  0  0
    4.7029   20.9597   37.2476 O   0  0  0  0  0  0  0  0  0  0  0  0
    2.7051   20.0494   35.6510 C   0  0  2  0  0  0  0  0  0  0  0  0
    3.5659   18.9294   35.9424 O   0  0  0  0  0  0  0  0  0  0  0  0
    2.3911   16.2282   35.4537 C   0  0  0  0  0  0  0  0  0  0  0  0
    0.9567   16.5311   35.0561 O   0  0  0  0  0  0  0  0  0  0  0  0
    5.6073   18.8534   38.1389 C   0  0  0  0  0  0  0  0  0  0  0  0
    5.4908   17.8110   37.1467 O   0  0  0  0  0  0  0  0  0  0  0  0
    1.3087   19.5059   35.1614 C   0  0  1  0  0  0  0  0  0  0  0  0
    0.7511   18.7405   36.2007 O   0  0  0  0  0  0  0  0  0  0  0  0
    3.9023   15.3453   37.2130 C   0  0  0  0  0  0  0  0  0  0  0  0
    0.7512   14.8603   39.5269 C   0  0  0  0  0  0  0  0  0  0  0  0
  1  2  1  6  0  0  0
  1  6  1  0  0  0  0
  1 21  1  0  0  0  0
  3  4  1  6  0  0  0
  3  8  1  0  0  0  0
  3 28  1  0  0  0  0
  5  9  1  0  0  0  0
  5 25  1  0  0  0  0
  5 29  1  1  0  0  0
  6  7  1  6  0  0  0
  6 11  1  0  0  0  0
  8 12  1  0  0  0  0
  9 10  1  1  0  0  0
  9 14  1  0  0  0  0
 11 16  1  0  0  0  0
 12 13  1  6  0  0  0
 12 17  1  0  0  0  0
 14 15  1  1  0  0  0
 14 18  1  0  0  0  0
 15 31  1  0  0  0  0
 16 20  1  0  0  0  0
 17  2  1  1  0  0  0
 17 22  1  0  0  0  0
 18 19  1  6  0  0  0
 18 24  1  0  0  0  0
 18 30  1  0  0  0  0
 20 21  1  0  0  0  0
 20 26  1  6  0  0  0
 22 23  1  6  0  0  0
 22 28  1  0  0  0  0
 24 25  1  0  0  0  0
 26 27  1  0  0  0  0
 28 29  1  1  0  0  0
M  END
>  <CHROM.1>
-165.58918436,160.07155288,43.28337080,74.48794925,-78.73112631,109.27659020
2.91524631,19.08062495,36.25008573,-0.99239208,0.33429491,2.61160469

>  <Name>
ligand

>  <RI>
0

>  <Rbt.Current_Directory>
/home/itssahil/PROJECTS/Mol_Feturizer/New_Systems/rnas/4GPY

>  <Rbt.Executable>
rbdock ($Id: //depot/dev/client3/rdock/2013.1/src/exe/rbdock.cxx#4 $)

>  <Rbt.Library>
libRbt.so (2013.1, Build901 2013/11/27)

>  <Rbt.Parameter_File>
/export/apps/rDock/src/rDock_2013.1_src/data/scripts/dock_solv.prm

>  <Rbt.Receptor>
prm/blind_docking_60.prm

>  <SCORE>
22.0604

>  <SCORE.INTER>
0.81725

>  <SCORE.INTER.CONST>
1

>  <SCORE.INTER.POLAR>
0

>  <SCORE.INTER.ROT>
6

>  <SCORE.INTER.SOLV>
23.0263

>  <SCORE.INTER.VDW>
-14.7306

>  <SCORE.INTER.norm>
0.0263629

>  <SCORE.INTRA>
3.94154

>  <SCORE.INTRA.DIHEDRAL>
-0.913972

>  <SCORE.INTRA.DIHEDRAL.0>
14.7001

>  <SCORE.INTRA.POLAR>
0

>  <SCORE.INTRA.POLAR.0>
0

>  <SCORE.INTRA.REPUL>
0

>  <SCORE.INTRA.REPUL.0>
0

>  <SCORE.INTRA.SOLV>
0.93597

>  <SCORE.INTRA.SOLV.lig_0>
-65.3082

>  <SCORE.INTRA.VDW>
3.93054

>  <SCORE.INTRA.VDW.0>
-4.21408

>  <SCORE.INTRA.norm>
0.127147

>  <SCORE.RESTR>
17.3017

>  <SCORE.RESTR.CAVITY>
17.3017

>  <SCORE.RESTR.norm>
0.558118

>  <SCORE.SYSTEM>
0

>  <SCORE.SYSTEM.CONST>
0

>  <SCORE.SYSTEM.DIHEDRAL>
0

>  <SCORE.SYSTEM.SOLV>
0

>  <SCORE.SYSTEM.norm>
0

>  <SCORE.heavy>
31

>  <SCORE.norm>
0.711627

>  <RMSD>
7.431

$$$$
ligand
 OpenBabel11021811493D
libRbt.so/2013.1/901 2013/11/27
 31 33  0  0  0  0  0  0  0  0999 V2000
   -2.4280   12.0703   38.3584 C   0  0  2  0  0  0  0  0  0  0  0  0
   -1.6061   12.3565   39.4737 O   0  0  0  0  0  0  0  0  0  0  0  0
   -0.7828   16.4699   38.7941 C   0  0  2  0  0  0  0  0  0  0  0  0
   -0.3848   17.8132   39.0468 N   0  0  0  0  0  0  0  0  0  0  0  0
    1.5000   15.4601   36.7394 C   0  0  2  0  0  0  0  0  0  0  0  0
   -2.6563   10.4977   38.3029 C   0  0  2  0  0  0  0  0  0  0  0  0
   -3.2606   10.0573   39.5557 N   0  0  0  0  0  0  0  0  0  0  0  0
   -1.9668   16.1042   39.7961 C   0  0  0  0  0  0  0  0  0  0  0  0
    2.9308   15.8411   36.2306 C   0  0  2  0  0  0  0  0  0  0  0  0
    3.8870   15.1886   37.0386 O   0  0  0  0  0  0  0  0  0  0  0  0
   -1.2981    9.7511   38.0349 C   0  0  0  0  0  0  0  0  0  0  0  0
   -2.4202   14.6155   39.5036 C   0  0  2  0  0  0  0  0  0  0  0  0
   -3.5145   14.2650   40.4100 N   0  0  0  0  0  0  0  0  0  0  0  0
    3.0931   17.4022   36.3213 C   0  0  1  0  0  0  0  0  0  0  0  0
    4.4614   17.7944   35.8541 N   0  0  0  0  0  0  0  0  0  0  0  0
   -0.3998   10.5231   36.9799 C   0  0  0  0  0  0  0  0  0  0  0  0
   -1.1894   13.6480   39.7403 C   0  0  2  0  0  0  0  0  0  0  0  0
    1.9764   18.1022   35.3667 C   0  0  1  0  0  0  0  0  0  0  0  0
    2.0980   17.7353   34.0065 O   0  0  0  0  0  0  0  0  0  0  0  0
   -0.6887   11.7940   36.6086 C   0  0  1  0  0  0  0  0  0  0  0  0
   -1.7989   12.5263   37.1199 O   0  0  0  0  0  0  0  0  0  0  0  0
   -0.0083   14.0352   38.7560 C   0  0  2  0  0  0  0  0  0  0  0  0
    1.1132   13.1586   38.9887 O   0  0  0  0  0  0  0  0  0  0  0  0
    0.5559   17.6867   35.8536 C   0  0  0  0  0  0  0  0  0  0  0  0
    0.4481   16.1725   35.9066 O   0  0  0  0  0  0  0  0  0  0  0  0
    0.1448   12.5657   35.6136 C   0  0  0  0  0  0  0  0  0  0  0  0
    1.5122   12.4827   36.0697 O   0  0  0  0  0  0  0  0  0  0  0  0
    0.4363   15.5199   39.0440 C   0  0  1  0  0  0  0  0  0  0  0  0
    1.4785   15.8418   38.1567 O   0  0  0  0  0  0  0  0  0  0  0  0
    2.0114   19.6360   35.3634 C   0  0  0  0  0  0  0  0  0  0  0  0
    5.0684   18.9663   36.5186 C   0  0  0  0  0  0  0  0  0  0  0  0
  1  2  1  1  0  0  0
  1  6  1  0  0  0  0
  1 21  1  0  0  0  0
  3  4  1  1  0  0  0
  3  8  1  0  0  0  0
  3 28  1  0  0  0  0
  5  9  1  0  0  0  0
  5 25  1  0  0  0  0
  5 29  1  1  0  0  0
  6  7  1  1  0  0  0
  6 11  1  0  0  0  0
  8 12  1  0  0  0  0
  9 10  1  1  0  0  0
  9 14  1  0  0  0  0
 11 16  1  0  0  0  0
 12 13  1  1  0  0  0
 12 17  1  0  0  0  0
 14 15  1  6  0  0  0
 14 18  1  0  0  0  0
 15 31  1  0  0  0  0
 16 20  1  0  0  0  0
 17  2  1  6  0  0  0
 17 22  1  0  0  0  0
 18 19  1  6  0  0  0
 18 24  1  0  0  0  0
 18 30  1  0  0  0  0
 20 21  1  0  0  0  0
 20 26  1  1  0  0  0
 22 23  1  1  0  0  0
 22 28  1  0  0  0  0
 24 25  1  0  0  0  0
 26 27  1  0  0  0  0
 28 29  1  6  0  0  0
M  END
>  <CHROM.1>
177.12220213,-171.62625183,-146.85227257,42.12511715,-51.90068612,-77.09408440
0.30971076,14.71799905,37.50793917,2.43765490,-0.69744337,-2.90593086

>  <Name>
ligand

>  <RI>
0

>  <Rbt.Current_Directory>
/home/itssahil/PROJECTS/Mol_Feturizer/New_Systems/rnas/4GPY

>  <Rbt.Executable>
rbdock ($Id: //depot/dev/client3/rdock/2013.1/src/exe/rbdock.cxx#4 $)

>  <Rbt.Library>
libRbt.so (2013.1, Build901 2013/11/27)

>  <Rbt.Parameter_File>
/export/apps/rDock/src/rDock_2013.1_src/data/scripts/dock_solv.prm

>  <Rbt.Receptor>
prm/pocket_docking_3.prm

>  <SCORE>
-9.57906

>  <SCORE.INTER>
-7.72906

>  <SCORE.INTER.CONST>
1

>  <SCORE.INTER.POLAR>
0

>  <SCORE.INTER.ROT>
6

>  <SCORE.INTER.SOLV>
20.7381

>  <SCORE.INTER.VDW>
-19.6654

>  <SCORE.INTER.norm>
-0.249325

>  <SCORE.INTRA>
-1.86121

>  <SCORE.INTRA.DIHEDRAL>
-7.28626

>  <SCORE.INTRA.DIHEDRAL.0>
14.7001

>  <SCORE.INTRA.POLAR>
0

>  <SCORE.INTRA.POLAR.0>
0

>  <SCORE.INTRA.REPUL>
0

>  <SCORE.INTRA.REPUL.0>
0

>  <SCORE.INTRA.SOLV>
1.34021

>  <SCORE.INTRA.SOLV.lig_0>
-65.3082

>  <SCORE.INTRA.VDW>
1.11182

>  <SCORE.INTRA.VDW.0>
-4.21408

>  <SCORE.INTRA.norm>
-0.0600389

>  <SCORE.RESTR>
0.0112138

>  <SCORE.RESTR.CAVITY>
0.0112138

>  <SCORE.RESTR.norm>
0.000361735

>  <SCORE.SYSTEM>
0

>  <SCORE.SYSTEM.CONST>
0

>  <SCORE.SYSTEM.DIHEDRAL>
0

>  <SCORE.SYSTEM.SOLV>
0

>  <SCORE.SYSTEM.norm>
0

>  <SCORE.heavy>
31

>  <SCORE.norm>
-0.309002

>  <RMSD>
7.444

$$$$
ligand
 OpenBabel11021811493D
libRbt.so/2013.1/901 2013/11/27
 31 33  0  0  0  0  0  0  0  0999 V2000
   -3.4312   12.8341   40.8187 C   0  0  2  0  0  0  0  0  0  0  0  0
   -2.4465   13.4787   41.6038 O   0  0  0  0  0  0  0  0  0  0  0  0
   -0.8947   16.2108   38.7425 C   0  0  2  0  0  0  0  0  0  0  0  0
   -0.1640   17.3042   38.1971 N   0  0  0  0  0  0  0  0  0  0  0  0
    1.9246   15.5248   37.6531 C   0  0  2  0  0  0  0  0  0  0  0  0
   -4.4541   12.1150   41.8008 C   0  0  2  0  0  0  0  0  0  0  0  0
   -5.0336   13.1078   42.6991 N   0  0  0  0  0  0  0  0  0  0  0  0
   -1.8893   16.7794   39.8503 C   0  0  0  0  0  0  0  0  0  0  0  0
    2.6972   14.5236   36.7301 C   0  0  2  0  0  0  0  0  0  0  0  0
    1.7600   13.8118   35.9502 O   0  0  0  0  0  0  0  0  0  0  0  0
   -3.7353   10.9716   42.6070 C   0  0  0  0  0  0  0  0  0  0  0  0
   -2.7134   15.5650   40.4450 C   0  0  2  0  0  0  0  0  0  0  0  0
   -3.6396   16.0703   41.4592 N   0  0  0  0  0  0  0  0  0  0  0  0
    3.5266   13.5455   37.6394 C   0  0  1  0  0  0  0  0  0  0  0  0
    4.2655   12.5646   36.7812 N   0  0  0  0  0  0  0  0  0  0  0  0
   -2.7092   10.1686   41.7024 C   0  0  0  0  0  0  0  0  0  0  0  0
   -1.7066   14.5315   41.0972 C   0  0  2  0  0  0  0  0  0  0  0  0
    4.5947   14.4143   38.5068 C   0  0  1  0  0  0  0  0  0  0  0  0
    5.5089   15.1347   37.7039 O   0  0  0  0  0  0  0  0  0  0  0  0
   -2.3344   10.6321   40.4853 C   0  0  1  0  0  0  0  0  0  0  0  0
   -2.8207   11.8494   39.9269 O   0  0  0  0  0  0  0  0  0  0  0  0
   -0.7063   13.9903   39.9925 C   0  0  2  0  0  0  0  0  0  0  0  0
    0.2158   13.0613   40.5983 O   0  0  0  0  0  0  0  0  0  0  0  0
    3.8215   15.4361   39.3931 C   0  0  0  0  0  0  0  0  0  0  0  0
    2.9066   16.2853   38.5276 O   0  0  0  0  0  0  0  0  0  0  0  0
   -1.3554    9.9019   39.5972 C   0  0  0  0  0  0  0  0  0  0  0  0
   -0.0876   10.5784   39.7384 O   0  0  0  0  0  0  0  0  0  0  0  0
    0.1076   15.2017   39.3968 C   0  0  1  0  0  0  0  0  0  0  0  0
    0.9819   14.6987   38.4172 O   0  0  0  0  0  0  0  0  0  0  0  0
    5.4730   13.5848   39.4525 C   0  0  0  0  0  0  0  0  0  0  0  0
    3.5203   11.3520   36.3841 C   0  0  0  0  0  0  0  0  0  0  0  0
  1  2  1  1  0  0  0
  1  6  1  0  0  0  0
  1 21  1  0  0  0  0
  3  4  1  1  0  0  0
  3  8  1  0  0  0  0
  3 28  1  0  0  0  0
  5  9  1  0  0  0  0
  5 25  1  0  0  0  0
  5 29  1  1  0  0  0
  6  7  1  1  0  0  0
  6 11  1  0  0  0  0
  8 12  1  0  0  0  0
  9 10  1  1  0  0  0
  9 14  1  0  0  0  0
 11 16  1  0  0  0  0
 12 13  1  1  0  0  0
 12 17  1  0  0  0  0
 14 15  1  6  0  0  0
 14 18  1  0  0  0  0
 15 31  1  0  0  0  0
 16 20  1  0  0  0  0
 17  2  1  6  0  0  0
 17 22  1  0  0  0  0
 18 19  1  6  0  0  0
 18 24  1  0  0  0  0
 18 30  1  0  0  0  0
 20 21  1  0  0  0  0
 20 26  1  1  0  0  0
 22 23  1  1  0  0  0
 22 28  1  0  0  0  0
 24 25  1  0  0  0  0
 26 27  1  0  0  0  0
 28 29  1  6  0  0  0
M  END
>  <CHROM.1>
-157.90072776,178.36718762,-85.94547647,49.21135097,-101.50075503,62.62976005
0.08282972,13.69547373,39.46147035,-2.89889222,0.46865392,-0.05789518

>  <Name>
ligand

>  <RI>
0

>  <Rbt.Current_Directory>
/home/itssahil/PROJECTS/Mol_Feturizer/New_Systems/rnas/4GPY

>  <Rbt.Executable>
rbdock ($Id: //depot/dev/client3/rdock/2013.1/src/exe/rbdock.cxx#4 $)

>  <Rbt.Library>
libRbt.so (2013.1, Build901 2013/11/27)

>  <Rbt.Parameter_File>
/export/apps/rDock/src/rDock_2013.1_src/data/scripts/dock_solv.prm

>  <Rbt.Receptor>
prm/pocket_docking_4.prm

>  <SCORE>
-8.24353

>  <SCORE.INTER>
-5.95002

>  <SCORE.INTER.CONST>
1

>  <SCORE.INTER.POLAR>
0

>  <SCORE.INTER.ROT>
6

>  <SCORE.INTER.SOLV>
13.8429

>  <SCORE.INTER.VDW>
-16.181

>  <SCORE.INTER.norm>
-0.191936

>  <SCORE.INTRA>
-2.29351

>  <SCORE.INTRA.DIHEDRAL>
-9.36081

>  <SCORE.INTRA.DIHEDRAL.0>
14.7001

>  <SCORE.INTRA.POLAR>
0

>  <SCORE.INTRA.POLAR.0>
0

>  <SCORE.INTRA.REPUL>
0

>  <SCORE.INTRA.REPUL.0>
0

>  <SCORE.INTRA.SOLV>
1.75248

>  <SCORE.INTRA.SOLV.lig_0>
-65.3082

>  <SCORE.INTRA.VDW>
1.51066

>  <SCORE.INTRA.VDW.0>
-4.21408

>  <SCORE.INTRA.norm>
-0.0739841

>  <SCORE.RESTR>
0

>  <SCORE.RESTR.CAVITY>
0

>  <SCORE.RESTR.norm>
0

>  <SCORE.SYSTEM>
0

>  <SCORE.SYSTEM.CONST>
0

>  <SCORE.SYSTEM.DIHEDRAL>
0

>  <SCORE.SYSTEM.SOLV>
0

>  <SCORE.SYSTEM.norm>
0

>  <SCORE.heavy>
31

>  <SCORE.norm>
-0.26592

>  <RMSD>
7.457

$$$$
ligand
 OpenBabel11021811493D
libRbt.so/2013.1/901 2013/11/27
 31 33  0  0  0  0  0  0  0  0999 V2000
   -3.6566   13.1103   41.2595 C   0  0  2  0  0  0  0  0  0  0  0  0
   -3.2363   14.1513   42.1204 O   0  0  0  0  0  0  0  0  0  0  0  0
   -1.1172   16.5749   39.3463 C   0  0  2  0  0  0  0  0  0  0  0  0
   -0.4047   17.6863   38.8134 N   0  0  0  0  0  0  0  0  0  0  0  0
    1.1232   14.5126   39.0581 C   0  0  2  0  0  0  0  0  0  0  0  0
   -4.6744   12.1874   42.0597 C   0  0  2  0  0  0  0  0  0  0  0  0
   -5.7940   12.9998   42.5236 N   0  0  0  0  0  0  0  0  0  0  0  0
   -2.5396   17.0893   39.8482 C   0  0  0  0  0  0  0  0  0  0  0  0
    2.5822   13.9779   39.2500 C   0  0  2  0  0  0  0  0  0  0  0  0
    2.7189   13.5003   40.5715 O   0  0  0  0  0  0  0  0  0  0  0  0
   -3.9501   11.4797   43.2633 C   0  0  0  0  0  0  0  0  0  0  0  0
   -3.3381   15.8498   40.4258 C   0  0  2  0  0  0  0  0  0  0  0  0
   -4.6522   16.3025   40.8840 N   0  0  0  0  0  0  0  0  0  0  0  0
    3.5856   15.1562   38.9740 C   0  0  1  0  0  0  0  0  0  0  0  0
    4.9917   14.6759   39.1657 N   0  0  0  0  0  0  0  0  0  0  0  0
   -2.4883   11.0035   42.8731 C   0  0  0  0  0  0  0  0  0  0  0  0
   -2.5245   15.2338   41.6365 C   0  0  2  0  0  0  0  0  0  0  0  0
    3.3930   15.6607   37.4389 C   0  0  1  0  0  0  0  0  0  0  0  0
    3.6452   14.6484   36.4844 O   0  0  0  0  0  0  0  0  0  0  0  0
   -1.8922   11.4292   41.7330 C   0  0  1  0  0  0  0  0  0  0  0  0
   -2.5141   12.3173   40.8085 O   0  0  0  0  0  0  0  0  0  0  0  0
   -1.1023   14.7474   41.1321 C   0  0  2  0  0  0  0  0  0  0  0  0
   -0.3631   14.2015   42.2438 O   0  0  0  0  0  0  0  0  0  0  0  0
    1.9281   16.1540   37.2437 C   0  0  0  0  0  0  0  0  0  0  0  0
    0.9544   15.0619   37.6519 O   0  0  0  0  0  0  0  0  0  0  0  0
   -0.5002   11.0053   41.3293 C   0  0  0  0  0  0  0  0  0  0  0  0
    0.0520   12.0904   40.5531 O   0  0  0  0  0  0  0  0  0  0  0  0
   -0.3122   15.9814   40.5508 C   0  0  1  0  0  0  0  0  0  0  0  0
    0.9409   15.5251   40.1054 O   0  0  0  0  0  0  0  0  0  0  0  0
    4.3085   16.8219   37.0296 C   0  0  0  0  0  0  0  0  0  0  0  0
    5.3795   13.4688   38.4068 C   0  0  0  0  0  0  0  0  0  0  0  0
  1  2  1  1  0  0  0
  1  6  1  0  0  0  0
  1 21  1  0  0  0  0
  3  4  1  1  0  0  0
  3  8  1  0  0  0  0
  3 28  1  0  0  0  0
  5  9  1  0  0  0  0
  5 25  1  0  0  0  0
  5 29  1  1  0  0  0
  6  7  1  1  0  0  0
  6 11  1  0  0  0  0
  8 12  1  0  0  0  0
  9 10  1  1  0  0  0
  9 14  1  0  0  0  0
 11 16  1  0  0  0  0
 12 13  1  1  0  0  0
 12 17  1  0  0  0  0
 14 15  1  6  0  0  0
 14 18  1  0  0  0  0
 15 31  1  0  0  0  0
 16 20  1  0  0  0  0
 17  2  1  6  0  0  0
 17 22  1  0  0  0  0
 18 19  1  6  0  0  0
 18 24  1  0  0  0  0
 18 30  1  0  0  0  0
 20 21  1  0  0  0  0
 20 26  1  1  0  0  0
 22 23  1  1  0  0  0
 22 28  1  0  0  0  0
 24 25  1  0  0  0  0
 26 27  1  0  0  0  0
 28 29  1  6  0  0  0
M  END
>  <CHROM.1>
-169.09513880,-160.85781227,53.41387592,53.01915866,-150.64170967,-58.02403827
-0.25908479,14.32269019,40.14390766,-2.70121556,0.34838408,-0.45869731

>  <Name>
ligand

>  <RI>
0

>  <Rbt.Current_Directory>
/home/itssahil/PROJECTS/Mol_Feturizer/New_Systems/rnas/4GPY

>  <Rbt.Executable>
rbdock ($Id: //depot/dev/client3/rdock/2013.1/src/exe/rbdock.cxx#4 $)

>  <Rbt.Library>
libRbt.so (2013.1, Build901 2013/11/27)

>  <Rbt.Parameter_File>
/export/apps/rDock/src/rDock_2013.1_src/data/scripts/dock_solv.prm

>  <Rbt.Receptor>
prm/pocket_docking_5.prm

>  <SCORE>
-5.60217

>  <SCORE.INTER>
-4.92416

>  <SCORE.INTER.CONST>
1

>  <SCORE.INTER.POLAR>
0

>  <SCORE.INTER.ROT>
6

>  <SCORE.INTER.SOLV>
16.3177

>  <SCORE.INTER.VDW>
-16.322

>  <SCORE.INTER.norm>
-0.158844

>  <SCORE.INTRA>
-0.678013

>  <SCORE.INTRA.DIHEDRAL>
-9.49377

>  <SCORE.INTRA.DIHEDRAL.0>
14.7001

>  <SCORE.INTRA.POLAR>
0

>  <SCORE.INTRA.POLAR.0>
0

>  <SCORE.INTRA.REPUL>
0

>  <SCORE.INTRA.REPUL.0>
0

>  <SCORE.INTRA.SOLV>
2.92578

>  <SCORE.INTRA.SOLV.lig_0>
-65.3082

>  <SCORE.INTRA.VDW>
2.60598

>  <SCORE.INTRA.VDW.0>
-4.21408

>  <SCORE.INTRA.norm>
-0.0218714

>  <SCORE.RESTR>
0

>  <SCORE.RESTR.CAVITY>
0

>  <SCORE.RESTR.norm>
0

>  <SCORE.SYSTEM>
0

>  <SCORE.SYSTEM.CONST>
0

>  <SCORE.SYSTEM.DIHEDRAL>
0

>  <SCORE.SYSTEM.SOLV>
0

>  <SCORE.SYSTEM.norm>
0

>  <SCORE.heavy>
31

>  <SCORE.norm>
-0.180715

>  <RMSD>
7.462

$$$$
ligand
 OpenBabel11021811493D
libRbt.so/2013.1/901 2013/11/27
 31 33  0  0  0  0  0  0  0  0999 V2000
    4.8580   21.9294   36.3315 C   0  0  2  0  0  0  0  0  0  0  0  0
    4.7235   21.3772   35.0360 O   0  0  0  0  0  0  0  0  0  0  0  0
    0.5189   20.7746   34.8987 C   0  0  2  0  0  0  0  0  0  0  0  0
   -0.7537   20.3298   34.4411 N   0  0  0  0  0  0  0  0  0  0  0  0
    0.1798   17.4593   35.9902 C   0  0  2  0  0  0  0  0  0  0  0  0
    6.2738   22.6479   36.4182 C   0  0  2  0  0  0  0  0  0  0  0  0
    6.3581   23.6667   35.3773 N   0  0  0  0  0  0  0  0  0  0  0  0
    1.1817   21.6563   33.7485 C   0  0  0  0  0  0  0  0  0  0  0  0
    0.1710   16.7529   37.3874 C   0  0  2  0  0  0  0  0  0  0  0  0
   -0.4771   17.5956   38.3164 O   0  0  0  0  0  0  0  0  0  0  0  0
    7.4362   21.5974   36.2792 C   0  0  0  0  0  0  0  0  0  0  0  0
    2.5901   22.1644   34.2642 C   0  0  2  0  0  0  0  0  0  0  0  0
    3.2102   22.9843   33.2227 N   0  0  0  0  0  0  0  0  0  0  0  0
    1.6584   16.4831   37.8192 C   0  0  1  0  0  0  0  0  0  0  0  0
    1.6806   15.8203   39.1626 N   0  0  0  0  0  0  0  0  0  0  0  0
    7.1103   20.2524   37.0543 C   0  0  0  0  0  0  0  0  0  0  0  0
    3.5031   20.9105   34.5825 C   0  0  2  0  0  0  0  0  0  0  0  0
    2.3534   15.5020   36.7227 C   0  0  1  0  0  0  0  0  0  0  0  0
    1.7056   14.2506   36.6056 O   0  0  0  0  0  0  0  0  0  0  0  0
    5.8630   19.9932   37.5165 C   0  0  1  0  0  0  0  0  0  0  0  0
    4.7653   20.8866   37.3520 O   0  0  0  0  0  0  0  0  0  0  0  0
    2.8237   20.0271   35.7102 C   0  0  2  0  0  0  0  0  0  0  0  0
    3.6548   18.8803   35.9829 O   0  0  0  0  0  0  0  0  0  0  0  0
    2.3228   16.1937   35.3269 C   0  0  0  0  0  0  0  0  0  0  0  0
    0.8988   16.5880   34.9746 O   0  0  0  0  0  0  0  0  0  0  0  0
    5.5102   18.7225   38.2522 C   0  0  0  0  0  0  0  0  0  0  0  0
    5.4165   17.6820   37.2554 O   0  0  0  0  0  0  0  0  0  0  0  0
    1.4188   19.5287   35.1974 C   0  0  1  0  0  0  0  0  0  0  0  0
    0.8342   18.7540   36.2148 O   0  0  0  0  0  0  0  0  0  0  0  0
    3.8201   15.1583   37.0134 C   0  0  0  0  0  0  0  0  0  0  0  0
    2.9998   15.7204   39.8208 C   0  0  0  0  0  0  0  0  0  0  0  0
  1  2  1  6  0  0  0
  1  6  1  0  0  0  0
  1 21  1  0  0  0  0
  3  4  1  6  0  0  0
  3  8  1  0  0  0  0
  3 28  1  0  0  0  0
  5  9  1  0  0  0  0
  5 25  1  0  0  0  0
  5 29  1  1  0  0  0
  6  7  1  6  0  0  0
  6 11  1  0  0  0  0
  8 12  1  0  0  0  0
  9 10  1  1  0  0  0
  9 14  1  0  0  0  0
 11 16  1  0  0  0  0
 12 13  1  6  0  0  0
 12 17  1  0  0  0  0
 14 15  1  1  0  0  0
 14 18  1  0  0  0  0
 15 31  1  0  0  0  0
 16 20  1  0  0  0  0
 17  2  1  1  0  0  0
 17 22  1  0  0  0  0
 18 19  1  6  0  0  0
 18 24  1  0  0  0  0
 18 30  1  0  0  0  0
 20 21  1  0  0  0  0
 20 26  1  6  0  0  0
 22 23  1  6  0  0  0
 22 28  1  0  0  0  0
 24 25  1  0  0  0  0
 26 27  1  0  0  0  0
 28 29  1  1  0  0  0
M  END
>  <CHROM.1>
-167.74022109,159.61284777,-169.27816617,73.68844084,-76.17295451,106.94718367
3.05237106,19.05535436,36.28851627,-0.98403376,0.36716889,2.62486294

>  <Name>
ligand

>  <RI>
0

>  <Rbt.Current_Directory>
/home/itssahil/PROJECTS/Mol_Feturizer/New_Systems/rnas/4GPY

>  <Rbt.Executable>
rbdock ($Id: //depot/dev/client3/rdock/2013.1/src/exe/rbdock.cxx#4 $)

>  <Rbt.Library>
libRbt.so (2013.1, Build901 2013/11/27)

>  <Rbt.Parameter_File>
/export/apps/rDock/src/rDock_2013.1_src/data/scripts/dock_solv.prm

>  <Rbt.Receptor>
prm/blind_docking_60.prm

>  <SCORE>
26.7865

>  <SCORE.INTER>
5.27683

>  <SCORE.INTER.CONST>
1

>  <SCORE.INTER.POLAR>
0

>  <SCORE.INTER.ROT>
6

>  <SCORE.INTER.SOLV>
23.2026

>  <SCORE.INTER.VDW>
-11.8163

>  <SCORE.INTER.norm>
0.17022

>  <SCORE.INTRA>
3.93815

>  <SCORE.INTRA.DIHEDRAL>
-1.47755

>  <SCORE.INTRA.DIHEDRAL.0>
14.7001

>  <SCORE.INTRA.POLAR>
0

>  <SCORE.INTRA.POLAR.0>
0

>  <SCORE.INTRA.REPUL>
0

>  <SCORE.INTRA.REPUL.0>
0

>  <SCORE.INTRA.SOLV>
0.707292

>  <SCORE.INTRA.SOLV.lig_0>
-65.3082

>  <SCORE.INTRA.VDW>
4.32328

>  <SCORE.INTRA.VDW.0>
-4.21408

>  <SCORE.INTRA.norm>
0.127037

>  <SCORE.RESTR>
17.5715

>  <SCORE.RESTR.CAVITY>
17.5715

>  <SCORE.RESTR.norm>
0.566823

>  <SCORE.SYSTEM>
0

>  <SCORE.SYSTEM.CONST>
0

>  <SCORE.SYSTEM.DIHEDRAL>
0

>  <SCORE.SYSTEM.SOLV>
0

>  <SCORE.SYSTEM.norm>
0

>  <SCORE.heavy>
31

>  <SCORE.norm>
0.86408

>  <RMSD>
7.472

$$$$
ligand
 OpenBabel11021811493D
libRbt.so/2013.1/901 2013/11/27
 31 33  0  0  0  0  0  0  0  0999 V2000
    1.3058   10.9066   44.2016 C   0  0  2  0  0  0  0  0  0  0  0  0
   -0.0365   10.5244   43.9701 O   0  0  0  0  0  0  0  0  0  0  0  0
   -2.5056   10.6350   40.5130 C   0  0  2  0  0  0  0  0  0  0  0  0
   -3.2789   11.1588   39.4386 N   0  0  0  0  0  0  0  0  0  0  0  0
   -0.3869    9.2033   38.8184 C   0  0  2  0  0  0  0  0  0  0  0  0
    1.8954    9.9735   45.3461 C   0  0  2  0  0  0  0  0  0  0  0  0
    1.7871    8.5793   44.9301 N   0  0  0  0  0  0  0  0  0  0  0  0
   -3.1142   11.1850   41.8793 C   0  0  0  0  0  0  0  0  0  0  0  0
    0.5977    9.1349   37.6031 C   0  0  2  0  0  0  0  0  0  0  0  0
    1.8146    9.7485   37.9716 O   0  0  0  0  0  0  0  0  0  0  0  0
    1.1410   10.2206   46.7040 C   0  0  0  0  0  0  0  0  0  0  0  0
   -2.2638   10.5890   43.0749 C   0  0  2  0  0  0  0  0  0  0  0  0
   -2.8148   11.0771   44.3398 N   0  0  0  0  0  0  0  0  0  0  0  0
   -0.0597    9.8819   36.3859 C   0  0  1  0  0  0  0  0  0  0  0  0
    0.8692    9.8452   35.2111 N   0  0  0  0  0  0  0  0  0  0  0  0
    0.8258   11.7584   46.9313 C   0  0  0  0  0  0  0  0  0  0  0  0
   -0.7602   11.0605   42.9206 C   0  0  2  0  0  0  0  0  0  0  0  0
   -1.4497    9.1301   35.9976 C   0  0  1  0  0  0  0  0  0  0  0  0
   -1.2663    7.7785   35.6248 O   0  0  0  0  0  0  0  0  0  0  0  0
    0.9574   12.6579   45.9263 C   0  0  1  0  0  0  0  0  0  0  0  0
    1.3826   12.3077   44.6122 O   0  0  0  0  0  0  0  0  0  0  0  0
   -0.1717   10.5290   41.5477 C   0  0  2  0  0  0  0  0  0  0  0  0
    1.1928   10.9755   41.4091 O   0  0  0  0  0  0  0  0  0  0  0  0
   -2.4096    9.1664   37.2243 C   0  0  0  0  0  0  0  0  0  0  0  0
   -1.7183    8.5765   38.4414 O   0  0  0  0  0  0  0  0  0  0  0  0
    0.6607   14.1284   46.0996 C   0  0  0  0  0  0  0  0  0  0  0  0
   -0.4520   14.4293   45.2300 O   0  0  0  0  0  0  0  0  0  0  0  0
   -1.0242   11.1177   40.3596 C   0  0  1  0  0  0  0  0  0  0  0  0
   -0.4880   10.6285   39.1553 O   0  0  0  0  0  0  0  0  0  0  0  0
   -2.2093    9.7608   34.8233 C   0  0  0  0  0  0  0  0  0  0  0  0
    1.6709   11.0635   34.9731 C   0  0  0  0  0  0  0  0  0  0  0  0
  1  2  1  1  0  0  0
  1  6  1  0  0  0  0
  1 21  1  0  0  0  0
  3  4  1  6  0  0  0
  3  8  1  0  0  0  0
  3 28  1  0  0  0  0
  5  9  1  0  0  0  0
  5 25  1  0  0  0  0
  5 29  1  6  0  0  0
  6  7  1  6  0  0  0
  6 11  1  0  0  0  0
  8 12  1  0  0  0  0
  9 10  1  1  0  0  0
  9 14  1  0  0  0  0
 11 16  1  0  0  0  0
 12 13  1  1  0  0  0
 12 17  1  0  0  0  0
 14 15  1  6  0  0  0
 14 18  1  0  0  0  0
 15 31  1  0  0  0  0
 16 20  1  0  0  0  0
 17  2  1  1  0  0  0
 17 22  1  0  0  0  0
 18 19  1  6  0  0  0
 18 24  1  0  0  0  0
 18 30  1  0  0  0  0
 20 21  1  0  0  0  0
 20 26  1  6  0  0  0
 22 23  1  6  0  0  0
 22 28  1  0  0  0  0
 24 25  1  0  0  0  0
 26 27  1  0  0  0  0
 28 29  1  6  0  0  0
M  END
>  <CHROM.1>
-172.57079566,-165.11586201,-99.59237692,-171.84570134,-116.19773797,-59.04890924
-0.31600917,10.58108889,40.99595399,-1.44649134,0.11624925,-1.82724928

>  <Name>
ligand

>  <RI>
0

>  <Rbt.Current_Directory>
/home/itssahil/PROJECTS/Mol_Feturizer/New_Systems/rnas/4GPY

>  <Rbt.Executable>
rbdock ($Id: //depot/dev/client3/rdock/2013.1/src/exe/rbdock.cxx#4 $)

>  <Rbt.Library>
libRbt.so (2013.1, Build901 2013/11/27)

>  <Rbt.Parameter_File>
/export/apps/rDock/src/rDock_2013.1_src/data/scripts/dock_solv.prm

>  <Rbt.Receptor>
prm/pocket_docking_8.prm

>  <SCORE>
-3.58947

>  <SCORE.INTER>
0.806079

>  <SCORE.INTER.CONST>
1

>  <SCORE.INTER.POLAR>
0

>  <SCORE.INTER.ROT>
6

>  <SCORE.INTER.SOLV>
10.9347

>  <SCORE.INTER.VDW>
-10.7075

>  <SCORE.INTER.norm>
0.0260025

>  <SCORE.INTRA>
-4.39555

>  <SCORE.INTRA.DIHEDRAL>
-10.4669

>  <SCORE.INTRA.DIHEDRAL.0>
14.7001

>  <SCORE.INTRA.POLAR>
0

>  <SCORE.INTRA.POLAR.0>
0

>  <SCORE.INTRA.REPUL>
0

>  <SCORE.INTRA.REPUL.0>
0

>  <SCORE.INTRA.SOLV>
-0.188604

>  <SCORE.INTRA.SOLV.lig_0>
-65.3082

>  <SCORE.INTRA.VDW>
0.932197

>  <SCORE.INTRA.VDW.0>
-4.21408

>  <SCORE.INTRA.norm>
-0.141792

>  <SCORE.RESTR>
0

>  <SCORE.RESTR.CAVITY>
0

>  <SCORE.RESTR.norm>
0

>  <SCORE.SYSTEM>
0

>  <SCORE.SYSTEM.CONST>
0

>  <SCORE.SYSTEM.DIHEDRAL>
0

>  <SCORE.SYSTEM.SOLV>
0

>  <SCORE.SYSTEM.norm>
0

>  <SCORE.heavy>
31

>  <SCORE.norm>
-0.115789

>  <RMSD>
7.480

$$$$
ligand
 OpenBabel11021811493D
libRbt.so/2013.1/901 2013/11/27
 31 33  0  0  0  0  0  0  0  0999 V2000
   -2.0532   10.4050   41.8236 C   0  0  2  0  0  0  0  0  0  0  0  0
   -1.4832   11.5113   41.1509 O   0  0  0  0  0  0  0  0  0  0  0  0
   -2.7981   15.5171   40.6172 C   0  0  2  0  0  0  0  0  0  0  0  0
   -3.5733   16.6200   40.1596 N   0  0  0  0  0  0  0  0  0  0  0  0
   -5.3305   16.1912   42.5357 C   0  0  2  0  0  0  0  0  0  0  0  0
   -0.8751    9.4291   42.2569 C   0  0  2  0  0  0  0  0  0  0  0  0
    0.0646   10.1586   43.1015 N   0  0  0  0  0  0  0  0  0  0  0  0
   -2.2298   14.7452   39.3441 C   0  0  0  0  0  0  0  0  0  0  0  0
   -5.4118   16.7976   43.9769 C   0  0  2  0  0  0  0  0  0  0  0  0
   -4.1603   17.3654   44.3001 O   0  0  0  0  0  0  0  0  0  0  0  0
   -0.1560    8.8344   40.9907 C   0  0  0  0  0  0  0  0  0  0  0  0
   -1.3542   13.5281   39.8538 C   0  0  2  0  0  0  0  0  0  0  0  0
   -0.8161   12.8120   38.6965 N   0  0  0  0  0  0  0  0  0  0  0  0
   -5.7807   15.6466   44.9822 C   0  0  1  0  0  0  0  0  0  0  0  0
   -5.8503   16.1967   46.3741 N   0  0  0  0  0  0  0  0  0  0  0  0
   -1.1889    8.4720   39.8428 C   0  0  0  0  0  0  0  0  0  0  0  0
   -2.2687   12.5617   40.7122 C   0  0  2  0  0  0  0  0  0  0  0  0
   -7.2318   15.0358   44.5709 C   0  0  1  0  0  0  0  0  0  0  0  0
   -8.2712   15.9934   44.6132 O   0  0  0  0  0  0  0  0  0  0  0  0
   -2.4727    8.9032   39.8919 C   0  0  1  0  0  0  0  0  0  0  0  0
   -2.9922    9.6973   40.9548 O   0  0  0  0  0  0  0  0  0  0  0  0
   -2.8485   13.3453   41.9625 C   0  0  2  0  0  0  0  0  0  0  0  0
   -3.6914   12.4617   42.7300 O   0  0  0  0  0  0  0  0  0  0  0  0
   -7.1552   14.4702   43.1212 C   0  0  0  0  0  0  0  0  0  0  0  0
   -6.6560   15.5450   42.1709 O   0  0  0  0  0  0  0  0  0  0  0  0
   -3.4844    8.5863   38.8165 C   0  0  0  0  0  0  0  0  0  0  0  0
   -3.5120    9.7246   37.9287 O   0  0  0  0  0  0  0  0  0  0  0  0
   -3.7136   14.5606   41.4528 C   0  0  1  0  0  0  0  0  0  0  0  0
   -4.2111   15.2423   42.5774 O   0  0  0  0  0  0  0  0  0  0  0  0
   -7.7184   13.8896   45.4672 C   0  0  0  0  0  0  0  0  0  0  0  0
   -4.5868   16.1992   47.1401 C   0  0  0  0  0  0  0  0  0  0  0  0
  1  2  1  6  0  0  0
  1  6  1  0  0  0  0
  1 21  1  0  0  0  0
  3  4  1  6  0  0  0
  3  8  1  0  0  0  0
  3 28  1  0  0  0  0
  5  9  1  0  0  0  0
  5 25  1  0  0  0  0
  5 29  1  1  0  0  0
  6  7  1  1  0  0  0
  6 11  1  0  0  0  0
  8 12  1  0  0  0  0
  9 10  1  1  0  0  0
  9 14  1  0  0  0  0
 11 16  1  0  0  0  0
 12 13  1  6  0  0  0
 12 17  1  0  0  0  0
 14 15  1  1  0  0  0
 14 18  1  0  0  0  0
 15 31  1  0  0  0  0
 16 20  1  0  0  0  0
 17  2  1  1  0  0  0
 17 22  1  0  0  0  0
 18 19  1  1  0  0  0
 18 24  1  0  0  0  0
 18 30  1  0  0  0  0
 20 21  1  0  0  0  0
 20 26  1  6  0  0  0
 22 23  1  6  0  0  0
 22 28  1  0  0  0  0
 24 25  1  0  0  0  0
 26 27  1  0  0  0  0
 28 29  1  1  0  0  0
M  END
>  <CHROM.1>
-176.90523672,-174.05447434,-88.70077472,-173.06010057,-96.55753272,78.65282760
-3.70431641,13.24454640,42.08186045,0.47284189,-0.95887392,2.75269093

>  <Name>
ligand

>  <RI>
0

>  <Rbt.Current_Directory>
/home/itssahil/PROJECTS/Mol_Feturizer/New_Systems/rnas/4GPY

>  <Rbt.Executable>
rbdock ($Id: //depot/dev/client3/rdock/2013.1/src/exe/rbdock.cxx#4 $)

>  <Rbt.Library>
libRbt.so (2013.1, Build901 2013/11/27)

>  <Rbt.Parameter_File>
/export/apps/rDock/src/rDock_2013.1_src/data/scripts/dock_solv.prm

>  <Rbt.Receptor>
prm/pocket_docking_8.prm

>  <SCORE>
-6.24867

>  <SCORE.INTER>
-1.70253

>  <SCORE.INTER.CONST>
1

>  <SCORE.INTER.POLAR>
0

>  <SCORE.INTER.ROT>
6

>  <SCORE.INTER.SOLV>
8.26899

>  <SCORE.INTER.VDW>
-11.4913

>  <SCORE.INTER.norm>
-0.0549202

>  <SCORE.INTRA>
-4.54615

>  <SCORE.INTRA.DIHEDRAL>
-9.77643

>  <SCORE.INTRA.DIHEDRAL.0>
14.7001

>  <SCORE.INTRA.POLAR>
0

>  <SCORE.INTRA.POLAR.0>
0

>  <SCORE.INTRA.REPUL>
0

>  <SCORE.INTRA.REPUL.0>
0

>  <SCORE.INTRA.SOLV>
-1.43426

>  <SCORE.INTRA.SOLV.lig_0>
-65.3082

>  <SCORE.INTRA.VDW>
1.0592

>  <SCORE.INTRA.VDW.0>
-4.21408

>  <SCORE.INTRA.norm>
-0.14665

>  <SCORE.RESTR>
0

>  <SCORE.RESTR.CAVITY>
0

>  <SCORE.RESTR.norm>
0

>  <SCORE.SYSTEM>
0

>  <SCORE.SYSTEM.CONST>
0

>  <SCORE.SYSTEM.DIHEDRAL>
0

>  <SCORE.SYSTEM.SOLV>
0

>  <SCORE.SYSTEM.norm>
0

>  <SCORE.heavy>
31

>  <SCORE.norm>
-0.20157

>  <RMSD>
7.600

$$$$
ligand
 OpenBabel11021811493D
libRbt.so/2013.1/901 2013/11/27
 31 33  0  0  0  0  0  0  0  0999 V2000
   -3.2218   15.7619   40.6063 C   0  0  2  0  0  0  0  0  0  0  0  0
   -2.4544   15.9284   41.7830 O   0  0  0  0  0  0  0  0  0  0  0  0
    1.7107   15.4442   42.4742 C   0  0  2  0  0  0  0  0  0  0  0  0
    2.9687   14.8061   42.6664 N   0  0  0  0  0  0  0  0  0  0  0  0
    3.2537   14.8409   39.6251 C   0  0  2  0  0  0  0  0  0  0  0  0
   -4.6574   16.3971   40.8580 C   0  0  2  0  0  0  0  0  0  0  0  0
   -4.5027   17.8029   41.2163 N   0  0  0  0  0  0  0  0  0  0  0  0
    0.7049   14.9083   43.5881 C   0  0  0  0  0  0  0  0  0  0  0  0
    3.7359   15.5950   38.3406 C   0  0  2  0  0  0  0  0  0  0  0  0
    3.9412   16.9539   38.6639 O   0  0  0  0  0  0  0  0  0  0  0  0
   -5.4225   15.6063   41.9820 C   0  0  0  0  0  0  0  0  0  0  0  0
   -0.6895   15.6306   43.3841 C   0  0  2  0  0  0  0  0  0  0  0  0
   -1.6244   15.1565   44.4053 N   0  0  0  0  0  0  0  0  0  0  0  0
    2.6332   15.4443   37.2302 C   0  0  1  0  0  0  0  0  0  0  0  0
    3.0623   16.1708   35.9923 N   0  0  0  0  0  0  0  0  0  0  0  0
   -5.1874   14.0420   41.8654 C   0  0  0  0  0  0  0  0  0  0  0  0
   -1.2412   15.2835   41.9411 C   0  0  2  0  0  0  0  0  0  0  0  0
    2.4441   13.8643   36.8897 C   0  0  1  0  0  0  0  0  0  0  0  0
    3.6252   13.2532   36.4090 O   0  0  0  0  0  0  0  0  0  0  0  0
   -4.2207   13.5353   41.0621 C   0  0  1  0  0  0  0  0  0  0  0  0
   -3.3558   14.3452   40.2708 O   0  0  0  0  0  0  0  0  0  0  0  0
   -0.2223   15.7989   40.8412 C   0  0  2  0  0  0  0  0  0  0  0  0
   -0.7257   15.4656   39.5313 O   0  0  0  0  0  0  0  0  0  0  0  0
    2.0033   13.1129   38.1814 C   0  0  0  0  0  0  0  0  0  0  0  0
    2.9950   13.3796   39.3006 O   0  0  0  0  0  0  0  0  0  0  0  0
   -3.9602   12.0539   40.9288 C   0  0  0  0  0  0  0  0  0  0  0  0
   -4.1385   11.7283   39.5334 O   0  0  0  0  0  0  0  0  0  0  0  0
    1.1670   15.0841   41.0508 C   0  0  1  0  0  0  0  0  0  0  0  0
    2.0540   15.5608   40.0695 O   0  0  0  0  0  0  0  0  0  0  0  0
    1.3850   13.5646   35.8209 C   0  0  0  0  0  0  0  0  0  0  0  0
    2.1185   17.1779   35.4648 C   0  0  0  0  0  0  0  0  0  0  0  0
  1  2  1  1  0  0  0
  1  6  1  0  0  0  0
  1 21  1  0  0  0  0
  3  4  1  1  0  0  0
  3  8  1  0  0  0  0
  3 28  1  0  0  0  0
  5  9  1  0  0  0  0
  5 25  1  0  0  0  0
  5 29  1  6  0  0  0
  6  7  1  1  0  0  0
  6 11  1  0  0  0  0
  8 12  1  0  0  0  0
  9 10  1  1  0  0  0
  9 14  1  0  0  0  0
 11 16  1  0  0  0  0
 12 13  1  1  0  0  0
 12 17  1  0  0  0  0
 14 15  1  6  0  0  0
 14 18  1  0  0  0  0
 15 31  1  0  0  0  0
 16 20  1  0  0  0  0
 17  2  1  6  0  0  0
 17 22  1  0  0  0  0
 18 19  1  6  0  0  0
 18 24  1  0  0  0  0
 18 30  1  0  0  0  0
 20 21  1  0  0  0  0
 20 26  1  1  0  0  0
 22 23  1  6  0  0  0
 22 28  1  0  0  0  0
 24 25  1  0  0  0  0
 26 27  1  0  0  0  0
 28 29  1  6  0  0  0
M  END
>  <CHROM.1>
169.23585299,168.34904374,-125.12732897,-177.29596037,120.96607272,83.73609633
-0.17627154,14.94119468,40.02024324,2.62941980,0.15990274,1.33375873

>  <Name>
ligand

>  <RI>
0

>  <Rbt.Current_Directory>
/home/itssahil/PROJECTS/Mol_Feturizer/New_Systems/rnas/4GPY

>  <Rbt.Executable>
rbdock ($Id: //depot/dev/client3/rdock/2013.1/src/exe/rbdock.cxx#4 $)

>  <Rbt.Library>
libRbt.so (2013.1, Build901 2013/11/27)

>  <Rbt.Parameter_File>
/export/apps/rDock/src/rDock_2013.1_src/data/scripts/dock_solv.prm

>  <Rbt.Receptor>
prm/pocket_docking_6.prm

>  <SCORE>
-6.61438

>  <SCORE.INTER>
-2.62076

>  <SCORE.INTER.CONST>
1

>  <SCORE.INTER.POLAR>
0

>  <SCORE.INTER.ROT>
6

>  <SCORE.INTER.SOLV>
13.4606

>  <SCORE.INTER.VDW>
-13.834

>  <SCORE.INTER.norm>
-0.0845407

>  <SCORE.INTRA>
-3.99362

>  <SCORE.INTRA.DIHEDRAL>
-8.1533

>  <SCORE.INTRA.DIHEDRAL.0>
14.7001

>  <SCORE.INTRA.POLAR>
0

>  <SCORE.INTRA.POLAR.0>
0

>  <SCORE.INTRA.REPUL>
0

>  <SCORE.INTRA.REPUL.0>
0

>  <SCORE.INTRA.SOLV>
-1.73984

>  <SCORE.INTRA.SOLV.lig_0>
-65.3082

>  <SCORE.INTRA.VDW>
0.952952

>  <SCORE.INTRA.VDW.0>
-4.21408

>  <SCORE.INTRA.norm>
-0.128826

>  <SCORE.RESTR>
0

>  <SCORE.RESTR.CAVITY>
0

>  <SCORE.RESTR.norm>
0

>  <SCORE.SYSTEM>
0

>  <SCORE.SYSTEM.CONST>
0

>  <SCORE.SYSTEM.DIHEDRAL>
0

>  <SCORE.SYSTEM.SOLV>
0

>  <SCORE.SYSTEM.norm>
0

>  <SCORE.heavy>
31

>  <SCORE.norm>
-0.213367

>  <RMSD>
7.624

$$$$
ligand
 OpenBabel11021811493D
libRbt.so/2013.1/901 2013/11/27
 31 33  0  0  0  0  0  0  0  0999 V2000
   -1.3765   13.4458   42.1661 C   0  0  2  0  0  0  0  0  0  0  0  0
   -0.9568   14.7890   42.3109 O   0  0  0  0  0  0  0  0  0  0  0  0
    0.2816   15.5953   38.3264 C   0  0  2  0  0  0  0  0  0  0  0  0
    0.7276   16.3215   37.1860 N   0  0  0  0  0  0  0  0  0  0  0  0
    3.8970   15.6598   39.3348 C   0  0  2  0  0  0  0  0  0  0  0  0
   -2.0167   12.9764   43.5438 C   0  0  2  0  0  0  0  0  0  0  0  0
   -3.1247   13.8628   43.8833 N   0  0  0  0  0  0  0  0  0  0  0  0
   -1.0869   16.2420   38.8250 C   0  0  0  0  0  0  0  0  0  0  0  0
    4.8729   14.9671   38.3253 C   0  0  2  0  0  0  0  0  0  0  0  0
    4.4262   15.2290   37.0119 O   0  0  0  0  0  0  0  0  0  0  0  0
   -0.9310   12.9640   44.6819 C   0  0  0  0  0  0  0  0  0  0  0  0
   -1.5911   15.4237   40.0835 C   0  0  2  0  0  0  0  0  0  0  0  0
   -2.8533   15.9990   40.5501 N   0  0  0  0  0  0  0  0  0  0  0  0
    4.8783   13.4223   38.6170 C   0  0  1  0  0  0  0  0  0  0  0  0
    5.7940   12.7309   37.6537 N   0  0  0  0  0  0  0  0  0  0  0  0
    0.4649   12.4224   44.1584 C   0  0  0  0  0  0  0  0  0  0  0  0
   -0.4988   15.5143   41.2261 C   0  0  2  0  0  0  0  0  0  0  0  0
    5.4090   13.1770   40.1357 C   0  0  1  0  0  0  0  0  0  0  0  0
    6.7200   13.6603   40.3522 O   0  0  0  0  0  0  0  0  0  0  0  0
    0.7083   12.2749   42.8334 C   0  0  1  0  0  0  0  0  0  0  0  0
   -0.2469   12.5836   41.8224 O   0  0  0  0  0  0  0  0  0  0  0  0
    0.8652   14.8906   40.7121 C   0  0  2  0  0  0  0  0  0  0  0  0
    1.8578   14.9908   41.7538 O   0  0  0  0  0  0  0  0  0  0  0  0
    4.4564   13.9024   41.1327 C   0  0  0  0  0  0  0  0  0  0  0  0
    4.3357   15.3699   40.7600 O   0  0  0  0  0  0  0  0  0  0  0  0
    2.0253   11.7696   42.2944 C   0  0  0  0  0  0  0  0  0  0  0  0
    1.7388   10.5408   41.5925 O   0  0  0  0  0  0  0  0  0  0  0  0
    1.3613   15.7022   39.4550 C   0  0  1  0  0  0  0  0  0  0  0  0
    2.5668   15.1280   39.0145 O   0  0  0  0  0  0  0  0  0  0  0  0
    5.4585   11.7045   40.5638 C   0  0  0  0  0  0  0  0  0  0  0  0
    5.3153   11.4455   37.1042 C   0  0  0  0  0  0  0  0  0  0  0  0
  1  2  1  1  0  0  0
  1  6  1  0  0  0  0
  1 21  1  0  0  0  0
  3  4  1  6  0  0  0
  3  8  1  0  0  0  0
  3 28  1  0  0  0  0
  5  9  1  0  0  0  0
  5 25  1  0  0  0  0
  5 29  1  1  0  0  0
  6  7  1  1  0  0  0
  6 11  1  0  0  0  0
  8 12  1  0  0  0  0
  9 10  1  6  0  0  0
  9 14  1  0  0  0  0
 11 16  1  0  0  0  0
 12 13  1  1  0  0  0
 12 17  1  0  0  0  0
 14 15  1  6  0  0  0
 14 18  1  0  0  0  0
 15 31  1  0  0  0  0
 16 20  1  0  0  0  0
 17  2  1  1  0  0  0
 17 22  1  0  0  0  0
 18 19  1  1  0  0  0
 18 24  1  0  0  0  0
 18 30  1  0  0  0  0
 20 21  1  0  0  0  0
 20 26  1  6  0  0  0
 22 23  1  1  0  0  0
 22 28  1  0  0  0  0
 24 25  1  0  0  0  0
 26 27  1  0  0  0  0
 28 29  1  6  0  0  0
M  END
>  <CHROM.1>
-172.58182092,-164.36469666,-138.84633361,52.90542841,117.96183425,142.42123686
1.77252984,14.00287732,40.55994035,-2.77970431,0.38034479,-0.87829865

>  <Name>
ligand

>  <RI>
0

>  <Rbt.Current_Directory>
/home/itssahil/PROJECTS/Mol_Feturizer/New_Systems/rnas/4GPY

>  <Rbt.Executable>
rbdock ($Id: //depot/dev/client3/rdock/2013.1/src/exe/rbdock.cxx#4 $)

>  <Rbt.Library>
libRbt.so (2013.1, Build901 2013/11/27)

>  <Rbt.Parameter_File>
/export/apps/rDock/src/rDock_2013.1_src/data/scripts/dock_solv.prm

>  <Rbt.Receptor>
prm/pocket_docking_8.prm

>  <SCORE>
-4.44395

>  <SCORE.INTER>
-2.1502

>  <SCORE.INTER.CONST>
1

>  <SCORE.INTER.POLAR>
0

>  <SCORE.INTER.ROT>
6

>  <SCORE.INTER.SOLV>
9.58664

>  <SCORE.INTER.VDW>
-12.229

>  <SCORE.INTER.norm>
-0.0693613

>  <SCORE.INTRA>
-2.29375

>  <SCORE.INTRA.DIHEDRAL>
-5.43904

>  <SCORE.INTRA.DIHEDRAL.0>
14.7001

>  <SCORE.INTRA.POLAR>
0

>  <SCORE.INTRA.POLAR.0>
0

>  <SCORE.INTRA.REPUL>
0

>  <SCORE.INTRA.REPUL.0>
0

>  <SCORE.INTRA.SOLV>
-0.257892

>  <SCORE.INTRA.SOLV.lig_0>
-65.3082

>  <SCORE.INTRA.VDW>
0.554712

>  <SCORE.INTRA.VDW.0>
-4.21408

>  <SCORE.INTRA.norm>
-0.073992

>  <SCORE.RESTR>
0

>  <SCORE.RESTR.CAVITY>
0

>  <SCORE.RESTR.norm>
0

>  <SCORE.SYSTEM>
0

>  <SCORE.SYSTEM.CONST>
0

>  <SCORE.SYSTEM.DIHEDRAL>
0

>  <SCORE.SYSTEM.SOLV>
0

>  <SCORE.SYSTEM.norm>
0

>  <SCORE.heavy>
31

>  <SCORE.norm>
-0.143353

>  <RMSD>
7.657

$$$$
ligand
 OpenBabel11021811493D
libRbt.so/2013.1/901 2013/11/27
 31 33  0  0  0  0  0  0  0  0999 V2000
   -2.6727   11.2168   41.1908 C   0  0  2  0  0  0  0  0  0  0  0  0
   -1.7807   11.9736   40.3951 O   0  0  0  0  0  0  0  0  0  0  0  0
   -1.9314   16.0600   39.2382 C   0  0  2  0  0  0  0  0  0  0  0  0
   -1.8904   17.4797   39.3363 N   0  0  0  0  0  0  0  0  0  0  0  0
    0.3854   15.8367   37.3216 C   0  0  2  0  0  0  0  0  0  0  0  0
   -1.8120   10.3276   42.1891 C   0  0  2  0  0  0  0  0  0  0  0  0
   -0.9632   11.1983   42.9953 N   0  0  0  0  0  0  0  0  0  0  0  0
   -3.0615   15.5248   40.2261 C   0  0  0  0  0  0  0  0  0  0  0  0
    1.5961   14.9296   36.9186 C   0  0  2  0  0  0  0  0  0  0  0  0
    1.4966   13.7060   37.6158 O   0  0  0  0  0  0  0  0  0  0  0  0
   -0.9534    9.2769   41.3934 C   0  0  0  0  0  0  0  0  0  0  0  0
   -3.1180   13.9469   40.1045 C   0  0  2  0  0  0  0  0  0  0  0  0
   -4.1580   13.4380   40.9995 N   0  0  0  0  0  0  0  0  0  0  0  0
    2.9268   15.6794   37.2909 C   0  0  1  0  0  0  0  0  0  0  0  0
    4.1039   14.8260   36.9295 N   0  0  0  0  0  0  0  0  0  0  0  0
   -1.7597    8.6590   40.1752 C   0  0  0  0  0  0  0  0  0  0  0  0
   -1.7101   13.3496   40.5144 C   0  0  2  0  0  0  0  0  0  0  0  0
    2.9950   17.0737   36.4547 C   0  0  1  0  0  0  0  0  0  0  0  0
    2.9859   16.8836   35.0535 O   0  0  0  0  0  0  0  0  0  0  0  0
   -2.9246    9.2083   39.7535 C   0  0  1  0  0  0  0  0  0  0  0  0
   -3.5116   10.3584   40.3560 O   0  0  0  0  0  0  0  0  0  0  0  0
   -0.5893   13.9068   39.5412 C   0  0  2  0  0  0  0  0  0  0  0  0
    0.6910   13.3693   39.9310 O   0  0  0  0  0  0  0  0  0  0  0  0
    1.7661   17.9548   36.8302 C   0  0  0  0  0  0  0  0  0  0  0  0
    0.4817   17.1747   36.6087 O   0  0  0  0  0  0  0  0  0  0  0  0
   -3.7182    8.6551   38.5940 C   0  0  0  0  0  0  0  0  0  0  0  0
   -3.4127    9.4851   37.4527 O   0  0  0  0  0  0  0  0  0  0  0  0
   -0.5400   15.4781   39.6585 C   0  0  1  0  0  0  0  0  0  0  0  0
    0.4550   15.9487   38.7837 O   0  0  0  0  0  0  0  0  0  0  0  0
    4.2453   17.9201   36.7270 C   0  0  0  0  0  0  0  0  0  0  0  0
    4.8544   14.2357   38.0572 C   0  0  0  0  0  0  0  0  0  0  0  0
  1  2  1  6  0  0  0
  1  6  1  0  0  0  0
  1 21  1  0  0  0  0
  3  4  1  1  0  0  0
  3  8  1  0  0  0  0
  3 28  1  0  0  0  0
  5  9  1  0  0  0  0
  5 25  1  0  0  0  0
  5 29  1  1  0  0  0
  6  7  1  6  0  0  0
  6 11  1  0  0  0  0
  8 12  1  0  0  0  0
  9 10  1  1  0  0  0
  9 14  1  0  0  0  0
 11 16  1  0  0  0  0
 12 13  1  1  0  0  0
 12 17  1  0  0  0  0
 14 15  1  6  0  0  0
 14 18  1  0  0  0  0
 15 31  1  0  0  0  0
 16 20  1  0  0  0  0
 17  2  1  6  0  0  0
 17 22  1  0  0  0  0
 18 19  1  6  0  0  0
 18 24  1  0  0  0  0
 18 30  1  0  0  0  0
 20 21  1  0  0  0  0
 20 26  1  6  0  0  0
 22 23  1  1  0  0  0
 22 28  1  0  0  0  0
 24 25  1  0  0  0  0
 26 27  1  0  0  0  0
 28 29  1  6  0  0  0
M  END
>  <CHROM.1>
-112.70003774,-117.24262689,-108.74042917,-62.85450244,-100.18754976,-52.88001057
-0.34840941,13.70609521,38.95560827,2.29086542,-0.45931072,2.99299432

>  <Name>
ligand

>  <RI>
0

>  <Rbt.Current_Directory>
/home/itssahil/PROJECTS/Mol_Feturizer/New_Systems/rnas/4GPY

>  <Rbt.Executable>
rbdock ($Id: //depot/dev/client3/rdock/2013.1/src/exe/rbdock.cxx#4 $)

>  <Rbt.Library>
libRbt.so (2013.1, Build901 2013/11/27)

>  <Rbt.Parameter_File>
/export/apps/rDock/src/rDock_2013.1_src/data/scripts/dock_solv.prm

>  <Rbt.Receptor>
prm/pocket_docking_3.prm

>  <SCORE>
-4.12864

>  <SCORE.INTER>
-8.52621

>  <SCORE.INTER.CONST>
1

>  <SCORE.INTER.POLAR>
0

>  <SCORE.INTER.ROT>
6

>  <SCORE.INTER.SOLV>
16.1173

>  <SCORE.INTER.VDW>
-18.6566

>  <SCORE.INTER.norm>
-0.275039

>  <SCORE.INTRA>
4.39757

>  <SCORE.INTRA.DIHEDRAL>
2.94888

>  <SCORE.INTRA.DIHEDRAL.0>
14.7001

>  <SCORE.INTRA.POLAR>
0

>  <SCORE.INTRA.POLAR.0>
0

>  <SCORE.INTRA.REPUL>
0

>  <SCORE.INTRA.REPUL.0>
0

>  <SCORE.INTRA.SOLV>
1.03769

>  <SCORE.INTRA.SOLV.lig_0>
-65.3082

>  <SCORE.INTRA.VDW>
2.40429

>  <SCORE.INTRA.VDW.0>
-4.21408

>  <SCORE.INTRA.norm>
0.141857

>  <SCORE.RESTR>
0

>  <SCORE.RESTR.CAVITY>
0

>  <SCORE.RESTR.norm>
0

>  <SCORE.SYSTEM>
0

>  <SCORE.SYSTEM.CONST>
0

>  <SCORE.SYSTEM.DIHEDRAL>
0

>  <SCORE.SYSTEM.SOLV>
0

>  <SCORE.SYSTEM.norm>
0

>  <SCORE.heavy>
31

>  <SCORE.norm>
-0.133182

>  <RMSD>
7.687

$$$$
ligand
 OpenBabel11021811493D
libRbt.so/2013.1/901 2013/11/27
 31 33  0  0  0  0  0  0  0  0999 V2000
   -1.2702   12.2632   37.9978 C   0  0  2  0  0  0  0  0  0  0  0  0
   -0.8068   12.7095   39.2577 O   0  0  0  0  0  0  0  0  0  0  0  0
   -0.2862   16.8414   38.4113 C   0  0  2  0  0  0  0  0  0  0  0  0
   -0.0197   18.2248   38.6160 N   0  0  0  0  0  0  0  0  0  0  0  0
    2.1570   16.0155   36.5339 C   0  0  2  0  0  0  0  0  0  0  0  0
   -1.6644   10.7286   38.1311 C   0  0  2  0  0  0  0  0  0  0  0  0
   -2.6782   10.5833   39.1701 N   0  0  0  0  0  0  0  0  0  0  0  0
   -1.5002   16.4229   39.3551 C   0  0  0  0  0  0  0  0  0  0  0  0
    3.4803   16.6813   36.0271 C   0  0  2  0  0  0  0  0  0  0  0  0
    4.5491   16.2359   36.8349 O   0  0  0  0  0  0  0  0  0  0  0  0
   -0.3946    9.8575   38.4519 C   0  0  0  0  0  0  0  0  0  0  0  0
   -1.8070   14.8880   39.1151 C   0  0  2  0  0  0  0  0  0  0  0  0
   -2.9266   14.4879   39.9684 N   0  0  0  0  0  0  0  0  0  0  0  0
    3.3207   18.2424   36.1207 C   0  0  1  0  0  0  0  0  0  0  0  0
    4.5806   18.9063   35.6554 N   0  0  0  0  0  0  0  0  0  0  0  0
    0.8762   10.3471   37.6385 C   0  0  0  0  0  0  0  0  0  0  0  0
   -0.5183   14.0436   39.4802 C   0  0  2  0  0  0  0  0  0  0  0  0
    2.0854   18.7018   35.1662 C   0  0  1  0  0  0  0  0  0  0  0  0
    2.2799   18.3700   33.8056 O   0  0  0  0  0  0  0  0  0  0  0  0
    0.8781   11.5361   36.9882 C   0  0  1  0  0  0  0  0  0  0  0  0
   -0.2355   12.4249   36.9777 O   0  0  0  0  0  0  0  0  0  0  0  0
    0.6897   14.4842   38.5527 C   0  0  2  0  0  0  0  0  0  0  0  0
    1.8623   13.7205   38.9022 O   0  0  0  0  0  0  0  0  0  0  0  0
    0.7791   18.0045   35.6511 C   0  0  0  0  0  0  0  0  0  0  0  0
    0.9823   16.5000   35.7014 O   0  0  0  0  0  0  0  0  0  0  0  0
    2.0691   12.0413   36.2095 C   0  0  0  0  0  0  0  0  0  0  0  0
    1.6844   12.0339   34.8178 O   0  0  0  0  0  0  0  0  0  0  0  0
    0.9884   16.0140   38.7879 C   0  0  1  0  0  0  0  0  0  0  0  0
    2.0573   16.3821   37.9519 O   0  0  0  0  0  0  0  0  0  0  0  0
    1.8068   20.2105   35.1657 C   0  0  0  0  0  0  0  0  0  0  0  0
    5.3707   19.6069   36.6890 C   0  0  0  0  0  0  0  0  0  0  0  0
  1  2  1  1  0  0  0
  1  6  1  0  0  0  0
  1 21  1  0  0  0  0
  3  4  1  1  0  0  0
  3  8  1  0  0  0  0
  3 28  1  0  0  0  0
  5  9  1  0  0  0  0
  5 25  1  0  0  0  0
  5 29  1  1  0  0  0
  6  7  1  1  0  0  0
  6 11  1  0  0  0  0
  8 12  1  0  0  0  0
  9 10  1  1  0  0  0
  9 14  1  0  0  0  0
 11 16  1  0  0  0  0
 12 13  1  1  0  0  0
 12 17  1  0  0  0  0
 14 15  1  6  0  0  0
 14 18  1  0  0  0  0
 15 31  1  0  0  0  0
 16 20  1  0  0  0  0
 17  2  1  6  0  0  0
 17 22  1  0  0  0  0
 18 19  1  6  0  0  0
 18 24  1  0  0  0  0
 18 30  1  0  0  0  0
 20 21  1  0  0  0  0
 20 26  1  1  0  0  0
 22 23  1  1  0  0  0
 22 28  1  0  0  0  0
 24 25  1  0  0  0  0
 26 27  1  0  0  0  0
 28 29  1  6  0  0  0
M  END
>  <CHROM.1>
-173.44609908,178.34730684,-111.49248354,55.43723659,112.10010745,-72.50799763
0.95499004,15.08574293,37.32972777,2.20603825,-0.64816460,-3.07921308

>  <Name>
ligand

>  <RI>
0

>  <Rbt.Current_Directory>
/home/itssahil/PROJECTS/Mol_Feturizer/New_Systems/rnas/4GPY

>  <Rbt.Executable>
rbdock ($Id: //depot/dev/client3/rdock/2013.1/src/exe/rbdock.cxx#4 $)

>  <Rbt.Library>
libRbt.so (2013.1, Build901 2013/11/27)

>  <Rbt.Parameter_File>
/export/apps/rDock/src/rDock_2013.1_src/data/scripts/dock_solv.prm

>  <Rbt.Receptor>
prm/pocket_docking_5.prm

>  <SCORE>
-11.5883

>  <SCORE.INTER>
-7.86995

>  <SCORE.INTER.CONST>
1

>  <SCORE.INTER.POLAR>
0

>  <SCORE.INTER.ROT>
6

>  <SCORE.INTER.SOLV>
17.9115

>  <SCORE.INTER.VDW>
-18.8171

>  <SCORE.INTER.norm>
-0.253869

>  <SCORE.INTRA>
-3.71835

>  <SCORE.INTRA.DIHEDRAL>
-10.7196

>  <SCORE.INTRA.DIHEDRAL.0>
14.7001

>  <SCORE.INTRA.POLAR>
0

>  <SCORE.INTRA.POLAR.0>
0

>  <SCORE.INTRA.REPUL>
0

>  <SCORE.INTRA.REPUL.0>
0

>  <SCORE.INTRA.SOLV>
1.36336

>  <SCORE.INTRA.SOLV.lig_0>
-65.3082

>  <SCORE.INTRA.VDW>
0.959779

>  <SCORE.INTRA.VDW.0>
-4.21408

>  <SCORE.INTRA.norm>
-0.119947

>  <SCORE.RESTR>
0

>  <SCORE.RESTR.CAVITY>
0

>  <SCORE.RESTR.norm>
0

>  <SCORE.SYSTEM>
0

>  <SCORE.SYSTEM.CONST>
0

>  <SCORE.SYSTEM.DIHEDRAL>
0

>  <SCORE.SYSTEM.SOLV>
0

>  <SCORE.SYSTEM.norm>
0

>  <SCORE.heavy>
31

>  <SCORE.norm>
-0.373816

>  <RMSD>
7.700

$$$$
ligand
 OpenBabel11021811493D
libRbt.so/2013.1/901 2013/11/27
 31 33  0  0  0  0  0  0  0  0999 V2000
   -1.4634   10.4985   38.9493 C   0  0  2  0  0  0  0  0  0  0  0  0
   -2.4648   11.4978   38.9504 O   0  0  0  0  0  0  0  0  0  0  0  0
   -2.5934   15.7101   39.4984 C   0  0  2  0  0  0  0  0  0  0  0  0
   -2.4052   16.9863   40.1006 N   0  0  0  0  0  0  0  0  0  0  0  0
    0.7439   16.6134   38.7209 C   0  0  2  0  0  0  0  0  0  0  0  0
   -2.0627    9.1986   38.2572 C   0  0  2  0  0  0  0  0  0  0  0  0
   -2.5025    9.5346   36.9073 N   0  0  0  0  0  0  0  0  0  0  0  0
   -3.4330   14.8034   40.5047 C   0  0  0  0  0  0  0  0  0  0  0  0
    1.3720   17.0884   37.3678 C   0  0  2  0  0  0  0  0  0  0  0  0
    0.4025   17.8242   36.6524 O   0  0  0  0  0  0  0  0  0  0  0  0
   -3.2477    8.6143   39.1108 C   0  0  0  0  0  0  0  0  0  0  0  0
   -3.6561   13.3894   39.8277 C   0  0  2  0  0  0  0  0  0  0  0  0
   -4.4342   12.5452   40.7352 N   0  0  0  0  0  0  0  0  0  0  0  0
    1.8242   15.8206   36.5555 C   0  0  1  0  0  0  0  0  0  0  0  0
    2.4162   16.2457   35.2466 N   0  0  0  0  0  0  0  0  0  0  0  0
   -2.9484    8.6948   40.6664 C   0  0  0  0  0  0  0  0  0  0  0  0
   -2.2460   12.7266   39.5461 C   0  0  2  0  0  0  0  0  0  0  0  0
    2.9454   15.0169   37.4185 C   0  0  1  0  0  0  0  0  0  0  0  0
    4.0990   15.7888   37.6884 O   0  0  0  0  0  0  0  0  0  0  0  0
   -1.9205    9.4364   41.1461 C   0  0  1  0  0  0  0  0  0  0  0  0
   -1.0405   10.1865   40.3136 O   0  0  0  0  0  0  0  0  0  0  0  0
   -1.4092   13.6478   38.5637 C   0  0  2  0  0  0  0  0  0  0  0  0
   -0.1214   13.0438   38.3247 O   0  0  0  0  0  0  0  0  0  0  0  0
    2.3262   14.5820   38.7805 C   0  0  0  0  0  0  0  0  0  0  0  0
    1.7559   15.7916   39.5007 O   0  0  0  0  0  0  0  0  0  0  0  0
   -1.6070    9.5449   42.6192 C   0  0  0  0  0  0  0  0  0  0  0  0
   -2.3169   10.7037   43.1071 O   0  0  0  0  0  0  0  0  0  0  0  0
   -1.1947   15.0571   39.2366 C   0  0  1  0  0  0  0  0  0  0  0  0
   -0.4569   15.8567   38.3460 O   0  0  0  0  0  0  0  0  0  0  0  0
    3.4748   13.7430   36.7469 C   0  0  0  0  0  0  0  0  0  0  0  0
    1.5625   17.0912   34.3866 C   0  0  0  0  0  0  0  0  0  0  0  0
  1  2  1  1  0  0  0
  1  6  1  0  0  0  0
  1 21  1  0  0  0  0
  3  4  1  1  0  0  0
  3  8  1  0  0  0  0
  3 28  1  0  0  0  0
  5  9  1  0  0  0  0
  5 25  1  0  0  0  0
  5 29  1  6  0  0  0
  6  7  1  6  0  0  0
  6 11  1  0  0  0  0
  8 12  1  0  0  0  0
  9 10  1  6  0  0  0
  9 14  1  0  0  0  0
 11 16  1  0  0  0  0
 12 13  1  1  0  0  0
 12 17  1  0  0  0  0
 14 15  1  6  0  0  0
 14 18  1  0  0  0  0
 15 31  1  0  0  0  0
 16 20  1  0  0  0  0
 17  2  1  6  0  0  0
 17 22  1  0  0  0  0
 18 19  1  1  0  0  0
 18 24  1  0  0  0  0
 18 30  1  0  0  0  0
 20 21  1  0  0  0  0
 20 26  1  1  0  0  0
 22 23  1  1  0  0  0
 22 28  1  0  0  0  0
 24 25  1  0  0  0  0
 26 27  1  0  0  0  0
 28 29  1  6  0  0  0
M  END
>  <CHROM.1>
177.08895669,168.46834073,-55.71854085,-160.33065366,-92.21561995,111.35368941
-0.63096748,13.47341857,38.83191131,-2.28283352,0.61302865,-0.04451072

>  <Name>
ligand

>  <RI>
0

>  <Rbt.Current_Directory>
/home/itssahil/PROJECTS/Mol_Feturizer/New_Systems/rnas/4GPY

>  <Rbt.Executable>
rbdock ($Id: //depot/dev/client3/rdock/2013.1/src/exe/rbdock.cxx#4 $)

>  <Rbt.Library>
libRbt.so (2013.1, Build901 2013/11/27)

>  <Rbt.Parameter_File>
/export/apps/rDock/src/rDock_2013.1_src/data/scripts/dock_solv.prm

>  <Rbt.Receptor>
prm/pocket_docking_2.prm

>  <SCORE>
1.33541

>  <SCORE.INTER>
-1.01779

>  <SCORE.INTER.CONST>
1

>  <SCORE.INTER.POLAR>
0

>  <SCORE.INTER.ROT>
6

>  <SCORE.INTER.SOLV>
18.3023

>  <SCORE.INTER.VDW>
-14.3793

>  <SCORE.INTER.norm>
-0.0328318

>  <SCORE.INTRA>
1.59781

>  <SCORE.INTRA.DIHEDRAL>
-2.89777

>  <SCORE.INTRA.DIHEDRAL.0>
14.7001

>  <SCORE.INTRA.POLAR>
0

>  <SCORE.INTRA.POLAR.0>
0

>  <SCORE.INTRA.REPUL>
0

>  <SCORE.INTRA.REPUL.0>
0

>  <SCORE.INTRA.SOLV>
-0.580436

>  <SCORE.INTRA.SOLV.lig_0>
-65.3082

>  <SCORE.INTRA.VDW>
3.33691

>  <SCORE.INTRA.VDW.0>
-4.21408

>  <SCORE.INTRA.norm>
0.0515422

>  <SCORE.RESTR>
0.755389

>  <SCORE.RESTR.CAVITY>
0.755389

>  <SCORE.RESTR.norm>
0.0243674

>  <SCORE.SYSTEM>
0

>  <SCORE.SYSTEM.CONST>
0

>  <SCORE.SYSTEM.DIHEDRAL>
0

>  <SCORE.SYSTEM.SOLV>
0

>  <SCORE.SYSTEM.norm>
0

>  <SCORE.heavy>
31

>  <SCORE.norm>
0.0430777

>  <RMSD>
7.708

$$$$
ligand
 OpenBabel11021811493D
libRbt.so/2013.1/901 2013/11/27
 31 33  0  0  0  0  0  0  0  0999 V2000
   -4.8555   13.6991   44.0125 C   0  0  2  0  0  0  0  0  0  0  0  0
   -3.8998   14.7180   44.2359 O   0  0  0  0  0  0  0  0  0  0  0  0
   -3.5632   16.2642   40.2917 C   0  0  2  0  0  0  0  0  0  0  0  0
   -3.1399   17.0871   39.2099 N   0  0  0  0  0  0  0  0  0  0  0  0
   -1.0428   15.1910   38.7165 C   0  0  2  0  0  0  0  0  0  0  0  0
   -5.4224   13.2348   45.4235 C   0  0  2  0  0  0  0  0  0  0  0  0
   -5.9995   14.3858   46.1097 N   0  0  0  0  0  0  0  0  0  0  0  0
   -4.2156   17.2003   41.4042 C   0  0  0  0  0  0  0  0  0  0  0  0
   -0.6553   13.9126   37.8999 C   0  0  2  0  0  0  0  0  0  0  0  0
   -1.8284   13.1745   37.6313 O   0  0  0  0  0  0  0  0  0  0  0  0
   -4.2855   12.5721   46.2851 C   0  0  0  0  0  0  0  0  0  0  0  0
   -4.7012   16.2828   42.6001 C   0  0  2  0  0  0  0  0  0  0  0  0
   -5.3118   17.1260   43.6286 N   0  0  0  0  0  0  0  0  0  0  0  0
    0.3570   13.0640   38.7524 C   0  0  1  0  0  0  0  0  0  0  0  0
    0.7338   11.8245   38.0000 N   0  0  0  0  0  0  0  0  0  0  0  0
   -3.3340   11.6597   45.4030 C   0  0  0  0  0  0  0  0  0  0  0  0
   -3.4520   15.5161   43.1989 C   0  0  2  0  0  0  0  0  0  0  0  0
    1.6907   13.9559   39.0240 C   0  0  1  0  0  0  0  0  0  0  0  0
    2.3505   14.3468   37.8361 O   0  0  0  0  0  0  0  0  0  0  0  0
   -3.3715   11.7093   44.0492 C   0  0  1  0  0  0  0  0  0  0  0  0
   -4.2496   12.5625   43.3206 O   0  0  0  0  0  0  0  0  0  0  0  0
   -2.7957   14.6065   42.0784 C   0  0  2  0  0  0  0  0  0  0  0  0
   -1.6506   13.9237   42.6286 O   0  0  0  0  0  0  0  0  0  0  0  0
    1.2924   15.2459   39.8017 C   0  0  0  0  0  0  0  0  0  0  0  0
    0.2052   15.9915   39.0472 O   0  0  0  0  0  0  0  0  0  0  0  0
   -2.4780   10.8631   43.1740 C   0  0  0  0  0  0  0  0  0  0  0  0
   -3.3159    9.8367   42.6003 O   0  0  0  0  0  0  0  0  0  0  0  0
   -2.3198   15.5211   40.8859 C   0  0  1  0  0  0  0  0  0  0  0  0
   -1.7478   14.6931   39.9040 O   0  0  0  0  0  0  0  0  0  0  0  0
    2.7693   13.2525   39.8581 C   0  0  0  0  0  0  0  0  0  0  0  0
   -0.0944   10.6276   38.2551 C   0  0  0  0  0  0  0  0  0  0  0  0
  1  2  1  1  0  0  0
  1  6  1  0  0  0  0
  1 21  1  0  0  0  0
  3  4  1  6  0  0  0
  3  8  1  0  0  0  0
  3 28  1  0  0  0  0
  5  9  1  0  0  0  0
  5 25  1  0  0  0  0
  5 29  1  1  0  0  0
  6  7  1  1  0  0  0
  6 11  1  0  0  0  0
  8 12  1  0  0  0  0
  9 10  1  1  0  0  0
  9 14  1  0  0  0  0
 11 16  1  0  0  0  0
 12 13  1  1  0  0  0
 12 17  1  0  0  0  0
 14 15  1  6  0  0  0
 14 18  1  0  0  0  0
 15 31  1  0  0  0  0
 16 20  1  0  0  0  0
 17  2  1  1  0  0  0
 17 22  1  0  0  0  0
 18 19  1  6  0  0  0
 18 24  1  0  0  0  0
 18 30  1  0  0  0  0
 20 21  1  0  0  0  0
 20 26  1  1  0  0  0
 22 23  1  1  0  0  0
 22 28  1  0  0  0  0
 24 25  1  0  0  0  0
 26 27  1  0  0  0  0
 28 29  1  6  0  0  0
M  END
>  <CHROM.1>
-165.69202936,-177.28834024,-91.43554411,60.39819308,106.76694374,69.28789196
-2.17255433,13.96827755,41.43596832,-2.77971282,0.79815468,-0.47208348

>  <Name>
ligand

>  <RI>
0

>  <Rbt.Current_Directory>
/home/itssahil/PROJECTS/Mol_Feturizer/New_Systems/rnas/4GPY

>  <Rbt.Executable>
rbdock ($Id: //depot/dev/client3/rdock/2013.1/src/exe/rbdock.cxx#4 $)

>  <Rbt.Library>
libRbt.so (2013.1, Build901 2013/11/27)

>  <Rbt.Parameter_File>
/export/apps/rDock/src/rDock_2013.1_src/data/scripts/dock_solv.prm

>  <Rbt.Receptor>
prm/pocket_docking_7.prm

>  <SCORE>
-5.93907

>  <SCORE.INTER>
-2.07872

>  <SCORE.INTER.CONST>
1

>  <SCORE.INTER.POLAR>
0

>  <SCORE.INTER.ROT>
6

>  <SCORE.INTER.SOLV>
12.2783

>  <SCORE.INTER.VDW>
-13.0786

>  <SCORE.INTER.norm>
-0.0670556

>  <SCORE.INTRA>
-3.86035

>  <SCORE.INTRA.DIHEDRAL>
-10.7273

>  <SCORE.INTRA.DIHEDRAL.0>
14.7001

>  <SCORE.INTRA.POLAR>
0

>  <SCORE.INTRA.POLAR.0>
0

>  <SCORE.INTRA.REPUL>
0

>  <SCORE.INTRA.REPUL.0>
0

>  <SCORE.INTRA.SOLV>
0.453153

>  <SCORE.INTRA.SOLV.lig_0>
-65.3082

>  <SCORE.INTRA.VDW>
1.2767

>  <SCORE.INTRA.VDW.0>
-4.21408

>  <SCORE.INTRA.norm>
-0.124527

>  <SCORE.RESTR>
0

>  <SCORE.RESTR.CAVITY>
0

>  <SCORE.RESTR.norm>
0

>  <SCORE.SYSTEM>
0

>  <SCORE.SYSTEM.CONST>
0

>  <SCORE.SYSTEM.DIHEDRAL>
0

>  <SCORE.SYSTEM.SOLV>
0

>  <SCORE.SYSTEM.norm>
0

>  <SCORE.heavy>
31

>  <SCORE.norm>
-0.191583

>  <RMSD>
7.750

$$$$
ligand
 OpenBabel11021811493D
libRbt.so/2013.1/901 2013/11/27
 31 33  0  0  0  0  0  0  0  0999 V2000
    3.9702   22.2061   35.4344 C   0  0  2  0  0  0  0  0  0  0  0  0
    3.9853   21.3133   34.3371 O   0  0  0  0  0  0  0  0  0  0  0  0
    1.0420   18.5344   35.6310 C   0  0  2  0  0  0  0  0  0  0  0  0
    0.1499   17.4251   35.6104 N   0  0  0  0  0  0  0  0  0  0  0  0
    4.0496   16.3543   36.6253 C   0  0  2  0  0  0  0  0  0  0  0  0
    4.8553   23.4712   35.0548 C   0  0  2  0  0  0  0  0  0  0  0  0
    4.3204   24.0836   33.8434 N   0  0  0  0  0  0  0  0  0  0  0  0
    0.6756   19.4912   34.4104 C   0  0  0  0  0  0  0  0  0  0  0  0
    3.5634   14.9247   37.0389 C   0  0  2  0  0  0  0  0  0  0  0  0
    2.6034   14.4845   36.1020 O   0  0  0  0  0  0  0  0  0  0  0  0
    6.3602   23.0556   34.8634 C   0  0  0  0  0  0  0  0  0  0  0  0
    1.6575   20.7331   34.4435 C   0  0  2  0  0  0  0  0  0  0  0  0
    1.3294   21.6283   33.3331 N   0  0  0  0  0  0  0  0  0  0  0  0
    2.9419   15.0069   38.4806 C   0  0  1  0  0  0  0  0  0  0  0  0
    2.4535   13.6530   38.8965 N   0  0  0  0  0  0  0  0  0  0  0  0
    6.8166   21.9838   35.9399 C   0  0  0  0  0  0  0  0  0  0  0  0
    3.1465   20.2143   34.2997 C   0  0  2  0  0  0  0  0  0  0  0  0
    4.0900   15.5081   39.5192 C   0  0  1  0  0  0  0  0  0  0  0  0
    5.2037   14.6390   39.5797 O   0  0  0  0  0  0  0  0  0  0  0  0
    5.9118   21.3381   36.7150 C   0  0  1  0  0  0  0  0  0  0  0  0
    4.5073   21.5638   36.6329 O   0  0  0  0  0  0  0  0  0  0  0  0
    3.4933   19.2445   35.5051 C   0  0  2  0  0  0  0  0  0  0  0  0
    4.8458   18.7657   35.3579 O   0  0  0  0  0  0  0  0  0  0  0  0
    4.5980   16.9137   39.0790 C   0  0  0  0  0  0  0  0  0  0  0  0
    5.0631   16.8678   37.6337 O   0  0  0  0  0  0  0  0  0  0  0  0
    6.3045   20.3065   37.7455 C   0  0  0  0  0  0  0  0  0  0  0  0
    7.6603   20.6113   38.1374 O   0  0  0  0  0  0  0  0  0  0  0  0
    2.5099   18.0129   35.4745 C   0  0  1  0  0  0  0  0  0  0  0  0
    2.8323   17.1718   36.5541 O   0  0  0  0  0  0  0  0  0  0  0  0
    3.6194   15.6438   40.9731 C   0  0  0  0  0  0  0  0  0  0  0  0
    0.9996   13.4175   38.7780 C   0  0  0  0  0  0  0  0  0  0  0  0
  1  2  1  6  0  0  0
  1  6  1  0  0  0  0
  1 21  1  0  0  0  0
  3  4  1  6  0  0  0
  3  8  1  0  0  0  0
  3 28  1  0  0  0  0
  5  9  1  0  0  0  0
  5 25  1  0  0  0  0
  5 29  1  1  0  0  0
  6  7  1  6  0  0  0
  6 11  1  0  0  0  0
  8 12  1  0  0  0  0
  9 10  1  6  0  0  0
  9 14  1  0  0  0  0
 11 16  1  0  0  0  0
 12 13  1  6  0  0  0
 12 17  1  0  0  0  0
 14 15  1  1  0  0  0
 14 18  1  0  0  0  0
 15 31  1  0  0  0  0
 16 20  1  0  0  0  0
 17  2  1  1  0  0  0
 17 22  1  0  0  0  0
 18 19  1  6  0  0  0
 18 24  1  0  0  0  0
 18 30  1  0  0  0  0
 20 21  1  0  0  0  0
 20 26  1  6  0  0  0
 22 23  1  6  0  0  0
 22 28  1  0  0  0  0
 24 25  1  0  0  0  0
 26 27  1  0  0  0  0
 28 29  1  1  0  0  0
M  END
>  <CHROM.1>
-170.50447517,-131.56444227,-100.80632082,56.83246756,25.49018819,170.51470525
3.75961541,18.63055347,36.54480222,1.36245043,-0.54653122,-0.55747019

>  <Name>
ligand

>  <RI>
0

>  <Rbt.Current_Directory>
/home/itssahil/PROJECTS/Mol_Feturizer/New_Systems/rnas/4GPY

>  <Rbt.Executable>
rbdock ($Id: //depot/dev/client3/rdock/2013.1/src/exe/rbdock.cxx#4 $)

>  <Rbt.Library>
libRbt.so (2013.1, Build901 2013/11/27)

>  <Rbt.Parameter_File>
/export/apps/rDock/src/rDock_2013.1_src/data/scripts/dock_solv.prm

>  <Rbt.Receptor>
prm/pocket_docking_8.prm

>  <SCORE>
-13.2096

>  <SCORE.INTER>
-12.934

>  <SCORE.INTER.CONST>
1

>  <SCORE.INTER.POLAR>
0

>  <SCORE.INTER.ROT>
6

>  <SCORE.INTER.SOLV>
20.1668

>  <SCORE.INTER.VDW>
-22.9449

>  <SCORE.INTER.norm>
-0.417226

>  <SCORE.INTRA>
-0.275581

>  <SCORE.INTRA.DIHEDRAL>
-3.87331

>  <SCORE.INTRA.DIHEDRAL.0>
14.7001

>  <SCORE.INTRA.POLAR>
0

>  <SCORE.INTRA.POLAR.0>
0

>  <SCORE.INTRA.REPUL>
0

>  <SCORE.INTRA.REPUL.0>
0

>  <SCORE.INTRA.SOLV>
-0.461281

>  <SCORE.INTRA.SOLV.lig_0>
-65.3082

>  <SCORE.INTRA.VDW>
1.89171

>  <SCORE.INTRA.VDW.0>
-4.21408

>  <SCORE.INTRA.norm>
-0.00888969

>  <SCORE.RESTR>
0

>  <SCORE.RESTR.CAVITY>
0

>  <SCORE.RESTR.norm>
0

>  <SCORE.SYSTEM>
0

>  <SCORE.SYSTEM.CONST>
0

>  <SCORE.SYSTEM.DIHEDRAL>
0

>  <SCORE.SYSTEM.SOLV>
0

>  <SCORE.SYSTEM.norm>
0

>  <SCORE.heavy>
31

>  <SCORE.norm>
-0.426116

>  <RMSD>
7.756

$$$$
ligand
 OpenBabel11021811493D
libRbt.so/2013.1/901 2013/11/27
 31 33  0  0  0  0  0  0  0  0999 V2000
   -1.9280   12.4786   41.6957 C   0  0  2  0  0  0  0  0  0  0  0  0
   -2.2583   13.5056   40.7805 O   0  0  0  0  0  0  0  0  0  0  0  0
    0.1011   16.0849   38.3637 C   0  0  2  0  0  0  0  0  0  0  0  0
    1.0138   17.1170   38.0054 N   0  0  0  0  0  0  0  0  0  0  0  0
    3.0969   15.1602   38.0515 C   0  0  2  0  0  0  0  0  0  0  0  0
   -2.9996   11.3143   41.5403 C   0  0  2  0  0  0  0  0  0  0  0  0
   -2.9949   10.8404   40.1605 N   0  0  0  0  0  0  0  0  0  0  0  0
   -1.0783   16.7361   39.2149 C   0  0  0  0  0  0  0  0  0  0  0  0
    3.8976   14.1429   37.1709 C   0  0  2  0  0  0  0  0  0  0  0  0
    3.0662   13.7039   36.1177 O   0  0  0  0  0  0  0  0  0  0  0  0
   -4.4286   11.8184   41.9620 C   0  0  0  0  0  0  0  0  0  0  0  0
   -2.1018   15.5905   39.5993 C   0  0  2  0  0  0  0  0  0  0  0  0
   -3.1977   16.1728   40.3750 N   0  0  0  0  0  0  0  0  0  0  0  0
    4.3369   12.9361   38.0776 C   0  0  1  0  0  0  0  0  0  0  0  0
    5.0934   11.9378   37.2557 N   0  0  0  0  0  0  0  0  0  0  0  0
   -4.3682   12.7614   43.2360 C   0  0  0  0  0  0  0  0  0  0  0  0
   -1.3483   14.4972   40.4619 C   0  0  2  0  0  0  0  0  0  0  0  0
    5.2981   13.4951   39.2657 C   0  0  1  0  0  0  0  0  0  0  0  0
    6.4711   14.1211   38.7847 O   0  0  0  0  0  0  0  0  0  0  0  0
   -3.1908   13.2600   43.6851 C   0  0  1  0  0  0  0  0  0  0  0  0
   -1.9368   12.9839   43.0676 O   0  0  0  0  0  0  0  0  0  0  0  0
   -0.1622   13.8727   39.6152 C   0  0  2  0  0  0  0  0  0  0  0  0
    0.5271   12.8889   40.4135 O   0  0  0  0  0  0  0  0  0  0  0  0
    4.5083   14.5365   40.1138 C   0  0  0  0  0  0  0  0  0  0  0  0
    3.9572   15.6282   39.2128 O   0  0  0  0  0  0  0  0  0  0  0  0
   -3.0914   14.1662   44.8889 C   0  0  0  0  0  0  0  0  0  0  0  0
   -2.2899   13.4672   45.8655 O   0  0  0  0  0  0  0  0  0  0  0  0
    0.8514   15.0161   39.2275 C   0  0  1  0  0  0  0  0  0  0  0  0
    1.8892   14.4403   38.4736 O   0  0  0  0  0  0  0  0  0  0  0  0
    5.7987   12.4205   40.2397 C   0  0  0  0  0  0  0  0  0  0  0  0
    4.3077   10.8133   36.7064 C   0  0  0  0  0  0  0  0  0  0  0  0
  1  2  1  6  0  0  0
  1  6  1  0  0  0  0
  1 21  1  0  0  0  0
  3  4  1  1  0  0  0
  3  8  1  0  0  0  0
  3 28  1  0  0  0  0
  5  9  1  0  0  0  0
  5 25  1  0  0  0  0
  5 29  1  1  0  0  0
  6  7  1  6  0  0  0
  6 11  1  0  0  0  0
  8 12  1  0  0  0  0
  9 10  1  6  0  0  0
  9 14  1  0  0  0  0
 11 16  1  0  0  0  0
 12 13  1  1  0  0  0
 12 17  1  0  0  0  0
 14 15  1  6  0  0  0
 14 18  1  0  0  0  0
 15 31  1  0  0  0  0
 16 20  1  0  0  0  0
 17  2  1  6  0  0  0
 17 22  1  0  0  0  0
 18 19  1  6  0  0  0
 18 24  1  0  0  0  0
 18 30  1  0  0  0  0
 20 21  1  0  0  0  0
 20 26  1  6  0  0  0
 22 23  1  1  0  0  0
 22 28  1  0  0  0  0
 24 25  1  0  0  0  0
 26 27  1  0  0  0  0
 28 29  1  6  0  0  0
M  END
>  <CHROM.1>
-164.74695391,-176.43122353,-94.92114344,-171.47856059,117.64428541,68.29294975
0.57745043,13.79045056,40.06649386,-2.77298796,0.40945777,-0.67905272

>  <Name>
ligand

>  <RI>
0

>  <Rbt.Current_Directory>
/home/itssahil/PROJECTS/Mol_Feturizer/New_Systems/rnas/4GPY

>  <Rbt.Executable>
rbdock ($Id: //depot/dev/client3/rdock/2013.1/src/exe/rbdock.cxx#4 $)

>  <Rbt.Library>
libRbt.so (2013.1, Build901 2013/11/27)

>  <Rbt.Parameter_File>
/export/apps/rDock/src/rDock_2013.1_src/data/scripts/dock_solv.prm

>  <Rbt.Receptor>
prm/pocket_docking_6.prm

>  <SCORE>
-8.09516

>  <SCORE.INTER>
-3.57002

>  <SCORE.INTER.CONST>
1

>  <SCORE.INTER.POLAR>
0

>  <SCORE.INTER.ROT>
6

>  <SCORE.INTER.SOLV>
13.6837

>  <SCORE.INTER.VDW>
-14.5412

>  <SCORE.INTER.norm>
-0.115162

>  <SCORE.INTRA>
-4.52514

>  <SCORE.INTRA.DIHEDRAL>
-10.4137

>  <SCORE.INTRA.DIHEDRAL.0>
14.7001

>  <SCORE.INTRA.POLAR>
0

>  <SCORE.INTRA.POLAR.0>
0

>  <SCORE.INTRA.REPUL>
0

>  <SCORE.INTRA.REPUL.0>
0

>  <SCORE.INTRA.SOLV>
-1.17531

>  <SCORE.INTRA.SOLV.lig_0>
-65.3082

>  <SCORE.INTRA.VDW>
1.26935

>  <SCORE.INTRA.VDW.0>
-4.21408

>  <SCORE.INTRA.norm>
-0.145972

>  <SCORE.RESTR>
0

>  <SCORE.RESTR.CAVITY>
0

>  <SCORE.RESTR.norm>
0

>  <SCORE.SYSTEM>
0

>  <SCORE.SYSTEM.CONST>
0

>  <SCORE.SYSTEM.DIHEDRAL>
0

>  <SCORE.SYSTEM.SOLV>
0

>  <SCORE.SYSTEM.norm>
0

>  <SCORE.heavy>
31

>  <SCORE.norm>
-0.261134

>  <RMSD>
7.795

$$$$
ligand
 OpenBabel11021811493D
libRbt.so/2013.1/901 2013/11/27
 31 33  0  0  0  0  0  0  0  0999 V2000
   -3.0022   10.9781   41.0423 C   0  0  2  0  0  0  0  0  0  0  0  0
   -2.5010   11.7811   39.9910 O   0  0  0  0  0  0  0  0  0  0  0  0
   -1.9996   15.9913   39.7027 C   0  0  2  0  0  0  0  0  0  0  0  0
   -1.4956   17.2982   39.9571 N   0  0  0  0  0  0  0  0  0  0  0  0
    0.6321   14.9103   37.1144 C   0  0  2  0  0  0  0  0  0  0  0  0
   -1.7969   10.6365   42.0214 C   0  0  2  0  0  0  0  0  0  0  0  0
   -1.2124   11.8797   42.5129 N   0  0  0  0  0  0  0  0  0  0  0  0
   -2.5693   15.4022   41.0694 C   0  0  0  0  0  0  0  0  0  0  0  0
    2.0308   15.1825   37.7631 C   0  0  2  0  0  0  0  0  0  0  0  0
    2.0003   14.7442   39.1048 O   0  0  0  0  0  0  0  0  0  0  0  0
   -0.7208    9.7553   41.2869 C   0  0  0  0  0  0  0  0  0  0  0  0
   -3.1447   13.9551   40.7825 C   0  0  2  0  0  0  0  0  0  0  0  0
   -3.6810   13.4014   42.0265 N   0  0  0  0  0  0  0  0  0  0  0  0
    2.3253   16.7248   37.6847 C   0  0  1  0  0  0  0  0  0  0  0  0
    3.6535   17.0167   38.3134 N   0  0  0  0  0  0  0  0  0  0  0  0
   -1.3918    8.6699   40.3448 C   0  0  0  0  0  0  0  0  0  0  0  0
   -1.9752   13.0359   40.2398 C   0  0  2  0  0  0  0  0  0  0  0  0
    2.3589   17.1737   36.1209 C   0  0  1  0  0  0  0  0  0  0  0  0
    3.3554   16.5068   35.3716 O   0  0  0  0  0  0  0  0  0  0  0  0
   -2.7098    8.7281   40.0347 C   0  0  1  0  0  0  0  0  0  0  0  0
   -3.5844    9.7432   40.5193 O   0  0  0  0  0  0  0  0  0  0  0  0
   -1.3991   13.6432   38.8934 C   0  0  2  0  0  0  0  0  0  0  0  0
   -0.3252   12.8078   38.4146 O   0  0  0  0  0  0  0  0  0  0  0  0
    0.9774   16.8631   35.4709 C   0  0  0  0  0  0  0  0  0  0  0  0
    0.6247   15.4001   35.6765 O   0  0  0  0  0  0  0  0  0  0  0  0
   -3.3847    7.7193   39.1363 C   0  0  0  0  0  0  0  0  0  0  0  0
   -4.1710    8.4731   38.1884 O   0  0  0  0  0  0  0  0  0  0  0  0
   -0.8337   15.0866   39.1799 C   0  0  1  0  0  0  0  0  0  0  0  0
   -0.3348   15.6060   37.9723 O   0  0  0  0  0  0  0  0  0  0  0  0
    2.6295   18.6664   35.8916 C   0  0  0  0  0  0  0  0  0  0  0  0
    4.8132   16.2872   37.7600 C   0  0  0  0  0  0  0  0  0  0  0  0
  1  2  1  6  0  0  0
  1  6  1  0  0  0  0
  1 21  1  0  0  0  0
  3  4  1  1  0  0  0
  3  8  1  0  0  0  0
  3 28  1  0  0  0  0
  5  9  1  0  0  0  0
  5 25  1  0  0  0  0
  5 29  1  1  0  0  0
  6  7  1  6  0  0  0
  6 11  1  0  0  0  0
  8 12  1  0  0  0  0
  9 10  1  1  0  0  0
  9 14  1  0  0  0  0
 11 16  1  0  0  0  0
 12 13  1  1  0  0  0
 12 17  1  0  0  0  0
 14 15  1  6  0  0  0
 14 18  1  0  0  0  0
 15 31  1  0  0  0  0
 16 20  1  0  0  0  0
 17  2  1  6  0  0  0
 17 22  1  0  0  0  0
 18 19  1  6  0  0  0
 18 24  1  0  0  0  0
 18 30  1  0  0  0  0
 20 21  1  0  0  0  0
 20 26  1  6  0  0  0
 22 23  1  1  0  0  0
 22 28  1  0  0  0  0
 24 25  1  0  0  0  0
 26 27  1  0  0  0  0
 28 29  1  6  0  0  0
M  END
>  <CHROM.1>
-63.39643831,-81.17596196,56.39489454,-64.92085259,-132.83725277,-171.18567182
-0.52581647,13.66481535,38.97882229,2.46545854,-0.77225837,-2.91531212

>  <Name>
ligand

>  <RI>
0

>  <Rbt.Current_Directory>
/home/itssahil/PROJECTS/Mol_Feturizer/New_Systems/rnas/4GPY

>  <Rbt.Executable>
rbdock ($Id: //depot/dev/client3/rdock/2013.1/src/exe/rbdock.cxx#4 $)

>  <Rbt.Library>
libRbt.so (2013.1, Build901 2013/11/27)

>  <Rbt.Parameter_File>
/export/apps/rDock/src/rDock_2013.1_src/data/scripts/dock_solv.prm

>  <Rbt.Receptor>
prm/pocket_docking_2.prm

>  <SCORE>
3.19617

>  <SCORE.INTER>
-2.38797

>  <SCORE.INTER.CONST>
1

>  <SCORE.INTER.POLAR>
0

>  <SCORE.INTER.ROT>
6

>  <SCORE.INTER.SOLV>
16.1014

>  <SCORE.INTER.VDW>
-14.5591

>  <SCORE.INTER.norm>
-0.0770312

>  <SCORE.INTRA>
2.54872

>  <SCORE.INTRA.DIHEDRAL>
-10.2444

>  <SCORE.INTRA.DIHEDRAL.0>
14.7001

>  <SCORE.INTRA.POLAR>
0

>  <SCORE.INTRA.POLAR.0>
0

>  <SCORE.INTRA.REPUL>
0

>  <SCORE.INTRA.REPUL.0>
0

>  <SCORE.INTRA.SOLV>
3.38994

>  <SCORE.INTRA.SOLV.lig_0>
-65.3082

>  <SCORE.INTRA.VDW>
5.97595

>  <SCORE.INTRA.VDW.0>
-4.21408

>  <SCORE.INTRA.norm>
0.0822166

>  <SCORE.RESTR>
3.03543

>  <SCORE.RESTR.CAVITY>
3.03543

>  <SCORE.RESTR.norm>
0.097917

>  <SCORE.SYSTEM>
0

>  <SCORE.SYSTEM.CONST>
0

>  <SCORE.SYSTEM.DIHEDRAL>
0

>  <SCORE.SYSTEM.SOLV>
0

>  <SCORE.SYSTEM.norm>
0

>  <SCORE.heavy>
31

>  <SCORE.norm>
0.103102

>  <RMSD>
7.810

$$$$
ligand
 OpenBabel11021811493D
libRbt.so/2013.1/901 2013/11/27
 31 33  0  0  0  0  0  0  0  0999 V2000
   -2.9972   13.0388   38.9158 C   0  0  2  0  0  0  0  0  0  0  0  0
   -2.0710   13.3263   39.9458 O   0  0  0  0  0  0  0  0  0  0  0  0
   -0.5693   17.0912   38.6690 C   0  0  2  0  0  0  0  0  0  0  0  0
    0.0387   18.3773   38.7263 N   0  0  0  0  0  0  0  0  0  0  0  0
    1.5389   15.4682   36.8828 C   0  0  2  0  0  0  0  0  0  0  0  0
   -4.2233   12.2559   39.5576 C   0  0  2  0  0  0  0  0  0  0  0  0
   -4.8136   13.0730   40.6123 N   0  0  0  0  0  0  0  0  0  0  0  0
   -1.8176   17.0858   39.6597 C   0  0  0  0  0  0  0  0  0  0  0  0
    2.9015   15.8882   36.2362 C   0  0  2  0  0  0  0  0  0  0  0  0
    3.9536   15.4106   37.0475 O   0  0  0  0  0  0  0  0  0  0  0  0
   -3.7576   10.8606   40.1145 C   0  0  0  0  0  0  0  0  0  0  0  0
   -2.5034   15.6605   39.5833 C   0  0  2  0  0  0  0  0  0  0  0  0
   -3.6587   15.6400   40.4814 N   0  0  0  0  0  0  0  0  0  0  0  0
    2.9421   17.4564   36.1328 C   0  0  1  0  0  0  0  0  0  0  0  0
    4.2442   17.8879   35.5304 N   0  0  0  0  0  0  0  0  0  0  0  0
   -2.7064   10.1636   39.1527 C   0  0  0  0  0  0  0  0  0  0  0  0
   -1.4533   14.5611   40.0258 C   0  0  2  0  0  0  0  0  0  0  0  0
    1.7180   17.9513   35.1817 C   0  0  1  0  0  0  0  0  0  0  0  0
    1.7880   17.4316   33.8686 O   0  0  0  0  0  0  0  0  0  0  0  0
   -2.1119   10.8506   38.1470 C   0  0  1  0  0  0  0  0  0  0  0  0
   -2.3765   12.2235   37.8729 O   0  0  0  0  0  0  0  0  0  0  0  0
   -0.2048   14.5909   39.0491 C   0  0  2  0  0  0  0  0  0  0  0  0
    0.7525   13.5968   39.4683 O   0  0  0  0  0  0  0  0  0  0  0  0
    0.3670   17.4953   35.8099 C   0  0  0  0  0  0  0  0  0  0  0  0
    0.3853   15.9950   36.0465 O   0  0  0  0  0  0  0  0  0  0  0  0
   -1.1014   10.2262   37.2147 C   0  0  0  0  0  0  0  0  0  0  0  0
    0.0938   10.0019   37.9932 O   0  0  0  0  0  0  0  0  0  0  0  0
    0.4718   16.0129   39.1212 C   0  0  1  0  0  0  0  0  0  0  0  0
    1.5706   16.0169   38.2440 O   0  0  0  0  0  0  0  0  0  0  0  0
    1.6285   19.4718   34.9970 C   0  0  0  0  0  0  0  0  0  0  0  0
    4.9873   18.9355   36.2609 C   0  0  0  0  0  0  0  0  0  0  0  0
  1  2  1  1  0  0  0
  1  6  1  0  0  0  0
  1 21  1  0  0  0  0
  3  4  1  1  0  0  0
  3  8  1  0  0  0  0
  3 28  1  0  0  0  0
  5  9  1  0  0  0  0
  5 25  1  0  0  0  0
  5 29  1  1  0  0  0
  6  7  1  1  0  0  0
  6 11  1  0  0  0  0
  8 12  1  0  0  0  0
  9 10  1  1  0  0  0
  9 14  1  0  0  0  0
 11 16  1  0  0  0  0
 12 13  1  1  0  0  0
 12 17  1  0  0  0  0
 14 15  1  6  0  0  0
 14 18  1  0  0  0  0
 15 31  1  0  0  0  0
 16 20  1  0  0  0  0
 17  2  1  6  0  0  0
 17 22  1  0  0  0  0
 18 19  1  6  0  0  0
 18 24  1  0  0  0  0
 18 30  1  0  0  0  0
 20 21  1  0  0  0  0
 20 26  1  1  0  0  0
 22 23  1  1  0  0  0
 22 28  1  0  0  0  0
 24 25  1  0  0  0  0
 26 27  1  0  0  0  0
 28 29  1  6  0  0  0
M  END
>  <CHROM.1>
-137.49735371,171.83985987,-129.64520644,36.49861384,-70.37940857,-74.07221108
-0.18281370,14.95301066,37.92990410,2.45741664,-0.60734412,-3.06960883

>  <Name>
ligand

>  <RI>
0

>  <Rbt.Current_Directory>
/home/itssahil/PROJECTS/Mol_Feturizer/New_Systems/rnas/4GPY

>  <Rbt.Executable>
rbdock ($Id: //depot/dev/client3/rdock/2013.1/src/exe/rbdock.cxx#4 $)

>  <Rbt.Library>
libRbt.so (2013.1, Build901 2013/11/27)

>  <Rbt.Parameter_File>
/export/apps/rDock/src/rDock_2013.1_src/data/scripts/dock_solv.prm

>  <Rbt.Receptor>
prm/pocket_docking_2.prm

>  <SCORE>
-3.20963

>  <SCORE.INTER>
-8.29384

>  <SCORE.INTER.CONST>
1

>  <SCORE.INTER.POLAR>
0

>  <SCORE.INTER.ROT>
6

>  <SCORE.INTER.SOLV>
24.2472

>  <SCORE.INTER.VDW>
-21.2116

>  <SCORE.INTER.norm>
-0.267543

>  <SCORE.INTRA>
3.9149

>  <SCORE.INTRA.DIHEDRAL>
-0.659549

>  <SCORE.INTRA.DIHEDRAL.0>
14.7001

>  <SCORE.INTRA.POLAR>
0

>  <SCORE.INTRA.POLAR.0>
0

>  <SCORE.INTRA.REPUL>
0

>  <SCORE.INTRA.REPUL.0>
0

>  <SCORE.INTRA.SOLV>
3.69324

>  <SCORE.INTRA.SOLV.lig_0>
-65.3082

>  <SCORE.INTRA.VDW>
2.39806

>  <SCORE.INTRA.VDW.0>
-4.21408

>  <SCORE.INTRA.norm>
0.126287

>  <SCORE.RESTR>
1.16931

>  <SCORE.RESTR.CAVITY>
1.16931

>  <SCORE.RESTR.norm>
0.0377197

>  <SCORE.SYSTEM>
0

>  <SCORE.SYSTEM.CONST>
0

>  <SCORE.SYSTEM.DIHEDRAL>
0

>  <SCORE.SYSTEM.SOLV>
0

>  <SCORE.SYSTEM.norm>
0

>  <SCORE.heavy>
31

>  <SCORE.norm>
-0.103536

>  <RMSD>
7.866

$$$$
ligand
 OpenBabel11021811493D
libRbt.so/2013.1/901 2013/11/27
 31 33  0  0  0  0  0  0  0  0999 V2000
   -1.9387   13.0228   42.7592 C   0  0  2  0  0  0  0  0  0  0  0  0
   -1.4222   13.1017   41.4445 O   0  0  0  0  0  0  0  0  0  0  0  0
    0.1727   15.8948   38.6670 C   0  0  2  0  0  0  0  0  0  0  0  0
    0.7634   17.0863   38.1587 N   0  0  0  0  0  0  0  0  0  0  0  0
    3.6448   15.5269   39.1822 C   0  0  2  0  0  0  0  0  0  0  0  0
   -2.0733   11.4865   43.1463 C   0  0  2  0  0  0  0  0  0  0  0  0
   -0.7665   10.8478   43.0322 N   0  0  0  0  0  0  0  0  0  0  0  0
   -1.1673   16.2907   39.4333 C   0  0  0  0  0  0  0  0  0  0  0  0
    4.6140   14.8645   38.1463 C   0  0  2  0  0  0  0  0  0  0  0  0
    4.0623   15.0077   36.8546 O   0  0  0  0  0  0  0  0  0  0  0  0
   -3.1340   10.7759   42.2276 C   0  0  0  0  0  0  0  0  0  0  0  0
   -1.8325   14.9635   39.9844 C   0  0  2  0  0  0  0  0  0  0  0  0
   -3.0707   15.3075   40.6844 N   0  0  0  0  0  0  0  0  0  0  0  0
    4.7801   13.3462   38.5188 C   0  0  1  0  0  0  0  0  0  0  0  0
    5.6924   12.6826   37.5329 N   0  0  0  0  0  0  0  0  0  0  0  0
   -4.3918   11.7029   41.9544 C   0  0  0  0  0  0  0  0  0  0  0  0
   -0.8238   14.2593   40.9812 C   0  0  2  0  0  0  0  0  0  0  0  0
    5.4268   13.2391   40.0082 C   0  0  1  0  0  0  0  0  0  0  0  0
    6.6989   13.8483   40.1079 O   0  0  0  0  0  0  0  0  0  0  0  0
   -4.3707   13.0228   42.2608 C   0  0  1  0  0  0  0  0  0  0  0  0
   -3.2450   13.6739   42.8431 O   0  0  0  0  0  0  0  0  0  0  0  0
    0.5149   13.8914   40.2156 C   0  0  2  0  0  0  0  0  0  0  0  0
    1.4328   13.2640   41.1345 O   0  0  0  0  0  0  0  0  0  0  0  0
    4.4769   13.9353   41.0283 C   0  0  0  0  0  0  0  0  0  0  0  0
    4.1981   15.3618   40.5872 O   0  0  0  0  0  0  0  0  0  0  0  0
   -5.5436   13.9403   42.0101 C   0  0  0  0  0  0  0  0  0  0  0  0
   -6.0067   14.3800   43.3051 O   0  0  0  0  0  0  0  0  0  0  0  0
    1.1713   15.2132   39.6617 C   0  0  1  0  0  0  0  0  0  0  0  0
    2.3514   14.8616   38.9829 O   0  0  0  0  0  0  0  0  0  0  0  0
    5.6389   11.8047   40.5097 C   0  0  0  0  0  0  0  0  0  0  0  0
    5.2336   11.3892   36.9853 C   0  0  0  0  0  0  0  0  0  0  0  0
  1  2  1  6  0  0  0
  1  6  1  0  0  0  0
  1 21  1  0  0  0  0
  3  4  1  1  0  0  0
  3  8  1  0  0  0  0
  3 28  1  0  0  0  0
  5  9  1  0  0  0  0
  5 25  1  0  0  0  0
  5 29  1  1  0  0  0
  6  7  1  6  0  0  0
  6 11  1  0  0  0  0
  8 12  1  0  0  0  0
  9 10  1  6  0  0  0
  9 14  1  0  0  0  0
 11 16  1  0  0  0  0
 12 13  1  1  0  0  0
 12 17  1  0  0  0  0
 14 15  1  6  0  0  0
 14 18  1  0  0  0  0
 15 31  1  0  0  0  0
 16 20  1  0  0  0  0
 17  2  1  6  0  0  0
 17 22  1  0  0  0  0
 18 19  1  1  0  0  0
 18 24  1  0  0  0  0
 18 30  1  0  0  0  0
 20 21  1  0  0  0  0
 20 26  1  6  0  0  0
 22 23  1  1  0  0  0
 22 28  1  0  0  0  0
 24 25  1  0  0  0  0
 26 27  1  0  0  0  0
 28 29  1  6  0  0  0
M  END
>  <CHROM.1>
-160.29199292,-176.05800196,-132.99813504,-105.55782150,114.95403819,109.61484835
0.70036732,13.80403799,40.40393466,-2.88985038,0.28393439,-0.58822674

>  <Name>
ligand

>  <RI>
0

>  <Rbt.Current_Directory>
/home/itssahil/PROJECTS/Mol_Feturizer/New_Systems/rnas/4GPY

>  <Rbt.Executable>
rbdock ($Id: //depot/dev/client3/rdock/2013.1/src/exe/rbdock.cxx#4 $)

>  <Rbt.Library>
libRbt.so (2013.1, Build901 2013/11/27)

>  <Rbt.Parameter_File>
/export/apps/rDock/src/rDock_2013.1_src/data/scripts/dock_solv.prm

>  <Rbt.Receptor>
prm/pocket_docking_7.prm

>  <SCORE>
-3.18301

>  <SCORE.INTER>
-5.34362

>  <SCORE.INTER.CONST>
1

>  <SCORE.INTER.POLAR>
0

>  <SCORE.INTER.ROT>
6

>  <SCORE.INTER.SOLV>
12.4405

>  <SCORE.INTER.VDW>
-15.3093

>  <SCORE.INTER.norm>
-0.172375

>  <SCORE.INTRA>
2.16062

>  <SCORE.INTRA.DIHEDRAL>
2.8008

>  <SCORE.INTRA.DIHEDRAL.0>
14.7001

>  <SCORE.INTRA.POLAR>
0

>  <SCORE.INTRA.POLAR.0>
0

>  <SCORE.INTRA.REPUL>
0

>  <SCORE.INTRA.REPUL.0>
0

>  <SCORE.INTRA.SOLV>
1.92852

>  <SCORE.INTRA.SOLV.lig_0>
-65.3082

>  <SCORE.INTRA.VDW>
-0.204037

>  <SCORE.INTRA.VDW.0>
-4.21408

>  <SCORE.INTRA.norm>
0.0696974

>  <SCORE.RESTR>
0

>  <SCORE.RESTR.CAVITY>
0

>  <SCORE.RESTR.norm>
0

>  <SCORE.SYSTEM>
0

>  <SCORE.SYSTEM.CONST>
0

>  <SCORE.SYSTEM.DIHEDRAL>
0

>  <SCORE.SYSTEM.SOLV>
0

>  <SCORE.SYSTEM.norm>
0

>  <SCORE.heavy>
31

>  <SCORE.norm>
-0.102678

>  <RMSD>
7.887

$$$$
ligand
 OpenBabel11021811493D
libRbt.so/2013.1/901 2013/11/27
 31 33  0  0  0  0  0  0  0  0999 V2000
   -1.2149   11.3316   42.0302 C   0  0  2  0  0  0  0  0  0  0  0  0
   -1.9187   12.2511   41.2175 O   0  0  0  0  0  0  0  0  0  0  0  0
   -0.5915   15.1429   38.4005 C   0  0  2  0  0  0  0  0  0  0  0  0
    0.0101   16.3229   37.8783 N   0  0  0  0  0  0  0  0  0  0  0  0
    2.3789   14.8519   37.5210 C   0  0  2  0  0  0  0  0  0  0  0  0
   -2.0935   10.0127   42.1597 C   0  0  2  0  0  0  0  0  0  0  0  0
   -2.3538    9.4782   40.8274 N   0  0  0  0  0  0  0  0  0  0  0  0
   -1.7247   15.5767   39.4336 C   0  0  0  0  0  0  0  0  0  0  0  0
    3.4061   13.9587   36.7476 C   0  0  2  0  0  0  0  0  0  0  0  0
    2.6945   13.0722   35.9103 O   0  0  0  0  0  0  0  0  0  0  0  0
   -3.4358   10.3154   42.9217 C   0  0  0  0  0  0  0  0  0  0  0  0
   -2.4045   14.2643   40.0018 C   0  0  2  0  0  0  0  0  0  0  0  0
   -3.4553   14.6442   40.9470 N   0  0  0  0  0  0  0  0  0  0  0  0
    4.2681   13.1669   37.7971 C   0  0  1  0  0  0  0  0  0  0  0  0
    5.2513   12.2906   37.0831 N   0  0  0  0  0  0  0  0  0  0  0  0
   -3.2135   11.3177   44.1308 C   0  0  0  0  0  0  0  0  0  0  0  0
   -1.3048   13.3927   40.7354 C   0  0  2  0  0  0  0  0  0  0  0  0
    5.0724   14.2331   38.7268 C   0  0  1  0  0  0  0  0  0  0  0  0
    5.9478   15.0644   37.9905 O   0  0  0  0  0  0  0  0  0  0  0  0
   -2.0561   12.0095   44.2654 C   0  0  1  0  0  0  0  0  0  0  0  0
   -0.9654   11.8961   43.3556 O   0  0  0  0  0  0  0  0  0  0  0  0
   -0.1700   12.9868   39.7053 C   0  0  2  0  0  0  0  0  0  0  0  0
    0.8341   12.2060   40.3853 O   0  0  0  0  0  0  0  0  0  0  0  0
    4.0456   15.1452   39.4626 C   0  0  0  0  0  0  0  0  0  0  0  0
    3.1155   15.7974   38.4543 O   0  0  0  0  0  0  0  0  0  0  0  0
   -1.8080   12.9780   45.3971 C   0  0  0  0  0  0  0  0  0  0  0  0
   -1.5549   14.2638   44.7909 O   0  0  0  0  0  0  0  0  0  0  0  0
    0.5002   14.2949   39.1355 C   0  0  1  0  0  0  0  0  0  0  0  0
    1.4972   13.9102   38.2217 O   0  0  0  0  0  0  0  0  0  0  0  0
    5.9540   13.5973   39.8095 C   0  0  0  0  0  0  0  0  0  0  0  0
    4.7775   10.9397   36.7167 C   0  0  0  0  0  0  0  0  0  0  0  0
  1  2  1  6  0  0  0
  1  6  1  0  0  0  0
  1 21  1  0  0  0  0
  3  4  1  1  0  0  0
  3  8  1  0  0  0  0
  3 28  1  0  0  0  0
  5  9  1  0  0  0  0
  5 25  1  0  0  0  0
  5 29  1  1  0  0  0
  6  7  1  6  0  0  0
  6 11  1  0  0  0  0
  8 12  1  0  0  0  0
  9 10  1  6  0  0  0
  9 14  1  0  0  0  0
 11 16  1  0  0  0  0
 12 13  1  1  0  0  0
 12 17  1  0  0  0  0
 14 15  1  6  0  0  0
 14 18  1  0  0  0  0
 15 31  1  0  0  0  0
 16 20  1  0  0  0  0
 17  2  1  6  0  0  0
 17 22  1  0  0  0  0
 18 19  1  6  0  0  0
 18 24  1  0  0  0  0
 18 30  1  0  0  0  0
 20 21  1  0  0  0  0
 20 26  1  6  0  0  0
 22 23  1  1  0  0  0
 22 28  1  0  0  0  0
 24 25  1  0  0  0  0
 26 27  1  0  0  0  0
 28 29  1  6  0  0  0
M  END
>  <CHROM.1>
-168.55211190,174.04007736,-87.98224107,-174.09423651,-120.44170429,63.98134721
0.66509016,13.25164226,40.07187420,-2.58618001,0.45876480,-0.61789958

>  <Name>
ligand

>  <RI>
0

>  <Rbt.Current_Directory>
/home/itssahil/PROJECTS/Mol_Feturizer/New_Systems/rnas/4GPY

>  <Rbt.Executable>
rbdock ($Id: //depot/dev/client3/rdock/2013.1/src/exe/rbdock.cxx#4 $)

>  <Rbt.Library>
libRbt.so (2013.1, Build901 2013/11/27)

>  <Rbt.Parameter_File>
/export/apps/rDock/src/rDock_2013.1_src/data/scripts/dock_solv.prm

>  <Rbt.Receptor>
prm/pocket_docking_8.prm

>  <SCORE>
-9.46516

>  <SCORE.INTER>
-4.86292

>  <SCORE.INTER.CONST>
1

>  <SCORE.INTER.POLAR>
0

>  <SCORE.INTER.ROT>
6

>  <SCORE.INTER.SOLV>
12.0521

>  <SCORE.INTER.VDW>
-14.8593

>  <SCORE.INTER.norm>
-0.156868

>  <SCORE.INTRA>
-4.60223

>  <SCORE.INTRA.DIHEDRAL>
-11.4233

>  <SCORE.INTRA.DIHEDRAL.0>
14.7001

>  <SCORE.INTRA.POLAR>
0

>  <SCORE.INTRA.POLAR.0>
0

>  <SCORE.INTRA.REPUL>
0

>  <SCORE.INTRA.REPUL.0>
0

>  <SCORE.INTRA.SOLV>
-0.923784

>  <SCORE.INTRA.SOLV.lig_0>
-65.3082

>  <SCORE.INTRA.VDW>
1.57133

>  <SCORE.INTRA.VDW.0>
-4.21408

>  <SCORE.INTRA.norm>
-0.148459

>  <SCORE.RESTR>
0

>  <SCORE.RESTR.CAVITY>
0

>  <SCORE.RESTR.norm>
0

>  <SCORE.SYSTEM>
0

>  <SCORE.SYSTEM.CONST>
0

>  <SCORE.SYSTEM.DIHEDRAL>
0

>  <SCORE.SYSTEM.SOLV>
0

>  <SCORE.SYSTEM.norm>
0

>  <SCORE.heavy>
31

>  <SCORE.norm>
-0.305328

>  <RMSD>
7.893

$$$$
ligand
 OpenBabel11021811493D
libRbt.so/2013.1/901 2013/11/27
 31 33  0  0  0  0  0  0  0  0999 V2000
   -1.5759   10.8332   39.5020 C   0  0  2  0  0  0  0  0  0  0  0  0
   -1.2346   12.2016   39.3918 O   0  0  0  0  0  0  0  0  0  0  0  0
    2.4428   14.1506   38.5326 C   0  0  2  0  0  0  0  0  0  0  0  0
    3.7748   14.6253   38.6977 N   0  0  0  0  0  0  0  0  0  0  0  0
    4.6871   12.2074   37.4474 C   0  0  2  0  0  0  0  0  0  0  0  0
   -3.0596   10.6483   38.9610 C   0  0  2  0  0  0  0  0  0  0  0  0
   -3.1286   11.1205   37.5823 N   0  0  0  0  0  0  0  0  0  0  0  0
    1.5572   14.7263   39.7259 C   0  0  0  0  0  0  0  0  0  0  0  0
    5.1260   11.2261   36.3091 C   0  0  2  0  0  0  0  0  0  0  0  0
    4.4322   11.5649   35.1271 O   0  0  0  0  0  0  0  0  0  0  0  0
   -4.0815   11.4181   39.8760 C   0  0  0  0  0  0  0  0  0  0  0  0
    0.0722   14.2114   39.5327 C   0  0  2  0  0  0  0  0  0  0  0  0
   -0.7584   14.7384   40.6163 N   0  0  0  0  0  0  0  0  0  0  0  0
    4.7852    9.7583   36.7571 C   0  0  1  0  0  0  0  0  0  0  0  0
    5.1813    8.7974   35.6780 N   0  0  0  0  0  0  0  0  0  0  0  0
   -3.7087   11.2900   41.4124 C   0  0  0  0  0  0  0  0  0  0  0  0
    0.0690   12.6284   39.5680 C   0  0  2  0  0  0  0  0  0  0  0  0
    5.6163    9.4174   38.1140 C   0  0  1  0  0  0  0  0  0  0  0  0
    7.0175    9.5010   37.9443 O   0  0  0  0  0  0  0  0  0  0  0  0
   -2.5033   10.8107   41.8047 C   0  0  1  0  0  0  0  0  0  0  0  0
   -1.4936   10.3885   40.8923 O   0  0  0  0  0  0  0  0  0  0  0  0
    0.9720   12.0659   38.3924 C   0  0  2  0  0  0  0  0  0  0  0  0
    0.9749   10.6244   38.4413 O   0  0  0  0  0  0  0  0  0  0  0  0
    5.2045   10.4227   39.2309 C   0  0  0  0  0  0  0  0  0  0  0  0
    5.3959   11.8480   38.7420 O   0  0  0  0  0  0  0  0  0  0  0  0
   -2.1072   10.6799   43.2560 C   0  0  0  0  0  0  0  0  0  0  0  0
   -2.8447   11.6904   43.9769 O   0  0  0  0  0  0  0  0  0  0  0  0
    2.4479   12.5857   38.5827 C   0  0  1  0  0  0  0  0  0  0  0  0
    3.2269   12.0797   37.5272 O   0  0  0  0  0  0  0  0  0  0  0  0
    5.3727    8.0101   38.6744 C   0  0  0  0  0  0  0  0  0  0  0  0
    4.0951    8.3172   34.7989 C   0  0  0  0  0  0  0  0  0  0  0  0
  1  2  1  1  0  0  0
  1  6  1  0  0  0  0
  1 21  1  0  0  0  0
  3  4  1  1  0  0  0
  3  8  1  0  0  0  0
  3 28  1  0  0  0  0
  5  9  1  0  0  0  0
  5 25  1  0  0  0  0
  5 29  1  1  0  0  0
  6  7  1  6  0  0  0
  6 11  1  0  0  0  0
  8 12  1  0  0  0  0
  9 10  1  6  0  0  0
  9 14  1  0  0  0  0
 11 16  1  0  0  0  0
 12 13  1  1  0  0  0
 12 17  1  0  0  0  0
 14 15  1  6  0  0  0
 14 18  1  0  0  0  0
 15 31  1  0  0  0  0
 16 20  1  0  0  0  0
 17  2  1  6  0  0  0
 17 22  1  0  0  0  0
 18 19  1  6  0  0  0
 18 24  1  0  0  0  0
 18 30  1  0  0  0  0
 20 21  1  0  0  0  0
 20 26  1  6  0  0  0
 22 23  1  1  0  0  0
 22 28  1  0  0  0  0
 24 25  1  0  0  0  0
 26 27  1  0  0  0  0
 28 29  1  6  0  0  0
M  END
>  <CHROM.1>
-168.69684619,167.14906716,-99.85371815,-174.00002552,-27.87142560,69.37084328
1.50117620,11.41301679,38.87768921,2.87119147,0.41923534,0.26269493

>  <Name>
ligand

>  <RI>
0

>  <Rbt.Current_Directory>
/home/itssahil/PROJECTS/Mol_Feturizer/New_Systems/rnas/4GPY

>  <Rbt.Executable>
rbdock ($Id: //depot/dev/client3/rdock/2013.1/src/exe/rbdock.cxx#4 $)

>  <Rbt.Library>
libRbt.so (2013.1, Build901 2013/11/27)

>  <Rbt.Parameter_File>
/export/apps/rDock/src/rDock_2013.1_src/data/scripts/dock_solv.prm

>  <Rbt.Receptor>
prm/pocket_docking_8.prm

>  <SCORE>
-6.80049

>  <SCORE.INTER>
-3.73471

>  <SCORE.INTER.CONST>
1

>  <SCORE.INTER.POLAR>
0

>  <SCORE.INTER.ROT>
6

>  <SCORE.INTER.SOLV>
11.0164

>  <SCORE.INTER.VDW>
-13.7619

>  <SCORE.INTER.norm>
-0.120474

>  <SCORE.INTRA>
-3.06579

>  <SCORE.INTRA.DIHEDRAL>
-9.26544

>  <SCORE.INTRA.DIHEDRAL.0>
14.7001

>  <SCORE.INTRA.POLAR>
0

>  <SCORE.INTRA.POLAR.0>
0

>  <SCORE.INTRA.REPUL>
0

>  <SCORE.INTRA.REPUL.0>
0

>  <SCORE.INTRA.SOLV>
-1.13413

>  <SCORE.INTRA.SOLV.lig_0>
-65.3082

>  <SCORE.INTRA.VDW>
2.134

>  <SCORE.INTRA.VDW.0>
-4.21408

>  <SCORE.INTRA.norm>
-0.0988963

>  <SCORE.RESTR>
0

>  <SCORE.RESTR.CAVITY>
0

>  <SCORE.RESTR.norm>
0

>  <SCORE.SYSTEM>
0

>  <SCORE.SYSTEM.CONST>
0

>  <SCORE.SYSTEM.DIHEDRAL>
0

>  <SCORE.SYSTEM.SOLV>
0

>  <SCORE.SYSTEM.norm>
0

>  <SCORE.heavy>
31

>  <SCORE.norm>
-0.219371

>  <RMSD>
7.921

$$$$
ligand
 OpenBabel11021811493D
libRbt.so/2013.1/901 2013/11/27
 31 33  0  0  0  0  0  0  0  0999 V2000
    5.1030   22.5442   36.2446 C   0  0  2  0  0  0  0  0  0  0  0  0
    4.9419   22.0368   34.9339 O   0  0  0  0  0  0  0  0  0  0  0  0
    0.8624   20.8582   35.1034 C   0  0  2  0  0  0  0  0  0  0  0  0
   -0.4191   20.4113   34.6735 N   0  0  0  0  0  0  0  0  0  0  0  0
    1.8727   17.2210   34.9975 C   0  0  2  0  0  0  0  0  0  0  0  0
    6.5390   23.2201   36.3402 C   0  0  2  0  0  0  0  0  0  0  0  0
    6.6427   24.2684   35.3307 N   0  0  0  0  0  0  0  0  0  0  0  0
    1.2188   22.1910   34.3057 C   0  0  0  0  0  0  0  0  0  0  0  0
    0.9644   16.2810   35.8592 C   0  0  2  0  0  0  0  0  0  0  0  0
   -0.3751   16.7103   35.7378 O   0  0  0  0  0  0  0  0  0  0  0  0
    7.6704   22.1428   36.1574 C   0  0  0  0  0  0  0  0  0  0  0  0
    2.6370   22.6966   34.7961 C   0  0  2  0  0  0  0  0  0  0  0  0
    2.9771   23.9265   34.0795 N   0  0  0  0  0  0  0  0  0  0  0  0
    1.4435   16.3581   37.3545 C   0  0  1  0  0  0  0  0  0  0  0  0
    0.5803   15.4782   38.2061 N   0  0  0  0  0  0  0  0  0  0  0  0
    7.3137   20.7836   36.8932 C   0  0  0  0  0  0  0  0  0  0  0  0
    3.7145   21.5768   34.4927 C   0  0  2  0  0  0  0  0  0  0  0  0
    2.9853   15.8446   37.4387 C   0  0  1  0  0  0  0  0  0  0  0  0
    3.1523   14.5102   37.0017 O   0  0  0  0  0  0  0  0  0  0  0  0
    6.0637   20.5446   37.3590 C   0  0  1  0  0  0  0  0  0  0  0  0
    4.9900   21.4728   37.2330 O   0  0  0  0  0  0  0  0  0  0  0  0
    3.3379   20.2480   35.2713 C   0  0  2  0  0  0  0  0  0  0  0  0
    4.3163   19.2297   34.9776 O   0  0  0  0  0  0  0  0  0  0  0  0
    3.8774   16.7595   36.5473 C   0  0  0  0  0  0  0  0  0  0  0  0
    3.3264   16.8015   35.1324 O   0  0  0  0  0  0  0  0  0  0  0  0
    5.6820   19.2617   38.0581 C   0  0  0  0  0  0  0  0  0  0  0  0
    5.8193   18.2051   37.0837 O   0  0  0  0  0  0  0  0  0  0  0  0
    1.9227   19.7506   34.7869 C   0  0  1  0  0  0  0  0  0  0  0  0
    1.6085   18.5768   35.4943 O   0  0  0  0  0  0  0  0  0  0  0  0
    3.5913   15.8741   38.8478 C   0  0  0  0  0  0  0  0  0  0  0  0
   -0.5426   16.1400   38.9021 C   0  0  0  0  0  0  0  0  0  0  0  0
  1  2  1  6  0  0  0
  1  6  1  0  0  0  0
  1 21  1  0  0  0  0
  3  4  1  6  0  0  0
  3  8  1  0  0  0  0
  3 28  1  0  0  0  0
  5  9  1  0  0  0  0
  5 25  1  0  0  0  0
  5 29  1  1  0  0  0
  6  7  1  6  0  0  0
  6 11  1  0  0  0  0
  8 12  1  0  0  0  0
  9 10  1  1  0  0  0
  9 14  1  0  0  0  0
 11 16  1  0  0  0  0
 12 13  1  6  0  0  0
 12 17  1  0  0  0  0
 14 15  1  1  0  0  0
 14 18  1  0  0  0  0
 15 31  1  0  0  0  0
 16 20  1  0  0  0  0
 17  2  1  1  0  0  0
 17 22  1  0  0  0  0
 18 19  1  6  0  0  0
 18 24  1  0  0  0  0
 18 30  1  0  0  0  0
 20 21  1  0  0  0  0
 20 26  1  6  0  0  0
 22 23  1  6  0  0  0
 22 28  1  0  0  0  0
 24 25  1  0  0  0  0
 26 27  1  0  0  0  0
 28 29  1  1  0  0  0
M  END
>  <CHROM.1>
-169.93566572,-162.05097979,-96.09010066,51.05604144,-64.61452032,147.09962184
3.35230606,19.36468149,36.12881706,-0.99371259,0.32910662,2.72140611

>  <Name>
ligand

>  <RI>
0

>  <Rbt.Current_Directory>
/home/itssahil/PROJECTS/Mol_Feturizer/New_Systems/rnas/4GPY

>  <Rbt.Executable>
rbdock ($Id: //depot/dev/client3/rdock/2013.1/src/exe/rbdock.cxx#4 $)

>  <Rbt.Library>
libRbt.so (2013.1, Build901 2013/11/27)

>  <Rbt.Parameter_File>
/export/apps/rDock/src/rDock_2013.1_src/data/scripts/dock_solv.prm

>  <Rbt.Receptor>
prm/blind_docking_60.prm

>  <SCORE>
23.3092

>  <SCORE.INTER>
0.681839

>  <SCORE.INTER.CONST>
1

>  <SCORE.INTER.POLAR>
0

>  <SCORE.INTER.ROT>
6

>  <SCORE.INTER.SOLV>
20.9784

>  <SCORE.INTER.VDW>
-14.1382

>  <SCORE.INTER.norm>
0.0219948

>  <SCORE.INTRA>
2.50136

>  <SCORE.INTRA.DIHEDRAL>
-3.84193

>  <SCORE.INTRA.DIHEDRAL.0>
14.7001

>  <SCORE.INTRA.POLAR>
0

>  <SCORE.INTRA.POLAR.0>
0

>  <SCORE.INTRA.REPUL>
0

>  <SCORE.INTRA.REPUL.0>
0

>  <SCORE.INTRA.SOLV>
0.829925

>  <SCORE.INTRA.SOLV.lig_0>
-65.3082

>  <SCORE.INTRA.VDW>
4.00736

>  <SCORE.INTRA.VDW.0>
-4.21408

>  <SCORE.INTRA.norm>
0.0806889

>  <SCORE.RESTR>
20.126

>  <SCORE.RESTR.CAVITY>
20.126

>  <SCORE.RESTR.norm>
0.649226

>  <SCORE.SYSTEM>
0

>  <SCORE.SYSTEM.CONST>
0

>  <SCORE.SYSTEM.DIHEDRAL>
0

>  <SCORE.SYSTEM.SOLV>
0

>  <SCORE.SYSTEM.norm>
0

>  <SCORE.heavy>
31

>  <SCORE.norm>
0.75191

>  <RMSD>
7.938

$$$$
ligand
 OpenBabel11021811493D
libRbt.so/2013.1/901 2013/11/27
 31 33  0  0  0  0  0  0  0  0999 V2000
   -0.3994    8.0113   32.7512 C   0  0  2  0  0  0  0  0  0  0  0  0
    0.6773    8.3555   33.6019 O   0  0  0  0  0  0  0  0  0  0  0  0
   -0.2613    5.9754   36.9951 C   0  0  2  0  0  0  0  0  0  0  0  0
   -0.1087    5.3063   38.2424 N   0  0  0  0  0  0  0  0  0  0  0  0
   -1.3464    7.4226   39.4215 C   0  0  2  0  0  0  0  0  0  0  0  0
   -0.4828    9.0987   31.5942 C   0  0  2  0  0  0  0  0  0  0  0  0
    0.7889    9.1361   30.8800 N   0  0  0  0  0  0  0  0  0  0  0  0
    0.8673    5.4440   36.0033 C   0  0  0  0  0  0  0  0  0  0  0  0
   -2.5114    8.2843   40.0144 C   0  0  2  0  0  0  0  0  0  0  0  0
   -3.6072    8.2367   39.1255 O   0  0  0  0  0  0  0  0  0  0  0  0
   -0.8420   10.5105   32.1873 C   0  0  0  0  0  0  0  0  0  0  0  0
    0.6869    6.1764   34.6110 C   0  0  2  0  0  0  0  0  0  0  0  0
    1.7109    5.6936   33.6836 N   0  0  0  0  0  0  0  0  0  0  0  0
   -1.9993    9.7599   40.1930 C   0  0  1  0  0  0  0  0  0  0  0  0
   -3.1007   10.6120   40.7457 N   0  0  0  0  0  0  0  0  0  0  0  0
   -1.9235   10.4060   33.3429 C   0  0  0  0  0  0  0  0  0  0  0  0
    0.8442    7.7370   34.8276 C   0  0  2  0  0  0  0  0  0  0  0  0
   -0.7463    9.7584   41.2314 C   0  0  1  0  0  0  0  0  0  0  0  0
   -1.0848    9.2626   42.5116 O   0  0  0  0  0  0  0  0  0  0  0  0
   -2.2462    9.2118   33.8964 C   0  0  1  0  0  0  0  0  0  0  0  0
   -1.6577    7.9778   33.4949 O   0  0  0  0  0  0  0  0  0  0  0  0
   -0.2675    8.2515   35.8341 C   0  0  2  0  0  0  0  0  0  0  0  0
   -0.1074    9.6706   36.0366 O   0  0  0  0  0  0  0  0  0  0  0  0
    0.3937    8.8668   40.6544 C   0  0  0  0  0  0  0  0  0  0  0  0
   -0.1402    7.4792   40.3432 O   0  0  0  0  0  0  0  0  0  0  0  0
   -3.2644    9.0706   35.0026 C   0  0  0  0  0  0  0  0  0  0  0  0
   -4.4971    8.6536   34.3770 O   0  0  0  0  0  0  0  0  0  0  0  0
   -0.0905    7.5157   37.2169 C   0  0  1  0  0  0  0  0  0  0  0  0
   -1.0892    7.9832   38.0894 O   0  0  0  0  0  0  0  0  0  0  0  0
   -0.1354   11.1407   41.4956 C   0  0  0  0  0  0  0  0  0  0  0  0
   -3.7961   11.4886   39.7807 C   0  0  0  0  0  0  0  0  0  0  0  0
  1  2  1  1  0  0  0
  1  6  1  0  0  0  0
  1 21  1  0  0  0  0
  3  4  1  1  0  0  0
  3  8  1  0  0  0  0
  3 28  1  0  0  0  0
  5  9  1  0  0  0  0
  5 25  1  0  0  0  0
  5 29  1  6  0  0  0
  6  7  1  1  0  0  0
  6 11  1  0  0  0  0
  8 12  1  0  0  0  0
  9 10  1  6  0  0  0
  9 14  1  0  0  0  0
 11 16  1  0  0  0  0
 12 13  1  6  0  0  0
 12 17  1  0  0  0  0
 14 15  1  1  0  0  0
 14 18  1  0  0  0  0
 15 31  1  0  0  0  0
 16 20  1  0  0  0  0
 17  2  1  6  0  0  0
 17 22  1  0  0  0  0
 18 19  1  1  0  0  0
 18 24  1  0  0  0  0
 18 30  1  0  0  0  0
 20 21  1  0  0  0  0
 20 26  1  1  0  0  0
 22 23  1  1  0  0  0
 22 28  1  0  0  0  0
 24 25  1  0  0  0  0
 26 27  1  0  0  0  0
 28 29  1  1  0  0  0
M  END
>  <CHROM.1>
168.09008550,178.64125562,-102.34527901,46.95530032,99.01530872,54.24949974
-0.98785897,8.48746288,36.74533924,-1.36102970,-0.81749014,1.60552442

>  <Name>
ligand

>  <RI>
0

>  <Rbt.Current_Directory>
/home/itssahil/PROJECTS/Mol_Feturizer/New_Systems/rnas/4GPY

>  <Rbt.Executable>
rbdock ($Id: //depot/dev/client3/rdock/2013.1/src/exe/rbdock.cxx#4 $)

>  <Rbt.Library>
libRbt.so (2013.1, Build901 2013/11/27)

>  <Rbt.Parameter_File>
/export/apps/rDock/src/rDock_2013.1_src/data/scripts/dock_solv.prm

>  <Rbt.Receptor>
prm/pocket_docking_8.prm

>  <SCORE>
-9.11728

>  <SCORE.INTER>
-6.75504

>  <SCORE.INTER.CONST>
1

>  <SCORE.INTER.POLAR>
0

>  <SCORE.INTER.ROT>
6

>  <SCORE.INTER.SOLV>
10.8669

>  <SCORE.INTER.VDW>
-15.7257

>  <SCORE.INTER.norm>
-0.217905

>  <SCORE.INTRA>
-2.36844

>  <SCORE.INTRA.DIHEDRAL>
-9.87105

>  <SCORE.INTRA.DIHEDRAL.0>
14.7001

>  <SCORE.INTRA.POLAR>
0

>  <SCORE.INTRA.POLAR.0>
0

>  <SCORE.INTRA.REPUL>
0

>  <SCORE.INTRA.REPUL.0>
0

>  <SCORE.INTRA.SOLV>
0.335161

>  <SCORE.INTRA.SOLV.lig_0>
-65.3082

>  <SCORE.INTRA.VDW>
2.3995

>  <SCORE.INTRA.VDW.0>
-4.21408

>  <SCORE.INTRA.norm>
-0.0764014

>  <SCORE.RESTR>
0.00620788

>  <SCORE.RESTR.CAVITY>
0.00620788

>  <SCORE.RESTR.norm>
0.000200254

>  <SCORE.SYSTEM>
0

>  <SCORE.SYSTEM.CONST>
0

>  <SCORE.SYSTEM.DIHEDRAL>
0

>  <SCORE.SYSTEM.SOLV>
0

>  <SCORE.SYSTEM.norm>
0

>  <SCORE.heavy>
31

>  <SCORE.norm>
-0.294106

>  <RMSD>
7.960

$$$$
ligand
 OpenBabel11021811493D
libRbt.so/2013.1/901 2013/11/27
 31 33  0  0  0  0  0  0  0  0999 V2000
   -1.0778    9.7681   40.3171 C   0  0  2  0  0  0  0  0  0  0  0  0
   -1.2798   11.1160   39.9380 O   0  0  0  0  0  0  0  0  0  0  0  0
    1.1389   13.6999   37.5857 C   0  0  2  0  0  0  0  0  0  0  0  0
    2.2108   14.5625   37.2200 N   0  0  0  0  0  0  0  0  0  0  0  0
    3.6321   12.2175   36.2691 C   0  0  2  0  0  0  0  0  0  0  0  0
   -2.4929    9.1376   40.6750 C   0  0  2  0  0  0  0  0  0  0  0  0
   -3.3753    9.2548   39.5190 N   0  0  0  0  0  0  0  0  0  0  0  0
    0.4162   14.3177   38.8646 C   0  0  0  0  0  0  0  0  0  0  0  0
    4.1273   11.0827   35.3108 C   0  0  2  0  0  0  0  0  0  0  0  0
    3.1299   10.8424   34.3408 O   0  0  0  0  0  0  0  0  0  0  0  0
   -3.1116    9.8473   41.9350 C   0  0  0  0  0  0  0  0  0  0  0  0
   -0.7861   13.3665   39.2610 C   0  0  2  0  0  0  0  0  0  0  0  0
   -1.4678   13.9238   40.4300 N   0  0  0  0  0  0  0  0  0  0  0  0
    4.3997    9.7916   36.1653 C   0  0  1  0  0  0  0  0  0  0  0  0
    4.8610    8.6828   35.2697 N   0  0  0  0  0  0  0  0  0  0  0  0
   -2.0115   10.1601   43.0341 C   0  0  0  0  0  0  0  0  0  0  0  0
   -0.2137   11.9299   39.6010 C   0  0  2  0  0  0  0  0  0  0  0  0
    5.5603   10.1205   37.2575 C   0  0  1  0  0  0  0  0  0  0  0  0
    6.7844   10.5125   36.6681 O   0  0  0  0  0  0  0  0  0  0  0  0
   -0.6896   10.0650   42.7511 C   0  0  1  0  0  0  0  0  0  0  0  0
   -0.1875    9.6825   41.4737 O   0  0  0  0  0  0  0  0  0  0  0  0
    0.5241   11.3342   38.3304 C   0  0  2  0  0  0  0  0  0  0  0  0
    1.0547   10.0325   38.6538 O   0  0  0  0  0  0  0  0  0  0  0  0
    5.0776   11.2776   38.1825 C   0  0  0  0  0  0  0  0  0  0  0  0
    4.6736   12.4779   37.3439 O   0  0  0  0  0  0  0  0  0  0  0  0
    0.3883   10.3610   43.7664 C   0  0  0  0  0  0  0  0  0  0  0  0
    1.0961   11.5251   43.2883 O   0  0  0  0  0  0  0  0  0  0  0  0
    1.7159   12.2866   37.9332 C   0  0  1  0  0  0  0  0  0  0  0  0
    2.3500   11.7417   36.8027 O   0  0  0  0  0  0  0  0  0  0  0  0
    5.9253    8.9453   38.1738 C   0  0  0  0  0  0  0  0  0  0  0  0
    3.8376    7.6931   34.8740 C   0  0  0  0  0  0  0  0  0  0  0  0
  1  2  1  1  0  0  0
  1  6  1  0  0  0  0
  1 21  1  0  0  0  0
  3  4  1  1  0  0  0
  3  8  1  0  0  0  0
  3 28  1  0  0  0  0
  5  9  1  0  0  0  0
  5 25  1  0  0  0  0
  5 29  1  1  0  0  0
  6  7  1  6  0  0  0
  6 11  1  0  0  0  0
  8 12  1  0  0  0  0
  9 10  1  6  0  0  0
  9 14  1  0  0  0  0
 11 16  1  0  0  0  0
 12 13  1  1  0  0  0
 12 17  1  0  0  0  0
 14 15  1  6  0  0  0
 14 18  1  0  0  0  0
 15 31  1  0  0  0  0
 16 20  1  0  0  0  0
 17  2  1  6  0  0  0
 17 22  1  0  0  0  0
 18 19  1  6  0  0  0
 18 24  1  0  0  0  0
 18 30  1  0  0  0  0
 20 21  1  0  0  0  0
 20 26  1  6  0  0  0
 22 23  1  1  0  0  0
 22 28  1  0  0  0  0
 24 25  1  0  0  0  0
 26 27  1  0  0  0  0
 28 29  1  6  0  0  0
M  END
>  <CHROM.1>
178.43129615,163.97735808,-99.24401487,-178.85160236,-114.66560469,72.02534650
1.52731512,11.00702516,38.74430425,-2.87943040,0.67635785,-0.44179436

>  <Name>
ligand

>  <RI>
0

>  <Rbt.Current_Directory>
/home/itssahil/PROJECTS/Mol_Feturizer/New_Systems/rnas/4GPY

>  <Rbt.Executable>
rbdock ($Id: //depot/dev/client3/rdock/2013.1/src/exe/rbdock.cxx#4 $)

>  <Rbt.Library>
libRbt.so (2013.1, Build901 2013/11/27)

>  <Rbt.Parameter_File>
/export/apps/rDock/src/rDock_2013.1_src/data/scripts/dock_solv.prm

>  <Rbt.Receptor>
prm/pocket_docking_8.prm

>  <SCORE>
-10.1975

>  <SCORE.INTER>
-5.63631

>  <SCORE.INTER.CONST>
1

>  <SCORE.INTER.POLAR>
0

>  <SCORE.INTER.ROT>
6

>  <SCORE.INTER.SOLV>
11.131

>  <SCORE.INTER.VDW>
-15.0679

>  <SCORE.INTER.norm>
-0.181817

>  <SCORE.INTRA>
-4.56517

>  <SCORE.INTRA.DIHEDRAL>
-10.1917

>  <SCORE.INTRA.DIHEDRAL.0>
14.7001

>  <SCORE.INTRA.POLAR>
0

>  <SCORE.INTRA.POLAR.0>
0

>  <SCORE.INTRA.REPUL>
0

>  <SCORE.INTRA.REPUL.0>
0

>  <SCORE.INTRA.SOLV>
-1.26626

>  <SCORE.INTRA.SOLV.lig_0>
-65.3082

>  <SCORE.INTRA.VDW>
1.16383

>  <SCORE.INTRA.VDW.0>
-4.21408

>  <SCORE.INTRA.norm>
-0.147263

>  <SCORE.RESTR>
0.0039371

>  <SCORE.RESTR.CAVITY>
0.0039371

>  <SCORE.RESTR.norm>
0.000127003

>  <SCORE.SYSTEM>
0

>  <SCORE.SYSTEM.CONST>
0

>  <SCORE.SYSTEM.DIHEDRAL>
0

>  <SCORE.SYSTEM.SOLV>
0

>  <SCORE.SYSTEM.norm>
0

>  <SCORE.heavy>
31

>  <SCORE.norm>
-0.328953

>  <RMSD>
8.018

$$$$
ligand
 OpenBabel11021811493D
libRbt.so/2013.1/901 2013/11/27
 31 33  0  0  0  0  0  0  0  0999 V2000
   -1.0926   10.2244   41.1666 C   0  0  2  0  0  0  0  0  0  0  0  0
   -0.3737   11.0292   40.2518 O   0  0  0  0  0  0  0  0  0  0  0  0
   -0.8779   15.0344   38.9237 C   0  0  2  0  0  0  0  0  0  0  0  0
   -0.9713   16.4545   38.9636 N   0  0  0  0  0  0  0  0  0  0  0  0
    1.6296   14.7661   37.1004 C   0  0  2  0  0  0  0  0  0  0  0  0
   -0.1894    8.9694   41.5371 C   0  0  2  0  0  0  0  0  0  0  0  0
    1.0746    9.4375   42.0955 N   0  0  0  0  0  0  0  0  0  0  0  0
   -1.9751   14.4351   39.9120 C   0  0  0  0  0  0  0  0  0  0  0  0
    2.9983   15.3614   36.6278 C   0  0  2  0  0  0  0  0  0  0  0  0
    4.0227   14.8537   37.4561 O   0  0  0  0  0  0  0  0  0  0  0  0
    0.0494    8.0672   40.2710 C   0  0  0  0  0  0  0  0  0  0  0  0
   -1.8818   12.8553   39.8549 C   0  0  2  0  0  0  0  0  0  0  0  0
   -2.8897   12.2869   40.7509 N   0  0  0  0  0  0  0  0  0  0  0  0
    2.9220   16.9284   36.7285 C   0  0  1  0  0  0  0  0  0  0  0  0
    4.2264   17.5251   36.2960 N   0  0  0  0  0  0  0  0  0  0  0  0
   -1.2561    7.9481   39.3780 C   0  0  0  0  0  0  0  0  0  0  0  0
   -0.4339   12.4094   40.3151 C   0  0  2  0  0  0  0  0  0  0  0  0
    1.7354   17.4600   35.7500 C   0  0  1  0  0  0  0  0  0  0  0  0
    1.9423   17.1257   34.3918 O   0  0  0  0  0  0  0  0  0  0  0  0
   -2.3190    8.7652   39.5760 C   0  0  1  0  0  0  0  0  0  0  0  0
   -2.3545    9.7746   40.5811 O   0  0  0  0  0  0  0  0  0  0  0  0
    0.6515   13.0304   39.3404 C   0  0  2  0  0  0  0  0  0  0  0  0
    1.9673   12.6312   39.7758 O   0  0  0  0  0  0  0  0  0  0  0  0
    0.3825   16.8324   36.2008 C   0  0  0  0  0  0  0  0  0  0  0  0
    0.5022   15.3188   36.2453 O   0  0  0  0  0  0  0  0  0  0  0  0
   -3.5765    8.6890   38.7435 C   0  0  0  0  0  0  0  0  0  0  0  0
   -3.4707    9.7236   37.7420 O   0  0  0  0  0  0  0  0  0  0  0  0
    0.5518   14.6027   39.3934 C   0  0  1  0  0  0  0  0  0  0  0  0
    1.5180   15.1296   38.5183 O   0  0  0  0  0  0  0  0  0  0  0  0
    1.5396   18.9817   35.7536 C   0  0  0  0  0  0  0  0  0  0  0  0
    5.1538   17.9223   37.3756 C   0  0  0  0  0  0  0  0  0  0  0  0
  1  2  1  6  0  0  0
  1  6  1  0  0  0  0
  1 21  1  0  0  0  0
  3  4  1  1  0  0  0
  3  8  1  0  0  0  0
  3 28  1  0  0  0  0
  5  9  1  0  0  0  0
  5 25  1  0  0  0  0
  5 29  1  1  0  0  0
  6  7  1  6  0  0  0
  6 11  1  0  0  0  0
  8 12  1  0  0  0  0
  9 10  1  1  0  0  0
  9 14  1  0  0  0  0
 11 16  1  0  0  0  0
 12 13  1  1  0  0  0
 12 17  1  0  0  0  0
 14 15  1  6  0  0  0
 14 18  1  0  0  0  0
 15 31  1  0  0  0  0
 16 20  1  0  0  0  0
 17  2  1  6  0  0  0
 17 22  1  0  0  0  0
 18 19  1  6  0  0  0
 18 24  1  0  0  0  0
 18 30  1  0  0  0  0
 20 21  1  0  0  0  0
 20 26  1  6  0  0  0
 22 23  1  1  0  0  0
 22 28  1  0  0  0  0
 24 25  1  0  0  0  0
 26 27  1  0  0  0  0
 28 29  1  6  0  0  0
M  END
>  <CHROM.1>
-141.97734591,-168.68134889,-99.23158586,-70.26507368,-98.46255014,-64.03564160
0.31351171,13.38104155,38.58594957,-2.03104478,-0.13930121,-0.53015373

>  <Name>
ligand

>  <RI>
0

>  <Rbt.Current_Directory>
/home/itssahil/PROJECTS/Mol_Feturizer/New_Systems/rnas/4GPY

>  <Rbt.Executable>
rbdock ($Id: //depot/dev/client3/rdock/2013.1/src/exe/rbdock.cxx#4 $)

>  <Rbt.Library>
libRbt.so (2013.1, Build901 2013/11/27)

>  <Rbt.Parameter_File>
/export/apps/rDock/src/rDock_2013.1_src/data/scripts/dock_solv.prm

>  <Rbt.Receptor>
prm/pocket_docking_4.prm

>  <SCORE>
-11.1691

>  <SCORE.INTER>
-10.9786

>  <SCORE.INTER.CONST>
1

>  <SCORE.INTER.POLAR>
0

>  <SCORE.INTER.ROT>
6

>  <SCORE.INTER.SOLV>
13.7185

>  <SCORE.INTER.VDW>
-19.4919

>  <SCORE.INTER.norm>
-0.354148

>  <SCORE.INTRA>
-0.190563

>  <SCORE.INTRA.DIHEDRAL>
-5.31389

>  <SCORE.INTRA.DIHEDRAL.0>
14.7001

>  <SCORE.INTRA.POLAR>
0

>  <SCORE.INTRA.POLAR.0>
0

>  <SCORE.INTRA.REPUL>
0

>  <SCORE.INTRA.REPUL.0>
0

>  <SCORE.INTRA.SOLV>
2.45154

>  <SCORE.INTRA.SOLV.lig_0>
-65.3082

>  <SCORE.INTRA.VDW>
1.24061

>  <SCORE.INTRA.VDW.0>
-4.21408

>  <SCORE.INTRA.norm>
-0.0061472

>  <SCORE.RESTR>
0

>  <SCORE.RESTR.CAVITY>
0

>  <SCORE.RESTR.norm>
0

>  <SCORE.SYSTEM>
0

>  <SCORE.SYSTEM.CONST>
0

>  <SCORE.SYSTEM.DIHEDRAL>
0

>  <SCORE.SYSTEM.SOLV>
0

>  <SCORE.SYSTEM.norm>
0

>  <SCORE.heavy>
31

>  <SCORE.norm>
-0.360295

>  <RMSD>
8.024

$$$$
ligand
 OpenBabel11021811493D
libRbt.so/2013.1/901 2013/11/27
 31 33  0  0  0  0  0  0  0  0999 V2000
   -0.8093   10.4190   39.1062 C   0  0  2  0  0  0  0  0  0  0  0  0
   -1.6289   11.5466   38.8650 O   0  0  0  0  0  0  0  0  0  0  0  0
   -0.7993   15.7110   38.6952 C   0  0  2  0  0  0  0  0  0  0  0  0
   -0.4462   17.0225   39.1222 N   0  0  0  0  0  0  0  0  0  0  0  0
    1.6914   14.9181   36.7847 C   0  0  2  0  0  0  0  0  0  0  0  0
   -1.4923    9.1560   38.4233 C   0  0  2  0  0  0  0  0  0  0  0  0
   -1.6607    9.4154   36.9975 N   0  0  0  0  0  0  0  0  0  0  0  0
   -2.0704   15.2397   39.5328 C   0  0  0  0  0  0  0  0  0  0  0  0
    3.0757   15.5518   36.4196 C   0  0  2  0  0  0  0  0  0  0  0  0
    4.0680   14.9760   37.2425 O   0  0  0  0  0  0  0  0  0  0  0  0
   -2.8716    8.8356   39.1082 C   0  0  0  0  0  0  0  0  0  0  0  0
   -2.4727   13.7875   39.0460 C   0  0  2  0  0  0  0  0  0  0  0  0
   -3.6454   13.3414   39.7993 N   0  0  0  0  0  0  0  0  0  0  0  0
    2.9897   17.1046   36.6496 C   0  0  1  0  0  0  0  0  0  0  0  0
    4.3081   17.7362   36.3220 N   0  0  0  0  0  0  0  0  0  0  0  0
   -2.8063    9.0268   40.6815 C   0  0  0  0  0  0  0  0  0  0  0  0
   -1.2578   12.8050   39.3023 C   0  0  2  0  0  0  0  0  0  0  0  0
    1.8413   17.7169   35.6727 C   0  0  1  0  0  0  0  0  0  0  0  0
    2.1036   17.4990   34.3004 O   0  0  0  0  0  0  0  0  0  0  0  0
   -1.7606    9.6573   41.2692 C   0  0  1  0  0  0  0  0  0  0  0  0
   -0.6559   10.1869   40.5416 O   0  0  0  0  0  0  0  0  0  0  0  0
    0.0083   13.2961   38.4841 C   0  0  2  0  0  0  0  0  0  0  0  0
    1.1136   12.4040   38.7351 O   0  0  0  0  0  0  0  0  0  0  0  0
    0.4737   17.0529   36.0140 C   0  0  0  0  0  0  0  0  0  0  0  0
    0.5972   15.5410   35.9348 O   0  0  0  0  0  0  0  0  0  0  0  0
   -1.6642    9.8659   42.7616 C   0  0  0  0  0  0  0  0  0  0  0  0
   -1.7114   11.2921   42.9821 O   0  0  0  0  0  0  0  0  0  0  0  0
    0.4025   14.7446   38.9652 C   0  0  1  0  0  0  0  0  0  0  0  0
    1.5218   15.1601   38.2227 O   0  0  0  0  0  0  0  0  0  0  0  0
    1.6398   19.2327   35.7973 C   0  0  0  0  0  0  0  0  0  0  0  0
    5.2331   17.9443   37.4553 C   0  0  0  0  0  0  0  0  0  0  0  0
  1  2  1  1  0  0  0
  1  6  1  0  0  0  0
  1 21  1  0  0  0  0
  3  4  1  1  0  0  0
  3  8  1  0  0  0  0
  3 28  1  0  0  0  0
  5  9  1  0  0  0  0
  5 25  1  0  0  0  0
  5 29  1  1  0  0  0
  6  7  1  6  0  0  0
  6 11  1  0  0  0  0
  8 12  1  0  0  0  0
  9 10  1  1  0  0  0
  9 14  1  0  0  0  0
 11 16  1  0  0  0  0
 12 13  1  1  0  0  0
 12 17  1  0  0  0  0
 14 15  1  6  0  0  0
 14 18  1  0  0  0  0
 15 31  1  0  0  0  0
 16 20  1  0  0  0  0
 17  2  1  6  0  0  0
 17 22  1  0  0  0  0
 18 19  1  6  0  0  0
 18 24  1  0  0  0  0
 18 30  1  0  0  0  0
 20 21  1  0  0  0  0
 20 26  1  6  0  0  0
 22 23  1  1  0  0  0
 22 28  1  0  0  0  0
 24 25  1  0  0  0  0
 26 27  1  0  0  0  0
 28 29  1  6  0  0  0
M  END
>  <CHROM.1>
-177.59407493,-179.75276604,-94.63194370,-172.44156777,-115.43662436,-77.57372308
0.13844856,13.81885435,38.36381666,-2.18724978,0.54965196,-0.16071854

>  <Name>
ligand

>  <RI>
0

>  <Rbt.Current_Directory>
/home/itssahil/PROJECTS/Mol_Feturizer/New_Systems/rnas/4GPY

>  <Rbt.Executable>
rbdock ($Id: //depot/dev/client3/rdock/2013.1/src/exe/rbdock.cxx#4 $)

>  <Rbt.Library>
libRbt.so (2013.1, Build901 2013/11/27)

>  <Rbt.Parameter_File>
/export/apps/rDock/src/rDock_2013.1_src/data/scripts/dock_solv.prm

>  <Rbt.Receptor>
prm/pocket_docking_3.prm

>  <SCORE>
-15.4845

>  <SCORE.INTER>
-11.1985

>  <SCORE.INTER.CONST>
1

>  <SCORE.INTER.POLAR>
0

>  <SCORE.INTER.ROT>
6

>  <SCORE.INTER.SOLV>
16.1667

>  <SCORE.INTER.VDW>
-20.4546

>  <SCORE.INTER.norm>
-0.361243

>  <SCORE.INTRA>
-4.28592

>  <SCORE.INTRA.DIHEDRAL>
-10.515

>  <SCORE.INTRA.DIHEDRAL.0>
14.7001

>  <SCORE.INTRA.POLAR>
0

>  <SCORE.INTRA.POLAR.0>
0

>  <SCORE.INTRA.REPUL>
0

>  <SCORE.INTRA.REPUL.0>
0

>  <SCORE.INTRA.SOLV>
-0.335604

>  <SCORE.INTRA.SOLV.lig_0>
-65.3082

>  <SCORE.INTRA.VDW>
1.13938

>  <SCORE.INTRA.VDW.0>
-4.21408

>  <SCORE.INTRA.norm>
-0.138256

>  <SCORE.RESTR>
0

>  <SCORE.RESTR.CAVITY>
0

>  <SCORE.RESTR.norm>
0

>  <SCORE.SYSTEM>
0

>  <SCORE.SYSTEM.CONST>
0

>  <SCORE.SYSTEM.DIHEDRAL>
0

>  <SCORE.SYSTEM.SOLV>
0

>  <SCORE.SYSTEM.norm>
0

>  <SCORE.heavy>
31

>  <SCORE.norm>
-0.499499

>  <RMSD>
8.089

$$$$
ligand
 OpenBabel11021811493D
libRbt.so/2013.1/901 2013/11/27
 31 33  0  0  0  0  0  0  0  0999 V2000
   -0.7868   10.3964   39.1133 C   0  0  2  0  0  0  0  0  0  0  0  0
   -1.6068   11.5215   38.8620 O   0  0  0  0  0  0  0  0  0  0  0  0
   -0.7612   15.6824   38.6829 C   0  0  2  0  0  0  0  0  0  0  0  0
   -0.4143   16.9958   39.1091 N   0  0  0  0  0  0  0  0  0  0  0  0
    1.7621   14.8871   36.8327 C   0  0  2  0  0  0  0  0  0  0  0  0
   -1.4356    9.1395   38.3870 C   0  0  2  0  0  0  0  0  0  0  0  0
   -1.5569    9.4209   36.9606 N   0  0  0  0  0  0  0  0  0  0  0  0
   -2.0530   15.2204   39.4938 C   0  0  0  0  0  0  0  0  0  0  0  0
    3.1236   15.5758   36.4813 C   0  0  2  0  0  0  0  0  0  0  0  0
    4.1299   15.0399   37.3141 O   0  0  0  0  0  0  0  0  0  0  0  0
   -2.8348    8.7975   39.0188 C   0  0  0  0  0  0  0  0  0  0  0  0
   -2.4481   13.7660   39.0077 C   0  0  2  0  0  0  0  0  0  0  0  0
   -3.6394   13.3285   39.7364 N   0  0  0  0  0  0  0  0  0  0  0  0
    2.9732   17.1238   36.7102 C   0  0  1  0  0  0  0  0  0  0  0  0
    4.2686   17.8077   36.3957 N   0  0  0  0  0  0  0  0  0  0  0  0
   -2.8253    8.9636   40.5962 C   0  0  0  0  0  0  0  0  0  0  0  0
   -1.2423   12.7820   39.2992 C   0  0  2  0  0  0  0  0  0  0  0  0
    1.8110   17.6899   35.7219 C   0  0  1  0  0  0  0  0  0  0  0  0
    2.0955   17.4831   34.3523 O   0  0  0  0  0  0  0  0  0  0  0  0
   -1.8055    9.5925   41.2297 C   0  0  1  0  0  0  0  0  0  0  0  0
   -0.6809   10.1422   40.5492 O   0  0  0  0  0  0  0  0  0  0  0  0
    0.0441   13.2638   38.5076 C   0  0  2  0  0  0  0  0  0  0  0  0
    1.1405   12.3704   38.7906 O   0  0  0  0  0  0  0  0  0  0  0  0
    0.4678   16.9717   36.0496 C   0  0  0  0  0  0  0  0  0  0  0  0
    0.6524   15.4660   35.9719 O   0  0  0  0  0  0  0  0  0  0  0  0
   -1.7622    9.7775   42.7277 C   0  0  0  0  0  0  0  0  0  0  0  0
   -1.8263   11.1996   42.9691 O   0  0  0  0  0  0  0  0  0  0  0  0
    0.4310   14.7145   38.9878 C   0  0  1  0  0  0  0  0  0  0  0  0
    1.5687   15.1217   38.2688 O   0  0  0  0  0  0  0  0  0  0  0  0
    1.5479   19.1964   35.8443 C   0  0  0  0  0  0  0  0  0  0  0  0
    5.2242   17.9447   37.5143 C   0  0  0  0  0  0  0  0  0  0  0  0
  1  2  1  1  0  0  0
  1  6  1  0  0  0  0
  1 21  1  0  0  0  0
  3  4  1  1  0  0  0
  3  8  1  0  0  0  0
  3 28  1  0  0  0  0
  5  9  1  0  0  0  0
  5 25  1  0  0  0  0
  5 29  1  1  0  0  0
  6  7  1  6  0  0  0
  6 11  1  0  0  0  0
  8 12  1  0  0  0  0
  9 10  1  1  0  0  0
  9 14  1  0  0  0  0
 11 16  1  0  0  0  0
 12 13  1  1  0  0  0
 12 17  1  0  0  0  0
 14 15  1  6  0  0  0
 14 18  1  0  0  0  0
 15 31  1  0  0  0  0
 16 20  1  0  0  0  0
 17  2  1  6  0  0  0
 17 22  1  0  0  0  0
 18 19  1  6  0  0  0
 18 24  1  0  0  0  0
 18 30  1  0  0  0  0
 20 21  1  0  0  0  0
 20 26  1  6  0  0  0
 22 23  1  1  0  0  0
 22 28  1  0  0  0  0
 24 25  1  0  0  0  0
 26 27  1  0  0  0  0
 28 29  1  6  0  0  0
M  END
>  <CHROM.1>
-175.73853512,177.22638333,-89.38058382,-173.37206817,-115.53495399,-76.60760664
0.14586712,13.79257439,38.37279946,-2.18017925,0.52973071,-0.16449858

>  <Name>
ligand

>  <RI>
0

>  <Rbt.Current_Directory>
/home/itssahil/PROJECTS/Mol_Feturizer/New_Systems/rnas/4GPY

>  <Rbt.Executable>
rbdock ($Id: //depot/dev/client3/rdock/2013.1/src/exe/rbdock.cxx#4 $)

>  <Rbt.Library>
libRbt.so (2013.1, Build901 2013/11/27)

>  <Rbt.Parameter_File>
/export/apps/rDock/src/rDock_2013.1_src/data/scripts/dock_solv.prm

>  <Rbt.Receptor>
prm/pocket_docking_3.prm

>  <SCORE>
-15.2327

>  <SCORE.INTER>
-11.1153

>  <SCORE.INTER.CONST>
1

>  <SCORE.INTER.POLAR>
0

>  <SCORE.INTER.ROT>
6

>  <SCORE.INTER.SOLV>
15.9819

>  <SCORE.INTER.VDW>
-20.3375

>  <SCORE.INTER.norm>
-0.358556

>  <SCORE.INTRA>
-4.11749

>  <SCORE.INTRA.DIHEDRAL>
-10.7867

>  <SCORE.INTRA.DIHEDRAL.0>
14.7001

>  <SCORE.INTRA.POLAR>
0

>  <SCORE.INTRA.POLAR.0>
0

>  <SCORE.INTRA.REPUL>
0

>  <SCORE.INTRA.REPUL.0>
0

>  <SCORE.INTRA.SOLV>
-0.180749

>  <SCORE.INTRA.SOLV.lig_0>
-65.3082

>  <SCORE.INTRA.VDW>
1.36624

>  <SCORE.INTRA.VDW.0>
-4.21408

>  <SCORE.INTRA.norm>
-0.132822

>  <SCORE.RESTR>
0

>  <SCORE.RESTR.CAVITY>
0

>  <SCORE.RESTR.norm>
0

>  <SCORE.SYSTEM>
0

>  <SCORE.SYSTEM.CONST>
0

>  <SCORE.SYSTEM.DIHEDRAL>
0

>  <SCORE.SYSTEM.SOLV>
0

>  <SCORE.SYSTEM.norm>
0

>  <SCORE.heavy>
31

>  <SCORE.norm>
-0.491379

>  <RMSD>
8.089

$$$$
ligand
 OpenBabel11021811493D
libRbt.so/2013.1/901 2013/11/27
 31 33  0  0  0  0  0  0  0  0999 V2000
   -0.8191   10.4397   39.0778 C   0  0  2  0  0  0  0  0  0  0  0  0
   -1.6481   11.5644   38.8558 O   0  0  0  0  0  0  0  0  0  0  0  0
   -0.8389   15.7338   38.7117 C   0  0  2  0  0  0  0  0  0  0  0  0
   -0.4886   17.0436   39.1462 N   0  0  0  0  0  0  0  0  0  0  0  0
    1.6432   14.9630   36.7777 C   0  0  2  0  0  0  0  0  0  0  0  0
   -1.4907    9.1833   38.3717 C   0  0  2  0  0  0  0  0  0  0  0  0
   -1.6601    9.4667   36.9506 N   0  0  0  0  0  0  0  0  0  0  0  0
   -2.1015   15.2502   39.5552 C   0  0  0  0  0  0  0  0  0  0  0  0
    3.0443   15.5614   36.4170 C   0  0  2  0  0  0  0  0  0  0  0  0
    4.0208   14.9515   37.2342 O   0  0  0  0  0  0  0  0  0  0  0  0
   -2.8677    8.8390   39.0495 C   0  0  0  0  0  0  0  0  0  0  0  0
   -2.5008   13.7999   39.0602 C   0  0  2  0  0  0  0  0  0  0  0  0
   -3.6658   13.3427   39.8188 N   0  0  0  0  0  0  0  0  0  0  0  0
    3.0012   17.1140   36.6603 C   0  0  1  0  0  0  0  0  0  0  0  0
    4.3364   17.7118   36.3371 N   0  0  0  0  0  0  0  0  0  0  0  0
   -2.8054    9.0027   40.6260 C   0  0  0  0  0  0  0  0  0  0  0  0
   -1.2795   12.8212   39.3000 C   0  0  2  0  0  0  0  0  0  0  0  0
    1.8696   17.7660   35.6895 C   0  0  1  0  0  0  0  0  0  0  0  0
    2.1251   17.5528   34.3153 O   0  0  0  0  0  0  0  0  0  0  0  0
   -1.7656    9.6315   41.2258 C   0  0  1  0  0  0  0  0  0  0  0  0
   -0.6649   10.1834   40.5089 O   0  0  0  0  0  0  0  0  0  0  0  0
   -0.0218   13.3243   38.4762 C   0  0  2  0  0  0  0  0  0  0  0  0
    1.0894   12.4355   38.7122 O   0  0  0  0  0  0  0  0  0  0  0  0
    0.4844   17.1370   36.0262 C   0  0  0  0  0  0  0  0  0  0  0  0
    0.5661   15.6231   35.9340 O   0  0  0  0  0  0  0  0  0  0  0  0
   -1.6722    9.8143   42.7219 C   0  0  0  0  0  0  0  0  0  0  0  0
   -1.7704   11.2332   42.9704 O   0  0  0  0  0  0  0  0  0  0  0  0
    0.3693   14.7709   38.9655 C   0  0  1  0  0  0  0  0  0  0  0  0
    1.4811   15.1973   38.2178 O   0  0  0  0  0  0  0  0  0  0  0  0
    1.7100   19.2857   35.8272 C   0  0  0  0  0  0  0  0  0  0  0  0
    5.2460   17.9367   37.4796 C   0  0  0  0  0  0  0  0  0  0  0  0
  1  2  1  1  0  0  0
  1  6  1  0  0  0  0
  1 21  1  0  0  0  0
  3  4  1  1  0  0  0
  3  8  1  0  0  0  0
  3 28  1  0  0  0  0
  5  9  1  0  0  0  0
  5 25  1  0  0  0  0
  5 29  1  1  0  0  0
  6  7  1  6  0  0  0
  6 11  1  0  0  0  0
  8 12  1  0  0  0  0
  9 10  1  1  0  0  0
  9 14  1  0  0  0  0
 11 16  1  0  0  0  0
 12 13  1  1  0  0  0
 12 17  1  0  0  0  0
 14 15  1  6  0  0  0
 14 18  1  0  0  0  0
 15 31  1  0  0  0  0
 16 20  1  0  0  0  0
 17  2  1  6  0  0  0
 17 22  1  0  0  0  0
 18 19  1  6  0  0  0
 18 24  1  0  0  0  0
 18 30  1  0  0  0  0
 20 21  1  0  0  0  0
 20 26  1  6  0  0  0
 22 23  1  1  0  0  0
 22 28  1  0  0  0  0
 24 25  1  0  0  0  0
 26 27  1  0  0  0  0
 28 29  1  6  0  0  0
M  END
>  <CHROM.1>
-176.70697926,-177.75375683,-97.09636486,-172.69231963,-113.83308505,-77.79204857
0.12569058,13.83464404,38.35693813,-2.19018270,0.55412348,-0.15062201

>  <Name>
ligand

>  <RI>
0

>  <Rbt.Current_Directory>
/home/itssahil/PROJECTS/Mol_Feturizer/New_Systems/rnas/4GPY

>  <Rbt.Executable>
rbdock ($Id: //depot/dev/client3/rdock/2013.1/src/exe/rbdock.cxx#4 $)

>  <Rbt.Library>
libRbt.so (2013.1, Build901 2013/11/27)

>  <Rbt.Parameter_File>
/export/apps/rDock/src/rDock_2013.1_src/data/scripts/dock_solv.prm

>  <Rbt.Receptor>
prm/pocket_docking_3.prm

>  <SCORE>
-15.3422

>  <SCORE.INTER>
-11.0206

>  <SCORE.INTER.CONST>
1

>  <SCORE.INTER.POLAR>
0

>  <SCORE.INTER.ROT>
6

>  <SCORE.INTER.SOLV>
16.2485

>  <SCORE.INTER.VDW>
-20.3632

>  <SCORE.INTER.norm>
-0.355503

>  <SCORE.INTRA>
-4.32162

>  <SCORE.INTRA.DIHEDRAL>
-10.3546

>  <SCORE.INTRA.DIHEDRAL.0>
14.7001

>  <SCORE.INTRA.POLAR>
0

>  <SCORE.INTRA.POLAR.0>
0

>  <SCORE.INTRA.REPUL>
0

>  <SCORE.INTRA.REPUL.0>
0

>  <SCORE.INTRA.SOLV>
-0.459756

>  <SCORE.INTRA.SOLV.lig_0>
-65.3082

>  <SCORE.INTRA.VDW>
1.08554

>  <SCORE.INTRA.VDW.0>
-4.21408

>  <SCORE.INTRA.norm>
-0.139407

>  <SCORE.RESTR>
0

>  <SCORE.RESTR.CAVITY>
0

>  <SCORE.RESTR.norm>
0

>  <SCORE.SYSTEM>
0

>  <SCORE.SYSTEM.CONST>
0

>  <SCORE.SYSTEM.DIHEDRAL>
0

>  <SCORE.SYSTEM.SOLV>
0

>  <SCORE.SYSTEM.norm>
0

>  <SCORE.heavy>
31

>  <SCORE.norm>
-0.49491

>  <RMSD>
8.094

$$$$
ligand
 OpenBabel11021811493D
libRbt.so/2013.1/901 2013/11/27
 31 33  0  0  0  0  0  0  0  0999 V2000
   -0.7908   10.4429   39.1153 C   0  0  2  0  0  0  0  0  0  0  0  0
   -1.6089   11.5697   38.8655 O   0  0  0  0  0  0  0  0  0  0  0  0
   -0.8031   15.7394   38.7083 C   0  0  2  0  0  0  0  0  0  0  0  0
   -0.4560   17.0512   39.1390 N   0  0  0  0  0  0  0  0  0  0  0  0
    1.6965   14.9473   36.7916 C   0  0  2  0  0  0  0  0  0  0  0  0
   -1.4417    9.1880   38.3875 C   0  0  2  0  0  0  0  0  0  0  0  0
   -1.5628    9.4714   36.9615 N   0  0  0  0  0  0  0  0  0  0  0  0
   -2.0689   15.2578   39.5483 C   0  0  0  0  0  0  0  0  0  0  0  0
    3.0789   15.5848   36.4259 C   0  0  2  0  0  0  0  0  0  0  0  0
    4.0708   15.0230   37.2589 O   0  0  0  0  0  0  0  0  0  0  0  0
   -2.8415    8.8476   39.0190 C   0  0  0  0  0  0  0  0  0  0  0  0
   -2.4647   13.8052   39.0574 C   0  0  2  0  0  0  0  0  0  0  0  0
   -3.6324   13.3498   39.8129 N   0  0  0  0  0  0  0  0  0  0  0  0
    2.9834   17.1394   36.6394 C   0  0  1  0  0  0  0  0  0  0  0  0
    4.2998   17.7748   36.3109 N   0  0  0  0  0  0  0  0  0  0  0  0
   -2.8314    9.0117   40.5967 C   0  0  0  0  0  0  0  0  0  0  0  0
   -1.2434   12.8286   39.3063 C   0  0  2  0  0  0  0  0  0  0  0  0
    1.8359   17.7352   35.6514 C   0  0  1  0  0  0  0  0  0  0  0  0
    2.1053   17.5047   34.2826 O   0  0  0  0  0  0  0  0  0  0  0  0
   -1.8106    9.6381   41.2308 C   0  0  1  0  0  0  0  0  0  0  0  0
   -0.6851   10.1868   40.5508 O   0  0  0  0  0  0  0  0  0  0  0  0
    0.0173   13.3297   38.4857 C   0  0  2  0  0  0  0  0  0  0  0  0
    1.1283   12.4430   38.7299 O   0  0  0  0  0  0  0  0  0  0  0  0
    0.4705   17.0673   35.9937 C   0  0  0  0  0  0  0  0  0  0  0  0
    0.6026   15.5554   35.9307 O   0  0  0  0  0  0  0  0  0  0  0  0
   -1.7668    9.8211   42.7291 C   0  0  0  0  0  0  0  0  0  0  0  0
   -1.8955   11.2381   42.9748 O   0  0  0  0  0  0  0  0  0  0  0  0
    0.4048   14.7787   38.9709 C   0  0  1  0  0  0  0  0  0  0  0  0
    1.5194   15.2032   38.2263 O   0  0  0  0  0  0  0  0  0  0  0  0
    1.6256   19.2511   35.7595 C   0  0  0  0  0  0  0  0  0  0  0  0
    5.2249   17.9859   37.4436 C   0  0  0  0  0  0  0  0  0  0  0  0
  1  2  1  1  0  0  0
  1  6  1  0  0  0  0
  1 21  1  0  0  0  0
  3  4  1  1  0  0  0
  3  8  1  0  0  0  0
  3 28  1  0  0  0  0
  5  9  1  0  0  0  0
  5 25  1  0  0  0  0
  5 29  1  1  0  0  0
  6  7  1  6  0  0  0
  6 11  1  0  0  0  0
  8 12  1  0  0  0  0
  9 10  1  1  0  0  0
  9 14  1  0  0  0  0
 11 16  1  0  0  0  0
 12 13  1  1  0  0  0
 12 17  1  0  0  0  0
 14 15  1  6  0  0  0
 14 18  1  0  0  0  0
 15 31  1  0  0  0  0
 16 20  1  0  0  0  0
 17  2  1  6  0  0  0
 17 22  1  0  0  0  0
 18 19  1  6  0  0  0
 18 24  1  0  0  0  0
 18 30  1  0  0  0  0
 20 21  1  0  0  0  0
 20 26  1  6  0  0  0
 22 23  1  1  0  0  0
 22 28  1  0  0  0  0
 24 25  1  0  0  0  0
 26 27  1  0  0  0  0
 28 29  1  6  0  0  0
M  END
>  <CHROM.1>
-175.85234050,-179.15096437,-93.97618553,-171.60054924,-112.74744083,-78.67253917
0.13260069,13.83744194,38.35332063,-2.20660148,0.58884550,-0.12494567

>  <Name>
ligand

>  <RI>
0

>  <Rbt.Current_Directory>
/home/itssahil/PROJECTS/Mol_Feturizer/New_Systems/rnas/4GPY

>  <Rbt.Executable>
rbdock ($Id: //depot/dev/client3/rdock/2013.1/src/exe/rbdock.cxx#4 $)

>  <Rbt.Library>
libRbt.so (2013.1, Build901 2013/11/27)

>  <Rbt.Parameter_File>
/export/apps/rDock/src/rDock_2013.1_src/data/scripts/dock_solv.prm

>  <Rbt.Receptor>
prm/pocket_docking_5.prm

>  <SCORE>
-15.3689

>  <SCORE.INTER>
-11.2021

>  <SCORE.INTER.CONST>
1

>  <SCORE.INTER.POLAR>
0

>  <SCORE.INTER.ROT>
6

>  <SCORE.INTER.SOLV>
16.0929

>  <SCORE.INTER.VDW>
-20.4324

>  <SCORE.INTER.norm>
-0.361358

>  <SCORE.INTRA>
-4.1668

>  <SCORE.INTRA.DIHEDRAL>
-10.2023

>  <SCORE.INTRA.DIHEDRAL.0>
14.7001

>  <SCORE.INTRA.POLAR>
0

>  <SCORE.INTRA.POLAR.0>
0

>  <SCORE.INTRA.REPUL>
0

>  <SCORE.INTRA.REPUL.0>
0

>  <SCORE.INTRA.SOLV>
-0.356133

>  <SCORE.INTRA.SOLV.lig_0>
-65.3082

>  <SCORE.INTRA.VDW>
1.11241

>  <SCORE.INTRA.VDW.0>
-4.21408

>  <SCORE.INTRA.norm>
-0.134413

>  <SCORE.RESTR>
0

>  <SCORE.RESTR.CAVITY>
0

>  <SCORE.RESTR.norm>
0

>  <SCORE.SYSTEM>
0

>  <SCORE.SYSTEM.CONST>
0

>  <SCORE.SYSTEM.DIHEDRAL>
0

>  <SCORE.SYSTEM.SOLV>
0

>  <SCORE.SYSTEM.norm>
0

>  <SCORE.heavy>
31

>  <SCORE.norm>
-0.495771

>  <RMSD>
8.095

$$$$
ligand
 OpenBabel11021811493D
libRbt.so/2013.1/901 2013/11/27
 31 33  0  0  0  0  0  0  0  0999 V2000
   -0.8206   10.4399   39.1495 C   0  0  2  0  0  0  0  0  0  0  0  0
   -1.6469   11.5646   38.9179 O   0  0  0  0  0  0  0  0  0  0  0  0
   -0.8299   15.7310   38.7339 C   0  0  2  0  0  0  0  0  0  0  0  0
   -0.4758   17.0439   39.1555 N   0  0  0  0  0  0  0  0  0  0  0  0
    1.6440   14.9393   36.7991 C   0  0  2  0  0  0  0  0  0  0  0  0
   -1.4781    9.1858   38.4264 C   0  0  2  0  0  0  0  0  0  0  0  0
   -1.6228    9.4752   37.0037 N   0  0  0  0  0  0  0  0  0  0  0  0
   -2.0910   15.2575   39.5855 C   0  0  0  0  0  0  0  0  0  0  0  0
    3.0366   15.5491   36.4248 C   0  0  2  0  0  0  0  0  0  0  0  0
    4.0241   14.9573   37.2421 O   0  0  0  0  0  0  0  0  0  0  0  0
   -2.8664    8.8370   39.0783 C   0  0  0  0  0  0  0  0  0  0  0  0
   -2.4946   13.8036   39.1048 C   0  0  2  0  0  0  0  0  0  0  0  0
   -3.6582   13.3555   39.8710 N   0  0  0  0  0  0  0  0  0  0  0  0
    2.9783   17.1033   36.6537 C   0  0  1  0  0  0  0  0  0  0  0  0
    4.3052   17.7121   36.3172 N   0  0  0  0  0  0  0  0  0  0  0  0
   -2.8320    8.9940   40.6563 C   0  0  0  0  0  0  0  0  0  0  0  0
   -1.2745   12.8247   39.3497 C   0  0  2  0  0  0  0  0  0  0  0  0
    1.8344   17.7341   35.6833 C   0  0  1  0  0  0  0  0  0  0  0  0
    2.0845   17.5105   34.3096 O   0  0  0  0  0  0  0  0  0  0  0  0
   -1.8037    9.6214   41.2771 C   0  0  1  0  0  0  0  0  0  0  0  0
   -0.6912   10.1776   40.5820 O   0  0  0  0  0  0  0  0  0  0  0  0
   -0.0183   13.3178   38.5176 C   0  0  2  0  0  0  0  0  0  0  0  0
    1.0918   12.4290   38.7581 O   0  0  0  0  0  0  0  0  0  0  0  0
    0.4579   17.0937   36.0337 C   0  0  0  0  0  0  0  0  0  0  0  0
    0.5552   15.5799   35.9553 O   0  0  0  0  0  0  0  0  0  0  0  0
   -1.7369    9.7978   42.7754 C   0  0  0  0  0  0  0  0  0  0  0  0
   -1.9018   11.2091   43.0316 O   0  0  0  0  0  0  0  0  0  0  0  0
    0.3771   14.7680   38.9926 C   0  0  1  0  0  0  0  0  0  0  0  0
    1.4875   15.1854   38.2378 O   0  0  0  0  0  0  0  0  0  0  0  0
    1.6595   19.2532   35.8075 C   0  0  0  0  0  0  0  0  0  0  0  0
    5.2168   17.9622   37.4530 C   0  0  0  0  0  0  0  0  0  0  0  0
  1  2  1  1  0  0  0
  1  6  1  0  0  0  0
  1 21  1  0  0  0  0
  3  4  1  1  0  0  0
  3  8  1  0  0  0  0
  3 28  1  0  0  0  0
  5  9  1  0  0  0  0
  5 25  1  0  0  0  0
  5 29  1  1  0  0  0
  6  7  1  6  0  0  0
  6 11  1  0  0  0  0
  8 12  1  0  0  0  0
  9 10  1  1  0  0  0
  9 14  1  0  0  0  0
 11 16  1  0  0  0  0
 12 13  1  1  0  0  0
 12 17  1  0  0  0  0
 14 15  1  6  0  0  0
 14 18  1  0  0  0  0
 15 31  1  0  0  0  0
 16 20  1  0  0  0  0
 17  2  1  6  0  0  0
 17 22  1  0  0  0  0
 18 19  1  6  0  0  0
 18 24  1  0  0  0  0
 18 30  1  0  0  0  0
 20 21  1  0  0  0  0
 20 26  1  6  0  0  0
 22 23  1  1  0  0  0
 22 28  1  0  0  0  0
 24 25  1  0  0  0  0
 26 27  1  0  0  0  0
 28 29  1  6  0  0  0
M  END
>  <CHROM.1>
-175.35103878,-178.52958115,-97.31650118,-172.57725180,-111.30194330,-77.71971563
0.11158212,13.82582744,38.38483220,-2.20140228,0.58093331,-0.13677196

>  <Name>
ligand

>  <RI>
0

>  <Rbt.Current_Directory>
/home/itssahil/PROJECTS/Mol_Feturizer/New_Systems/rnas/4GPY

>  <Rbt.Executable>
rbdock ($Id: //depot/dev/client3/rdock/2013.1/src/exe/rbdock.cxx#4 $)

>  <Rbt.Library>
libRbt.so (2013.1, Build901 2013/11/27)

>  <Rbt.Parameter_File>
/export/apps/rDock/src/rDock_2013.1_src/data/scripts/dock_solv.prm

>  <Rbt.Receptor>
prm/pocket_docking_3.prm

>  <SCORE>
-15.4305

>  <SCORE.INTER>
-11.1786

>  <SCORE.INTER.CONST>
1

>  <SCORE.INTER.POLAR>
0

>  <SCORE.INTER.ROT>
6

>  <SCORE.INTER.SOLV>
16.151

>  <SCORE.INTER.VDW>
-20.4361

>  <SCORE.INTER.norm>
-0.3606

>  <SCORE.INTRA>
-4.25184

>  <SCORE.INTRA.DIHEDRAL>
-10.264

>  <SCORE.INTRA.DIHEDRAL.0>
14.7001

>  <SCORE.INTRA.POLAR>
0

>  <SCORE.INTRA.POLAR.0>
0

>  <SCORE.INTRA.REPUL>
0

>  <SCORE.INTRA.REPUL.0>
0

>  <SCORE.INTRA.SOLV>
-0.405227

>  <SCORE.INTRA.SOLV.lig_0>
-65.3082

>  <SCORE.INTRA.VDW>
1.08276

>  <SCORE.INTRA.VDW.0>
-4.21408

>  <SCORE.INTRA.norm>
-0.137156

>  <SCORE.RESTR>
0

>  <SCORE.RESTR.CAVITY>
0

>  <SCORE.RESTR.norm>
0

>  <SCORE.SYSTEM>
0

>  <SCORE.SYSTEM.CONST>
0

>  <SCORE.SYSTEM.DIHEDRAL>
0

>  <SCORE.SYSTEM.SOLV>
0

>  <SCORE.SYSTEM.norm>
0

>  <SCORE.heavy>
31

>  <SCORE.norm>
-0.497757

>  <RMSD>
8.096

$$$$
ligand
 OpenBabel11021811493D
libRbt.so/2013.1/901 2013/11/27
 31 33  0  0  0  0  0  0  0  0999 V2000
   -0.8474   11.1186   41.1882 C   0  0  2  0  0  0  0  0  0  0  0  0
   -1.6259   12.0330   40.4404 O   0  0  0  0  0  0  0  0  0  0  0  0
   -1.0299   15.9735   38.9648 C   0  0  2  0  0  0  0  0  0  0  0  0
   -0.7747   17.3741   38.9577 N   0  0  0  0  0  0  0  0  0  0  0  0
    1.4936   14.9628   37.3918 C   0  0  2  0  0  0  0  0  0  0  0  0
   -1.3319    9.6474   40.8293 C   0  0  2  0  0  0  0  0  0  0  0  0
   -1.1953    9.4356   39.3923 N   0  0  0  0  0  0  0  0  0  0  0  0
   -2.3122   15.7053   39.8722 C   0  0  0  0  0  0  0  0  0  0  0  0
    2.9043   15.4571   36.9261 C   0  0  2  0  0  0  0  0  0  0  0  0
    3.8718   14.9934   37.8438 O   0  0  0  0  0  0  0  0  0  0  0  0
   -2.8173    9.4252   41.2967 C   0  0  0  0  0  0  0  0  0  0  0  0
   -2.6054   14.1491   39.8666 C   0  0  2  0  0  0  0  0  0  0  0  0
   -3.7868   13.8850   40.6889 N   0  0  0  0  0  0  0  0  0  0  0  0
    2.8901   17.0283   36.8739 C   0  0  1  0  0  0  0  0  0  0  0  0
    4.2350   17.5302   36.4451 N   0  0  0  0  0  0  0  0  0  0  0  0
   -3.0988   10.0993   42.7046 C   0  0  0  0  0  0  0  0  0  0  0  0
   -1.3503   13.3881   40.4605 C   0  0  2  0  0  0  0  0  0  0  0  0
    1.7677   17.5074   35.7974 C   0  0  1  0  0  0  0  0  0  0  0  0
    2.0154   17.0356   34.4877 O   0  0  0  0  0  0  0  0  0  0  0  0
   -2.2223   10.9771   43.2504 C   0  0  1  0  0  0  0  0  0  0  0  0
   -1.0014   11.3579   42.6223 O   0  0  0  0  0  0  0  0  0  0  0  0
   -0.0750   13.6806   39.5651 C   0  0  2  0  0  0  0  0  0  0  0  0
    1.0657   12.9956   40.1216 O   0  0  0  0  0  0  0  0  0  0  0  0
    0.3723   16.9783   36.2452 C   0  0  0  0  0  0  0  0  0  0  0  0
    0.4262   15.4727   36.4387 O   0  0  0  0  0  0  0  0  0  0  0  0
   -2.4565   11.6456   44.5840 C   0  0  0  0  0  0  0  0  0  0  0  0
   -2.4888   13.0670   44.3322 O   0  0  0  0  0  0  0  0  0  0  0  0
    0.2104   15.2310   39.5662 C   0  0  1  0  0  0  0  0  0  0  0  0
    1.3398   15.4659   38.7623 O   0  0  0  0  0  0  0  0  0  0  0  0
    1.6362   19.0286   35.6475 C   0  0  0  0  0  0  0  0  0  0  0  0
    5.1974   17.8269   37.5263 C   0  0  0  0  0  0  0  0  0  0  0  0
  1  2  1  6  0  0  0
  1  6  1  0  0  0  0
  1 21  1  0  0  0  0
  3  4  1  1  0  0  0
  3  8  1  0  0  0  0
  3 28  1  0  0  0  0
  5  9  1  0  0  0  0
  5 25  1  0  0  0  0
  5 29  1  1  0  0  0
  6  7  1  6  0  0  0
  6 11  1  0  0  0  0
  8 12  1  0  0  0  0
  9 10  1  1  0  0  0
  9 14  1  0  0  0  0
 11 16  1  0  0  0  0
 12 13  1  1  0  0  0
 12 17  1  0  0  0  0
 14 15  1  6  0  0  0
 14 18  1  0  0  0  0
 15 31  1  0  0  0  0
 16 20  1  0  0  0  0
 17  2  1  6  0  0  0
 17 22  1  0  0  0  0
 18 19  1  6  0  0  0
 18 24  1  0  0  0  0
 18 30  1  0  0  0  0
 20 21  1  0  0  0  0
 20 26  1  6  0  0  0
 22 23  1  1  0  0  0
 22 28  1  0  0  0  0
 24 25  1  0  0  0  0
 26 27  1  0  0  0  0
 28 29  1  6  0  0  0
M  END
>  <CHROM.1>
-174.35259387,-179.12724894,-91.47303580,-164.76306359,-119.63949142,-67.18194103
-0.02255899,14.21820054,39.32589839,-2.17213979,0.49908692,-0.45133012

>  <Name>
ligand

>  <RI>
0

>  <Rbt.Current_Directory>
/home/itssahil/PROJECTS/Mol_Feturizer/New_Systems/rnas/4GPY

>  <Rbt.Executable>
rbdock ($Id: //depot/dev/client3/rdock/2013.1/src/exe/rbdock.cxx#4 $)

>  <Rbt.Library>
libRbt.so (2013.1, Build901 2013/11/27)

>  <Rbt.Parameter_File>
/export/apps/rDock/src/rDock_2013.1_src/data/scripts/dock_solv.prm

>  <Rbt.Receptor>
prm/pocket_docking_4.prm

>  <SCORE>
-14.1582

>  <SCORE.INTER>
-10.1043

>  <SCORE.INTER.CONST>
1

>  <SCORE.INTER.POLAR>
0

>  <SCORE.INTER.ROT>
6

>  <SCORE.INTER.SOLV>
14.5969

>  <SCORE.INTER.VDW>
-19.2019

>  <SCORE.INTER.norm>
-0.325947

>  <SCORE.INTRA>
-4.05385

>  <SCORE.INTRA.DIHEDRAL>
-10.867

>  <SCORE.INTRA.DIHEDRAL.0>
14.7001

>  <SCORE.INTRA.POLAR>
0

>  <SCORE.INTRA.POLAR.0>
0

>  <SCORE.INTRA.REPUL>
0

>  <SCORE.INTRA.REPUL.0>
0

>  <SCORE.INTRA.SOLV>
0.785287

>  <SCORE.INTRA.SOLV.lig_0>
-65.3082

>  <SCORE.INTRA.VDW>
0.986989

>  <SCORE.INTRA.VDW.0>
-4.21408

>  <SCORE.INTRA.norm>
-0.130769

>  <SCORE.RESTR>
0

>  <SCORE.RESTR.CAVITY>
0

>  <SCORE.RESTR.norm>
0

>  <SCORE.SYSTEM>
0

>  <SCORE.SYSTEM.CONST>
0

>  <SCORE.SYSTEM.DIHEDRAL>
0

>  <SCORE.SYSTEM.SOLV>
0

>  <SCORE.SYSTEM.norm>
0

>  <SCORE.heavy>
31

>  <SCORE.norm>
-0.456716

>  <RMSD>
8.101

$$$$
ligand
 OpenBabel11021811493D
libRbt.so/2013.1/901 2013/11/27
 31 33  0  0  0  0  0  0  0  0999 V2000
   -3.6067   12.2419   41.3594 C   0  0  2  0  0  0  0  0  0  0  0  0
   -2.2757   11.8388   41.1000 O   0  0  0  0  0  0  0  0  0  0  0  0
    0.1256   10.0462   38.0867 C   0  0  2  0  0  0  0  0  0  0  0  0
    0.5378    9.5834   36.8050 N   0  0  0  0  0  0  0  0  0  0  0  0
    1.5539   12.6252   36.3648 C   0  0  2  0  0  0  0  0  0  0  0  0
   -3.7127   13.8044   41.0850 C   0  0  2  0  0  0  0  0  0  0  0  0
   -3.3168   14.0765   39.7074 N   0  0  0  0  0  0  0  0  0  0  0  0
   -1.2605    9.3470   38.4467 C   0  0  0  0  0  0  0  0  0  0  0  0
    2.9794   13.2541   36.5192 C   0  0  2  0  0  0  0  0  0  0  0  0
    3.8304   12.3034   37.1235 O   0  0  0  0  0  0  0  0  0  0  0  0
   -2.8184   14.6059   42.1009 C   0  0  0  0  0  0  0  0  0  0  0  0
   -1.7104    9.8495   39.8794 C   0  0  2  0  0  0  0  0  0  0  0  0
   -2.9789    9.2099   40.2308 N   0  0  0  0  0  0  0  0  0  0  0  0
    2.8613   14.5450   37.4088 C   0  0  1  0  0  0  0  0  0  0  0  0
    4.2158   15.1601   37.5862 N   0  0  0  0  0  0  0  0  0  0  0  0
   -2.8849   13.9868   43.5598 C   0  0  0  0  0  0  0  0  0  0  0  0
   -1.8891   11.4223   39.8392 C   0  0  2  0  0  0  0  0  0  0  0  0
    1.8801   15.6079   36.6634 C   0  0  1  0  0  0  0  0  0  0  0  0
    2.3526   16.0040   35.3910 O   0  0  0  0  0  0  0  0  0  0  0  0
   -3.4283   12.7649   43.7797 C   0  0  1  0  0  0  0  0  0  0  0  0
   -3.9755   11.9532   42.7444 O   0  0  0  0  0  0  0  0  0  0  0  0
   -0.5113   12.1070   39.4565 C   0  0  2  0  0  0  0  0  0  0  0  0
   -0.6872   13.5378   39.4079 O   0  0  0  0  0  0  0  0  0  0  0  0
    0.4749   14.9613   36.4767 C   0  0  0  0  0  0  0  0  0  0  0  0
    0.6065   13.6373   35.7438 O   0  0  0  0  0  0  0  0  0  0  0  0
   -3.5042   12.1375   45.1511 C   0  0  0  0  0  0  0  0  0  0  0  0
   -2.1775   11.6576   45.4584 O   0  0  0  0  0  0  0  0  0  0  0  0
   -0.0618   11.5997   38.0333 C   0  0  1  0  0  0  0  0  0  0  0  0
    1.1629   12.2148   37.7189 O   0  0  0  0  0  0  0  0  0  0  0  0
    1.6644   16.9208   37.4274 C   0  0  0  0  0  0  0  0  0  0  0  0
    5.0647   14.5776   38.6461 C   0  0  0  0  0  0  0  0  0  0  0  0
  1  2  1  1  0  0  0
  1  6  1  0  0  0  0
  1 21  1  0  0  0  0
  3  4  1  6  0  0  0
  3  8  1  0  0  0  0
  3 28  1  0  0  0  0
  5  9  1  0  0  0  0
  5 25  1  0  0  0  0
  5 29  1  1  0  0  0
  6  7  1  6  0  0  0
  6 11  1  0  0  0  0
  8 12  1  0  0  0  0
  9 10  1  1  0  0  0
  9 14  1  0  0  0  0
 11 16  1  0  0  0  0
 12 13  1  6  0  0  0
 12 17  1  0  0  0  0
 14 15  1  6  0  0  0
 14 18  1  0  0  0  0
 15 31  1  0  0  0  0
 16 20  1  0  0  0  0
 17  2  1  1  0  0  0
 17 22  1  0  0  0  0
 18 19  1  6  0  0  0
 18 24  1  0  0  0  0
 18 30  1  0  0  0  0
 20 21  1  0  0  0  0
 20 26  1  6  0  0  0
 22 23  1  6  0  0  0
 22 28  1  0  0  0  0
 24 25  1  0  0  0  0
 26 27  1  0  0  0  0
 28 29  1  1  0  0  0
M  END
>  <CHROM.1>
-89.77874778,179.94361455,-82.53401396,-106.08552854,-76.44063311,96.46316644
-0.34811143,12.84410323,39.34081314,-3.05660704,-0.83354050,-2.69721841

>  <Name>
ligand

>  <RI>
0

>  <Rbt.Current_Directory>
/home/itssahil/PROJECTS/Mol_Feturizer/New_Systems/rnas/4GPY

>  <Rbt.Executable>
rbdock ($Id: //depot/dev/client3/rdock/2013.1/src/exe/rbdock.cxx#4 $)

>  <Rbt.Library>
libRbt.so (2013.1, Build901 2013/11/27)

>  <Rbt.Parameter_File>
/export/apps/rDock/src/rDock_2013.1_src/data/scripts/dock_solv.prm

>  <Rbt.Receptor>
prm/pocket_docking_4.prm

>  <SCORE>
1.94393

>  <SCORE.INTER>
-0.911449

>  <SCORE.INTER.CONST>
1

>  <SCORE.INTER.POLAR>
0

>  <SCORE.INTER.ROT>
6

>  <SCORE.INTER.SOLV>
11.2049

>  <SCORE.INTER.VDW>
-11.9426

>  <SCORE.INTER.norm>
-0.0294016

>  <SCORE.INTRA>
2.85538

>  <SCORE.INTRA.DIHEDRAL>
3.57409

>  <SCORE.INTRA.DIHEDRAL.0>
14.7001

>  <SCORE.INTRA.POLAR>
0

>  <SCORE.INTRA.POLAR.0>
0

>  <SCORE.INTRA.REPUL>
0

>  <SCORE.INTRA.REPUL.0>
0

>  <SCORE.INTRA.SOLV>
1.08139

>  <SCORE.INTRA.SOLV.lig_0>
-65.3082

>  <SCORE.INTRA.VDW>
0.527638

>  <SCORE.INTRA.VDW.0>
-4.21408

>  <SCORE.INTRA.norm>
0.0921089

>  <SCORE.RESTR>
0

>  <SCORE.RESTR.CAVITY>
0

>  <SCORE.RESTR.norm>
0

>  <SCORE.SYSTEM>
0

>  <SCORE.SYSTEM.CONST>
0

>  <SCORE.SYSTEM.DIHEDRAL>
0

>  <SCORE.SYSTEM.SOLV>
0

>  <SCORE.SYSTEM.norm>
0

>  <SCORE.heavy>
31

>  <SCORE.norm>
0.0627073

>  <RMSD>
8.104

$$$$
ligand
 OpenBabel11021811493D
libRbt.so/2013.1/901 2013/11/27
 31 33  0  0  0  0  0  0  0  0999 V2000
   -0.7344   10.3688   39.1993 C   0  0  2  0  0  0  0  0  0  0  0  0
   -1.5724   11.4531   38.8480 O   0  0  0  0  0  0  0  0  0  0  0  0
   -0.8968   15.6382   38.5509 C   0  0  2  0  0  0  0  0  0  0  0  0
   -0.6221   16.9792   38.9421 N   0  0  0  0  0  0  0  0  0  0  0  0
    1.7114   14.9177   36.8159 C   0  0  2  0  0  0  0  0  0  0  0  0
   -1.2274    9.0843   38.4022 C   0  0  2  0  0  0  0  0  0  0  0  0
   -1.1886    9.3650   36.9710 N   0  0  0  0  0  0  0  0  0  0  0  0
   -2.1978   15.1485   39.3302 C   0  0  0  0  0  0  0  0  0  0  0  0
    3.1018   15.5709   36.5139 C   0  0  2  0  0  0  0  0  0  0  0  0
    4.0619   15.0158   37.3875 O   0  0  0  0  0  0  0  0  0  0  0  0
   -2.6744    8.6713   38.8602 C   0  0  0  0  0  0  0  0  0  0  0  0
   -2.5125   13.6626   38.8824 C   0  0  2  0  0  0  0  0  0  0  0  0
   -3.7111   13.1988   39.5825 N   0  0  0  0  0  0  0  0  0  0  0  0
    2.9807   17.1235   36.7290 C   0  0  1  0  0  0  0  0  0  0  0  0
    4.3035   17.7739   36.4611 N   0  0  0  0  0  0  0  0  0  0  0  0
   -2.8644    8.8314   40.4268 C   0  0  0  0  0  0  0  0  0  0  0  0
   -1.2783   12.7424   39.2528 C   0  0  2  0  0  0  0  0  0  0  0  0
    1.8716   17.7117   35.6937 C   0  0  1  0  0  0  0  0  0  0  0  0
    2.2033   17.4899   34.3372 O   0  0  0  0  0  0  0  0  0  0  0  0
   -1.9613    9.5072   41.1780 C   0  0  1  0  0  0  0  0  0  0  0  0
   -0.7910   10.1144   40.6379 O   0  0  0  0  0  0  0  0  0  0  0  0
    0.0158   13.2523   38.4918 C   0  0  2  0  0  0  0  0  0  0  0  0
    1.1374   12.4176   38.8464 O   0  0  0  0  0  0  0  0  0  0  0  0
    0.4995   17.0283   35.9730 C   0  0  0  0  0  0  0  0  0  0  0  0
    0.6500   15.5181   35.9100 O   0  0  0  0  0  0  0  0  0  0  0  0
   -2.1092    9.6881   42.6699 C   0  0  0  0  0  0  0  0  0  0  0  0
   -2.4582   11.0727   42.8842 O   0  0  0  0  0  0  0  0  0  0  0  0
    0.3228   14.7341   38.9335 C   0  0  1  0  0  0  0  0  0  0  0  0
    1.4687   15.1655   38.2423 O   0  0  0  0  0  0  0  0  0  0  0  0
    1.6409   19.2249   35.7982 C   0  0  0  0  0  0  0  0  0  0  0  0
    5.2167   17.8985   37.6162 C   0  0  0  0  0  0  0  0  0  0  0  0
  1  2  1  1  0  0  0
  1  6  1  0  0  0  0
  1 21  1  0  0  0  0
  3  4  1  1  0  0  0
  3  8  1  0  0  0  0
  3 28  1  0  0  0  0
  5  9  1  0  0  0  0
  5 25  1  0  0  0  0
  5 29  1  1  0  0  0
  6  7  1  6  0  0  0
  6 11  1  0  0  0  0
  8 12  1  0  0  0  0
  9 10  1  1  0  0  0
  9 14  1  0  0  0  0
 11 16  1  0  0  0  0
 12 13  1  1  0  0  0
 12 17  1  0  0  0  0
 14 15  1  6  0  0  0
 14 18  1  0  0  0  0
 15 31  1  0  0  0  0
 16 20  1  0  0  0  0
 17  2  1  6  0  0  0
 17 22  1  0  0  0  0
 18 19  1  6  0  0  0
 18 24  1  0  0  0  0
 18 30  1  0  0  0  0
 20 21  1  0  0  0  0
 20 26  1  6  0  0  0
 22 23  1  1  0  0  0
 22 28  1  0  0  0  0
 24 25  1  0  0  0  0
 26 27  1  0  0  0  0
 28 29  1  6  0  0  0
M  END
>  <CHROM.1>
-171.53903510,-179.59513791,-89.58518680,-171.68321322,-107.69483109,-75.10554366
0.10555538,13.76038222,38.33812859,-2.17417348,0.49982610,-0.17935072

>  <Name>
ligand

>  <RI>
0

>  <Rbt.Current_Directory>
/home/itssahil/PROJECTS/Mol_Feturizer/New_Systems/rnas/4GPY

>  <Rbt.Executable>
rbdock ($Id: //depot/dev/client3/rdock/2013.1/src/exe/rbdock.cxx#4 $)

>  <Rbt.Library>
libRbt.so (2013.1, Build901 2013/11/27)

>  <Rbt.Parameter_File>
/export/apps/rDock/src/rDock_2013.1_src/data/scripts/dock_solv.prm

>  <Rbt.Receptor>
prm/pocket_docking_3.prm

>  <SCORE>
-15.0929

>  <SCORE.INTER>
-11.0165

>  <SCORE.INTER.CONST>
1

>  <SCORE.INTER.POLAR>
0

>  <SCORE.INTER.ROT>
6

>  <SCORE.INTER.SOLV>
16.7945

>  <SCORE.INTER.VDW>
-20.5425

>  <SCORE.INTER.norm>
-0.35537

>  <SCORE.INTRA>
-4.0764

>  <SCORE.INTRA.DIHEDRAL>
-10.4796

>  <SCORE.INTRA.DIHEDRAL.0>
14.7001

>  <SCORE.INTRA.POLAR>
0

>  <SCORE.INTRA.POLAR.0>
0

>  <SCORE.INTRA.REPUL>
0

>  <SCORE.INTRA.REPUL.0>
0

>  <SCORE.INTRA.SOLV>
-0.0905944

>  <SCORE.INTRA.SOLV.lig_0>
-65.3082

>  <SCORE.INTRA.VDW>
1.2087

>  <SCORE.INTRA.VDW.0>
-4.21408

>  <SCORE.INTRA.norm>
-0.131497

>  <SCORE.RESTR>
0

>  <SCORE.RESTR.CAVITY>
0

>  <SCORE.RESTR.norm>
0

>  <SCORE.SYSTEM>
0

>  <SCORE.SYSTEM.CONST>
0

>  <SCORE.SYSTEM.DIHEDRAL>
0

>  <SCORE.SYSTEM.SOLV>
0

>  <SCORE.SYSTEM.norm>
0

>  <SCORE.heavy>
31

>  <SCORE.norm>
-0.486867

>  <RMSD>
8.107

$$$$
ligand
 OpenBabel11021811493D
libRbt.so/2013.1/901 2013/11/27
 31 33  0  0  0  0  0  0  0  0999 V2000
   -0.6972   10.4920   40.5581 C   0  0  2  0  0  0  0  0  0  0  0  0
    0.0629   11.3542   39.7333 O   0  0  0  0  0  0  0  0  0  0  0  0
   -0.4273   15.4492   38.7081 C   0  0  2  0  0  0  0  0  0  0  0  0
   -0.5098   16.8631   38.8530 N   0  0  0  0  0  0  0  0  0  0  0  0
    2.0959   15.2530   36.8524 C   0  0  2  0  0  0  0  0  0  0  0  0
    0.1696    9.1902   40.8443 C   0  0  2  0  0  0  0  0  0  0  0  0
    1.4271    9.5810   41.4725 N   0  0  0  0  0  0  0  0  0  0  0  0
   -1.5174   14.7861   39.6628 C   0  0  0  0  0  0  0  0  0  0  0  0
    3.3535   16.0529   36.3730 C   0  0  2  0  0  0  0  0  0  0  0  0
    4.4586   15.6770   37.1672 O   0  0  0  0  0  0  0  0  0  0  0  0
    0.4246    8.3922   39.5131 C   0  0  0  0  0  0  0  0  0  0  0  0
   -1.4364   13.2142   39.4891 C   0  0  2  0  0  0  0  0  0  0  0  0
   -2.4380   12.5881   40.3531 N   0  0  0  0  0  0  0  0  0  0  0  0
    3.0541   17.5890   36.5217 C   0  0  1  0  0  0  0  0  0  0  0  0
    4.2488   18.3798   36.0836 N   0  0  0  0  0  0  0  0  0  0  0  0
   -0.8580    8.3781   38.5800 C   0  0  0  0  0  0  0  0  0  0  0  0
    0.0134   12.7265   39.8983 C   0  0  2  0  0  0  0  0  0  0  0  0
    1.7818   17.9691   35.5811 C   0  0  1  0  0  0  0  0  0  0  0  0
    2.0045   17.7049   34.2100 O   0  0  0  0  0  0  0  0  0  0  0  0
   -1.9090    9.1996   38.8191 C   0  0  1  0  0  0  0  0  0  0  0  0
   -1.9515   10.1216   39.9045 O   0  0  0  0  0  0  0  0  0  0  0  0
    1.0921   13.4102   38.9588 C   0  0  2  0  0  0  0  0  0  0  0  0
    2.4099   12.9717   39.3481 O   0  0  0  0  0  0  0  0  0  0  0  0
    0.5440   17.1402   36.0375 C   0  0  0  0  0  0  0  0  0  0  0  0
    0.8819   15.6593   36.0347 O   0  0  0  0  0  0  0  0  0  0  0  0
   -3.1445    9.2220   37.9511 C   0  0  0  0  0  0  0  0  0  0  0  0
   -4.1603    8.4814   38.6614 O   0  0  0  0  0  0  0  0  0  0  0  0
    1.0045   14.9750   39.1279 C   0  0  1  0  0  0  0  0  0  0  0  0
    1.9646   15.5584   38.2823 O   0  0  0  0  0  0  0  0  0  0  0  0
    1.3685   19.4457   35.6336 C   0  0  0  0  0  0  0  0  0  0  0  0
    5.2603   18.6660   37.1221 C   0  0  0  0  0  0  0  0  0  0  0  0
  1  2  1  6  0  0  0
  1  6  1  0  0  0  0
  1 21  1  0  0  0  0
  3  4  1  1  0  0  0
  3  8  1  0  0  0  0
  3 28  1  0  0  0  0
  5  9  1  0  0  0  0
  5 25  1  0  0  0  0
  5 29  1  1  0  0  0
  6  7  1  6  0  0  0
  6 11  1  0  0  0  0
  8 12  1  0  0  0  0
  9 10  1  1  0  0  0
  9 14  1  0  0  0  0
 11 16  1  0  0  0  0
 12 13  1  1  0  0  0
 12 17  1  0  0  0  0
 14 15  1  6  0  0  0
 14 18  1  0  0  0  0
 15 31  1  0  0  0  0
 16 20  1  0  0  0  0
 17  2  1  6  0  0  0
 17 22  1  0  0  0  0
 18 19  1  6  0  0  0
 18 24  1  0  0  0  0
 18 30  1  0  0  0  0
 20 21  1  0  0  0  0
 20 26  1  6  0  0  0
 22 23  1  1  0  0  0
 22 28  1  0  0  0  0
 24 25  1  0  0  0  0
 26 27  1  0  0  0  0
 28 29  1  6  0  0  0
M  END
>  <CHROM.1>
-142.97212785,-175.83864689,-88.41190789,-67.47673722,101.95483872,-66.92125940
0.61065954,13.75997563,38.24786147,-2.02176246,-0.14388426,-0.46431736

>  <Name>
ligand

>  <RI>
0

>  <Rbt.Current_Directory>
/home/itssahil/PROJECTS/Mol_Feturizer/New_Systems/rnas/4GPY

>  <Rbt.Executable>
rbdock ($Id: //depot/dev/client3/rdock/2013.1/src/exe/rbdock.cxx#4 $)

>  <Rbt.Library>
libRbt.so (2013.1, Build901 2013/11/27)

>  <Rbt.Parameter_File>
/export/apps/rDock/src/rDock_2013.1_src/data/scripts/dock_solv.prm

>  <Rbt.Receptor>
prm/pocket_docking_4.prm

>  <SCORE>
-9.77293

>  <SCORE.INTER>
-9.61699

>  <SCORE.INTER.CONST>
1

>  <SCORE.INTER.POLAR>
0

>  <SCORE.INTER.ROT>
6

>  <SCORE.INTER.SOLV>
13.5389

>  <SCORE.INTER.VDW>
-18.5243

>  <SCORE.INTER.norm>
-0.310226

>  <SCORE.INTRA>
-0.155936

>  <SCORE.INTRA.DIHEDRAL>
-6.57868

>  <SCORE.INTRA.DIHEDRAL.0>
14.7001

>  <SCORE.INTRA.POLAR>
0

>  <SCORE.INTRA.POLAR.0>
0

>  <SCORE.INTRA.REPUL>
0

>  <SCORE.INTRA.REPUL.0>
0

>  <SCORE.INTRA.SOLV>
2.40885

>  <SCORE.INTRA.SOLV.lig_0>
-65.3082

>  <SCORE.INTRA.VDW>
1.92898

>  <SCORE.INTRA.VDW.0>
-4.21408

>  <SCORE.INTRA.norm>
-0.00503019

>  <SCORE.RESTR>
0

>  <SCORE.RESTR.CAVITY>
0

>  <SCORE.RESTR.norm>
0

>  <SCORE.SYSTEM>
0

>  <SCORE.SYSTEM.CONST>
0

>  <SCORE.SYSTEM.DIHEDRAL>
0

>  <SCORE.SYSTEM.SOLV>
0

>  <SCORE.SYSTEM.norm>
0

>  <SCORE.heavy>
31

>  <SCORE.norm>
-0.315256

>  <RMSD>
8.125

$$$$
ligand
 OpenBabel11021811493D
libRbt.so/2013.1/901 2013/11/27
 31 33  0  0  0  0  0  0  0  0999 V2000
   -1.0155   10.3713   38.3878 C   0  0  2  0  0  0  0  0  0  0  0  0
   -1.7352   11.5886   38.3483 O   0  0  0  0  0  0  0  0  0  0  0  0
   -0.6611   15.6607   38.9175 C   0  0  2  0  0  0  0  0  0  0  0  0
   -0.2032   16.8453   39.5609 N   0  0  0  0  0  0  0  0  0  0  0  0
    1.7924   14.8792   36.7512 C   0  0  2  0  0  0  0  0  0  0  0  0
   -1.9114    9.2450   37.7118 C   0  0  2  0  0  0  0  0  0  0  0  0
   -2.2347    9.6458   36.3467 N   0  0  0  0  0  0  0  0  0  0  0  0
   -1.9076   15.0991   39.7363 C   0  0  0  0  0  0  0  0  0  0  0  0
    3.1491   15.5837   36.4134 C   0  0  2  0  0  0  0  0  0  0  0  0
    4.1562   15.0490   37.2459 O   0  0  0  0  0  0  0  0  0  0  0  0
   -3.2163    8.9969   38.5542 C   0  0  0  0  0  0  0  0  0  0  0  0
   -2.4268   13.7907   39.0109 C   0  0  2  0  0  0  0  0  0  0  0  0
   -3.5786   13.2654   39.7452 N   0  0  0  0  0  0  0  0  0  0  0  0
    2.9834   17.1280   36.6565 C   0  0  1  0  0  0  0  0  0  0  0  0
    4.2739   17.8268   36.3550 N   0  0  0  0  0  0  0  0  0  0  0  0
   -2.9277    9.0396   40.1133 C   0  0  0  0  0  0  0  0  0  0  0  0
   -1.2620   12.7184   38.9904 C   0  0  2  0  0  0  0  0  0  0  0  0
    1.8209   17.6930   35.6679 C   0  0  1  0  0  0  0  0  0  0  0  0
    2.1140   17.5022   34.2978 O   0  0  0  0  0  0  0  0  0  0  0  0
   -1.7537    9.5129   40.5972 C   0  0  1  0  0  0  0  0  0  0  0  0
   -0.7028    9.9982   39.7664 O   0  0  0  0  0  0  0  0  0  0  0  0
   -0.0181   13.2958   38.1948 C   0  0  2  0  0  0  0  0  0  0  0  0
    1.0427   12.3185   38.1939 O   0  0  0  0  0  0  0  0  0  0  0  0
    0.4827   16.9593   35.9819 C   0  0  0  0  0  0  0  0  0  0  0  0
    0.6816   15.4562   35.8905 O   0  0  0  0  0  0  0  0  0  0  0  0
   -1.4431    9.5770   42.0736 C   0  0  0  0  0  0  0  0  0  0  0  0
   -2.7082    9.7194   42.7548 O   0  0  0  0  0  0  0  0  0  0  0  0
    0.4923   14.6021   38.9144 C   0  0  1  0  0  0  0  0  0  0  0  0
    1.5897   15.0981   38.1886 O   0  0  0  0  0  0  0  0  0  0  0  0
    1.5432   19.1958   35.8035 C   0  0  0  0  0  0  0  0  0  0  0  0
    5.1894   18.0306   37.4969 C   0  0  0  0  0  0  0  0  0  0  0  0
  1  2  1  1  0  0  0
  1  6  1  0  0  0  0
  1 21  1  0  0  0  0
  3  4  1  1  0  0  0
  3  8  1  0  0  0  0
  3 28  1  0  0  0  0
  5  9  1  0  0  0  0
  5 25  1  0  0  0  0
  5 29  1  1  0  0  0
  6  7  1  6  0  0  0
  6 11  1  0  0  0  0
  8 12  1  0  0  0  0
  9 10  1  1  0  0  0
  9 14  1  0  0  0  0
 11 16  1  0  0  0  0
 12 13  1  1  0  0  0
 12 17  1  0  0  0  0
 14 15  1  6  0  0  0
 14 18  1  0  0  0  0
 15 31  1  0  0  0  0
 16 20  1  0  0  0  0
 17  2  1  6  0  0  0
 17 22  1  0  0  0  0
 18 19  1  6  0  0  0
 18 24  1  0  0  0  0
 18 30  1  0  0  0  0
 20 21  1  0  0  0  0
 20 26  1  1  0  0  0
 22 23  1  1  0  0  0
 22 28  1  0  0  0  0
 24 25  1  0  0  0  0
 26 27  1  0  0  0  0
 28 29  1  6  0  0  0
M  END
>  <CHROM.1>
173.18117660,-178.66870383,-92.77359619,-168.21893079,-28.04953075,-91.11985648
0.07978807,13.73186970,38.15072809,-2.41747335,0.80245759,0.23455631

>  <Name>
ligand

>  <RI>
0

>  <Rbt.Current_Directory>
/home/itssahil/PROJECTS/Mol_Feturizer/New_Systems/rnas/4GPY

>  <Rbt.Executable>
rbdock ($Id: //depot/dev/client3/rdock/2013.1/src/exe/rbdock.cxx#4 $)

>  <Rbt.Library>
libRbt.so (2013.1, Build901 2013/11/27)

>  <Rbt.Parameter_File>
/export/apps/rDock/src/rDock_2013.1_src/data/scripts/dock_solv.prm

>  <Rbt.Receptor>
prm/pocket_docking_4.prm

>  <SCORE>
-13.0393

>  <SCORE.INTER>
-11.5295

>  <SCORE.INTER.CONST>
1

>  <SCORE.INTER.POLAR>
0

>  <SCORE.INTER.ROT>
6

>  <SCORE.INTER.SOLV>
16.9226

>  <SCORE.INTER.VDW>
-20.9272

>  <SCORE.INTER.norm>
-0.371921

>  <SCORE.INTRA>
-1.50978

>  <SCORE.INTRA.DIHEDRAL>
-6.76031

>  <SCORE.INTRA.DIHEDRAL.0>
14.7001

>  <SCORE.INTRA.POLAR>
0

>  <SCORE.INTRA.POLAR.0>
0

>  <SCORE.INTRA.REPUL>
0

>  <SCORE.INTRA.REPUL.0>
0

>  <SCORE.INTRA.SOLV>
-1.13554

>  <SCORE.INTRA.SOLV.lig_0>
-65.3082

>  <SCORE.INTRA.VDW>
2.43815

>  <SCORE.INTRA.VDW.0>
-4.21408

>  <SCORE.INTRA.norm>
-0.0487025

>  <SCORE.RESTR>
0

>  <SCORE.RESTR.CAVITY>
0

>  <SCORE.RESTR.norm>
0

>  <SCORE.SYSTEM>
0

>  <SCORE.SYSTEM.CONST>
0

>  <SCORE.SYSTEM.DIHEDRAL>
0

>  <SCORE.SYSTEM.SOLV>
0

>  <SCORE.SYSTEM.norm>
0

>  <SCORE.heavy>
31

>  <SCORE.norm>
-0.420623

>  <RMSD>
8.126

$$$$
ligand
 OpenBabel11021811493D
libRbt.so/2013.1/901 2013/11/27
 31 33  0  0  0  0  0  0  0  0999 V2000
   -1.5936   12.6841   44.2371 C   0  0  2  0  0  0  0  0  0  0  0  0
   -1.6752   11.3875   43.6771 O   0  0  0  0  0  0  0  0  0  0  0  0
   -1.1611    9.8560   39.7464 C   0  0  2  0  0  0  0  0  0  0  0  0
   -1.3873    9.6313   38.3589 N   0  0  0  0  0  0  0  0  0  0  0  0
    0.4481   11.6616   37.8189 C   0  0  2  0  0  0  0  0  0  0  0  0
   -1.3998   12.5330   45.8080 C   0  0  2  0  0  0  0  0  0  0  0  0
   -0.1984   11.7474   46.0687 N   0  0  0  0  0  0  0  0  0  0  0  0
   -2.4792    9.4405   40.5398 C   0  0  0  0  0  0  0  0  0  0  0  0
    1.9366   12.0506   37.5288 C   0  0  2  0  0  0  0  0  0  0  0  0
    2.7808   11.1852   38.2579 O   0  0  0  0  0  0  0  0  0  0  0  0
   -2.6664   11.8656   46.4595 C   0  0  0  0  0  0  0  0  0  0  0  0
   -2.2213    9.6752   42.0845 C   0  0  2  0  0  0  0  0  0  0  0  0
   -3.4200    9.2899   42.8305 N   0  0  0  0  0  0  0  0  0  0  0  0
    2.1557   13.5450   37.9651 C   0  0  1  0  0  0  0  0  0  0  0  0
    3.5785   13.9401   37.7125 N   0  0  0  0  0  0  0  0  0  0  0  0
   -4.0122   12.3982   45.8106 C   0  0  0  0  0  0  0  0  0  0  0  0
   -1.9024   11.2074   42.3248 C   0  0  2  0  0  0  0  0  0  0  0  0
    1.1683   14.4973   37.0897 C   0  0  1  0  0  0  0  0  0  0  0  0
    1.4062   14.4161   35.6982 O   0  0  0  0  0  0  0  0  0  0  0  0
   -4.0012   13.1160   44.6611 C   0  0  1  0  0  0  0  0  0  0  0  0
   -2.8083   13.4477   43.9562 O   0  0  0  0  0  0  0  0  0  0  0  0
   -0.6039   11.6167   41.5123 C   0  0  2  0  0  0  0  0  0  0  0  0
   -0.3297   13.0166   41.7254 O   0  0  0  0  0  0  0  0  0  0  0  0
   -0.3093   14.0786   37.3520 C   0  0  0  0  0  0  0  0  0  0  0  0
   -0.4862   12.5966   37.0703 O   0  0  0  0  0  0  0  0  0  0  0  0
   -5.2600   13.6346   44.0078 C   0  0  0  0  0  0  0  0  0  0  0  0
   -5.3849   12.9422   42.7470 O   0  0  0  0  0  0  0  0  0  0  0  0
   -0.8604   11.3753   39.9758 C   0  0  1  0  0  0  0  0  0  0  0  0
    0.3047   11.7391   39.2778 O   0  0  0  0  0  0  0  0  0  0  0  0
    1.2688   15.9927   37.4177 C   0  0  0  0  0  0  0  0  0  0  0  0
    4.5043   13.8180   38.8577 C   0  0  0  0  0  0  0  0  0  0  0  0
  1  2  1  6  0  0  0
  1  6  1  0  0  0  0
  1 21  1  0  0  0  0
  3  4  1  6  0  0  0
  3  8  1  0  0  0  0
  3 28  1  0  0  0  0
  5  9  1  0  0  0  0
  5 25  1  0  0  0  0
  5 29  1  1  0  0  0
  6  7  1  6  0  0  0
  6 11  1  0  0  0  0
  8 12  1  0  0  0  0
  9 10  1  1  0  0  0
  9 14  1  0  0  0  0
 11 16  1  0  0  0  0
 12 13  1  1  0  0  0
 12 17  1  0  0  0  0
 14 15  1  6  0  0  0
 14 18  1  0  0  0  0
 15 31  1  0  0  0  0
 16 20  1  0  0  0  0
 17  2  1  1  0  0  0
 17 22  1  0  0  0  0
 18 19  1  6  0  0  0
 18 24  1  0  0  0  0
 18 30  1  0  0  0  0
 20 21  1  0  0  0  0
 20 26  1  6  0  0  0
 22 23  1  6  0  0  0
 22 28  1  0  0  0  0
 24 25  1  0  0  0  0
 26 27  1  0  0  0  0
 28 29  1  6  0  0  0
M  END
>  <CHROM.1>
177.23648702,-175.40177892,-95.09868158,-168.91166472,-114.29054285,61.88651295
-0.78424734,12.29708981,40.89624502,-2.44730837,-0.75743658,-2.08498632

>  <Name>
ligand

>  <RI>
0

>  <Rbt.Current_Directory>
/home/itssahil/PROJECTS/Mol_Feturizer/New_Systems/rnas/4GPY

>  <Rbt.Executable>
rbdock ($Id: //depot/dev/client3/rdock/2013.1/src/exe/rbdock.cxx#4 $)

>  <Rbt.Library>
libRbt.so (2013.1, Build901 2013/11/27)

>  <Rbt.Parameter_File>
/export/apps/rDock/src/rDock_2013.1_src/data/scripts/dock_solv.prm

>  <Rbt.Receptor>
prm/pocket_docking_7.prm

>  <SCORE>
-7.87897

>  <SCORE.INTER>
-2.87483

>  <SCORE.INTER.CONST>
1

>  <SCORE.INTER.POLAR>
0

>  <SCORE.INTER.ROT>
6

>  <SCORE.INTER.SOLV>
15.3187

>  <SCORE.INTER.VDW>
-14.6228

>  <SCORE.INTER.norm>
-0.0927366

>  <SCORE.INTRA>
-5.00414

>  <SCORE.INTRA.DIHEDRAL>
-11.4604

>  <SCORE.INTRA.DIHEDRAL.0>
14.7001

>  <SCORE.INTRA.POLAR>
0

>  <SCORE.INTRA.POLAR.0>
0

>  <SCORE.INTRA.REPUL>
0

>  <SCORE.INTRA.REPUL.0>
0

>  <SCORE.INTRA.SOLV>
-0.838186

>  <SCORE.INTRA.SOLV.lig_0>
-65.3082

>  <SCORE.INTRA.VDW>
1.14516

>  <SCORE.INTRA.VDW.0>
-4.21408

>  <SCORE.INTRA.norm>
-0.161424

>  <SCORE.RESTR>
0

>  <SCORE.RESTR.CAVITY>
0

>  <SCORE.RESTR.norm>
0

>  <SCORE.SYSTEM>
0

>  <SCORE.SYSTEM.CONST>
0

>  <SCORE.SYSTEM.DIHEDRAL>
0

>  <SCORE.SYSTEM.SOLV>
0

>  <SCORE.SYSTEM.norm>
0

>  <SCORE.heavy>
31

>  <SCORE.norm>
-0.25416

>  <RMSD>
8.146

$$$$
ligand
 OpenBabel11021811493D
libRbt.so/2013.1/901 2013/11/27
 31 33  0  0  0  0  0  0  0  0999 V2000
   -1.1383   10.6930   41.6065 C   0  0  2  0  0  0  0  0  0  0  0  0
   -1.4216    9.8501   40.5062 O   0  0  0  0  0  0  0  0  0  0  0  0
   -0.3429   10.1307   36.4053 C   0  0  2  0  0  0  0  0  0  0  0  0
   -0.3156   10.5915   35.0585 N   0  0  0  0  0  0  0  0  0  0  0  0
    1.8113   12.4009   35.8318 C   0  0  2  0  0  0  0  0  0  0  0  0
   -1.2728    9.8321   42.9365 C   0  0  2  0  0  0  0  0  0  0  0  0
   -0.3586    8.6972   42.8666 N   0  0  0  0  0  0  0  0  0  0  0  0
   -1.8364    9.6970   36.7533 C   0  0  0  0  0  0  0  0  0  0  0  0
    3.2827   12.8732   36.0834 C   0  0  2  0  0  0  0  0  0  0  0  0
    4.0763   11.7435   36.3787 O   0  0  0  0  0  0  0  0  0  0  0  0
   -2.7575    9.3531   43.1371 C   0  0  0  0  0  0  0  0  0  0  0  0
   -1.8630    9.1692   38.2461 C   0  0  2  0  0  0  0  0  0  0  0  0
   -3.2270    8.7575   38.5805 N   0  0  0  0  0  0  0  0  0  0  0  0
    3.2825   13.8868   37.2851 C   0  0  1  0  0  0  0  0  0  0  0  0
    4.6827   14.3443   37.5583 N   0  0  0  0  0  0  0  0  0  0  0  0
   -3.7991   10.4810   42.7388 C   0  0  0  0  0  0  0  0  0  0  0  0
   -1.3964   10.3345   39.2111 C   0  0  2  0  0  0  0  0  0  0  0  0
    2.3639   15.1702   36.8889 C   0  0  1  0  0  0  0  0  0  0  0  0
    2.8319   15.8583   35.7458 O   0  0  0  0  0  0  0  0  0  0  0  0
   -3.4113   11.5848   42.0549 C   0  0  1  0  0  0  0  0  0  0  0  0
   -2.0666   11.8217   41.6477 O   0  0  0  0  0  0  0  0  0  0  0  0
    0.0810   10.7753   38.8412 C   0  0  2  0  0  0  0  0  0  0  0  0
    0.4919   11.8465   39.7153 O   0  0  0  0  0  0  0  0  0  0  0  0
    0.9106   14.6881   36.6007 C   0  0  0  0  0  0  0  0  0  0  0  0
    0.9257   13.6003   35.5407 O   0  0  0  0  0  0  0  0  0  0  0  0
   -4.3724   12.6772   41.6508 C   0  0  0  0  0  0  0  0  0  0  0  0
   -3.9560   13.8709   42.3483 O   0  0  0  0  0  0  0  0  0  0  0  0
    0.1064   11.2934   37.3526 C   0  0  1  0  0  0  0  0  0  0  0  0
    1.4254   11.6722   37.0463 O   0  0  0  0  0  0  0  0  0  0  0  0
    2.2648   16.2446   37.9797 C   0  0  0  0  0  0  0  0  0  0  0  0
    5.3888   13.6643   38.6639 C   0  0  0  0  0  0  0  0  0  0  0  0
  1  2  1  6  0  0  0
  1  6  1  0  0  0  0
  1 21  1  0  0  0  0
  3  4  1  6  0  0  0
  3  8  1  0  0  0  0
  3 28  1  0  0  0  0
  5  9  1  0  0  0  0
  5 25  1  0  0  0  0
  5 29  1  1  0  0  0
  6  7  1  6  0  0  0
  6 11  1  0  0  0  0
  8 12  1  0  0  0  0
  9 10  1  1  0  0  0
  9 14  1  0  0  0  0
 11 16  1  0  0  0  0
 12 13  1  1  0  0  0
 12 17  1  0  0  0  0
 14 15  1  6  0  0  0
 14 18  1  0  0  0  0
 15 31  1  0  0  0  0
 16 20  1  0  0  0  0
 17  2  1  1  0  0  0
 17 22  1  0  0  0  0
 18 19  1  6  0  0  0
 18 24  1  0  0  0  0
 18 30  1  0  0  0  0
 20 21  1  0  0  0  0
 20 26  1  6  0  0  0
 22 23  1  1  0  0  0
 22 28  1  0  0  0  0
 24 25  1  0  0  0  0
 26 27  1  0  0  0  0
 28 29  1  6  0  0  0
M  END
>  <CHROM.1>
179.25447196,167.53326198,-98.60756176,-175.77370048,116.34830473,71.62581401
0.03146565,11.89877379,38.81689830,-2.91369952,-0.80072654,-2.25376167

>  <Name>
ligand

>  <RI>
0

>  <Rbt.Current_Directory>
/home/itssahil/PROJECTS/Mol_Feturizer/New_Systems/rnas/4GPY

>  <Rbt.Executable>
rbdock ($Id: //depot/dev/client3/rdock/2013.1/src/exe/rbdock.cxx#4 $)

>  <Rbt.Library>
libRbt.so (2013.1, Build901 2013/11/27)

>  <Rbt.Parameter_File>
/export/apps/rDock/src/rDock_2013.1_src/data/scripts/dock_solv.prm

>  <Rbt.Receptor>
prm/pocket_docking_4.prm

>  <SCORE>
-9.97497

>  <SCORE.INTER>
-5.14593

>  <SCORE.INTER.CONST>
1

>  <SCORE.INTER.POLAR>
0

>  <SCORE.INTER.ROT>
6

>  <SCORE.INTER.SOLV>
14.0683

>  <SCORE.INTER.VDW>
-15.7201

>  <SCORE.INTER.norm>
-0.165998

>  <SCORE.INTRA>
-4.82904

>  <SCORE.INTRA.DIHEDRAL>
-10.6557

>  <SCORE.INTRA.DIHEDRAL.0>
14.7001

>  <SCORE.INTRA.POLAR>
0

>  <SCORE.INTRA.POLAR.0>
0

>  <SCORE.INTRA.REPUL>
0

>  <SCORE.INTRA.REPUL.0>
0

>  <SCORE.INTRA.SOLV>
-1.37821

>  <SCORE.INTRA.SOLV.lig_0>
-65.3082

>  <SCORE.INTRA.VDW>
1.18793

>  <SCORE.INTRA.VDW.0>
-4.21408

>  <SCORE.INTRA.norm>
-0.155775

>  <SCORE.RESTR>
0

>  <SCORE.RESTR.CAVITY>
0

>  <SCORE.RESTR.norm>
0

>  <SCORE.SYSTEM>
0

>  <SCORE.SYSTEM.CONST>
0

>  <SCORE.SYSTEM.DIHEDRAL>
0

>  <SCORE.SYSTEM.SOLV>
0

>  <SCORE.SYSTEM.norm>
0

>  <SCORE.heavy>
31

>  <SCORE.norm>
-0.321773

>  <RMSD>
8.151

$$$$
ligand
 OpenBabel11021811493D
libRbt.so/2013.1/901 2013/11/27
 31 33  0  0  0  0  0  0  0  0999 V2000
   -2.0494   17.4229   41.6898 C   0  0  2  0  0  0  0  0  0  0  0  0
   -1.7234   16.0491   41.6020 O   0  0  0  0  0  0  0  0  0  0  0  0
    0.1494   13.7287   38.5741 C   0  0  2  0  0  0  0  0  0  0  0  0
    0.3509   13.0651   37.3308 N   0  0  0  0  0  0  0  0  0  0  0  0
    1.5136   15.6219   36.3145 C   0  0  2  0  0  0  0  0  0  0  0  0
   -1.9810   17.8507   43.2197 C   0  0  2  0  0  0  0  0  0  0  0  0
   -0.6453   17.5709   43.7357 N   0  0  0  0  0  0  0  0  0  0  0  0
   -1.1805   13.1526   39.2366 C   0  0  0  0  0  0  0  0  0  0  0  0
    2.9982   16.1057   36.1996 C   0  0  2  0  0  0  0  0  0  0  0  0
    3.7907   15.3499   37.0906 O   0  0  0  0  0  0  0  0  0  0  0  0
   -3.0808   17.0969   44.0541 C   0  0  0  0  0  0  0  0  0  0  0  0
   -1.3953   13.8792   40.6271 C   0  0  2  0  0  0  0  0  0  0  0  0
   -2.6092   13.3554   41.2547 N   0  0  0  0  0  0  0  0  0  0  0  0
    3.0538   17.6349   36.5604 C   0  0  1  0  0  0  0  0  0  0  0  0
    4.4680   18.1219   36.4734 N   0  0  0  0  0  0  0  0  0  0  0  0
   -4.4479   16.9816   43.2581 C   0  0  0  0  0  0  0  0  0  0  0  0
   -1.5431   15.4355   40.3758 C   0  0  2  0  0  0  0  0  0  0  0  0
    2.1342   18.4580   35.4999 C   0  0  1  0  0  0  0  0  0  0  0  0
    2.5659   18.3159   34.1609 O   0  0  0  0  0  0  0  0  0  0  0  0
   -4.5146   17.2599   41.9334 C   0  0  1  0  0  0  0  0  0  0  0  0
   -3.3898   17.6726   41.1622 O   0  0  0  0  0  0  0  0  0  0  0  0
   -0.2250   15.9944   39.6946 C   0  0  2  0  0  0  0  0  0  0  0  0
   -0.3745   17.4090   39.4563 O   0  0  0  0  0  0  0  0  0  0  0  0
    0.6661   17.9440   35.5907 C   0  0  0  0  0  0  0  0  0  0  0  0
    0.6301   16.4391   35.3876 O   0  0  0  0  0  0  0  0  0  0  0  0
   -5.7941   17.1555   41.1383 C   0  0  0  0  0  0  0  0  0  0  0  0
   -6.0584   18.4724   40.6085 O   0  0  0  0  0  0  0  0  0  0  0  0
   -0.0094   15.2644   38.3142 C   0  0  1  0  0  0  0  0  0  0  0  0
    1.1662   15.7714   37.7330 O   0  0  0  0  0  0  0  0  0  0  0  0
    2.0874   19.9730   35.7377 C   0  0  0  0  0  0  0  0  0  0  0  0
    5.2852   17.9788   37.6961 C   0  0  0  0  0  0  0  0  0  0  0  0
  1  2  1  1  0  0  0
  1  6  1  0  0  0  0
  1 21  1  0  0  0  0
  3  4  1  6  0  0  0
  3  8  1  0  0  0  0
  3 28  1  0  0  0  0
  5  9  1  0  0  0  0
  5 25  1  0  0  0  0
  5 29  1  1  0  0  0
  6  7  1  1  0  0  0
  6 11  1  0  0  0  0
  8 12  1  0  0  0  0
  9 10  1  1  0  0  0
  9 14  1  0  0  0  0
 11 16  1  0  0  0  0
 12 13  1  6  0  0  0
 12 17  1  0  0  0  0
 14 15  1  6  0  0  0
 14 18  1  0  0  0  0
 15 31  1  0  0  0  0
 16 20  1  0  0  0  0
 17  2  1  1  0  0  0
 17 22  1  0  0  0  0
 18 19  1  6  0  0  0
 18 24  1  0  0  0  0
 18 30  1  0  0  0  0
 20 21  1  0  0  0  0
 20 26  1  6  0  0  0
 22 23  1  6  0  0  0
 22 28  1  0  0  0  0
 24 25  1  0  0  0  0
 26 27  1  0  0  0  0
 28 29  1  1  0  0  0
M  END
>  <CHROM.1>
-172.08930270,-170.02516030,-87.72644356,-172.16202702,119.80399435,78.70731400
-0.32336426,16.56324790,39.06009415,3.01421284,-0.75040932,3.02816663

>  <Name>
ligand

>  <RI>
0

>  <Rbt.Current_Directory>
/home/itssahil/PROJECTS/Mol_Feturizer/New_Systems/rnas/4GPY

>  <Rbt.Executable>
rbdock ($Id: //depot/dev/client3/rdock/2013.1/src/exe/rbdock.cxx#4 $)

>  <Rbt.Library>
libRbt.so (2013.1, Build901 2013/11/27)

>  <Rbt.Parameter_File>
/export/apps/rDock/src/rDock_2013.1_src/data/scripts/dock_solv.prm

>  <Rbt.Receptor>
prm/pocket_docking_7.prm

>  <SCORE>
-13.4014

>  <SCORE.INTER>
-8.97045

>  <SCORE.INTER.CONST>
1

>  <SCORE.INTER.POLAR>
0

>  <SCORE.INTER.ROT>
6

>  <SCORE.INTER.SOLV>
14.5511

>  <SCORE.INTER.VDW>
-18.4307

>  <SCORE.INTER.norm>
-0.289369

>  <SCORE.INTRA>
-4.43092

>  <SCORE.INTRA.DIHEDRAL>
-9.80821

>  <SCORE.INTRA.DIHEDRAL.0>
14.7001

>  <SCORE.INTRA.POLAR>
0

>  <SCORE.INTRA.POLAR.0>
0

>  <SCORE.INTRA.REPUL>
0

>  <SCORE.INTRA.REPUL.0>
0

>  <SCORE.INTRA.SOLV>
-1.49589

>  <SCORE.INTRA.SOLV.lig_0>
-65.3082

>  <SCORE.INTRA.VDW>
1.22113

>  <SCORE.INTRA.VDW.0>
-4.21408

>  <SCORE.INTRA.norm>
-0.142933

>  <SCORE.RESTR>
0

>  <SCORE.RESTR.CAVITY>
0

>  <SCORE.RESTR.norm>
0

>  <SCORE.SYSTEM>
0

>  <SCORE.SYSTEM.CONST>
0

>  <SCORE.SYSTEM.DIHEDRAL>
0

>  <SCORE.SYSTEM.SOLV>
0

>  <SCORE.SYSTEM.norm>
0

>  <SCORE.heavy>
31

>  <SCORE.norm>
-0.432302

>  <RMSD>
8.155

$$$$
ligand
 OpenBabel11021811493D
libRbt.so/2013.1/901 2013/11/27
 31 33  0  0  0  0  0  0  0  0999 V2000
   -1.3584   10.9778   41.5588 C   0  0  2  0  0  0  0  0  0  0  0  0
   -1.6388   10.2039   40.4082 O   0  0  0  0  0  0  0  0  0  0  0  0
   -0.2151   10.6030   36.4240 C   0  0  2  0  0  0  0  0  0  0  0  0
   -0.0643   11.1112   35.1027 N   0  0  0  0  0  0  0  0  0  0  0  0
    2.0395   12.8020   36.1001 C   0  0  2  0  0  0  0  0  0  0  0  0
   -1.5105   10.0406   42.8342 C   0  0  2  0  0  0  0  0  0  0  0  0
   -0.6043    8.9046   42.7043 N   0  0  0  0  0  0  0  0  0  0  0  0
   -1.7424   10.1978   36.6307 C   0  0  0  0  0  0  0  0  0  0  0  0
    3.5819   12.9327   36.3352 C   0  0  2  0  0  0  0  0  0  0  0  0
    4.1235   11.6412   36.5133 O   0  0  0  0  0  0  0  0  0  0  0  0
   -3.0004    9.5622   42.9942 C   0  0  0  0  0  0  0  0  0  0  0  0
   -1.9062    9.6174   38.0949 C   0  0  2  0  0  0  0  0  0  0  0  0
   -3.3029    9.2313   38.2997 N   0  0  0  0  0  0  0  0  0  0  0  0
    3.8185   13.8198   37.6114 C   0  0  1  0  0  0  0  0  0  0  0  0
    5.2886   13.9492   37.8695 N   0  0  0  0  0  0  0  0  0  0  0  0
   -4.0302   10.7201   42.6553 C   0  0  0  0  0  0  0  0  0  0  0  0
   -1.4938   10.7340   39.1390 C   0  0  2  0  0  0  0  0  0  0  0  0
    3.1854   15.2957   37.3493 C   0  0  1  0  0  0  0  0  0  0  0  0
    3.7676   15.9635   36.2472 O   0  0  0  0  0  0  0  0  0  0  0  0
   -3.6285   11.8594   42.0413 C   0  0  1  0  0  0  0  0  0  0  0  0
   -2.2787   12.1094   41.6596 O   0  0  0  0  0  0  0  0  0  0  0  0
    0.0195   11.1474   38.9095 C   0  0  2  0  0  0  0  0  0  0  0  0
    0.3818   12.1747   39.8548 O   0  0  0  0  0  0  0  0  0  0  0  0
    1.6579   15.1548   37.0762 C   0  0  0  0  0  0  0  0  0  0  0  0
    1.4228   14.1805   35.9349 O   0  0  0  0  0  0  0  0  0  0  0  0
   -4.5780   12.9814   41.6951 C   0  0  0  0  0  0  0  0  0  0  0  0
   -4.1625   14.1265   42.4703 O   0  0  0  0  0  0  0  0  0  0  0  0
    0.1816   11.7180   37.4489 C   0  0  1  0  0  0  0  0  0  0  0  0
    1.5303   12.0715   37.2672 O   0  0  0  0  0  0  0  0  0  0  0  0
    3.3362   16.2720   38.5232 C   0  0  0  0  0  0  0  0  0  0  0  0
    5.7425   13.6316   39.2394 C   0  0  0  0  0  0  0  0  0  0  0  0
  1  2  1  6  0  0  0
  1  6  1  0  0  0  0
  1 21  1  0  0  0  0
  3  4  1  6  0  0  0
  3  8  1  0  0  0  0
  3 28  1  0  0  0  0
  5  9  1  0  0  0  0
  5 25  1  0  0  0  0
  5 29  1  1  0  0  0
  6  7  1  6  0  0  0
  6 11  1  0  0  0  0
  8 12  1  0  0  0  0
  9 10  1  1  0  0  0
  9 14  1  0  0  0  0
 11 16  1  0  0  0  0
 12 13  1  1  0  0  0
 12 17  1  0  0  0  0
 14 15  1  6  0  0  0
 14 18  1  0  0  0  0
 15 31  1  0  0  0  0
 16 20  1  0  0  0  0
 17  2  1  1  0  0  0
 17 22  1  0  0  0  0
 18 19  1  6  0  0  0
 18 24  1  0  0  0  0
 18 30  1  0  0  0  0
 20 21  1  0  0  0  0
 20 26  1  6  0  0  0
 22 23  1  1  0  0  0
 22 28  1  0  0  0  0
 24 25  1  0  0  0  0
 26 27  1  0  0  0  0
 28 29  1  6  0  0  0
M  END
>  <CHROM.1>
-175.44442901,-178.91782185,-128.76323132,-179.20306567,116.08573330,69.93922035
0.16699230,12.16010658,38.94140324,-2.87656958,-0.67172312,-2.13829783

>  <Name>
ligand

>  <RI>
0

>  <Rbt.Current_Directory>
/home/itssahil/PROJECTS/Mol_Feturizer/New_Systems/rnas/4GPY

>  <Rbt.Executable>
rbdock ($Id: //depot/dev/client3/rdock/2013.1/src/exe/rbdock.cxx#4 $)

>  <Rbt.Library>
libRbt.so (2013.1, Build901 2013/11/27)

>  <Rbt.Parameter_File>
/export/apps/rDock/src/rDock_2013.1_src/data/scripts/dock_solv.prm

>  <Rbt.Receptor>
prm/pocket_docking_6.prm

>  <SCORE>
-10.0194

>  <SCORE.INTER>
-5.00855

>  <SCORE.INTER.CONST>
1

>  <SCORE.INTER.POLAR>
0

>  <SCORE.INTER.ROT>
6

>  <SCORE.INTER.SOLV>
13.7424

>  <SCORE.INTER.VDW>
-15.5198

>  <SCORE.INTER.norm>
-0.161566

>  <SCORE.INTRA>
-5.01088

>  <SCORE.INTRA.DIHEDRAL>
-11.2662

>  <SCORE.INTRA.DIHEDRAL.0>
14.7001

>  <SCORE.INTRA.POLAR>
0

>  <SCORE.INTRA.POLAR.0>
0

>  <SCORE.INTRA.REPUL>
0

>  <SCORE.INTRA.REPUL.0>
0

>  <SCORE.INTRA.SOLV>
-1.75316

>  <SCORE.INTRA.SOLV.lig_0>
-65.3082

>  <SCORE.INTRA.VDW>
1.49878

>  <SCORE.INTRA.VDW.0>
-4.21408

>  <SCORE.INTRA.norm>
-0.161641

>  <SCORE.RESTR>
0

>  <SCORE.RESTR.CAVITY>
0

>  <SCORE.RESTR.norm>
0

>  <SCORE.SYSTEM>
0

>  <SCORE.SYSTEM.CONST>
0

>  <SCORE.SYSTEM.DIHEDRAL>
0

>  <SCORE.SYSTEM.SOLV>
0

>  <SCORE.SYSTEM.norm>
0

>  <SCORE.heavy>
31

>  <SCORE.norm>
-0.323208

>  <RMSD>
8.158

$$$$
ligand
 OpenBabel11021811493D
libRbt.so/2013.1/901 2013/11/27
 31 33  0  0  0  0  0  0  0  0999 V2000
   -0.9146   10.8005   41.7821 C   0  0  2  0  0  0  0  0  0  0  0  0
   -0.9716    9.9190   40.6772 O   0  0  0  0  0  0  0  0  0  0  0  0
    0.4412   10.4514   36.7047 C   0  0  2  0  0  0  0  0  0  0  0  0
    0.5021   10.9064   35.3571 N   0  0  0  0  0  0  0  0  0  0  0  0
    2.1627   12.9361   36.2096 C   0  0  2  0  0  0  0  0  0  0  0  0
   -1.1711    9.9544   43.1036 C   0  0  2  0  0  0  0  0  0  0  0  0
   -0.1714    8.8957   43.1957 N   0  0  0  0  0  0  0  0  0  0  0  0
   -0.9356    9.6745   36.9064 C   0  0  0  0  0  0  0  0  0  0  0  0
    3.3978   13.8306   36.5641 C   0  0  2  0  0  0  0  0  0  0  0  0
    4.3552   13.0361   37.2315 O   0  0  0  0  0  0  0  0  0  0  0  0
   -2.6277    9.3608   43.1059 C   0  0  0  0  0  0  0  0  0  0  0  0
   -0.9956    9.1543   38.4009 C   0  0  2  0  0  0  0  0  0  0  0  0
   -2.2511    8.4297   38.6020 N   0  0  0  0  0  0  0  0  0  0  0  0
    2.9119   15.0107   37.4821 C   0  0  1  0  0  0  0  0  0  0  0  0
    4.0784   15.8758   37.8501 N   0  0  0  0  0  0  0  0  0  0  0  0
   -3.6857   10.3943   42.5327 C   0  0  0  0  0  0  0  0  0  0  0  0
   -0.9237   10.3965   39.3801 C   0  0  2  0  0  0  0  0  0  0  0  0
    1.8206   15.8974   36.6630 C   0  0  1  0  0  0  0  0  0  0  0  0
    2.3405   16.4620   35.4755 O   0  0  0  0  0  0  0  0  0  0  0  0
   -3.2904   11.5140   41.8795 C   0  0  1  0  0  0  0  0  0  0  0  0
   -1.9237   11.8514   41.6598 O   0  0  0  0  0  0  0  0  0  0  0  0
    0.4381   11.1765   39.1548 C   0  0  2  0  0  0  0  0  0  0  0  0
    0.4882   12.3140   40.0402 O   0  0  0  0  0  0  0  0  0  0  0  0
    0.6125   14.9918   36.2782 C   0  0  0  0  0  0  0  0  0  0  0  0
    1.1008   13.7720   35.5160 O   0  0  0  0  0  0  0  0  0  0  0  0
   -4.2653   12.5184   41.3129 C   0  0  0  0  0  0  0  0  0  0  0  0
   -4.0565   12.5343   39.8843 O   0  0  0  0  0  0  0  0  0  0  0  0
    0.4989   11.6869   37.6646 C   0  0  1  0  0  0  0  0  0  0  0  0
    1.7156   12.3689   37.4876 O   0  0  0  0  0  0  0  0  0  0  0  0
    1.2494   17.0873   37.4452 C   0  0  0  0  0  0  0  0  0  0  0  0
    4.1927   16.2477   39.2756 C   0  0  0  0  0  0  0  0  0  0  0  0
  1  2  1  6  0  0  0
  1  6  1  0  0  0  0
  1 21  1  0  0  0  0
  3  4  1  6  0  0  0
  3  8  1  0  0  0  0
  3 28  1  0  0  0  0
  5  9  1  0  0  0  0
  5 25  1  0  0  0  0
  5 29  1  1  0  0  0
  6  7  1  6  0  0  0
  6 11  1  0  0  0  0
  8 12  1  0  0  0  0
  9 10  1  1  0  0  0
  9 14  1  0  0  0  0
 11 16  1  0  0  0  0
 12 13  1  6  0  0  0
 12 17  1  0  0  0  0
 14 15  1  6  0  0  0
 14 18  1  0  0  0  0
 15 31  1  0  0  0  0
 16 20  1  0  0  0  0
 17  2  1  1  0  0  0
 17 22  1  0  0  0  0
 18 19  1  6  0  0  0
 18 24  1  0  0  0  0
 18 30  1  0  0  0  0
 20 21  1  0  0  0  0
 20 26  1  6  0  0  0
 22 23  1  1  0  0  0
 22 28  1  0  0  0  0
 24 25  1  0  0  0  0
 26 27  1  0  0  0  0
 28 29  1  1  0  0  0
M  END
>  <CHROM.1>
173.16261400,168.73606538,-133.32619653,179.48121345,-117.63545932,58.54032622
0.14344519,12.28126949,38.85795988,3.12315843,-0.93587767,-2.38436066

>  <Name>
ligand

>  <RI>
0

>  <Rbt.Current_Directory>
/home/itssahil/PROJECTS/Mol_Feturizer/New_Systems/rnas/4GPY

>  <Rbt.Executable>
rbdock ($Id: //depot/dev/client3/rdock/2013.1/src/exe/rbdock.cxx#4 $)

>  <Rbt.Library>
libRbt.so (2013.1, Build901 2013/11/27)

>  <Rbt.Parameter_File>
/export/apps/rDock/src/rDock_2013.1_src/data/scripts/dock_solv.prm

>  <Rbt.Receptor>
prm/pocket_docking_4.prm

>  <SCORE>
-9.44657

>  <SCORE.INTER>
-5.27627

>  <SCORE.INTER.CONST>
1

>  <SCORE.INTER.POLAR>
0

>  <SCORE.INTER.ROT>
6

>  <SCORE.INTER.SOLV>
13.169

>  <SCORE.INTER.VDW>
-15.5072

>  <SCORE.INTER.norm>
-0.170202

>  <SCORE.INTRA>
-4.1703

>  <SCORE.INTRA.DIHEDRAL>
-11.095

>  <SCORE.INTRA.DIHEDRAL.0>
14.7001

>  <SCORE.INTRA.POLAR>
0

>  <SCORE.INTRA.POLAR.0>
0

>  <SCORE.INTRA.REPUL>
0

>  <SCORE.INTRA.REPUL.0>
0

>  <SCORE.INTRA.SOLV>
-0.879258

>  <SCORE.INTRA.SOLV.lig_0>
-65.3082

>  <SCORE.INTRA.VDW>
1.8168

>  <SCORE.INTRA.VDW.0>
-4.21408

>  <SCORE.INTRA.norm>
-0.134526

>  <SCORE.RESTR>
0

>  <SCORE.RESTR.CAVITY>
0

>  <SCORE.RESTR.norm>
0

>  <SCORE.SYSTEM>
0

>  <SCORE.SYSTEM.CONST>
0

>  <SCORE.SYSTEM.DIHEDRAL>
0

>  <SCORE.SYSTEM.SOLV>
0

>  <SCORE.SYSTEM.norm>
0

>  <SCORE.heavy>
31

>  <SCORE.norm>
-0.304728

>  <RMSD>
8.162

$$$$
ligand
 OpenBabel11021811493D
libRbt.so/2013.1/901 2013/11/27
 31 33  0  0  0  0  0  0  0  0999 V2000
   -1.1482   10.7143   41.6499 C   0  0  2  0  0  0  0  0  0  0  0  0
   -1.3937    9.8584   40.5506 O   0  0  0  0  0  0  0  0  0  0  0  0
   -0.2584   10.1763   36.4677 C   0  0  2  0  0  0  0  0  0  0  0  0
   -0.2308   10.6321   35.1193 N   0  0  0  0  0  0  0  0  0  0  0  0
    1.7917   12.5312   35.9096 C   0  0  2  0  0  0  0  0  0  0  0  0
   -1.3224    9.8677   42.9844 C   0  0  2  0  0  0  0  0  0  0  0  0
   -0.4030    8.7353   42.9563 N   0  0  0  0  0  0  0  0  0  0  0  0
   -1.7337    9.6685   36.7918 C   0  0  0  0  0  0  0  0  0  0  0  0
    3.2765   12.9758   36.1309 C   0  0  2  0  0  0  0  0  0  0  0  0
    4.0549   11.8312   36.4090 O   0  0  0  0  0  0  0  0  0  0  0  0
   -2.8113    9.3858   43.1429 C   0  0  0  0  0  0  0  0  0  0  0  0
   -1.7598    9.1463   38.2866 C   0  0  2  0  0  0  0  0  0  0  0  0
   -3.1068    8.6671   38.5994 N   0  0  0  0  0  0  0  0  0  0  0  0
    3.3203   13.9880   37.3330 C   0  0  1  0  0  0  0  0  0  0  0  0
    4.7341   14.4191   37.5773 N   0  0  0  0  0  0  0  0  0  0  0  0
   -3.8432   10.5056   42.6991 C   0  0  0  0  0  0  0  0  0  0  0  0
   -1.3702   10.3380   39.2536 C   0  0  2  0  0  0  0  0  0  0  0  0
    2.4176   15.2887   36.9567 C   0  0  1  0  0  0  0  0  0  0  0  0
    2.8746   15.9691   35.8045 O   0  0  0  0  0  0  0  0  0  0  0  0
   -3.4372   11.6032   42.0156 C   0  0  1  0  0  0  0  0  0  0  0  0
   -2.0809   11.8402   41.6489 O   0  0  0  0  0  0  0  0  0  0  0  0
    0.0891   10.8520   38.9073 C   0  0  2  0  0  0  0  0  0  0  0  0
    0.4294   11.9464   39.7829 O   0  0  0  0  0  0  0  0  0  0  0  0
    0.9499   14.8341   36.6984 C   0  0  0  0  0  0  0  0  0  0  0  0
    0.9228   13.7472   35.6377 O   0  0  0  0  0  0  0  0  0  0  0  0
   -4.3882   12.6877   41.5690 C   0  0  0  0  0  0  0  0  0  0  0  0
   -4.0269   13.8792   42.3002 O   0  0  0  0  0  0  0  0  0  0  0  0
    0.1144   11.3644   37.4167 C   0  0  1  0  0  0  0  0  0  0  0  0
    1.4176   11.8086   37.1315 O   0  0  0  0  0  0  0  0  0  0  0  0
    2.3613   16.3637   38.0500 C   0  0  0  0  0  0  0  0  0  0  0  0
    5.4602   13.7038   38.6471 C   0  0  0  0  0  0  0  0  0  0  0  0
  1  2  1  6  0  0  0
  1  6  1  0  0  0  0
  1 21  1  0  0  0  0
  3  4  1  6  0  0  0
  3  8  1  0  0  0  0
  3 28  1  0  0  0  0
  5  9  1  0  0  0  0
  5 25  1  0  0  0  0
  5 29  1  1  0  0  0
  6  7  1  6  0  0  0
  6 11  1  0  0  0  0
  8 12  1  0  0  0  0
  9 10  1  1  0  0  0
  9 14  1  0  0  0  0
 11 16  1  0  0  0  0
 12 13  1  1  0  0  0
 12 17  1  0  0  0  0
 14 15  1  6  0  0  0
 14 18  1  0  0  0  0
 15 31  1  0  0  0  0
 16 20  1  0  0  0  0
 17  2  1  1  0  0  0
 17 22  1  0  0  0  0
 18 19  1  6  0  0  0
 18 24  1  0  0  0  0
 18 30  1  0  0  0  0
 20 21  1  0  0  0  0
 20 26  1  6  0  0  0
 22 23  1  1  0  0  0
 22 28  1  0  0  0  0
 24 25  1  0  0  0  0
 26 27  1  0  0  0  0
 28 29  1  6  0  0  0
M  END
>  <CHROM.1>
177.18738963,172.61036872,-97.26231921,-176.97376626,114.44164850,70.55346830
0.04701376,11.95510645,38.85431549,-2.97714741,-0.80950848,-2.31695390

>  <Name>
ligand

>  <RI>
0

>  <Rbt.Current_Directory>
/home/itssahil/PROJECTS/Mol_Feturizer/New_Systems/rnas/4GPY

>  <Rbt.Executable>
rbdock ($Id: //depot/dev/client3/rdock/2013.1/src/exe/rbdock.cxx#4 $)

>  <Rbt.Library>
libRbt.so (2013.1, Build901 2013/11/27)

>  <Rbt.Parameter_File>
/export/apps/rDock/src/rDock_2013.1_src/data/scripts/dock_solv.prm

>  <Rbt.Receptor>
prm/pocket_docking_4.prm

>  <SCORE>
-10.0435

>  <SCORE.INTER>
-4.97488

>  <SCORE.INTER.CONST>
1

>  <SCORE.INTER.POLAR>
0

>  <SCORE.INTER.ROT>
6

>  <SCORE.INTER.SOLV>
14.1712

>  <SCORE.INTER.VDW>
-15.6403

>  <SCORE.INTER.norm>
-0.16048

>  <SCORE.INTRA>
-5.0686

>  <SCORE.INTRA.DIHEDRAL>
-11.2627

>  <SCORE.INTRA.DIHEDRAL.0>
14.7001

>  <SCORE.INTRA.POLAR>
0

>  <SCORE.INTRA.POLAR.0>
0

>  <SCORE.INTRA.REPUL>
0

>  <SCORE.INTRA.REPUL.0>
0

>  <SCORE.INTRA.SOLV>
-1.51177

>  <SCORE.INTRA.SOLV.lig_0>
-65.3082

>  <SCORE.INTRA.VDW>
1.31861

>  <SCORE.INTRA.VDW.0>
-4.21408

>  <SCORE.INTRA.norm>
-0.163503

>  <SCORE.RESTR>
0

>  <SCORE.RESTR.CAVITY>
0

>  <SCORE.RESTR.norm>
0

>  <SCORE.SYSTEM>
0

>  <SCORE.SYSTEM.CONST>
0

>  <SCORE.SYSTEM.DIHEDRAL>
0

>  <SCORE.SYSTEM.SOLV>
0

>  <SCORE.SYSTEM.norm>
0

>  <SCORE.heavy>
31

>  <SCORE.norm>
-0.323983

>  <RMSD>
8.167

$$$$
ligand
 OpenBabel11021811493D
libRbt.so/2013.1/901 2013/11/27
 31 33  0  0  0  0  0  0  0  0999 V2000
   -0.9213   11.2904   41.4954 C   0  0  2  0  0  0  0  0  0  0  0  0
   -1.6960   12.1978   40.7353 O   0  0  0  0  0  0  0  0  0  0  0  0
   -1.0304   16.0494   39.0672 C   0  0  2  0  0  0  0  0  0  0  0  0
   -0.7299   17.4388   38.9890 N   0  0  0  0  0  0  0  0  0  0  0  0
    1.3831   14.9074   37.4342 C   0  0  2  0  0  0  0  0  0  0  0  0
   -1.4794    9.8246   41.2347 C   0  0  2  0  0  0  0  0  0  0  0  0
   -1.4161    9.5354   39.8061 N   0  0  0  0  0  0  0  0  0  0  0  0
   -2.2834   15.8644   40.0343 C   0  0  0  0  0  0  0  0  0  0  0  0
    2.8095   15.2870   36.9121 C   0  0  2  0  0  0  0  0  0  0  0  0
    3.7711   14.7759   37.8106 O   0  0  0  0  0  0  0  0  0  0  0  0
   -2.9498    9.6885   41.7763 C   0  0  0  0  0  0  0  0  0  0  0  0
   -2.6276   14.3204   40.1080 C   0  0  2  0  0  0  0  0  0  0  0  0
   -3.7831   14.1323   40.9861 N   0  0  0  0  0  0  0  0  0  0  0  0
    2.9063   16.8534   36.8200 C   0  0  1  0  0  0  0  0  0  0  0  0
    4.2689   17.2463   36.3366 N   0  0  0  0  0  0  0  0  0  0  0  0
   -3.1407   10.4435   43.1581 C   0  0  0  0  0  0  0  0  0  0  0  0
   -1.3754   13.5423   40.6855 C   0  0  2  0  0  0  0  0  0  0  0  0
    1.7863   17.3874   35.7672 C   0  0  1  0  0  0  0  0  0  0  0  0
    1.9560   16.8685   34.4629 O   0  0  0  0  0  0  0  0  0  0  0  0
   -2.2065   11.3102   43.6194 C   0  0  1  0  0  0  0  0  0  0  0  0
   -1.0010   11.6076   42.9204 O   0  0  0  0  0  0  0  0  0  0  0  0
   -0.1282   13.7524   39.7295 C   0  0  2  0  0  0  0  0  0  0  0  0
    1.0109   13.0525   40.2709 O   0  0  0  0  0  0  0  0  0  0  0  0
    0.3721   16.9715   36.2719 C   0  0  0  0  0  0  0  0  0  0  0  0
    0.3242   15.4709   36.5021 O   0  0  0  0  0  0  0  0  0  0  0  0
   -2.3537   12.0539   44.9253 C   0  0  0  0  0  0  0  0  0  0  0  0
   -1.1018   11.9028   45.6287 O   0  0  0  0  0  0  0  0  0  0  0  0
    0.2079   15.2906   39.6519 C   0  0  1  0  0  0  0  0  0  0  0  0
    1.3113   15.4521   38.7955 O   0  0  0  0  0  0  0  0  0  0  0  0
    1.7593   18.9103   35.5825 C   0  0  0  0  0  0  0  0  0  0  0  0
    5.1469   17.9089   37.3233 C   0  0  0  0  0  0  0  0  0  0  0  0
  1  2  1  6  0  0  0
  1  6  1  0  0  0  0
  1 21  1  0  0  0  0
  3  4  1  1  0  0  0
  3  8  1  0  0  0  0
  3 28  1  0  0  0  0
  5  9  1  0  0  0  0
  5 25  1  0  0  0  0
  5 29  1  1  0  0  0
  6  7  1  6  0  0  0
  6 11  1  0  0  0  0
  8 12  1  0  0  0  0
  9 10  1  1  0  0  0
  9 14  1  0  0  0  0
 11 16  1  0  0  0  0
 12 13  1  1  0  0  0
 12 17  1  0  0  0  0
 14 15  1  6  0  0  0
 14 18  1  0  0  0  0
 15 31  1  0  0  0  0
 16 20  1  0  0  0  0
 17  2  1  6  0  0  0
 17 22  1  0  0  0  0
 18 19  1  6  0  0  0
 18 24  1  0  0  0  0
 18 30  1  0  0  0  0
 20 21  1  0  0  0  0
 20 26  1  6  0  0  0
 22 23  1  1  0  0  0
 22 28  1  0  0  0  0
 24 25  1  0  0  0  0
 26 27  1  0  0  0  0
 28 29  1  6  0  0  0
M  END
>  <CHROM.1>
-175.10882745,-177.50555168,-110.47871582,-164.53568168,132.28492304,-66.00549912
-0.00473750,14.23937954,39.51399327,-2.09095221,0.32744363,-0.65299967

>  <Name>
ligand

>  <RI>
0

>  <Rbt.Current_Directory>
/home/itssahil/PROJECTS/Mol_Feturizer/New_Systems/rnas/4GPY

>  <Rbt.Executable>
rbdock ($Id: //depot/dev/client3/rdock/2013.1/src/exe/rbdock.cxx#4 $)

>  <Rbt.Library>
libRbt.so (2013.1, Build901 2013/11/27)

>  <Rbt.Parameter_File>
/export/apps/rDock/src/rDock_2013.1_src/data/scripts/dock_solv.prm

>  <Rbt.Receptor>
prm/pocket_docking_7.prm

>  <SCORE>
-14.5656

>  <SCORE.INTER>
-10.5686

>  <SCORE.INTER.CONST>
1

>  <SCORE.INTER.POLAR>
0

>  <SCORE.INTER.ROT>
6

>  <SCORE.INTER.SOLV>
15.2825

>  <SCORE.INTER.VDW>
-19.7399

>  <SCORE.INTER.norm>
-0.340922

>  <SCORE.INTRA>
-3.99703

>  <SCORE.INTRA.DIHEDRAL>
-10.2502

>  <SCORE.INTRA.DIHEDRAL.0>
14.7001

>  <SCORE.INTRA.POLAR>
0

>  <SCORE.INTRA.POLAR.0>
0

>  <SCORE.INTRA.REPUL>
0

>  <SCORE.INTRA.REPUL.0>
0

>  <SCORE.INTRA.SOLV>
0.348901

>  <SCORE.INTRA.SOLV.lig_0>
-65.3082

>  <SCORE.INTRA.VDW>
0.953595

>  <SCORE.INTRA.VDW.0>
-4.21408

>  <SCORE.INTRA.norm>
-0.128936

>  <SCORE.RESTR>
0

>  <SCORE.RESTR.CAVITY>
0

>  <SCORE.RESTR.norm>
0

>  <SCORE.SYSTEM>
0

>  <SCORE.SYSTEM.CONST>
0

>  <SCORE.SYSTEM.DIHEDRAL>
0

>  <SCORE.SYSTEM.SOLV>
0

>  <SCORE.SYSTEM.norm>
0

>  <SCORE.heavy>
31

>  <SCORE.norm>
-0.469859

>  <RMSD>
8.168

$$$$
ligand
 OpenBabel11021811493D
libRbt.so/2013.1/901 2013/11/27
 31 33  0  0  0  0  0  0  0  0999 V2000
   -2.0613   17.4189   41.8710 C   0  0  2  0  0  0  0  0  0  0  0  0
   -1.8501   16.0508   41.5796 O   0  0  0  0  0  0  0  0  0  0  0  0
   -0.4132   13.9268   38.1908 C   0  0  2  0  0  0  0  0  0  0  0  0
   -0.3361   13.4276   36.8598 N   0  0  0  0  0  0  0  0  0  0  0  0
    1.2774   15.7247   36.1997 C   0  0  2  0  0  0  0  0  0  0  0  0
   -1.8418   17.6318   43.4314 C   0  0  2  0  0  0  0  0  0  0  0  0
   -0.4958   17.1972   43.7891 N   0  0  0  0  0  0  0  0  0  0  0  0
   -1.8119   13.4799   38.8103 C   0  0  0  0  0  0  0  0  0  0  0  0
    2.8002   16.0802   36.1237 C   0  0  2  0  0  0  0  0  0  0  0  0
    3.5050   15.2452   37.0177 O   0  0  0  0  0  0  0  0  0  0  0  0
   -2.9286   16.8474   44.2545 C   0  0  0  0  0  0  0  0  0  0  0  0
   -1.8902   14.0214   40.2963 C   0  0  2  0  0  0  0  0  0  0  0  0
   -3.1661   13.6122   40.8848 N   0  0  0  0  0  0  0  0  0  0  0  0
    2.9791   17.5931   36.5120 C   0  0  1  0  0  0  0  0  0  0  0  0
    4.4315   17.9575   36.4625 N   0  0  0  0  0  0  0  0  0  0  0  0
   -4.3581   16.9311   43.5722 C   0  0  0  0  0  0  0  0  0  0  0  0
   -1.7856   15.6011   40.2733 C   0  0  2  0  0  0  0  0  0  0  0  0
    2.1571   18.5088   35.4471 C   0  0  1  0  0  0  0  0  0  0  0  0
    2.6044   18.3507   34.1151 O   0  0  0  0  0  0  0  0  0  0  0  0
   -4.5054   17.3886   42.3051 C   0  0  1  0  0  0  0  0  0  0  0  0
   -3.4153   17.8256   41.4984 O   0  0  0  0  0  0  0  0  0  0  0  0
   -0.4017   16.0358   39.6333 C   0  0  2  0  0  0  0  0  0  0  0  0
   -0.3217   17.4756   39.6031 O   0  0  0  0  0  0  0  0  0  0  0  0
    0.6487   18.1221   35.4989 C   0  0  0  0  0  0  0  0  0  0  0  0
    0.4879   16.6292   35.2691 O   0  0  0  0  0  0  0  0  0  0  0  0
   -5.8469   17.4770   41.6175 C   0  0  0  0  0  0  0  0  0  0  0  0
   -5.9275   16.3450   40.7248 O   0  0  0  0  0  0  0  0  0  0  0  0
   -0.3229   15.4894   38.1567 C   0  0  1  0  0  0  0  0  0  0  0  0
    0.9130   15.8816   37.6131 O   0  0  0  0  0  0  0  0  0  0  0  0
    2.2356   20.0183   35.7101 C   0  0  0  0  0  0  0  0  0  0  0  0
    5.1938   17.7778   37.7154 C   0  0  0  0  0  0  0  0  0  0  0  0
  1  2  1  1  0  0  0
  1  6  1  0  0  0  0
  1 21  1  0  0  0  0
  3  4  1  6  0  0  0
  3  8  1  0  0  0  0
  3 28  1  0  0  0  0
  5  9  1  0  0  0  0
  5 25  1  0  0  0  0
  5 29  1  1  0  0  0
  6  7  1  1  0  0  0
  6 11  1  0  0  0  0
  8 12  1  0  0  0  0
  9 10  1  1  0  0  0
  9 14  1  0  0  0  0
 11 16  1  0  0  0  0
 12 13  1  6  0  0  0
 12 17  1  0  0  0  0
 14 15  1  6  0  0  0
 14 18  1  0  0  0  0
 15 31  1  0  0  0  0
 16 20  1  0  0  0  0
 17  2  1  1  0  0  0
 17 22  1  0  0  0  0
 18 19  1  6  0  0  0
 18 24  1  0  0  0  0
 18 30  1  0  0  0  0
 20 21  1  0  0  0  0
 20 26  1  6  0  0  0
 22 23  1  6  0  0  0
 22 28  1  0  0  0  0
 24 25  1  0  0  0  0
 26 27  1  0  0  0  0
 28 29  1  1  0  0  0
M  END
>  <CHROM.1>
-170.73341058,-171.13571340,-90.15293625,-166.73793930,-101.80899441,70.46430339
-0.45782750,16.53885183,39.04100241,-2.71926922,-0.68763830,-2.40619229

>  <Name>
ligand

>  <RI>
0

>  <Rbt.Current_Directory>
/home/itssahil/PROJECTS/Mol_Feturizer/New_Systems/rnas/4GPY

>  <Rbt.Executable>
rbdock ($Id: //depot/dev/client3/rdock/2013.1/src/exe/rbdock.cxx#4 $)

>  <Rbt.Library>
libRbt.so (2013.1, Build901 2013/11/27)

>  <Rbt.Parameter_File>
/export/apps/rDock/src/rDock_2013.1_src/data/scripts/dock_solv.prm

>  <Rbt.Receptor>
prm/pocket_docking_6.prm

>  <SCORE>
-12.4754

>  <SCORE.INTER>
-8.17323

>  <SCORE.INTER.CONST>
1

>  <SCORE.INTER.POLAR>
0

>  <SCORE.INTER.ROT>
6

>  <SCORE.INTER.SOLV>
16.8428

>  <SCORE.INTER.VDW>
-18.6631

>  <SCORE.INTER.norm>
-0.263653

>  <SCORE.INTRA>
-4.30217

>  <SCORE.INTRA.DIHEDRAL>
-9.84551

>  <SCORE.INTRA.DIHEDRAL.0>
14.7001

>  <SCORE.INTRA.POLAR>
0

>  <SCORE.INTRA.POLAR.0>
0

>  <SCORE.INTRA.REPUL>
0

>  <SCORE.INTRA.REPUL.0>
0

>  <SCORE.INTRA.SOLV>
-0.735019

>  <SCORE.INTRA.SOLV.lig_0>
-65.3082

>  <SCORE.INTRA.VDW>
0.988095

>  <SCORE.INTRA.VDW.0>
-4.21408

>  <SCORE.INTRA.norm>
-0.13878

>  <SCORE.RESTR>
0

>  <SCORE.RESTR.CAVITY>
0

>  <SCORE.RESTR.norm>
0

>  <SCORE.SYSTEM>
0

>  <SCORE.SYSTEM.CONST>
0

>  <SCORE.SYSTEM.DIHEDRAL>
0

>  <SCORE.SYSTEM.SOLV>
0

>  <SCORE.SYSTEM.norm>
0

>  <SCORE.heavy>
31

>  <SCORE.norm>
-0.402432

>  <RMSD>
8.169

$$$$
ligand
 OpenBabel11021811493D
libRbt.so/2013.1/901 2013/11/27
 31 33  0  0  0  0  0  0  0  0999 V2000
   -0.7162   10.7712   40.8396 C   0  0  2  0  0  0  0  0  0  0  0  0
   -1.4435   11.7185   40.0813 O   0  0  0  0  0  0  0  0  0  0  0  0
   -0.9305   15.7438   38.8187 C   0  0  2  0  0  0  0  0  0  0  0  0
   -0.6708   17.1421   38.8822 N   0  0  0  0  0  0  0  0  0  0  0  0
    1.4677   14.8564   37.0149 C   0  0  2  0  0  0  0  0  0  0  0  0
   -1.1135    9.3188   40.3290 C   0  0  2  0  0  0  0  0  0  0  0  0
   -0.8238    9.2171   38.9027 N   0  0  0  0  0  0  0  0  0  0  0  0
   -2.1511   15.4191   39.7905 C   0  0  0  0  0  0  0  0  0  0  0  0
    2.8747   15.3180   36.5062 C   0  0  2  0  0  0  0  0  0  0  0  0
    3.8658   14.7323   37.3234 O   0  0  0  0  0  0  0  0  0  0  0  0
   -2.6308    9.0258   40.6220 C   0  0  0  0  0  0  0  0  0  0  0  0
   -2.4503   13.8663   39.7071 C   0  0  2  0  0  0  0  0  0  0  0  0
   -3.5757   13.5510   40.5878 N   0  0  0  0  0  0  0  0  0  0  0  0
    2.9423   16.8868   36.5816 C   0  0  1  0  0  0  0  0  0  0  0  0
    4.2861   17.3562   36.1143 N   0  0  0  0  0  0  0  0  0  0  0  0
   -3.0765    9.5869   42.0371 C   0  0  0  0  0  0  0  0  0  0  0  0
   -1.1617   13.0698   40.1678 C   0  0  2  0  0  0  0  0  0  0  0  0
    1.7888   17.5087   35.6169 C   0  0  1  0  0  0  0  0  0  0  0  0
    1.9367   17.1364   34.2609 O   0  0  0  0  0  0  0  0  0  0  0  0
   -2.2894   10.4438   42.7320 C   0  0  1  0  0  0  0  0  0  0  0  0
   -1.0237   10.9002   42.2631 O   0  0  0  0  0  0  0  0  0  0  0  0
    0.0527   13.4180   39.2098 C   0  0  2  0  0  0  0  0  0  0  0  0
    1.2250   12.6996   39.6456 O   0  0  0  0  0  0  0  0  0  0  0  0
    0.3942   17.0133   36.1041 C   0  0  0  0  0  0  0  0  0  0  0  0
    0.3776   15.4959   36.1721 O   0  0  0  0  0  0  0  0  0  0  0  0
   -2.6801   11.0060   44.0779 C   0  0  0  0  0  0  0  0  0  0  0  0
   -3.9895   11.5923   43.9149 O   0  0  0  0  0  0  0  0  0  0  0  0
    0.3438   14.9652   39.2889 C   0  0  1  0  0  0  0  0  0  0  0  0
    1.4185   15.2502   38.4283 O   0  0  0  0  0  0  0  0  0  0  0  0
    1.7312   19.0418   35.5983 C   0  0  0  0  0  0  0  0  0  0  0  0
    5.0816   18.1341   37.0866 C   0  0  0  0  0  0  0  0  0  0  0  0
  1  2  1  6  0  0  0
  1  6  1  0  0  0  0
  1 21  1  0  0  0  0
  3  4  1  1  0  0  0
  3  8  1  0  0  0  0
  3 28  1  0  0  0  0
  5  9  1  0  0  0  0
  5 25  1  0  0  0  0
  5 29  1  1  0  0  0
  6  7  1  6  0  0  0
  6 11  1  0  0  0  0
  8 12  1  0  0  0  0
  9 10  1  1  0  0  0
  9 14  1  0  0  0  0
 11 16  1  0  0  0  0
 12 13  1  1  0  0  0
 12 17  1  0  0  0  0
 14 15  1  6  0  0  0
 14 18  1  0  0  0  0
 15 31  1  0  0  0  0
 16 20  1  0  0  0  0
 17  2  1  6  0  0  0
 17 22  1  0  0  0  0
 18 19  1  6  0  0  0
 18 24  1  0  0  0  0
 18 30  1  0  0  0  0
 20 21  1  0  0  0  0
 20 26  1  6  0  0  0
 22 23  1  1  0  0  0
 22 28  1  0  0  0  0
 24 25  1  0  0  0  0
 26 27  1  0  0  0  0
 28 29  1  6  0  0  0
M  END
>  <CHROM.1>
-170.51226342,-176.90013984,-120.71086230,-157.40232015,-53.19613816,-65.94972201
-0.00968301,13.94812278,38.98936610,-2.19783740,0.55958822,-0.35232603

>  <Name>
ligand

>  <RI>
0

>  <Rbt.Current_Directory>
/home/itssahil/PROJECTS/Mol_Feturizer/New_Systems/rnas/4GPY

>  <Rbt.Executable>
rbdock ($Id: //depot/dev/client3/rdock/2013.1/src/exe/rbdock.cxx#4 $)

>  <Rbt.Library>
libRbt.so (2013.1, Build901 2013/11/27)

>  <Rbt.Parameter_File>
/export/apps/rDock/src/rDock_2013.1_src/data/scripts/dock_solv.prm

>  <Rbt.Receptor>
prm/pocket_docking_3.prm

>  <SCORE>
-11.6582

>  <SCORE.INTER>
-9.7681

>  <SCORE.INTER.CONST>
1

>  <SCORE.INTER.POLAR>
0

>  <SCORE.INTER.ROT>
6

>  <SCORE.INTER.SOLV>
16.073

>  <SCORE.INTER.VDW>
-19.4697

>  <SCORE.INTER.norm>
-0.3151

>  <SCORE.INTRA>
-1.97972

>  <SCORE.INTRA.DIHEDRAL>
-7.05794

>  <SCORE.INTRA.DIHEDRAL.0>
14.7001

>  <SCORE.INTRA.POLAR>
0

>  <SCORE.INTRA.POLAR.0>
0

>  <SCORE.INTRA.REPUL>
0

>  <SCORE.INTRA.REPUL.0>
0

>  <SCORE.INTRA.SOLV>
1.17226

>  <SCORE.INTRA.SOLV.lig_0>
-65.3082

>  <SCORE.INTRA.VDW>
0.963115

>  <SCORE.INTRA.VDW.0>
-4.21408

>  <SCORE.INTRA.norm>
-0.0638621

>  <SCORE.RESTR>
0.0895973

>  <SCORE.RESTR.CAVITY>
0.0895973

>  <SCORE.RESTR.norm>
0.00289024

>  <SCORE.SYSTEM>
0

>  <SCORE.SYSTEM.CONST>
0

>  <SCORE.SYSTEM.DIHEDRAL>
0

>  <SCORE.SYSTEM.SOLV>
0

>  <SCORE.SYSTEM.norm>
0

>  <SCORE.heavy>
31

>  <SCORE.norm>
-0.376072

>  <RMSD>
8.181

$$$$
ligand
 OpenBabel11021811493D
libRbt.so/2013.1/901 2013/11/27
 31 33  0  0  0  0  0  0  0  0999 V2000
   -0.8059   10.4364   39.0575 C   0  0  2  0  0  0  0  0  0  0  0  0
   -1.6190   11.5663   38.8054 O   0  0  0  0  0  0  0  0  0  0  0  0
   -0.8127   15.7373   38.6906 C   0  0  2  0  0  0  0  0  0  0  0  0
   -0.4693   17.0453   39.1354 N   0  0  0  0  0  0  0  0  0  0  0  0
    1.6959   14.9741   36.7845 C   0  0  2  0  0  0  0  0  0  0  0  0
   -1.4540    9.1862   38.3192 C   0  0  2  0  0  0  0  0  0  0  0  0
   -1.5623    9.4755   36.8934 N   0  0  0  0  0  0  0  0  0  0  0  0
   -2.0851   15.2483   39.5163 C   0  0  0  0  0  0  0  0  0  0  0  0
    3.0800   15.6169   36.4348 C   0  0  2  0  0  0  0  0  0  0  0  0
    4.0685   15.0404   37.2616 O   0  0  0  0  0  0  0  0  0  0  0  0
   -2.8598    8.8468   38.9376 C   0  0  0  0  0  0  0  0  0  0  0  0
   -2.4767   13.8000   39.0097 C   0  0  2  0  0  0  0  0  0  0  0  0
   -3.6504   13.3380   39.7519 N   0  0  0  0  0  0  0  0  0  0  0  0
    2.9845   17.1677   36.6745 C   0  0  1  0  0  0  0  0  0  0  0  0
    4.3024   17.8078   36.3616 N   0  0  0  0  0  0  0  0  0  0  0  0
   -2.8626    9.0045   40.5159 C   0  0  0  0  0  0  0  0  0  0  0  0
   -1.2573   12.8214   39.2599 C   0  0  2  0  0  0  0  0  0  0  0  0
    1.8409   17.7810   35.6926 C   0  0  1  0  0  0  0  0  0  0  0  0
    2.1151   17.5737   34.3211 O   0  0  0  0  0  0  0  0  0  0  0  0
   -1.8455    9.6257   41.1610 C   0  0  1  0  0  0  0  0  0  0  0  0
   -0.7129   10.1742   40.4928 O   0  0  0  0  0  0  0  0  0  0  0  0
    0.0098   13.3297   38.4539 C   0  0  2  0  0  0  0  0  0  0  0  0
    1.1190   12.4410   38.6993 O   0  0  0  0  0  0  0  0  0  0  0  0
    0.4739   17.1081   36.0185 C   0  0  0  0  0  0  0  0  0  0  0  0
    0.6054   15.5974   35.9302 O   0  0  0  0  0  0  0  0  0  0  0  0
   -1.8138    9.8026   42.6604 C   0  0  0  0  0  0  0  0  0  0  0  0
   -2.9854    9.1366   43.1785 O   0  0  0  0  0  0  0  0  0  0  0  0
    0.3933   14.7744   38.9547 C   0  0  1  0  0  0  0  0  0  0  0  0
    1.5137   15.2055   38.2227 O   0  0  0  0  0  0  0  0  0  0  0  0
    1.6310   19.2949   35.8258 C   0  0  0  0  0  0  0  0  0  0  0  0
    5.2357   17.9708   37.4955 C   0  0  0  0  0  0  0  0  0  0  0  0
  1  2  1  1  0  0  0
  1  6  1  0  0  0  0
  1 21  1  0  0  0  0
  3  4  1  1  0  0  0
  3  8  1  0  0  0  0
  3 28  1  0  0  0  0
  5  9  1  0  0  0  0
  5 25  1  0  0  0  0
  5 29  1  1  0  0  0
  6  7  1  6  0  0  0
  6 11  1  0  0  0  0
  8 12  1  0  0  0  0
  9 10  1  1  0  0  0
  9 14  1  0  0  0  0
 11 16  1  0  0  0  0
 12 13  1  1  0  0  0
 12 17  1  0  0  0  0
 14 15  1  6  0  0  0
 14 18  1  0  0  0  0
 15 31  1  0  0  0  0
 16 20  1  0  0  0  0
 17  2  1  6  0  0  0
 17 22  1  0  0  0  0
 18 19  1  6  0  0  0
 18 24  1  0  0  0  0
 18 30  1  0  0  0  0
 20 21  1  0  0  0  0
 20 26  1  6  0  0  0
 22 23  1  1  0  0  0
 22 28  1  0  0  0  0
 24 25  1  0  0  0  0
 26 27  1  0  0  0  0
 28 29  1  6  0  0  0
M  END
>  <CHROM.1>
-176.17146777,-179.46505042,-92.62594800,-171.29859739,3.07734423,-78.01380372
0.08425364,13.76945894,38.34218726,-2.15867362,0.47297303,-0.20747555

>  <Name>
ligand

>  <RI>
0

>  <Rbt.Current_Directory>
/home/itssahil/PROJECTS/Mol_Feturizer/New_Systems/rnas/4GPY

>  <Rbt.Executable>
rbdock ($Id: //depot/dev/client3/rdock/2013.1/src/exe/rbdock.cxx#4 $)

>  <Rbt.Library>
libRbt.so (2013.1, Build901 2013/11/27)

>  <Rbt.Parameter_File>
/export/apps/rDock/src/rDock_2013.1_src/data/scripts/dock_solv.prm

>  <Rbt.Receptor>
prm/pocket_docking_4.prm

>  <SCORE>
-14.8231

>  <SCORE.INTER>
-11.995

>  <SCORE.INTER.CONST>
1

>  <SCORE.INTER.POLAR>
0

>  <SCORE.INTER.ROT>
6

>  <SCORE.INTER.SOLV>
17.4262

>  <SCORE.INTER.VDW>
-21.4054

>  <SCORE.INTER.norm>
-0.386936

>  <SCORE.INTRA>
-2.8281

>  <SCORE.INTRA.DIHEDRAL>
-10.3917

>  <SCORE.INTRA.DIHEDRAL.0>
14.7001

>  <SCORE.INTRA.POLAR>
0

>  <SCORE.INTRA.POLAR.0>
0

>  <SCORE.INTRA.REPUL>
0

>  <SCORE.INTRA.REPUL.0>
0

>  <SCORE.INTRA.SOLV>
-0.523013

>  <SCORE.INTRA.SOLV.lig_0>
-65.3082

>  <SCORE.INTRA.VDW>
2.62927

>  <SCORE.INTRA.VDW.0>
-4.21408

>  <SCORE.INTRA.norm>
-0.091229

>  <SCORE.RESTR>
0

>  <SCORE.RESTR.CAVITY>
0

>  <SCORE.RESTR.norm>
0

>  <SCORE.SYSTEM>
0

>  <SCORE.SYSTEM.CONST>
0

>  <SCORE.SYSTEM.DIHEDRAL>
0

>  <SCORE.SYSTEM.SOLV>
0

>  <SCORE.SYSTEM.norm>
0

>  <SCORE.heavy>
31

>  <SCORE.norm>
-0.478165

>  <RMSD>
8.188

$$$$
ligand
 OpenBabel11021811493D
libRbt.so/2013.1/901 2013/11/27
 31 33  0  0  0  0  0  0  0  0999 V2000
   -2.1046   17.4127   41.6467 C   0  0  2  0  0  0  0  0  0  0  0  0
   -1.7800   16.0414   41.5227 O   0  0  0  0  0  0  0  0  0  0  0  0
    0.1014   13.8111   38.4330 C   0  0  2  0  0  0  0  0  0  0  0  0
    0.3046   13.1810   37.1726 N   0  0  0  0  0  0  0  0  0  0  0  0
    1.4707   15.7336   36.2291 C   0  0  2  0  0  0  0  0  0  0  0  0
   -2.0053   17.8075   43.1837 C   0  0  2  0  0  0  0  0  0  0  0  0
   -0.6593   17.5177   43.6663 N   0  0  0  0  0  0  0  0  0  0  0  0
   -1.2239   13.2100   39.0826 C   0  0  0  0  0  0  0  0  0  0  0  0
    2.9709   16.1730   36.1432 C   0  0  2  0  0  0  0  0  0  0  0  0
    3.7251   15.3856   37.0400 O   0  0  0  0  0  0  0  0  0  0  0  0
   -3.0876   17.0350   44.0239 C   0  0  0  0  0  0  0  0  0  0  0  0
   -1.4405   13.8993   40.4917 C   0  0  2  0  0  0  0  0  0  0  0  0
   -2.6501   13.3522   41.1077 N   0  0  0  0  0  0  0  0  0  0  0  0
    3.0667   17.6965   36.5192 C   0  0  1  0  0  0  0  0  0  0  0  0
    4.4962   18.1410   36.4600 N   0  0  0  0  0  0  0  0  0  0  0  0
   -4.4706   16.9358   43.2536 C   0  0  0  0  0  0  0  0  0  0  0  0
   -1.5982   15.4606   40.2808 C   0  0  2  0  0  0  0  0  0  0  0  0
    2.1902   18.5566   35.4514 C   0  0  1  0  0  0  0  0  0  0  0  0
    2.6398   18.4133   34.1185 O   0  0  0  0  0  0  0  0  0  0  0  0
   -4.5643   17.2425   41.9369 C   0  0  1  0  0  0  0  0  0  0  0  0
   -3.4556   17.6726   41.1520 O   0  0  0  0  0  0  0  0  0  0  0  0
   -0.2848   16.0449   39.6121 C   0  0  2  0  0  0  0  0  0  0  0  0
   -0.4432   17.4642   39.4104 O   0  0  0  0  0  0  0  0  0  0  0  0
    0.7060   18.0866   35.5133 C   0  0  0  0  0  0  0  0  0  0  0  0
    0.6279   16.5854   35.2955 O   0  0  0  0  0  0  0  0  0  0  0  0
   -5.8597   17.1542   41.1659 C   0  0  0  0  0  0  0  0  0  0  0  0
   -6.1001   18.4662   40.6129 O   0  0  0  0  0  0  0  0  0  0  0  0
   -0.0672   15.3520   38.2129 C   0  0  1  0  0  0  0  0  0  0  0  0
    1.1043   15.8810   37.6430 O   0  0  0  0  0  0  0  0  0  0  0  0
    2.1853   20.0701   35.7027 C   0  0  0  0  0  0  0  0  0  0  0  0
    5.2826   17.9813   37.7007 C   0  0  0  0  0  0  0  0  0  0  0  0
  1  2  1  1  0  0  0
  1  6  1  0  0  0  0
  1 21  1  0  0  0  0
  3  4  1  6  0  0  0
  3  8  1  0  0  0  0
  3 28  1  0  0  0  0
  5  9  1  0  0  0  0
  5 25  1  0  0  0  0
  5 29  1  1  0  0  0
  6  7  1  1  0  0  0
  6 11  1  0  0  0  0
  8 12  1  0  0  0  0
  9 10  1  1  0  0  0
  9 14  1  0  0  0  0
 11 16  1  0  0  0  0
 12 13  1  6  0  0  0
 12 17  1  0  0  0  0
 14 15  1  6  0  0  0
 14 18  1  0  0  0  0
 15 31  1  0  0  0  0
 16 20  1  0  0  0  0
 17  2  1  1  0  0  0
 17 22  1  0  0  0  0
 18 19  1  6  0  0  0
 18 24  1  0  0  0  0
 18 30  1  0  0  0  0
 20 21  1  0  0  0  0
 20 26  1  6  0  0  0
 22 23  1  6  0  0  0
 22 28  1  0  0  0  0
 24 25  1  0  0  0  0
 26 27  1  0  0  0  0
 28 29  1  1  0  0  0
M  END
>  <CHROM.1>
-170.78411799,-167.00534195,-88.62236497,-172.62398066,122.66204663,76.68652472
-0.34795772,16.60333248,38.99884585,3.03460353,-0.75102616,3.07520716

>  <Name>
ligand

>  <RI>
0

>  <Rbt.Current_Directory>
/home/itssahil/PROJECTS/Mol_Feturizer/New_Systems/rnas/4GPY

>  <Rbt.Executable>
rbdock ($Id: //depot/dev/client3/rdock/2013.1/src/exe/rbdock.cxx#4 $)

>  <Rbt.Library>
libRbt.so (2013.1, Build901 2013/11/27)

>  <Rbt.Parameter_File>
/export/apps/rDock/src/rDock_2013.1_src/data/scripts/dock_solv.prm

>  <Rbt.Receptor>
prm/pocket_docking_5.prm

>  <SCORE>
-13.3456

>  <SCORE.INTER>
-9.09523

>  <SCORE.INTER.CONST>
1

>  <SCORE.INTER.POLAR>
0

>  <SCORE.INTER.ROT>
6

>  <SCORE.INTER.SOLV>
15.0997

>  <SCORE.INTER.VDW>
-18.6967

>  <SCORE.INTER.norm>
-0.293394

>  <SCORE.INTRA>
-4.2504

>  <SCORE.INTRA.DIHEDRAL>
-9.68006

>  <SCORE.INTRA.DIHEDRAL.0>
14.7001

>  <SCORE.INTRA.POLAR>
0

>  <SCORE.INTRA.POLAR.0>
0

>  <SCORE.INTRA.REPUL>
0

>  <SCORE.INTRA.REPUL.0>
0

>  <SCORE.INTRA.SOLV>
-1.39825

>  <SCORE.INTRA.SOLV.lig_0>
-65.3082

>  <SCORE.INTRA.VDW>
1.28875

>  <SCORE.INTRA.VDW.0>
-4.21408

>  <SCORE.INTRA.norm>
-0.13711

>  <SCORE.RESTR>
0

>  <SCORE.RESTR.CAVITY>
0

>  <SCORE.RESTR.norm>
0

>  <SCORE.SYSTEM>
0

>  <SCORE.SYSTEM.CONST>
0

>  <SCORE.SYSTEM.DIHEDRAL>
0

>  <SCORE.SYSTEM.SOLV>
0

>  <SCORE.SYSTEM.norm>
0

>  <SCORE.heavy>
31

>  <SCORE.norm>
-0.430504

>  <RMSD>
8.191

$$$$
ligand
 OpenBabel11021811493D
libRbt.so/2013.1/901 2013/11/27
 31 33  0  0  0  0  0  0  0  0999 V2000
   -1.7114   12.6814   44.2047 C   0  0  2  0  0  0  0  0  0  0  0  0
   -1.7856   11.3748   43.6676 O   0  0  0  0  0  0  0  0  0  0  0  0
   -1.1078    9.8272   39.7682 C   0  0  2  0  0  0  0  0  0  0  0  0
   -1.2904    9.5773   38.3786 N   0  0  0  0  0  0  0  0  0  0  0  0
    0.4140   11.8057   37.8501 C   0  0  2  0  0  0  0  0  0  0  0  0
   -1.4335   12.5596   45.7655 C   0  0  2  0  0  0  0  0  0  0  0  0
   -0.1991   11.8107   45.9749 N   0  0  0  0  0  0  0  0  0  0  0  0
   -2.4235    9.3588   40.5357 C   0  0  0  0  0  0  0  0  0  0  0  0
    1.8973   12.2289   37.5817 C   0  0  2  0  0  0  0  0  0  0  0  0
    2.7534   11.3186   38.2386 O   0  0  0  0  0  0  0  0  0  0  0  0
   -2.6462   11.8683   46.4905 C   0  0  0  0  0  0  0  0  0  0  0  0
   -2.2135    9.6218   42.0831 C   0  0  2  0  0  0  0  0  0  0  0  0
   -3.4102    9.1887   42.8057 N   0  0  0  0  0  0  0  0  0  0  0  0
    2.1064   13.6880   38.1282 C   0  0  1  0  0  0  0  0  0  0  0  0
    3.5242   14.1138   37.8979 N   0  0  0  0  0  0  0  0  0  0  0  0
   -4.0376   12.3546   45.9044 C   0  0  0  0  0  0  0  0  0  0  0  0
   -1.9721   11.1697   42.3127 C   0  0  2  0  0  0  0  0  0  0  0  0
    1.1055   14.6947   37.3327 C   0  0  1  0  0  0  0  0  0  0  0  0
    1.3351   14.7207   35.9378 O   0  0  0  0  0  0  0  0  0  0  0  0
   -4.1052   13.0548   44.7461 C   0  0  1  0  0  0  0  0  0  0  0  0
   -2.9595   13.4077   43.9761 O   0  0  0  0  0  0  0  0  0  0  0  0
   -0.6753   11.6308   41.5257 C   0  0  2  0  0  0  0  0  0  0  0  0
   -0.4717   13.0442   41.7286 O   0  0  0  0  0  0  0  0  0  0  0  0
   -0.3669   14.2443   37.5712 C   0  0  0  0  0  0  0  0  0  0  0  0
   -0.5330   12.7861   37.1795 O   0  0  0  0  0  0  0  0  0  0  0  0
   -5.4096   13.5294   44.1513 C   0  0  0  0  0  0  0  0  0  0  0  0
   -5.3022   14.9626   44.0137 O   0  0  0  0  0  0  0  0  0  0  0  0
   -0.8838   11.3613   39.9866 C   0  0  1  0  0  0  0  0  0  0  0  0
    0.2793   11.7718   39.3116 O   0  0  0  0  0  0  0  0  0  0  0  0
    1.1953   16.1620   37.7720 C   0  0  0  0  0  0  0  0  0  0  0  0
    4.2030   14.7694   39.0349 C   0  0  0  0  0  0  0  0  0  0  0  0
  1  2  1  1  0  0  0
  1  6  1  0  0  0  0
  1 21  1  0  0  0  0
  3  4  1  6  0  0  0
  3  8  1  0  0  0  0
  3 28  1  0  0  0  0
  5  9  1  0  0  0  0
  5 25  1  0  0  0  0
  5 29  1  1  0  0  0
  6  7  1  6  0  0  0
  6 11  1  0  0  0  0
  8 12  1  0  0  0  0
  9 10  1  1  0  0  0
  9 14  1  0  0  0  0
 11 16  1  0  0  0  0
 12 13  1  1  0  0  0
 12 17  1  0  0  0  0
 14 15  1  6  0  0  0
 14 18  1  0  0  0  0
 15 31  1  0  0  0  0
 16 20  1  0  0  0  0
 17  2  1  1  0  0  0
 17 22  1  0  0  0  0
 18 19  1  6  0  0  0
 18 24  1  0  0  0  0
 18 30  1  0  0  0  0
 20 21  1  0  0  0  0
 20 26  1  6  0  0  0
 22 23  1  6  0  0  0
 22 28  1  0  0  0  0
 24 25  1  0  0  0  0
 26 27  1  0  0  0  0
 28 29  1  6  0  0  0
M  END
>  <CHROM.1>
-177.63153367,-176.19993349,-134.46972643,-172.08349253,122.77571339,67.97474130
-0.83429738,12.44727727,41.00769020,-2.88148108,-0.94987926,-2.65019956

>  <Name>
ligand

>  <RI>
0

>  <Rbt.Current_Directory>
/home/itssahil/PROJECTS/Mol_Feturizer/New_Systems/rnas/4GPY

>  <Rbt.Executable>
rbdock ($Id: //depot/dev/client3/rdock/2013.1/src/exe/rbdock.cxx#4 $)

>  <Rbt.Library>
libRbt.so (2013.1, Build901 2013/11/27)

>  <Rbt.Parameter_File>
/export/apps/rDock/src/rDock_2013.1_src/data/scripts/dock_solv.prm

>  <Rbt.Receptor>
prm/pocket_docking_8.prm

>  <SCORE>
-8.0099

>  <SCORE.INTER>
-2.91984

>  <SCORE.INTER.CONST>
1

>  <SCORE.INTER.POLAR>
0

>  <SCORE.INTER.ROT>
6

>  <SCORE.INTER.SOLV>
14.5639

>  <SCORE.INTER.VDW>
-14.4012

>  <SCORE.INTER.norm>
-0.0941883

>  <SCORE.INTRA>
-5.09006

>  <SCORE.INTRA.DIHEDRAL>
-11.2521

>  <SCORE.INTRA.DIHEDRAL.0>
14.7001

>  <SCORE.INTRA.POLAR>
0

>  <SCORE.INTRA.POLAR.0>
0

>  <SCORE.INTRA.REPUL>
0

>  <SCORE.INTRA.REPUL.0>
0

>  <SCORE.INTRA.SOLV>
-1.45151

>  <SCORE.INTRA.SOLV.lig_0>
-65.3082

>  <SCORE.INTRA.VDW>
1.26175

>  <SCORE.INTRA.VDW.0>
-4.21408

>  <SCORE.INTRA.norm>
-0.164196

>  <SCORE.RESTR>
0

>  <SCORE.RESTR.CAVITY>
0

>  <SCORE.RESTR.norm>
0

>  <SCORE.SYSTEM>
0

>  <SCORE.SYSTEM.CONST>
0

>  <SCORE.SYSTEM.DIHEDRAL>
0

>  <SCORE.SYSTEM.SOLV>
0

>  <SCORE.SYSTEM.norm>
0

>  <SCORE.heavy>
31

>  <SCORE.norm>
-0.258384

>  <RMSD>
8.195

$$$$
ligand
 OpenBabel11021811493D
libRbt.so/2013.1/901 2013/11/27
 31 33  0  0  0  0  0  0  0  0999 V2000
   -2.7620   13.5675   40.2768 C   0  0  2  0  0  0  0  0  0  0  0  0
   -1.8780   13.9944   41.2954 O   0  0  0  0  0  0  0  0  0  0  0  0
    2.2585   14.9594   41.1613 C   0  0  2  0  0  0  0  0  0  0  0  0
    3.6692   14.7882   41.0742 N   0  0  0  0  0  0  0  0  0  0  0  0
    1.9849   14.7151   37.3533 C   0  0  2  0  0  0  0  0  0  0  0  0
   -4.2432   13.9389   40.7197 C   0  0  2  0  0  0  0  0  0  0  0  0
   -4.3274   15.3770   40.9505 N   0  0  0  0  0  0  0  0  0  0  0  0
    1.7308   14.1202   42.4091 C   0  0  0  0  0  0  0  0  0  0  0  0
    3.1795   15.4161   36.6234 C   0  0  2  0  0  0  0  0  0  0  0  0
    4.3767   15.0855   37.2947 O   0  0  0  0  0  0  0  0  0  0  0  0
   -4.6538   13.1330   42.0065 C   0  0  0  0  0  0  0  0  0  0  0  0
    0.1641   14.3241   42.5153 C   0  0  2  0  0  0  0  0  0  0  0  0
   -0.3372   13.5667   43.6627 N   0  0  0  0  0  0  0  0  0  0  0  0
    2.9356   16.9690   36.6460 C   0  0  1  0  0  0  0  0  0  0  0  0
    4.0734   17.6676   35.9663 N   0  0  0  0  0  0  0  0  0  0  0  0
   -4.1240   11.6386   41.9595 C   0  0  0  0  0  0  0  0  0  0  0  0
   -0.5132   13.8013   41.1829 C   0  0  2  0  0  0  0  0  0  0  0  0
    1.5524   17.2945   35.8529 C   0  0  1  0  0  0  0  0  0  0  0  0
    1.5759   16.8823   34.5006 O   0  0  0  0  0  0  0  0  0  0  0  0
   -3.2051   11.2482   41.0432 C   0  0  1  0  0  0  0  0  0  0  0  0
   -2.6521   12.1250   40.0657 O   0  0  0  0  0  0  0  0  0  0  0  0
    0.0362   14.6257   39.9451 C   0  0  2  0  0  0  0  0  0  0  0  0
   -0.5749   14.1331   38.7350 O   0  0  0  0  0  0  0  0  0  0  0  0
    0.3737   16.5615   36.5606 C   0  0  0  0  0  0  0  0  0  0  0  0
    0.6772   15.0772   36.6705 O   0  0  0  0  0  0  0  0  0  0  0  0
   -2.6701    9.8379   40.9699 C   0  0  0  0  0  0  0  0  0  0  0  0
   -3.1329    9.2865   39.7182 O   0  0  0  0  0  0  0  0  0  0  0  0
    1.5969   14.4272   39.8459 C   0  0  1  0  0  0  0  0  0  0  0  0
    2.0610   15.1711   38.7466 O   0  0  0  0  0  0  0  0  0  0  0  0
    1.1811   18.7823   35.8026 C   0  0  0  0  0  0  0  0  0  0  0  0
    5.0564   18.3285   36.8497 C   0  0  0  0  0  0  0  0  0  0  0  0
  1  2  1  1  0  0  0
  1  6  1  0  0  0  0
  1 21  1  0  0  0  0
  3  4  1  6  0  0  0
  3  8  1  0  0  0  0
  3 28  1  0  0  0  0
  5  9  1  0  0  0  0
  5 25  1  0  0  0  0
  5 29  1  1  0  0  0
  6  7  1  1  0  0  0
  6 11  1  0  0  0  0
  8 12  1  0  0  0  0
  9 10  1  1  0  0  0
  9 14  1  0  0  0  0
 11 16  1  0  0  0  0
 12 13  1  1  0  0  0
 12 17  1  0  0  0  0
 14 15  1  6  0  0  0
 14 18  1  0  0  0  0
 15 31  1  0  0  0  0
 16 20  1  0  0  0  0
 17  2  1  1  0  0  0
 17 22  1  0  0  0  0
 18 19  1  6  0  0  0
 18 24  1  0  0  0  0
 18 30  1  0  0  0  0
 20 21  1  0  0  0  0
 20 26  1  1  0  0  0
 22 23  1  6  0  0  0
 22 28  1  0  0  0  0
 24 25  1  0  0  0  0
 26 27  1  0  0  0  0
 28 29  1  6  0  0  0
M  END
>  <CHROM.1>
179.98651379,-152.00630793,-103.58867395,-177.18246982,113.73732138,160.69830369
0.11462212,14.53291799,39.26069606,2.35758794,0.33148335,2.02418303

>  <Name>
ligand

>  <RI>
0

>  <Rbt.Current_Directory>
/home/itssahil/PROJECTS/Mol_Feturizer/New_Systems/rnas/4GPY

>  <Rbt.Executable>
rbdock ($Id: //depot/dev/client3/rdock/2013.1/src/exe/rbdock.cxx#4 $)

>  <Rbt.Library>
libRbt.so (2013.1, Build901 2013/11/27)

>  <Rbt.Parameter_File>
/export/apps/rDock/src/rDock_2013.1_src/data/scripts/dock_solv.prm

>  <Rbt.Receptor>
prm/pocket_docking_6.prm

>  <SCORE>
-11.4649

>  <SCORE.INTER>
-8.10119

>  <SCORE.INTER.CONST>
1

>  <SCORE.INTER.POLAR>
0

>  <SCORE.INTER.ROT>
6

>  <SCORE.INTER.SOLV>
13.5481

>  <SCORE.INTER.VDW>
-17.5168

>  <SCORE.INTER.norm>
-0.261329

>  <SCORE.INTRA>
-3.3637

>  <SCORE.INTRA.DIHEDRAL>
-7.0225

>  <SCORE.INTRA.DIHEDRAL.0>
14.7001

>  <SCORE.INTRA.POLAR>
0

>  <SCORE.INTRA.POLAR.0>
0

>  <SCORE.INTRA.REPUL>
0

>  <SCORE.INTRA.REPUL.0>
0

>  <SCORE.INTRA.SOLV>
-2.22481

>  <SCORE.INTRA.SOLV.lig_0>
-65.3082

>  <SCORE.INTRA.VDW>
1.25995

>  <SCORE.INTRA.VDW.0>
-4.21408

>  <SCORE.INTRA.norm>
-0.108507

>  <SCORE.RESTR>
0

>  <SCORE.RESTR.CAVITY>
0

>  <SCORE.RESTR.norm>
0

>  <SCORE.SYSTEM>
0

>  <SCORE.SYSTEM.CONST>
0

>  <SCORE.SYSTEM.DIHEDRAL>
0

>  <SCORE.SYSTEM.SOLV>
0

>  <SCORE.SYSTEM.norm>
0

>  <SCORE.heavy>
31

>  <SCORE.norm>
-0.369835

>  <RMSD>
8.205

$$$$
ligand
 OpenBabel11021811493D
libRbt.so/2013.1/901 2013/11/27
 31 33  0  0  0  0  0  0  0  0999 V2000
   -0.9194   11.2895   41.4679 C   0  0  2  0  0  0  0  0  0  0  0  0
   -1.6995   12.2261   40.7499 O   0  0  0  0  0  0  0  0  0  0  0  0
   -0.9754   16.0721   39.0935 C   0  0  2  0  0  0  0  0  0  0  0  0
   -0.6407   17.4538   39.0179 N   0  0  0  0  0  0  0  0  0  0  0  0
    1.3670   14.8786   37.3931 C   0  0  2  0  0  0  0  0  0  0  0  0
   -1.5148    9.8400   41.1984 C   0  0  2  0  0  0  0  0  0  0  0  0
   -1.5027    9.5769   39.7634 N   0  0  0  0  0  0  0  0  0  0  0  0
   -2.2083   15.9120   40.0905 C   0  0  0  0  0  0  0  0  0  0  0  0
    2.7941   15.2133   36.8429 C   0  0  2  0  0  0  0  0  0  0  0  0
    3.7566   14.6642   37.7177 O   0  0  0  0  0  0  0  0  0  0  0  0
   -2.9697    9.7222   41.7844 C   0  0  0  0  0  0  0  0  0  0  0  0
   -2.5907   14.3770   40.1616 C   0  0  2  0  0  0  0  0  0  0  0  0
   -3.7285   14.2120   41.0671 N   0  0  0  0  0  0  0  0  0  0  0  0
    2.9420   16.7761   36.7579 C   0  0  1  0  0  0  0  0  0  0  0  0
    4.3065   17.1260   36.2479 N   0  0  0  0  0  0  0  0  0  0  0  0
   -3.1013   10.4544   43.1853 C   0  0  0  0  0  0  0  0  0  0  0  0
   -1.3453   13.5621   40.7018 C   0  0  2  0  0  0  0  0  0  0  0  0
    1.8187   17.3545   35.7323 C   0  0  1  0  0  0  0  0  0  0  0  0
    1.9432   16.8386   34.4217 O   0  0  0  0  0  0  0  0  0  0  0  0
   -2.1358   11.2939   43.6321 C   0  0  1  0  0  0  0  0  0  0  0  0
   -0.9474   11.5810   42.9003 O   0  0  0  0  0  0  0  0  0  0  0  0
   -0.1172   13.7474   39.7163 C   0  0  2  0  0  0  0  0  0  0  0  0
    1.0163   13.0139   40.2238 O   0  0  0  0  0  0  0  0  0  0  0  0
    0.4022   16.9832   36.2646 C   0  0  0  0  0  0  0  0  0  0  0  0
    0.3084   15.4836   36.4871 O   0  0  0  0  0  0  0  0  0  0  0  0
   -2.2265   12.0154   44.9555 C   0  0  0  0  0  0  0  0  0  0  0  0
   -3.4807   11.6228   45.5535 O   0  0  0  0  0  0  0  0  0  0  0  0
    0.2569   15.2769   39.6414 C   0  0  1  0  0  0  0  0  0  0  0  0
    1.3424   15.4165   38.7587 O   0  0  0  0  0  0  0  0  0  0  0  0
    1.8394   18.8785   35.5572 C   0  0  0  0  0  0  0  0  0  0  0  0
    4.9981   18.2346   36.9380 C   0  0  0  0  0  0  0  0  0  0  0  0
  1  2  1  6  0  0  0
  1  6  1  0  0  0  0
  1 21  1  0  0  0  0
  3  4  1  1  0  0  0
  3  8  1  0  0  0  0
  3 28  1  0  0  0  0
  5  9  1  0  0  0  0
  5 25  1  0  0  0  0
  5 29  1  1  0  0  0
  6  7  1  6  0  0  0
  6 11  1  0  0  0  0
  8 12  1  0  0  0  0
  9 10  1  1  0  0  0
  9 14  1  0  0  0  0
 11 16  1  0  0  0  0
 12 13  1  1  0  0  0
 12 17  1  0  0  0  0
 14 15  1  6  0  0  0
 14 18  1  0  0  0  0
 15 31  1  0  0  0  0
 16 20  1  0  0  0  0
 17  2  1  6  0  0  0
 17 22  1  0  0  0  0
 18 19  1  6  0  0  0
 18 24  1  0  0  0  0
 18 30  1  0  0  0  0
 20 21  1  0  0  0  0
 20 26  1  6  0  0  0
 22 23  1  1  0  0  0
 22 28  1  0  0  0  0
 24 25  1  0  0  0  0
 26 27  1  0  0  0  0
 28 29  1  6  0  0  0
M  END
>  <CHROM.1>
-174.35596700,-176.94317622,-136.81278716,-165.45111815,-0.22956958,-66.13175522
-0.07355164,14.23060002,39.48605845,-2.20076571,0.58108330,-0.46545933

>  <Name>
ligand

>  <RI>
0

>  <Rbt.Current_Directory>
/home/itssahil/PROJECTS/Mol_Feturizer/New_Systems/rnas/4GPY

>  <Rbt.Executable>
rbdock ($Id: //depot/dev/client3/rdock/2013.1/src/exe/rbdock.cxx#4 $)

>  <Rbt.Library>
libRbt.so (2013.1, Build901 2013/11/27)

>  <Rbt.Parameter_File>
/export/apps/rDock/src/rDock_2013.1_src/data/scripts/dock_solv.prm

>  <Rbt.Receptor>
prm/pocket_docking_7.prm

>  <SCORE>
-13.6737

>  <SCORE.INTER>
-10.8468

>  <SCORE.INTER.CONST>
1

>  <SCORE.INTER.POLAR>
0

>  <SCORE.INTER.ROT>
6

>  <SCORE.INTER.SOLV>
15.3297

>  <SCORE.INTER.VDW>
-19.9411

>  <SCORE.INTER.norm>
-0.349897

>  <SCORE.INTRA>
-2.82693

>  <SCORE.INTRA.DIHEDRAL>
-10.6479

>  <SCORE.INTRA.DIHEDRAL.0>
14.7001

>  <SCORE.INTRA.POLAR>
0

>  <SCORE.INTRA.POLAR.0>
0

>  <SCORE.INTRA.REPUL>
0

>  <SCORE.INTRA.REPUL.0>
0

>  <SCORE.INTRA.SOLV>
0.174308

>  <SCORE.INTRA.SOLV.lig_0>
-65.3082

>  <SCORE.INTRA.VDW>
2.40988

>  <SCORE.INTRA.VDW.0>
-4.21408

>  <SCORE.INTRA.norm>
-0.0911913

>  <SCORE.RESTR>
0

>  <SCORE.RESTR.CAVITY>
0

>  <SCORE.RESTR.norm>
0

>  <SCORE.SYSTEM>
0

>  <SCORE.SYSTEM.CONST>
0

>  <SCORE.SYSTEM.DIHEDRAL>
0

>  <SCORE.SYSTEM.SOLV>
0

>  <SCORE.SYSTEM.norm>
0

>  <SCORE.heavy>
31

>  <SCORE.norm>
-0.441089

>  <RMSD>
8.209

$$$$
ligand
 OpenBabel11021811493D
libRbt.so/2013.1/901 2013/11/27
 31 33  0  0  0  0  0  0  0  0999 V2000
    3.5021   13.6865   36.3471 C   0  0  2  0  0  0  0  0  0  0  0  0
    2.1751   13.9241   36.7762 O   0  0  0  0  0  0  0  0  0  0  0  0
   -0.1014   17.2526   38.1173 C   0  0  2  0  0  0  0  0  0  0  0  0
   -0.4718   18.4032   38.8694 N   0  0  0  0  0  0  0  0  0  0  0  0
    2.1278   19.3485   35.8011 C   0  0  2  0  0  0  0  0  0  0  0  0
    4.0861   12.4742   37.1941 C   0  0  2  0  0  0  0  0  0  0  0  0
    3.2329   11.3054   37.0079 N   0  0  0  0  0  0  0  0  0  0  0  0
    0.1154   16.0428   39.1317 C   0  0  0  0  0  0  0  0  0  0  0  0
    1.7787   20.8629   35.9915 C   0  0  2  0  0  0  0  0  0  0  0  0
    1.6287   21.1227   37.3710 O   0  0  0  0  0  0  0  0  0  0  0  0
    4.1922   12.8626   38.7146 C   0  0  0  0  0  0  0  0  0  0  0  0
    0.5113   14.7592   38.2932 C   0  0  2  0  0  0  0  0  0  0  0  0
    0.7060   13.6345   39.2090 N   0  0  0  0  0  0  0  0  0  0  0  0
    0.4457   21.1687   35.2161 C   0  0  1  0  0  0  0  0  0  0  0  0
    0.0789   22.6104   35.3940 N   0  0  0  0  0  0  0  0  0  0  0  0
    4.6860   14.3575   38.9075 C   0  0  0  0  0  0  0  0  0  0  0  0
    1.8523   15.0545   37.5046 C   0  0  2  0  0  0  0  0  0  0  0  0
    0.6765   20.8626   33.6346 C   0  0  1  0  0  0  0  0  0  0  0  0
    1.6998   21.6503   33.0586 O   0  0  0  0  0  0  0  0  0  0  0  0
    4.7217   15.2248   37.8668 C   0  0  1  0  0  0  0  0  0  0  0  0
    4.3307   14.8752   36.5420 O   0  0  0  0  0  0  0  0  0  0  0  0
    1.6333   16.2747   36.5162 C   0  0  2  0  0  0  0  0  0  0  0  0
    2.8633   16.5456   35.8134 O   0  0  0  0  0  0  0  0  0  0  0  0
    1.0629   19.3638   33.4559 C   0  0  0  0  0  0  0  0  0  0  0  0
    2.2658   19.0315   34.3219 O   0  0  0  0  0  0  0  0  0  0  0  0
    5.1780   16.6571   38.0101 C   0  0  0  0  0  0  0  0  0  0  0  0
    3.9836   17.4608   38.1209 O   0  0  0  0  0  0  0  0  0  0  0  0
    1.2320   17.5493   37.3524 C   0  0  1  0  0  0  0  0  0  0  0  0
    1.0378   18.6146   36.4555 O   0  0  0  0  0  0  0  0  0  0  0  0
   -0.5530   21.1103   32.7510 C   0  0  0  0  0  0  0  0  0  0  0  0
   -0.5849   22.9641   36.6659 C   0  0  0  0  0  0  0  0  0  0  0  0
  1  2  1  1  0  0  0
  1  6  1  0  0  0  0
  1 21  1  0  0  0  0
  3  4  1  1  0  0  0
  3  8  1  0  0  0  0
  3 28  1  0  0  0  0
  5  9  1  0  0  0  0
  5 25  1  0  0  0  0
  5 29  1  6  0  0  0
  6  7  1  1  0  0  0
  6 11  1  0  0  0  0
  8 12  1  0  0  0  0
  9 10  1  1  0  0  0
  9 14  1  0  0  0  0
 11 16  1  0  0  0  0
 12 13  1  1  0  0  0
 12 17  1  0  0  0  0
 14 15  1  6  0  0  0
 14 18  1  0  0  0  0
 15 31  1  0  0  0  0
 16 20  1  0  0  0  0
 17  2  1  6  0  0  0
 17 22  1  0  0  0  0
 18 19  1  6  0  0  0
 18 24  1  0  0  0  0
 18 30  1  0  0  0  0
 20 21  1  0  0  0  0
 20 26  1  1  0  0  0
 22 23  1  1  0  0  0
 22 28  1  0  0  0  0
 24 25  1  0  0  0  0
 26 27  1  0  0  0  0
 28 29  1  6  0  0  0
M  END
>  <CHROM.1>
109.21206353,-132.35455701,-80.05557678,-157.93312246,-98.62877180,165.80848533
1.95200332,17.36653509,36.63482360,-1.12300648,0.75651216,-0.68651264

>  <Name>
ligand

>  <RI>
0

>  <Rbt.Current_Directory>
/home/itssahil/PROJECTS/Mol_Feturizer/New_Systems/rnas/4GPY

>  <Rbt.Executable>
rbdock ($Id: //depot/dev/client3/rdock/2013.1/src/exe/rbdock.cxx#4 $)

>  <Rbt.Library>
libRbt.so (2013.1, Build901 2013/11/27)

>  <Rbt.Parameter_File>
/export/apps/rDock/src/rDock_2013.1_src/data/scripts/dock_solv.prm

>  <Rbt.Receptor>
prm/blind_docking_100.prm

>  <SCORE>
10.5547

>  <SCORE.INTER>
0.922849

>  <SCORE.INTER.CONST>
1

>  <SCORE.INTER.POLAR>
0

>  <SCORE.INTER.ROT>
6

>  <SCORE.INTER.SOLV>
19.4808

>  <SCORE.INTER.VDW>
-13.4784

>  <SCORE.INTER.norm>
0.0297693

>  <SCORE.INTRA>
5.51953

>  <SCORE.INTRA.DIHEDRAL>
4.03849

>  <SCORE.INTRA.DIHEDRAL.0>
14.7001

>  <SCORE.INTRA.POLAR>
0

>  <SCORE.INTRA.POLAR.0>
0

>  <SCORE.INTRA.REPUL>
0

>  <SCORE.INTRA.REPUL.0>
0

>  <SCORE.INTRA.SOLV>
1.67

>  <SCORE.INTRA.SOLV.lig_0>
-65.3082

>  <SCORE.INTRA.VDW>
2.66528

>  <SCORE.INTRA.VDW.0>
-4.21408

>  <SCORE.INTRA.norm>
0.178049

>  <SCORE.RESTR>
4.11229

>  <SCORE.RESTR.CAVITY>
4.11229

>  <SCORE.RESTR.norm>
0.132655

>  <SCORE.SYSTEM>
0

>  <SCORE.SYSTEM.CONST>
0

>  <SCORE.SYSTEM.DIHEDRAL>
0

>  <SCORE.SYSTEM.SOLV>
0

>  <SCORE.SYSTEM.norm>
0

>  <SCORE.heavy>
31

>  <SCORE.norm>
0.340473

>  <RMSD>
8.212

$$$$
ligand
 OpenBabel11021811493D
libRbt.so/2013.1/901 2013/11/27
 31 33  0  0  0  0  0  0  0  0999 V2000
   -2.0706   17.4413   41.6352 C   0  0  2  0  0  0  0  0  0  0  0  0
   -1.7114   16.0774   41.5243 O   0  0  0  0  0  0  0  0  0  0  0  0
    0.1974   13.8413   38.4558 C   0  0  2  0  0  0  0  0  0  0  0  0
    0.4086   13.2023   37.2012 N   0  0  0  0  0  0  0  0  0  0  0  0
    1.5397   15.7696   36.2326 C   0  0  2  0  0  0  0  0  0  0  0  0
   -1.9924   17.8501   43.1697 C   0  0  2  0  0  0  0  0  0  0  0  0
   -0.6433   17.5973   43.6643 N   0  0  0  0  0  0  0  0  0  0  0  0
   -1.1211   13.2308   39.1102 C   0  0  0  0  0  0  0  0  0  0  0  0
    3.0307   16.2376   36.1383 C   0  0  2  0  0  0  0  0  0  0  0  0
    3.8040   15.4685   37.0348 O   0  0  0  0  0  0  0  0  0  0  0  0
   -3.0616   17.0577   44.0081 C   0  0  0  0  0  0  0  0  0  0  0  0
   -1.3465   13.9302   40.5129 C   0  0  2  0  0  0  0  0  0  0  0  0
   -2.5500   13.3747   41.1332 N   0  0  0  0  0  0  0  0  0  0  0  0
    3.0986   17.7641   36.5079 C   0  0  1  0  0  0  0  0  0  0  0  0
    4.5190   18.2360   36.4406 N   0  0  0  0  0  0  0  0  0  0  0  0
   -4.4360   16.9185   43.2285 C   0  0  0  0  0  0  0  0  0  0  0  0
   -1.5222   15.4876   40.2878 C   0  0  2  0  0  0  0  0  0  0  0  0
    2.2010   18.6028   35.4407 C   0  0  1  0  0  0  0  0  0  0  0  0
    2.6474   18.4630   34.1064 O   0  0  0  0  0  0  0  0  0  0  0  0
   -4.5274   17.2127   41.9088 C   0  0  1  0  0  0  0  0  0  0  0  0
   -3.4239   17.6640   41.1286 O   0  0  0  0  0  0  0  0  0  0  0  0
   -0.2153   16.0810   39.6144 C   0  0  2  0  0  0  0  0  0  0  0  0
   -0.3901   17.4965   39.3999 O   0  0  0  0  0  0  0  0  0  0  0  0
    0.7264   18.1045   35.5110 C   0  0  0  0  0  0  0  0  0  0  0  0
    0.6764   16.6012   35.2994 O   0  0  0  0  0  0  0  0  0  0  0  0
   -5.8145   17.0865   41.1292 C   0  0  0  0  0  0  0  0  0  0  0  0
   -6.1205   18.4039   40.6235 O   0  0  0  0  0  0  0  0  0  0  0  0
    0.0111   15.3781   38.2217 C   0  0  1  0  0  0  0  0  0  0  0  0
    1.1767   15.9154   37.6475 O   0  0  0  0  0  0  0  0  0  0  0  0
    2.1679   20.1169   35.6861 C   0  0  0  0  0  0  0  0  0  0  0  0
    5.3072   18.1170   37.6848 C   0  0  0  0  0  0  0  0  0  0  0  0
  1  2  1  1  0  0  0
  1  6  1  0  0  0  0
  1 21  1  0  0  0  0
  3  4  1  6  0  0  0
  3  8  1  0  0  0  0
  3 28  1  0  0  0  0
  5  9  1  0  0  0  0
  5 25  1  0  0  0  0
  5 29  1  1  0  0  0
  6  7  1  1  0  0  0
  6 11  1  0  0  0  0
  8 12  1  0  0  0  0
  9 10  1  1  0  0  0
  9 14  1  0  0  0  0
 11 16  1  0  0  0  0
 12 13  1  6  0  0  0
 12 17  1  0  0  0  0
 14 15  1  6  0  0  0
 14 18  1  0  0  0  0
 15 31  1  0  0  0  0
 16 20  1  0  0  0  0
 17  2  1  1  0  0  0
 17 22  1  0  0  0  0
 18 19  1  6  0  0  0
 18 24  1  0  0  0  0
 18 30  1  0  0  0  0
 20 21  1  0  0  0  0
 20 26  1  6  0  0  0
 22 23  1  6  0  0  0
 22 28  1  0  0  0  0
 24 25  1  0  0  0  0
 26 27  1  0  0  0  0
 28 29  1  1  0  0  0
M  END
>  <CHROM.1>
-171.58656819,-167.70369574,-89.59032653,-171.71627520,119.67849570,77.24706850
-0.30047825,16.63427197,38.99557665,3.01492321,-0.74839352,3.05648591

>  <Name>
ligand

>  <RI>
0

>  <Rbt.Current_Directory>
/home/itssahil/PROJECTS/Mol_Feturizer/New_Systems/rnas/4GPY

>  <Rbt.Executable>
rbdock ($Id: //depot/dev/client3/rdock/2013.1/src/exe/rbdock.cxx#4 $)

>  <Rbt.Library>
libRbt.so (2013.1, Build901 2013/11/27)

>  <Rbt.Parameter_File>
/export/apps/rDock/src/rDock_2013.1_src/data/scripts/dock_solv.prm

>  <Rbt.Receptor>
prm/pocket_docking_8.prm

>  <SCORE>
-13.5138

>  <SCORE.INTER>
-9.17433

>  <SCORE.INTER.CONST>
1

>  <SCORE.INTER.POLAR>
0

>  <SCORE.INTER.ROT>
6

>  <SCORE.INTER.SOLV>
14.9918

>  <SCORE.INTER.VDW>
-18.7135

>  <SCORE.INTER.norm>
-0.295946

>  <SCORE.INTRA>
-4.33947

>  <SCORE.INTRA.DIHEDRAL>
-9.65732

>  <SCORE.INTRA.DIHEDRAL.0>
14.7001

>  <SCORE.INTRA.POLAR>
0

>  <SCORE.INTRA.POLAR.0>
0

>  <SCORE.INTRA.REPUL>
0

>  <SCORE.INTRA.REPUL.0>
0

>  <SCORE.INTRA.SOLV>
-1.41284

>  <SCORE.INTRA.SOLV.lig_0>
-65.3082

>  <SCORE.INTRA.VDW>
1.19562

>  <SCORE.INTRA.VDW.0>
-4.21408

>  <SCORE.INTRA.norm>
-0.139983

>  <SCORE.RESTR>
0

>  <SCORE.RESTR.CAVITY>
0

>  <SCORE.RESTR.norm>
0

>  <SCORE.SYSTEM>
0

>  <SCORE.SYSTEM.CONST>
0

>  <SCORE.SYSTEM.DIHEDRAL>
0

>  <SCORE.SYSTEM.SOLV>
0

>  <SCORE.SYSTEM.norm>
0

>  <SCORE.heavy>
31

>  <SCORE.norm>
-0.435929

>  <RMSD>
8.215

$$$$
ligand
 OpenBabel11021811493D
libRbt.so/2013.1/901 2013/11/27
 31 33  0  0  0  0  0  0  0  0999 V2000
   -0.9346   10.7518   39.0162 C   0  0  2  0  0  0  0  0  0  0  0  0
   -1.7151   11.8949   38.7239 O   0  0  0  0  0  0  0  0  0  0  0  0
   -0.9075   16.0642   38.5658 C   0  0  2  0  0  0  0  0  0  0  0  0
   -0.5437   17.3727   38.9928 N   0  0  0  0  0  0  0  0  0  0  0  0
    1.5333   15.2654   36.5649 C   0  0  2  0  0  0  0  0  0  0  0  0
   -1.4487    9.5555   38.1036 C   0  0  2  0  0  0  0  0  0  0  0  0
   -1.3457    9.9448   36.7013 N   0  0  0  0  0  0  0  0  0  0  0  0
   -2.1453   15.5794   39.4447 C   0  0  0  0  0  0  0  0  0  0  0  0
    2.9107   15.8903   36.1603 C   0  0  2  0  0  0  0  0  0  0  0  0
    3.9198   15.3231   36.9685 O   0  0  0  0  0  0  0  0  0  0  0  0
   -2.9270    9.1702   38.4782 C   0  0  0  0  0  0  0  0  0  0  0  0
   -2.5599   14.1306   38.9583 C   0  0  2  0  0  0  0  0  0  0  0  0
   -3.7025   13.6723   39.7497 N   0  0  0  0  0  0  0  0  0  0  0  0
    2.8335   17.4463   36.3710 C   0  0  1  0  0  0  0  0  0  0  0  0
    4.1458   18.0698   36.0054 N   0  0  0  0  0  0  0  0  0  0  0  0
   -3.1684    9.2159   40.0452 C   0  0  0  0  0  0  0  0  0  0  0  0
   -1.3328   13.1505   39.1600 C   0  0  2  0  0  0  0  0  0  0  0  0
    1.6650   18.0484   35.4119 C   0  0  1  0  0  0  0  0  0  0  0  0
    1.8959   17.8113   34.0372 O   0  0  0  0  0  0  0  0  0  0  0  0
   -2.2675    9.7920   40.8777 C   0  0  1  0  0  0  0  0  0  0  0  0
   -1.0546   10.3889   40.4274 O   0  0  0  0  0  0  0  0  0  0  0  0
   -0.0994   13.6547   38.3009 C   0  0  2  0  0  0  0  0  0  0  0  0
    1.0176   12.7646   38.5021 O   0  0  0  0  0  0  0  0  0  0  0  0
    0.3038   17.3929   35.7928 C   0  0  0  0  0  0  0  0  0  0  0  0
    0.4218   15.8797   35.7314 O   0  0  0  0  0  0  0  0  0  0  0  0
   -2.4633    9.8625   42.3734 C   0  0  0  0  0  0  0  0  0  0  0  0
   -3.4001    8.8186   42.7158 O   0  0  0  0  0  0  0  0  0  0  0  0
    0.3069   15.0999   38.7818 C   0  0  1  0  0  0  0  0  0  0  0  0
    1.3966   15.5273   38.0029 O   0  0  0  0  0  0  0  0  0  0  0  0
    1.4700   19.5664   35.5204 C   0  0  0  0  0  0  0  0  0  0  0  0
    5.1510   18.1585   37.0848 C   0  0  0  0  0  0  0  0  0  0  0  0
  1  2  1  1  0  0  0
  1  6  1  0  0  0  0
  1 21  1  0  0  0  0
  3  4  1  1  0  0  0
  3  8  1  0  0  0  0
  3 28  1  0  0  0  0
  5  9  1  0  0  0  0
  5 25  1  0  0  0  0
  5 29  1  1  0  0  0
  6  7  1  6  0  0  0
  6 11  1  0  0  0  0
  8 12  1  0  0  0  0
  9 10  1  1  0  0  0
  9 14  1  0  0  0  0
 11 16  1  0  0  0  0
 12 13  1  1  0  0  0
 12 17  1  0  0  0  0
 14 15  1  6  0  0  0
 14 18  1  0  0  0  0
 15 31  1  0  0  0  0
 16 20  1  0  0  0  0
 17  2  1  6  0  0  0
 17 22  1  0  0  0  0
 18 19  1  6  0  0  0
 18 24  1  0  0  0  0
 18 30  1  0  0  0  0
 20 21  1  0  0  0  0
 20 26  1  6  0  0  0
 22 23  1  1  0  0  0
 22 28  1  0  0  0  0
 24 25  1  0  0  0  0
 26 27  1  0  0  0  0
 28 29  1  6  0  0  0
M  END
>  <CHROM.1>
-166.88783245,-178.32239855,-88.31068096,-167.36553701,21.82690900,-79.48426264
-0.07390744,14.03513497,38.11648568,-2.19124081,0.54814786,-0.15000566

>  <Name>
ligand

>  <RI>
0

>  <Rbt.Current_Directory>
/home/itssahil/PROJECTS/Mol_Feturizer/New_Systems/rnas/4GPY

>  <Rbt.Executable>
rbdock ($Id: //depot/dev/client3/rdock/2013.1/src/exe/rbdock.cxx#4 $)

>  <Rbt.Library>
libRbt.so (2013.1, Build901 2013/11/27)

>  <Rbt.Parameter_File>
/export/apps/rDock/src/rDock_2013.1_src/data/scripts/dock_solv.prm

>  <Rbt.Receptor>
prm/pocket_docking_2.prm

>  <SCORE>
-10.8598

>  <SCORE.INTER>
-9.86995

>  <SCORE.INTER.CONST>
1

>  <SCORE.INTER.POLAR>
0

>  <SCORE.INTER.ROT>
6

>  <SCORE.INTER.SOLV>
18.698

>  <SCORE.INTER.VDW>
-20.4126

>  <SCORE.INTER.norm>
-0.318386

>  <SCORE.INTRA>
-2.13657

>  <SCORE.INTRA.DIHEDRAL>
-8.59914

>  <SCORE.INTRA.DIHEDRAL.0>
14.7001

>  <SCORE.INTRA.POLAR>
0

>  <SCORE.INTRA.POLAR.0>
0

>  <SCORE.INTRA.REPUL>
0

>  <SCORE.INTRA.REPUL.0>
0

>  <SCORE.INTRA.SOLV>
-0.330557

>  <SCORE.INTRA.SOLV.lig_0>
-65.3082

>  <SCORE.INTRA.VDW>
2.32828

>  <SCORE.INTRA.VDW.0>
-4.21408

>  <SCORE.INTRA.norm>
-0.0689216

>  <SCORE.RESTR>
1.14669

>  <SCORE.RESTR.CAVITY>
1.14669

>  <SCORE.RESTR.norm>
0.0369901

>  <SCORE.SYSTEM>
0

>  <SCORE.SYSTEM.CONST>
0

>  <SCORE.SYSTEM.DIHEDRAL>
0

>  <SCORE.SYSTEM.SOLV>
0

>  <SCORE.SYSTEM.norm>
0

>  <SCORE.heavy>
31

>  <SCORE.norm>
-0.350317

>  <RMSD>
8.218

$$$$
ligand
 OpenBabel11021811493D
libRbt.so/2013.1/901 2013/11/27
 31 33  0  0  0  0  0  0  0  0999 V2000
   -1.7134   12.9730   42.1363 C   0  0  2  0  0  0  0  0  0  0  0  0
   -1.0541   13.9026   41.2982 O   0  0  0  0  0  0  0  0  0  0  0  0
    2.8418   15.5967   41.1879 C   0  0  2  0  0  0  0  0  0  0  0  0
    4.2625   15.6810   41.1525 N   0  0  0  0  0  0  0  0  0  0  0  0
    2.6141   15.0527   37.3908 C   0  0  2  0  0  0  0  0  0  0  0  0
   -1.6690   11.5502   41.4280 C   0  0  2  0  0  0  0  0  0  0  0  0
   -0.2789   11.1792   41.1860 N   0  0  0  0  0  0  0  0  0  0  0  0
    2.4236   14.7778   42.4895 C   0  0  0  0  0  0  0  0  0  0  0  0
    3.6697   15.8631   36.5661 C   0  0  2  0  0  0  0  0  0  0  0  0
    4.9339   15.7112   37.1760 O   0  0  0  0  0  0  0  0  0  0  0  0
   -2.4913   11.5742   40.0874 C   0  0  0  0  0  0  0  0  0  0  0  0
    0.8428   14.6984   42.5372 C   0  0  2  0  0  0  0  0  0  0  0  0
    0.4399   13.9563   43.7325 N   0  0  0  0  0  0  0  0  0  0  0  0
    3.2352   17.3738   36.5474 C   0  0  1  0  0  0  0  0  0  0  0  0
    4.2377   18.1769   35.7763 N   0  0  0  0  0  0  0  0  0  0  0  0
   -3.8272   12.4173   40.2309 C   0  0  0  0  0  0  0  0  0  0  0  0
    0.3266   13.9550   41.2380 C   0  0  2  0  0  0  0  0  0  0  0  0
    1.7807   17.4926   35.8272 C   0  0  1  0  0  0  0  0  0  0  0  0
    1.7814   17.0285   34.4916 O   0  0  0  0  0  0  0  0  0  0  0  0
   -4.0379   13.2219   41.3009 C   0  0  1  0  0  0  0  0  0  0  0  0
   -3.1011   13.3732   42.3638 O   0  0  0  0  0  0  0  0  0  0  0  0
    0.7684   14.7643   39.9482 C   0  0  2  0  0  0  0  0  0  0  0  0
    0.3067   14.0724   38.7698 O   0  0  0  0  0  0  0  0  0  0  0  0
    0.7435   16.6515   36.6299 C   0  0  0  0  0  0  0  0  0  0  0  0
    1.2358   15.2219   36.7747 O   0  0  0  0  0  0  0  0  0  0  0  0
   -5.2919   14.0458   41.4713 C   0  0  0  0  0  0  0  0  0  0  0  0
   -5.9575   13.5437   42.6502 O   0  0  0  0  0  0  0  0  0  0  0  0
    2.3420   14.8483   39.9068 C   0  0  1  0  0  0  0  0  0  0  0  0
    2.7088   15.5741   38.7598 O   0  0  0  0  0  0  0  0  0  0  0  0
    1.2241   18.9199   35.7459 C   0  0  0  0  0  0  0  0  0  0  0  0
    5.1362   19.0390   36.5719 C   0  0  0  0  0  0  0  0  0  0  0  0
  1  2  1  6  0  0  0
  1  6  1  0  0  0  0
  1 21  1  0  0  0  0
  3  4  1  6  0  0  0
  3  8  1  0  0  0  0
  3 28  1  0  0  0  0
  5  9  1  0  0  0  0
  5 25  1  0  0  0  0
  5 29  1  1  0  0  0
  6  7  1  6  0  0  0
  6 11  1  0  0  0  0
  8 12  1  0  0  0  0
  9 10  1  1  0  0  0
  9 14  1  0  0  0  0
 11 16  1  0  0  0  0
 12 13  1  1  0  0  0
 12 17  1  0  0  0  0
 14 15  1  6  0  0  0
 14 18  1  0  0  0  0
 15 31  1  0  0  0  0
 16 20  1  0  0  0  0
 17  2  1  1  0  0  0
 17 22  1  0  0  0  0
 18 19  1  6  0  0  0
 18 24  1  0  0  0  0
 18 30  1  0  0  0  0
 20 21  1  0  0  0  0
 20 26  1  6  0  0  0
 22 23  1  6  0  0  0
 22 28  1  0  0  0  0
 24 25  1  0  0  0  0
 26 27  1  0  0  0  0
 28 29  1  6  0  0  0
M  END
>  <CHROM.1>
-77.67070431,-155.16418540,-106.32364169,-76.92520755,116.16763272,168.65825454
0.57707070,14.92330155,39.43564569,-2.34746699,-0.22693953,-1.11744182

>  <Name>
ligand

>  <RI>
0

>  <Rbt.Current_Directory>
/home/itssahil/PROJECTS/Mol_Feturizer/New_Systems/rnas/4GPY

>  <Rbt.Executable>
rbdock ($Id: //depot/dev/client3/rdock/2013.1/src/exe/rbdock.cxx#4 $)

>  <Rbt.Library>
libRbt.so (2013.1, Build901 2013/11/27)

>  <Rbt.Parameter_File>
/export/apps/rDock/src/rDock_2013.1_src/data/scripts/dock_solv.prm

>  <Rbt.Receptor>
prm/pocket_docking_7.prm

>  <SCORE>
-7.94113

>  <SCORE.INTER>
-7.29532

>  <SCORE.INTER.CONST>
1

>  <SCORE.INTER.POLAR>
0

>  <SCORE.INTER.ROT>
6

>  <SCORE.INTER.SOLV>
13.037

>  <SCORE.INTER.VDW>
-16.8092

>  <SCORE.INTER.norm>
-0.235333

>  <SCORE.INTRA>
-0.645809

>  <SCORE.INTRA.DIHEDRAL>
-5.92862

>  <SCORE.INTRA.DIHEDRAL.0>
14.7001

>  <SCORE.INTRA.POLAR>
0

>  <SCORE.INTRA.POLAR.0>
0

>  <SCORE.INTRA.REPUL>
0

>  <SCORE.INTRA.REPUL.0>
0

>  <SCORE.INTRA.SOLV>
1.32021

>  <SCORE.INTRA.SOLV.lig_0>
-65.3082

>  <SCORE.INTRA.VDW>
1.65839

>  <SCORE.INTRA.VDW.0>
-4.21408

>  <SCORE.INTRA.norm>
-0.0208325

>  <SCORE.RESTR>
0

>  <SCORE.RESTR.CAVITY>
0

>  <SCORE.RESTR.norm>
0

>  <SCORE.SYSTEM>
0

>  <SCORE.SYSTEM.CONST>
0

>  <SCORE.SYSTEM.DIHEDRAL>
0

>  <SCORE.SYSTEM.SOLV>
0

>  <SCORE.SYSTEM.norm>
0

>  <SCORE.heavy>
31

>  <SCORE.norm>
-0.256165

>  <RMSD>
8.233

$$$$
ligand
 OpenBabel11021811493D
libRbt.so/2013.1/901 2013/11/27
 31 33  0  0  0  0  0  0  0  0999 V2000
   -0.7757   10.6632   38.8407 C   0  0  2  0  0  0  0  0  0  0  0  0
   -1.4323   11.8580   38.4630 O   0  0  0  0  0  0  0  0  0  0  0  0
   -0.6609   16.0325   38.6606 C   0  0  2  0  0  0  0  0  0  0  0  0
   -0.3133   17.3038   39.1987 N   0  0  0  0  0  0  0  0  0  0  0  0
    1.8365   15.3718   36.6358 C   0  0  2  0  0  0  0  0  0  0  0  0
   -1.2076    9.5191   37.8246 C   0  0  2  0  0  0  0  0  0  0  0  0
   -0.8617    9.9285   36.4676 N   0  0  0  0  0  0  0  0  0  0  0  0
   -1.9029   15.4661   39.4829 C   0  0  0  0  0  0  0  0  0  0  0  0
    3.2562   15.9509   36.3190 C   0  0  2  0  0  0  0  0  0  0  0  0
    4.2047   15.2940   37.1326 O   0  0  0  0  0  0  0  0  0  0  0  0
   -2.7464    9.2190   37.9517 C   0  0  0  0  0  0  0  0  0  0  0  0
   -2.2996   14.0594   38.8733 C   0  0  2  0  0  0  0  0  0  0  0  0
   -3.4458   13.5276   39.6116 N   0  0  0  0  0  0  0  0  0  0  0  0
    3.2416   17.4954   36.6118 C   0  0  1  0  0  0  0  0  0  0  0  0
    4.5947   18.0741   36.3313 N   0  0  0  0  0  0  0  0  0  0  0  0
   -3.2294    9.2490   39.4622 C   0  0  0  0  0  0  0  0  0  0  0  0
   -1.0657   13.0760   39.0060 C   0  0  2  0  0  0  0  0  0  0  0  0
    2.1416   18.2027   35.6433 C   0  0  1  0  0  0  0  0  0  0  0  0
    2.4172   18.0282   34.2675 O   0  0  0  0  0  0  0  0  0  0  0  0
   -2.4396    9.7519   40.4419 C   0  0  1  0  0  0  0  0  0  0  0  0
   -1.1382   10.2811   40.2045 O   0  0  0  0  0  0  0  0  0  0  0  0
    0.1716   13.6601   38.2050 C   0  0  2  0  0  0  0  0  0  0  0  0
    1.2945   12.7655   38.3435 O   0  0  0  0  0  0  0  0  0  0  0  0
    0.7376   17.5935   35.9354 C   0  0  0  0  0  0  0  0  0  0  0  0
    0.7889   16.0819   35.7955 O   0  0  0  0  0  0  0  0  0  0  0  0
   -2.8649    9.8053   41.8898 C   0  0  0  0  0  0  0  0  0  0  0  0
   -1.7637    9.2804   42.6622 O   0  0  0  0  0  0  0  0  0  0  0  0
    0.5599   15.0635   38.8087 C   0  0  1  0  0  0  0  0  0  0  0  0
    1.6535   15.5631   38.0797 O   0  0  0  0  0  0  0  0  0  0  0  0
    2.0118   19.7203   35.8276 C   0  0  0  0  0  0  0  0  0  0  0  0
    5.4017   18.4516   37.5101 C   0  0  0  0  0  0  0  0  0  0  0  0
  1  2  1  6  0  0  0
  1  6  1  0  0  0  0
  1 21  1  0  0  0  0
  3  4  1  1  0  0  0
  3  8  1  0  0  0  0
  3 28  1  0  0  0  0
  5  9  1  0  0  0  0
  5 25  1  0  0  0  0
  5 29  1  1  0  0  0
  6  7  1  6  0  0  0
  6 11  1  0  0  0  0
  8 12  1  0  0  0  0
  9 10  1  1  0  0  0
  9 14  1  0  0  0  0
 11 16  1  0  0  0  0
 12 13  1  1  0  0  0
 12 17  1  0  0  0  0
 14 15  1  6  0  0  0
 14 18  1  0  0  0  0
 15 31  1  0  0  0  0
 16 20  1  0  0  0  0
 17  2  1  6  0  0  0
 17 22  1  0  0  0  0
 18 19  1  6  0  0  0
 18 24  1  0  0  0  0
 18 30  1  0  0  0  0
 20 21  1  0  0  0  0
 20 26  1  6  0  0  0
 22 23  1  1  0  0  0
 22 28  1  0  0  0  0
 24 25  1  0  0  0  0
 26 27  1  0  0  0  0
 28 29  1  6  0  0  0
M  END
>  <CHROM.1>
-167.94158867,-173.55584911,-106.91177890,-156.93095879,132.26542104,-82.30124209
0.22957186,14.07345135,38.08328476,-2.23728002,0.58518903,-0.02823073

>  <Name>
ligand

>  <RI>
0

>  <Rbt.Current_Directory>
/home/itssahil/PROJECTS/Mol_Feturizer/New_Systems/rnas/4GPY

>  <Rbt.Executable>
rbdock ($Id: //depot/dev/client3/rdock/2013.1/src/exe/rbdock.cxx#4 $)

>  <Rbt.Library>
libRbt.so (2013.1, Build901 2013/11/27)

>  <Rbt.Parameter_File>
/export/apps/rDock/src/rDock_2013.1_src/data/scripts/dock_solv.prm

>  <Rbt.Receptor>
prm/pocket_docking_3.prm

>  <SCORE>
-13.7804

>  <SCORE.INTER>
-11.3974

>  <SCORE.INTER.CONST>
1

>  <SCORE.INTER.POLAR>
0

>  <SCORE.INTER.ROT>
6

>  <SCORE.INTER.SOLV>
16.4457

>  <SCORE.INTER.VDW>
-20.6802

>  <SCORE.INTER.norm>
-0.367657

>  <SCORE.INTRA>
-2.38302

>  <SCORE.INTRA.DIHEDRAL>
-6.35271

>  <SCORE.INTRA.DIHEDRAL.0>
14.7001

>  <SCORE.INTRA.POLAR>
0

>  <SCORE.INTRA.POLAR.0>
0

>  <SCORE.INTRA.REPUL>
0

>  <SCORE.INTRA.REPUL.0>
0

>  <SCORE.INTRA.SOLV>
0.00827417

>  <SCORE.INTRA.SOLV.lig_0>
-65.3082

>  <SCORE.INTRA.VDW>
0.789194

>  <SCORE.INTRA.VDW.0>
-4.21408

>  <SCORE.INTRA.norm>
-0.0768717

>  <SCORE.RESTR>
0

>  <SCORE.RESTR.CAVITY>
0

>  <SCORE.RESTR.norm>
0

>  <SCORE.SYSTEM>
0

>  <SCORE.SYSTEM.CONST>
0

>  <SCORE.SYSTEM.DIHEDRAL>
0

>  <SCORE.SYSTEM.SOLV>
0

>  <SCORE.SYSTEM.norm>
0

>  <SCORE.heavy>
31

>  <SCORE.norm>
-0.444528

>  <RMSD>
8.237

$$$$
ligand
 OpenBabel11021811493D
libRbt.so/2013.1/901 2013/11/27
 31 33  0  0  0  0  0  0  0  0999 V2000
   -1.9412   10.4139   39.1478 C   0  0  2  0  0  0  0  0  0  0  0  0
   -0.9100   11.2487   38.6569 O   0  0  0  0  0  0  0  0  0  0  0  0
   -0.8192   15.4748   38.2183 C   0  0  2  0  0  0  0  0  0  0  0  0
   -0.7699   16.8543   38.5666 N   0  0  0  0  0  0  0  0  0  0  0  0
    1.9221   15.1824   36.6750 C   0  0  2  0  0  0  0  0  0  0  0  0
   -1.7175   10.2179   40.7097 C   0  0  2  0  0  0  0  0  0  0  0  0
   -1.7139   11.5238   41.3603 N   0  0  0  0  0  0  0  0  0  0  0  0
   -2.0926   14.8278   38.9250 C   0  0  0  0  0  0  0  0  0  0  0  0
    3.2910   15.9142   36.4709 C   0  0  2  0  0  0  0  0  0  0  0  0
    4.2381   15.3579   37.3579 O   0  0  0  0  0  0  0  0  0  0  0  0
   -0.3755    9.4444   40.9831 C   0  0  0  0  0  0  0  0  0  0  0  0
   -2.1563   13.2971   38.5242 C   0  0  2  0  0  0  0  0  0  0  0  0
   -3.3264   12.6880   39.1580 N   0  0  0  0  0  0  0  0  0  0  0  0
    3.0858   17.4458   36.7598 C   0  0  1  0  0  0  0  0  0  0  0  0
    4.3859   18.1697   36.5866 N   0  0  0  0  0  0  0  0  0  0  0  0
   -0.1430    8.2790   39.9325 C   0  0  0  0  0  0  0  0  0  0  0  0
   -0.8353   12.5805   39.0224 C   0  0  2  0  0  0  0  0  0  0  0  0
    1.9953   18.0369   35.7064 C   0  0  1  0  0  0  0  0  0  0  0  0
    2.3958   17.9035   34.3569 O   0  0  0  0  0  0  0  0  0  0  0  0
   -0.8887    8.1919   38.8043 C   0  0  1  0  0  0  0  0  0  0  0  0
   -1.9221    9.1159   38.4751 O   0  0  0  0  0  0  0  0  0  0  0  0
    0.4270   13.2470   38.3324 C   0  0  2  0  0  0  0  0  0  0  0  0
    1.6260   12.5979   38.8031 O   0  0  0  0  0  0  0  0  0  0  0  0
    0.6471   17.2770   35.8871 C   0  0  0  0  0  0  0  0  0  0  0  0
    0.8731   15.7809   35.7536 O   0  0  0  0  0  0  0  0  0  0  0  0
   -0.6941    7.1029   37.7764 C   0  0  0  0  0  0  0  0  0  0  0  0
   -0.4946    5.8752   38.5097 O   0  0  0  0  0  0  0  0  0  0  0  0
    0.4842   14.7722   38.7269 C   0  0  1  0  0  0  0  0  0  0  0  0
    1.6061   15.3421   38.0997 O   0  0  0  0  0  0  0  0  0  0  0  0
    1.6874   19.5301   35.8779 C   0  0  0  0  0  0  0  0  0  0  0  0
    5.3190   18.1211   37.7313 C   0  0  0  0  0  0  0  0  0  0  0  0
  1  2  1  6  0  0  0
  1  6  1  0  0  0  0
  1 21  1  0  0  0  0
  3  4  1  1  0  0  0
  3  8  1  0  0  0  0
  3 28  1  0  0  0  0
  5  9  1  0  0  0  0
  5 25  1  0  0  0  0
  5 29  1  1  0  0  0
  6  7  1  1  0  0  0
  6 11  1  0  0  0  0
  8 12  1  0  0  0  0
  9 10  1  1  0  0  0
  9 14  1  0  0  0  0
 11 16  1  0  0  0  0
 12 13  1  1  0  0  0
 12 17  1  0  0  0  0
 14 15  1  6  0  0  0
 14 18  1  0  0  0  0
 15 31  1  0  0  0  0
 16 20  1  0  0  0  0
 17  2  1  6  0  0  0
 17 22  1  0  0  0  0
 18 19  1  6  0  0  0
 18 24  1  0  0  0  0
 18 30  1  0  0  0  0
 20 21  1  0  0  0  0
 20 26  1  6  0  0  0
 22 23  1  1  0  0  0
 22 28  1  0  0  0  0
 24 25  1  0  0  0  0
 26 27  1  0  0  0  0
 28 29  1  6  0  0  0
M  END
>  <CHROM.1>
-67.69138610,-176.65879753,-81.76273513,-61.37012894,41.96461121,-69.22360373
0.45912017,13.59177491,38.03970423,1.99697630,-0.32713895,2.95899211

>  <Name>
ligand

>  <RI>
0

>  <Rbt.Current_Directory>
/home/itssahil/PROJECTS/Mol_Feturizer/New_Systems/rnas/4GPY

>  <Rbt.Executable>
rbdock ($Id: //depot/dev/client3/rdock/2013.1/src/exe/rbdock.cxx#4 $)

>  <Rbt.Library>
libRbt.so (2013.1, Build901 2013/11/27)

>  <Rbt.Parameter_File>
/export/apps/rDock/src/rDock_2013.1_src/data/scripts/dock_solv.prm

>  <Rbt.Receptor>
prm/pocket_docking_3.prm

>  <SCORE>
-6.40729

>  <SCORE.INTER>
-7.39229

>  <SCORE.INTER.CONST>
1

>  <SCORE.INTER.POLAR>
0

>  <SCORE.INTER.ROT>
6

>  <SCORE.INTER.SOLV>
15.8698

>  <SCORE.INTER.VDW>
-17.8181

>  <SCORE.INTER.norm>
-0.238461

>  <SCORE.INTRA>
0.936787

>  <SCORE.INTRA.DIHEDRAL>
-10.3742

>  <SCORE.INTRA.DIHEDRAL.0>
14.7001

>  <SCORE.INTRA.POLAR>
0

>  <SCORE.INTRA.POLAR.0>
0

>  <SCORE.INTRA.REPUL>
0

>  <SCORE.INTRA.REPUL.0>
0

>  <SCORE.INTRA.SOLV>
4.90719

>  <SCORE.INTRA.SOLV.lig_0>
-65.3082

>  <SCORE.INTRA.VDW>
3.67027

>  <SCORE.INTRA.VDW.0>
-4.21408

>  <SCORE.INTRA.norm>
0.0302189

>  <SCORE.RESTR>
0.0482165

>  <SCORE.RESTR.CAVITY>
0.0482165

>  <SCORE.RESTR.norm>
0.00155537

>  <SCORE.SYSTEM>
0

>  <SCORE.SYSTEM.CONST>
0

>  <SCORE.SYSTEM.DIHEDRAL>
0

>  <SCORE.SYSTEM.SOLV>
0

>  <SCORE.SYSTEM.norm>
0

>  <SCORE.heavy>
31

>  <SCORE.norm>
-0.206687

>  <RMSD>
8.239

$$$$
ligand
 OpenBabel11021811493D
libRbt.so/2013.1/901 2013/11/27
 31 33  0  0  0  0  0  0  0  0999 V2000
   -1.8695   12.6400   44.3846 C   0  0  2  0  0  0  0  0  0  0  0  0
   -1.9460   11.3427   43.8255 O   0  0  0  0  0  0  0  0  0  0  0  0
   -1.0921    9.9127   39.9158 C   0  0  2  0  0  0  0  0  0  0  0  0
   -1.2241    9.6867   38.5164 N   0  0  0  0  0  0  0  0  0  0  0  0
    0.4060   11.9783   38.0860 C   0  0  2  0  0  0  0  0  0  0  0  0
   -1.7183   12.4913   45.9604 C   0  0  2  0  0  0  0  0  0  0  0  0
   -0.5301   11.6975   46.2544 N   0  0  0  0  0  0  0  0  0  0  0  0
   -2.4082    9.3728   40.6340 C   0  0  0  0  0  0  0  0  0  0  0  0
    1.8166   12.6222   37.8701 C   0  0  2  0  0  0  0  0  0  0  0  0
    2.7763   11.8522   38.5625 O   0  0  0  0  0  0  0  0  0  0  0  0
   -3.0065   11.8348   46.5797 C   0  0  0  0  0  0  0  0  0  0  0  0
   -2.2538    9.6095   42.1921 C   0  0  2  0  0  0  0  0  0  0  0  0
   -3.4513    9.1108   42.8697 N   0  0  0  0  0  0  0  0  0  0  0  0
    1.7812   14.0958   38.4167 C   0  0  1  0  0  0  0  0  0  0  0  0
    3.1254   14.7324   38.2365 N   0  0  0  0  0  0  0  0  0  0  0  0
   -4.3308   12.3758   45.8944 C   0  0  0  0  0  0  0  0  0  0  0  0
   -2.0848   11.1606   42.4616 C   0  0  2  0  0  0  0  0  0  0  0  0
    0.6690   14.9391   37.5801 C   0  0  1  0  0  0  0  0  0  0  0  0
    0.9435   15.0007   36.1944 O   0  0  0  0  0  0  0  0  0  0  0  0
   -4.2842   13.0906   44.7441 C   0  0  1  0  0  0  0  0  0  0  0  0
   -3.0707   13.4119   44.0700 O   0  0  0  0  0  0  0  0  0  0  0  0
   -0.7867   11.6929   41.7232 C   0  0  2  0  0  0  0  0  0  0  0  0
   -0.6490   13.1086   41.9620 O   0  0  0  0  0  0  0  0  0  0  0  0
   -0.7256   14.2699   37.7666 C   0  0  0  0  0  0  0  0  0  0  0  0
   -0.6535   12.8037   37.3763 O   0  0  0  0  0  0  0  0  0  0  0  0
   -5.5214   13.6170   44.0566 C   0  0  0  0  0  0  0  0  0  0  0  0
   -5.5585   13.0044   42.7496 O   0  0  0  0  0  0  0  0  0  0  0  0
   -0.9395   11.4495   40.1732 C   0  0  1  0  0  0  0  0  0  0  0  0
    0.2240   11.9232   39.5417 O   0  0  0  0  0  0  0  0  0  0  0  0
    0.5184   16.4027   38.0152 C   0  0  0  0  0  0  0  0  0  0  0  0
    4.0114   14.7350   39.4190 C   0  0  0  0  0  0  0  0  0  0  0  0
  1  2  1  6  0  0  0
  1  6  1  0  0  0  0
  1 21  1  0  0  0  0
  3  4  1  6  0  0  0
  3  8  1  0  0  0  0
  3 28  1  0  0  0  0
  5  9  1  0  0  0  0
  5 25  1  0  0  0  0
  5 29  1  1  0  0  0
  6  7  1  6  0  0  0
  6 11  1  0  0  0  0
  8 12  1  0  0  0  0
  9 10  1  1  0  0  0
  9 14  1  0  0  0  0
 11 16  1  0  0  0  0
 12 13  1  1  0  0  0
 12 17  1  0  0  0  0
 14 15  1  6  0  0  0
 14 18  1  0  0  0  0
 15 31  1  0  0  0  0
 16 20  1  0  0  0  0
 17  2  1  1  0  0  0
 17 22  1  0  0  0  0
 18 19  1  6  0  0  0
 18 24  1  0  0  0  0
 18 30  1  0  0  0  0
 20 21  1  0  0  0  0
 20 26  1  6  0  0  0
 22 23  1  6  0  0  0
 22 28  1  0  0  0  0
 24 25  1  0  0  0  0
 26 27  1  0  0  0  0
 28 29  1  6  0  0  0
M  END
>  <CHROM.1>
179.86726215,177.83185661,-98.00438850,-175.55400194,-118.88524352,67.09532801
-1.01899620,12.48059961,41.13777320,-2.76657332,-0.92432435,-2.42197087

>  <Name>
ligand

>  <RI>
0

>  <Rbt.Current_Directory>
/home/itssahil/PROJECTS/Mol_Feturizer/New_Systems/rnas/4GPY

>  <Rbt.Executable>
rbdock ($Id: //depot/dev/client3/rdock/2013.1/src/exe/rbdock.cxx#4 $)

>  <Rbt.Library>
libRbt.so (2013.1, Build901 2013/11/27)

>  <Rbt.Parameter_File>
/export/apps/rDock/src/rDock_2013.1_src/data/scripts/dock_solv.prm

>  <Rbt.Receptor>
prm/pocket_docking_6.prm

>  <SCORE>
-8.34989

>  <SCORE.INTER>
-3.05126

>  <SCORE.INTER.CONST>
1

>  <SCORE.INTER.POLAR>
0

>  <SCORE.INTER.ROT>
6

>  <SCORE.INTER.SOLV>
17.2446

>  <SCORE.INTER.VDW>
-15.3824

>  <SCORE.INTER.norm>
-0.0984277

>  <SCORE.INTRA>
-5.29863

>  <SCORE.INTRA.DIHEDRAL>
-11.799

>  <SCORE.INTRA.DIHEDRAL.0>
14.7001

>  <SCORE.INTRA.POLAR>
0

>  <SCORE.INTRA.POLAR.0>
0

>  <SCORE.INTRA.REPUL>
0

>  <SCORE.INTRA.REPUL.0>
0

>  <SCORE.INTRA.SOLV>
-1.3

>  <SCORE.INTRA.SOLV.lig_0>
-65.3082

>  <SCORE.INTRA.VDW>
1.25085

>  <SCORE.INTRA.VDW.0>
-4.21408

>  <SCORE.INTRA.norm>
-0.170924

>  <SCORE.RESTR>
0

>  <SCORE.RESTR.CAVITY>
0

>  <SCORE.RESTR.norm>
0

>  <SCORE.SYSTEM>
0

>  <SCORE.SYSTEM.CONST>
0

>  <SCORE.SYSTEM.DIHEDRAL>
0

>  <SCORE.SYSTEM.SOLV>
0

>  <SCORE.SYSTEM.norm>
0

>  <SCORE.heavy>
31

>  <SCORE.norm>
-0.269351

>  <RMSD>
8.247

$$$$
ligand
 OpenBabel11021811493D
libRbt.so/2013.1/901 2013/11/27
 31 33  0  0  0  0  0  0  0  0999 V2000
   -1.8468   12.6667   44.4732 C   0  0  2  0  0  0  0  0  0  0  0  0
   -1.8734   11.3753   43.8962 O   0  0  0  0  0  0  0  0  0  0  0  0
   -1.0887   10.0098   39.9491 C   0  0  2  0  0  0  0  0  0  0  0  0
   -1.2516    9.7969   38.5508 N   0  0  0  0  0  0  0  0  0  0  0  0
    0.2980   12.1700   38.1079 C   0  0  2  0  0  0  0  0  0  0  0  0
   -1.7524   12.5011   46.0517 C   0  0  2  0  0  0  0  0  0  0  0  0
   -0.5591   11.7294   46.3816 N   0  0  0  0  0  0  0  0  0  0  0  0
   -2.3736    9.4321   40.6940 C   0  0  0  0  0  0  0  0  0  0  0  0
    1.6813   12.8626   37.8665 C   0  0  2  0  0  0  0  0  0  0  0  0
    2.6871   12.0947   38.4925 O   0  0  0  0  0  0  0  0  0  0  0  0
   -3.0485   11.8093   46.6134 C   0  0  0  0  0  0  0  0  0  0  0  0
   -2.1845    9.6544   42.2504 C   0  0  2  0  0  0  0  0  0  0  0  0
   -3.3528    9.1211   42.9522 N   0  0  0  0  0  0  0  0  0  0  0  0
    1.6256   14.3124   38.4720 C   0  0  1  0  0  0  0  0  0  0  0  0
    2.9440   14.9943   38.2685 N   0  0  0  0  0  0  0  0  0  0  0  0
   -4.3573   12.3305   45.8844 C   0  0  0  0  0  0  0  0  0  0  0  0
   -2.0432   11.2057   42.5341 C   0  0  2  0  0  0  0  0  0  0  0  0
    0.4600   15.1546   37.7105 C   0  0  1  0  0  0  0  0  0  0  0  0
    0.6806   15.2776   36.3192 O   0  0  0  0  0  0  0  0  0  0  0  0
   -4.2827   13.0608   44.7453 C   0  0  1  0  0  0  0  0  0  0  0  0
   -3.0518   13.4165   44.1221 O   0  0  0  0  0  0  0  0  0  0  0  0
   -0.7766   11.7756   41.7694 C   0  0  2  0  0  0  0  0  0  0  0  0
   -0.6644   13.1912   42.0217 O   0  0  0  0  0  0  0  0  0  0  0  0
   -0.9076   14.4384   37.9209 C   0  0  0  0  0  0  0  0  0  0  0  0
   -0.8097   12.9911   37.4704 O   0  0  0  0  0  0  0  0  0  0  0  0
   -5.5041   13.5691   44.0172 C   0  0  0  0  0  0  0  0  0  0  0  0
   -5.4782   12.9723   42.7027 O   0  0  0  0  0  0  0  0  0  0  0  0
   -0.9637   11.5466   40.2210 C   0  0  1  0  0  0  0  0  0  0  0  0
    0.1723   12.0536   39.5659 O   0  0  0  0  0  0  0  0  0  0  0  0
    0.2854   16.5953   38.2084 C   0  0  0  0  0  0  0  0  0  0  0  0
    3.7558   15.2236   39.4816 C   0  0  0  0  0  0  0  0  0  0  0  0
  1  2  1  6  0  0  0
  1  6  1  0  0  0  0
  1 21  1  0  0  0  0
  3  4  1  6  0  0  0
  3  8  1  0  0  0  0
  3 28  1  0  0  0  0
  5  9  1  0  0  0  0
  5 25  1  0  0  0  0
  5 29  1  1  0  0  0
  6  7  1  6  0  0  0
  6 11  1  0  0  0  0
  8 12  1  0  0  0  0
  9 10  1  1  0  0  0
  9 14  1  0  0  0  0
 11 16  1  0  0  0  0
 12 13  1  1  0  0  0
 12 17  1  0  0  0  0
 14 15  1  6  0  0  0
 14 18  1  0  0  0  0
 15 31  1  0  0  0  0
 16 20  1  0  0  0  0
 17  2  1  1  0  0  0
 17 22  1  0  0  0  0
 18 19  1  6  0  0  0
 18 24  1  0  0  0  0
 18 30  1  0  0  0  0
 20 21  1  0  0  0  0
 20 26  1  6  0  0  0
 22 23  1  6  0  0  0
 22 28  1  0  0  0  0
 24 25  1  0  0  0  0
 26 27  1  0  0  0  0
 28 29  1  6  0  0  0
M  END
>  <CHROM.1>
175.64341580,176.52589668,-110.16070920,-173.87438145,-118.86713109,69.18074994
-1.07604780,12.59044337,41.19164802,-2.82563777,-0.96774366,-2.46288644

>  <Name>
ligand

>  <RI>
0

>  <Rbt.Current_Directory>
/home/itssahil/PROJECTS/Mol_Feturizer/New_Systems/rnas/4GPY

>  <Rbt.Executable>
rbdock ($Id: //depot/dev/client3/rdock/2013.1/src/exe/rbdock.cxx#4 $)

>  <Rbt.Library>
libRbt.so (2013.1, Build901 2013/11/27)

>  <Rbt.Parameter_File>
/export/apps/rDock/src/rDock_2013.1_src/data/scripts/dock_solv.prm

>  <Rbt.Receptor>
prm/pocket_docking_7.prm

>  <SCORE>
-8.68416

>  <SCORE.INTER>
-3.39736

>  <SCORE.INTER.CONST>
1

>  <SCORE.INTER.POLAR>
0

>  <SCORE.INTER.ROT>
6

>  <SCORE.INTER.SOLV>
18.0776

>  <SCORE.INTER.VDW>
-15.8908

>  <SCORE.INTER.norm>
-0.109592

>  <SCORE.INTRA>
-5.28679

>  <SCORE.INTRA.DIHEDRAL>
-11.1432

>  <SCORE.INTRA.DIHEDRAL.0>
14.7001

>  <SCORE.INTRA.POLAR>
0

>  <SCORE.INTRA.POLAR.0>
0

>  <SCORE.INTRA.REPUL>
0

>  <SCORE.INTRA.REPUL.0>
0

>  <SCORE.INTRA.SOLV>
-1.27496

>  <SCORE.INTRA.SOLV.lig_0>
-65.3082

>  <SCORE.INTRA.VDW>
0.922304

>  <SCORE.INTRA.VDW.0>
-4.21408

>  <SCORE.INTRA.norm>
-0.170542

>  <SCORE.RESTR>
0

>  <SCORE.RESTR.CAVITY>
0

>  <SCORE.RESTR.norm>
0

>  <SCORE.SYSTEM>
0

>  <SCORE.SYSTEM.CONST>
0

>  <SCORE.SYSTEM.DIHEDRAL>
0

>  <SCORE.SYSTEM.SOLV>
0

>  <SCORE.SYSTEM.norm>
0

>  <SCORE.heavy>
31

>  <SCORE.norm>
-0.280134

>  <RMSD>
8.260

$$$$
ligand
 OpenBabel11021811493D
libRbt.so/2013.1/901 2013/11/27
 31 33  0  0  0  0  0  0  0  0999 V2000
    3.3046   12.4927   38.2840 C   0  0  2  0  0  0  0  0  0  0  0  0
    3.9234   13.7616   38.1930 O   0  0  0  0  0  0  0  0  0  0  0  0
    0.6365   16.4512   38.0427 C   0  0  2  0  0  0  0  0  0  0  0  0
   -0.1408   17.6254   38.2518 N   0  0  0  0  0  0  0  0  0  0  0  0
    2.4889   17.7119   34.9106 C   0  0  2  0  0  0  0  0  0  0  0  0
    4.3434   11.3987   37.7818 C   0  0  2  0  0  0  0  0  0  0  0  0
    5.5523   11.4778   38.5947 N   0  0  0  0  0  0  0  0  0  0  0  0
    1.0607   15.8743   39.4664 C   0  0  0  0  0  0  0  0  0  0  0  0
    3.3573   18.8553   35.5347 C   0  0  2  0  0  0  0  0  0  0  0  0
    3.9458   18.3778   36.7259 O   0  0  0  0  0  0  0  0  0  0  0  0
    4.6705   11.6058   36.2573 C   0  0  0  0  0  0  0  0  0  0  0  0
    1.9115   14.5592   39.2336 C   0  0  2  0  0  0  0  0  0  0  0  0
    2.3028   14.0100   40.5324 N   0  0  0  0  0  0  0  0  0  0  0  0
    2.4252   20.0874   35.8257 C   0  0  1  0  0  0  0  0  0  0  0  0
    3.2287   21.1933   36.4388 N   0  0  0  0  0  0  0  0  0  0  0  0
    3.3793   12.0047   35.4268 C   0  0  0  0  0  0  0  0  0  0  0  0
    3.2000   14.9240   38.3889 C   0  0  2  0  0  0  0  0  0  0  0  0
    1.7827   20.6023   34.4221 C   0  0  1  0  0  0  0  0  0  0  0  0
    2.7558   21.0117   33.4814 O   0  0  0  0  0  0  0  0  0  0  0  0
    2.2344   12.3806   36.0468 C   0  0  1  0  0  0  0  0  0  0  0  0
    2.0955   12.4454   37.4633 O   0  0  0  0  0  0  0  0  0  0  0  0
    2.7675   15.5194   36.9845 C   0  0  2  0  0  0  0  0  0  0  0  0
    3.9469   15.8622   36.2283 O   0  0  0  0  0  0  0  0  0  0  0  0
    0.9529   19.4470   33.7863 C   0  0  0  0  0  0  0  0  0  0  0  0
    1.8175   18.2066   33.6409 O   0  0  0  0  0  0  0  0  0  0  0  0
    0.9866   12.7745   35.2930 C   0  0  0  0  0  0  0  0  0  0  0  0
    0.5359   14.0212   35.8654 O   0  0  0  0  0  0  0  0  0  0  0  0
    1.9146   16.8242   37.2189 C   0  0  1  0  0  0  0  0  0  0  0  0
    1.5384   17.3296   35.9620 O   0  0  0  0  0  0  0  0  0  0  0  0
    0.8376   21.8034   34.5560 C   0  0  0  0  0  0  0  0  0  0  0  0
    4.4973   21.5330   35.7614 C   0  0  0  0  0  0  0  0  0  0  0  0
  1  2  1  6  0  0  0
  1  6  1  0  0  0  0
  1 21  1  0  0  0  0
  3  4  1  1  0  0  0
  3  8  1  0  0  0  0
  3 28  1  0  0  0  0
  5  9  1  0  0  0  0
  5 25  1  0  0  0  0
  5 29  1  1  0  0  0
  6  7  1  1  0  0  0
  6 11  1  0  0  0  0
  8 12  1  0  0  0  0
  9 10  1  1  0  0  0
  9 14  1  0  0  0  0
 11 16  1  0  0  0  0
 12 13  1  1  0  0  0
 12 17  1  0  0  0  0
 14 15  1  6  0  0  0
 14 18  1  0  0  0  0
 15 31  1  0  0  0  0
 16 20  1  0  0  0  0
 17  2  1  6  0  0  0
 17 22  1  0  0  0  0
 18 19  1  6  0  0  0
 18 24  1  0  0  0  0
 18 30  1  0  0  0  0
 20 21  1  0  0  0  0
 20 26  1  6  0  0  0
 22 23  1  6  0  0  0
 22 28  1  0  0  0  0
 24 25  1  0  0  0  0
 26 27  1  0  0  0  0
 28 29  1  6  0  0  0
M  END
>  <CHROM.1>
171.05866862,-60.76125920,48.23714258,22.01961322,-131.14538685,-176.71862853
2.52810370,16.22642477,36.56653753,0.99785612,-1.36806535,2.24674092

>  <Name>
ligand

>  <RI>
0

>  <Rbt.Current_Directory>
/home/itssahil/PROJECTS/Mol_Feturizer/New_Systems/rnas/4GPY

>  <Rbt.Executable>
rbdock ($Id: //depot/dev/client3/rdock/2013.1/src/exe/rbdock.cxx#4 $)

>  <Rbt.Library>
libRbt.so (2013.1, Build901 2013/11/27)

>  <Rbt.Parameter_File>
/export/apps/rDock/src/rDock_2013.1_src/data/scripts/dock_solv.prm

>  <Rbt.Receptor>
prm/blind_docking_100.prm

>  <SCORE>
4.07493

>  <SCORE.INTER>
-3.09156

>  <SCORE.INTER.CONST>
1

>  <SCORE.INTER.POLAR>
0

>  <SCORE.INTER.ROT>
6

>  <SCORE.INTER.SOLV>
17.7901

>  <SCORE.INTER.VDW>
-15.5911

>  <SCORE.INTER.norm>
-0.0997278

>  <SCORE.INTRA>
3.56474

>  <SCORE.INTRA.DIHEDRAL>
-7.23953

>  <SCORE.INTRA.DIHEDRAL.0>
14.7001

>  <SCORE.INTRA.POLAR>
0

>  <SCORE.INTRA.POLAR.0>
0

>  <SCORE.INTRA.REPUL>
0

>  <SCORE.INTRA.REPUL.0>
0

>  <SCORE.INTRA.SOLV>
1.01573

>  <SCORE.INTRA.SOLV.lig_0>
-65.3082

>  <SCORE.INTRA.VDW>
6.67664

>  <SCORE.INTRA.VDW.0>
-4.21408

>  <SCORE.INTRA.norm>
0.114992

>  <SCORE.RESTR>
3.60176

>  <SCORE.RESTR.CAVITY>
3.60176

>  <SCORE.RESTR.norm>
0.116186

>  <SCORE.SYSTEM>
0

>  <SCORE.SYSTEM.CONST>
0

>  <SCORE.SYSTEM.DIHEDRAL>
0

>  <SCORE.SYSTEM.SOLV>
0

>  <SCORE.SYSTEM.norm>
0

>  <SCORE.heavy>
31

>  <SCORE.norm>
0.131449

>  <RMSD>
8.261

$$$$
ligand
 OpenBabel11021811493D
libRbt.so/2013.1/901 2013/11/27
 31 33  0  0  0  0  0  0  0  0999 V2000
   -2.3861   13.6517   40.4178 C   0  0  2  0  0  0  0  0  0  0  0  0
   -1.5133   14.1873   41.3938 O   0  0  0  0  0  0  0  0  0  0  0  0
    2.5690   15.3424   41.1473 C   0  0  2  0  0  0  0  0  0  0  0  0
    3.9854   15.2351   41.0516 N   0  0  0  0  0  0  0  0  0  0  0  0
    2.2121   14.8828   37.3590 C   0  0  2  0  0  0  0  0  0  0  0  0
   -3.8696   14.0879   40.7882 C   0  0  2  0  0  0  0  0  0  0  0  0
   -3.9401   15.5440   40.8457 N   0  0  0  0  0  0  0  0  0  0  0  0
    2.0965   14.5545   42.4495 C   0  0  0  0  0  0  0  0  0  0  0  0
    3.3472   15.5906   36.5456 C   0  0  2  0  0  0  0  0  0  0  0  0
    4.5845   15.3280   37.1729 O   0  0  0  0  0  0  0  0  0  0  0  0
   -4.3102   13.4443   42.1542 C   0  0  0  0  0  0  0  0  0  0  0  0
    0.5228   14.6879   42.5645 C   0  0  2  0  0  0  0  0  0  0  0  0
    0.0716   13.9767   43.7613 N   0  0  0  0  0  0  0  0  0  0  0  0
    3.0513   17.1343   36.5158 C   0  0  1  0  0  0  0  0  0  0  0  0
    4.1322   17.8399   35.7553 N   0  0  0  0  0  0  0  0  0  0  0  0
   -3.7978   11.9497   42.2934 C   0  0  0  0  0  0  0  0  0  0  0  0
   -0.1419   14.0544   41.2745 C   0  0  2  0  0  0  0  0  0  0  0  0
    1.6230   17.3805   35.7759 C   0  0  1  0  0  0  0  0  0  0  0  0
    1.5989   16.9120   34.4420 O   0  0  0  0  0  0  0  0  0  0  0  0
   -2.8692   11.4441   41.4456 C   0  0  1  0  0  0  0  0  0  0  0  0
   -2.2903   12.1932   40.3808 O   0  0  0  0  0  0  0  0  0  0  0  0
    0.3531   14.8294   39.9830 C   0  0  2  0  0  0  0  0  0  0  0  0
   -0.2456   14.2364   38.8124 O   0  0  0  0  0  0  0  0  0  0  0  0
    0.5037   16.6404   36.5677 C   0  0  0  0  0  0  0  0  0  0  0  0
    0.8629   15.1728   36.7241 O   0  0  0  0  0  0  0  0  0  0  0  0
   -2.3503   10.0298   41.5488 C   0  0  0  0  0  0  0  0  0  0  0  0
   -2.7921    9.3411   40.3591 O   0  0  0  0  0  0  0  0  0  0  0  0
    1.9206   14.7014   39.8746 C   0  0  1  0  0  0  0  0  0  0  0  0
    2.3358   15.4001   38.7273 O   0  0  0  0  0  0  0  0  0  0  0  0
    1.1987   18.8519   35.6820 C   0  0  0  0  0  0  0  0  0  0  0  0
    5.0122   18.7285   36.5422 C   0  0  0  0  0  0  0  0  0  0  0  0
  1  2  1  1  0  0  0
  1  6  1  0  0  0  0
  1 21  1  0  0  0  0
  3  4  1  6  0  0  0
  3  8  1  0  0  0  0
  3 28  1  0  0  0  0
  5  9  1  0  0  0  0
  5 25  1  0  0  0  0
  5 29  1  1  0  0  0
  6  7  1  1  0  0  0
  6 11  1  0  0  0  0
  8 12  1  0  0  0  0
  9 10  1  1  0  0  0
  9 14  1  0  0  0  0
 11 16  1  0  0  0  0
 12 13  1  1  0  0  0
 12 17  1  0  0  0  0
 14 15  1  6  0  0  0
 14 18  1  0  0  0  0
 15 31  1  0  0  0  0
 16 20  1  0  0  0  0
 17  2  1  1  0  0  0
 17 22  1  0  0  0  0
 18 19  1  6  0  0  0
 18 24  1  0  0  0  0
 18 30  1  0  0  0  0
 20 21  1  0  0  0  0
 20 26  1  1  0  0  0
 22 23  1  6  0  0  0
 22 28  1  0  0  0  0
 24 25  1  0  0  0  0
 26 27  1  0  0  0  0
 28 29  1  6  0  0  0
M  END
>  <CHROM.1>
-175.09487197,-153.49942631,-112.22676549,-176.83204239,114.11903917,163.56589426
0.37348313,14.74034965,39.32541822,2.31067897,0.33860033,2.01020576

>  <Name>
ligand

>  <RI>
0

>  <Rbt.Current_Directory>
/home/itssahil/PROJECTS/Mol_Feturizer/New_Systems/rnas/4GPY

>  <Rbt.Executable>
rbdock ($Id: //depot/dev/client3/rdock/2013.1/src/exe/rbdock.cxx#4 $)

>  <Rbt.Library>
libRbt.so (2013.1, Build901 2013/11/27)

>  <Rbt.Parameter_File>
/export/apps/rDock/src/rDock_2013.1_src/data/scripts/dock_solv.prm

>  <Rbt.Receptor>
prm/pocket_docking_6.prm

>  <SCORE>
-11.6074

>  <SCORE.INTER>
-8.14601

>  <SCORE.INTER.CONST>
1

>  <SCORE.INTER.POLAR>
0

>  <SCORE.INTER.ROT>
6

>  <SCORE.INTER.SOLV>
13.3041

>  <SCORE.INTER.VDW>
-17.4654

>  <SCORE.INTER.norm>
-0.262774

>  <SCORE.INTRA>
-3.46143

>  <SCORE.INTRA.DIHEDRAL>
-7.45323

>  <SCORE.INTRA.DIHEDRAL.0>
14.7001

>  <SCORE.INTRA.POLAR>
0

>  <SCORE.INTRA.POLAR.0>
0

>  <SCORE.INTRA.REPUL>
0

>  <SCORE.INTRA.REPUL.0>
0

>  <SCORE.INTRA.SOLV>
-2.30309

>  <SCORE.INTRA.SOLV.lig_0>
-65.3082

>  <SCORE.INTRA.VDW>
1.41673

>  <SCORE.INTRA.VDW.0>
-4.21408

>  <SCORE.INTRA.norm>
-0.111659

>  <SCORE.RESTR>
0

>  <SCORE.RESTR.CAVITY>
0

>  <SCORE.RESTR.norm>
0

>  <SCORE.SYSTEM>
0

>  <SCORE.SYSTEM.CONST>
0

>  <SCORE.SYSTEM.DIHEDRAL>
0

>  <SCORE.SYSTEM.SOLV>
0

>  <SCORE.SYSTEM.norm>
0

>  <SCORE.heavy>
31

>  <SCORE.norm>
-0.374433

>  <RMSD>
8.267

$$$$
ligand
 OpenBabel11021811493D
libRbt.so/2013.1/901 2013/11/27
 31 33  0  0  0  0  0  0  0  0999 V2000
   -2.9914   12.6024   40.2224 C   0  0  2  0  0  0  0  0  0  0  0  0
   -1.9845   13.2203   41.0007 O   0  0  0  0  0  0  0  0  0  0  0  0
    1.5326   15.3818   39.9921 C   0  0  2  0  0  0  0  0  0  0  0  0
    2.8350   15.6551   39.4863 N   0  0  0  0  0  0  0  0  0  0  0  0
    0.6106   15.6901   36.4042 C   0  0  2  0  0  0  0  0  0  0  0  0
   -4.3123   12.5134   41.1029 C   0  0  2  0  0  0  0  0  0  0  0  0
   -4.6954   13.8555   41.5282 N   0  0  0  0  0  0  0  0  0  0  0  0
    1.6552   14.2324   41.0891 C   0  0  0  0  0  0  0  0  0  0  0  0
    2.1441   15.5745   36.1106 C   0  0  2  0  0  0  0  0  0  0  0  0
    2.6821   14.5451   36.9132 O   0  0  0  0  0  0  0  0  0  0  0  0
   -4.0892   11.5684   42.3403 C   0  0  0  0  0  0  0  0  0  0  0  0
    0.2085   13.9403   41.6631 C   0  0  2  0  0  0  0  0  0  0  0  0
    0.3032   12.8919   42.6798 N   0  0  0  0  0  0  0  0  0  0  0  0
    2.8208   16.9542   36.4421 C   0  0  1  0  0  0  0  0  0  0  0  0
    4.2940   16.8676   36.1843 N   0  0  0  0  0  0  0  0  0  0  0  0
   -3.2274   10.2925   41.9590 C   0  0  0  0  0  0  0  0  0  0  0  0
   -0.7273   13.4635   40.4783 C   0  0  2  0  0  0  0  0  0  0  0  0
    2.1727   18.0998   35.4851 C   0  0  1  0  0  0  0  0  0  0  0  0
    2.3633   17.8471   34.1070 O   0  0  0  0  0  0  0  0  0  0  0  0
   -2.5601   10.2224   40.7816 C   0  0  1  0  0  0  0  0  0  0  0  0
   -2.5777   11.2627   39.8081 O   0  0  0  0  0  0  0  0  0  0  0  0
   -0.8233   14.6039   39.3810 C   0  0  2  0  0  0  0  0  0  0  0  0
   -1.6654   14.1552   38.2994 O   0  0  0  0  0  0  0  0  0  0  0  0
    0.6401   18.1819   35.7532 C   0  0  0  0  0  0  0  0  0  0  0  0
    0.0084   16.8120   35.5757 O   0  0  0  0  0  0  0  0  0  0  0  0
   -1.7235    9.0296   40.3844 C   0  0  0  0  0  0  0  0  0  0  0  0
   -2.3715    8.4351   39.2393 O   0  0  0  0  0  0  0  0  0  0  0  0
    0.6188   14.8981   38.8164 C   0  0  1  0  0  0  0  0  0  0  0  0
    0.5091   15.9147   37.8514 O   0  0  0  0  0  0  0  0  0  0  0  0
    2.7362   19.5095   35.7066 C   0  0  0  0  0  0  0  0  0  0  0  0
    5.1486   16.5970   37.3591 C   0  0  0  0  0  0  0  0  0  0  0  0
  1  2  1  1  0  0  0
  1  6  1  0  0  0  0
  1 21  1  0  0  0  0
  3  4  1  6  0  0  0
  3  8  1  0  0  0  0
  3 28  1  0  0  0  0
  5  9  1  0  0  0  0
  5 25  1  0  0  0  0
  5 29  1  1  0  0  0
  6  7  1  1  0  0  0
  6 11  1  0  0  0  0
  8 12  1  0  0  0  0
  9 10  1  1  0  0  0
  9 14  1  0  0  0  0
 11 16  1  0  0  0  0
 12 13  1  1  0  0  0
 12 17  1  0  0  0  0
 14 15  1  6  0  0  0
 14 18  1  0  0  0  0
 15 31  1  0  0  0  0
 16 20  1  0  0  0  0
 17  2  1  1  0  0  0
 17 22  1  0  0  0  0
 18 19  1  6  0  0  0
 18 24  1  0  0  0  0
 18 30  1  0  0  0  0
 20 21  1  0  0  0  0
 20 26  1  1  0  0  0
 22 23  1  6  0  0  0
 22 28  1  0  0  0  0
 24 25  1  0  0  0  0
 26 27  1  0  0  0  0
 28 29  1  6  0  0  0
M  END
>  <CHROM.1>
-178.32275813,-79.25006867,-97.28147926,-171.06784249,114.55981781,135.71117925
-0.01252673,14.34156959,38.80284004,2.19634924,0.24840966,2.27514306

>  <Name>
ligand

>  <RI>
0

>  <Rbt.Current_Directory>
/home/itssahil/PROJECTS/Mol_Feturizer/New_Systems/rnas/4GPY

>  <Rbt.Executable>
rbdock ($Id: //depot/dev/client3/rdock/2013.1/src/exe/rbdock.cxx#4 $)

>  <Rbt.Library>
libRbt.so (2013.1, Build901 2013/11/27)

>  <Rbt.Parameter_File>
/export/apps/rDock/src/rDock_2013.1_src/data/scripts/dock_solv.prm

>  <Rbt.Receptor>
prm/pocket_docking_7.prm

>  <SCORE>
-8.62521

>  <SCORE.INTER>
-7.93423

>  <SCORE.INTER.CONST>
1

>  <SCORE.INTER.POLAR>
0

>  <SCORE.INTER.ROT>
6

>  <SCORE.INTER.SOLV>
16.1908

>  <SCORE.INTER.VDW>
-18.2864

>  <SCORE.INTER.norm>
-0.255943

>  <SCORE.INTRA>
-0.690978

>  <SCORE.INTRA.DIHEDRAL>
-4.03275

>  <SCORE.INTRA.DIHEDRAL.0>
14.7001

>  <SCORE.INTRA.POLAR>
0

>  <SCORE.INTRA.POLAR.0>
0

>  <SCORE.INTRA.REPUL>
0

>  <SCORE.INTRA.REPUL.0>
0

>  <SCORE.INTRA.SOLV>
1.39058

>  <SCORE.INTRA.SOLV.lig_0>
-65.3082

>  <SCORE.INTRA.VDW>
0.630107

>  <SCORE.INTRA.VDW.0>
-4.21408

>  <SCORE.INTRA.norm>
-0.0222896

>  <SCORE.RESTR>
0

>  <SCORE.RESTR.CAVITY>
0

>  <SCORE.RESTR.norm>
0

>  <SCORE.SYSTEM>
0

>  <SCORE.SYSTEM.CONST>
0

>  <SCORE.SYSTEM.DIHEDRAL>
0

>  <SCORE.SYSTEM.SOLV>
0

>  <SCORE.SYSTEM.norm>
0

>  <SCORE.heavy>
31

>  <SCORE.norm>
-0.278233

>  <RMSD>
8.289

$$$$
ligand
 OpenBabel11021811493D
libRbt.so/2013.1/901 2013/11/27
 31 33  0  0  0  0  0  0  0  0999 V2000
   -2.2994   13.4724   40.5324 C   0  0  2  0  0  0  0  0  0  0  0  0
   -1.4415   14.1073   41.4609 O   0  0  0  0  0  0  0  0  0  0  0  0
    2.6111   15.3625   41.2130 C   0  0  2  0  0  0  0  0  0  0  0  0
    4.0299   15.2900   41.1214 N   0  0  0  0  0  0  0  0  0  0  0  0
    2.2289   14.8808   37.4248 C   0  0  2  0  0  0  0  0  0  0  0  0
   -3.7984   13.8471   40.9078 C   0  0  2  0  0  0  0  0  0  0  0  0
   -3.9482   15.2982   40.8881 N   0  0  0  0  0  0  0  0  0  0  0  0
    2.1554   14.5746   42.5212 C   0  0  0  0  0  0  0  0  0  0  0  0
    3.3509   15.5862   36.5912 C   0  0  2  0  0  0  0  0  0  0  0  0
    4.5992   15.3156   37.1927 O   0  0  0  0  0  0  0  0  0  0  0  0
   -4.1801   13.2565   42.3147 C   0  0  0  0  0  0  0  0  0  0  0  0
    0.5785   14.6694   42.6315 C   0  0  2  0  0  0  0  0  0  0  0  0
    0.1424   13.9579   43.8337 N   0  0  0  0  0  0  0  0  0  0  0  0
    3.0617   17.1314   36.5727 C   0  0  1  0  0  0  0  0  0  0  0  0
    4.1305   17.8346   35.7932 N   0  0  0  0  0  0  0  0  0  0  0  0
   -3.5836   11.8017   42.5242 C   0  0  0  0  0  0  0  0  0  0  0  0
   -0.0668   14.0079   41.3459 C   0  0  2  0  0  0  0  0  0  0  0  0
    1.6201   17.3869   35.8624 C   0  0  1  0  0  0  0  0  0  0  0  0
    1.5671   16.9232   34.5277 O   0  0  0  0  0  0  0  0  0  0  0  0
   -2.6428   11.3015   41.6869 C   0  0  1  0  0  0  0  0  0  0  0  0
   -2.1238   12.0215   40.5722 O   0  0  0  0  0  0  0  0  0  0  0  0
    0.4117   14.7834   40.0484 C   0  0  2  0  0  0  0  0  0  0  0  0
   -0.1692   14.1651   38.8820 O   0  0  0  0  0  0  0  0  0  0  0  0
    0.5133   16.6491   36.6739 C   0  0  0  0  0  0  0  0  0  0  0  0
    0.8687   15.1793   36.8180 O   0  0  0  0  0  0  0  0  0  0  0  0
   -2.0448    9.9252   41.8559 C   0  0  0  0  0  0  0  0  0  0  0  0
   -2.3830    9.1803   40.6662 O   0  0  0  0  0  0  0  0  0  0  0  0
    1.9821   14.6939   39.9447 C   0  0  1  0  0  0  0  0  0  0  0  0
    2.3825   15.3925   38.7921 O   0  0  0  0  0  0  0  0  0  0  0  0
    1.2009   18.8606   35.7822 C   0  0  0  0  0  0  0  0  0  0  0  0
    5.0293   18.7175   36.5652 C   0  0  0  0  0  0  0  0  0  0  0  0
  1  2  1  1  0  0  0
  1  6  1  0  0  0  0
  1 21  1  0  0  0  0
  3  4  1  6  0  0  0
  3  8  1  0  0  0  0
  3 28  1  0  0  0  0
  5  9  1  0  0  0  0
  5 25  1  0  0  0  0
  5 29  1  1  0  0  0
  6  7  1  1  0  0  0
  6 11  1  0  0  0  0
  8 12  1  0  0  0  0
  9 10  1  1  0  0  0
  9 14  1  0  0  0  0
 11 16  1  0  0  0  0
 12 13  1  1  0  0  0
 12 17  1  0  0  0  0
 14 15  1  6  0  0  0
 14 18  1  0  0  0  0
 15 31  1  0  0  0  0
 16 20  1  0  0  0  0
 17  2  1  1  0  0  0
 17 22  1  0  0  0  0
 18 19  1  6  0  0  0
 18 24  1  0  0  0  0
 18 30  1  0  0  0  0
 20 21  1  0  0  0  0
 20 26  1  1  0  0  0
 22 23  1  6  0  0  0
 22 28  1  0  0  0  0
 24 25  1  0  0  0  0
 26 27  1  0  0  0  0
 28 29  1  6  0  0  0
M  END
>  <CHROM.1>
-177.13101767,-153.76288588,-112.29448311,-172.95562650,118.33888032,165.95530701
0.44898082,14.68289496,39.42893215,2.27478314,0.33037670,2.03906785

>  <Name>
ligand

>  <RI>
0

>  <Rbt.Current_Directory>
/home/itssahil/PROJECTS/Mol_Feturizer/New_Systems/rnas/4GPY

>  <Rbt.Executable>
rbdock ($Id: //depot/dev/client3/rdock/2013.1/src/exe/rbdock.cxx#4 $)

>  <Rbt.Library>
libRbt.so (2013.1, Build901 2013/11/27)

>  <Rbt.Parameter_File>
/export/apps/rDock/src/rDock_2013.1_src/data/scripts/dock_solv.prm

>  <Rbt.Receptor>
prm/pocket_docking_7.prm

>  <SCORE>
-11.4863

>  <SCORE.INTER>
-7.84177

>  <SCORE.INTER.CONST>
1

>  <SCORE.INTER.POLAR>
0

>  <SCORE.INTER.ROT>
6

>  <SCORE.INTER.SOLV>
12.8567

>  <SCORE.INTER.VDW>
-17.1134

>  <SCORE.INTER.norm>
-0.25296

>  <SCORE.INTRA>
-3.64452

>  <SCORE.INTRA.DIHEDRAL>
-7.74891

>  <SCORE.INTRA.DIHEDRAL.0>
14.7001

>  <SCORE.INTRA.POLAR>
0

>  <SCORE.INTRA.POLAR.0>
0

>  <SCORE.INTRA.REPUL>
0

>  <SCORE.INTRA.REPUL.0>
0

>  <SCORE.INTRA.SOLV>
-2.19218

>  <SCORE.INTRA.SOLV.lig_0>
-65.3082

>  <SCORE.INTRA.VDW>
1.32602

>  <SCORE.INTRA.VDW.0>
-4.21408

>  <SCORE.INTRA.norm>
-0.117565

>  <SCORE.RESTR>
0

>  <SCORE.RESTR.CAVITY>
0

>  <SCORE.RESTR.norm>
0

>  <SCORE.SYSTEM>
0

>  <SCORE.SYSTEM.CONST>
0

>  <SCORE.SYSTEM.DIHEDRAL>
0

>  <SCORE.SYSTEM.SOLV>
0

>  <SCORE.SYSTEM.norm>
0

>  <SCORE.heavy>
31

>  <SCORE.norm>
-0.370525

>  <RMSD>
8.300

$$$$
ligand
 OpenBabel11021811493D
libRbt.so/2013.1/901 2013/11/27
 31 33  0  0  0  0  0  0  0  0999 V2000
   -2.2056   17.3479   41.4262 C   0  0  2  0  0  0  0  0  0  0  0  0
   -1.8937   16.0031   41.1171 O   0  0  0  0  0  0  0  0  0  0  0  0
   -0.0983   14.0810   37.7792 C   0  0  2  0  0  0  0  0  0  0  0  0
    0.0970   13.6246   36.4448 N   0  0  0  0  0  0  0  0  0  0  0  0
    1.5523   16.0930   35.9303 C   0  0  2  0  0  0  0  0  0  0  0  0
   -2.0602   17.5407   42.9978 C   0  0  2  0  0  0  0  0  0  0  0  0
   -0.7031   17.1871   43.3999 N   0  0  0  0  0  0  0  0  0  0  0  0
   -1.4951   13.5171   38.2992 C   0  0  0  0  0  0  0  0  0  0  0  0
    3.0555   16.5300   35.9546 C   0  0  2  0  0  0  0  0  0  0  0  0
    3.7605   15.6775   36.8317 O   0  0  0  0  0  0  0  0  0  0  0  0
   -3.1235   16.6694   43.7622 C   0  0  0  0  0  0  0  0  0  0  0  0
   -1.7043   14.0114   39.7890 C   0  0  2  0  0  0  0  0  0  0  0  0
   -2.9799   13.4949   40.2866 N   0  0  0  0  0  0  0  0  0  0  0  0
    3.1332   18.0226   36.4420 C   0  0  1  0  0  0  0  0  0  0  0  0
    4.5644   18.4632   36.4895 N   0  0  0  0  0  0  0  0  0  0  0  0
   -4.5283   16.6745   43.0258 C   0  0  0  0  0  0  0  0  0  0  0  0
   -1.7161   15.5946   39.8078 C   0  0  2  0  0  0  0  0  0  0  0  0
    2.3153   18.9603   35.3933 C   0  0  1  0  0  0  0  0  0  0  0  0
    2.8343   18.9093   34.0790 O   0  0  0  0  0  0  0  0  0  0  0  0
   -4.6571   17.1489   41.7629 C   0  0  1  0  0  0  0  0  0  0  0  0
   -3.5683   17.6735   41.0084 O   0  0  0  0  0  0  0  0  0  0  0  0
   -0.3317   16.1458   39.2661 C   0  0  2  0  0  0  0  0  0  0  0  0
   -0.3571   17.5879   39.2731 O   0  0  0  0  0  0  0  0  0  0  0  0
    0.8293   18.4945   35.3437 C   0  0  0  0  0  0  0  0  0  0  0  0
    0.7609   17.0128   35.0163 O   0  0  0  0  0  0  0  0  0  0  0  0
   -5.9744   17.1646   41.0247 C   0  0  0  0  0  0  0  0  0  0  0  0
   -6.2838   18.5506   40.7639 O   0  0  0  0  0  0  0  0  0  0  0  0
   -0.1223   15.6464   37.7857 C   0  0  1  0  0  0  0  0  0  0  0  0
    1.1121   16.1419   37.3299 O   0  0  0  0  0  0  0  0  0  0  0  0
    2.2990   20.4523   35.7505 C   0  0  0  0  0  0  0  0  0  0  0  0
    5.3239   18.0886   37.7004 C   0  0  0  0  0  0  0  0  0  0  0  0
  1  2  1  1  0  0  0
  1  6  1  0  0  0  0
  1 21  1  0  0  0  0
  3  4  1  6  0  0  0
  3  8  1  0  0  0  0
  3 28  1  0  0  0  0
  5  9  1  0  0  0  0
  5 25  1  0  0  0  0
  5 29  1  1  0  0  0
  6  7  1  1  0  0  0
  6 11  1  0  0  0  0
  8 12  1  0  0  0  0
  9 10  1  1  0  0  0
  9 14  1  0  0  0  0
 11 16  1  0  0  0  0
 12 13  1  6  0  0  0
 12 17  1  0  0  0  0
 14 15  1  6  0  0  0
 14 18  1  0  0  0  0
 15 31  1  0  0  0  0
 16 20  1  0  0  0  0
 17  2  1  1  0  0  0
 17 22  1  0  0  0  0
 18 19  1  6  0  0  0
 18 24  1  0  0  0  0
 18 30  1  0  0  0  0
 20 21  1  0  0  0  0
 20 26  1  6  0  0  0
 22 23  1  6  0  0  0
 22 28  1  0  0  0  0
 24 25  1  0  0  0  0
 26 27  1  0  0  0  0
 28 29  1  1  0  0  0
M  END
>  <CHROM.1>
-169.05873499,-170.73796538,-82.51663493,-167.59503004,117.35494527,72.75509000
-0.38597963,16.75793238,38.73030386,-3.08855042,-0.73152901,-2.89841822

>  <Name>
ligand

>  <RI>
0

>  <Rbt.Current_Directory>
/home/itssahil/PROJECTS/Mol_Feturizer/New_Systems/rnas/4GPY

>  <Rbt.Executable>
rbdock ($Id: //depot/dev/client3/rdock/2013.1/src/exe/rbdock.cxx#4 $)

>  <Rbt.Library>
libRbt.so (2013.1, Build901 2013/11/27)

>  <Rbt.Parameter_File>
/export/apps/rDock/src/rDock_2013.1_src/data/scripts/dock_solv.prm

>  <Rbt.Receptor>
prm/pocket_docking_7.prm

>  <SCORE>
-13.8508

>  <SCORE.INTER>
-9.57394

>  <SCORE.INTER.CONST>
1

>  <SCORE.INTER.POLAR>
0

>  <SCORE.INTER.ROT>
6

>  <SCORE.INTER.SOLV>
17.3538

>  <SCORE.INTER.VDW>
-19.7672

>  <SCORE.INTER.norm>
-0.308837

>  <SCORE.INTRA>
-4.27686

>  <SCORE.INTRA.DIHEDRAL>
-10.1357

>  <SCORE.INTRA.DIHEDRAL.0>
14.7001

>  <SCORE.INTRA.POLAR>
0

>  <SCORE.INTRA.POLAR.0>
0

>  <SCORE.INTRA.REPUL>
0

>  <SCORE.INTRA.REPUL.0>
0

>  <SCORE.INTRA.SOLV>
-1.13432

>  <SCORE.INTRA.SOLV.lig_0>
-65.3082

>  <SCORE.INTRA.VDW>
1.35817

>  <SCORE.INTRA.VDW.0>
-4.21408

>  <SCORE.INTRA.norm>
-0.137963

>  <SCORE.RESTR>
0

>  <SCORE.RESTR.CAVITY>
0

>  <SCORE.RESTR.norm>
0

>  <SCORE.SYSTEM>
0

>  <SCORE.SYSTEM.CONST>
0

>  <SCORE.SYSTEM.DIHEDRAL>
0

>  <SCORE.SYSTEM.SOLV>
0

>  <SCORE.SYSTEM.norm>
0

>  <SCORE.heavy>
31

>  <SCORE.norm>
-0.4468

>  <RMSD>
8.317

$$$$
ligand
 OpenBabel11021811493D
libRbt.so/2013.1/901 2013/11/27
 31 33  0  0  0  0  0  0  0  0999 V2000
   -1.2206    9.1929   40.0346 C   0  0  2  0  0  0  0  0  0  0  0  0
   -0.8884   10.5346   39.7335 O   0  0  0  0  0  0  0  0  0  0  0  0
    1.4678   12.4182   36.7401 C   0  0  2  0  0  0  0  0  0  0  0  0
    2.6046   12.7718   35.9594 N   0  0  0  0  0  0  0  0  0  0  0  0
    0.6366    9.2220   34.7578 C   0  0  2  0  0  0  0  0  0  0  0  0
   -2.7370    9.1538   40.5111 C   0  0  2  0  0  0  0  0  0  0  0  0
   -3.5839    9.7044   39.4583 N   0  0  0  0  0  0  0  0  0  0  0  0
    1.7805   12.7693   38.2628 C   0  0  0  0  0  0  0  0  0  0  0  0
    1.1078    9.2160   33.2647 C   0  0  2  0  0  0  0  0  0  0  0  0
    2.4685    9.5896   33.2181 O   0  0  0  0  0  0  0  0  0  0  0  0
   -2.9145    9.9496   41.8561 C   0  0  0  0  0  0  0  0  0  0  0  0
    0.5097   12.3910   39.1286 C   0  0  2  0  0  0  0  0  0  0  0  0
    0.7758   12.7155   40.5306 N   0  0  0  0  0  0  0  0  0  0  0  0
    0.2204   10.2322   32.4576 C   0  0  1  0  0  0  0  0  0  0  0  0
    0.6603   10.2584   31.0257 N   0  0  0  0  0  0  0  0  0  0  0  0
   -1.6997    9.7093   42.8473 C   0  0  0  0  0  0  0  0  0  0  0  0
    0.2269   10.8407   38.9752 C   0  0  2  0  0  0  0  0  0  0  0  0
   -1.3320    9.7504   32.5357 C   0  0  1  0  0  0  0  0  0  0  0  0
   -1.5440    8.4643   31.9876 O   0  0  0  0  0  0  0  0  0  0  0  0
   -0.5561    9.1170   42.4254 C   0  0  1  0  0  0  0  0  0  0  0  0
   -0.3537    8.6680   41.0884 O   0  0  0  0  0  0  0  0  0  0  0  0
   -0.0589   10.4976   37.4539 C   0  0  2  0  0  0  0  0  0  0  0  0
   -0.3007    9.0818   37.3217 O   0  0  0  0  0  0  0  0  0  0  0  0
   -1.7825    9.7198   34.0269 C   0  0  0  0  0  0  0  0  0  0  0  0
   -0.8347    8.8525   34.8373 O   0  0  0  0  0  0  0  0  0  0  0  0
    0.6251    8.8768   43.3349 C   0  0  0  0  0  0  0  0  0  0  0  0
    0.8118    7.4465   43.3985 O   0  0  0  0  0  0  0  0  0  0  0  0
    1.2046   10.8819   36.5931 C   0  0  1  0  0  0  0  0  0  0  0  0
    0.9256   10.5746   35.2497 O   0  0  0  0  0  0  0  0  0  0  0  0
   -2.3201   10.6601   31.7942 C   0  0  0  0  0  0  0  0  0  0  0  0
    1.7391   11.2108   30.6903 C   0  0  0  0  0  0  0  0  0  0  0  0
  1  2  1  1  0  0  0
  1  6  1  0  0  0  0
  1 21  1  0  0  0  0
  3  4  1  6  0  0  0
  3  8  1  0  0  0  0
  3 28  1  0  0  0  0
  5  9  1  0  0  0  0
  5 25  1  0  0  0  0
  5 29  1  6  0  0  0
  6  7  1  6  0  0  0
  6 11  1  0  0  0  0
  8 12  1  0  0  0  0
  9 10  1  1  0  0  0
  9 14  1  0  0  0  0
 11 16  1  0  0  0  0
 12 13  1  1  0  0  0
 12 17  1  0  0  0  0
 14 15  1  6  0  0  0
 14 18  1  0  0  0  0
 15 31  1  0  0  0  0
 16 20  1  0  0  0  0
 17  2  1  1  0  0  0
 17 22  1  0  0  0  0
 18 19  1  6  0  0  0
 18 24  1  0  0  0  0
 18 30  1  0  0  0  0
 20 21  1  0  0  0  0
 20 26  1  6  0  0  0
 22 23  1  1  0  0  0
 22 28  1  0  0  0  0
 24 25  1  0  0  0  0
 26 27  1  0  0  0  0
 28 29  1  6  0  0  0
M  END
>  <CHROM.1>
-162.96591710,-151.86132216,-88.11493973,-166.11777973,117.64633290,179.75834309
-0.13503220,10.11018554,37.12921476,1.69558180,0.62052972,1.56016793

>  <Name>
ligand

>  <RI>
0

>  <Rbt.Current_Directory>
/home/itssahil/PROJECTS/Mol_Feturizer/New_Systems/rnas/4GPY

>  <Rbt.Executable>
rbdock ($Id: //depot/dev/client3/rdock/2013.1/src/exe/rbdock.cxx#4 $)

>  <Rbt.Library>
libRbt.so (2013.1, Build901 2013/11/27)

>  <Rbt.Parameter_File>
/export/apps/rDock/src/rDock_2013.1_src/data/scripts/dock_solv.prm

>  <Rbt.Receptor>
prm/pocket_docking_8.prm

>  <SCORE>
-4.14063

>  <SCORE.INTER>
-1.62931

>  <SCORE.INTER.CONST>
1

>  <SCORE.INTER.POLAR>
0

>  <SCORE.INTER.ROT>
6

>  <SCORE.INTER.SOLV>
10.5711

>  <SCORE.INTER.VDW>
-12.2099

>  <SCORE.INTER.norm>
-0.0525585

>  <SCORE.INTRA>
-2.51132

>  <SCORE.INTRA.DIHEDRAL>
-6.96356

>  <SCORE.INTRA.DIHEDRAL.0>
14.7001

>  <SCORE.INTRA.POLAR>
0

>  <SCORE.INTRA.POLAR.0>
0

>  <SCORE.INTRA.REPUL>
0

>  <SCORE.INTRA.REPUL.0>
0

>  <SCORE.INTRA.SOLV>
-1.80935

>  <SCORE.INTRA.SOLV.lig_0>
-65.3082

>  <SCORE.INTRA.VDW>
1.87513

>  <SCORE.INTRA.VDW.0>
-4.21408

>  <SCORE.INTRA.norm>
-0.0810103

>  <SCORE.RESTR>
0

>  <SCORE.RESTR.CAVITY>
0

>  <SCORE.RESTR.norm>
0

>  <SCORE.SYSTEM>
0

>  <SCORE.SYSTEM.CONST>
0

>  <SCORE.SYSTEM.DIHEDRAL>
0

>  <SCORE.SYSTEM.SOLV>
0

>  <SCORE.SYSTEM.norm>
0

>  <SCORE.heavy>
31

>  <SCORE.norm>
-0.133569

>  <RMSD>
8.319

$$$$
ligand
 OpenBabel11021811493D
libRbt.so/2013.1/901 2013/11/27
 31 33  0  0  0  0  0  0  0  0999 V2000
    1.3660   10.9786   38.0225 C   0  0  2  0  0  0  0  0  0  0  0  0
    0.3370   11.9101   37.7491 O   0  0  0  0  0  0  0  0  0  0  0  0
    0.0804   16.1471   37.9545 C   0  0  2  0  0  0  0  0  0  0  0  0
    0.0675   17.4607   38.5033 N   0  0  0  0  0  0  0  0  0  0  0  0
    2.7840   16.1682   36.1583 C   0  0  2  0  0  0  0  0  0  0  0  0
    1.0562    9.6471   37.2105 C   0  0  2  0  0  0  0  0  0  0  0  0
    0.9673    9.9631   35.7890 N   0  0  0  0  0  0  0  0  0  0  0  0
   -1.0630   15.2974   38.6688 C   0  0  0  0  0  0  0  0  0  0  0  0
    3.8368   17.2975   35.8982 C   0  0  2  0  0  0  0  0  0  0  0  0
    4.9429   17.0900   36.7507 O   0  0  0  0  0  0  0  0  0  0  0  0
   -0.2713    8.9805   37.7276 C   0  0  0  0  0  0  0  0  0  0  0  0
   -1.0590   13.8413   38.0465 C   0  0  2  0  0  0  0  0  0  0  0  0
   -2.1102   13.0484   38.6854 N   0  0  0  0  0  0  0  0  0  0  0  0
    3.1600   18.6866   36.1875 C   0  0  1  0  0  0  0  0  0  0  0  0
    4.1513   19.7869   35.9610 N   0  0  0  0  0  0  0  0  0  0  0  0
   -0.3989    9.0694   39.3061 C   0  0  0  0  0  0  0  0  0  0  0  0
    0.3544   13.1763   38.3052 C   0  0  2  0  0  0  0  0  0  0  0  0
    1.9013   18.8782   35.1741 C   0  0  1  0  0  0  0  0  0  0  0  0
    2.2761   18.8578   33.8109 O   0  0  0  0  0  0  0  0  0  0  0  0
    0.4156    9.8733   40.0320 C   0  0  1  0  0  0  0  0  0  0  0  0
    1.4334   10.6853   39.4532 O   0  0  0  0  0  0  0  0  0  0  0  0
    1.4872   14.0418   37.6114 C   0  0  2  0  0  0  0  0  0  0  0  0
    2.7719   13.4368   37.8646 O   0  0  0  0  0  0  0  0  0  0  0  0
    0.8764   17.7287   35.4102 C   0  0  0  0  0  0  0  0  0  0  0  0
    1.5668   16.3825   35.2751 O   0  0  0  0  0  0  0  0  0  0  0  0
    0.3218    9.9917   41.5345 C   0  0  0  0  0  0  0  0  0  0  0  0
   -0.0169   11.3662   41.8189 O   0  0  0  0  0  0  0  0  0  0  0  0
    1.4765   15.4929   38.2272 C   0  0  1  0  0  0  0  0  0  0  0  0
    2.4835   16.2419   37.5933 O   0  0  0  0  0  0  0  0  0  0  0  0
    1.1356   20.1960   35.3503 C   0  0  0  0  0  0  0  0  0  0  0  0
    4.8556   19.7753   34.6621 C   0  0  0  0  0  0  0  0  0  0  0  0
  1  2  1  1  0  0  0
  1  6  1  0  0  0  0
  1 21  1  0  0  0  0
  3  4  1  1  0  0  0
  3  8  1  0  0  0  0
  3 28  1  0  0  0  0
  5  9  1  0  0  0  0
  5 25  1  0  0  0  0
  5 29  1  1  0  0  0
  6  7  1  6  0  0  0
  6 11  1  0  0  0  0
  8 12  1  0  0  0  0
  9 10  1  1  0  0  0
  9 14  1  0  0  0  0
 11 16  1  0  0  0  0
 12 13  1  1  0  0  0
 12 17  1  0  0  0  0
 14 15  1  6  0  0  0
 14 18  1  0  0  0  0
 15 31  1  0  0  0  0
 16 20  1  0  0  0  0
 17  2  1  6  0  0  0
 17 22  1  0  0  0  0
 18 19  1  6  0  0  0
 18 24  1  0  0  0  0
 18 30  1  0  0  0  0
 20 21  1  0  0  0  0
 20 26  1  6  0  0  0
 22 23  1  1  0  0  0
 22 28  1  0  0  0  0
 24 25  1  0  0  0  0
 26 27  1  0  0  0  0
 28 29  1  6  0  0  0
M  END
>  <CHROM.1>
-178.91643700,173.01781366,51.76370625,-168.51412656,-117.71321667,-78.46264691
1.35611283,14.57811809,37.44193964,-1.93012307,0.63389479,-0.19143396

>  <Name>
ligand

>  <RI>
0

>  <Rbt.Current_Directory>
/home/itssahil/PROJECTS/Mol_Feturizer/New_Systems/rnas/4GPY

>  <Rbt.Executable>
rbdock ($Id: //depot/dev/client3/rdock/2013.1/src/exe/rbdock.cxx#4 $)

>  <Rbt.Library>
libRbt.so (2013.1, Build901 2013/11/27)

>  <Rbt.Parameter_File>
/export/apps/rDock/src/rDock_2013.1_src/data/scripts/dock_solv.prm

>  <Rbt.Receptor>
prm/pocket_docking_5.prm

>  <SCORE>
-7.21601

>  <SCORE.INTER>
-5.33935

>  <SCORE.INTER.CONST>
1

>  <SCORE.INTER.POLAR>
0

>  <SCORE.INTER.ROT>
6

>  <SCORE.INTER.SOLV>
13.1205

>  <SCORE.INTER.VDW>
-15.5331

>  <SCORE.INTER.norm>
-0.172237

>  <SCORE.INTRA>
-1.87665

>  <SCORE.INTRA.DIHEDRAL>
-10.5209

>  <SCORE.INTRA.DIHEDRAL.0>
14.7001

>  <SCORE.INTRA.POLAR>
0

>  <SCORE.INTRA.POLAR.0>
0

>  <SCORE.INTRA.REPUL>
0

>  <SCORE.INTRA.REPUL.0>
0

>  <SCORE.INTRA.SOLV>
0.411865

>  <SCORE.INTRA.SOLV.lig_0>
-65.3082

>  <SCORE.INTRA.VDW>
3.17784

>  <SCORE.INTRA.VDW.0>
-4.21408

>  <SCORE.INTRA.norm>
-0.0605372

>  <SCORE.RESTR>
0

>  <SCORE.RESTR.CAVITY>
0

>  <SCORE.RESTR.norm>
0

>  <SCORE.SYSTEM>
0

>  <SCORE.SYSTEM.CONST>
0

>  <SCORE.SYSTEM.DIHEDRAL>
0

>  <SCORE.SYSTEM.SOLV>
0

>  <SCORE.SYSTEM.norm>
0

>  <SCORE.heavy>
31

>  <SCORE.norm>
-0.232774

>  <RMSD>
8.351

$$$$
ligand
 OpenBabel11021811493D
libRbt.so/2013.1/901 2013/11/27
 31 33  0  0  0  0  0  0  0  0999 V2000
   -1.4822   11.2108   38.2415 C   0  0  2  0  0  0  0  0  0  0  0  0
   -1.1358   11.8186   39.4711 O   0  0  0  0  0  0  0  0  0  0  0  0
    2.1166   14.2891   40.6451 C   0  0  2  0  0  0  0  0  0  0  0  0
    3.4469   14.6901   40.9557 N   0  0  0  0  0  0  0  0  0  0  0  0
    2.5406   14.8142   36.8548 C   0  0  2  0  0  0  0  0  0  0  0  0
   -3.0672   11.2177   38.1156 C   0  0  2  0  0  0  0  0  0  0  0  0
   -3.5482   12.5924   38.2015 N   0  0  0  0  0  0  0  0  0  0  0  0
    1.7297   13.0686   41.5939 C   0  0  0  0  0  0  0  0  0  0  0  0
    3.6701   15.8320   36.4812 C   0  0  2  0  0  0  0  0  0  0  0  0
    4.8294   15.5132   37.2213 O   0  0  0  0  0  0  0  0  0  0  0  0
   -3.7144   10.3195   39.2330 C   0  0  0  0  0  0  0  0  0  0  0  0
    0.2443   12.6337   41.2594 C   0  0  2  0  0  0  0  0  0  0  0  0
   -0.1316   11.5180   42.1286 N   0  0  0  0  0  0  0  0  0  0  0  0
    3.1684   17.2819   36.8239 C   0  0  1  0  0  0  0  0  0  0  0  0
    4.2375   18.2770   36.4901 N   0  0  0  0  0  0  0  0  0  0  0  0
   -2.8812    8.9921   39.4775 C   0  0  0  0  0  0  0  0  0  0  0  0
    0.1692   12.1877   39.7419 C   0  0  2  0  0  0  0  0  0  0  0  0
    1.8404   17.6004   35.9390 C   0  0  1  0  0  0  0  0  0  0  0  0
    2.0733   17.5439   34.5455 O   0  0  0  0  0  0  0  0  0  0  0  0
   -1.6350    8.8415   38.9668 C   0  0  1  0  0  0  0  0  0  0  0  0
   -0.9839    9.8375   38.1832 O   0  0  0  0  0  0  0  0  0  0  0  0
    0.5792   13.4012   38.8075 C   0  0  2  0  0  0  0  0  0  0  0  0
    0.5221   12.9817   37.4287 O   0  0  0  0  0  0  0  0  0  0  0  0
    0.7340   16.5597   36.2861 C   0  0  0  0  0  0  0  0  0  0  0  0
    1.2690   15.1510   36.0951 O   0  0  0  0  0  0  0  0  0  0  0  0
   -0.8067    7.5974   39.1826 C   0  0  0  0  0  0  0  0  0  0  0  0
   -0.5493    7.0420   37.8749 O   0  0  0  0  0  0  0  0  0  0  0  0
    2.0555   13.8371   39.1474 C   0  0  1  0  0  0  0  0  0  0  0  0
    2.3937   14.9162   38.3118 O   0  0  0  0  0  0  0  0  0  0  0  0
    1.2322   18.9884   36.1787 C   0  0  0  0  0  0  0  0  0  0  0  0
    5.3245   18.4256   37.4799 C   0  0  0  0  0  0  0  0  0  0  0  0
  1  2  1  1  0  0  0
  1  6  1  0  0  0  0
  1 21  1  0  0  0  0
  3  4  1  1  0  0  0
  3  8  1  0  0  0  0
  3 28  1  0  0  0  0
  5  9  1  0  0  0  0
  5 25  1  0  0  0  0
  5 29  1  1  0  0  0
  6  7  1  1  0  0  0
  6 11  1  0  0  0  0
  8 12  1  0  0  0  0
  9 10  1  1  0  0  0
  9 14  1  0  0  0  0
 11 16  1  0  0  0  0
 12 13  1  1  0  0  0
 12 17  1  0  0  0  0
 14 15  1  6  0  0  0
 14 18  1  0  0  0  0
 15 31  1  0  0  0  0
 16 20  1  0  0  0  0
 17  2  1  6  0  0  0
 17 22  1  0  0  0  0
 18 19  1  6  0  0  0
 18 24  1  0  0  0  0
 18 30  1  0  0  0  0
 20 21  1  0  0  0  0
 20 26  1  1  0  0  0
 22 23  1  6  0  0  0
 22 28  1  0  0  0  0
 24 25  1  0  0  0  0
 26 27  1  0  0  0  0
 28 29  1  6  0  0  0
M  END
>  <CHROM.1>
-167.39250231,-146.53442869,-80.13024871,-171.86163071,119.23355780,174.91818379
0.79879614,13.51269283,38.26458626,2.29515398,0.66053472,2.32540139

>  <Name>
ligand

>  <RI>
0

>  <Rbt.Current_Directory>
/home/itssahil/PROJECTS/Mol_Feturizer/New_Systems/rnas/4GPY

>  <Rbt.Executable>
rbdock ($Id: //depot/dev/client3/rdock/2013.1/src/exe/rbdock.cxx#4 $)

>  <Rbt.Library>
libRbt.so (2013.1, Build901 2013/11/27)

>  <Rbt.Parameter_File>
/export/apps/rDock/src/rDock_2013.1_src/data/scripts/dock_solv.prm

>  <Rbt.Receptor>
prm/pocket_docking_4.prm

>  <SCORE>
-11.7911

>  <SCORE.INTER>
-9.13172

>  <SCORE.INTER.CONST>
1

>  <SCORE.INTER.POLAR>
0

>  <SCORE.INTER.ROT>
6

>  <SCORE.INTER.SOLV>
14.8123

>  <SCORE.INTER.VDW>
-18.6252

>  <SCORE.INTER.norm>
-0.294572

>  <SCORE.INTRA>
-2.65936

>  <SCORE.INTRA.DIHEDRAL>
-7.25179

>  <SCORE.INTRA.DIHEDRAL.0>
14.7001

>  <SCORE.INTRA.POLAR>
0

>  <SCORE.INTRA.POLAR.0>
0

>  <SCORE.INTRA.REPUL>
0

>  <SCORE.INTRA.REPUL.0>
0

>  <SCORE.INTRA.SOLV>
-2.09927

>  <SCORE.INTRA.SOLV.lig_0>
-65.3082

>  <SCORE.INTRA.VDW>
2.01617

>  <SCORE.INTRA.VDW.0>
-4.21408

>  <SCORE.INTRA.norm>
-0.0857858

>  <SCORE.RESTR>
0

>  <SCORE.RESTR.CAVITY>
0

>  <SCORE.RESTR.norm>
0

>  <SCORE.SYSTEM>
0

>  <SCORE.SYSTEM.CONST>
0

>  <SCORE.SYSTEM.DIHEDRAL>
0

>  <SCORE.SYSTEM.SOLV>
0

>  <SCORE.SYSTEM.norm>
0

>  <SCORE.heavy>
31

>  <SCORE.norm>
-0.380357

>  <RMSD>
8.360

$$$$
ligand
 OpenBabel11021811493D
libRbt.so/2013.1/901 2013/11/27
 31 33  0  0  0  0  0  0  0  0999 V2000
    5.1617   13.8375   37.6647 C   0  0  2  0  0  0  0  0  0  0  0  0
    3.8055   13.7940   37.2647 O   0  0  0  0  0  0  0  0  0  0  0  0
    0.2468   16.1044   37.5058 C   0  0  2  0  0  0  0  0  0  0  0  0
   -0.7338   16.9996   38.0195 N   0  0  0  0  0  0  0  0  0  0  0  0
    2.3556   19.0496   36.2592 C   0  0  2  0  0  0  0  0  0  0  0  0
    5.5690   12.3931   38.1899 C   0  0  2  0  0  0  0  0  0  0  0  0
    5.3420   11.4167   37.1298 N   0  0  0  0  0  0  0  0  0  0  0  0
    0.4354   14.9179   38.5528 C   0  0  0  0  0  0  0  0  0  0  0  0
    1.4696   20.3303   36.4213 C   0  0  2  0  0  0  0  0  0  0  0  0
    0.7967   20.2611   37.6605 O   0  0  0  0  0  0  0  0  0  0  0  0
    4.7539   12.0252   39.4839 C   0  0  0  0  0  0  0  0  0  0  0  0
    1.5142   13.9138   37.9734 C   0  0  2  0  0  0  0  0  0  0  0  0
    1.6940   12.8115   38.9191 N   0  0  0  0  0  0  0  0  0  0  0  0
    0.4450   20.3819   35.2301 C   0  0  1  0  0  0  0  0  0  0  0  0
   -0.4278   21.5917   35.3684 N   0  0  0  0  0  0  0  0  0  0  0  0
    4.5891   13.2721   40.4504 C   0  0  0  0  0  0  0  0  0  0  0  0
    2.8816   14.6872   37.7760 C   0  0  2  0  0  0  0  0  0  0  0  0
    1.2711   20.4705   33.8309 C   0  0  1  0  0  0  0  0  0  0  0  0
    2.0931   21.6175   33.7413 O   0  0  0  0  0  0  0  0  0  0  0  0
    4.8840   14.5274   40.0333 C   0  0  1  0  0  0  0  0  0  0  0  0
    5.3586   14.8263   38.7235 O   0  0  0  0  0  0  0  0  0  0  0  0
    2.6779   15.8800   36.7517 C   0  0  2  0  0  0  0  0  0  0  0  0
    3.9243   16.5874   36.5894 O   0  0  0  0  0  0  0  0  0  0  0  0
    2.1808   19.2129   33.6947 C   0  0  0  0  0  0  0  0  0  0  0  0
    3.0701   19.0812   34.9190 O   0  0  0  0  0  0  0  0  0  0  0  0
    4.7340   15.7409   40.9194 C   0  0  0  0  0  0  0  0  0  0  0  0
    3.3204   16.0265   40.9907 O   0  0  0  0  0  0  0  0  0  0  0  0
    1.5983   16.8743   37.3271 C   0  0  1  0  0  0  0  0  0  0  0  0
    1.4307   17.9184   36.4004 O   0  0  0  0  0  0  0  0  0  0  0  0
    0.3928   20.5187   32.5738 C   0  0  0  0  0  0  0  0  0  0  0  0
    0.2660   22.8751   35.6029 C   0  0  0  0  0  0  0  0  0  0  0  0
  1  2  1  1  0  0  0
  1  6  1  0  0  0  0
  1 21  1  0  0  0  0
  3  4  1  1  0  0  0
  3  8  1  0  0  0  0
  3 28  1  0  0  0  0
  5  9  1  0  0  0  0
  5 25  1  0  0  0  0
  5 29  1  6  0  0  0
  6  7  1  6  0  0  0
  6 11  1  0  0  0  0
  8 12  1  0  0  0  0
  9 10  1  1  0  0  0
  9 14  1  0  0  0  0
 11 16  1  0  0  0  0
 12 13  1  1  0  0  0
 12 17  1  0  0  0  0
 14 15  1  1  0  0  0
 14 18  1  0  0  0  0
 15 31  1  0  0  0  0
 16 20  1  0  0  0  0
 17  2  1  6  0  0  0
 17 22  1  0  0  0  0
 18 19  1  1  0  0  0
 18 24  1  0  0  0  0
 18 30  1  0  0  0  0
 20 21  1  0  0  0  0
 20 26  1  6  0  0  0
 22 23  1  1  0  0  0
 22 28  1  0  0  0  0
 24 25  1  0  0  0  0
 26 27  1  0  0  0  0
 28 29  1  6  0  0  0
M  END
>  <CHROM.1>
125.70977754,-125.05085934,49.67888992,-142.77648053,-75.64751734,162.77780562
2.49717649,16.81981515,37.15150674,-1.04789393,0.73779755,-0.87938138

>  <Name>
ligand

>  <RI>
0

>  <Rbt.Current_Directory>
/home/itssahil/PROJECTS/Mol_Feturizer/New_Systems/rnas/4GPY

>  <Rbt.Executable>
rbdock ($Id: //depot/dev/client3/rdock/2013.1/src/exe/rbdock.cxx#4 $)

>  <Rbt.Library>
libRbt.so (2013.1, Build901 2013/11/27)

>  <Rbt.Parameter_File>
/export/apps/rDock/src/rDock_2013.1_src/data/scripts/dock_solv.prm

>  <Rbt.Receptor>
prm/blind_docking_80.prm

>  <SCORE>
9.4214

>  <SCORE.INTER>
-0.863355

>  <SCORE.INTER.CONST>
1

>  <SCORE.INTER.POLAR>
0

>  <SCORE.INTER.ROT>
6

>  <SCORE.INTER.SOLV>
18.6466

>  <SCORE.INTER.VDW>
-14.3911

>  <SCORE.INTER.norm>
-0.0278502

>  <SCORE.INTRA>
7.66721

>  <SCORE.INTRA.DIHEDRAL>
9.09668

>  <SCORE.INTRA.DIHEDRAL.0>
14.7001

>  <SCORE.INTRA.POLAR>
0

>  <SCORE.INTRA.POLAR.0>
0

>  <SCORE.INTRA.REPUL>
0

>  <SCORE.INTRA.REPUL.0>
0

>  <SCORE.INTRA.SOLV>
1.6609

>  <SCORE.INTRA.SOLV.lig_0>
-65.3082

>  <SCORE.INTRA.VDW>
2.28842

>  <SCORE.INTRA.VDW.0>
-4.21408

>  <SCORE.INTRA.norm>
0.247329

>  <SCORE.RESTR>
2.61754

>  <SCORE.RESTR.CAVITY>
2.61754

>  <SCORE.RESTR.norm>
0.0844367

>  <SCORE.SYSTEM>
0

>  <SCORE.SYSTEM.CONST>
0

>  <SCORE.SYSTEM.DIHEDRAL>
0

>  <SCORE.SYSTEM.SOLV>
0

>  <SCORE.SYSTEM.norm>
0

>  <SCORE.heavy>
31

>  <SCORE.norm>
0.303916

>  <RMSD>
8.367

$$$$
ligand
 OpenBabel11021811493D
libRbt.so/2013.1/901 2013/11/27
 31 33  0  0  0  0  0  0  0  0999 V2000
   -1.2955   12.0771   40.7417 C   0  0  2  0  0  0  0  0  0  0  0  0
   -0.7953   13.0978   41.5838 O   0  0  0  0  0  0  0  0  0  0  0  0
    2.6776   15.5448   41.4758 C   0  0  2  0  0  0  0  0  0  0  0  0
    4.0512   15.9182   41.4980 N   0  0  0  0  0  0  0  0  0  0  0  0
    2.6499   14.6453   37.7313 C   0  0  2  0  0  0  0  0  0  0  0  0
   -2.8812   12.0724   40.8585 C   0  0  2  0  0  0  0  0  0  0  0  0
   -3.3924   13.3876   40.4878 N   0  0  0  0  0  0  0  0  0  0  0  0
    2.3460   14.7841   42.8363 C   0  0  0  0  0  0  0  0  0  0  0  0
    3.6613   15.4510   36.8486 C   0  0  2  0  0  0  0  0  0  0  0  0
    4.9316   15.4092   37.4635 O   0  0  0  0  0  0  0  0  0  0  0  0
   -3.3269   11.6805   42.3152 C   0  0  0  0  0  0  0  0  0  0  0  0
    0.8141   14.3835   42.8183 C   0  0  2  0  0  0  0  0  0  0  0  0
    0.4892   13.6907   44.0658 N   0  0  0  0  0  0  0  0  0  0  0  0
    3.1472   16.9316   36.7263 C   0  0  1  0  0  0  0  0  0  0  0  0
    4.1060   17.7309   35.8978 N   0  0  0  0  0  0  0  0  0  0  0  0
   -2.4210   10.5263   42.9178 C   0  0  0  0  0  0  0  0  0  0  0  0
    0.5474   13.4295   41.5830 C   0  0  2  0  0  0  0  0  0  0  0  0
    1.6888   16.9226   36.0044 C   0  0  1  0  0  0  0  0  0  0  0  0
    1.7145   16.3673   34.7043 O   0  0  0  0  0  0  0  0  0  0  0  0
   -1.2579   10.1644   42.3238 C   0  0  1  0  0  0  0  0  0  0  0  0
   -0.7631   10.7733   41.1345 O   0  0  0  0  0  0  0  0  0  0  0  0
    0.9031   14.1868   40.2363 C   0  0  2  0  0  0  0  0  0  0  0  0
    0.6712   13.3057   39.1182 O   0  0  0  0  0  0  0  0  0  0  0  0
    0.6974   16.0858   36.8672 C   0  0  0  0  0  0  0  0  0  0  0  0
    1.2649   14.6978   37.1096 O   0  0  0  0  0  0  0  0  0  0  0  0
   -0.3639    9.0765   42.8694 C   0  0  0  0  0  0  0  0  0  0  0  0
    0.9282    9.6799   43.0954 O   0  0  0  0  0  0  0  0  0  0  0  0
    2.4266   14.5911   40.2598 C   0  0  1  0  0  0  0  0  0  0  0  0
    2.7163   15.2651   39.0603 O   0  0  0  0  0  0  0  0  0  0  0  0
    1.0572   18.3093   35.8257 C   0  0  0  0  0  0  0  0  0  0  0  0
    5.0331   18.6117   36.6381 C   0  0  0  0  0  0  0  0  0  0  0  0
  1  2  1  1  0  0  0
  1  6  1  0  0  0  0
  1 21  1  0  0  0  0
  3  4  1  1  0  0  0
  3  8  1  0  0  0  0
  3 28  1  0  0  0  0
  5  9  1  0  0  0  0
  5 25  1  0  0  0  0
  5 29  1  1  0  0  0
  6  7  1  1  0  0  0
  6 11  1  0  0  0  0
  8 12  1  0  0  0  0
  9 10  1  1  0  0  0
  9 14  1  0  0  0  0
 11 16  1  0  0  0  0
 12 13  1  1  0  0  0
 12 17  1  0  0  0  0
 14 15  1  6  0  0  0
 14 18  1  0  0  0  0
 15 31  1  0  0  0  0
 16 20  1  0  0  0  0
 17  2  1  6  0  0  0
 17 22  1  0  0  0  0
 18 19  1  6  0  0  0
 18 24  1  0  0  0  0
 18 30  1  0  0  0  0
 20 21  1  0  0  0  0
 20 26  1  1  0  0  0
 22 23  1  6  0  0  0
 22 28  1  0  0  0  0
 24 25  1  0  0  0  0
 26 27  1  0  0  0  0
 28 29  1  6  0  0  0
M  END
>  <CHROM.1>
-173.24146585,-153.17962232,-101.49890265,-168.96112948,-122.53819012,176.99384777
1.04998835,14.14588955,39.74670428,2.12848961,0.46510815,2.06713581

>  <Name>
ligand

>  <RI>
0

>  <Rbt.Current_Directory>
/home/itssahil/PROJECTS/Mol_Feturizer/New_Systems/rnas/4GPY

>  <Rbt.Executable>
rbdock ($Id: //depot/dev/client3/rdock/2013.1/src/exe/rbdock.cxx#4 $)

>  <Rbt.Library>
libRbt.so (2013.1, Build901 2013/11/27)

>  <Rbt.Parameter_File>
/export/apps/rDock/src/rDock_2013.1_src/data/scripts/dock_solv.prm

>  <Rbt.Receptor>
prm/pocket_docking_8.prm

>  <SCORE>
-10.9687

>  <SCORE.INTER>
-7.48718

>  <SCORE.INTER.CONST>
1

>  <SCORE.INTER.POLAR>
0

>  <SCORE.INTER.ROT>
6

>  <SCORE.INTER.SOLV>
12.3615

>  <SCORE.INTER.VDW>
-16.7119

>  <SCORE.INTER.norm>
-0.241522

>  <SCORE.INTRA>
-3.48155

>  <SCORE.INTRA.DIHEDRAL>
-8.20689

>  <SCORE.INTRA.DIHEDRAL.0>
14.7001

>  <SCORE.INTRA.POLAR>
0

>  <SCORE.INTRA.POLAR.0>
0

>  <SCORE.INTRA.REPUL>
0

>  <SCORE.INTRA.REPUL.0>
0

>  <SCORE.INTRA.SOLV>
-1.917

>  <SCORE.INTRA.SOLV.lig_0>
-65.3082

>  <SCORE.INTRA.VDW>
1.58039

>  <SCORE.INTRA.VDW.0>
-4.21408

>  <SCORE.INTRA.norm>
-0.112308

>  <SCORE.RESTR>
0

>  <SCORE.RESTR.CAVITY>
0

>  <SCORE.RESTR.norm>
0

>  <SCORE.SYSTEM>
0

>  <SCORE.SYSTEM.CONST>
0

>  <SCORE.SYSTEM.DIHEDRAL>
0

>  <SCORE.SYSTEM.SOLV>
0

>  <SCORE.SYSTEM.norm>
0

>  <SCORE.heavy>
31

>  <SCORE.norm>
-0.35383

>  <RMSD>
8.372

$$$$
ligand
 OpenBabel11021811493D
libRbt.so/2013.1/901 2013/11/27
 31 33  0  0  0  0  0  0  0  0999 V2000
   -0.9197   13.5464   43.0303 C   0  0  2  0  0  0  0  0  0  0  0  0
    0.1520   12.6255   42.9626 O   0  0  0  0  0  0  0  0  0  0  0  0
    2.7164   11.3513   39.8224 C   0  0  2  0  0  0  0  0  0  0  0  0
    3.1403   10.7543   38.6015 N   0  0  0  0  0  0  0  0  0  0  0  0
    2.5274   13.3890   37.2770 C   0  0  2  0  0  0  0  0  0  0  0  0
   -1.0642   14.0271   44.5390 C   0  0  2  0  0  0  0  0  0  0  0  0
    0.1955   14.6199   44.9752 N   0  0  0  0  0  0  0  0  0  0  0  0
    2.0093   10.2296   40.7064 C   0  0  0  0  0  0  0  0  0  0  0  0
    3.5574   14.5150   36.9269 C   0  0  2  0  0  0  0  0  0  0  0  0
    4.7191   14.3237   37.7061 O   0  0  0  0  0  0  0  0  0  0  0  0
   -1.4758   12.8243   45.4653 C   0  0  0  0  0  0  0  0  0  0  0  0
    1.5525   10.8904   42.0711 C   0  0  2  0  0  0  0  0  0  0  0  0
    0.9081    9.8713   42.9005 N   0  0  0  0  0  0  0  0  0  0  0  0
    2.8983   15.9080   37.2374 C   0  0  1  0  0  0  0  0  0  0  0  0
    3.8693   17.0055   36.9255 N   0  0  0  0  0  0  0  0  0  0  0  0
   -2.5371   11.8770   44.7637 C   0  0  0  0  0  0  0  0  0  0  0  0
    0.5321   12.0601   41.7590 C   0  0  2  0  0  0  0  0  0  0  0  0
    1.5735   16.0804   36.3084 C   0  0  1  0  0  0  0  0  0  0  0  0
    1.8553   16.0369   34.9234 O   0  0  0  0  0  0  0  0  0  0  0  0
   -2.8014   11.9793   43.4384 C   0  0  1  0  0  0  0  0  0  0  0  0
   -2.1659   12.9257   42.5837 O   0  0  0  0  0  0  0  0  0  0  0  0
    1.2373   13.1587   40.8593 C   0  0  2  0  0  0  0  0  0  0  0  0
    0.2965   14.2124   40.5680 O   0  0  0  0  0  0  0  0  0  0  0  0
    0.5697   14.9339   36.6329 C   0  0  0  0  0  0  0  0  0  0  0  0
    1.2527   13.5864   36.4746 O   0  0  0  0  0  0  0  0  0  0  0  0
   -3.7984   11.0923   42.7317 C   0  0  0  0  0  0  0  0  0  0  0  0
   -3.0550   10.3367   41.7513 O   0  0  0  0  0  0  0  0  0  0  0  0
    1.6977   12.4970   39.5046 C   0  0  1  0  0  0  0  0  0  0  0  0
    2.3244   13.4872   38.7276 O   0  0  0  0  0  0  0  0  0  0  0  0
    0.8182   17.4001   36.5133 C   0  0  0  0  0  0  0  0  0  0  0  0
    4.8948   17.2827   37.9526 C   0  0  0  0  0  0  0  0  0  0  0  0
  1  2  1  1  0  0  0
  1  6  1  0  0  0  0
  1 21  1  0  0  0  0
  3  4  1  6  0  0  0
  3  8  1  0  0  0  0
  3 28  1  0  0  0  0
  5  9  1  0  0  0  0
  5 25  1  0  0  0  0
  5 29  1  1  0  0  0
  6  7  1  1  0  0  0
  6 11  1  0  0  0  0
  8 12  1  0  0  0  0
  9 10  1  1  0  0  0
  9 14  1  0  0  0  0
 11 16  1  0  0  0  0
 12 13  1  1  0  0  0
 12 17  1  0  0  0  0
 14 15  1  6  0  0  0
 14 18  1  0  0  0  0
 15 31  1  0  0  0  0
 16 20  1  0  0  0  0
 17  2  1  1  0  0  0
 17 22  1  0  0  0  0
 18 19  1  6  0  0  0
 18 24  1  0  0  0  0
 18 30  1  0  0  0  0
 20 21  1  0  0  0  0
 20 26  1  6  0  0  0
 22 23  1  6  0  0  0
 22 28  1  0  0  0  0
 24 25  1  0  0  0  0
 26 27  1  0  0  0  0
 28 29  1  6  0  0  0
M  END
>  <CHROM.1>
-178.48421477,-166.09617261,-80.71728449,-169.35249005,-117.30099894,80.58500807
0.87944274,13.39843925,40.18186673,2.35128269,-0.78834313,2.65431724

>  <Name>
ligand

>  <RI>
0

>  <Rbt.Current_Directory>
/home/itssahil/PROJECTS/Mol_Feturizer/New_Systems/rnas/4GPY

>  <Rbt.Executable>
rbdock ($Id: //depot/dev/client3/rdock/2013.1/src/exe/rbdock.cxx#4 $)

>  <Rbt.Library>
libRbt.so (2013.1, Build901 2013/11/27)

>  <Rbt.Parameter_File>
/export/apps/rDock/src/rDock_2013.1_src/data/scripts/dock_solv.prm

>  <Rbt.Receptor>
prm/pocket_docking_8.prm

>  <SCORE>
-9.30144

>  <SCORE.INTER>
-5.28009

>  <SCORE.INTER.CONST>
1

>  <SCORE.INTER.POLAR>
0

>  <SCORE.INTER.ROT>
6

>  <SCORE.INTER.SOLV>
9.02042

>  <SCORE.INTER.VDW>
-14.1269

>  <SCORE.INTER.norm>
-0.170325

>  <SCORE.INTRA>
-4.02135

>  <SCORE.INTRA.DIHEDRAL>
-9.31931

>  <SCORE.INTRA.DIHEDRAL.0>
14.7001

>  <SCORE.INTRA.POLAR>
0

>  <SCORE.INTRA.POLAR.0>
0

>  <SCORE.INTRA.REPUL>
0

>  <SCORE.INTRA.REPUL.0>
0

>  <SCORE.INTRA.SOLV>
-1.06589

>  <SCORE.INTRA.SOLV.lig_0>
-65.3082

>  <SCORE.INTRA.VDW>
1.17125

>  <SCORE.INTRA.VDW.0>
-4.21408

>  <SCORE.INTRA.norm>
-0.129721

>  <SCORE.RESTR>
0

>  <SCORE.RESTR.CAVITY>
0

>  <SCORE.RESTR.norm>
0

>  <SCORE.SYSTEM>
0

>  <SCORE.SYSTEM.CONST>
0

>  <SCORE.SYSTEM.DIHEDRAL>
0

>  <SCORE.SYSTEM.SOLV>
0

>  <SCORE.SYSTEM.norm>
0

>  <SCORE.heavy>
31

>  <SCORE.norm>
-0.300047

>  <RMSD>
8.379

$$$$
ligand
 OpenBabel11021811493D
libRbt.so/2013.1/901 2013/11/27
 31 33  0  0  0  0  0  0  0  0999 V2000
    2.1817    9.6875   44.6688 C   0  0  2  0  0  0  0  0  0  0  0  0
    1.2526    8.6220   44.7213 O   0  0  0  0  0  0  0  0  0  0  0  0
    2.0030    6.8260   40.9435 C   0  0  2  0  0  0  0  0  0  0  0  0
    1.8984    5.9225   39.8483 N   0  0  0  0  0  0  0  0  0  0  0  0
   -0.3583    7.7433   38.8079 C   0  0  2  0  0  0  0  0  0  0  0  0
    2.3496   10.2701   46.1387 C   0  0  2  0  0  0  0  0  0  0  0  0
    2.7910    9.2022   47.0293 N   0  0  0  0  0  0  0  0  0  0  0  0
    2.3594    5.9861   42.2501 C   0  0  0  0  0  0  0  0  0  0  0  0
   -0.3829    8.9067   37.7605 C   0  0  2  0  0  0  0  0  0  0  0  0
    0.9413    9.3423   37.5369 O   0  0  0  0  0  0  0  0  0  0  0  0
    1.0002   10.9047   46.6393 C   0  0  0  0  0  0  0  0  0  0  0  0
    2.4918    6.9934   43.4648 C   0  0  2  0  0  0  0  0  0  0  0  0
    2.8281    6.2394   44.6731 N   0  0  0  0  0  0  0  0  0  0  0  0
   -1.2670   10.0741   38.3324 C   0  0  1  0  0  0  0  0  0  0  0  0
   -1.2957   11.2094   37.3553 N   0  0  0  0  0  0  0  0  0  0  0  0
    0.2584   11.6986   45.4836 C   0  0  0  0  0  0  0  0  0  0  0  0
    1.1121    7.7450   43.6612 C   0  0  2  0  0  0  0  0  0  0  0  0
   -2.7806    9.5220   38.5616 C   0  0  1  0  0  0  0  0  0  0  0  0
   -3.3916    9.0625   37.3722 O   0  0  0  0  0  0  0  0  0  0  0  0
    0.6393   11.5728   44.1892 C   0  0  1  0  0  0  0  0  0  0  0  0
    1.7146   10.7389   43.7666 O   0  0  0  0  0  0  0  0  0  0  0  0
    0.7546    8.5578   42.3477 C   0  0  2  0  0  0  0  0  0  0  0  0
   -0.5100    9.2269   42.5303 O   0  0  0  0  0  0  0  0  0  0  0  0
   -2.7443    8.3383   39.5741 C   0  0  0  0  0  0  0  0  0  0  0  0
   -1.7746    7.2731   39.0920 O   0  0  0  0  0  0  0  0  0  0  0  0
   -0.0449   12.3050   43.0596 C   0  0  0  0  0  0  0  0  0  0  0  0
    0.9476   13.1723   42.4700 O   0  0  0  0  0  0  0  0  0  0  0  0
    0.6307    7.5539   41.1386 C   0  0  1  0  0  0  0  0  0  0  0  0
    0.3197    8.2972   39.9862 O   0  0  0  0  0  0  0  0  0  0  0  0
   -3.7585   10.5591   39.1291 C   0  0  0  0  0  0  0  0  0  0  0  0
   -1.0186   12.5526   37.9053 C   0  0  0  0  0  0  0  0  0  0  0  0
  1  2  1  1  0  0  0
  1  6  1  0  0  0  0
  1 21  1  0  0  0  0
  3  4  1  6  0  0  0
  3  8  1  0  0  0  0
  3 28  1  0  0  0  0
  5  9  1  0  0  0  0
  5 25  1  0  0  0  0
  5 29  1  1  0  0  0
  6  7  1  1  0  0  0
  6 11  1  0  0  0  0
  8 12  1  0  0  0  0
  9 10  1  1  0  0  0
  9 14  1  0  0  0  0
 11 16  1  0  0  0  0
 12 13  1  1  0  0  0
 12 17  1  0  0  0  0
 14 15  1  6  0  0  0
 14 18  1  0  0  0  0
 15 31  1  0  0  0  0
 16 20  1  0  0  0  0
 17  2  1  1  0  0  0
 17 22  1  0  0  0  0
 18 19  1  6  0  0  0
 18 24  1  0  0  0  0
 18 30  1  0  0  0  0
 20 21  1  0  0  0  0
 20 26  1  6  0  0  0
 22 23  1  1  0  0  0
 22 28  1  0  0  0  0
 24 25  1  0  0  0  0
 26 27  1  0  0  0  0
 28 29  1  6  0  0  0
M  END
>  <CHROM.1>
-166.37159210,-175.81689645,-131.18370165,62.37214885,117.57976039,85.60098983
0.26794361,9.26010086,41.59368033,0.61971151,-0.99133454,0.70261949

>  <Name>
ligand

>  <RI>
0

>  <Rbt.Current_Directory>
/home/itssahil/PROJECTS/Mol_Feturizer/New_Systems/rnas/4GPY

>  <Rbt.Executable>
rbdock ($Id: //depot/dev/client3/rdock/2013.1/src/exe/rbdock.cxx#4 $)

>  <Rbt.Library>
libRbt.so (2013.1, Build901 2013/11/27)

>  <Rbt.Parameter_File>
/export/apps/rDock/src/rDock_2013.1_src/data/scripts/dock_solv.prm

>  <Rbt.Receptor>
prm/pocket_docking_8.prm

>  <SCORE>
-8.23589

>  <SCORE.INTER>
-4.99887

>  <SCORE.INTER.CONST>
1

>  <SCORE.INTER.POLAR>
0

>  <SCORE.INTER.ROT>
6

>  <SCORE.INTER.SOLV>
7.94147

>  <SCORE.INTER.VDW>
-13.5797

>  <SCORE.INTER.norm>
-0.161254

>  <SCORE.INTRA>
-3.23702

>  <SCORE.INTRA.DIHEDRAL>
-8.13854

>  <SCORE.INTRA.DIHEDRAL.0>
14.7001

>  <SCORE.INTRA.POLAR>
0

>  <SCORE.INTRA.POLAR.0>
0

>  <SCORE.INTRA.REPUL>
0

>  <SCORE.INTRA.REPUL.0>
0

>  <SCORE.INTRA.SOLV>
0.0450952

>  <SCORE.INTRA.SOLV.lig_0>
-65.3082

>  <SCORE.INTRA.VDW>
0.809703

>  <SCORE.INTRA.VDW.0>
-4.21408

>  <SCORE.INTRA.norm>
-0.10442

>  <SCORE.RESTR>
0

>  <SCORE.RESTR.CAVITY>
0

>  <SCORE.RESTR.norm>
0

>  <SCORE.SYSTEM>
0

>  <SCORE.SYSTEM.CONST>
0

>  <SCORE.SYSTEM.DIHEDRAL>
0

>  <SCORE.SYSTEM.SOLV>
0

>  <SCORE.SYSTEM.norm>
0

>  <SCORE.heavy>
31

>  <SCORE.norm>
-0.265674

>  <RMSD>
8.395

$$$$
ligand
 OpenBabel11021811493D
libRbt.so/2013.1/901 2013/11/27
 31 33  0  0  0  0  0  0  0  0999 V2000
   -3.8965   11.8189   41.8141 C   0  0  2  0  0  0  0  0  0  0  0  0
   -2.9805   12.8374   41.4604 O   0  0  0  0  0  0  0  0  0  0  0  0
   -3.3558   16.9396   40.4156 C   0  0  2  0  0  0  0  0  0  0  0  0
   -3.7434   18.1064   39.6979 N   0  0  0  0  0  0  0  0  0  0  0  0
   -5.8756   18.3609   41.4350 C   0  0  2  0  0  0  0  0  0  0  0  0
   -3.2359   10.9358   42.9594 C   0  0  2  0  0  0  0  0  0  0  0  0
   -2.9047   11.7921   44.0932 N   0  0  0  0  0  0  0  0  0  0  0  0
   -2.5457   15.9909   39.4240 C   0  0  0  0  0  0  0  0  0  0  0  0
   -6.5510   18.9131   42.7350 C   0  0  2  0  0  0  0  0  0  0  0  0
   -5.5953   18.9186   43.7741 O   0  0  0  0  0  0  0  0  0  0  0  0
   -1.9597   10.1928   42.4179 C   0  0  0  0  0  0  0  0  0  0  0  0
   -2.1007   14.7007   40.2271 C   0  0  2  0  0  0  0  0  0  0  0  0
   -1.3467   13.8208   39.3332 N   0  0  0  0  0  0  0  0  0  0  0  0
   -7.7672   17.9854   43.0980 C   0  0  1  0  0  0  0  0  0  0  0  0
   -8.4241   18.4826   44.3493 N   0  0  0  0  0  0  0  0  0  0  0  0
   -2.1726    9.6576   40.9400 C   0  0  0  0  0  0  0  0  0  0  0  0
   -3.3928   13.9555   40.7584 C   0  0  2  0  0  0  0  0  0  0  0  0
   -8.8395   18.0235   41.8746 C   0  0  1  0  0  0  0  0  0  0  0  0
   -9.3472   19.3182   41.6193 O   0  0  0  0  0  0  0  0  0  0  0  0
   -3.2270   10.0633   40.1915 C   0  0  1  0  0  0  0  0  0  0  0  0
   -4.2120   10.9809   40.6583 O   0  0  0  0  0  0  0  0  0  0  0  0
   -4.2042   14.9157   41.7244 C   0  0  2  0  0  0  0  0  0  0  0  0
   -5.3863   14.2340   42.1916 O   0  0  0  0  0  0  0  0  0  0  0  0
   -8.1497   17.5106   40.5751 C   0  0  0  0  0  0  0  0  0  0  0  0
   -6.8897   18.3147   40.3049 O   0  0  0  0  0  0  0  0  0  0  0  0
   -3.4612    9.5833   38.7791 C   0  0  0  0  0  0  0  0  0  0  0  0
   -3.3528   10.7436   37.9265 O   0  0  0  0  0  0  0  0  0  0  0  0
   -4.6398   16.2025   40.9248 C   0  0  1  0  0  0  0  0  0  0  0  0
   -5.3512   17.0398   41.8022 O   0  0  0  0  0  0  0  0  0  0  0  0
  -10.0827   17.1504   42.0890 C   0  0  0  0  0  0  0  0  0  0  0  0
   -7.9409   17.8990   45.6178 C   0  0  0  0  0  0  0  0  0  0  0  0
  1  2  1  6  0  0  0
  1  6  1  0  0  0  0
  1 21  1  0  0  0  0
  3  4  1  6  0  0  0
  3  8  1  0  0  0  0
  3 28  1  0  0  0  0
  5  9  1  0  0  0  0
  5 25  1  0  0  0  0
  5 29  1  1  0  0  0
  6  7  1  1  0  0  0
  6 11  1  0  0  0  0
  8 12  1  0  0  0  0
  9 10  1  1  0  0  0
  9 14  1  0  0  0  0
 11 16  1  0  0  0  0
 12 13  1  6  0  0  0
 12 17  1  0  0  0  0
 14 15  1  1  0  0  0
 14 18  1  0  0  0  0
 15 31  1  0  0  0  0
 16 20  1  0  0  0  0
 17  2  1  1  0  0  0
 17 22  1  0  0  0  0
 18 19  1  6  0  0  0
 18 24  1  0  0  0  0
 18 30  1  0  0  0  0
 20 21  1  0  0  0  0
 20 26  1  6  0  0  0
 22 23  1  6  0  0  0
 22 28  1  0  0  0  0
 24 25  1  0  0  0  0
 26 27  1  0  0  0  0
 28 29  1  1  0  0  0
M  END
>  <CHROM.1>
-162.86764991,-178.69419757,-92.00249128,-166.43911695,-116.04473685,59.02063155
-4.96443093,15.02121772,41.45822069,0.66295547,-0.80627890,2.64398457

>  <Name>
ligand

>  <RI>
0

>  <Rbt.Current_Directory>
/home/itssahil/PROJECTS/Mol_Feturizer/New_Systems/rnas/4GPY

>  <Rbt.Executable>
rbdock ($Id: //depot/dev/client3/rdock/2013.1/src/exe/rbdock.cxx#4 $)

>  <Rbt.Library>
libRbt.so (2013.1, Build901 2013/11/27)

>  <Rbt.Parameter_File>
/export/apps/rDock/src/rDock_2013.1_src/data/scripts/dock_solv.prm

>  <Rbt.Receptor>
prm/pocket_docking_8.prm

>  <SCORE>
-12.0033

>  <SCORE.INTER>
-8.12477

>  <SCORE.INTER.CONST>
1

>  <SCORE.INTER.POLAR>
0

>  <SCORE.INTER.ROT>
6

>  <SCORE.INTER.SOLV>
13.9893

>  <SCORE.INTER.VDW>
-17.6796

>  <SCORE.INTER.norm>
-0.262089

>  <SCORE.INTRA>
-3.87853

>  <SCORE.INTRA.DIHEDRAL>
-10.0903

>  <SCORE.INTRA.DIHEDRAL.0>
14.7001

>  <SCORE.INTRA.POLAR>
0

>  <SCORE.INTRA.POLAR.0>
0

>  <SCORE.INTRA.REPUL>
0

>  <SCORE.INTRA.REPUL.0>
0

>  <SCORE.INTRA.SOLV>
-0.201902

>  <SCORE.INTRA.SOLV.lig_0>
-65.3082

>  <SCORE.INTRA.VDW>
1.26755

>  <SCORE.INTRA.VDW.0>
-4.21408

>  <SCORE.INTRA.norm>
-0.125114

>  <SCORE.RESTR>
0

>  <SCORE.RESTR.CAVITY>
0

>  <SCORE.RESTR.norm>
0

>  <SCORE.SYSTEM>
0

>  <SCORE.SYSTEM.CONST>
0

>  <SCORE.SYSTEM.DIHEDRAL>
0

>  <SCORE.SYSTEM.SOLV>
0

>  <SCORE.SYSTEM.norm>
0

>  <SCORE.heavy>
31

>  <SCORE.norm>
-0.387203

>  <RMSD>
8.421

$$$$
ligand
 OpenBabel11021811493D
libRbt.so/2013.1/901 2013/11/27
 31 33  0  0  0  0  0  0  0  0999 V2000
    3.0336    8.7324   36.0754 C   0  0  2  0  0  0  0  0  0  0  0  0
    1.8953    8.7666   36.9147 O   0  0  0  0  0  0  0  0  0  0  0  0
    0.5110   11.4122   39.9387 C   0  0  2  0  0  0  0  0  0  0  0  0
    0.4753   12.1500   41.1557 N   0  0  0  0  0  0  0  0  0  0  0  0
    1.8601   14.3059   39.7584 C   0  0  2  0  0  0  0  0  0  0  0  0
    2.6572    7.9153   34.7644 C   0  0  2  0  0  0  0  0  0  0  0  0
    1.5168    8.5522   34.1144 N   0  0  0  0  0  0  0  0  0  0  0  0
    0.6186    9.8633   40.2980 C   0  0  0  0  0  0  0  0  0  0  0  0
    1.4929   15.6171   38.9856 C   0  0  2  0  0  0  0  0  0  0  0  0
    0.1792   15.4934   38.4834 O   0  0  0  0  0  0  0  0  0  0  0  0
    2.3431    6.4154   35.1190 C   0  0  0  0  0  0  0  0  0  0  0  0
    0.6417    9.0420   38.9443 C   0  0  2  0  0  0  0  0  0  0  0  0
    0.7314    7.6148   39.2556 N   0  0  0  0  0  0  0  0  0  0  0  0
    2.5238   15.8112   37.8147 C   0  0  1  0  0  0  0  0  0  0  0  0
    2.1864   17.0529   37.0472 N   0  0  0  0  0  0  0  0  0  0  0  0
    3.3318    5.8521   36.2240 C   0  0  0  0  0  0  0  0  0  0  0  0
    1.8987    9.4911   38.0927 C   0  0  2  0  0  0  0  0  0  0  0  0
    4.0156   15.9577   38.4479 C   0  0  1  0  0  0  0  0  0  0  0  0
    4.1437   17.0622   39.3214 O   0  0  0  0  0  0  0  0  0  0  0  0
    4.1343    6.6802   36.9358 C   0  0  1  0  0  0  0  0  0  0  0  0
    4.1596    8.0932   36.7546 O   0  0  0  0  0  0  0  0  0  0  0  0
    1.7945   11.0380   37.7611 C   0  0  2  0  0  0  0  0  0  0  0  0
    2.9502   11.4411   36.9982 O   0  0  0  0  0  0  0  0  0  0  0  0
    4.3591   14.6663   39.2491 C   0  0  0  0  0  0  0  0  0  0  0  0
    3.2819   14.3972   40.2857 O   0  0  0  0  0  0  0  0  0  0  0  0
    5.0835    6.1848   38.0007 C   0  0  0  0  0  0  0  0  0  0  0  0
    4.6683    6.7981   39.2401 O   0  0  0  0  0  0  0  0  0  0  0  0
    1.7642   11.8530   39.1102 C   0  0  1  0  0  0  0  0  0  0  0  0
    1.6657   13.2188   38.7912 O   0  0  0  0  0  0  0  0  0  0  0  0
    5.1322   16.1454   37.4126 C   0  0  0  0  0  0  0  0  0  0  0  0
    1.6791   16.8551   35.6736 C   0  0  0  0  0  0  0  0  0  0  0  0
  1  2  1  1  0  0  0
  1  6  1  0  0  0  0
  1 21  1  0  0  0  0
  3  4  1  1  0  0  0
  3  8  1  0  0  0  0
  3 28  1  0  0  0  0
  5  9  1  0  0  0  0
  5 25  1  0  0  0  0
  5 29  1  6  0  0  0
  6  7  1  1  0  0  0
  6 11  1  0  0  0  0
  8 12  1  0  0  0  0
  9 10  1  6  0  0  0
  9 14  1  0  0  0  0
 11 16  1  0  0  0  0
 12 13  1  1  0  0  0
 12 17  1  0  0  0  0
 14 15  1  1  0  0  0
 14 18  1  0  0  0  0
 15 31  1  0  0  0  0
 16 20  1  0  0  0  0
 17  2  1  6  0  0  0
 17 22  1  0  0  0  0
 18 19  1  1  0  0  0
 18 24  1  0  0  0  0
 18 30  1  0  0  0  0
 20 21  1  0  0  0  0
 20 26  1  1  0  0  0
 22 23  1  6  0  0  0
 22 28  1  0  0  0  0
 24 25  1  0  0  0  0
 26 27  1  0  0  0  0
 28 29  1  6  0  0  0
M  END
>  <CHROM.1>
-175.53403498,-173.75172637,-110.94700444,-166.43181338,-118.60635742,73.35233811
2.49793553,11.46326009,37.97045480,-1.48902079,1.07828381,0.10236350

>  <Name>
ligand

>  <RI>
0

>  <Rbt.Current_Directory>
/home/itssahil/PROJECTS/Mol_Feturizer/New_Systems/rnas/4GPY

>  <Rbt.Executable>
rbdock ($Id: //depot/dev/client3/rdock/2013.1/src/exe/rbdock.cxx#4 $)

>  <Rbt.Library>
libRbt.so (2013.1, Build901 2013/11/27)

>  <Rbt.Parameter_File>
/export/apps/rDock/src/rDock_2013.1_src/data/scripts/dock_solv.prm

>  <Rbt.Receptor>
prm/pocket_docking_7.prm

>  <SCORE>
-6.31735

>  <SCORE.INTER>
-1.5369

>  <SCORE.INTER.CONST>
1

>  <SCORE.INTER.POLAR>
0

>  <SCORE.INTER.ROT>
6

>  <SCORE.INTER.SOLV>
6.4438

>  <SCORE.INTER.VDW>
-10.7725

>  <SCORE.INTER.norm>
-0.0495775

>  <SCORE.INTRA>
-4.78045

>  <SCORE.INTRA.DIHEDRAL>
-9.87168

>  <SCORE.INTRA.DIHEDRAL.0>
14.7001

>  <SCORE.INTRA.POLAR>
0

>  <SCORE.INTRA.POLAR.0>
0

>  <SCORE.INTRA.REPUL>
0

>  <SCORE.INTRA.REPUL.0>
0

>  <SCORE.INTRA.SOLV>
-0.936162

>  <SCORE.INTRA.SOLV.lig_0>
-65.3082

>  <SCORE.INTRA.VDW>
0.623469

>  <SCORE.INTRA.VDW.0>
-4.21408

>  <SCORE.INTRA.norm>
-0.154208

>  <SCORE.RESTR>
0

>  <SCORE.RESTR.CAVITY>
0

>  <SCORE.RESTR.norm>
0

>  <SCORE.SYSTEM>
0

>  <SCORE.SYSTEM.CONST>
0

>  <SCORE.SYSTEM.DIHEDRAL>
0

>  <SCORE.SYSTEM.SOLV>
0

>  <SCORE.SYSTEM.norm>
0

>  <SCORE.heavy>
31

>  <SCORE.norm>
-0.203786

>  <RMSD>
8.445

$$$$
ligand
 OpenBabel11021811493D
libRbt.so/2013.1/901 2013/11/27
 31 33  0  0  0  0  0  0  0  0999 V2000
   -1.8396   14.7570   42.7627 C   0  0  2  0  0  0  0  0  0  0  0  0
   -1.0128   15.7327   43.3675 O   0  0  0  0  0  0  0  0  0  0  0  0
    3.0998   16.7055   42.9195 C   0  0  2  0  0  0  0  0  0  0  0  0
    4.5169   16.5820   42.9777 N   0  0  0  0  0  0  0  0  0  0  0  0
    4.3874   15.3066   40.3107 C   0  0  2  0  0  0  0  0  0  0  0  0
   -3.3284   15.3148   42.7415 C   0  0  2  0  0  0  0  0  0  0  0  0
   -3.3550   16.5806   42.0166 N   0  0  0  0  0  0  0  0  0  0  0  0
    2.5261   16.5640   44.3996 C   0  0  0  0  0  0  0  0  0  0  0  0
    4.5452   15.8134   38.8378 C   0  0  2  0  0  0  0  0  0  0  0  0
    4.2859   17.2009   38.8065 O   0  0  0  0  0  0  0  0  0  0  0  0
   -3.8745   15.4885   44.2064 C   0  0  0  0  0  0  0  0  0  0  0  0
    0.9513   16.7178   44.3364 C   0  0  2  0  0  0  0  0  0  0  0  0
    0.4074   16.5993   45.6899 N   0  0  0  0  0  0  0  0  0  0  0  0
    3.5263   15.0330   37.9299 C   0  0  1  0  0  0  0  0  0  0  0  0
    3.6450   15.5097   36.5146 N   0  0  0  0  0  0  0  0  0  0  0  0
   -3.4207   14.2965   45.1493 C   0  0  0  0  0  0  0  0  0  0  0  0
    0.3605   15.5754   43.4128 C   0  0  2  0  0  0  0  0  0  0  0  0
    3.8755   13.4449   37.9947 C   0  0  1  0  0  0  0  0  0  0  0  0
    5.1788   13.1423   37.5372 O   0  0  0  0  0  0  0  0  0  0  0  0
   -2.4577   13.4242   44.7639 C   0  0  1  0  0  0  0  0  0  0  0  0
   -1.7891   13.5002   43.5080 O   0  0  0  0  0  0  0  0  0  0  0  0
    0.9557   15.7101   41.9495 C   0  0  2  0  0  0  0  0  0  0  0  0
    0.4236   14.6572   41.1195 O   0  0  0  0  0  0  0  0  0  0  0  0
    3.7558   12.9557   39.4691 C   0  0  0  0  0  0  0  0  0  0  0  0
    4.6313   13.8084   40.3711 O   0  0  0  0  0  0  0  0  0  0  0  0
   -1.9924   12.2814   45.6344 C   0  0  0  0  0  0  0  0  0  0  0  0
   -0.6045   12.5356   45.9408 O   0  0  0  0  0  0  0  0  0  0  0  0
    2.5239   15.5641   42.0158 C   0  0  1  0  0  0  0  0  0  0  0  0
    3.0284   15.6927   40.7097 O   0  0  0  0  0  0  0  0  0  0  0  0
    2.9494   12.5536   37.1569 C   0  0  0  0  0  0  0  0  0  0  0  0
    2.7606   16.6274   36.1247 C   0  0  0  0  0  0  0  0  0  0  0  0
  1  2  1  1  0  0  0
  1  6  1  0  0  0  0
  1 21  1  0  0  0  0
  3  4  1  1  0  0  0
  3  8  1  0  0  0  0
  3 28  1  0  0  0  0
  5  9  1  0  0  0  0
  5 25  1  0  0  0  0
  5 29  1  6  0  0  0
  6  7  1  1  0  0  0
  6 11  1  0  0  0  0
  8 12  1  0  0  0  0
  9 10  1  1  0  0  0
  9 14  1  0  0  0  0
 11 16  1  0  0  0  0
 12 13  1  1  0  0  0
 12 17  1  0  0  0  0
 14 15  1  6  0  0  0
 14 18  1  0  0  0  0
 15 31  1  0  0  0  0
 16 20  1  0  0  0  0
 17  2  1  6  0  0  0
 17 22  1  0  0  0  0
 18 19  1  6  0  0  0
 18 24  1  0  0  0  0
 18 30  1  0  0  0  0
 20 21  1  0  0  0  0
 20 26  1  1  0  0  0
 22 23  1  6  0  0  0
 22 28  1  0  0  0  0
 24 25  1  0  0  0  0
 26 27  1  0  0  0  0
 28 29  1  6  0  0  0
M  END
>  <CHROM.1>
-173.96635466,-172.41117085,-91.08406001,-171.59283018,-116.13265733,76.56741028
1.26338221,14.99854896,41.61154359,2.40332954,0.33558814,1.26286664

>  <Name>
ligand

>  <RI>
0

>  <Rbt.Current_Directory>
/home/itssahil/PROJECTS/Mol_Feturizer/New_Systems/rnas/4GPY

>  <Rbt.Executable>
rbdock ($Id: //depot/dev/client3/rdock/2013.1/src/exe/rbdock.cxx#4 $)

>  <Rbt.Library>
libRbt.so (2013.1, Build901 2013/11/27)

>  <Rbt.Parameter_File>
/export/apps/rDock/src/rDock_2013.1_src/data/scripts/dock_solv.prm

>  <Rbt.Receptor>
prm/pocket_docking_7.prm

>  <SCORE>
-6.1925

>  <SCORE.INTER>
-1.38565

>  <SCORE.INTER.CONST>
1

>  <SCORE.INTER.POLAR>
0

>  <SCORE.INTER.ROT>
6

>  <SCORE.INTER.SOLV>
11.2672

>  <SCORE.INTER.VDW>
-12.2795

>  <SCORE.INTER.norm>
-0.0446984

>  <SCORE.INTRA>
-4.80685

>  <SCORE.INTRA.DIHEDRAL>
-10.2856

>  <SCORE.INTRA.DIHEDRAL.0>
14.7001

>  <SCORE.INTRA.POLAR>
0

>  <SCORE.INTRA.POLAR.0>
0

>  <SCORE.INTRA.REPUL>
0

>  <SCORE.INTRA.REPUL.0>
0

>  <SCORE.INTRA.SOLV>
-1.28893

>  <SCORE.INTRA.SOLV.lig_0>
-65.3082

>  <SCORE.INTRA.VDW>
0.9804

>  <SCORE.INTRA.VDW.0>
-4.21408

>  <SCORE.INTRA.norm>
-0.15506

>  <SCORE.RESTR>
0

>  <SCORE.RESTR.CAVITY>
0

>  <SCORE.RESTR.norm>
0

>  <SCORE.SYSTEM>
0

>  <SCORE.SYSTEM.CONST>
0

>  <SCORE.SYSTEM.DIHEDRAL>
0

>  <SCORE.SYSTEM.SOLV>
0

>  <SCORE.SYSTEM.norm>
0

>  <SCORE.heavy>
31

>  <SCORE.norm>
-0.199758

>  <RMSD>
8.473

$$$$
ligand
 OpenBabel11021811493D
libRbt.so/2013.1/901 2013/11/27
 31 33  0  0  0  0  0  0  0  0999 V2000
   -1.2305   10.2608   36.3962 C   0  0  2  0  0  0  0  0  0  0  0  0
   -0.6243    9.0419   36.7810 O   0  0  0  0  0  0  0  0  0  0  0  0
    3.1905    8.2234   38.4655 C   0  0  2  0  0  0  0  0  0  0  0  0
    4.6019    8.0665   38.5658 N   0  0  0  0  0  0  0  0  0  0  0  0
    4.7487   10.7697   39.4315 C   0  0  2  0  0  0  0  0  0  0  0  0
   -2.8074   10.0797   36.4886 C   0  0  2  0  0  0  0  0  0  0  0  0
   -3.1662    9.6955   37.8496 N   0  0  0  0  0  0  0  0  0  0  0  0
    2.6619    7.2545   37.3159 C   0  0  0  0  0  0  0  0  0  0  0  0
    4.7653   11.8492   40.5653 C   0  0  2  0  0  0  0  0  0  0  0  0
    3.9745   11.3884   41.6404 O   0  0  0  0  0  0  0  0  0  0  0  0
   -3.3028    9.0094   35.4478 C   0  0  0  0  0  0  0  0  0  0  0  0
    1.0900    7.4174   37.2159 C   0  0  2  0  0  0  0  0  0  0  0  0
    0.5854    6.5271   36.1696 N   0  0  0  0  0  0  0  0  0  0  0  0
    4.1914   13.1923   39.9838 C   0  0  1  0  0  0  0  0  0  0  0  0
    4.1813   14.2409   41.0538 N   0  0  0  0  0  0  0  0  0  0  0  0
   -2.5352    9.1331   34.0653 C   0  0  0  0  0  0  0  0  0  0  0  0
    0.7514    8.9219   36.8572 C   0  0  2  0  0  0  0  0  0  0  0  0
    5.1429   13.6822   38.7580 C   0  0  1  0  0  0  0  0  0  0  0  0
    6.4798   13.9205   39.1520 O   0  0  0  0  0  0  0  0  0  0  0  0
   -1.4164    9.8889   33.9487 C   0  0  1  0  0  0  0  0  0  0  0  0
   -0.8496   10.6213   35.0315 O   0  0  0  0  0  0  0  0  0  0  0  0
    1.3025    9.8794   37.9944 C   0  0  2  0  0  0  0  0  0  0  0  0
    1.0026   11.2481   37.6521 O   0  0  0  0  0  0  0  0  0  0  0  0
    5.1541   12.5860   37.6509 C   0  0  0  0  0  0  0  0  0  0  0  0
    5.5681   11.2515   38.2466 O   0  0  0  0  0  0  0  0  0  0  0  0
   -0.6529   10.0268   32.6532 C   0  0  0  0  0  0  0  0  0  0  0  0
    0.6445    9.4333   32.8745 O   0  0  0  0  0  0  0  0  0  0  0  0
    2.8664    9.7102   38.0971 C   0  0  1  0  0  0  0  0  0  0  0  0
    3.3304   10.5630   39.1141 O   0  0  0  0  0  0  0  0  0  0  0  0
    4.6946   14.9858   38.0845 C   0  0  0  0  0  0  0  0  0  0  0  0
    2.8532   14.7352   41.4724 C   0  0  0  0  0  0  0  0  0  0  0  0
  1  2  1  6  0  0  0
  1  6  1  0  0  0  0
  1 21  1  0  0  0  0
  3  4  1  6  0  0  0
  3  8  1  0  0  0  0
  3 28  1  0  0  0  0
  5  9  1  0  0  0  0
  5 25  1  0  0  0  0
  5 29  1  6  0  0  0
  6  7  1  1  0  0  0
  6 11  1  0  0  0  0
  8 12  1  0  0  0  0
  9 10  1  1  0  0  0
  9 14  1  0  0  0  0
 11 16  1  0  0  0  0
 12 13  1  6  0  0  0
 12 17  1  0  0  0  0
 14 15  1  1  0  0  0
 14 18  1  0  0  0  0
 15 31  1  0  0  0  0
 16 20  1  0  0  0  0
 17  2  1  1  0  0  0
 17 22  1  0  0  0  0
 18 19  1  1  0  0  0
 18 24  1  0  0  0  0
 18 30  1  0  0  0  0
 20 21  1  0  0  0  0
 20 26  1  1  0  0  0
 22 23  1  6  0  0  0
 22 28  1  0  0  0  0
 24 25  1  0  0  0  0
 26 27  1  0  0  0  0
 28 29  1  1  0  0  0
M  END
>  <CHROM.1>
-176.95818350,176.97437765,-115.25270785,-176.20215617,-115.35140716,66.85327931
1.86673170,10.60046179,37.58050438,2.57281811,0.54320709,-2.92984143

>  <Name>
ligand

>  <RI>
0

>  <Rbt.Current_Directory>
/home/itssahil/PROJECTS/Mol_Feturizer/New_Systems/rnas/4GPY

>  <Rbt.Executable>
rbdock ($Id: //depot/dev/client3/rdock/2013.1/src/exe/rbdock.cxx#4 $)

>  <Rbt.Library>
libRbt.so (2013.1, Build901 2013/11/27)

>  <Rbt.Parameter_File>
/export/apps/rDock/src/rDock_2013.1_src/data/scripts/dock_solv.prm

>  <Rbt.Receptor>
prm/pocket_docking_8.prm

>  <SCORE>
-8.04996

>  <SCORE.INTER>
-2.84759

>  <SCORE.INTER.CONST>
1

>  <SCORE.INTER.POLAR>
0

>  <SCORE.INTER.ROT>
6

>  <SCORE.INTER.SOLV>
6.22865

>  <SCORE.INTER.VDW>
-11.5746

>  <SCORE.INTER.norm>
-0.0918577

>  <SCORE.INTRA>
-5.20237

>  <SCORE.INTRA.DIHEDRAL>
-11.4099

>  <SCORE.INTRA.DIHEDRAL.0>
14.7001

>  <SCORE.INTRA.POLAR>
0

>  <SCORE.INTRA.POLAR.0>
0

>  <SCORE.INTRA.REPUL>
0

>  <SCORE.INTRA.REPUL.0>
0

>  <SCORE.INTRA.SOLV>
-1.35551

>  <SCORE.INTRA.SOLV.lig_0>
-65.3082

>  <SCORE.INTRA.VDW>
1.18035

>  <SCORE.INTRA.VDW.0>
-4.21408

>  <SCORE.INTRA.norm>
-0.167819

>  <SCORE.RESTR>
0

>  <SCORE.RESTR.CAVITY>
0

>  <SCORE.RESTR.norm>
0

>  <SCORE.SYSTEM>
0

>  <SCORE.SYSTEM.CONST>
0

>  <SCORE.SYSTEM.DIHEDRAL>
0

>  <SCORE.SYSTEM.SOLV>
0

>  <SCORE.SYSTEM.norm>
0

>  <SCORE.heavy>
31

>  <SCORE.norm>
-0.259676

>  <RMSD>
8.482

$$$$
ligand
 OpenBabel11021811493D
libRbt.so/2013.1/901 2013/11/27
 31 33  0  0  0  0  0  0  0  0999 V2000
   -2.2311   15.6984   39.3560 C   0  0  2  0  0  0  0  0  0  0  0  0
   -1.1518   15.5658   40.2609 O   0  0  0  0  0  0  0  0  0  0  0  0
    3.0581   15.4348   39.6956 C   0  0  2  0  0  0  0  0  0  0  0  0
    4.3395   14.9587   39.2979 N   0  0  0  0  0  0  0  0  0  0  0  0
    2.8439   16.4196   36.1139 C   0  0  2  0  0  0  0  0  0  0  0  0
   -3.4907   16.2357   40.1640 C   0  0  2  0  0  0  0  0  0  0  0  0
   -3.1477   17.5048   40.7967 N   0  0  0  0  0  0  0  0  0  0  0  0
    2.4043   14.3537   40.6669 C   0  0  0  0  0  0  0  0  0  0  0  0
    3.8193   17.5523   35.6482 C   0  0  2  0  0  0  0  0  0  0  0  0
    5.0365   17.4184   36.3508 O   0  0  0  0  0  0  0  0  0  0  0  0
   -3.9556   15.1775   41.2308 C   0  0  0  0  0  0  0  0  0  0  0  0
    0.9860   14.8913   41.1220 C   0  0  2  0  0  0  0  0  0  0  0  0
    0.3738   13.9138   42.0229 N   0  0  0  0  0  0  0  0  0  0  0  0
    3.1493   18.9423   35.9489 C   0  0  1  0  0  0  0  0  0  0  0  0
    4.0692   20.0468   35.5265 N   0  0  0  0  0  0  0  0  0  0  0  0
   -3.8676   13.6968   40.6687 C   0  0  0  0  0  0  0  0  0  0  0  0
    0.0774   15.0912   39.8408 C   0  0  2  0  0  0  0  0  0  0  0  0
    1.7595   19.0475   35.1091 C   0  0  1  0  0  0  0  0  0  0  0  0
    1.9456   18.9533   33.7106 O   0  0  0  0  0  0  0  0  0  0  0  0
   -3.2047   13.4205   39.5194 C   0  0  1  0  0  0  0  0  0  0  0  0
   -2.5486   14.4131   38.7356 O   0  0  0  0  0  0  0  0  0  0  0  0
    0.7482   16.1500   38.8699 C   0  0  2  0  0  0  0  0  0  0  0  0
   -0.0786   16.3146   37.6996 O   0  0  0  0  0  0  0  0  0  0  0  0
    0.8090   17.8937   35.5484 C   0  0  0  0  0  0  0  0  0  0  0  0
    1.5122   16.5561   35.3958 O   0  0  0  0  0  0  0  0  0  0  0  0
   -3.0917   12.0245   38.9549 C   0  0  0  0  0  0  0  0  0  0  0  0
   -1.6830   11.7106   38.9115 O   0  0  0  0  0  0  0  0  0  0  0  0
    2.1629   15.6162   38.4241 C   0  0  1  0  0  0  0  0  0  0  0  0
    2.7395   16.5728   37.5701 O   0  0  0  0  0  0  0  0  0  0  0  0
    0.9881   20.3578   35.3143 C   0  0  0  0  0  0  0  0  0  0  0  0
    5.1316   20.4155   36.4850 C   0  0  0  0  0  0  0  0  0  0  0  0
  1  2  1  1  0  0  0
  1  6  1  0  0  0  0
  1 21  1  0  0  0  0
  3  4  1  6  0  0  0
  3  8  1  0  0  0  0
  3 28  1  0  0  0  0
  5  9  1  0  0  0  0
  5 25  1  0  0  0  0
  5 29  1  1  0  0  0
  6  7  1  1  0  0  0
  6 11  1  0  0  0  0
  8 12  1  0  0  0  0
  9 10  1  1  0  0  0
  9 14  1  0  0  0  0
 11 16  1  0  0  0  0
 12 13  1  1  0  0  0
 12 17  1  0  0  0  0
 14 15  1  6  0  0  0
 14 18  1  0  0  0  0
 15 31  1  0  0  0  0
 16 20  1  0  0  0  0
 17  2  1  1  0  0  0
 17 22  1  0  0  0  0
 18 19  1  6  0  0  0
 18 24  1  0  0  0  0
 18 30  1  0  0  0  0
 20 21  1  0  0  0  0
 20 26  1  1  0  0  0
 22 23  1  6  0  0  0
 22 28  1  0  0  0  0
 24 25  1  0  0  0  0
 26 27  1  0  0  0  0
 28 29  1  6  0  0  0
M  END
>  <CHROM.1>
178.82088941,-167.72995868,-82.48455377,-172.72518143,-119.15684159,136.31543216
0.63596419,16.20769532,38.18605947,2.30983250,-0.00813511,2.36368826

>  <Name>
ligand

>  <RI>
0

>  <Rbt.Current_Directory>
/home/itssahil/PROJECTS/Mol_Feturizer/New_Systems/rnas/4GPY

>  <Rbt.Executable>
rbdock ($Id: //depot/dev/client3/rdock/2013.1/src/exe/rbdock.cxx#4 $)

>  <Rbt.Library>
libRbt.so (2013.1, Build901 2013/11/27)

>  <Rbt.Parameter_File>
/export/apps/rDock/src/rDock_2013.1_src/data/scripts/dock_solv.prm

>  <Rbt.Receptor>
prm/pocket_docking_4.prm

>  <SCORE>
-12.5427

>  <SCORE.INTER>
-10.216

>  <SCORE.INTER.CONST>
1

>  <SCORE.INTER.POLAR>
0

>  <SCORE.INTER.ROT>
6

>  <SCORE.INTER.SOLV>
15.1149

>  <SCORE.INTER.VDW>
-19.449

>  <SCORE.INTER.norm>
-0.329549

>  <SCORE.INTRA>
-2.32669

>  <SCORE.INTRA.DIHEDRAL>
-5.70446

>  <SCORE.INTRA.DIHEDRAL.0>
14.7001

>  <SCORE.INTRA.POLAR>
0

>  <SCORE.INTRA.POLAR.0>
0

>  <SCORE.INTRA.REPUL>
0

>  <SCORE.INTRA.REPUL.0>
0

>  <SCORE.INTRA.SOLV>
-1.66505

>  <SCORE.INTRA.SOLV.lig_0>
-65.3082

>  <SCORE.INTRA.VDW>
1.35807

>  <SCORE.INTRA.VDW.0>
-4.21408

>  <SCORE.INTRA.norm>
-0.0750544

>  <SCORE.RESTR>
0

>  <SCORE.RESTR.CAVITY>
0

>  <SCORE.RESTR.norm>
0

>  <SCORE.SYSTEM>
0

>  <SCORE.SYSTEM.CONST>
0

>  <SCORE.SYSTEM.DIHEDRAL>
0

>  <SCORE.SYSTEM.SOLV>
0

>  <SCORE.SYSTEM.norm>
0

>  <SCORE.heavy>
31

>  <SCORE.norm>
-0.404604

>  <RMSD>
8.507

$$$$
ligand
 OpenBabel11021811493D
libRbt.so/2013.1/901 2013/11/27
 31 33  0  0  0  0  0  0  0  0999 V2000
   -1.2470   10.4953   39.8103 C   0  0  2  0  0  0  0  0  0  0  0  0
   -0.1937    9.5653   39.6461 O   0  0  0  0  0  0  0  0  0  0  0  0
    3.6857    9.9000   37.9437 C   0  0  2  0  0  0  0  0  0  0  0  0
    4.7068   10.0613   36.9649 N   0  0  0  0  0  0  0  0  0  0  0  0
    4.4055   13.0597   37.3890 C   0  0  2  0  0  0  0  0  0  0  0  0
   -2.3128    9.8644   40.8075 C   0  0  2  0  0  0  0  0  0  0  0  0
   -1.6573    9.5505   42.0726 N   0  0  0  0  0  0  0  0  0  0  0  0
    2.8024    8.6369   37.5387 C   0  0  0  0  0  0  0  0  0  0  0  0
    4.9727   14.2604   38.2184 C   0  0  2  0  0  0  0  0  0  0  0  0
    5.6571   13.7503   39.3430 O   0  0  0  0  0  0  0  0  0  0  0  0
   -2.9698    8.5826   40.1757 C   0  0  0  0  0  0  0  0  0  0  0  0
    1.6769    8.4480   38.6365 C   0  0  2  0  0  0  0  0  0  0  0  0
    0.8604    7.2855   38.2851 N   0  0  0  0  0  0  0  0  0  0  0  0
    3.7713   15.1728   38.6607 C   0  0  1  0  0  0  0  0  0  0  0  0
    4.2845   16.3238   39.4708 N   0  0  0  0  0  0  0  0  0  0  0  0
   -3.2532    8.7690   38.6262 C   0  0  0  0  0  0  0  0  0  0  0  0
    0.7768    9.7500   38.6782 C   0  0  2  0  0  0  0  0  0  0  0  0
    3.0257   15.7402   37.3302 C   0  0  1  0  0  0  0  0  0  0  0  0
    3.8731   16.5148   36.5048 O   0  0  0  0  0  0  0  0  0  0  0  0
   -2.7195    9.8051   37.9346 C   0  0  1  0  0  0  0  0  0  0  0  0
   -1.8809   10.7930   38.5269 O   0  0  0  0  0  0  0  0  0  0  0  0
    1.6689   11.0044   39.0580 C   0  0  2  0  0  0  0  0  0  0  0  0
    0.8440   12.1874   39.0793 O   0  0  0  0  0  0  0  0  0  0  0  0
    2.4989   14.5392   36.4890 C   0  0  0  0  0  0  0  0  0  0  0  0
    3.6365   13.5793   36.1864 O   0  0  0  0  0  0  0  0  0  0  0  0
   -2.9590   10.0138   36.4583 C   0  0  0  0  0  0  0  0  0  0  0  0
   -1.6893    9.8087   35.8021 O   0  0  0  0  0  0  0  0  0  0  0  0
    2.7931   11.1860   37.9679 C   0  0  1  0  0  0  0  0  0  0  0  0
    3.5734   12.2986   38.3288 O   0  0  0  0  0  0  0  0  0  0  0  0
    1.8193   16.6451   37.6122 C   0  0  0  0  0  0  0  0  0  0  0  0
    4.2743   16.1471   40.9378 C   0  0  0  0  0  0  0  0  0  0  0  0
  1  2  1  6  0  0  0
  1  6  1  0  0  0  0
  1 21  1  0  0  0  0
  3  4  1  6  0  0  0
  3  8  1  0  0  0  0
  3 28  1  0  0  0  0
  5  9  1  0  0  0  0
  5 25  1  0  0  0  0
  5 29  1  1  0  0  0
  6  7  1  1  0  0  0
  6 11  1  0  0  0  0
  8 12  1  0  0  0  0
  9 10  1  1  0  0  0
  9 14  1  0  0  0  0
 11 16  1  0  0  0  0
 12 13  1  6  0  0  0
 12 17  1  0  0  0  0
 14 15  1  1  0  0  0
 14 18  1  0  0  0  0
 15 31  1  0  0  0  0
 16 20  1  0  0  0  0
 17  2  1  1  0  0  0
 17 22  1  0  0  0  0
 18 19  1  6  0  0  0
 18 24  1  0  0  0  0
 18 30  1  0  0  0  0
 20 21  1  0  0  0  0
 20 26  1  6  0  0  0
 22 23  1  6  0  0  0
 22 28  1  0  0  0  0
 24 25  1  0  0  0  0
 26 27  1  0  0  0  0
 28 29  1  1  0  0  0
M  END
>  <CHROM.1>
169.99055533,175.18112386,-94.50987102,-172.53445006,-113.02285677,82.89394022
1.44928126,11.77149514,38.38826596,2.37045093,-0.20210222,-3.07255675

>  <Name>
ligand

>  <RI>
0

>  <Rbt.Current_Directory>
/home/itssahil/PROJECTS/Mol_Feturizer/New_Systems/rnas/4GPY

>  <Rbt.Executable>
rbdock ($Id: //depot/dev/client3/rdock/2013.1/src/exe/rbdock.cxx#4 $)

>  <Rbt.Library>
libRbt.so (2013.1, Build901 2013/11/27)

>  <Rbt.Parameter_File>
/export/apps/rDock/src/rDock_2013.1_src/data/scripts/dock_solv.prm

>  <Rbt.Receptor>
prm/pocket_docking_5.prm

>  <SCORE>
-11.2797

>  <SCORE.INTER>
-6.70075

>  <SCORE.INTER.CONST>
1

>  <SCORE.INTER.POLAR>
0

>  <SCORE.INTER.ROT>
6

>  <SCORE.INTER.SOLV>
9.86648

>  <SCORE.INTER.VDW>
-15.356

>  <SCORE.INTER.norm>
-0.216153

>  <SCORE.INTRA>
-4.57897

>  <SCORE.INTRA.DIHEDRAL>
-9.05104

>  <SCORE.INTRA.DIHEDRAL.0>
14.7001

>  <SCORE.INTRA.POLAR>
0

>  <SCORE.INTRA.POLAR.0>
0

>  <SCORE.INTRA.REPUL>
0

>  <SCORE.INTRA.REPUL.0>
0

>  <SCORE.INTRA.SOLV>
-1.39312

>  <SCORE.INTRA.SOLV.lig_0>
-65.3082

>  <SCORE.INTRA.VDW>
0.643115

>  <SCORE.INTRA.VDW.0>
-4.21408

>  <SCORE.INTRA.norm>
-0.147709

>  <SCORE.RESTR>
0

>  <SCORE.RESTR.CAVITY>
0

>  <SCORE.RESTR.norm>
0

>  <SCORE.SYSTEM>
0

>  <SCORE.SYSTEM.CONST>
0

>  <SCORE.SYSTEM.DIHEDRAL>
0

>  <SCORE.SYSTEM.SOLV>
0

>  <SCORE.SYSTEM.norm>
0

>  <SCORE.heavy>
31

>  <SCORE.norm>
-0.363862

>  <RMSD>
8.524

$$$$
ligand
 OpenBabel11021811493D
libRbt.so/2013.1/901 2013/11/27
 31 33  0  0  0  0  0  0  0  0999 V2000
   -2.1119   15.7357   39.3185 C   0  0  2  0  0  0  0  0  0  0  0  0
   -1.0342   15.5738   40.2205 O   0  0  0  0  0  0  0  0  0  0  0  0
    3.1742   15.4891   39.6351 C   0  0  2  0  0  0  0  0  0  0  0  0
    4.4578   15.0312   39.2233 N   0  0  0  0  0  0  0  0  0  0  0  0
    2.9754   16.5193   36.0781 C   0  0  2  0  0  0  0  0  0  0  0  0
   -3.3948   16.1667   40.1530 C   0  0  2  0  0  0  0  0  0  0  0  0
   -3.1011   17.3962   40.8814 N   0  0  0  0  0  0  0  0  0  0  0  0
    2.5338   14.3847   40.5890 C   0  0  0  0  0  0  0  0  0  0  0  0
    3.9323   17.6775   35.6376 C   0  0  2  0  0  0  0  0  0  0  0  0
    5.1375   17.5701   36.3652 O   0  0  0  0  0  0  0  0  0  0  0  0
   -3.8283   15.0161   41.1340 C   0  0  0  0  0  0  0  0  0  0  0  0
    1.1130   14.9017   41.0599 C   0  0  2  0  0  0  0  0  0  0  0  0
    0.5130   13.9026   41.9451 N   0  0  0  0  0  0  0  0  0  0  0  0
    3.2225   19.0495   35.9299 C   0  0  1  0  0  0  0  0  0  0  0  0
    4.1238   20.1779   35.5315 N   0  0  0  0  0  0  0  0  0  0  0  0
   -3.6842   13.5855   40.4640 C   0  0  0  0  0  0  0  0  0  0  0  0
    0.1971   15.1175   39.7865 C   0  0  2  0  0  0  0  0  0  0  0  0
    1.8484   19.1248   35.0614 C   0  0  1  0  0  0  0  0  0  0  0  0
    2.0660   19.0415   33.6668 O   0  0  0  0  0  0  0  0  0  0  0  0
   -3.0048   13.4193   39.3033 C   0  0  1  0  0  0  0  0  0  0  0  0
   -2.3796   14.4900   38.6013 O   0  0  0  0  0  0  0  0  0  0  0  0
    0.8548   16.1996   38.8325 C   0  0  2  0  0  0  0  0  0  0  0  0
    0.0215   16.3788   37.6689 O   0  0  0  0  0  0  0  0  0  0  0  0
    0.9174   17.9462   35.4759 C   0  0  0  0  0  0  0  0  0  0  0  0
    1.6561   16.6267   35.3327 O   0  0  0  0  0  0  0  0  0  0  0  0
   -2.8386   12.0741   38.6375 C   0  0  0  0  0  0  0  0  0  0  0  0
   -1.4216   11.7978   38.6154 O   0  0  0  0  0  0  0  0  0  0  0  0
    2.2719   15.6862   38.3709 C   0  0  1  0  0  0  0  0  0  0  0  0
    2.8368   16.6633   37.5324 O   0  0  0  0  0  0  0  0  0  0  0  0
    1.0411   20.4149   35.2557 C   0  0  0  0  0  0  0  0  0  0  0  0
    5.1527   20.5719   36.5161 C   0  0  0  0  0  0  0  0  0  0  0  0
  1  2  1  1  0  0  0
  1  6  1  0  0  0  0
  1 21  1  0  0  0  0
  3  4  1  6  0  0  0
  3  8  1  0  0  0  0
  3 28  1  0  0  0  0
  5  9  1  0  0  0  0
  5 25  1  0  0  0  0
  5 29  1  1  0  0  0
  6  7  1  1  0  0  0
  6 11  1  0  0  0  0
  8 12  1  0  0  0  0
  9 10  1  1  0  0  0
  9 14  1  0  0  0  0
 11 16  1  0  0  0  0
 12 13  1  1  0  0  0
 12 17  1  0  0  0  0
 14 15  1  6  0  0  0
 14 18  1  0  0  0  0
 15 31  1  0  0  0  0
 16 20  1  0  0  0  0
 17  2  1  1  0  0  0
 17 22  1  0  0  0  0
 18 19  1  6  0  0  0
 18 24  1  0  0  0  0
 18 30  1  0  0  0  0
 20 21  1  0  0  0  0
 20 26  1  1  0  0  0
 22 23  1  6  0  0  0
 22 28  1  0  0  0  0
 24 25  1  0  0  0  0
 26 27  1  0  0  0  0
 28 29  1  6  0  0  0
M  END
>  <CHROM.1>
175.87735387,-167.40014600,-82.74550255,-173.82070535,-117.66770400,134.25752126
0.75724256,16.25362720,38.11656212,2.30238581,0.01783653,2.36160892

>  <Name>
ligand

>  <RI>
0

>  <Rbt.Current_Directory>
/home/itssahil/PROJECTS/Mol_Feturizer/New_Systems/rnas/4GPY

>  <Rbt.Executable>
rbdock ($Id: //depot/dev/client3/rdock/2013.1/src/exe/rbdock.cxx#4 $)

>  <Rbt.Library>
libRbt.so (2013.1, Build901 2013/11/27)

>  <Rbt.Parameter_File>
/export/apps/rDock/src/rDock_2013.1_src/data/scripts/dock_solv.prm

>  <Rbt.Receptor>
prm/pocket_docking_4.prm

>  <SCORE>
-12.7472

>  <SCORE.INTER>
-10.4637

>  <SCORE.INTER.CONST>
1

>  <SCORE.INTER.POLAR>
0

>  <SCORE.INTER.ROT>
6

>  <SCORE.INTER.SOLV>
14.8294

>  <SCORE.INTER.VDW>
-19.5189

>  <SCORE.INTER.norm>
-0.33754

>  <SCORE.INTRA>
-2.2835

>  <SCORE.INTRA.DIHEDRAL>
-5.36976

>  <SCORE.INTRA.DIHEDRAL.0>
14.7001

>  <SCORE.INTRA.POLAR>
0

>  <SCORE.INTRA.POLAR.0>
0

>  <SCORE.INTRA.REPUL>
0

>  <SCORE.INTRA.REPUL.0>
0

>  <SCORE.INTRA.SOLV>
-1.66802

>  <SCORE.INTRA.SOLV.lig_0>
-65.3082

>  <SCORE.INTRA.VDW>
1.23539

>  <SCORE.INTRA.VDW.0>
-4.21408

>  <SCORE.INTRA.norm>
-0.0736612

>  <SCORE.RESTR>
0

>  <SCORE.RESTR.CAVITY>
0

>  <SCORE.RESTR.norm>
0

>  <SCORE.SYSTEM>
0

>  <SCORE.SYSTEM.CONST>
0

>  <SCORE.SYSTEM.DIHEDRAL>
0

>  <SCORE.SYSTEM.SOLV>
0

>  <SCORE.SYSTEM.norm>
0

>  <SCORE.heavy>
31

>  <SCORE.norm>
-0.411201

>  <RMSD>
8.531

$$$$
ligand
 OpenBabel11021811493D
libRbt.so/2013.1/901 2013/11/27
 31 33  0  0  0  0  0  0  0  0999 V2000
   -0.7940   17.8583   38.7436 C   0  0  2  0  0  0  0  0  0  0  0  0
    0.2383   18.7873   39.0132 O   0  0  0  0  0  0  0  0  0  0  0  0
   -0.0144   21.3483   35.6312 C   0  0  2  0  0  0  0  0  0  0  0  0
    0.3621   22.3101   34.6514 N   0  0  0  0  0  0  0  0  0  0  0  0
    1.9625   19.2894   33.3609 C   0  0  2  0  0  0  0  0  0  0  0  0
   -1.0189   16.9767   40.0475 C   0  0  2  0  0  0  0  0  0  0  0  0
   -1.3492   17.8527   41.1665 N   0  0  0  0  0  0  0  0  0  0  0  0
    0.1133   22.0249   37.0684 C   0  0  0  0  0  0  0  0  0  0  0  0
    2.7778   18.1185   34.0055 C   0  0  2  0  0  0  0  0  0  0  0  0
    1.9187   17.0122   34.1818 O   0  0  0  0  0  0  0  0  0  0  0  0
    0.2597   16.1154   40.3597 C   0  0  0  0  0  0  0  0  0  0  0  0
   -0.3212   20.9600   38.1568 C   0  0  2  0  0  0  0  0  0  0  0  0
   -0.2185   21.5677   39.4841 N   0  0  0  0  0  0  0  0  0  0  0  0
    3.3491   18.6091   35.3855 C   0  0  1  0  0  0  0  0  0  0  0  0
    4.1226   17.5014   36.0329 N   0  0  0  0  0  0  0  0  0  0  0  0
    0.9163   15.5354   39.0374 C   0  0  0  0  0  0  0  0  0  0  0  0
    0.6394   19.7050   38.0594 C   0  0  2  0  0  0  0  0  0  0  0  0
    4.3373   19.8753   35.1240 C   0  0  1  0  0  0  0  0  0  0  0  0
    5.4357   19.5614   34.2908 O   0  0  0  0  0  0  0  0  0  0  0  0
    0.5491   15.9887   37.8142 C   0  0  1  0  0  0  0  0  0  0  0  0
   -0.4365   16.9984   37.6164 O   0  0  0  0  0  0  0  0  0  0  0  0
    0.5232   19.0537   36.6186 C   0  0  2  0  0  0  0  0  0  0  0  0
    1.4120   17.9209   36.5343 O   0  0  0  0  0  0  0  0  0  0  0  0
    3.5293   21.0219   34.4459 C   0  0  0  0  0  0  0  0  0  0  0  0
    2.8547   20.5063   33.1864 O   0  0  0  0  0  0  0  0  0  0  0  0
    1.1547   15.4682   36.5325 C   0  0  0  0  0  0  0  0  0  0  0  0
    0.2166   14.5129   35.9920 O   0  0  0  0  0  0  0  0  0  0  0  0
    0.9491   20.1179   35.5364 C   0  0  1  0  0  0  0  0  0  0  0  0
    0.8324   19.5203   34.2690 O   0  0  0  0  0  0  0  0  0  0  0  0
    4.9646   20.4673   36.3929 C   0  0  0  0  0  0  0  0  0  0  0  0
    4.1222   17.4802   37.5104 C   0  0  0  0  0  0  0  0  0  0  0  0
  1  2  1  1  0  0  0
  1  6  1  0  0  0  0
  1 21  1  0  0  0  0
  3  4  1  6  0  0  0
  3  8  1  0  0  0  0
  3 28  1  0  0  0  0
  5  9  1  0  0  0  0
  5 25  1  0  0  0  0
  5 29  1  1  0  0  0
  6  7  1  1  0  0  0
  6 11  1  0  0  0  0
  8 12  1  0  0  0  0
  9 10  1  1  0  0  0
  9 14  1  0  0  0  0
 11 16  1  0  0  0  0
 12 13  1  1  0  0  0
 12 17  1  0  0  0  0
 14 15  1  6  0  0  0
 14 18  1  0  0  0  0
 15 31  1  0  0  0  0
 16 20  1  0  0  0  0
 17  2  1  1  0  0  0
 17 22  1  0  0  0  0
 18 19  1  6  0  0  0
 18 24  1  0  0  0  0
 18 30  1  0  0  0  0
 20 21  1  0  0  0  0
 20 26  1  1  0  0  0
 22 23  1  1  0  0  0
 22 28  1  0  0  0  0
 24 25  1  0  0  0  0
 26 27  1  0  0  0  0
 28 29  1  6  0  0  0
M  END
>  <CHROM.1>
-179.07264557,72.18668306,-149.05868359,85.13200534,99.87049917,124.86387702
1.42198232,18.68053809,36.62442481,2.48317148,-0.83816731,2.87480183

>  <Name>
ligand

>  <RI>
0

>  <Rbt.Current_Directory>
/home/itssahil/PROJECTS/Mol_Feturizer/New_Systems/rnas/4GPY

>  <Rbt.Executable>
rbdock ($Id: //depot/dev/client3/rdock/2013.1/src/exe/rbdock.cxx#4 $)

>  <Rbt.Library>
libRbt.so (2013.1, Build901 2013/11/27)

>  <Rbt.Parameter_File>
/export/apps/rDock/src/rDock_2013.1_src/data/scripts/dock_solv.prm

>  <Rbt.Receptor>
prm/blind_docking_60.prm

>  <SCORE>
127.848

>  <SCORE.INTER>
101.312

>  <SCORE.INTER.CONST>
1

>  <SCORE.INTER.POLAR>
0

>  <SCORE.INTER.ROT>
6

>  <SCORE.INTER.SOLV>
35.8337

>  <SCORE.INTER.VDW>
47.9967

>  <SCORE.INTER.norm>
3.26812

>  <SCORE.INTRA>
18.4979

>  <SCORE.INTRA.DIHEDRAL>
-1.42282

>  <SCORE.INTRA.DIHEDRAL.0>
14.7001

>  <SCORE.INTRA.POLAR>
0

>  <SCORE.INTRA.POLAR.0>
0

>  <SCORE.INTRA.REPUL>
0

>  <SCORE.INTRA.REPUL.0>
0

>  <SCORE.INTRA.SOLV>
2.83139

>  <SCORE.INTRA.SOLV.lig_0>
-65.3082

>  <SCORE.INTRA.VDW>
17.7936

>  <SCORE.INTRA.VDW.0>
-4.21408

>  <SCORE.INTRA.norm>
0.596706

>  <SCORE.RESTR>
8.03875

>  <SCORE.RESTR.CAVITY>
8.03875

>  <SCORE.RESTR.norm>
0.259315

>  <SCORE.SYSTEM>
0

>  <SCORE.SYSTEM.CONST>
0

>  <SCORE.SYSTEM.DIHEDRAL>
0

>  <SCORE.SYSTEM.SOLV>
0

>  <SCORE.SYSTEM.norm>
0

>  <SCORE.heavy>
31

>  <SCORE.norm>
4.12414

>  <RMSD>
8.554

$$$$
ligand
 OpenBabel11021811493D
libRbt.so/2013.1/901 2013/11/27
 31 33  0  0  0  0  0  0  0  0999 V2000
   -0.9617   10.3529   41.5385 C   0  0  2  0  0  0  0  0  0  0  0  0
   -1.2762    9.3510   40.5905 O   0  0  0  0  0  0  0  0  0  0  0  0
    0.2009    8.2248   36.7682 C   0  0  2  0  0  0  0  0  0  0  0  0
    0.5720    8.3202   35.3971 N   0  0  0  0  0  0  0  0  0  0  0  0
    3.2105    9.1156   36.2739 C   0  0  2  0  0  0  0  0  0  0  0  0
   -1.2669    9.7755   42.9881 C   0  0  2  0  0  0  0  0  0  0  0  0
   -0.4842    8.5616   43.1944 N   0  0  0  0  0  0  0  0  0  0  0  0
   -1.3472    8.5824   36.8913 C   0  0  0  0  0  0  0  0  0  0  0  0
    4.6888    8.8204   36.6965 C   0  0  2  0  0  0  0  0  0  0  0  0
    4.7500    7.5244   37.2532 O   0  0  0  0  0  0  0  0  0  0  0  0
   -2.8051    9.4944   43.1585 C   0  0  0  0  0  0  0  0  0  0  0  0
   -1.7634    8.4603   38.4143 C   0  0  2  0  0  0  0  0  0  0  0  0
   -3.1862    8.7770   38.5452 N   0  0  0  0  0  0  0  0  0  0  0  0
    5.1329    9.9024   37.7470 C   0  0  1  0  0  0  0  0  0  0  0  0
    6.5415    9.6346   38.1812 N   0  0  0  0  0  0  0  0  0  0  0  0
   -3.6888   10.6263   42.4848 C   0  0  0  0  0  0  0  0  0  0  0  0
   -0.9007    9.4791   39.2656 C   0  0  2  0  0  0  0  0  0  0  0  0
    5.0532   11.3718   37.0524 C   0  0  1  0  0  0  0  0  0  0  0  0
    5.8930   11.4995   35.9220 O   0  0  0  0  0  0  0  0  0  0  0  0
   -3.1410   11.5371   41.6440 C   0  0  1  0  0  0  0  0  0  0  0  0
   -1.7575   11.5568   41.3040 O   0  0  0  0  0  0  0  0  0  0  0  0
    0.6387    9.1300   39.1172 C   0  0  2  0  0  0  0  0  0  0  0  0
    1.4172   10.0716   39.8838 O   0  0  0  0  0  0  0  0  0  0  0  0
    3.5877   11.6428   36.5980 C   0  0  0  0  0  0  0  0  0  0  0  0
    3.1073   10.5175   35.6979 O   0  0  0  0  0  0  0  0  0  0  0  0
   -3.9484   12.6250   40.9770 C   0  0  0  0  0  0  0  0  0  0  0  0
   -3.8902   12.3694   39.5571 O   0  0  0  0  0  0  0  0  0  0  0  0
    1.0489    9.2451   37.5995 C   0  0  1  0  0  0  0  0  0  0  0  0
    2.4141    8.9258   37.4924 O   0  0  0  0  0  0  0  0  0  0  0  0
    5.4531   12.5339   37.9708 C   0  0  0  0  0  0  0  0  0  0  0  0
    6.7065    8.9538   39.4822 C   0  0  0  0  0  0  0  0  0  0  0  0
  1  2  1  6  0  0  0
  1  6  1  0  0  0  0
  1 21  1  0  0  0  0
  3  4  1  6  0  0  0
  3  8  1  0  0  0  0
  3 28  1  0  0  0  0
  5  9  1  0  0  0  0
  5 25  1  0  0  0  0
  5 29  1  1  0  0  0
  6  7  1  6  0  0  0
  6 11  1  0  0  0  0
  8 12  1  0  0  0  0
  9 10  1  1  0  0  0
  9 14  1  0  0  0  0
 11 16  1  0  0  0  0
 12 13  1  6  0  0  0
 12 17  1  0  0  0  0
 14 15  1  6  0  0  0
 14 18  1  0  0  0  0
 15 31  1  0  0  0  0
 16 20  1  0  0  0  0
 17  2  1  1  0  0  0
 17 22  1  0  0  0  0
 18 19  1  6  0  0  0
 18 24  1  0  0  0  0
 18 30  1  0  0  0  0
 20 21  1  0  0  0  0
 20 26  1  6  0  0  0
 22 23  1  1  0  0  0
 22 28  1  0  0  0  0
 24 25  1  0  0  0  0
 26 27  1  0  0  0  0
 28 29  1  1  0  0  0
M  END
>  <CHROM.1>
-168.82623130,172.07099889,-100.50596612,-162.75068343,-115.98189283,71.15295479
0.99414632,9.92284436,38.88482173,-2.64308138,-0.07901853,-1.83277335

>  <Name>
ligand

>  <RI>
0

>  <Rbt.Current_Directory>
/home/itssahil/PROJECTS/Mol_Feturizer/New_Systems/rnas/4GPY

>  <Rbt.Executable>
rbdock ($Id: //depot/dev/client3/rdock/2013.1/src/exe/rbdock.cxx#4 $)

>  <Rbt.Library>
libRbt.so (2013.1, Build901 2013/11/27)

>  <Rbt.Parameter_File>
/export/apps/rDock/src/rDock_2013.1_src/data/scripts/dock_solv.prm

>  <Rbt.Receptor>
prm/pocket_docking_8.prm

>  <SCORE>
-9.27661

>  <SCORE.INTER>
-5.09064

>  <SCORE.INTER.CONST>
1

>  <SCORE.INTER.POLAR>
0

>  <SCORE.INTER.ROT>
6

>  <SCORE.INTER.SOLV>
14.2973

>  <SCORE.INTER.VDW>
-15.7595

>  <SCORE.INTER.norm>
-0.164214

>  <SCORE.INTRA>
-4.18597

>  <SCORE.INTRA.DIHEDRAL>
-9.20486

>  <SCORE.INTRA.DIHEDRAL.0>
14.7001

>  <SCORE.INTRA.POLAR>
0

>  <SCORE.INTRA.POLAR.0>
0

>  <SCORE.INTRA.REPUL>
0

>  <SCORE.INTRA.REPUL.0>
0

>  <SCORE.INTRA.SOLV>
-0.252178

>  <SCORE.INTRA.SOLV.lig_0>
-65.3082

>  <SCORE.INTRA.VDW>
0.542549

>  <SCORE.INTRA.VDW.0>
-4.21408

>  <SCORE.INTRA.norm>
-0.135031

>  <SCORE.RESTR>
0

>  <SCORE.RESTR.CAVITY>
0

>  <SCORE.RESTR.norm>
0

>  <SCORE.SYSTEM>
0

>  <SCORE.SYSTEM.CONST>
0

>  <SCORE.SYSTEM.DIHEDRAL>
0

>  <SCORE.SYSTEM.SOLV>
0

>  <SCORE.SYSTEM.norm>
0

>  <SCORE.heavy>
31

>  <SCORE.norm>
-0.299246

>  <RMSD>
8.557

$$$$
ligand
 OpenBabel11021811493D
libRbt.so/2013.1/901 2013/11/27
 31 33  0  0  0  0  0  0  0  0999 V2000
   -2.2162   15.6645   39.3900 C   0  0  2  0  0  0  0  0  0  0  0  0
   -1.1279   15.5558   40.2872 O   0  0  0  0  0  0  0  0  0  0  0  0
    3.0794   15.4927   39.6917 C   0  0  2  0  0  0  0  0  0  0  0  0
    4.3657   15.0362   39.2869 N   0  0  0  0  0  0  0  0  0  0  0  0
    2.8430   16.4471   36.1096 C   0  0  2  0  0  0  0  0  0  0  0  0
   -3.4831   16.1682   40.2081 C   0  0  2  0  0  0  0  0  0  0  0  0
   -3.1672   17.4434   40.8426 N   0  0  0  0  0  0  0  0  0  0  0  0
    2.4510   14.4054   40.6728 C   0  0  0  0  0  0  0  0  0  0  0  0
    3.8194   17.5774   35.6403 C   0  0  2  0  0  0  0  0  0  0  0  0
    5.0312   17.4537   36.3540 O   0  0  0  0  0  0  0  0  0  0  0  0
   -3.9147   15.0956   41.2745 C   0  0  0  0  0  0  0  0  0  0  0  0
    1.0272   14.9213   41.1358 C   0  0  2  0  0  0  0  0  0  0  0  0
    0.4381   13.9381   42.0457 N   0  0  0  0  0  0  0  0  0  0  0  0
    3.1437   18.9688   35.9214 C   0  0  1  0  0  0  0  0  0  0  0  0
    4.0643   20.0712   35.4952 N   0  0  0  0  0  0  0  0  0  0  0  0
   -3.7941   13.6193   40.7070 C   0  0  0  0  0  0  0  0  0  0  0  0
    0.1061   15.0998   39.8603 C   0  0  2  0  0  0  0  0  0  0  0  0
    1.7604   19.0620   35.0693 C   0  0  1  0  0  0  0  0  0  0  0  0
    1.9581   18.9540   33.6734 O   0  0  0  0  0  0  0  0  0  0  0  0
   -3.1324   13.3629   39.5525 C   0  0  1  0  0  0  0  0  0  0  0  0
   -2.5061   14.3738   38.7675 O   0  0  0  0  0  0  0  0  0  0  0  0
    0.7519   16.1650   38.8796 C   0  0  2  0  0  0  0  0  0  0  0  0
   -0.0860   16.3101   37.7146 O   0  0  0  0  0  0  0  0  0  0  0  0
    0.8092   17.9104   35.5126 C   0  0  0  0  0  0  0  0  0  0  0  0
    1.5168   16.5730   35.3795 O   0  0  0  0  0  0  0  0  0  0  0  0
   -2.9889   11.9719   38.9827 C   0  0  0  0  0  0  0  0  0  0  0  0
   -4.2042   11.2648   39.3112 O   0  0  0  0  0  0  0  0  0  0  0  0
    2.1721   15.6529   38.4259 C   0  0  1  0  0  0  0  0  0  0  0  0
    2.7264   16.6150   37.5634 O   0  0  0  0  0  0  0  0  0  0  0  0
    0.9843   20.3724   35.2548 C   0  0  0  0  0  0  0  0  0  0  0  0
    5.0591   20.5151   36.4935 C   0  0  0  0  0  0  0  0  0  0  0  0
  1  2  1  1  0  0  0
  1  6  1  0  0  0  0
  1 21  1  0  0  0  0
  3  4  1  6  0  0  0
  3  8  1  0  0  0  0
  3 28  1  0  0  0  0
  5  9  1  0  0  0  0
  5 25  1  0  0  0  0
  5 29  1  1  0  0  0
  6  7  1  1  0  0  0
  6 11  1  0  0  0  0
  8 12  1  0  0  0  0
  9 10  1  1  0  0  0
  9 14  1  0  0  0  0
 11 16  1  0  0  0  0
 12 13  1  1  0  0  0
 12 17  1  0  0  0  0
 14 15  1  6  0  0  0
 14 18  1  0  0  0  0
 15 31  1  0  0  0  0
 16 20  1  0  0  0  0
 17  2  1  1  0  0  0
 17 22  1  0  0  0  0
 18 19  1  6  0  0  0
 18 24  1  0  0  0  0
 18 30  1  0  0  0  0
 20 21  1  0  0  0  0
 20 26  1  1  0  0  0
 22 23  1  6  0  0  0
 22 28  1  0  0  0  0
 24 25  1  0  0  0  0
 26 27  1  0  0  0  0
 28 29  1  6  0  0  0
M  END
>  <CHROM.1>
178.15142759,-166.25013518,-86.50523091,-172.65735632,34.10444543,135.26117707
0.55993813,16.19677665,38.20509460,2.32724372,0.07982775,2.30679283

>  <Name>
ligand

>  <RI>
0

>  <Rbt.Current_Directory>
/home/itssahil/PROJECTS/Mol_Feturizer/New_Systems/rnas/4GPY

>  <Rbt.Executable>
rbdock ($Id: //depot/dev/client3/rdock/2013.1/src/exe/rbdock.cxx#4 $)

>  <Rbt.Library>
libRbt.so (2013.1, Build901 2013/11/27)

>  <Rbt.Parameter_File>
/export/apps/rDock/src/rDock_2013.1_src/data/scripts/dock_solv.prm

>  <Rbt.Receptor>
prm/pocket_docking_4.prm

>  <SCORE>
-11.7031

>  <SCORE.INTER>
-10.7087

>  <SCORE.INTER.CONST>
1

>  <SCORE.INTER.POLAR>
0

>  <SCORE.INTER.ROT>
6

>  <SCORE.INTER.SOLV>
16.2128

>  <SCORE.INTER.VDW>
-20.1434

>  <SCORE.INTER.norm>
-0.345442

>  <SCORE.INTRA>
-0.994368

>  <SCORE.INTRA.DIHEDRAL>
-4.08268

>  <SCORE.INTRA.DIHEDRAL.0>
14.7001

>  <SCORE.INTRA.POLAR>
0

>  <SCORE.INTRA.POLAR.0>
0

>  <SCORE.INTRA.REPUL>
0

>  <SCORE.INTRA.REPUL.0>
0

>  <SCORE.INTRA.SOLV>
-1.8107

>  <SCORE.INTRA.SOLV.lig_0>
-65.3082

>  <SCORE.INTRA.VDW>
1.95232

>  <SCORE.INTRA.VDW.0>
-4.21408

>  <SCORE.INTRA.norm>
-0.0320764

>  <SCORE.RESTR>
0

>  <SCORE.RESTR.CAVITY>
0

>  <SCORE.RESTR.norm>
0

>  <SCORE.SYSTEM>
0

>  <SCORE.SYSTEM.CONST>
0

>  <SCORE.SYSTEM.DIHEDRAL>
0

>  <SCORE.SYSTEM.SOLV>
0

>  <SCORE.SYSTEM.norm>
0

>  <SCORE.heavy>
31

>  <SCORE.norm>
-0.377518

>  <RMSD>
8.571

$$$$
ligand
 OpenBabel11021811493D
libRbt.so/2013.1/901 2013/11/27
 31 33  0  0  0  0  0  0  0  0999 V2000
   -2.0540   15.6854   39.2202 C   0  0  2  0  0  0  0  0  0  0  0  0
   -0.9479   15.5140   40.0854 O   0  0  0  0  0  0  0  0  0  0  0  0
    3.2372   15.6352   39.3573 C   0  0  2  0  0  0  0  0  0  0  0  0
    4.5247   15.2474   38.8894 N   0  0  0  0  0  0  0  0  0  0  0  0
    2.8424   16.7660   35.8386 C   0  0  2  0  0  0  0  0  0  0  0  0
   -3.2977   16.1520   40.0941 C   0  0  2  0  0  0  0  0  0  0  0  0
   -2.9546   17.3848   40.7949 N   0  0  0  0  0  0  0  0  0  0  0  0
    2.6796   14.4768   40.2990 C   0  0  0  0  0  0  0  0  0  0  0  0
    3.7615   17.9540   35.3970 C   0  0  2  0  0  0  0  0  0  0  0  0
    5.0031   17.8358   36.0587 O   0  0  0  0  0  0  0  0  0  0  0  0
   -3.7176   15.0228   41.1052 C   0  0  0  0  0  0  0  0  0  0  0  0
    1.2547   14.9160   40.8323 C   0  0  2  0  0  0  0  0  0  0  0  0
    0.7304   13.8665   41.7072 N   0  0  0  0  0  0  0  0  0  0  0  0
    3.0503   19.3033   35.7782 C   0  0  1  0  0  0  0  0  0  0  0  0
    3.9163   20.4592   35.3801 N   0  0  0  0  0  0  0  0  0  0  0  0
   -3.6249   13.5812   40.4499 C   0  0  0  0  0  0  0  0  0  0  0  0
    0.2865   15.1259   39.5971 C   0  0  2  0  0  0  0  0  0  0  0  0
    1.6334   19.3924   34.9830 C   0  0  1  0  0  0  0  0  0  0  0  0
    1.7814   19.3664   33.5770 O   0  0  0  0  0  0  0  0  0  0  0  0
   -2.9909   13.3869   39.2681 C   0  0  1  0  0  0  0  0  0  0  0  0
   -2.3709   14.4361   38.5300 O   0  0  0  0  0  0  0  0  0  0  0  0
    0.8623   16.2629   38.6540 C   0  0  2  0  0  0  0  0  0  0  0  0
   -0.0180   16.4368   37.5248 O   0  0  0  0  0  0  0  0  0  0  0  0
    0.7391   18.1854   35.3966 C   0  0  0  0  0  0  0  0  0  0  0  0
    1.4860   16.8832   35.1648 O   0  0  0  0  0  0  0  0  0  0  0  0
   -2.8744   12.0303   38.6149 C   0  0  0  0  0  0  0  0  0  0  0  0
   -1.4682   11.7036   38.5920 O   0  0  0  0  0  0  0  0  0  0  0  0
    2.2838   15.8268   38.1303 C   0  0  1  0  0  0  0  0  0  0  0  0
    2.7756   16.8515   37.3026 O   0  0  0  0  0  0  0  0  0  0  0  0
    0.8210   20.6623   35.2680 C   0  0  0  0  0  0  0  0  0  0  0  0
    4.0787   21.5309   36.3843 C   0  0  0  0  0  0  0  0  0  0  0  0
  1  2  1  1  0  0  0
  1  6  1  0  0  0  0
  1 21  1  0  0  0  0
  3  4  1  6  0  0  0
  3  8  1  0  0  0  0
  3 28  1  0  0  0  0
  5  9  1  0  0  0  0
  5 25  1  0  0  0  0
  5 29  1  1  0  0  0
  6  7  1  1  0  0  0
  6 11  1  0  0  0  0
  8 12  1  0  0  0  0
  9 10  1  1  0  0  0
  9 14  1  0  0  0  0
 11 16  1  0  0  0  0
 12 13  1  1  0  0  0
 12 17  1  0  0  0  0
 14 15  1  6  0  0  0
 14 18  1  0  0  0  0
 15 31  1  0  0  0  0
 16 20  1  0  0  0  0
 17  2  1  1  0  0  0
 17 22  1  0  0  0  0
 18 19  1  6  0  0  0
 18 24  1  0  0  0  0
 18 30  1  0  0  0  0
 20 21  1  0  0  0  0
 20 26  1  1  0  0  0
 22 23  1  6  0  0  0
 22 28  1  0  0  0  0
 24 25  1  0  0  0  0
 26 27  1  0  0  0  0
 28 29  1  6  0  0  0
M  END
>  <CHROM.1>
-179.13179823,-166.43744068,-134.19647337,-175.44750159,-115.54837592,135.65407659
0.69428388,16.38922908,37.97069672,2.23694764,-0.02132346,2.43421713

>  <Name>
ligand

>  <RI>
0

>  <Rbt.Current_Directory>
/home/itssahil/PROJECTS/Mol_Feturizer/New_Systems/rnas/4GPY

>  <Rbt.Executable>
rbdock ($Id: //depot/dev/client3/rdock/2013.1/src/exe/rbdock.cxx#4 $)

>  <Rbt.Library>
libRbt.so (2013.1, Build901 2013/11/27)

>  <Rbt.Parameter_File>
/export/apps/rDock/src/rDock_2013.1_src/data/scripts/dock_solv.prm

>  <Rbt.Receptor>
prm/pocket_docking_5.prm

>  <SCORE>
-12.2506

>  <SCORE.INTER>
-9.80341

>  <SCORE.INTER.CONST>
1

>  <SCORE.INTER.POLAR>
0

>  <SCORE.INTER.ROT>
6

>  <SCORE.INTER.SOLV>
15.1361

>  <SCORE.INTER.VDW>
-19.181

>  <SCORE.INTER.norm>
-0.316239

>  <SCORE.INTRA>
-2.44718

>  <SCORE.INTRA.DIHEDRAL>
-4.92228

>  <SCORE.INTRA.DIHEDRAL.0>
14.7001

>  <SCORE.INTRA.POLAR>
0

>  <SCORE.INTRA.POLAR.0>
0

>  <SCORE.INTRA.REPUL>
0

>  <SCORE.INTRA.REPUL.0>
0

>  <SCORE.INTRA.SOLV>
-1.87396

>  <SCORE.INTRA.SOLV.lig_0>
-65.3082

>  <SCORE.INTRA.VDW>
0.950938

>  <SCORE.INTRA.VDW.0>
-4.21408

>  <SCORE.INTRA.norm>
-0.0789413

>  <SCORE.RESTR>
0

>  <SCORE.RESTR.CAVITY>
0

>  <SCORE.RESTR.norm>
0

>  <SCORE.SYSTEM>
0

>  <SCORE.SYSTEM.CONST>
0

>  <SCORE.SYSTEM.DIHEDRAL>
0

>  <SCORE.SYSTEM.SOLV>
0

>  <SCORE.SYSTEM.norm>
0

>  <SCORE.heavy>
31

>  <SCORE.norm>
-0.39518

>  <RMSD>
8.614

$$$$
ligand
 OpenBabel11021811493D
libRbt.so/2013.1/901 2013/11/27
 31 33  0  0  0  0  0  0  0  0999 V2000
    4.6505   12.5790   36.7716 C   0  0  2  0  0  0  0  0  0  0  0  0
    3.2407   12.6475   36.8663 O   0  0  0  0  0  0  0  0  0  0  0  0
    0.9040   16.1924   37.0479 C   0  0  2  0  0  0  0  0  0  0  0  0
    0.2287   17.3223   37.5904 N   0  0  0  0  0  0  0  0  0  0  0  0
    2.9649   17.6887   35.2769 C   0  0  2  0  0  0  0  0  0  0  0  0
    5.0609   11.0528   36.5969 C   0  0  2  0  0  0  0  0  0  0  0  0
    4.4057   10.5139   35.4100 N   0  0  0  0  0  0  0  0  0  0  0  0
    0.3234   14.8826   37.7457 C   0  0  0  0  0  0  0  0  0  0  0  0
    3.7515   19.0261   35.0674 C   0  0  2  0  0  0  0  0  0  0  0  0
    5.0230   18.9021   35.6684 O   0  0  0  0  0  0  0  0  0  0  0  0
    4.6786   10.2272   37.8800 C   0  0  0  0  0  0  0  0  0  0  0  0
    1.0632   13.6251   37.1302 C   0  0  2  0  0  0  0  0  0  0  0  0
    0.5356   12.4108   37.7538 N   0  0  0  0  0  0  0  0  0  0  0  0
    2.9324   20.1949   35.7266 C   0  0  1  0  0  0  0  0  0  0  0  0
    3.6708   21.4870   35.5543 N   0  0  0  0  0  0  0  0  0  0  0  0
    4.9618   11.0425   39.2108 C   0  0  0  0  0  0  0  0  0  0  0  0
    2.6153   13.7513   37.4168 C   0  0  2  0  0  0  0  0  0  0  0  0
    1.4840   20.2998   34.9923 C   0  0  1  0  0  0  0  0  0  0  0  0
    1.5801   20.5694   33.6076 O   0  0  0  0  0  0  0  0  0  0  0  0
    5.2282   12.3708   39.1771 C   0  0  1  0  0  0  0  0  0  0  0  0
    5.2782   13.1293   37.9719 O   0  0  0  0  0  0  0  0  0  0  0  0
    3.1783   15.0695   36.7393 C   0  0  2  0  0  0  0  0  0  0  0  0
    4.5889   15.1837   37.0179 O   0  0  0  0  0  0  0  0  0  0  0  0
    0.7229   18.9520   35.1700 C   0  0  0  0  0  0  0  0  0  0  0  0
    1.5788   17.8027   34.6660 O   0  0  0  0  0  0  0  0  0  0  0  0
    5.4958   13.1840   40.4211 C   0  0  0  0  0  0  0  0  0  0  0  0
    5.0640   14.5314   40.1331 O   0  0  0  0  0  0  0  0  0  0  0  0
    2.4353   16.3193   37.3482 C   0  0  1  0  0  0  0  0  0  0  0  0
    2.9463   17.4736   36.7289 O   0  0  0  0  0  0  0  0  0  0  0  0
    0.5680   21.4005   35.5431 C   0  0  0  0  0  0  0  0  0  0  0  0
    4.7046   21.7894   36.5659 C   0  0  0  0  0  0  0  0  0  0  0  0
  1  2  1  1  0  0  0
  1  6  1  0  0  0  0
  1 21  1  0  0  0  0
  3  4  1  1  0  0  0
  3  8  1  0  0  0  0
  3 28  1  0  0  0  0
  5  9  1  0  0  0  0
  5 25  1  0  0  0  0
  5 29  1  1  0  0  0
  6  7  1  6  0  0  0
  6 11  1  0  0  0  0
  8 12  1  0  0  0  0
  9 10  1  1  0  0  0
  9 14  1  0  0  0  0
 11 16  1  0  0  0  0
 12 13  1  1  0  0  0
 12 17  1  0  0  0  0
 14 15  1  6  0  0  0
 14 18  1  0  0  0  0
 15 31  1  0  0  0  0
 16 20  1  0  0  0  0
 17  2  1  6  0  0  0
 17 22  1  0  0  0  0
 18 19  1  6  0  0  0
 18 24  1  0  0  0  0
 18 30  1  0  0  0  0
 20 21  1  0  0  0  0
 20 26  1  1  0  0  0
 22 23  1  1  0  0  0
 22 28  1  0  0  0  0
 24 25  1  0  0  0  0
 26 27  1  0  0  0  0
 28 29  1  6  0  0  0
M  END
>  <CHROM.1>
160.21495852,-174.32843198,-84.96482592,169.80592250,-151.26849488,-62.93736517
3.11656188,15.89498062,36.79813402,-1.33551898,-0.28380216,-0.24392423

>  <Name>
ligand

>  <RI>
0

>  <Rbt.Current_Directory>
/home/itssahil/PROJECTS/Mol_Feturizer/New_Systems/rnas/4GPY

>  <Rbt.Executable>
rbdock ($Id: //depot/dev/client3/rdock/2013.1/src/exe/rbdock.cxx#4 $)

>  <Rbt.Library>
libRbt.so (2013.1, Build901 2013/11/27)

>  <Rbt.Parameter_File>
/export/apps/rDock/src/rDock_2013.1_src/data/scripts/dock_solv.prm

>  <Rbt.Receptor>
prm/blind_docking_100.prm

>  <SCORE>
-5.04036

>  <SCORE.INTER>
-7.83417

>  <SCORE.INTER.CONST>
1

>  <SCORE.INTER.POLAR>
0

>  <SCORE.INTER.ROT>
6

>  <SCORE.INTER.SOLV>
15.6447

>  <SCORE.INTER.VDW>
-18.0377

>  <SCORE.INTER.norm>
-0.252715

>  <SCORE.INTRA>
-0.187813

>  <SCORE.INTRA.DIHEDRAL>
-9.0787

>  <SCORE.INTRA.DIHEDRAL.0>
14.7001

>  <SCORE.INTRA.POLAR>
0

>  <SCORE.INTRA.POLAR.0>
0

>  <SCORE.INTRA.REPUL>
0

>  <SCORE.INTRA.REPUL.0>
0

>  <SCORE.INTRA.SOLV>
0.455255

>  <SCORE.INTRA.SOLV.lig_0>
-65.3082

>  <SCORE.INTRA.VDW>
4.12391

>  <SCORE.INTRA.VDW.0>
-4.21408

>  <SCORE.INTRA.norm>
-0.00605849

>  <SCORE.RESTR>
2.98162

>  <SCORE.RESTR.CAVITY>
2.98162

>  <SCORE.RESTR.norm>
0.0961812

>  <SCORE.SYSTEM>
0

>  <SCORE.SYSTEM.CONST>
0

>  <SCORE.SYSTEM.DIHEDRAL>
0

>  <SCORE.SYSTEM.SOLV>
0

>  <SCORE.SYSTEM.norm>
0

>  <SCORE.heavy>
31

>  <SCORE.norm>
-0.162592

>  <RMSD>
8.656

$$$$
ligand
 OpenBabel11021811493D
libRbt.so/2013.1/901 2013/11/27
 31 33  0  0  0  0  0  0  0  0999 V2000
   -2.0743   15.6607   39.2320 C   0  0  2  0  0  0  0  0  0  0  0  0
   -0.9749   15.4988   40.1075 O   0  0  0  0  0  0  0  0  0  0  0  0
    3.2179   15.5980   39.4211 C   0  0  2  0  0  0  0  0  0  0  0  0
    4.5082   15.2023   38.9679 N   0  0  0  0  0  0  0  0  0  0  0  0
    2.8702   16.7125   35.8944 C   0  0  2  0  0  0  0  0  0  0  0  0
   -3.3145   16.1729   40.0850 C   0  0  2  0  0  0  0  0  0  0  0  0
   -2.9555   17.4211   40.7496 N   0  0  0  0  0  0  0  0  0  0  0  0
    2.6455   14.4463   40.3622 C   0  0  0  0  0  0  0  0  0  0  0  0
    3.8102   17.8867   35.4598 C   0  0  2  0  0  0  0  0  0  0  0  0
    5.0402   17.7574   36.1408 O   0  0  0  0  0  0  0  0  0  0  0  0
   -3.7565   15.0817   41.1280 C   0  0  0  0  0  0  0  0  0  0  0  0
    1.2173   14.8941   40.8792 C   0  0  2  0  0  0  0  0  0  0  0  0
    0.6795   13.8509   41.7532 N   0  0  0  0  0  0  0  0  0  0  0  0
    3.1099   19.2467   35.8226 C   0  0  1  0  0  0  0  0  0  0  0  0
    3.9957   20.3896   35.4310 N   0  0  0  0  0  0  0  0  0  0  0  0
   -3.6832   13.6196   40.5174 C   0  0  0  0  0  0  0  0  0  0  0  0
    0.2626   15.1030   39.6334 C   0  0  2  0  0  0  0  0  0  0  0  0
    1.7061   19.3483   35.0057 C   0  0  1  0  0  0  0  0  0  0  0  0
    1.8749   19.3122   33.6023 O   0  0  0  0  0  0  0  0  0  0  0  0
   -3.0469   13.3794   39.3453 C   0  0  1  0  0  0  0  0  0  0  0  0
   -2.4074   14.3959   38.5786 O   0  0  0  0  0  0  0  0  0  0  0  0
    0.8530   16.2333   38.6912 C   0  0  2  0  0  0  0  0  0  0  0  0
   -0.0150   16.4063   37.5524 O   0  0  0  0  0  0  0  0  0  0  0  0
    0.7912   18.1546   35.4127 C   0  0  0  0  0  0  0  0  0  0  0  0
    1.5255   16.8421   35.1996 O   0  0  0  0  0  0  0  0  0  0  0  0
   -2.9486   12.0019   38.7344 C   0  0  0  0  0  0  0  0  0  0  0  0
   -4.1128   11.2713   39.1765 O   0  0  0  0  0  0  0  0  0  0  0  0
    2.2777   15.7886   38.1838 C   0  0  1  0  0  0  0  0  0  0  0  0
    2.7825   16.8074   37.3567 O   0  0  0  0  0  0  0  0  0  0  0  0
    0.9051   20.6295   35.2712 C   0  0  0  0  0  0  0  0  0  0  0  0
    4.1028   21.4970   36.4034 C   0  0  0  0  0  0  0  0  0  0  0  0
  1  2  1  1  0  0  0
  1  6  1  0  0  0  0
  1 21  1  0  0  0  0
  3  4  1  6  0  0  0
  3  8  1  0  0  0  0
  3 28  1  0  0  0  0
  5  9  1  0  0  0  0
  5 25  1  0  0  0  0
  5 29  1  1  0  0  0
  6  7  1  1  0  0  0
  6 11  1  0  0  0  0
  8 12  1  0  0  0  0
  9 10  1  1  0  0  0
  9 14  1  0  0  0  0
 11 16  1  0  0  0  0
 12 13  1  1  0  0  0
 12 17  1  0  0  0  0
 14 15  1  6  0  0  0
 14 18  1  0  0  0  0
 15 31  1  0  0  0  0
 16 20  1  0  0  0  0
 17  2  1  1  0  0  0
 17 22  1  0  0  0  0
 18 19  1  6  0  0  0
 18 24  1  0  0  0  0
 18 30  1  0  0  0  0
 20 21  1  0  0  0  0
 20 26  1  1  0  0  0
 22 23  1  6  0  0  0
 22 28  1  0  0  0  0
 24 25  1  0  0  0  0
 26 27  1  0  0  0  0
 28 29  1  6  0  0  0
M  END
>  <CHROM.1>
-177.81344128,-165.80400949,-137.14189484,-174.91713416,28.40432837,135.32146603
0.60182062,16.34616423,38.03171313,2.27927498,0.05158796,2.38799050

>  <Name>
ligand

>  <RI>
0

>  <Rbt.Current_Directory>
/home/itssahil/PROJECTS/Mol_Feturizer/New_Systems/rnas/4GPY

>  <Rbt.Executable>
rbdock ($Id: //depot/dev/client3/rdock/2013.1/src/exe/rbdock.cxx#4 $)

>  <Rbt.Library>
libRbt.so (2013.1, Build901 2013/11/27)

>  <Rbt.Parameter_File>
/export/apps/rDock/src/rDock_2013.1_src/data/scripts/dock_solv.prm

>  <Rbt.Receptor>
prm/pocket_docking_5.prm

>  <SCORE>
-11.4423

>  <SCORE.INTER>
-10.436

>  <SCORE.INTER.CONST>
1

>  <SCORE.INTER.POLAR>
0

>  <SCORE.INTER.ROT>
6

>  <SCORE.INTER.SOLV>
16.3685

>  <SCORE.INTER.VDW>
-20.0135

>  <SCORE.INTER.norm>
-0.336646

>  <SCORE.INTRA>
-1.00627

>  <SCORE.INTRA.DIHEDRAL>
-3.96569

>  <SCORE.INTRA.DIHEDRAL.0>
14.7001

>  <SCORE.INTRA.POLAR>
0

>  <SCORE.INTRA.POLAR.0>
0

>  <SCORE.INTRA.REPUL>
0

>  <SCORE.INTRA.REPUL.0>
0

>  <SCORE.INTRA.SOLV>
-1.99915

>  <SCORE.INTRA.SOLV.lig_0>
-65.3082

>  <SCORE.INTRA.VDW>
1.97614

>  <SCORE.INTRA.VDW.0>
-4.21408

>  <SCORE.INTRA.norm>
-0.0324604

>  <SCORE.RESTR>
0

>  <SCORE.RESTR.CAVITY>
0

>  <SCORE.RESTR.norm>
0

>  <SCORE.SYSTEM>
0

>  <SCORE.SYSTEM.CONST>
0

>  <SCORE.SYSTEM.DIHEDRAL>
0

>  <SCORE.SYSTEM.SOLV>
0

>  <SCORE.SYSTEM.norm>
0

>  <SCORE.heavy>
31

>  <SCORE.norm>
-0.369107

>  <RMSD>
8.663

$$$$
ligand
 OpenBabel11021811493D
libRbt.so/2013.1/901 2013/11/27
 31 33  0  0  0  0  0  0  0  0999 V2000
    5.0365   12.4795   37.0429 C   0  0  2  0  0  0  0  0  0  0  0  0
    3.7537   12.7898   36.5334 O   0  0  0  0  0  0  0  0  0  0  0  0
    1.0963   16.1010   36.7171 C   0  0  2  0  0  0  0  0  0  0  0  0
    0.2809   17.1323   37.2636 N   0  0  0  0  0  0  0  0  0  0  0  0
    3.1907   17.8600   35.2078 C   0  0  2  0  0  0  0  0  0  0  0  0
    4.9853   11.0111   37.6506 C   0  0  2  0  0  0  0  0  0  0  0  0
    4.5686   10.0768   36.6104 N   0  0  0  0  0  0  0  0  0  0  0  0
    0.5856   14.7050   37.2915 C   0  0  0  0  0  0  0  0  0  0  0  0
    3.9096   19.2494   35.1441 C   0  0  2  0  0  0  0  0  0  0  0  0
    5.1155   19.1688   35.8739 O   0  0  0  0  0  0  0  0  0  0  0  0
    4.0115   10.9573   38.8846 C   0  0  0  0  0  0  0  0  0  0  0  0
    1.4823   13.5570   36.6707 C   0  0  2  0  0  0  0  0  0  0  0  0
    1.0212   12.2652   37.1810 N   0  0  0  0  0  0  0  0  0  0  0  0
    2.9536   20.3344   35.7606 C   0  0  1  0  0  0  0  0  0  0  0  0
    3.6236   21.6740   35.7265 N   0  0  0  0  0  0  0  0  0  0  0  0
    4.1353   12.2541   39.7896 C   0  0  0  0  0  0  0  0  0  0  0  0
    2.9896   13.7990   37.0906 C   0  0  2  0  0  0  0  0  0  0  0  0
    1.5876   20.3925   34.8782 C   0  0  1  0  0  0  0  0  0  0  0  0
    1.8129   20.7364   33.5254 O   0  0  0  0  0  0  0  0  0  0  0  0
    4.7983   13.3530   39.3544 C   0  0  1  0  0  0  0  0  0  0  0  0
    5.4279   13.4340   38.0788 O   0  0  0  0  0  0  0  0  0  0  0  0
    3.4806   15.2005   36.5354 C   0  0  2  0  0  0  0  0  0  0  0  0
    4.8492   15.4188   36.9350 O   0  0  0  0  0  0  0  0  0  0  0  0
    0.8979   18.9958   34.9127 C   0  0  0  0  0  0  0  0  0  0  0  0
    1.8728   17.9246   34.4551 O   0  0  0  0  0  0  0  0  0  0  0  0
    4.9326   14.6092   40.1817 C   0  0  0  0  0  0  0  0  0  0  0  0
    4.1031   15.6084   39.5507 O   0  0  0  0  0  0  0  0  0  0  0  0
    2.5819   16.3411   37.1490 C   0  0  1  0  0  0  0  0  0  0  0  0
    3.0317   17.5715   36.6383 O   0  0  0  0  0  0  0  0  0  0  0  0
    0.5511   21.4094   35.3736 C   0  0  0  0  0  0  0  0  0  0  0  0
    4.6130   21.9376   36.7919 C   0  0  0  0  0  0  0  0  0  0  0  0
  1  2  1  1  0  0  0
  1  6  1  0  0  0  0
  1 21  1  0  0  0  0
  3  4  1  1  0  0  0
  3  8  1  0  0  0  0
  3 28  1  0  0  0  0
  5  9  1  0  0  0  0
  5 25  1  0  0  0  0
  5 29  1  1  0  0  0
  6  7  1  6  0  0  0
  6 11  1  0  0  0  0
  8 12  1  0  0  0  0
  9 10  1  1  0  0  0
  9 14  1  0  0  0  0
 11 16  1  0  0  0  0
 12 13  1  1  0  0  0
 12 17  1  0  0  0  0
 14 15  1  6  0  0  0
 14 18  1  0  0  0  0
 15 31  1  0  0  0  0
 16 20  1  0  0  0  0
 17  2  1  6  0  0  0
 17 22  1  0  0  0  0
 18 19  1  6  0  0  0
 18 24  1  0  0  0  0
 18 30  1  0  0  0  0
 20 21  1  0  0  0  0
 20 26  1  6  0  0  0
 22 23  1  1  0  0  0
 22 28  1  0  0  0  0
 24 25  1  0  0  0  0
 26 27  1  0  0  0  0
 28 29  1  6  0  0  0
M  END
>  <CHROM.1>
114.81042538,-171.66470744,-79.76242768,-160.11989506,-109.27329075,-65.35349850
3.16004778,16.11722639,36.79400137,-1.36625701,-0.45074688,-0.23928899

>  <Name>
ligand

>  <RI>
0

>  <Rbt.Current_Directory>
/home/itssahil/PROJECTS/Mol_Feturizer/New_Systems/rnas/4GPY

>  <Rbt.Executable>
rbdock ($Id: //depot/dev/client3/rdock/2013.1/src/exe/rbdock.cxx#4 $)

>  <Rbt.Library>
libRbt.so (2013.1, Build901 2013/11/27)

>  <Rbt.Parameter_File>
/export/apps/rDock/src/rDock_2013.1_src/data/scripts/dock_solv.prm

>  <Rbt.Receptor>
prm/blind_docking_100.prm

>  <SCORE>
-3.71733

>  <SCORE.INTER>
-8.77447

>  <SCORE.INTER.CONST>
1

>  <SCORE.INTER.POLAR>
0

>  <SCORE.INTER.ROT>
6

>  <SCORE.INTER.SOLV>
13.6612

>  <SCORE.INTER.VDW>
-18.0034

>  <SCORE.INTER.norm>
-0.283047

>  <SCORE.INTRA>
2.40548

>  <SCORE.INTRA.DIHEDRAL>
-3.24468

>  <SCORE.INTRA.DIHEDRAL.0>
14.7001

>  <SCORE.INTRA.POLAR>
0

>  <SCORE.INTRA.POLAR.0>
0

>  <SCORE.INTRA.REPUL>
0

>  <SCORE.INTRA.REPUL.0>
0

>  <SCORE.INTRA.SOLV>
2.89618

>  <SCORE.INTRA.SOLV.lig_0>
-65.3082

>  <SCORE.INTRA.VDW>
2.57973

>  <SCORE.INTRA.VDW.0>
-4.21408

>  <SCORE.INTRA.norm>
0.0775962

>  <SCORE.RESTR>
2.65166

>  <SCORE.RESTR.CAVITY>
2.65166

>  <SCORE.RESTR.norm>
0.0855373

>  <SCORE.SYSTEM>
0

>  <SCORE.SYSTEM.CONST>
0

>  <SCORE.SYSTEM.DIHEDRAL>
0

>  <SCORE.SYSTEM.SOLV>
0

>  <SCORE.SYSTEM.norm>
0

>  <SCORE.heavy>
31

>  <SCORE.norm>
-0.119914

>  <RMSD>
8.664

$$$$
ligand
 OpenBabel11021811493D
libRbt.so/2013.1/901 2013/11/27
 31 33  0  0  0  0  0  0  0  0999 V2000
    4.9935   12.5030   37.0375 C   0  0  2  0  0  0  0  0  0  0  0  0
    3.6863   12.7930   36.5812 O   0  0  0  0  0  0  0  0  0  0  0  0
    1.0766   16.1406   36.7891 C   0  0  2  0  0  0  0  0  0  0  0  0
    0.2831   17.1849   37.3429 N   0  0  0  0  0  0  0  0  0  0  0  0
    3.2110   17.8519   35.2453 C   0  0  2  0  0  0  0  0  0  0  0  0
    5.0005   11.0187   37.6075 C   0  0  2  0  0  0  0  0  0  0  0  0
    4.5709   10.1009   36.5579 N   0  0  0  0  0  0  0  0  0  0  0  0
    0.5553   14.7538   37.3761 C   0  0  0  0  0  0  0  0  0  0  0  0
    3.9394   19.2358   35.1722 C   0  0  2  0  0  0  0  0  0  0  0  0
    5.1346   19.1581   35.9198 O   0  0  0  0  0  0  0  0  0  0  0  0
    4.0724   10.9081   38.8726 C   0  0  0  0  0  0  0  0  0  0  0  0
    1.4275   13.5914   36.7472 C   0  0  2  0  0  0  0  0  0  0  0  0
    0.9563   12.3079   37.2690 N   0  0  0  0  0  0  0  0  0  0  0  0
    2.9819   20.3352   35.7603 C   0  0  1  0  0  0  0  0  0  0  0  0
    3.6607   21.6701   35.7169 N   0  0  0  0  0  0  0  0  0  0  0  0
    4.1956   12.1840   39.8068 C   0  0  0  0  0  0  0  0  0  0  0  0
    2.9438   13.8145   37.1451 C   0  0  2  0  0  0  0  0  0  0  0  0
    1.6285   20.3893   34.8583 C   0  0  1  0  0  0  0  0  0  0  0  0
    1.8746   20.7129   33.5041 O   0  0  0  0  0  0  0  0  0  0  0  0
    4.8152   13.3106   39.3783 C   0  0  1  0  0  0  0  0  0  0  0  0
    5.3973   13.4405   38.0843 O   0  0  0  0  0  0  0  0  0  0  0  0
    3.4458   15.2072   36.5775 C   0  0  2  0  0  0  0  0  0  0  0  0
    4.8227   15.4084   36.9570 O   0  0  0  0  0  0  0  0  0  0  0  0
    0.9297   18.9974   34.9027 C   0  0  0  0  0  0  0  0  0  0  0  0
    1.9040   17.9140   34.4736 O   0  0  0  0  0  0  0  0  0  0  0  0
    4.9471   14.5481   40.2335 C   0  0  0  0  0  0  0  0  0  0  0  0
    4.1177   15.5605   39.6236 O   0  0  0  0  0  0  0  0  0  0  0  0
    2.5713   16.3621   37.1991 C   0  0  1  0  0  0  0  0  0  0  0  0
    3.0304   17.5844   36.6774 O   0  0  0  0  0  0  0  0  0  0  0  0
    0.5917   21.4193   35.3251 C   0  0  0  0  0  0  0  0  0  0  0  0
    4.6038   21.9602   36.8168 C   0  0  0  0  0  0  0  0  0  0  0  0
  1  2  1  1  0  0  0
  1  6  1  0  0  0  0
  1 21  1  0  0  0  0
  3  4  1  1  0  0  0
  3  8  1  0  0  0  0
  3 28  1  0  0  0  0
  5  9  1  0  0  0  0
  5 25  1  0  0  0  0
  5 29  1  1  0  0  0
  6  7  1  6  0  0  0
  6 11  1  0  0  0  0
  8 12  1  0  0  0  0
  9 10  1  1  0  0  0
  9 14  1  0  0  0  0
 11 16  1  0  0  0  0
 12 13  1  1  0  0  0
 12 17  1  0  0  0  0
 14 15  1  6  0  0  0
 14 18  1  0  0  0  0
 15 31  1  0  0  0  0
 16 20  1  0  0  0  0
 17  2  1  6  0  0  0
 17 22  1  0  0  0  0
 18 19  1  6  0  0  0
 18 24  1  0  0  0  0
 18 30  1  0  0  0  0
 20 21  1  0  0  0  0
 20 26  1  6  0  0  0
 22 23  1  1  0  0  0
 22 28  1  0  0  0  0
 24 25  1  0  0  0  0
 26 27  1  0  0  0  0
 28 29  1  6  0  0  0
M  END
>  <CHROM.1>
118.24154914,-171.38344807,-81.71080856,-162.73942775,-111.80282878,-67.24553806
3.16300151,16.11737898,36.81853336,-1.37079745,-0.44290952,-0.24549973

>  <Name>
ligand

>  <RI>
0

>  <Rbt.Current_Directory>
/home/itssahil/PROJECTS/Mol_Feturizer/New_Systems/rnas/4GPY

>  <Rbt.Executable>
rbdock ($Id: //depot/dev/client3/rdock/2013.1/src/exe/rbdock.cxx#4 $)

>  <Rbt.Library>
libRbt.so (2013.1, Build901 2013/11/27)

>  <Rbt.Parameter_File>
/export/apps/rDock/src/rDock_2013.1_src/data/scripts/dock_solv.prm

>  <Rbt.Receptor>
prm/blind_docking_100.prm

>  <SCORE>
-4.09079

>  <SCORE.INTER>
-8.99138

>  <SCORE.INTER.CONST>
1

>  <SCORE.INTER.POLAR>
0

>  <SCORE.INTER.ROT>
6

>  <SCORE.INTER.SOLV>
13.6586

>  <SCORE.INTER.VDW>
-18.1471

>  <SCORE.INTER.norm>
-0.290045

>  <SCORE.INTRA>
2.20052

>  <SCORE.INTRA.DIHEDRAL>
-3.40377

>  <SCORE.INTRA.DIHEDRAL.0>
14.7001

>  <SCORE.INTRA.POLAR>
0

>  <SCORE.INTRA.POLAR.0>
0

>  <SCORE.INTRA.REPUL>
0

>  <SCORE.INTRA.REPUL.0>
0

>  <SCORE.INTRA.SOLV>
2.47499

>  <SCORE.INTRA.SOLV.lig_0>
-65.3082

>  <SCORE.INTRA.VDW>
2.66491

>  <SCORE.INTRA.VDW.0>
-4.21408

>  <SCORE.INTRA.norm>
0.0709845

>  <SCORE.RESTR>
2.70007

>  <SCORE.RESTR.CAVITY>
2.70007

>  <SCORE.RESTR.norm>
0.087099

>  <SCORE.SYSTEM>
0

>  <SCORE.SYSTEM.CONST>
0

>  <SCORE.SYSTEM.DIHEDRAL>
0

>  <SCORE.SYSTEM.SOLV>
0

>  <SCORE.SYSTEM.norm>
0

>  <SCORE.heavy>
31

>  <SCORE.norm>
-0.131961

>  <RMSD>
8.664

$$$$
ligand
 OpenBabel11021811493D
libRbt.so/2013.1/901 2013/11/27
 31 33  0  0  0  0  0  0  0  0999 V2000
   -0.5368   13.4999   42.0937 C   0  0  2  0  0  0  0  0  0  0  0  0
    0.1957   14.5305   42.7282 O   0  0  0  0  0  0  0  0  0  0  0  0
    3.8598   16.4767   41.8080 C   0  0  2  0  0  0  0  0  0  0  0  0
    5.2542   16.6707   41.5959 N   0  0  0  0  0  0  0  0  0  0  0  0
    3.3468   15.0484   38.2772 C   0  0  2  0  0  0  0  0  0  0  0  0
   -2.0546   13.6174   42.5524 C   0  0  2  0  0  0  0  0  0  0  0  0
   -2.5587   14.9415   42.2044 N   0  0  0  0  0  0  0  0  0  0  0  0
    3.6509   15.9508   43.2978 C   0  0  0  0  0  0  0  0  0  0  0  0
    4.2387   15.7225   37.1812 C   0  0  2  0  0  0  0  0  0  0  0  0
    5.5616   15.8114   37.6660 O   0  0  0  0  0  0  0  0  0  0  0  0
   -2.1879   13.3475   44.0963 C   0  0  0  0  0  0  0  0  0  0  0  0
    2.0986   15.7508   43.5386 C   0  0  2  0  0  0  0  0  0  0  0  0
    1.8870   15.2759   44.9066 N   0  0  0  0  0  0  0  0  0  0  0  0
    3.6577   17.1507   36.8744 C   0  0  1  0  0  0  0  0  0  0  0  0
    4.5025   17.8262   35.8377 N   0  0  0  0  0  0  0  0  0  0  0  0
   -1.2389   12.1690   44.5722 C   0  0  0  0  0  0  0  0  0  0  0  0
    1.5517   14.6844   42.5038 C   0  0  2  0  0  0  0  0  0  0  0  0
    2.1395   16.9898   36.3111 C   0  0  1  0  0  0  0  0  0  0  0  0
    2.0649   16.2302   35.1208 O   0  0  0  0  0  0  0  0  0  0  0  0
   -0.2594   11.6884   43.7684 C   0  0  1  0  0  0  0  0  0  0  0  0
   -0.0065   12.1870   42.4578 O   0  0  0  0  0  0  0  0  0  0  0  0
    1.7861   15.2058   41.0250 C   0  0  2  0  0  0  0  0  0  0  0  0
    1.2984   14.2220   40.0897 O   0  0  0  0  0  0  0  0  0  0  0  0
    1.2669   16.2822   37.3907 C   0  0  0  0  0  0  0  0  0  0  0  0
    1.9085   14.9662   37.7952 O   0  0  0  0  0  0  0  0  0  0  0  0
    0.6692   10.5733   44.1864 C   0  0  0  0  0  0  0  0  0  0  0  0
    0.4239    9.4731   43.2840 O   0  0  0  0  0  0  0  0  0  0  0  0
    3.3312   15.4111   40.7900 C   0  0  1  0  0  0  0  0  0  0  0  0
    3.5132   15.8785   39.4765 O   0  0  0  0  0  0  0  0  0  0  0  0
    1.4401   18.3135   35.9757 C   0  0  0  0  0  0  0  0  0  0  0  0
    5.0393   19.1554   36.1962 C   0  0  0  0  0  0  0  0  0  0  0  0
  1  2  1  1  0  0  0
  1  6  1  0  0  0  0
  1 21  1  0  0  0  0
  3  4  1  6  0  0  0
  3  8  1  0  0  0  0
  3 28  1  0  0  0  0
  5  9  1  0  0  0  0
  5 25  1  0  0  0  0
  5 29  1  1  0  0  0
  6  7  1  1  0  0  0
  6 11  1  0  0  0  0
  8 12  1  0  0  0  0
  9 10  1  1  0  0  0
  9 14  1  0  0  0  0
 11 16  1  0  0  0  0
 12 13  1  1  0  0  0
 12 17  1  0  0  0  0
 14 15  1  6  0  0  0
 14 18  1  0  0  0  0
 15 31  1  0  0  0  0
 16 20  1  0  0  0  0
 17  2  1  1  0  0  0
 17 22  1  0  0  0  0
 18 19  1  6  0  0  0
 18 24  1  0  0  0  0
 18 30  1  0  0  0  0
 20 21  1  0  0  0  0
 20 26  1  1  0  0  0
 22 23  1  6  0  0  0
 22 28  1  0  0  0  0
 24 25  1  0  0  0  0
 26 27  1  0  0  0  0
 28 29  1  6  0  0  0
M  END
>  <CHROM.1>
-179.31284544,-154.83731563,-125.20466426,-170.50954930,116.82416407,168.97855366
1.80607548,14.98103310,40.46666893,2.08270110,0.47634085,1.89787681

>  <Name>
ligand

>  <RI>
0

>  <Rbt.Current_Directory>
/home/itssahil/PROJECTS/Mol_Feturizer/New_Systems/rnas/4GPY

>  <Rbt.Executable>
rbdock ($Id: //depot/dev/client3/rdock/2013.1/src/exe/rbdock.cxx#4 $)

>  <Rbt.Library>
libRbt.so (2013.1, Build901 2013/11/27)

>  <Rbt.Parameter_File>
/export/apps/rDock/src/rDock_2013.1_src/data/scripts/dock_solv.prm

>  <Rbt.Receptor>
prm/pocket_docking_8.prm

>  <SCORE>
-10.5866

>  <SCORE.INTER>
-6.9046

>  <SCORE.INTER.CONST>
1

>  <SCORE.INTER.POLAR>
0

>  <SCORE.INTER.ROT>
6

>  <SCORE.INTER.SOLV>
15.6395

>  <SCORE.INTER.VDW>
-17.4162

>  <SCORE.INTER.norm>
-0.222729

>  <SCORE.INTRA>
-3.68198

>  <SCORE.INTRA.DIHEDRAL>
-8.10237

>  <SCORE.INTRA.DIHEDRAL.0>
14.7001

>  <SCORE.INTRA.POLAR>
0

>  <SCORE.INTRA.POLAR.0>
0

>  <SCORE.INTRA.REPUL>
0

>  <SCORE.INTRA.REPUL.0>
0

>  <SCORE.INTRA.SOLV>
-2.1657

>  <SCORE.INTRA.SOLV.lig_0>
-65.3082

>  <SCORE.INTRA.VDW>
1.45205

>  <SCORE.INTRA.VDW.0>
-4.21408

>  <SCORE.INTRA.norm>
-0.118774

>  <SCORE.RESTR>
0

>  <SCORE.RESTR.CAVITY>
0

>  <SCORE.RESTR.norm>
0

>  <SCORE.SYSTEM>
0

>  <SCORE.SYSTEM.CONST>
0

>  <SCORE.SYSTEM.DIHEDRAL>
0

>  <SCORE.SYSTEM.SOLV>
0

>  <SCORE.SYSTEM.norm>
0

>  <SCORE.heavy>
31

>  <SCORE.norm>
-0.341503

>  <RMSD>
8.679

$$$$
ligand
 OpenBabel11021811493D
libRbt.so/2013.1/901 2013/11/27
 31 33  0  0  0  0  0  0  0  0999 V2000
   -1.9436   15.4997   39.1057 C   0  0  2  0  0  0  0  0  0  0  0  0
   -0.8422   15.4194   39.9900 O   0  0  0  0  0  0  0  0  0  0  0  0
    3.3577   15.6685   39.3914 C   0  0  2  0  0  0  0  0  0  0  0  0
    4.6688   15.3248   38.9559 N   0  0  0  0  0  0  0  0  0  0  0  0
    3.0181   16.8603   35.8813 C   0  0  2  0  0  0  0  0  0  0  0  0
   -3.1861   16.0745   39.9142 C   0  0  2  0  0  0  0  0  0  0  0  0
   -2.8344   17.3767   40.4702 N   0  0  0  0  0  0  0  0  0  0  0  0
    2.8048   14.4781   40.2951 C   0  0  0  0  0  0  0  0  0  0  0  0
    3.9450   18.0588   35.4866 C   0  0  2  0  0  0  0  0  0  0  0  0
    5.1739   17.9240   36.1684 O   0  0  0  0  0  0  0  0  0  0  0  0
   -3.6201   15.0727   41.0465 C   0  0  0  0  0  0  0  0  0  0  0  0
    1.3529   14.8681   40.7927 C   0  0  2  0  0  0  0  0  0  0  0  0
    0.8322   13.7887   41.6326 N   0  0  0  0  0  0  0  0  0  0  0  0
    3.2264   19.3983   35.8877 C   0  0  1  0  0  0  0  0  0  0  0  0
    4.0993   20.5636   35.5348 N   0  0  0  0  0  0  0  0  0  0  0  0
   -3.5382   13.5647   40.5618 C   0  0  0  0  0  0  0  0  0  0  0  0
    0.4165   15.0743   39.5326 C   0  0  2  0  0  0  0  0  0  0  0  0
    1.8246   19.5074   35.0685 C   0  0  1  0  0  0  0  0  0  0  0  0
    1.9990   19.5162   33.6654 O   0  0  0  0  0  0  0  0  0  0  0  0
   -2.9016   13.2301   39.4132 C   0  0  1  0  0  0  0  0  0  0  0  0
   -2.2693   14.1821   38.5622 O   0  0  0  0  0  0  0  0  0  0  0  0
    0.9882   16.2439   38.6276 C   0  0  2  0  0  0  0  0  0  0  0  0
    0.1374   16.4146   37.4755 O   0  0  0  0  0  0  0  0  0  0  0  0
    0.9231   18.2906   35.4351 C   0  0  0  0  0  0  0  0  0  0  0  0
    1.6746   16.9945   35.1852 O   0  0  0  0  0  0  0  0  0  0  0  0
   -2.7951   11.8065   38.9209 C   0  0  0  0  0  0  0  0  0  0  0  0
   -3.4459   11.7665   37.6327 O   0  0  0  0  0  0  0  0  0  0  0  0
    2.4363   15.8567   38.1397 C   0  0  1  0  0  0  0  0  0  0  0  0
    2.9237   16.9095   37.3455 O   0  0  0  0  0  0  0  0  0  0  0  0
    1.0066   20.7699   35.3696 C   0  0  0  0  0  0  0  0  0  0  0  0
    5.1070   20.9546   36.5423 C   0  0  0  0  0  0  0  0  0  0  0  0
  1  2  1  1  0  0  0
  1  6  1  0  0  0  0
  1 21  1  0  0  0  0
  3  4  1  6  0  0  0
  3  8  1  0  0  0  0
  3 28  1  0  0  0  0
  5  9  1  0  0  0  0
  5 25  1  0  0  0  0
  5 29  1  1  0  0  0
  6  7  1  1  0  0  0
  6 11  1  0  0  0  0
  8 12  1  0  0  0  0
  9 10  1  1  0  0  0
  9 14  1  0  0  0  0
 11 16  1  0  0  0  0
 12 13  1  1  0  0  0
 12 17  1  0  0  0  0
 14 15  1  6  0  0  0
 14 18  1  0  0  0  0
 15 31  1  0  0  0  0
 16 20  1  0  0  0  0
 17  2  1  1  0  0  0
 17 22  1  0  0  0  0
 18 19  1  6  0  0  0
 18 24  1  0  0  0  0
 18 30  1  0  0  0  0
 20 21  1  0  0  0  0
 20 26  1  1  0  0  0
 22 23  1  6  0  0  0
 22 28  1  0  0  0  0
 24 25  1  0  0  0  0
 26 27  1  0  0  0  0
 28 29  1  6  0  0  0
M  END
>  <CHROM.1>
-173.67663587,-165.39742659,-85.85134064,-171.69358198,119.50978231,136.59256879
0.78808922,16.37496633,37.95947179,2.29915553,0.11730639,2.36632975

>  <Name>
ligand

>  <RI>
0

>  <Rbt.Current_Directory>
/home/itssahil/PROJECTS/Mol_Feturizer/New_Systems/rnas/4GPY

>  <Rbt.Executable>
rbdock ($Id: //depot/dev/client3/rdock/2013.1/src/exe/rbdock.cxx#4 $)

>  <Rbt.Library>
libRbt.so (2013.1, Build901 2013/11/27)

>  <Rbt.Parameter_File>
/export/apps/rDock/src/rDock_2013.1_src/data/scripts/dock_solv.prm

>  <Rbt.Receptor>
prm/pocket_docking_5.prm

>  <SCORE>
-12.5462

>  <SCORE.INTER>
-10.286

>  <SCORE.INTER.CONST>
1

>  <SCORE.INTER.POLAR>
0

>  <SCORE.INTER.ROT>
6

>  <SCORE.INTER.SOLV>
15.9936

>  <SCORE.INTER.VDW>
-19.7886

>  <SCORE.INTER.norm>
-0.331808

>  <SCORE.INTRA>
-2.26014

>  <SCORE.INTRA.DIHEDRAL>
-5.09407

>  <SCORE.INTRA.DIHEDRAL.0>
14.7001

>  <SCORE.INTRA.POLAR>
0

>  <SCORE.INTRA.POLAR.0>
0

>  <SCORE.INTRA.REPUL>
0

>  <SCORE.INTRA.REPUL.0>
0

>  <SCORE.INTRA.SOLV>
-1.76253

>  <SCORE.INTRA.SOLV.lig_0>
-65.3082

>  <SCORE.INTRA.VDW>
1.16816

>  <SCORE.INTRA.VDW.0>
-4.21408

>  <SCORE.INTRA.norm>
-0.0729078

>  <SCORE.RESTR>
0

>  <SCORE.RESTR.CAVITY>
0

>  <SCORE.RESTR.norm>
0

>  <SCORE.SYSTEM>
0

>  <SCORE.SYSTEM.CONST>
0

>  <SCORE.SYSTEM.DIHEDRAL>
0

>  <SCORE.SYSTEM.SOLV>
0

>  <SCORE.SYSTEM.norm>
0

>  <SCORE.heavy>
31

>  <SCORE.norm>
-0.404715

>  <RMSD>
8.689

$$$$
ligand
 OpenBabel11021811493D
libRbt.so/2013.1/901 2013/11/27
 31 33  0  0  0  0  0  0  0  0999 V2000
   -2.0457   15.7263   39.1281 C   0  0  2  0  0  0  0  0  0  0  0  0
   -0.9269   15.5494   39.9756 O   0  0  0  0  0  0  0  0  0  0  0  0
    3.2587   15.6612   39.2487 C   0  0  2  0  0  0  0  0  0  0  0  0
    4.5411   15.2841   38.7588 N   0  0  0  0  0  0  0  0  0  0  0  0
    2.8717   16.9834   35.7958 C   0  0  2  0  0  0  0  0  0  0  0  0
   -3.2845   16.1559   40.0275 C   0  0  2  0  0  0  0  0  0  0  0  0
   -2.9489   17.3764   40.7530 N   0  0  0  0  0  0  0  0  0  0  0  0
    2.6885   14.4607   40.1281 C   0  0  0  0  0  0  0  0  0  0  0  0
    3.8421   18.1525   35.4180 C   0  0  2  0  0  0  0  0  0  0  0  0
    5.0775   17.9433   36.0686 O   0  0  0  0  0  0  0  0  0  0  0  0
   -3.6773   14.9978   41.0167 C   0  0  0  0  0  0  0  0  0  0  0  0
    1.2693   14.8871   40.6862 C   0  0  2  0  0  0  0  0  0  0  0  0
    0.7337   13.7986   41.5048 N   0  0  0  0  0  0  0  0  0  0  0  0
    3.1912   19.5085   35.8753 C   0  0  1  0  0  0  0  0  0  0  0  0
    4.1071   20.6455   35.5392 N   0  0  0  0  0  0  0  0  0  0  0  0
   -3.5740   13.5734   40.3266 C   0  0  0  0  0  0  0  0  0  0  0  0
    0.3025   15.1737   39.4655 C   0  0  2  0  0  0  0  0  0  0  0  0
    1.7793   19.7038   35.0902 C   0  0  1  0  0  0  0  0  0  0  0  0
    1.9255   19.7492   33.6845 O   0  0  0  0  0  0  0  0  0  0  0  0
   -2.9521   13.4151   39.1330 C   0  0  1  0  0  0  0  0  0  0  0  0
   -2.3548   14.4894   38.4124 O   0  0  0  0  0  0  0  0  0  0  0  0
    0.8905   16.3527   38.5835 C   0  0  2  0  0  0  0  0  0  0  0  0
    0.0112   16.5967   37.4665 O   0  0  0  0  0  0  0  0  0  0  0  0
    0.8329   18.5162   35.4389 C   0  0  0  0  0  0  0  0  0  0  0  0
    1.5215   17.1973   35.1333 O   0  0  0  0  0  0  0  0  0  0  0  0
   -2.8261   12.0759   38.4468 C   0  0  0  0  0  0  0  0  0  0  0  0
   -1.4163   11.7669   38.4022 O   0  0  0  0  0  0  0  0  0  0  0  0
    2.3063   15.9289   38.0351 C   0  0  1  0  0  0  0  0  0  0  0  0
    2.8092   16.9905   37.2625 O   0  0  0  0  0  0  0  0  0  0  0  0
    1.0237   20.9905   35.4473 C   0  0  0  0  0  0  0  0  0  0  0  0
    5.1029   21.0092   36.5686 C   0  0  0  0  0  0  0  0  0  0  0  0
  1  2  1  1  0  0  0
  1  6  1  0  0  0  0
  1 21  1  0  0  0  0
  3  4  1  6  0  0  0
  3  8  1  0  0  0  0
  3 28  1  0  0  0  0
  5  9  1  0  0  0  0
  5 25  1  0  0  0  0
  5 29  1  1  0  0  0
  6  7  1  1  0  0  0
  6 11  1  0  0  0  0
  8 12  1  0  0  0  0
  9 10  1  1  0  0  0
  9 14  1  0  0  0  0
 11 16  1  0  0  0  0
 12 13  1  1  0  0  0
 12 17  1  0  0  0  0
 14 15  1  6  0  0  0
 14 18  1  0  0  0  0
 15 31  1  0  0  0  0
 16 20  1  0  0  0  0
 17  2  1  1  0  0  0
 17 22  1  0  0  0  0
 18 19  1  6  0  0  0
 18 24  1  0  0  0  0
 18 30  1  0  0  0  0
 20 21  1  0  0  0  0
 20 26  1  1  0  0  0
 22 23  1  6  0  0  0
 22 28  1  0  0  0  0
 24 25  1  0  0  0  0
 26 27  1  0  0  0  0
 28 29  1  6  0  0  0
M  END
>  <CHROM.1>
-179.90730879,-164.63100927,-89.12682562,-172.83975893,-115.41473382,135.75976546
0.78190846,16.47951722,37.92449568,2.26213001,-0.01654931,2.46921626

>  <Name>
ligand

>  <RI>
0

>  <Rbt.Current_Directory>
/home/itssahil/PROJECTS/Mol_Feturizer/New_Systems/rnas/4GPY

>  <Rbt.Executable>
rbdock ($Id: //depot/dev/client3/rdock/2013.1/src/exe/rbdock.cxx#4 $)

>  <Rbt.Library>
libRbt.so (2013.1, Build901 2013/11/27)

>  <Rbt.Parameter_File>
/export/apps/rDock/src/rDock_2013.1_src/data/scripts/dock_solv.prm

>  <Rbt.Receptor>
prm/pocket_docking_5.prm

>  <SCORE>
-13.1154

>  <SCORE.INTER>
-10.6594

>  <SCORE.INTER.CONST>
1

>  <SCORE.INTER.POLAR>
0

>  <SCORE.INTER.ROT>
6

>  <SCORE.INTER.SOLV>
14.6038

>  <SCORE.INTER.VDW>
-19.5742

>  <SCORE.INTER.norm>
-0.343852

>  <SCORE.INTRA>
-2.45604

>  <SCORE.INTRA.DIHEDRAL>
-5.02579

>  <SCORE.INTRA.DIHEDRAL.0>
14.7001

>  <SCORE.INTRA.POLAR>
0

>  <SCORE.INTRA.POLAR.0>
0

>  <SCORE.INTRA.REPUL>
0

>  <SCORE.INTRA.REPUL.0>
0

>  <SCORE.INTRA.SOLV>
-1.61656

>  <SCORE.INTRA.SOLV.lig_0>
-65.3082

>  <SCORE.INTRA.VDW>
0.865136

>  <SCORE.INTRA.VDW.0>
-4.21408

>  <SCORE.INTRA.norm>
-0.079227

>  <SCORE.RESTR>
0

>  <SCORE.RESTR.CAVITY>
0

>  <SCORE.RESTR.norm>
0

>  <SCORE.SYSTEM>
0

>  <SCORE.SYSTEM.CONST>
0

>  <SCORE.SYSTEM.DIHEDRAL>
0

>  <SCORE.SYSTEM.SOLV>
0

>  <SCORE.SYSTEM.norm>
0

>  <SCORE.heavy>
31

>  <SCORE.norm>
-0.423079

>  <RMSD>
8.694

$$$$
ligand
 OpenBabel11021811493D
libRbt.so/2013.1/901 2013/11/27
 31 33  0  0  0  0  0  0  0  0999 V2000
    4.6011   12.6102   36.7792 C   0  0  2  0  0  0  0  0  0  0  0  0
    3.1899   12.6808   36.8485 O   0  0  0  0  0  0  0  0  0  0  0  0
    0.8506   16.2245   37.0235 C   0  0  2  0  0  0  0  0  0  0  0  0
    0.1676   17.3502   37.5649 N   0  0  0  0  0  0  0  0  0  0  0  0
    2.9824   17.7129   35.2925 C   0  0  2  0  0  0  0  0  0  0  0  0
    5.0105   11.0876   36.5736 C   0  0  2  0  0  0  0  0  0  0  0  0
    4.3768   10.5811   35.3609 N   0  0  0  0  0  0  0  0  0  0  0  0
    0.2601   14.9094   37.7029 C   0  0  0  0  0  0  0  0  0  0  0  0
    3.7894   19.0420   35.1097 C   0  0  2  0  0  0  0  0  0  0  0  0
    5.0318   18.9111   35.7675 O   0  0  0  0  0  0  0  0  0  0  0  0
    4.6013   10.2310   37.8277 C   0  0  0  0  0  0  0  0  0  0  0  0
    1.0088   13.6565   37.0885 C   0  0  2  0  0  0  0  0  0  0  0  0
    0.4724   12.4376   37.6953 N   0  0  0  0  0  0  0  0  0  0  0  0
    2.9523   20.2223   35.7242 C   0  0  1  0  0  0  0  0  0  0  0  0
    3.7092   21.5068   35.5767 N   0  0  0  0  0  0  0  0  0  0  0  0
    4.8610   11.0112   39.1840 C   0  0  0  0  0  0  0  0  0  0  0  0
    2.5566   13.7805   37.3984 C   0  0  2  0  0  0  0  0  0  0  0  0
    1.5390   20.3347   34.9255 C   0  0  1  0  0  0  0  0  0  0  0  0
    1.6990   20.5940   33.5447 O   0  0  0  0  0  0  0  0  0  0  0  0
    5.1317   12.3391   39.1892 C   0  0  1  0  0  0  0  0  0  0  0  0
    5.2070   13.1278   38.0050 O   0  0  0  0  0  0  0  0  0  0  0  0
    3.1292   15.1038   36.7391 C   0  0  2  0  0  0  0  0  0  0  0  0
    4.5357   15.2157   37.0387 O   0  0  0  0  0  0  0  0  0  0  0  0
    0.7587   18.9947   35.0777 C   0  0  0  0  0  0  0  0  0  0  0  0
    1.6259   17.8347   34.6197 O   0  0  0  0  0  0  0  0  0  0  0  0
    5.3774   13.1196   40.4584 C   0  0  0  0  0  0  0  0  0  0  0  0
    6.5232   13.9619   40.2086 O   0  0  0  0  0  0  0  0  0  0  0  0
    2.3775   16.3490   37.3467 C   0  0  1  0  0  0  0  0  0  0  0  0
    2.8973   17.5079   36.7436 O   0  0  0  0  0  0  0  0  0  0  0  0
    0.6093   21.4469   35.4279 C   0  0  0  0  0  0  0  0  0  0  0  0
    4.6557   21.8365   36.6624 C   0  0  0  0  0  0  0  0  0  0  0  0
  1  2  1  1  0  0  0
  1  6  1  0  0  0  0
  1 21  1  0  0  0  0
  3  4  1  1  0  0  0
  3  8  1  0  0  0  0
  3 28  1  0  0  0  0
  5  9  1  0  0  0  0
  5 25  1  0  0  0  0
  5 29  1  1  0  0  0
  6  7  1  6  0  0  0
  6 11  1  0  0  0  0
  8 12  1  0  0  0  0
  9 10  1  1  0  0  0
  9 14  1  0  0  0  0
 11 16  1  0  0  0  0
 12 13  1  1  0  0  0
 12 17  1  0  0  0  0
 14 15  1  6  0  0  0
 14 18  1  0  0  0  0
 15 31  1  0  0  0  0
 16 20  1  0  0  0  0
 17  2  1  6  0  0  0
 17 22  1  0  0  0  0
 18 19  1  6  0  0  0
 18 24  1  0  0  0  0
 18 30  1  0  0  0  0
 20 21  1  0  0  0  0
 20 26  1  1  0  0  0
 22 23  1  1  0  0  0
 22 28  1  0  0  0  0
 24 25  1  0  0  0  0
 26 27  1  0  0  0  0
 28 29  1  6  0  0  0
M  END
>  <CHROM.1>
161.10361057,-172.77834588,-87.61580482,170.10371304,135.53703321,-65.31010768
3.14345166,15.89582742,36.78971265,-1.32436270,-0.32767635,-0.23715978

>  <Name>
ligand

>  <RI>
0

>  <Rbt.Current_Directory>
/home/itssahil/PROJECTS/Mol_Feturizer/New_Systems/rnas/4GPY

>  <Rbt.Executable>
rbdock ($Id: //depot/dev/client3/rdock/2013.1/src/exe/rbdock.cxx#4 $)

>  <Rbt.Library>
libRbt.so (2013.1, Build901 2013/11/27)

>  <Rbt.Parameter_File>
/export/apps/rDock/src/rDock_2013.1_src/data/scripts/dock_solv.prm

>  <Rbt.Receptor>
prm/blind_docking_100.prm

>  <SCORE>
-5.82399

>  <SCORE.INTER>
-7.77273

>  <SCORE.INTER.CONST>
1

>  <SCORE.INTER.POLAR>
0

>  <SCORE.INTER.ROT>
6

>  <SCORE.INTER.SOLV>
16.8865

>  <SCORE.INTER.VDW>
-18.4106

>  <SCORE.INTER.norm>
-0.250733

>  <SCORE.INTRA>
-1.22413

>  <SCORE.INTRA.DIHEDRAL>
-9.69624

>  <SCORE.INTRA.DIHEDRAL.0>
14.7001

>  <SCORE.INTRA.POLAR>
0

>  <SCORE.INTRA.POLAR.0>
0

>  <SCORE.INTRA.REPUL>
0

>  <SCORE.INTRA.REPUL.0>
0

>  <SCORE.INTRA.SOLV>
-0.220664

>  <SCORE.INTRA.SOLV.lig_0>
-65.3082

>  <SCORE.INTRA.VDW>
3.73432

>  <SCORE.INTRA.VDW.0>
-4.21408

>  <SCORE.INTRA.norm>
-0.0394881

>  <SCORE.RESTR>
3.17288

>  <SCORE.RESTR.CAVITY>
3.17288

>  <SCORE.RESTR.norm>
0.102351

>  <SCORE.SYSTEM>
0

>  <SCORE.SYSTEM.CONST>
0

>  <SCORE.SYSTEM.DIHEDRAL>
0

>  <SCORE.SYSTEM.SOLV>
0

>  <SCORE.SYSTEM.norm>
0

>  <SCORE.heavy>
31

>  <SCORE.norm>
-0.187871

>  <RMSD>
8.703

$$$$
ligand
 OpenBabel11021811493D
libRbt.so/2013.1/901 2013/11/27
 31 33  0  0  0  0  0  0  0  0999 V2000
    4.1882   13.5436   37.1251 C   0  0  2  0  0  0  0  0  0  0  0  0
    2.8269   13.7797   37.4293 O   0  0  0  0  0  0  0  0  0  0  0  0
    0.4076   17.2409   37.9063 C   0  0  2  0  0  0  0  0  0  0  0  0
   -0.0614   18.4842   38.4172 N   0  0  0  0  0  0  0  0  0  0  0  0
    1.4075   19.7661   36.4049 C   0  0  2  0  0  0  0  0  0  0  0  0
    4.3906   11.9767   36.9471 C   0  0  2  0  0  0  0  0  0  0  0  0
    3.5028   11.4960   35.8937 N   0  0  0  0  0  0  0  0  0  0  0  0
    0.4530   16.1942   39.1071 C   0  0  0  0  0  0  0  0  0  0  0  0
    0.6294   20.1149   35.0918 C   0  0  2  0  0  0  0  0  0  0  0  0
   -0.4411   19.2062   34.9453 O   0  0  0  0  0  0  0  0  0  0  0  0
    4.1199   11.2268   38.3030 C   0  0  0  0  0  0  0  0  0  0  0  0
    0.9591   14.8070   38.5351 C   0  0  2  0  0  0  0  0  0  0  0  0
    0.9986   13.8298   39.6238 N   0  0  0  0  0  0  0  0  0  0  0  0
    1.6242   20.0080   33.8792 C   0  0  1  0  0  0  0  0  0  0  0  0
    0.9012   20.3223   32.6053 N   0  0  0  0  0  0  0  0  0  0  0  0
    4.6961   12.0284   39.5445 C   0  0  0  0  0  0  0  0  0  0  0  0
    2.4083   15.0002   37.9273 C   0  0  2  0  0  0  0  0  0  0  0  0
    2.8296   21.0800   34.0934 C   0  0  1  0  0  0  0  0  0  0  0  0
    2.3785   22.4183   34.1631 O   0  0  0  0  0  0  0  0  0  0  0  0
    5.1032   13.3152   39.4215 C   0  0  1  0  0  0  0  0  0  0  0  0
    5.0522   14.0391   38.1954 O   0  0  0  0  0  0  0  0  0  0  0  0
    2.3569   16.0610   36.7500 C   0  0  2  0  0  0  0  0  0  0  0  0
    3.6831   16.2413   36.2124 O   0  0  0  0  0  0  0  0  0  0  0  0
    3.5745   20.7519   35.4219 C   0  0  0  0  0  0  0  0  0  0  0  0
    2.5857   20.7100   36.5742 O   0  0  0  0  0  0  0  0  0  0  0  0
    5.6505   14.1149   40.5796 C   0  0  0  0  0  0  0  0  0  0  0  0
    4.8961   15.3452   40.6235 O   0  0  0  0  0  0  0  0  0  0  0  0
    1.8459   17.4389   37.3203 C   0  0  1  0  0  0  0  0  0  0  0  0
    1.8031   18.3600   36.2588 O   0  0  0  0  0  0  0  0  0  0  0  0
    3.8875   21.0805   32.9821 C   0  0  0  0  0  0  0  0  0  0  0  0
   -0.0876   21.4185   32.6679 C   0  0  0  0  0  0  0  0  0  0  0  0
  1  2  1  1  0  0  0
  1  6  1  0  0  0  0
  1 21  1  0  0  0  0
  3  4  1  1  0  0  0
  3  8  1  0  0  0  0
  3 28  1  0  0  0  0
  5  9  1  0  0  0  0
  5 25  1  0  0  0  0
  5 29  1  6  0  0  0
  6  7  1  6  0  0  0
  6 11  1  0  0  0  0
  8 12  1  0  0  0  0
  9 10  1  6  0  0  0
  9 14  1  0  0  0  0
 11 16  1  0  0  0  0
 12 13  1  1  0  0  0
 12 17  1  0  0  0  0
 14 15  1  6  0  0  0
 14 18  1  0  0  0  0
 15 31  1  0  0  0  0
 16 20  1  0  0  0  0
 17  2  1  6  0  0  0
 17 22  1  0  0  0  0
 18 19  1  1  0  0  0
 18 24  1  0  0  0  0
 18 30  1  0  0  0  0
 20 21  1  0  0  0  0
 20 26  1  1  0  0  0
 22 23  1  1  0  0  0
 22 28  1  0  0  0  0
 24 25  1  0  0  0  0
 26 27  1  0  0  0  0
 28 29  1  6  0  0  0
M  END
>  <CHROM.1>
165.45997106,-144.00612268,39.10177563,-164.17610980,-127.89783929,63.08157967
2.54761715,16.85833045,36.79326500,-1.26297706,0.51824822,-0.67345747

>  <Name>
ligand

>  <RI>
0

>  <Rbt.Current_Directory>
/home/itssahil/PROJECTS/Mol_Feturizer/New_Systems/rnas/4GPY

>  <Rbt.Executable>
rbdock ($Id: //depot/dev/client3/rdock/2013.1/src/exe/rbdock.cxx#4 $)

>  <Rbt.Library>
libRbt.so (2013.1, Build901 2013/11/27)

>  <Rbt.Parameter_File>
/export/apps/rDock/src/rDock_2013.1_src/data/scripts/dock_solv.prm

>  <Rbt.Receptor>
prm/blind_docking_80.prm

>  <SCORE>
4.83684

>  <SCORE.INTER>
1.62866

>  <SCORE.INTER.CONST>
1

>  <SCORE.INTER.POLAR>
0

>  <SCORE.INTER.ROT>
6

>  <SCORE.INTER.SOLV>
19.2497

>  <SCORE.INTER.VDW>
-12.9308

>  <SCORE.INTER.norm>
0.0525375

>  <SCORE.INTRA>
0.643242

>  <SCORE.INTRA.DIHEDRAL>
-5.68717

>  <SCORE.INTRA.DIHEDRAL.0>
14.7001

>  <SCORE.INTRA.POLAR>
0

>  <SCORE.INTRA.POLAR.0>
0

>  <SCORE.INTRA.REPUL>
0

>  <SCORE.INTRA.REPUL.0>
0

>  <SCORE.INTRA.SOLV>
0.164595

>  <SCORE.INTRA.SOLV.lig_0>
-65.3082

>  <SCORE.INTRA.VDW>
3.40453

>  <SCORE.INTRA.VDW.0>
-4.21408

>  <SCORE.INTRA.norm>
0.0207497

>  <SCORE.RESTR>
2.56493

>  <SCORE.RESTR.CAVITY>
2.56493

>  <SCORE.RESTR.norm>
0.0827397

>  <SCORE.SYSTEM>
0

>  <SCORE.SYSTEM.CONST>
0

>  <SCORE.SYSTEM.DIHEDRAL>
0

>  <SCORE.SYSTEM.SOLV>
0

>  <SCORE.SYSTEM.norm>
0

>  <SCORE.heavy>
31

>  <SCORE.norm>
0.156027

>  <RMSD>
8.743

$$$$
ligand
 OpenBabel11021811493D
libRbt.so/2013.1/901 2013/11/27
 31 33  0  0  0  0  0  0  0  0999 V2000
   -1.0302   10.2929   39.7579 C   0  0  2  0  0  0  0  0  0  0  0  0
   -0.1646    9.1743   39.7868 O   0  0  0  0  0  0  0  0  0  0  0  0
    4.0593    8.9213   39.3937 C   0  0  2  0  0  0  0  0  0  0  0  0
    5.3491    8.9336   38.7911 N   0  0  0  0  0  0  0  0  0  0  0  0
    5.4447   11.8295   39.3474 C   0  0  2  0  0  0  0  0  0  0  0  0
   -2.3336    9.9313   40.5937 C   0  0  2  0  0  0  0  0  0  0  0  0
   -1.9460    9.5740   41.9541 N   0  0  0  0  0  0  0  0  0  0  0  0
    3.1766    7.8164   38.6589 C   0  0  0  0  0  0  0  0  0  0  0  0
    5.7352   13.1177   40.1883 C   0  0  2  0  0  0  0  0  0  0  0  0
    5.7532   12.7704   41.5566 O   0  0  0  0  0  0  0  0  0  0  0  0
   -3.1257    8.7606   39.9037 C   0  0  0  0  0  0  0  0  0  0  0  0
    1.7474    7.7917   39.3404 C   0  0  2  0  0  0  0  0  0  0  0  0
    0.9249    6.7751   38.6832 N   0  0  0  0  0  0  0  0  0  0  0  0
    4.6063   14.1712   39.8931 C   0  0  1  0  0  0  0  0  0  0  0  0
    4.8511   15.4109   40.6979 N   0  0  0  0  0  0  0  0  0  0  0  0
   -3.1352    8.9068   38.3243 C   0  0  0  0  0  0  0  0  0  0  0  0
    1.0776    9.2175   39.1804 C   0  0  2  0  0  0  0  0  0  0  0  0
    4.6362   14.5424   38.3090 C   0  0  1  0  0  0  0  0  0  0  0  0
    5.8661   15.1013   37.8914 O   0  0  0  0  0  0  0  0  0  0  0  0
   -2.3145    9.7829   37.6955 C   0  0  1  0  0  0  0  0  0  0  0  0
   -1.3974   10.6291   38.3832 O   0  0  0  0  0  0  0  0  0  0  0  0
    1.9753   10.3126   39.8935 C   0  0  2  0  0  0  0  0  0  0  0  0
    1.3652   11.6094   39.7301 O   0  0  0  0  0  0  0  0  0  0  0  0
    4.3865   13.2491   37.4768 C   0  0  0  0  0  0  0  0  0  0  0  0
    5.3891   12.1779   37.8698 O   0  0  0  0  0  0  0  0  0  0  0  0
   -2.2878    9.9470   36.1946 C   0  0  0  0  0  0  0  0  0  0  0  0
   -0.9683    9.5530   35.7606 O   0  0  0  0  0  0  0  0  0  0  0  0
    3.3997   10.3303   39.2185 C   0  0  1  0  0  0  0  0  0  0  0  0
    4.1780   11.3031   39.8703 O   0  0  0  0  0  0  0  0  0  0  0  0
    3.5748   15.5606   37.8724 C   0  0  0  0  0  0  0  0  0  0  0  0
    3.8610   15.7121   41.7526 C   0  0  0  0  0  0  0  0  0  0  0  0
  1  2  1  6  0  0  0
  1  6  1  0  0  0  0
  1 21  1  0  0  0  0
  3  4  1  6  0  0  0
  3  8  1  0  0  0  0
  3 28  1  0  0  0  0
  5  9  1  0  0  0  0
  5 25  1  0  0  0  0
  5 29  1  1  0  0  0
  6  7  1  1  0  0  0
  6 11  1  0  0  0  0
  8 12  1  0  0  0  0
  9 10  1  1  0  0  0
  9 14  1  0  0  0  0
 11 16  1  0  0  0  0
 12 13  1  6  0  0  0
 12 17  1  0  0  0  0
 14 15  1  1  0  0  0
 14 18  1  0  0  0  0
 15 31  1  0  0  0  0
 16 20  1  0  0  0  0
 17  2  1  1  0  0  0
 17 22  1  0  0  0  0
 18 19  1  6  0  0  0
 18 24  1  0  0  0  0
 18 30  1  0  0  0  0
 20 21  1  0  0  0  0
 20 26  1  6  0  0  0
 22 23  1  6  0  0  0
 22 28  1  0  0  0  0
 24 25  1  0  0  0  0
 26 27  1  0  0  0  0
 28 29  1  1  0  0  0
M  END
>  <CHROM.1>
-177.57164969,165.43948927,-113.36686224,-177.32345375,-116.69814478,75.88346932
2.03381951,11.10713354,39.14755713,2.52162811,0.05280633,-3.07409050

>  <Name>
ligand

>  <RI>
0

>  <Rbt.Current_Directory>
/home/itssahil/PROJECTS/Mol_Feturizer/New_Systems/rnas/4GPY

>  <Rbt.Executable>
rbdock ($Id: //depot/dev/client3/rdock/2013.1/src/exe/rbdock.cxx#4 $)

>  <Rbt.Library>
libRbt.so (2013.1, Build901 2013/11/27)

>  <Rbt.Parameter_File>
/export/apps/rDock/src/rDock_2013.1_src/data/scripts/dock_solv.prm

>  <Rbt.Receptor>
prm/pocket_docking_7.prm

>  <SCORE>
-9.21371

>  <SCORE.INTER>
-4.59315

>  <SCORE.INTER.CONST>
1

>  <SCORE.INTER.POLAR>
0

>  <SCORE.INTER.ROT>
6

>  <SCORE.INTER.SOLV>
7.02374

>  <SCORE.INTER.VDW>
-13.0033

>  <SCORE.INTER.norm>
-0.148166

>  <SCORE.INTRA>
-4.62188

>  <SCORE.INTRA.DIHEDRAL>
-9.5985

>  <SCORE.INTRA.DIHEDRAL.0>
14.7001

>  <SCORE.INTRA.POLAR>
0

>  <SCORE.INTRA.POLAR.0>
0

>  <SCORE.INTRA.REPUL>
0

>  <SCORE.INTRA.REPUL.0>
0

>  <SCORE.INTRA.SOLV>
-1.44915

>  <SCORE.INTRA.SOLV.lig_0>
-65.3082

>  <SCORE.INTRA.VDW>
0.90194

>  <SCORE.INTRA.VDW.0>
-4.21408

>  <SCORE.INTRA.norm>
-0.149093

>  <SCORE.RESTR>
0.00131972

>  <SCORE.RESTR.CAVITY>
0.00131972

>  <SCORE.RESTR.norm>
4.25717e-05

>  <SCORE.SYSTEM>
0

>  <SCORE.SYSTEM.CONST>
0

>  <SCORE.SYSTEM.DIHEDRAL>
0

>  <SCORE.SYSTEM.SOLV>
0

>  <SCORE.SYSTEM.norm>
0

>  <SCORE.heavy>
31

>  <SCORE.norm>
-0.297216

>  <RMSD>
8.747

$$$$
ligand
 OpenBabel11021811493D
libRbt.so/2013.1/901 2013/11/27
 31 33  0  0  0  0  0  0  0  0999 V2000
    4.9326   12.7811   37.2325 C   0  0  2  0  0  0  0  0  0  0  0  0
    3.5331   12.9516   37.3499 O   0  0  0  0  0  0  0  0  0  0  0  0
    1.2409   16.5263   37.5149 C   0  0  2  0  0  0  0  0  0  0  0  0
    0.6545   17.7158   38.0327 N   0  0  0  0  0  0  0  0  0  0  0  0
    3.0584   17.7706   35.2883 C   0  0  2  0  0  0  0  0  0  0  0  0
    5.2463   11.2229   37.2751 C   0  0  2  0  0  0  0  0  0  0  0  0
    4.5215   10.5592   36.1967 N   0  0  0  0  0  0  0  0  0  0  0  0
    0.7806   15.3050   38.4293 C   0  0  0  0  0  0  0  0  0  0  0  0
    3.7175   19.1166   34.8356 C   0  0  2  0  0  0  0  0  0  0  0  0
    5.0494   19.1478   35.3027 O   0  0  0  0  0  0  0  0  0  0  0  0
    4.8586   10.6190   38.6747 C   0  0  0  0  0  0  0  0  0  0  0  0
    1.4199   13.9800   37.8434 C   0  0  2  0  0  0  0  0  0  0  0  0
    1.0001   12.8452   38.6666 N   0  0  0  0  0  0  0  0  0  0  0  0
    2.8852   20.3068   35.4375 C   0  0  1  0  0  0  0  0  0  0  0  0
    3.5037   21.6097   35.0321 N   0  0  0  0  0  0  0  0  0  0  0  0
    5.2332   11.6001   39.8635 C   0  0  0  0  0  0  0  0  0  0  0  0
    2.9972   14.1154   37.8707 C   0  0  2  0  0  0  0  0  0  0  0  0
    1.3656   20.2289   34.8605 C   0  0  1  0  0  0  0  0  0  0  0  0
    1.2994   20.3269   33.4515 O   0  0  0  0  0  0  0  0  0  0  0  0
    5.5762   12.8898   39.6278 C   0  0  1  0  0  0  0  0  0  0  0  0
    5.6310   13.4598   38.3231 O   0  0  0  0  0  0  0  0  0  0  0  0
    3.4434   15.3474   36.9780 C   0  0  2  0  0  0  0  0  0  0  0  0
    4.8797   15.4718   37.0206 O   0  0  0  0  0  0  0  0  0  0  0  0
    0.7292   18.8701   35.2804 C   0  0  0  0  0  0  0  0  0  0  0  0
    1.6124   17.7212   34.8252 O   0  0  0  0  0  0  0  0  0  0  0  0
    5.9323   13.8571   40.7313 C   0  0  0  0  0  0  0  0  0  0  0  0
    5.0221   14.9715   40.6117 O   0  0  0  0  0  0  0  0  0  0  0  0
    2.7999   16.6641   37.5588 C   0  0  1  0  0  0  0  0  0  0  0  0
    3.2042   17.7398   36.7487 O   0  0  0  0  0  0  0  0  0  0  0  0
    0.4311   21.3320   35.3743 C   0  0  0  0  0  0  0  0  0  0  0  0
    3.7693   21.7866   33.5893 C   0  0  0  0  0  0  0  0  0  0  0  0
  1  2  1  1  0  0  0
  1  6  1  0  0  0  0
  1 21  1  0  0  0  0
  3  4  1  1  0  0  0
  3  8  1  0  0  0  0
  3 28  1  0  0  0  0
  5  9  1  0  0  0  0
  5 25  1  0  0  0  0
  5 29  1  1  0  0  0
  6  7  1  6  0  0  0
  6 11  1  0  0  0  0
  8 12  1  0  0  0  0
  9 10  1  1  0  0  0
  9 14  1  0  0  0  0
 11 16  1  0  0  0  0
 12 13  1  1  0  0  0
 12 17  1  0  0  0  0
 14 15  1  6  0  0  0
 14 18  1  0  0  0  0
 15 31  1  0  0  0  0
 16 20  1  0  0  0  0
 17  2  1  6  0  0  0
 17 22  1  0  0  0  0
 18 19  1  6  0  0  0
 18 24  1  0  0  0  0
 18 30  1  0  0  0  0
 20 21  1  0  0  0  0
 20 26  1  1  0  0  0
 22 23  1  1  0  0  0
 22 28  1  0  0  0  0
 24 25  1  0  0  0  0
 26 27  1  0  0  0  0
 28 29  1  6  0  0  0
M  END
>  <CHROM.1>
153.80930242,-176.84875492,51.37992889,179.37952154,-122.67234096,-66.23142549
3.25547469,16.12594446,36.94915260,-1.30632621,0.03681410,-0.45781904

>  <Name>
ligand

>  <RI>
0

>  <Rbt.Current_Directory>
/home/itssahil/PROJECTS/Mol_Feturizer/New_Systems/rnas/4GPY

>  <Rbt.Executable>
rbdock ($Id: //depot/dev/client3/rdock/2013.1/src/exe/rbdock.cxx#4 $)

>  <Rbt.Library>
libRbt.so (2013.1, Build901 2013/11/27)

>  <Rbt.Parameter_File>
/export/apps/rDock/src/rDock_2013.1_src/data/scripts/dock_solv.prm

>  <Rbt.Receptor>
prm/blind_docking_80.prm

>  <SCORE>
-6.73078

>  <SCORE.INTER>
-9.0673

>  <SCORE.INTER.CONST>
1

>  <SCORE.INTER.POLAR>
0

>  <SCORE.INTER.ROT>
6

>  <SCORE.INTER.SOLV>
14.8797

>  <SCORE.INTER.VDW>
-18.6048

>  <SCORE.INTER.norm>
-0.292493

>  <SCORE.INTRA>
-0.545087

>  <SCORE.INTRA.DIHEDRAL>
-9.81412

>  <SCORE.INTRA.DIHEDRAL.0>
14.7001

>  <SCORE.INTRA.POLAR>
0

>  <SCORE.INTRA.POLAR.0>
0

>  <SCORE.INTRA.REPUL>
0

>  <SCORE.INTRA.REPUL.0>
0

>  <SCORE.INTRA.SOLV>
0.721906

>  <SCORE.INTRA.SOLV.lig_0>
-65.3082

>  <SCORE.INTRA.VDW>
4.00102

>  <SCORE.INTRA.VDW.0>
-4.21408

>  <SCORE.INTRA.norm>
-0.0175835

>  <SCORE.RESTR>
2.88161

>  <SCORE.RESTR.CAVITY>
2.88161

>  <SCORE.RESTR.norm>
0.092955

>  <SCORE.SYSTEM>
0

>  <SCORE.SYSTEM.CONST>
0

>  <SCORE.SYSTEM.DIHEDRAL>
0

>  <SCORE.SYSTEM.SOLV>
0

>  <SCORE.SYSTEM.norm>
0

>  <SCORE.heavy>
31

>  <SCORE.norm>
-0.217122

>  <RMSD>
8.753

$$$$
ligand
 OpenBabel11021811493D
libRbt.so/2013.1/901 2013/11/27
 31 33  0  0  0  0  0  0  0  0999 V2000
    5.8763   13.1982   38.2873 C   0  0  2  0  0  0  0  0  0  0  0  0
    4.9569   13.3017   37.2171 O   0  0  0  0  0  0  0  0  0  0  0  0
    1.4886   15.4917   36.1060 C   0  0  2  0  0  0  0  0  0  0  0  0
    0.2494   16.1829   36.2227 N   0  0  0  0  0  0  0  0  0  0  0  0
    2.8067   17.8802   35.0397 C   0  0  2  0  0  0  0  0  0  0  0  0
    5.5810   11.8424   39.0636 C   0  0  2  0  0  0  0  0  0  0  0  0
    5.6949   10.7239   38.1339 N   0  0  0  0  0  0  0  0  0  0  0  0
    1.2872   14.0111   36.6599 C   0  0  0  0  0  0  0  0  0  0  0  0
    3.6807   19.1767   34.9592 C   0  0  2  0  0  0  0  0  0  0  0  0
    4.9311   18.9176   35.5612 O   0  0  0  0  0  0  0  0  0  0  0  0
    4.1558   11.8850   39.7279 C   0  0  0  0  0  0  0  0  0  0  0  0
    2.6614   13.2376   36.5147 C   0  0  2  0  0  0  0  0  0  0  0  0
    2.4926   11.8713   37.0110 N   0  0  0  0  0  0  0  0  0  0  0  0
    2.9268   20.3338   35.7103 C   0  0  1  0  0  0  0  0  0  0  0  0
    3.7492   21.5852   35.6621 N   0  0  0  0  0  0  0  0  0  0  0  0
    3.8357   13.3111   40.3440 C   0  0  0  0  0  0  0  0  0  0  0  0
    3.7663   13.9901   37.3633 C   0  0  2  0  0  0  0  0  0  0  0  0
    1.5009   20.5972   34.9717 C   0  0  1  0  0  0  0  0  0  0  0  0
    1.6379   20.9808   33.6177 O   0  0  0  0  0  0  0  0  0  0  0  0
    4.6050   14.3890   40.0562 C   0  0  1  0  0  0  0  0  0  0  0  0
    5.7414   14.3336   39.1985 O   0  0  0  0  0  0  0  0  0  0  0  0
    3.9418   15.4693   36.8202 C   0  0  2  0  0  0  0  0  0  0  0  0
    4.9390   16.1512   37.6081 O   0  0  0  0  0  0  0  0  0  0  0  0
    0.6523   19.2914   35.0200 C   0  0  0  0  0  0  0  0  0  0  0  0
    1.4414   18.1377   34.4255 O   0  0  0  0  0  0  0  0  0  0  0  0
    4.3299   15.7642   40.6160 C   0  0  0  0  0  0  0  0  0  0  0  0
    2.8978   15.9446   40.5799 O   0  0  0  0  0  0  0  0  0  0  0  0
    2.5708   16.2349   36.9590 C   0  0  1  0  0  0  0  0  0  0  0  0
    2.7494   17.5397   36.4665 O   0  0  0  0  0  0  0  0  0  0  0  0
    0.6478   21.7024   35.6077 C   0  0  0  0  0  0  0  0  0  0  0  0
    4.9463   21.6148   36.5279 C   0  0  0  0  0  0  0  0  0  0  0  0
  1  2  1  6  0  0  0
  1  6  1  0  0  0  0
  1 21  1  0  0  0  0
  3  4  1  1  0  0  0
  3  8  1  0  0  0  0
  3 28  1  0  0  0  0
  5  9  1  0  0  0  0
  5 25  1  0  0  0  0
  5 29  1  1  0  0  0
  6  7  1  6  0  0  0
  6 11  1  0  0  0  0
  8 12  1  0  0  0  0
  9 10  1  1  0  0  0
  9 14  1  0  0  0  0
 11 16  1  0  0  0  0
 12 13  1  1  0  0  0
 12 17  1  0  0  0  0
 14 15  1  6  0  0  0
 14 18  1  0  0  0  0
 15 31  1  0  0  0  0
 16 20  1  0  0  0  0
 17  2  1  6  0  0  0
 17 22  1  0  0  0  0
 18 19  1  6  0  0  0
 18 24  1  0  0  0  0
 18 30  1  0  0  0  0
 20 21  1  0  0  0  0
 20 26  1  6  0  0  0
 22 23  1  1  0  0  0
 22 28  1  0  0  0  0
 24 25  1  0  0  0  0
 26 27  1  0  0  0  0
 28 29  1  6  0  0  0
M  END
>  <CHROM.1>
93.69112251,-152.65833191,-73.30490023,-144.73265401,-40.43150755,-41.73504833
3.32483978,16.33893354,37.03319313,-1.24093495,-0.66995308,-0.24395140

>  <Name>
ligand

>  <RI>
0

>  <Rbt.Current_Directory>
/home/itssahil/PROJECTS/Mol_Feturizer/New_Systems/rnas/4GPY

>  <Rbt.Executable>
rbdock ($Id: //depot/dev/client3/rdock/2013.1/src/exe/rbdock.cxx#4 $)

>  <Rbt.Library>
libRbt.so (2013.1, Build901 2013/11/27)

>  <Rbt.Parameter_File>
/export/apps/rDock/src/rDock_2013.1_src/data/scripts/dock_solv.prm

>  <Rbt.Receptor>
prm/blind_docking_80.prm

>  <SCORE>
-2.49168

>  <SCORE.INTER>
-9.9607

>  <SCORE.INTER.CONST>
1

>  <SCORE.INTER.POLAR>
0

>  <SCORE.INTER.ROT>
6

>  <SCORE.INTER.SOLV>
15.9613

>  <SCORE.INTER.VDW>
-19.5609

>  <SCORE.INTER.norm>
-0.321313

>  <SCORE.INTRA>
6.07432

>  <SCORE.INTRA.DIHEDRAL>
2.07827

>  <SCORE.INTRA.DIHEDRAL.0>
14.7001

>  <SCORE.INTRA.POLAR>
0

>  <SCORE.INTRA.POLAR.0>
0

>  <SCORE.INTRA.REPUL>
0

>  <SCORE.INTRA.REPUL.0>
0

>  <SCORE.INTRA.SOLV>
4.14

>  <SCORE.INTRA.SOLV.lig_0>
-65.3082

>  <SCORE.INTRA.VDW>
2.96518

>  <SCORE.INTRA.VDW.0>
-4.21408

>  <SCORE.INTRA.norm>
0.195946

>  <SCORE.RESTR>
1.39471

>  <SCORE.RESTR.CAVITY>
1.39471

>  <SCORE.RESTR.norm>
0.0449906

>  <SCORE.SYSTEM>
0

>  <SCORE.SYSTEM.CONST>
0

>  <SCORE.SYSTEM.DIHEDRAL>
0

>  <SCORE.SYSTEM.SOLV>
0

>  <SCORE.SYSTEM.norm>
0

>  <SCORE.heavy>
31

>  <SCORE.norm>
-0.0803766

>  <RMSD>
8.754

$$$$
ligand
 OpenBabel11021811493D
libRbt.so/2013.1/901 2013/11/27
 31 33  0  0  0  0  0  0  0  0999 V2000
    3.3227   12.3367   38.3245 C   0  0  2  0  0  0  0  0  0  0  0  0
    2.9394   13.3773   37.4461 O   0  0  0  0  0  0  0  0  0  0  0  0
    0.8564   17.0801   37.5463 C   0  0  2  0  0  0  0  0  0  0  0  0
    0.3678   18.3266   38.0305 N   0  0  0  0  0  0  0  0  0  0  0  0
    2.6476   18.0728   35.1426 C   0  0  2  0  0  0  0  0  0  0  0  0
    4.6498   12.7871   39.0755 C   0  0  2  0  0  0  0  0  0  0  0  0
    4.3977   14.0371   39.7845 N   0  0  0  0  0  0  0  0  0  0  0  0
    0.3895   15.9368   38.5535 C   0  0  0  0  0  0  0  0  0  0  0  0
    3.2932   19.3860   34.5860 C   0  0  2  0  0  0  0  0  0  0  0  0
    4.6363   19.4476   35.0166 O   0  0  0  0  0  0  0  0  0  0  0  0
    5.8366   12.9432   38.0551 C   0  0  0  0  0  0  0  0  0  0  0  0
    0.9192   14.5486   38.0058 C   0  0  2  0  0  0  0  0  0  0  0  0
    0.4916   13.4845   38.9150 N   0  0  0  0  0  0  0  0  0  0  0  0
    2.4745   20.6133   35.1291 C   0  0  1  0  0  0  0  0  0  0  0  0
    3.0807   21.8867   34.6235 N   0  0  0  0  0  0  0  0  0  0  0  0
    5.8217   11.8003   36.9553 C   0  0  0  0  0  0  0  0  0  0  0  0
    2.5001   14.5955   37.9316 C   0  0  2  0  0  0  0  0  0  0  0  0
    0.9410   20.4980   34.5968 C   0  0  1  0  0  0  0  0  0  0  0  0
    0.8394   20.5031   33.1865 O   0  0  0  0  0  0  0  0  0  0  0  0
    4.7448   10.9930   36.7964 C   0  0  1  0  0  0  0  0  0  0  0  0
    3.5639   11.0977   37.5867 O   0  0  0  0  0  0  0  0  0  0  0  0
    2.9548   15.7513   36.9463 C   0  0  2  0  0  0  0  0  0  0  0  0
    4.3956   15.7960   36.8963 O   0  0  0  0  0  0  0  0  0  0  0  0
    0.3174   19.1699   35.1209 C   0  0  0  0  0  0  0  0  0  0  0  0
    1.1906   17.9933   34.7202 O   0  0  0  0  0  0  0  0  0  0  0  0
    4.6881    9.8989   35.7571 C   0  0  0  0  0  0  0  0  0  0  0  0
    5.0801    8.6786   36.4220 O   0  0  0  0  0  0  0  0  0  0  0  0
    2.4201   17.1312   37.4895 C   0  0  1  0  0  0  0  0  0  0  0  0
    2.8300   18.1381   36.5978 O   0  0  0  0  0  0  0  0  0  0  0  0
    0.0181   21.6326   35.0603 C   0  0  0  0  0  0  0  0  0  0  0  0
    4.0826   22.5273   35.5006 C   0  0  0  0  0  0  0  0  0  0  0  0
  1  2  1  6  0  0  0
  1  6  1  0  0  0  0
  1 21  1  0  0  0  0
  3  4  1  1  0  0  0
  3  8  1  0  0  0  0
  3 28  1  0  0  0  0
  5  9  1  0  0  0  0
  5 25  1  0  0  0  0
  5 29  1  1  0  0  0
  6  7  1  6  0  0  0
  6 11  1  0  0  0  0
  8 12  1  0  0  0  0
  9 10  1  1  0  0  0
  9 14  1  0  0  0  0
 11 16  1  0  0  0  0
 12 13  1  1  0  0  0
 12 17  1  0  0  0  0
 14 15  1  6  0  0  0
 14 18  1  0  0  0  0
 15 31  1  0  0  0  0
 16 20  1  0  0  0  0
 17  2  1  6  0  0  0
 17 22  1  0  0  0  0
 18 19  1  6  0  0  0
 18 24  1  0  0  0  0
 18 30  1  0  0  0  0
 20 21  1  0  0  0  0
 20 26  1  6  0  0  0
 22 23  1  1  0  0  0
 22 28  1  0  0  0  0
 24 25  1  0  0  0  0
 26 27  1  0  0  0  0
 28 29  1  6  0  0  0
M  END
>  <CHROM.1>
-67.56227861,-178.35704952,-92.82467227,-94.29004995,95.64010846,-69.03893531
2.81558984,16.14261503,36.60901601,1.29631906,-0.45268565,2.74482785

>  <Name>
ligand

>  <RI>
0

>  <Rbt.Current_Directory>
/home/itssahil/PROJECTS/Mol_Feturizer/New_Systems/rnas/4GPY

>  <Rbt.Executable>
rbdock ($Id: //depot/dev/client3/rdock/2013.1/src/exe/rbdock.cxx#4 $)

>  <Rbt.Library>
libRbt.so (2013.1, Build901 2013/11/27)

>  <Rbt.Parameter_File>
/export/apps/rDock/src/rDock_2013.1_src/data/scripts/dock_solv.prm

>  <Rbt.Receptor>
prm/blind_docking_100.prm

>  <SCORE>
-3.581

>  <SCORE.INTER>
-6.37512

>  <SCORE.INTER.CONST>
1

>  <SCORE.INTER.POLAR>
0

>  <SCORE.INTER.ROT>
6

>  <SCORE.INTER.SOLV>
15.1668

>  <SCORE.INTER.VDW>
-16.9057

>  <SCORE.INTER.norm>
-0.205649

>  <SCORE.INTRA>
-0.180413

>  <SCORE.INTRA.DIHEDRAL>
-6.55552

>  <SCORE.INTRA.DIHEDRAL.0>
14.7001

>  <SCORE.INTRA.POLAR>
0

>  <SCORE.INTRA.POLAR.0>
0

>  <SCORE.INTRA.REPUL>
0

>  <SCORE.INTRA.REPUL.0>
0

>  <SCORE.INTRA.SOLV>
3.5201

>  <SCORE.INTRA.SOLV.lig_0>
-65.3082

>  <SCORE.INTRA.VDW>
1.3373

>  <SCORE.INTRA.VDW.0>
-4.21408

>  <SCORE.INTRA.norm>
-0.00581978

>  <SCORE.RESTR>
2.97454

>  <SCORE.RESTR.CAVITY>
2.97454

>  <SCORE.RESTR.norm>
0.0959529

>  <SCORE.SYSTEM>
0

>  <SCORE.SYSTEM.CONST>
0

>  <SCORE.SYSTEM.DIHEDRAL>
0

>  <SCORE.SYSTEM.SOLV>
0

>  <SCORE.SYSTEM.norm>
0

>  <SCORE.heavy>
31

>  <SCORE.norm>
-0.115516

>  <RMSD>
8.763

$$$$
ligand
 OpenBabel11021811493D
libRbt.so/2013.1/901 2013/11/27
 31 33  0  0  0  0  0  0  0  0999 V2000
    5.0928   13.2350   37.4938 C   0  0  2  0  0  0  0  0  0  0  0  0
    3.7380   13.4661   37.1586 O   0  0  0  0  0  0  0  0  0  0  0  0
    1.3125   16.9535   37.0342 C   0  0  2  0  0  0  0  0  0  0  0  0
    0.5957   18.1000   37.4796 N   0  0  0  0  0  0  0  0  0  0  0  0
    3.5844   18.2985   35.2337 C   0  0  2  0  0  0  0  0  0  0  0  0
    5.2898   11.6717   37.7070 C   0  0  2  0  0  0  0  0  0  0  0  0
    4.8998   10.9697   36.4889 N   0  0  0  0  0  0  0  0  0  0  0  0
    0.7448   15.6801   37.8061 C   0  0  0  0  0  0  0  0  0  0  0  0
    3.8579   19.8036   34.9000 C   0  0  2  0  0  0  0  0  0  0  0  0
    4.9254   20.2586   35.7040 O   0  0  0  0  0  0  0  0  0  0  0  0
    4.4534   11.1725   38.9419 C   0  0  0  0  0  0  0  0  0  0  0  0
    1.5312   14.4028   37.2984 C   0  0  2  0  0  0  0  0  0  0  0  0
    1.0163   13.2210   37.9912 N   0  0  0  0  0  0  0  0  0  0  0  0
    2.5490   20.6246   35.1903 C   0  0  1  0  0  0  0  0  0  0  0  0
    2.7872   22.0737   34.8936 N   0  0  0  0  0  0  0  0  0  0  0  0
    4.4946   12.2113   40.1399 C   0  0  0  0  0  0  0  0  0  0  0  0
    3.0714   14.5886   37.6151 C   0  0  2  0  0  0  0  0  0  0  0  0
    1.3569   20.0674   34.2330 C   0  0  1  0  0  0  0  0  0  0  0  0
    1.6458   20.1917   32.8545 O   0  0  0  0  0  0  0  0  0  0  0  0
    4.9657   13.4695   39.9620 C   0  0  1  0  0  0  0  0  0  0  0  0
    5.4549   13.9537   38.7145 O   0  0  0  0  0  0  0  0  0  0  0  0
    3.6208   15.8713   36.8624 C   0  0  2  0  0  0  0  0  0  0  0  0
    5.0201   16.0408   37.1683 O   0  0  0  0  0  0  0  0  0  0  0  0
    1.1171   18.5592   34.5419 C   0  0  0  0  0  0  0  0  0  0  0  0
    2.4187   17.7883   34.4040 O   0  0  0  0  0  0  0  0  0  0  0  0
    5.0151   14.4900   41.0740 C   0  0  0  0  0  0  0  0  0  0  0  0
    4.2991   15.6507   40.5999 O   0  0  0  0  0  0  0  0  0  0  0  0
    2.8316   17.1403   37.3639 C   0  0  1  0  0  0  0  0  0  0  0  0
    3.3313   18.2621   36.6793 O   0  0  0  0  0  0  0  0  0  0  0  0
    0.0083   20.7757   34.4161 C   0  0  0  0  0  0  0  0  0  0  0  0
    1.7608   23.0183   35.3812 C   0  0  0  0  0  0  0  0  0  0  0  0
  1  2  1  1  0  0  0
  1  6  1  0  0  0  0
  1 21  1  0  0  0  0
  3  4  1  1  0  0  0
  3  8  1  0  0  0  0
  3 28  1  0  0  0  0
  5  9  1  0  0  0  0
  5 25  1  0  0  0  0
  5 29  1  1  0  0  0
  6  7  1  6  0  0  0
  6 11  1  0  0  0  0
  8 12  1  0  0  0  0
  9 10  1  1  0  0  0
  9 14  1  0  0  0  0
 11 16  1  0  0  0  0
 12 13  1  1  0  0  0
 12 17  1  0  0  0  0
 14 15  1  6  0  0  0
 14 18  1  0  0  0  0
 15 31  1  0  0  0  0
 16 20  1  0  0  0  0
 17  2  1  6  0  0  0
 17 22  1  0  0  0  0
 18 19  1  6  0  0  0
 18 24  1  0  0  0  0
 18 30  1  0  0  0  0
 20 21  1  0  0  0  0
 20 26  1  6  0  0  0
 22 23  1  1  0  0  0
 22 28  1  0  0  0  0
 24 25  1  0  0  0  0
 26 27  1  0  0  0  0
 28 29  1  6  0  0  0
M  END
>  <CHROM.1>
143.32737689,169.31680432,-167.42793572,-169.37312044,-125.04297472,-73.11658909
3.13883261,16.55345283,36.87458172,-1.24990877,-0.56929038,-0.29926362

>  <Name>
ligand

>  <RI>
0

>  <Rbt.Current_Directory>
/home/itssahil/PROJECTS/Mol_Feturizer/New_Systems/rnas/4GPY

>  <Rbt.Executable>
rbdock ($Id: //depot/dev/client3/rdock/2013.1/src/exe/rbdock.cxx#4 $)

>  <Rbt.Library>
libRbt.so (2013.1, Build901 2013/11/27)

>  <Rbt.Parameter_File>
/export/apps/rDock/src/rDock_2013.1_src/data/scripts/dock_solv.prm

>  <Rbt.Receptor>
prm/blind_docking_80.prm

>  <SCORE>
-1.03892

>  <SCORE.INTER>
-4.7881

>  <SCORE.INTER.CONST>
1

>  <SCORE.INTER.POLAR>
0

>  <SCORE.INTER.ROT>
6

>  <SCORE.INTER.SOLV>
15.8716

>  <SCORE.INTER.VDW>
-16.0826

>  <SCORE.INTER.norm>
-0.154455

>  <SCORE.INTRA>
1.58207

>  <SCORE.INTRA.DIHEDRAL>
-6.11431

>  <SCORE.INTRA.DIHEDRAL.0>
14.7001

>  <SCORE.INTRA.POLAR>
0

>  <SCORE.INTRA.POLAR.0>
0

>  <SCORE.INTRA.REPUL>
0

>  <SCORE.INTRA.REPUL.0>
0

>  <SCORE.INTRA.SOLV>
1.62427

>  <SCORE.INTRA.SOLV.lig_0>
-65.3082

>  <SCORE.INTRA.VDW>
3.82709

>  <SCORE.INTRA.VDW.0>
-4.21408

>  <SCORE.INTRA.norm>
0.0510345

>  <SCORE.RESTR>
2.16712

>  <SCORE.RESTR.CAVITY>
2.16712

>  <SCORE.RESTR.norm>
0.069907

>  <SCORE.SYSTEM>
0

>  <SCORE.SYSTEM.CONST>
0

>  <SCORE.SYSTEM.DIHEDRAL>
0

>  <SCORE.SYSTEM.SOLV>
0

>  <SCORE.SYSTEM.norm>
0

>  <SCORE.heavy>
31

>  <SCORE.norm>
-0.0335134

>  <RMSD>
8.786

$$$$
ligand
 OpenBabel11021811493D
libRbt.so/2013.1/901 2013/11/27
 31 33  0  0  0  0  0  0  0  0999 V2000
   -0.5763    7.6514   35.4660 C   0  0  2  0  0  0  0  0  0  0  0  0
    0.4435    8.3190   34.7478 O   0  0  0  0  0  0  0  0  0  0  0  0
    3.6433    7.9667   37.5221 C   0  0  2  0  0  0  0  0  0  0  0  0
    4.9625    8.0177   38.0550 N   0  0  0  0  0  0  0  0  0  0  0  0
    4.3634   10.5247   39.0680 C   0  0  2  0  0  0  0  0  0  0  0  0
   -1.8826    7.6242   34.5599 C   0  0  2  0  0  0  0  0  0  0  0  0
   -1.5762    6.9590   33.2981 N   0  0  0  0  0  0  0  0  0  0  0  0
    3.6586    7.0142   36.2446 C   0  0  0  0  0  0  0  0  0  0  0  0
    3.8682   11.5394   40.1527 C   0  0  2  0  0  0  0  0  0  0  0  0
    2.7702   10.9721   40.8352 O   0  0  0  0  0  0  0  0  0  0  0  0
   -2.4171    9.0834   34.3167 C   0  0  0  0  0  0  0  0  0  0  0  0
    2.1878    6.9448   35.6619 C   0  0  2  0  0  0  0  0  0  0  0  0
    2.1811    6.0660   34.4916 N   0  0  0  0  0  0  0  0  0  0  0  0
    3.4517   12.8741   39.4339 C   0  0  1  0  0  0  0  0  0  0  0  0
    2.9583   13.8598   40.4485 N   0  0  0  0  0  0  0  0  0  0  0  0
   -2.2985    9.9790   35.6204 C   0  0  0  0  0  0  0  0  0  0  0  0
    1.7303    8.4029   35.2475 C   0  0  2  0  0  0  0  0  0  0  0  0
    4.7526   13.4887   38.6736 C   0  0  1  0  0  0  0  0  0  0  0  0
    5.8205   13.7876   39.5509 O   0  0  0  0  0  0  0  0  0  0  0  0
   -1.5653    9.5741   36.6859 C   0  0  1  0  0  0  0  0  0  0  0  0
   -0.8580    8.3379   36.7257 O   0  0  0  0  0  0  0  0  0  0  0  0
    1.7418    9.3484   36.5201 C   0  0  2  0  0  0  0  0  0  0  0  0
    1.3381   10.6772   36.1305 O   0  0  0  0  0  0  0  0  0  0  0  0
    5.2646   12.4576   37.6238 C   0  0  0  0  0  0  0  0  0  0  0  0
    5.5276   11.1207   38.2953 O   0  0  0  0  0  0  0  0  0  0  0  0
   -1.4213   10.4000   37.9419 C   0  0  0  0  0  0  0  0  0  0  0  0
   -1.8855    9.5753   39.0324 O   0  0  0  0  0  0  0  0  0  0  0  0
    3.2053    9.4101   37.1027 C   0  0  1  0  0  0  0  0  0  0  0  0
    3.1891   10.2480   38.2317 O   0  0  0  0  0  0  0  0  0  0  0  0
    4.4897   14.7968   37.9164 C   0  0  0  0  0  0  0  0  0  0  0  0
    1.4918   13.9828   40.5814 C   0  0  0  0  0  0  0  0  0  0  0  0
  1  2  1  6  0  0  0
  1  6  1  0  0  0  0
  1 21  1  0  0  0  0
  3  4  1  6  0  0  0
  3  8  1  0  0  0  0
  3 28  1  0  0  0  0
  5  9  1  0  0  0  0
  5 25  1  0  0  0  0
  5 29  1  6  0  0  0
  6  7  1  6  0  0  0
  6 11  1  0  0  0  0
  8 12  1  0  0  0  0
  9 10  1  6  0  0  0
  9 14  1  0  0  0  0
 11 16  1  0  0  0  0
 12 13  1  6  0  0  0
 12 17  1  0  0  0  0
 14 15  1  1  0  0  0
 14 18  1  0  0  0  0
 15 31  1  0  0  0  0
 16 20  1  0  0  0  0
 17  2  1  1  0  0  0
 17 22  1  0  0  0  0
 18 19  1  1  0  0  0
 18 24  1  0  0  0  0
 18 30  1  0  0  0  0
 20 21  1  0  0  0  0
 20 26  1  6  0  0  0
 22 23  1  6  0  0  0
 22 28  1  0  0  0  0
 24 25  1  0  0  0  0
 26 27  1  0  0  0  0
 28 29  1  1  0  0  0
M  END
>  <CHROM.1>
-174.89115739,177.90212608,-99.79816909,50.55556144,122.76475043,59.81898923
1.88782918,10.06871054,37.32873618,2.24905200,0.12297751,-2.52299339

>  <Name>
ligand

>  <RI>
0

>  <Rbt.Current_Directory>
/home/itssahil/PROJECTS/Mol_Feturizer/New_Systems/rnas/4GPY

>  <Rbt.Executable>
rbdock ($Id: //depot/dev/client3/rdock/2013.1/src/exe/rbdock.cxx#4 $)

>  <Rbt.Library>
libRbt.so (2013.1, Build901 2013/11/27)

>  <Rbt.Parameter_File>
/export/apps/rDock/src/rDock_2013.1_src/data/scripts/dock_solv.prm

>  <Rbt.Receptor>
prm/pocket_docking_8.prm

>  <SCORE>
-5.95907

>  <SCORE.INTER>
-1.89918

>  <SCORE.INTER.CONST>
1

>  <SCORE.INTER.POLAR>
0

>  <SCORE.INTER.ROT>
6

>  <SCORE.INTER.SOLV>
5.99448

>  <SCORE.INTER.VDW>
-10.8643

>  <SCORE.INTER.norm>
-0.061264

>  <SCORE.INTRA>
-4.05989

>  <SCORE.INTRA.DIHEDRAL>
-11.5246

>  <SCORE.INTRA.DIHEDRAL.0>
14.7001

>  <SCORE.INTRA.POLAR>
0

>  <SCORE.INTRA.POLAR.0>
0

>  <SCORE.INTRA.REPUL>
0

>  <SCORE.INTRA.REPUL.0>
0

>  <SCORE.INTRA.SOLV>
0.403111

>  <SCORE.INTRA.SOLV.lig_0>
-65.3082

>  <SCORE.INTRA.VDW>
1.50087

>  <SCORE.INTRA.VDW.0>
-4.21408

>  <SCORE.INTRA.norm>
-0.130964

>  <SCORE.RESTR>
0

>  <SCORE.RESTR.CAVITY>
0

>  <SCORE.RESTR.norm>
0

>  <SCORE.SYSTEM>
0

>  <SCORE.SYSTEM.CONST>
0

>  <SCORE.SYSTEM.DIHEDRAL>
0

>  <SCORE.SYSTEM.SOLV>
0

>  <SCORE.SYSTEM.norm>
0

>  <SCORE.heavy>
31

>  <SCORE.norm>
-0.192228

>  <RMSD>
8.793

$$$$
ligand
 OpenBabel11021811493D
libRbt.so/2013.1/901 2013/11/27
 31 33  0  0  0  0  0  0  0  0999 V2000
    5.4983   12.8170   37.4735 C   0  0  2  0  0  0  0  0  0  0  0  0
    4.2917   13.1036   36.7928 O   0  0  0  0  0  0  0  0  0  0  0  0
    1.4350   16.2492   36.7233 C   0  0  2  0  0  0  0  0  0  0  0  0
    0.5011   17.2175   37.1890 N   0  0  0  0  0  0  0  0  0  0  0  0
    3.6185   18.1524   35.5064 C   0  0  2  0  0  0  0  0  0  0  0  0
    5.3948   11.3446   38.0646 C   0  0  2  0  0  0  0  0  0  0  0  0
    5.1453   10.4076   36.9745 N   0  0  0  0  0  0  0  0  0  0  0  0
    0.9470   14.8122   37.2096 C   0  0  0  0  0  0  0  0  0  0  0  0
    4.0326   19.6622   35.5217 C   0  0  2  0  0  0  0  0  0  0  0  0
    5.0812   19.8344   36.4511 O   0  0  0  0  0  0  0  0  0  0  0  0
    4.2615   11.2640   39.1524 C   0  0  0  0  0  0  0  0  0  0  0  0
    1.9773   13.7338   36.6775 C   0  0  2  0  0  0  0  0  0  0  0  0
    1.5396   12.4052   37.1077 N   0  0  0  0  0  0  0  0  0  0  0  0
    2.7786   20.5192   35.9274 C   0  0  1  0  0  0  0  0  0  0  0  0
    3.1508   21.9700   35.9650 N   0  0  0  0  0  0  0  0  0  0  0  0
    4.2320   12.5582   40.0690 C   0  0  0  0  0  0  0  0  0  0  0  0
    3.4087   14.0527   37.2747 C   0  0  2  0  0  0  0  0  0  0  0  0
    1.6073   20.2918   34.8209 C   0  0  1  0  0  0  0  0  0  0  0  0
    1.9906   20.6808   33.5166 O   0  0  0  0  0  0  0  0  0  0  0  0
    4.9253   13.6728   39.7323 C   0  0  1  0  0  0  0  0  0  0  0  0
    5.7229   13.7737   38.5560 O   0  0  0  0  0  0  0  0  0  0  0  0
    3.8746   15.4936   36.8052 C   0  0  2  0  0  0  0  0  0  0  0  0
    5.1721   15.7813   37.3656 O   0  0  0  0  0  0  0  0  0  0  0  0
    1.2281   18.7811   34.7821 C   0  0  0  0  0  0  0  0  0  0  0  0
    2.4693   17.9410   34.5357 O   0  0  0  0  0  0  0  0  0  0  0  0
    4.9177   14.9270   40.5734 C   0  0  0  0  0  0  0  0  0  0  0  0
    4.2894   15.9537   39.7761 O   0  0  0  0  0  0  0  0  0  0  0  0
    2.8436   16.5646   37.3297 C   0  0  1  0  0  0  0  0  0  0  0  0
    3.2739   17.8312   36.8968 O   0  0  0  0  0  0  0  0  0  0  0  0
    0.3114   21.0658   35.0957 C   0  0  0  0  0  0  0  0  0  0  0  0
    3.9612   22.4667   34.8337 C   0  0  0  0  0  0  0  0  0  0  0  0
  1  2  1  1  0  0  0
  1  6  1  0  0  0  0
  1 21  1  0  0  0  0
  3  4  1  1  0  0  0
  3  8  1  0  0  0  0
  3 28  1  0  0  0  0
  5  9  1  0  0  0  0
  5 25  1  0  0  0  0
  5 29  1  1  0  0  0
  6  7  1  6  0  0  0
  6 11  1  0  0  0  0
  8 12  1  0  0  0  0
  9 10  1  1  0  0  0
  9 14  1  0  0  0  0
 11 16  1  0  0  0  0
 12 13  1  1  0  0  0
 12 17  1  0  0  0  0
 14 15  1  6  0  0  0
 14 18  1  0  0  0  0
 15 31  1  0  0  0  0
 16 20  1  0  0  0  0
 17  2  1  6  0  0  0
 17 22  1  0  0  0  0
 18 19  1  6  0  0  0
 18 24  1  0  0  0  0
 18 30  1  0  0  0  0
 20 21  1  0  0  0  0
 20 26  1  6  0  0  0
 22 23  1  1  0  0  0
 22 28  1  0  0  0  0
 24 25  1  0  0  0  0
 26 27  1  0  0  0  0
 28 29  1  6  0  0  0
M  END
>  <CHROM.1>
111.91786521,179.96026154,44.66831507,-157.48431983,-115.35160210,-67.30342920
3.37148198,16.34418925,36.91773620,-1.31179329,-0.52215416,-0.25654896

>  <Name>
ligand

>  <RI>
0

>  <Rbt.Current_Directory>
/home/itssahil/PROJECTS/Mol_Feturizer/New_Systems/rnas/4GPY

>  <Rbt.Executable>
rbdock ($Id: //depot/dev/client3/rdock/2013.1/src/exe/rbdock.cxx#4 $)

>  <Rbt.Library>
libRbt.so (2013.1, Build901 2013/11/27)

>  <Rbt.Parameter_File>
/export/apps/rDock/src/rDock_2013.1_src/data/scripts/dock_solv.prm

>  <Rbt.Receptor>
prm/blind_docking_100.prm

>  <SCORE>
-1.41583

>  <SCORE.INTER>
-9.27456

>  <SCORE.INTER.CONST>
1

>  <SCORE.INTER.POLAR>
0

>  <SCORE.INTER.ROT>
6

>  <SCORE.INTER.SOLV>
14.8159

>  <SCORE.INTER.VDW>
-18.7217

>  <SCORE.INTER.norm>
-0.299179

>  <SCORE.INTRA>
4.56609

>  <SCORE.INTRA.DIHEDRAL>
-3.43366

>  <SCORE.INTRA.DIHEDRAL.0>
14.7001

>  <SCORE.INTRA.POLAR>
0

>  <SCORE.INTRA.POLAR.0>
0

>  <SCORE.INTRA.REPUL>
0

>  <SCORE.INTRA.REPUL.0>
0

>  <SCORE.INTRA.SOLV>
3.72458

>  <SCORE.INTRA.SOLV.lig_0>
-65.3082

>  <SCORE.INTRA.VDW>
4.42063

>  <SCORE.INTRA.VDW.0>
-4.21408

>  <SCORE.INTRA.norm>
0.147293

>  <SCORE.RESTR>
3.29263

>  <SCORE.RESTR.CAVITY>
3.29263

>  <SCORE.RESTR.norm>
0.106214

>  <SCORE.SYSTEM>
0

>  <SCORE.SYSTEM.CONST>
0

>  <SCORE.SYSTEM.DIHEDRAL>
0

>  <SCORE.SYSTEM.SOLV>
0

>  <SCORE.SYSTEM.norm>
0

>  <SCORE.heavy>
31

>  <SCORE.norm>
-0.0456721

>  <RMSD>
8.794

$$$$
ligand
 OpenBabel11021811493D
libRbt.so/2013.1/901 2013/11/27
 31 33  0  0  0  0  0  0  0  0999 V2000
   -1.7953   15.7183   38.9539 C   0  0  2  0  0  0  0  0  0  0  0  0
   -0.6556   15.5195   39.7680 O   0  0  0  0  0  0  0  0  0  0  0  0
    3.5050   15.8476   38.9670 C   0  0  2  0  0  0  0  0  0  0  0  0
    4.7904   15.5540   38.4299 N   0  0  0  0  0  0  0  0  0  0  0  0
    3.0383   17.3387   35.6102 C   0  0  2  0  0  0  0  0  0  0  0  0
   -3.0217   16.0789   39.8994 C   0  0  2  0  0  0  0  0  0  0  0  0
   -2.6918   17.2671   40.6791 N   0  0  0  0  0  0  0  0  0  0  0  0
    3.0031   14.5740   39.7828 C   0  0  0  0  0  0  0  0  0  0  0  0
    3.8989   18.6091   35.2989 C   0  0  2  0  0  0  0  0  0  0  0  0
    5.1410   18.4870   35.9589 O   0  0  0  0  0  0  0  0  0  0  0  0
   -3.3729   14.8652   40.8362 C   0  0  0  0  0  0  0  0  0  0  0  0
    1.5805   14.9071   40.3937 C   0  0  2  0  0  0  0  0  0  0  0  0
    1.1073   13.7502   41.1548 N   0  0  0  0  0  0  0  0  0  0  0  0
    3.1184   19.8765   35.8048 C   0  0  1  0  0  0  0  0  0  0  0  0
    3.9273   21.1079   35.5331 N   0  0  0  0  0  0  0  0  0  0  0  0
   -3.2598   13.4797   40.0724 C   0  0  0  0  0  0  0  0  0  0  0  0
    0.5762   15.2262   39.2119 C   0  0  2  0  0  0  0  0  0  0  0  0
    1.7034   19.9744   35.0073 C   0  0  1  0  0  0  0  0  0  0  0  0
    1.8607   20.0964   33.6074 O   0  0  0  0  0  0  0  0  0  0  0  0
   -2.6610   13.3935   38.8597 C   0  0  1  0  0  0  0  0  0  0  0  0
   -2.0983   14.5138   38.1826 O   0  0  0  0  0  0  0  0  0  0  0  0
    1.0968   16.4793   38.3918 C   0  0  2  0  0  0  0  0  0  0  0  0
    0.1840   16.7534   37.3093 O   0  0  0  0  0  0  0  0  0  0  0  0
    0.8687   18.6892   35.2890 C   0  0  0  0  0  0  0  0  0  0  0  0
    1.6816   17.4554   34.9368 O   0  0  0  0  0  0  0  0  0  0  0  0
   -2.5266   12.0933   38.1036 C   0  0  0  0  0  0  0  0  0  0  0  0
   -1.1138   11.8050   38.0280 O   0  0  0  0  0  0  0  0  0  0  0  0
    2.5161   16.1481   37.7910 C   0  0  1  0  0  0  0  0  0  0  0  0
    2.9588   17.2741   37.0746 O   0  0  0  0  0  0  0  0  0  0  0  0
    0.8264   21.1676   35.4085 C   0  0  0  0  0  0  0  0  0  0  0  0
    4.7737   21.5925   36.6432 C   0  0  0  0  0  0  0  0  0  0  0  0
  1  2  1  1  0  0  0
  1  6  1  0  0  0  0
  1 21  1  0  0  0  0
  3  4  1  6  0  0  0
  3  8  1  0  0  0  0
  3 28  1  0  0  0  0
  5  9  1  0  0  0  0
  5 25  1  0  0  0  0
  5 29  1  1  0  0  0
  6  7  1  1  0  0  0
  6 11  1  0  0  0  0
  8 12  1  0  0  0  0
  9 10  1  1  0  0  0
  9 14  1  0  0  0  0
 11 16  1  0  0  0  0
 12 13  1  6  0  0  0
 12 17  1  0  0  0  0
 14 15  1  6  0  0  0
 14 18  1  0  0  0  0
 15 31  1  0  0  0  0
 16 20  1  0  0  0  0
 17  2  1  1  0  0  0
 17 22  1  0  0  0  0
 18 19  1  6  0  0  0
 18 24  1  0  0  0  0
 18 30  1  0  0  0  0
 20 21  1  0  0  0  0
 20 26  1  1  0  0  0
 22 23  1  6  0  0  0
 22 28  1  0  0  0  0
 24 25  1  0  0  0  0
 26 27  1  0  0  0  0
 28 29  1  1  0  0  0
M  END
>  <CHROM.1>
-178.24953186,-166.35129333,-94.95784526,-173.70420424,-114.75212111,133.27303228
0.93761043,16.64248157,37.73694199,2.21199939,-0.00019305,2.51576363

>  <Name>
ligand

>  <RI>
0

>  <Rbt.Current_Directory>
/home/itssahil/PROJECTS/Mol_Feturizer/New_Systems/rnas/4GPY

>  <Rbt.Executable>
rbdock ($Id: //depot/dev/client3/rdock/2013.1/src/exe/rbdock.cxx#4 $)

>  <Rbt.Library>
libRbt.so (2013.1, Build901 2013/11/27)

>  <Rbt.Parameter_File>
/export/apps/rDock/src/rDock_2013.1_src/data/scripts/dock_solv.prm

>  <Rbt.Receptor>
prm/pocket_docking_6.prm

>  <SCORE>
-13.3067

>  <SCORE.INTER>
-10.8885

>  <SCORE.INTER.CONST>
1

>  <SCORE.INTER.POLAR>
0

>  <SCORE.INTER.ROT>
6

>  <SCORE.INTER.SOLV>
15.3989

>  <SCORE.INTER.VDW>
-19.992

>  <SCORE.INTER.norm>
-0.351242

>  <SCORE.INTRA>
-2.41815

>  <SCORE.INTRA.DIHEDRAL>
-4.77824

>  <SCORE.INTRA.DIHEDRAL.0>
14.7001

>  <SCORE.INTRA.POLAR>
0

>  <SCORE.INTRA.POLAR.0>
0

>  <SCORE.INTRA.REPUL>
0

>  <SCORE.INTRA.REPUL.0>
0

>  <SCORE.INTRA.SOLV>
-1.69783

>  <SCORE.INTRA.SOLV.lig_0>
-65.3082

>  <SCORE.INTRA.VDW>
0.819881

>  <SCORE.INTRA.VDW.0>
-4.21408

>  <SCORE.INTRA.norm>
-0.078005

>  <SCORE.RESTR>
0

>  <SCORE.RESTR.CAVITY>
0

>  <SCORE.RESTR.norm>
0

>  <SCORE.SYSTEM>
0

>  <SCORE.SYSTEM.CONST>
0

>  <SCORE.SYSTEM.DIHEDRAL>
0

>  <SCORE.SYSTEM.SOLV>
0

>  <SCORE.SYSTEM.norm>
0

>  <SCORE.heavy>
31

>  <SCORE.norm>
-0.429247

>  <RMSD>
8.794

$$$$
ligand
 OpenBabel11021811493D
libRbt.so/2013.1/901 2013/11/27
 31 33  0  0  0  0  0  0  0  0999 V2000
   -1.8010   15.6660   38.9260 C   0  0  2  0  0  0  0  0  0  0  0  0
   -0.6617   15.4603   39.7392 O   0  0  0  0  0  0  0  0  0  0  0  0
    3.5007   15.7877   38.9472 C   0  0  2  0  0  0  0  0  0  0  0  0
    4.7861   15.4971   38.4086 N   0  0  0  0  0  0  0  0  0  0  0  0
    3.0198   17.3259   35.6062 C   0  0  2  0  0  0  0  0  0  0  0  0
   -3.0044   16.1123   39.8645 C   0  0  2  0  0  0  0  0  0  0  0  0
   -2.6237   17.3200   40.5893 N   0  0  0  0  0  0  0  0  0  0  0  0
    2.9947   14.5062   39.7480 C   0  0  0  0  0  0  0  0  0  0  0  0
    3.8974   18.5869   35.3046 C   0  0  2  0  0  0  0  0  0  0  0  0
    5.1466   18.4322   35.9440 O   0  0  0  0  0  0  0  0  0  0  0  0
   -3.3911   14.9540   40.8559 C   0  0  0  0  0  0  0  0  0  0  0  0
    1.5722   14.8357   40.3607 C   0  0  2  0  0  0  0  0  0  0  0  0
    1.0952   13.6715   41.1082 N   0  0  0  0  0  0  0  0  0  0  0  0
    3.1461   19.8581   35.8440 C   0  0  1  0  0  0  0  0  0  0  0  0
    3.9719   21.0804   35.5820 N   0  0  0  0  0  0  0  0  0  0  0  0
   -3.3361   13.5336   40.1521 C   0  0  0  0  0  0  0  0  0  0  0  0
    0.5702   15.1705   39.1813 C   0  0  2  0  0  0  0  0  0  0  0  0
    1.7215   19.9939   35.0692 C   0  0  1  0  0  0  0  0  0  0  0  0
    1.8607   20.1380   33.6695 O   0  0  0  0  0  0  0  0  0  0  0  0
   -2.7523   13.3730   38.9397 C   0  0  1  0  0  0  0  0  0  0  0  0
   -2.1552   14.4414   38.2102 O   0  0  0  0  0  0  0  0  0  0  0  0
    1.0948   16.4315   38.3761 C   0  0  2  0  0  0  0  0  0  0  0  0
    0.1840   16.7199   37.2955 O   0  0  0  0  0  0  0  0  0  0  0  0
    0.8692   18.7182   35.3406 C   0  0  0  0  0  0  0  0  0  0  0  0
    1.6557   17.4773   34.9550 O   0  0  0  0  0  0  0  0  0  0  0  0
   -2.6728   12.0373   38.2398 C   0  0  0  0  0  0  0  0  0  0  0  0
   -1.2749   11.6787   38.1943 O   0  0  0  0  0  0  0  0  0  0  0  0
    2.5140   16.1037   37.7734 C   0  0  1  0  0  0  0  0  0  0  0  0
    2.9603   17.2367   37.0703 O   0  0  0  0  0  0  0  0  0  0  0  0
    0.8709   21.1944   35.5040 C   0  0  0  0  0  0  0  0  0  0  0  0
    4.8547   21.5212   36.6819 C   0  0  0  0  0  0  0  0  0  0  0  0
  1  2  1  1  0  0  0
  1  6  1  0  0  0  0
  1 21  1  0  0  0  0
  3  4  1  6  0  0  0
  3  8  1  0  0  0  0
  3 28  1  0  0  0  0
  5  9  1  0  0  0  0
  5 25  1  0  0  0  0
  5 29  1  1  0  0  0
  6  7  1  1  0  0  0
  6 11  1  0  0  0  0
  8 12  1  0  0  0  0
  9 10  1  1  0  0  0
  9 14  1  0  0  0  0
 11 16  1  0  0  0  0
 12 13  1  6  0  0  0
 12 17  1  0  0  0  0
 14 15  1  6  0  0  0
 14 18  1  0  0  0  0
 15 31  1  0  0  0  0
 16 20  1  0  0  0  0
 17  2  1  1  0  0  0
 17 22  1  0  0  0  0
 18 19  1  6  0  0  0
 18 24  1  0  0  0  0
 18 30  1  0  0  0  0
 20 21  1  0  0  0  0
 20 26  1  1  0  0  0
 22 23  1  6  0  0  0
 22 28  1  0  0  0  0
 24 25  1  0  0  0  0
 26 27  1  0  0  0  0
 28 29  1  1  0  0  0
M  END
>  <CHROM.1>
-174.63566753,-166.07505687,-94.23268771,-173.46330082,-113.40939543,134.38613982
0.92589091,16.61684277,37.75382871,2.21800561,-0.01859841,2.53606638

>  <Name>
ligand

>  <RI>
0

>  <Rbt.Current_Directory>
/home/itssahil/PROJECTS/Mol_Feturizer/New_Systems/rnas/4GPY

>  <Rbt.Executable>
rbdock ($Id: //depot/dev/client3/rdock/2013.1/src/exe/rbdock.cxx#4 $)

>  <Rbt.Library>
libRbt.so (2013.1, Build901 2013/11/27)

>  <Rbt.Parameter_File>
/export/apps/rDock/src/rDock_2013.1_src/data/scripts/dock_solv.prm

>  <Rbt.Receptor>
prm/pocket_docking_8.prm

>  <SCORE>
-13.3671

>  <SCORE.INTER>
-11.0093

>  <SCORE.INTER.CONST>
1

>  <SCORE.INTER.POLAR>
0

>  <SCORE.INTER.ROT>
6

>  <SCORE.INTER.SOLV>
15.331

>  <SCORE.INTER.VDW>
-20.0499

>  <SCORE.INTER.norm>
-0.35514

>  <SCORE.INTRA>
-2.35774

>  <SCORE.INTRA.DIHEDRAL>
-4.74309

>  <SCORE.INTRA.DIHEDRAL.0>
14.7001

>  <SCORE.INTRA.POLAR>
0

>  <SCORE.INTRA.POLAR.0>
0

>  <SCORE.INTRA.REPUL>
0

>  <SCORE.INTRA.REPUL.0>
0

>  <SCORE.INTRA.SOLV>
-1.67669

>  <SCORE.INTRA.SOLV.lig_0>
-65.3082

>  <SCORE.INTRA.VDW>
0.852157

>  <SCORE.INTRA.VDW.0>
-4.21408

>  <SCORE.INTRA.norm>
-0.076056

>  <SCORE.RESTR>
0

>  <SCORE.RESTR.CAVITY>
0

>  <SCORE.RESTR.norm>
0

>  <SCORE.SYSTEM>
0

>  <SCORE.SYSTEM.CONST>
0

>  <SCORE.SYSTEM.DIHEDRAL>
0

>  <SCORE.SYSTEM.SOLV>
0

>  <SCORE.SYSTEM.norm>
0

>  <SCORE.heavy>
31

>  <SCORE.norm>
-0.431196

>  <RMSD>
8.805

$$$$
ligand
 OpenBabel11021811493D
libRbt.so/2013.1/901 2013/11/27
 31 33  0  0  0  0  0  0  0  0999 V2000
    4.9173   12.7327   37.2225 C   0  0  2  0  0  0  0  0  0  0  0  0
    3.5165   12.9160   37.2970 O   0  0  0  0  0  0  0  0  0  0  0  0
    1.2785   16.5247   37.4672 C   0  0  2  0  0  0  0  0  0  0  0  0
    0.6875   17.7077   37.9944 N   0  0  0  0  0  0  0  0  0  0  0  0
    3.1746   17.8281   35.3758 C   0  0  2  0  0  0  0  0  0  0  0  0
    5.2134   11.1706   37.2427 C   0  0  2  0  0  0  0  0  0  0  0  0
    4.5183   10.5372   36.1273 N   0  0  0  0  0  0  0  0  0  0  0  0
    0.7544   15.2838   38.3188 C   0  0  0  0  0  0  0  0  0  0  0  0
    3.9643   19.1223   34.9851 C   0  0  2  0  0  0  0  0  0  0  0  0
    5.2865   19.0084   35.4668 O   0  0  0  0  0  0  0  0  0  0  0  0
    4.7731   10.5423   38.6158 C   0  0  0  0  0  0  0  0  0  0  0  0
    1.3992   13.9665   37.7217 C   0  0  2  0  0  0  0  0  0  0  0  0
    0.9214   12.8142   38.4870 N   0  0  0  0  0  0  0  0  0  0  0  0
    3.2397   20.3614   35.6264 C   0  0  1  0  0  0  0  0  0  0  0  0
    3.9841   21.6147   35.2807 N   0  0  0  0  0  0  0  0  0  0  0  0
    5.1178   11.4945   39.8367 C   0  0  0  0  0  0  0  0  0  0  0  0
    2.9754   14.0724   37.8287 C   0  0  2  0  0  0  0  0  0  0  0  0
    1.7278   20.4510   35.0312 C   0  0  1  0  0  0  0  0  0  0  0  0
    1.6910   20.6105   33.6267 O   0  0  0  0  0  0  0  0  0  0  0  0
    5.4817   12.7849   39.6395 C   0  0  1  0  0  0  0  0  0  0  0  0
    5.5858   13.3811   38.3495 O   0  0  0  0  0  0  0  0  0  0  0  0
    3.4845   15.3235   36.9985 C   0  0  2  0  0  0  0  0  0  0  0  0
    4.9190   15.4204   37.1137 O   0  0  0  0  0  0  0  0  0  0  0  0
    0.9601   19.1432   35.3888 C   0  0  0  0  0  0  0  0  0  0  0  0
    1.7372   17.9346   34.8963 O   0  0  0  0  0  0  0  0  0  0  0  0
    5.8106   13.7254   40.7743 C   0  0  0  0  0  0  0  0  0  0  0  0
    4.9176   14.8528   40.6468 O   0  0  0  0  0  0  0  0  0  0  0  0
    2.8356   16.6327   37.5899 C   0  0  1  0  0  0  0  0  0  0  0  0
    3.2964   17.7259   36.8352 O   0  0  0  0  0  0  0  0  0  0  0  0
    0.8946   21.6166   35.5799 C   0  0  0  0  0  0  0  0  0  0  0  0
    4.9900   22.0697   36.2628 C   0  0  0  0  0  0  0  0  0  0  0  0
  1  2  1  1  0  0  0
  1  6  1  0  0  0  0
  1 21  1  0  0  0  0
  3  4  1  1  0  0  0
  3  8  1  0  0  0  0
  3 28  1  0  0  0  0
  5  9  1  0  0  0  0
  5 25  1  0  0  0  0
  5 29  1  1  0  0  0
  6  7  1  6  0  0  0
  6 11  1  0  0  0  0
  8 12  1  0  0  0  0
  9 10  1  1  0  0  0
  9 14  1  0  0  0  0
 11 16  1  0  0  0  0
 12 13  1  1  0  0  0
 12 17  1  0  0  0  0
 14 15  1  6  0  0  0
 14 18  1  0  0  0  0
 15 31  1  0  0  0  0
 16 20  1  0  0  0  0
 17  2  1  6  0  0  0
 17 22  1  0  0  0  0
 18 19  1  6  0  0  0
 18 24  1  0  0  0  0
 18 30  1  0  0  0  0
 20 21  1  0  0  0  0
 20 26  1  1  0  0  0
 22 23  1  1  0  0  0
 22 28  1  0  0  0  0
 24 25  1  0  0  0  0
 26 27  1  0  0  0  0
 28 29  1  6  0  0  0
M  END
>  <CHROM.1>
153.55373704,-173.77405111,-93.47960586,178.40713629,-122.75134962,-63.74789443
3.37830448,16.14385663,37.07842161,-1.35275167,-0.18636239,-0.33905729

>  <Name>
ligand

>  <RI>
0

>  <Rbt.Current_Directory>
/home/itssahil/PROJECTS/Mol_Feturizer/New_Systems/rnas/4GPY

>  <Rbt.Executable>
rbdock ($Id: //depot/dev/client3/rdock/2013.1/src/exe/rbdock.cxx#4 $)

>  <Rbt.Library>
libRbt.so (2013.1, Build901 2013/11/27)

>  <Rbt.Parameter_File>
/export/apps/rDock/src/rDock_2013.1_src/data/scripts/dock_solv.prm

>  <Rbt.Receptor>
prm/blind_docking_80.prm

>  <SCORE>
-10.7039

>  <SCORE.INTER>
-11.0678

>  <SCORE.INTER.CONST>
1

>  <SCORE.INTER.POLAR>
0

>  <SCORE.INTER.ROT>
6

>  <SCORE.INTER.SOLV>
14.4158

>  <SCORE.INTER.VDW>
-19.7838

>  <SCORE.INTER.norm>
-0.357025

>  <SCORE.INTRA>
-2.10531

>  <SCORE.INTRA.DIHEDRAL>
-9.0873

>  <SCORE.INTRA.DIHEDRAL.0>
14.7001

>  <SCORE.INTRA.POLAR>
0

>  <SCORE.INTRA.POLAR.0>
0

>  <SCORE.INTRA.REPUL>
0

>  <SCORE.INTRA.REPUL.0>
0

>  <SCORE.INTRA.SOLV>
0.495509

>  <SCORE.INTRA.SOLV.lig_0>
-65.3082

>  <SCORE.INTRA.VDW>
2.19059

>  <SCORE.INTRA.VDW.0>
-4.21408

>  <SCORE.INTRA.norm>
-0.0679132

>  <SCORE.RESTR>
2.46916

>  <SCORE.RESTR.CAVITY>
2.46916

>  <SCORE.RESTR.norm>
0.0796504

>  <SCORE.SYSTEM>
0

>  <SCORE.SYSTEM.CONST>
0

>  <SCORE.SYSTEM.DIHEDRAL>
0

>  <SCORE.SYSTEM.SOLV>
0

>  <SCORE.SYSTEM.norm>
0

>  <SCORE.heavy>
31

>  <SCORE.norm>
-0.345287

>  <RMSD>
8.808

$$$$
ligand
 OpenBabel11021811493D
libRbt.so/2013.1/901 2013/11/27
 31 33  0  0  0  0  0  0  0  0999 V2000
    5.2109   13.9756   37.7643 C   0  0  2  0  0  0  0  0  0  0  0  0
    3.9257   13.8150   37.1954 O   0  0  0  0  0  0  0  0  0  0  0  0
    1.0581   16.5668   35.6904 C   0  0  2  0  0  0  0  0  0  0  0  0
    0.0922   17.6124   35.6674 N   0  0  0  0  0  0  0  0  0  0  0  0
    3.3228   19.4711   35.6994 C   0  0  2  0  0  0  0  0  0  0  0  0
    5.6111   12.6109   38.4753 C   0  0  2  0  0  0  0  0  0  0  0  0
    5.5778   11.5321   37.4936 N   0  0  0  0  0  0  0  0  0  0  0  0
    0.5514   15.4426   36.6999 C   0  0  0  0  0  0  0  0  0  0  0  0
    2.0173   20.2480   36.0779 C   0  0  2  0  0  0  0  0  0  0  0  0
    1.3295   19.5195   37.0727 O   0  0  0  0  0  0  0  0  0  0  0  0
    4.6454   12.3114   39.6802 C   0  0  0  0  0  0  0  0  0  0  0  0
    1.6181   14.2723   36.7127 C   0  0  2  0  0  0  0  0  0  0  0  0
    1.1643   13.2254   37.6291 N   0  0  0  0  0  0  0  0  0  0  0  0
    1.1352   20.4007   34.7856 C   0  0  1  0  0  0  0  0  0  0  0  0
   -0.1302   21.1286   35.1224 N   0  0  0  0  0  0  0  0  0  0  0  0
    4.2909   13.6273   40.4918 C   0  0  0  0  0  0  0  0  0  0  0  0
    3.0097   14.8513   37.1977 C   0  0  2  0  0  0  0  0  0  0  0  0
    1.9693   21.2536   33.6788 C   0  0  1  0  0  0  0  0  0  0  0  0
    2.3138   22.5519   34.1204 O   0  0  0  0  0  0  0  0  0  0  0  0
    4.5798   14.8558   39.9981 C   0  0  1  0  0  0  0  0  0  0  0  0
    5.2140   15.0649   38.7395 O   0  0  0  0  0  0  0  0  0  0  0  0
    3.4933   15.9853   36.2008 C   0  0  2  0  0  0  0  0  0  0  0  0
    4.7538   16.5167   36.6583 O   0  0  0  0  0  0  0  0  0  0  0  0
    3.2864   20.4950   33.3363 C   0  0  0  0  0  0  0  0  0  0  0  0
    4.0702   20.2169   34.6073 O   0  0  0  0  0  0  0  0  0  0  0  0
    4.2525   16.1322   40.7357 C   0  0  0  0  0  0  0  0  0  0  0  0
    2.8829   16.0132   41.1771 O   0  0  0  0  0  0  0  0  0  0  0  0
    2.4265   17.1457   36.1841 C   0  0  1  0  0  0  0  0  0  0  0  0
    2.8734   18.1348   35.2903 O   0  0  0  0  0  0  0  0  0  0  0  0
    1.2289   21.4742   32.3533 C   0  0  0  0  0  0  0  0  0  0  0  0
    0.0085   22.3100   35.9990 C   0  0  0  0  0  0  0  0  0  0  0  0
  1  2  1  1  0  0  0
  1  6  1  0  0  0  0
  1 21  1  0  0  0  0
  3  4  1  1  0  0  0
  3  8  1  0  0  0  0
  3 28  1  0  0  0  0
  5  9  1  0  0  0  0
  5 25  1  0  0  0  0
  5 29  1  6  0  0  0
  6  7  1  6  0  0  0
  6 11  1  0  0  0  0
  8 12  1  0  0  0  0
  9 10  1  1  0  0  0
  9 14  1  0  0  0  0
 11 16  1  0  0  0  0
 12 13  1  1  0  0  0
 12 17  1  0  0  0  0
 14 15  1  1  0  0  0
 14 18  1  0  0  0  0
 15 31  1  0  0  0  0
 16 20  1  0  0  0  0
 17  2  1  6  0  0  0
 17 22  1  0  0  0  0
 18 19  1  1  0  0  0
 18 24  1  0  0  0  0
 18 30  1  0  0  0  0
 20 21  1  0  0  0  0
 20 26  1  6  0  0  0
 22 23  1  1  0  0  0
 22 28  1  0  0  0  0
 24 25  1  0  0  0  0
 26 27  1  0  0  0  0
 28 29  1  6  0  0  0
M  END
>  <CHROM.1>
142.81017055,-74.19165353,43.60781606,-170.74679352,-47.60784053,130.16341725
2.84153177,17.10072224,36.73214199,-1.18505091,0.63808619,-0.77071891

>  <Name>
ligand

>  <RI>
0

>  <Rbt.Current_Directory>
/home/itssahil/PROJECTS/Mol_Feturizer/New_Systems/rnas/4GPY

>  <Rbt.Executable>
rbdock ($Id: //depot/dev/client3/rdock/2013.1/src/exe/rbdock.cxx#4 $)

>  <Rbt.Library>
libRbt.so (2013.1, Build901 2013/11/27)

>  <Rbt.Parameter_File>
/export/apps/rDock/src/rDock_2013.1_src/data/scripts/dock_solv.prm

>  <Rbt.Receptor>
prm/blind_docking_80.prm

>  <SCORE>
4.16094

>  <SCORE.INTER>
-4.6306

>  <SCORE.INTER.CONST>
1

>  <SCORE.INTER.POLAR>
0

>  <SCORE.INTER.ROT>
6

>  <SCORE.INTER.SOLV>
19.5911

>  <SCORE.INTER.VDW>
-17.2174

>  <SCORE.INTER.norm>
-0.149374

>  <SCORE.INTRA>
5.95283

>  <SCORE.INTRA.DIHEDRAL>
1.89581

>  <SCORE.INTRA.DIHEDRAL.0>
14.7001

>  <SCORE.INTRA.POLAR>
0

>  <SCORE.INTRA.POLAR.0>
0

>  <SCORE.INTRA.REPUL>
0

>  <SCORE.INTRA.REPUL.0>
0

>  <SCORE.INTRA.SOLV>
2.02033

>  <SCORE.INTRA.SOLV.lig_0>
-65.3082

>  <SCORE.INTRA.VDW>
3.99476

>  <SCORE.INTRA.VDW.0>
-4.21408

>  <SCORE.INTRA.norm>
0.192027

>  <SCORE.RESTR>
2.83871

>  <SCORE.RESTR.CAVITY>
2.83871

>  <SCORE.RESTR.norm>
0.0915712

>  <SCORE.SYSTEM>
0

>  <SCORE.SYSTEM.CONST>
0

>  <SCORE.SYSTEM.DIHEDRAL>
0

>  <SCORE.SYSTEM.SOLV>
0

>  <SCORE.SYSTEM.norm>
0

>  <SCORE.heavy>
31

>  <SCORE.norm>
0.134224

>  <RMSD>
8.831

$$$$
ligand
 OpenBabel11021811493D
libRbt.so/2013.1/901 2013/11/27
 31 33  0  0  0  0  0  0  0  0999 V2000
    4.9692   12.7459   37.2652 C   0  0  2  0  0  0  0  0  0  0  0  0
    3.5663   12.9221   37.3130 O   0  0  0  0  0  0  0  0  0  0  0  0
    1.3139   16.5234   37.4459 C   0  0  2  0  0  0  0  0  0  0  0  0
    0.7070   17.7023   37.9640 N   0  0  0  0  0  0  0  0  0  0  0  0
    3.2614   17.8382   35.4048 C   0  0  2  0  0  0  0  0  0  0  0  0
    5.2696   11.1862   37.1949 C   0  0  2  0  0  0  0  0  0  0  0  0
    4.6069   10.6234   36.0232 N   0  0  0  0  0  0  0  0  0  0  0  0
    0.7737   15.2773   38.2796 C   0  0  0  0  0  0  0  0  0  0  0  0
    4.0273   19.1547   35.0420 C   0  0  2  0  0  0  0  0  0  0  0  0
    5.3372   19.0742   35.5625 O   0  0  0  0  0  0  0  0  0  0  0  0
    4.7944   10.4717   38.5131 C   0  0  0  0  0  0  0  0  0  0  0  0
    1.4364   13.9645   37.6922 C   0  0  2  0  0  0  0  0  0  0  0  0
    0.9442   12.8075   38.4411 N   0  0  0  0  0  0  0  0  0  0  0  0
    3.2510   20.3713   35.6655 C   0  0  1  0  0  0  0  0  0  0  0  0
    3.9715   21.6455   35.3463 N   0  0  0  0  0  0  0  0  0  0  0  0
    5.1029   11.3454   39.8005 C   0  0  0  0  0  0  0  0  0  0  0  0
    3.0094   14.0746   37.8368 C   0  0  2  0  0  0  0  0  0  0  0  0
    1.7556   20.4230   35.0258 C   0  0  1  0  0  0  0  0  0  0  0  0
    1.7563   20.5872   33.6214 O   0  0  0  0  0  0  0  0  0  0  0  0
    5.4679   12.6463   39.6951 C   0  0  1  0  0  0  0  0  0  0  0  0
    5.6049   13.3228   38.4487 O   0  0  0  0  0  0  0  0  0  0  0  0
    3.5340   15.3308   37.0242 C   0  0  2  0  0  0  0  0  0  0  0  0
    4.9651   15.4316   37.1735 O   0  0  0  0  0  0  0  0  0  0  0  0
    1.0130   19.0937   35.3560 C   0  0  0  0  0  0  0  0  0  0  0  0
    1.8365   17.9083   34.8829 O   0  0  0  0  0  0  0  0  0  0  0  0
    5.7630   13.5136   40.8955 C   0  0  0  0  0  0  0  0  0  0  0  0
    4.9976   14.7261   40.7257 O   0  0  0  0  0  0  0  0  0  0  0  0
    2.8673   16.6355   37.6057 C   0  0  1  0  0  0  0  0  0  0  0  0
    3.3424   17.7333   36.8668 O   0  0  0  0  0  0  0  0  0  0  0  0
    0.8755   21.5636   35.5532 C   0  0  0  0  0  0  0  0  0  0  0  0
    4.9750   22.0943   36.3338 C   0  0  0  0  0  0  0  0  0  0  0  0
  1  2  1  1  0  0  0
  1  6  1  0  0  0  0
  1 21  1  0  0  0  0
  3  4  1  1  0  0  0
  3  8  1  0  0  0  0
  3 28  1  0  0  0  0
  5  9  1  0  0  0  0
  5 25  1  0  0  0  0
  5 29  1  1  0  0  0
  6  7  1  6  0  0  0
  6 11  1  0  0  0  0
  8 12  1  0  0  0  0
  9 10  1  1  0  0  0
  9 14  1  0  0  0  0
 11 16  1  0  0  0  0
 12 13  1  1  0  0  0
 12 17  1  0  0  0  0
 14 15  1  6  0  0  0
 14 18  1  0  0  0  0
 15 31  1  0  0  0  0
 16 20  1  0  0  0  0
 17  2  1  6  0  0  0
 17 22  1  0  0  0  0
 18 19  1  6  0  0  0
 18 24  1  0  0  0  0
 18 30  1  0  0  0  0
 20 21  1  0  0  0  0
 20 26  1  1  0  0  0
 22 23  1  1  0  0  0
 22 28  1  0  0  0  0
 24 25  1  0  0  0  0
 26 27  1  0  0  0  0
 28 29  1  6  0  0  0
M  END
>  <CHROM.1>
157.07391607,-174.95403299,-91.08026896,178.11583388,-130.01380105,-64.09798145
3.41239550,16.12322436,37.09162815,-1.35101758,-0.21124407,-0.33189182

>  <Name>
ligand

>  <RI>
0

>  <Rbt.Current_Directory>
/home/itssahil/PROJECTS/Mol_Feturizer/New_Systems/rnas/4GPY

>  <Rbt.Executable>
rbdock ($Id: //depot/dev/client3/rdock/2013.1/src/exe/rbdock.cxx#4 $)

>  <Rbt.Library>
libRbt.so (2013.1, Build901 2013/11/27)

>  <Rbt.Parameter_File>
/export/apps/rDock/src/rDock_2013.1_src/data/scripts/dock_solv.prm

>  <Rbt.Receptor>
prm/blind_docking_80.prm

>  <SCORE>
-11.1202

>  <SCORE.INTER>
-11.2096

>  <SCORE.INTER.CONST>
1

>  <SCORE.INTER.POLAR>
0

>  <SCORE.INTER.ROT>
6

>  <SCORE.INTER.SOLV>
14.6998

>  <SCORE.INTER.VDW>
-19.973

>  <SCORE.INTER.norm>
-0.3616

>  <SCORE.INTRA>
-2.55536

>  <SCORE.INTRA.DIHEDRAL>
-9.72666

>  <SCORE.INTRA.DIHEDRAL.0>
14.7001

>  <SCORE.INTRA.POLAR>
0

>  <SCORE.INTRA.POLAR.0>
0

>  <SCORE.INTRA.REPUL>
0

>  <SCORE.INTRA.REPUL.0>
0

>  <SCORE.INTRA.SOLV>
0.439129

>  <SCORE.INTRA.SOLV.lig_0>
-65.3082

>  <SCORE.INTRA.VDW>
2.08841

>  <SCORE.INTRA.VDW.0>
-4.21408

>  <SCORE.INTRA.norm>
-0.0824308

>  <SCORE.RESTR>
2.64473

>  <SCORE.RESTR.CAVITY>
2.64473

>  <SCORE.RESTR.norm>
0.0853137

>  <SCORE.SYSTEM>
0

>  <SCORE.SYSTEM.CONST>
0

>  <SCORE.SYSTEM.DIHEDRAL>
0

>  <SCORE.SYSTEM.SOLV>
0

>  <SCORE.SYSTEM.norm>
0

>  <SCORE.heavy>
31

>  <SCORE.norm>
-0.358717

>  <RMSD>
8.834

$$$$
ligand
 OpenBabel11021811493D
libRbt.so/2013.1/901 2013/11/27
 31 33  0  0  0  0  0  0  0  0999 V2000
    5.5755   12.9185   37.5565 C   0  0  2  0  0  0  0  0  0  0  0  0
    4.3332   13.2094   36.9455 O   0  0  0  0  0  0  0  0  0  0  0  0
    1.5582   16.4280   36.9503 C   0  0  2  0  0  0  0  0  0  0  0  0
    0.6767   17.4325   37.4409 N   0  0  0  0  0  0  0  0  0  0  0  0
    3.8080   18.2148   35.5797 C   0  0  2  0  0  0  0  0  0  0  0  0
    5.5815   11.3797   37.9569 C   0  0  2  0  0  0  0  0  0  0  0  0
    5.3569   10.5733   36.7619 N   0  0  0  0  0  0  0  0  0  0  0  0
    1.0617   15.0173   37.5010 C   0  0  0  0  0  0  0  0  0  0  0  0
    4.0689   19.7560   35.4907 C   0  0  2  0  0  0  0  0  0  0  0  0
    5.0584   20.1027   36.4361 O   0  0  0  0  0  0  0  0  0  0  0  0
    4.4894   11.0890   39.0508 C   0  0  0  0  0  0  0  0  0  0  0  0
    2.0328   13.8985   36.9417 C   0  0  2  0  0  0  0  0  0  0  0  0
    1.5862   12.5935   37.4308 N   0  0  0  0  0  0  0  0  0  0  0  0
    2.7211   20.5080   35.7897 C   0  0  1  0  0  0  0  0  0  0  0  0
    2.9453   21.9880   35.7263 N   0  0  0  0  0  0  0  0  0  0  0  0
    4.4082   12.2526   40.1257 C   0  0  0  0  0  0  0  0  0  0  0  0
    3.5030   14.1937   37.4500 C   0  0  2  0  0  0  0  0  0  0  0  0
    1.6220   20.0809   34.6683 C   0  0  1  0  0  0  0  0  0  0  0  0
    2.0148   20.4095   33.3503 O   0  0  0  0  0  0  0  0  0  0  0  0
    5.0206   13.4436   39.9185 C   0  0  1  0  0  0  0  0  0  0  0  0
    5.7739   13.7438   38.7469 O   0  0  0  0  0  0  0  0  0  0  0  0
    3.9785   15.6093   36.9172 C   0  0  2  0  0  0  0  0  0  0  0  0
    5.3122   15.8760   37.3970 O   0  0  0  0  0  0  0  0  0  0  0  0
    1.3968   18.5406   34.7350 C   0  0  0  0  0  0  0  0  0  0  0  0
    2.7241   17.8158   34.5930 O   0  0  0  0  0  0  0  0  0  0  0  0
    4.9614   14.5786   40.9129 C   0  0  0  0  0  0  0  0  0  0  0  0
    4.2363   15.6502   40.2720 O   0  0  0  0  0  0  0  0  0  0  0  0
    3.0061   16.7205   37.4691 C   0  0  1  0  0  0  0  0  0  0  0  0
    3.4436   17.9638   36.9794 O   0  0  0  0  0  0  0  0  0  0  0  0
    0.2458   20.7366   34.8420 C   0  0  0  0  0  0  0  0  0  0  0  0
    3.5813   22.5009   34.4951 C   0  0  0  0  0  0  0  0  0  0  0  0
  1  2  1  1  0  0  0
  1  6  1  0  0  0  0
  1 21  1  0  0  0  0
  3  4  1  1  0  0  0
  3  8  1  0  0  0  0
  3 28  1  0  0  0  0
  5  9  1  0  0  0  0
  5 25  1  0  0  0  0
  5 29  1  1  0  0  0
  6  7  1  6  0  0  0
  6 11  1  0  0  0  0
  8 12  1  0  0  0  0
  9 10  1  1  0  0  0
  9 14  1  0  0  0  0
 11 16  1  0  0  0  0
 12 13  1  1  0  0  0
 12 17  1  0  0  0  0
 14 15  1  6  0  0  0
 14 18  1  0  0  0  0
 15 31  1  0  0  0  0
 16 20  1  0  0  0  0
 17  2  1  6  0  0  0
 17 22  1  0  0  0  0
 18 19  1  6  0  0  0
 18 24  1  0  0  0  0
 18 30  1  0  0  0  0
 20 21  1  0  0  0  0
 20 26  1  6  0  0  0
 22 23  1  1  0  0  0
 22 28  1  0  0  0  0
 24 25  1  0  0  0  0
 26 27  1  0  0  0  0
 28 29  1  6  0  0  0
M  END
>  <CHROM.1>
122.60686186,173.83238415,52.83152758,-158.24358567,-114.85984588,-71.78621208
3.44090251,16.33871144,36.97378377,-1.28957792,-0.53811549,-0.27790463

>  <Name>
ligand

>  <RI>
0

>  <Rbt.Current_Directory>
/home/itssahil/PROJECTS/Mol_Feturizer/New_Systems/rnas/4GPY

>  <Rbt.Executable>
rbdock ($Id: //depot/dev/client3/rdock/2013.1/src/exe/rbdock.cxx#4 $)

>  <Rbt.Library>
libRbt.so (2013.1, Build901 2013/11/27)

>  <Rbt.Parameter_File>
/export/apps/rDock/src/rDock_2013.1_src/data/scripts/dock_solv.prm

>  <Rbt.Receptor>
prm/blind_docking_80.prm

>  <SCORE>
-3.72314

>  <SCORE.INTER>
-9.6533

>  <SCORE.INTER.CONST>
1

>  <SCORE.INTER.POLAR>
0

>  <SCORE.INTER.ROT>
6

>  <SCORE.INTER.SOLV>
15.5991

>  <SCORE.INTER.VDW>
-19.2352

>  <SCORE.INTER.norm>
-0.311397

>  <SCORE.INTRA>
3.21102

>  <SCORE.INTRA.DIHEDRAL>
-2.82652

>  <SCORE.INTRA.DIHEDRAL.0>
14.7001

>  <SCORE.INTRA.POLAR>
0

>  <SCORE.INTRA.POLAR.0>
0

>  <SCORE.INTRA.REPUL>
0

>  <SCORE.INTRA.REPUL.0>
0

>  <SCORE.INTRA.SOLV>
3.1303

>  <SCORE.INTRA.SOLV.lig_0>
-65.3082

>  <SCORE.INTRA.VDW>
3.05913

>  <SCORE.INTRA.VDW.0>
-4.21408

>  <SCORE.INTRA.norm>
0.103581

>  <SCORE.RESTR>
2.71913

>  <SCORE.RESTR.CAVITY>
2.71913

>  <SCORE.RESTR.norm>
0.0877139

>  <SCORE.SYSTEM>
0

>  <SCORE.SYSTEM.CONST>
0

>  <SCORE.SYSTEM.DIHEDRAL>
0

>  <SCORE.SYSTEM.SOLV>
0

>  <SCORE.SYSTEM.norm>
0

>  <SCORE.heavy>
31

>  <SCORE.norm>
-0.120101

>  <RMSD>
8.834

$$$$
ligand
 OpenBabel11021811493D
libRbt.so/2013.1/901 2013/11/27
 31 33  0  0  0  0  0  0  0  0999 V2000
    4.9484   12.7859   37.2594 C   0  0  2  0  0  0  0  0  0  0  0  0
    3.5460   12.9468   37.3528 O   0  0  0  0  0  0  0  0  0  0  0  0
    1.2891   16.5465   37.4475 C   0  0  2  0  0  0  0  0  0  0  0  0
    0.6864   17.7337   37.9514 N   0  0  0  0  0  0  0  0  0  0  0  0
    3.1974   17.8335   35.3613 C   0  0  2  0  0  0  0  0  0  0  0  0
    5.2614   11.2312   37.1460 C   0  0  2  0  0  0  0  0  0  0  0  0
    4.5692   10.6872   35.9825 N   0  0  0  0  0  0  0  0  0  0  0  0
    0.7609   15.3148   38.3098 C   0  0  0  0  0  0  0  0  0  0  0  0
    3.9890   19.1236   34.9609 C   0  0  2  0  0  0  0  0  0  0  0  0
    5.3078   19.0164   35.4535 O   0  0  0  0  0  0  0  0  0  0  0  0
    4.8328   10.4836   38.4618 C   0  0  0  0  0  0  0  0  0  0  0  0
    1.4189   13.9926   37.7384 C   0  0  2  0  0  0  0  0  0  0  0  0
    0.9376   12.8486   38.5137 N   0  0  0  0  0  0  0  0  0  0  0  0
    3.2591   20.3697   35.5821 C   0  0  1  0  0  0  0  0  0  0  0  0
    4.0052   21.6193   35.2269 N   0  0  0  0  0  0  0  0  0  0  0  0
    5.1715   11.3324   39.7583 C   0  0  0  0  0  0  0  0  0  0  0  0
    2.9933   14.1077   37.8623 C   0  0  2  0  0  0  0  0  0  0  0  0
    1.7515   20.4512   34.9749 C   0  0  1  0  0  0  0  0  0  0  0  0
    1.7248   20.5938   33.5684 O   0  0  0  0  0  0  0  0  0  0  0  0
    5.5207   12.6388   39.6706 C   0  0  1  0  0  0  0  0  0  0  0  0
    5.6139   13.3435   38.4357 O   0  0  0  0  0  0  0  0  0  0  0  0
    3.5061   15.3498   37.0210 C   0  0  2  0  0  0  0  0  0  0  0  0
    4.9387   15.4554   37.1516 O   0  0  0  0  0  0  0  0  0  0  0  0
    0.9820   19.1472   35.3424 C   0  0  0  0  0  0  0  0  0  0  0  0
    1.7634   17.9333   34.8700 O   0  0  0  0  0  0  0  0  0  0  0  0
    5.8435   13.4830   40.8804 C   0  0  0  0  0  0  0  0  0  0  0  0
    4.9467   14.6141   40.8444 O   0  0  0  0  0  0  0  0  0  0  0  0
    2.8441   16.6638   37.5868 C   0  0  1  0  0  0  0  0  0  0  0  0
    3.3086   17.7488   36.8226 O   0  0  0  0  0  0  0  0  0  0  0  0
    0.9135   21.6226   35.5035 C   0  0  0  0  0  0  0  0  0  0  0  0
    5.0089   22.0826   36.2074 C   0  0  0  0  0  0  0  0  0  0  0  0
  1  2  1  1  0  0  0
  1  6  1  0  0  0  0
  1 21  1  0  0  0  0
  3  4  1  1  0  0  0
  3  8  1  0  0  0  0
  3 28  1  0  0  0  0
  5  9  1  0  0  0  0
  5 25  1  0  0  0  0
  5 29  1  1  0  0  0
  6  7  1  6  0  0  0
  6 11  1  0  0  0  0
  8 12  1  0  0  0  0
  9 10  1  1  0  0  0
  9 14  1  0  0  0  0
 11 16  1  0  0  0  0
 12 13  1  1  0  0  0
 12 17  1  0  0  0  0
 14 15  1  6  0  0  0
 14 18  1  0  0  0  0
 15 31  1  0  0  0  0
 16 20  1  0  0  0  0
 17  2  1  6  0  0  0
 17 22  1  0  0  0  0
 18 19  1  6  0  0  0
 18 24  1  0  0  0  0
 18 30  1  0  0  0  0
 20 21  1  0  0  0  0
 20 26  1  1  0  0  0
 22 23  1  1  0  0  0
 22 28  1  0  0  0  0
 24 25  1  0  0  0  0
 26 27  1  0  0  0  0
 28 29  1  6  0  0  0
M  END
>  <CHROM.1>
160.04592082,-173.70957123,-93.15494638,176.45328889,-123.29693877,-63.42637418
3.40367414,16.13415441,37.06760994,-1.34946564,-0.16983914,-0.35086637

>  <Name>
ligand

>  <RI>
0

>  <Rbt.Current_Directory>
/home/itssahil/PROJECTS/Mol_Feturizer/New_Systems/rnas/4GPY

>  <Rbt.Executable>
rbdock ($Id: //depot/dev/client3/rdock/2013.1/src/exe/rbdock.cxx#4 $)

>  <Rbt.Library>
libRbt.so (2013.1, Build901 2013/11/27)

>  <Rbt.Parameter_File>
/export/apps/rDock/src/rDock_2013.1_src/data/scripts/dock_solv.prm

>  <Rbt.Receptor>
prm/blind_docking_80.prm

>  <SCORE>
-11.2063

>  <SCORE.INTER>
-10.9775

>  <SCORE.INTER.CONST>
1

>  <SCORE.INTER.POLAR>
0

>  <SCORE.INTER.ROT>
6

>  <SCORE.INTER.SOLV>
14.8651

>  <SCORE.INTER.VDW>
-19.8733

>  <SCORE.INTER.norm>
-0.354112

>  <SCORE.INTRA>
-2.90129

>  <SCORE.INTRA.DIHEDRAL>
-10.1923

>  <SCORE.INTRA.DIHEDRAL.0>
14.7001

>  <SCORE.INTRA.POLAR>
0

>  <SCORE.INTRA.POLAR.0>
0

>  <SCORE.INTRA.REPUL>
0

>  <SCORE.INTRA.REPUL.0>
0

>  <SCORE.INTRA.SOLV>
0.206264

>  <SCORE.INTRA.SOLV.lig_0>
-65.3082

>  <SCORE.INTRA.VDW>
2.09172

>  <SCORE.INTRA.VDW.0>
-4.21408

>  <SCORE.INTRA.norm>
-0.0935902

>  <SCORE.RESTR>
2.67244

>  <SCORE.RESTR.CAVITY>
2.67244

>  <SCORE.RESTR.norm>
0.0862078

>  <SCORE.SYSTEM>
0

>  <SCORE.SYSTEM.CONST>
0

>  <SCORE.SYSTEM.DIHEDRAL>
0

>  <SCORE.SYSTEM.SOLV>
0

>  <SCORE.SYSTEM.norm>
0

>  <SCORE.heavy>
31

>  <SCORE.norm>
-0.361494

>  <RMSD>
8.846

$$$$
ligand
 OpenBabel11021811493D
libRbt.so/2013.1/901 2013/11/27
 31 33  0  0  0  0  0  0  0  0999 V2000
   -1.7835   15.5227   38.8824 C   0  0  2  0  0  0  0  0  0  0  0  0
   -0.6274   15.4792   39.6966 O   0  0  0  0  0  0  0  0  0  0  0  0
    3.5374   15.8645   38.9444 C   0  0  2  0  0  0  0  0  0  0  0  0
    4.8335   15.5871   38.4246 N   0  0  0  0  0  0  0  0  0  0  0  0
    2.9479   17.3867   35.5752 C   0  0  2  0  0  0  0  0  0  0  0  0
   -2.9918   16.0562   39.7675 C   0  0  2  0  0  0  0  0  0  0  0  0
   -2.6496   17.3695   40.3030 N   0  0  0  0  0  0  0  0  0  0  0  0
    3.0443   14.5878   39.7608 C   0  0  0  0  0  0  0  0  0  0  0  0
    3.8530   18.6161   35.2279 C   0  0  2  0  0  0  0  0  0  0  0  0
    5.1386   18.3989   35.7694 O   0  0  0  0  0  0  0  0  0  0  0  0
   -3.3213   15.0409   40.9227 C   0  0  0  0  0  0  0  0  0  0  0  0
    1.6097   14.9031   40.3526 C   0  0  2  0  0  0  0  0  0  0  0  0
    1.1442   13.7432   41.1140 N   0  0  0  0  0  0  0  0  0  0  0  0
    3.1979   19.9068   35.8414 C   0  0  1  0  0  0  0  0  0  0  0  0
    4.0527   21.0989   35.5368 N   0  0  0  0  0  0  0  0  0  0  0  0
   -3.2198   13.5363   40.4310 C   0  0  0  0  0  0  0  0  0  0  0  0
    0.6154   15.2013   39.1570 C   0  0  2  0  0  0  0  0  0  0  0  0
    1.7268   20.1148   35.1775 C   0  0  1  0  0  0  0  0  0  0  0  0
    1.7677   20.2788   33.7737 O   0  0  0  0  0  0  0  0  0  0  0  0
   -2.6449   13.2228   39.2445 C   0  0  1  0  0  0  0  0  0  0  0  0
   -2.0985   14.1950   38.3577 O   0  0  0  0  0  0  0  0  0  0  0  0
    1.1275   16.4577   38.3368 C   0  0  2  0  0  0  0  0  0  0  0  0
    0.2241   16.7128   37.2418 O   0  0  0  0  0  0  0  0  0  0  0  0
    0.8441   18.8702   35.4926 C   0  0  0  0  0  0  0  0  0  0  0  0
    1.5469   17.6055   35.0304 O   0  0  0  0  0  0  0  0  0  0  0  0
   -2.5222   11.8034   38.7440 C   0  0  0  0  0  0  0  0  0  0  0  0
   -3.4691   11.6646   37.6628 O   0  0  0  0  0  0  0  0  0  0  0  0
    2.5587   16.1444   37.7549 C   0  0  1  0  0  0  0  0  0  0  0  0
    2.9935   17.2731   37.0381 O   0  0  0  0  0  0  0  0  0  0  0  0
    0.9621   21.3409   35.6931 C   0  0  0  0  0  0  0  0  0  0  0  0
    4.8560   21.6309   36.6571 C   0  0  0  0  0  0  0  0  0  0  0  0
  1  2  1  1  0  0  0
  1  6  1  0  0  0  0
  1 21  1  0  0  0  0
  3  4  1  6  0  0  0
  3  8  1  0  0  0  0
  3 28  1  0  0  0  0
  5  9  1  0  0  0  0
  5 25  1  0  0  0  0
  5 29  1  1  0  0  0
  6  7  1  1  0  0  0
  6 11  1  0  0  0  0
  8 12  1  0  0  0  0
  9 10  1  1  0  0  0
  9 14  1  0  0  0  0
 11 16  1  0  0  0  0
 12 13  1  6  0  0  0
 12 17  1  0  0  0  0
 14 15  1  6  0  0  0
 14 18  1  0  0  0  0
 15 31  1  0  0  0  0
 16 20  1  0  0  0  0
 17  2  1  1  0  0  0
 17 22  1  0  0  0  0
 18 19  1  6  0  0  0
 18 24  1  0  0  0  0
 18 30  1  0  0  0  0
 20 21  1  0  0  0  0
 20 26  1  1  0  0  0
 22 23  1  6  0  0  0
 22 28  1  0  0  0  0
 24 25  1  0  0  0  0
 26 27  1  0  0  0  0
 28 29  1  1  0  0  0
M  END
>  <CHROM.1>
-172.41428421,-165.79204865,-104.82993168,-167.21234733,107.71045687,140.46135601
0.87200819,16.64085667,37.76529152,2.23608173,0.04767598,2.51007046

>  <Name>
ligand

>  <RI>
0

>  <Rbt.Current_Directory>
/home/itssahil/PROJECTS/Mol_Feturizer/New_Systems/rnas/4GPY

>  <Rbt.Executable>
rbdock ($Id: //depot/dev/client3/rdock/2013.1/src/exe/rbdock.cxx#4 $)

>  <Rbt.Library>
libRbt.so (2013.1, Build901 2013/11/27)

>  <Rbt.Parameter_File>
/export/apps/rDock/src/rDock_2013.1_src/data/scripts/dock_solv.prm

>  <Rbt.Receptor>
prm/pocket_docking_6.prm

>  <SCORE>
-12.6251

>  <SCORE.INTER>
-10.3257

>  <SCORE.INTER.CONST>
1

>  <SCORE.INTER.POLAR>
0

>  <SCORE.INTER.ROT>
6

>  <SCORE.INTER.SOLV>
16.7867

>  <SCORE.INTER.VDW>
-20.0794

>  <SCORE.INTER.norm>
-0.333089

>  <SCORE.INTRA>
-2.29934

>  <SCORE.INTRA.DIHEDRAL>
-4.47718

>  <SCORE.INTRA.DIHEDRAL.0>
14.7001

>  <SCORE.INTRA.POLAR>
0

>  <SCORE.INTRA.POLAR.0>
0

>  <SCORE.INTRA.REPUL>
0

>  <SCORE.INTRA.REPUL.0>
0

>  <SCORE.INTRA.SOLV>
-1.64594

>  <SCORE.INTRA.SOLV.lig_0>
-65.3082

>  <SCORE.INTRA.VDW>
0.762218

>  <SCORE.INTRA.VDW.0>
-4.21408

>  <SCORE.INTRA.norm>
-0.0741723

>  <SCORE.RESTR>
0

>  <SCORE.RESTR.CAVITY>
0

>  <SCORE.RESTR.norm>
0

>  <SCORE.SYSTEM>
0

>  <SCORE.SYSTEM.CONST>
0

>  <SCORE.SYSTEM.DIHEDRAL>
0

>  <SCORE.SYSTEM.SOLV>
0

>  <SCORE.SYSTEM.norm>
0

>  <SCORE.heavy>
31

>  <SCORE.norm>
-0.407261

>  <RMSD>
8.871

$$$$
ligand
 OpenBabel11021811493D
libRbt.so/2013.1/901 2013/11/27
 31 33  0  0  0  0  0  0  0  0999 V2000
    3.4890   11.6962   37.8568 C   0  0  2  0  0  0  0  0  0  0  0  0
    3.7442   12.9756   37.3097 O   0  0  0  0  0  0  0  0  0  0  0  0
    1.2775   16.4297   37.0988 C   0  0  2  0  0  0  0  0  0  0  0  0
    0.5297   17.5662   37.5183 N   0  0  0  0  0  0  0  0  0  0  0  0
    3.3971   17.8810   35.3568 C   0  0  2  0  0  0  0  0  0  0  0  0
    4.7993   11.2131   38.6170 C   0  0  2  0  0  0  0  0  0  0  0  0
    5.1436   12.1894   39.6450 N   0  0  0  0  0  0  0  0  0  0  0  0
    0.7000   15.1484   37.8498 C   0  0  0  0  0  0  0  0  0  0  0  0
    4.1912   19.2065   35.1043 C   0  0  2  0  0  0  0  0  0  0  0  0
    5.4236   19.1332   35.7891 O   0  0  0  0  0  0  0  0  0  0  0  0
    5.9853   11.0149   37.6030 C   0  0  0  0  0  0  0  0  0  0  0  0
    1.5213   13.8822   37.3705 C   0  0  2  0  0  0  0  0  0  0  0  0
    0.9980   12.6931   38.0444 N   0  0  0  0  0  0  0  0  0  0  0  0
    3.3296   20.4119   35.6299 C   0  0  1  0  0  0  0  0  0  0  0  0
    4.0734   21.6945   35.4145 N   0  0  0  0  0  0  0  0  0  0  0  0
    5.4947   10.3614   36.2434 C   0  0  0  0  0  0  0  0  0  0  0  0
    3.0465   14.0887   37.7421 C   0  0  2  0  0  0  0  0  0  0  0  0
    1.9289   20.4558   34.8028 C   0  0  1  0  0  0  0  0  0  0  0  0
    2.1093   20.6304   33.4113 O   0  0  0  0  0  0  0  0  0  0  0  0
    4.1762   10.2712   35.9435 C   0  0  1  0  0  0  0  0  0  0  0  0
    3.1431   10.7418   36.8046 O   0  0  0  0  0  0  0  0  0  0  0  0
    3.6050   15.3791   37.0096 C   0  0  2  0  0  0  0  0  0  0  0  0
    4.9900   15.5675   37.3653 O   0  0  0  0  0  0  0  0  0  0  0  0
    1.1622   19.1178   35.0260 C   0  0  0  0  0  0  0  0  0  0  0  0
    2.0509   17.9429   34.6557 O   0  0  0  0  0  0  0  0  0  0  0  0
    3.6687    9.6633   34.6578 C   0  0  0  0  0  0  0  0  0  0  0  0
    2.6736   10.5710   34.1376 O   0  0  0  0  0  0  0  0  0  0  0  0
    2.7811   16.6371   37.4826 C   0  0  1  0  0  0  0  0  0  0  0  0
    3.2898   17.7659   36.8163 O   0  0  0  0  0  0  0  0  0  0  0  0
    0.9774   21.5850   35.2194 C   0  0  0  0  0  0  0  0  0  0  0  0
    4.9893   22.1090   36.4974 C   0  0  0  0  0  0  0  0  0  0  0  0
  1  2  1  6  0  0  0
  1  6  1  0  0  0  0
  1 21  1  0  0  0  0
  3  4  1  1  0  0  0
  3  8  1  0  0  0  0
  3 28  1  0  0  0  0
  5  9  1  0  0  0  0
  5 25  1  0  0  0  0
  5 29  1  1  0  0  0
  6  7  1  1  0  0  0
  6 11  1  0  0  0  0
  8 12  1  0  0  0  0
  9 10  1  1  0  0  0
  9 14  1  0  0  0  0
 11 16  1  0  0  0  0
 12 13  1  1  0  0  0
 12 17  1  0  0  0  0
 14 15  1  6  0  0  0
 14 18  1  0  0  0  0
 15 31  1  0  0  0  0
 16 20  1  0  0  0  0
 17  2  1  6  0  0  0
 17 22  1  0  0  0  0
 18 19  1  6  0  0  0
 18 24  1  0  0  0  0
 18 30  1  0  0  0  0
 20 21  1  0  0  0  0
 20 26  1  6  0  0  0
 22 23  1  1  0  0  0
 22 28  1  0  0  0  0
 24 25  1  0  0  0  0
 26 27  1  0  0  0  0
 28 29  1  6  0  0  0
M  END
>  <CHROM.1>
-115.48332781,-172.37913397,-88.07667216,-63.81713852,-133.44127616,-63.12710033
3.19588223,15.69636917,36.42334548,-1.45612876,-0.22885204,-0.14135960

>  <Name>
ligand

>  <RI>
0

>  <Rbt.Current_Directory>
/home/itssahil/PROJECTS/Mol_Feturizer/New_Systems/rnas/4GPY

>  <Rbt.Executable>
rbdock ($Id: //depot/dev/client3/rdock/2013.1/src/exe/rbdock.cxx#4 $)

>  <Rbt.Library>
libRbt.so (2013.1, Build901 2013/11/27)

>  <Rbt.Parameter_File>
/export/apps/rDock/src/rDock_2013.1_src/data/scripts/dock_solv.prm

>  <Rbt.Receptor>
prm/blind_docking_80.prm

>  <SCORE>
-4.2579

>  <SCORE.INTER>
-10.154

>  <SCORE.INTER.CONST>
1

>  <SCORE.INTER.POLAR>
0

>  <SCORE.INTER.ROT>
6

>  <SCORE.INTER.SOLV>
13.6625

>  <SCORE.INTER.VDW>
-18.9235

>  <SCORE.INTER.norm>
-0.32755

>  <SCORE.INTRA>
0.589822

>  <SCORE.INTRA.DIHEDRAL>
-4.74238

>  <SCORE.INTRA.DIHEDRAL.0>
14.7001

>  <SCORE.INTRA.POLAR>
0

>  <SCORE.INTRA.POLAR.0>
0

>  <SCORE.INTRA.REPUL>
0

>  <SCORE.INTRA.REPUL.0>
0

>  <SCORE.INTRA.SOLV>
1.90314

>  <SCORE.INTRA.SOLV.lig_0>
-65.3082

>  <SCORE.INTRA.VDW>
2.00945

>  <SCORE.INTRA.VDW.0>
-4.21408

>  <SCORE.INTRA.norm>
0.0190265

>  <SCORE.RESTR>
5.30631

>  <SCORE.RESTR.CAVITY>
5.30631

>  <SCORE.RESTR.norm>
0.171171

>  <SCORE.SYSTEM>
0

>  <SCORE.SYSTEM.CONST>
0

>  <SCORE.SYSTEM.DIHEDRAL>
0

>  <SCORE.SYSTEM.SOLV>
0

>  <SCORE.SYSTEM.norm>
0

>  <SCORE.heavy>
31

>  <SCORE.norm>
-0.137352

>  <RMSD>
8.898

$$$$
ligand
 OpenBabel11021811493D
libRbt.so/2013.1/901 2013/11/27
 31 33  0  0  0  0  0  0  0  0999 V2000
    5.2975   12.7257   37.6427 C   0  0  2  0  0  0  0  0  0  0  0  0
    3.8867   12.7969   37.5646 O   0  0  0  0  0  0  0  0  0  0  0  0
    1.3396   16.1968   37.4514 C   0  0  2  0  0  0  0  0  0  0  0  0
    0.6035   17.3312   37.8963 N   0  0  0  0  0  0  0  0  0  0  0  0
    3.2829   17.6353   35.5069 C   0  0  2  0  0  0  0  0  0  0  0  0
    5.7355   11.2304   37.3263 C   0  0  2  0  0  0  0  0  0  0  0  0
    5.2408   10.8559   36.0058 N   0  0  0  0  0  0  0  0  0  0  0  0
    0.8496   14.9280   38.2818 C   0  0  0  0  0  0  0  0  0  0  0  0
    4.0395   18.9599   35.1541 C   0  0  2  0  0  0  0  0  0  0  0  0
    5.3240   18.9166   35.7384 O   0  0  0  0  0  0  0  0  0  0  0  0
    5.1968   10.2507   38.4327 C   0  0  0  0  0  0  0  0  0  0  0  0
    1.6570   13.6634   37.7752 C   0  0  2  0  0  0  0  0  0  0  0  0
    1.2131   12.4856   38.5217 N   0  0  0  0  0  0  0  0  0  0  0  0
    3.2102   20.1723   35.7143 C   0  0  1  0  0  0  0  0  0  0  0  0
    3.9202   21.4545   35.4037 N   0  0  0  0  0  0  0  0  0  0  0  0
    5.3026   10.8847   39.8828 C   0  0  0  0  0  0  0  0  0  0  0  0
    3.2021   13.9093   38.0191 C   0  0  2  0  0  0  0  0  0  0  0  0
    1.7468   20.1806   35.0027 C   0  0  1  0  0  0  0  0  0  0  0  0
    1.8121   20.3170   33.5969 O   0  0  0  0  0  0  0  0  0  0  0  0
    5.5635   12.2034   40.0551 C   0  0  1  0  0  0  0  0  0  0  0  0
    5.7631   13.1101   38.9742 O   0  0  0  0  0  0  0  0  0  0  0  0
    3.6743   15.1873   37.2083 C   0  0  2  0  0  0  0  0  0  0  0  0
    5.0788   15.4119   37.4480 O   0  0  0  0  0  0  0  0  0  0  0  0
    1.0153   18.8430   35.3244 C   0  0  0  0  0  0  0  0  0  0  0  0
    1.8838   17.6657   34.9160 O   0  0  0  0  0  0  0  0  0  0  0  0
    5.6650   12.8467   41.4175 C   0  0  0  0  0  0  0  0  0  0  0  0
    6.9860   13.4231   41.5034 O   0  0  0  0  0  0  0  0  0  0  0  0
    2.8641   16.4433   37.7092 C   0  0  1  0  0  0  0  0  0  0  0  0
    3.2952   17.5610   36.9730 O   0  0  0  0  0  0  0  0  0  0  0  0
    0.8200   21.3130   35.4636 C   0  0  0  0  0  0  0  0  0  0  0  0
    4.8052   21.9848   36.4616 C   0  0  0  0  0  0  0  0  0  0  0  0
  1  2  1  1  0  0  0
  1  6  1  0  0  0  0
  1 21  1  0  0  0  0
  3  4  1  1  0  0  0
  3  8  1  0  0  0  0
  3 28  1  0  0  0  0
  5  9  1  0  0  0  0
  5 25  1  0  0  0  0
  5 29  1  1  0  0  0
  6  7  1  6  0  0  0
  6 11  1  0  0  0  0
  8 12  1  0  0  0  0
  9 10  1  1  0  0  0
  9 14  1  0  0  0  0
 11 16  1  0  0  0  0
 12 13  1  1  0  0  0
 12 17  1  0  0  0  0
 14 15  1  6  0  0  0
 14 18  1  0  0  0  0
 15 31  1  0  0  0  0
 16 20  1  0  0  0  0
 17  2  1  6  0  0  0
 17 22  1  0  0  0  0
 18 19  1  6  0  0  0
 18 24  1  0  0  0  0
 18 30  1  0  0  0  0
 20 21  1  0  0  0  0
 20 26  1  6  0  0  0
 22 23  1  1  0  0  0
 22 28  1  0  0  0  0
 24 25  1  0  0  0  0
 26 27  1  0  0  0  0
 28 29  1  6  0  0  0
M  END
>  <CHROM.1>
168.48895053,-171.86495554,-94.56232368,179.64064753,121.22999730,-63.00475571
3.58561895,15.86665231,37.23703631,-1.28263832,-0.30602553,-0.33337070

>  <Name>
ligand

>  <RI>
0

>  <Rbt.Current_Directory>
/home/itssahil/PROJECTS/Mol_Feturizer/New_Systems/rnas/4GPY

>  <Rbt.Executable>
rbdock ($Id: //depot/dev/client3/rdock/2013.1/src/exe/rbdock.cxx#4 $)

>  <Rbt.Library>
libRbt.so (2013.1, Build901 2013/11/27)

>  <Rbt.Parameter_File>
/export/apps/rDock/src/rDock_2013.1_src/data/scripts/dock_solv.prm

>  <Rbt.Receptor>
prm/pocket_docking_7.prm

>  <SCORE>
-16.5935

>  <SCORE.INTER>
-12.5465

>  <SCORE.INTER.CONST>
1

>  <SCORE.INTER.POLAR>
0

>  <SCORE.INTER.ROT>
6

>  <SCORE.INTER.SOLV>
16.1583

>  <SCORE.INTER.VDW>
-21.3505

>  <SCORE.INTER.norm>
-0.404727

>  <SCORE.INTRA>
-4.047

>  <SCORE.INTRA.DIHEDRAL>
-11.2653

>  <SCORE.INTRA.DIHEDRAL.0>
14.7001

>  <SCORE.INTRA.POLAR>
0

>  <SCORE.INTRA.POLAR.0>
0

>  <SCORE.INTRA.REPUL>
0

>  <SCORE.INTRA.REPUL.0>
0

>  <SCORE.INTRA.SOLV>
-0.369977

>  <SCORE.INTRA.SOLV.lig_0>
-65.3082

>  <SCORE.INTRA.VDW>
1.77064

>  <SCORE.INTRA.VDW.0>
-4.21408

>  <SCORE.INTRA.norm>
-0.130549

>  <SCORE.RESTR>
0

>  <SCORE.RESTR.CAVITY>
0

>  <SCORE.RESTR.norm>
0

>  <SCORE.SYSTEM>
0

>  <SCORE.SYSTEM.CONST>
0

>  <SCORE.SYSTEM.DIHEDRAL>
0

>  <SCORE.SYSTEM.SOLV>
0

>  <SCORE.SYSTEM.norm>
0

>  <SCORE.heavy>
31

>  <SCORE.norm>
-0.535276

>  <RMSD>
8.902

$$$$
ligand
 OpenBabel11021811493D
libRbt.so/2013.1/901 2013/11/27
 31 33  0  0  0  0  0  0  0  0999 V2000
    0.7482    8.5884   36.0525 C   0  0  2  0  0  0  0  0  0  0  0  0
    1.7412    8.4614   35.0529 O   0  0  0  0  0  0  0  0  0  0  0  0
    4.8066   10.9198   36.6713 C   0  0  2  0  0  0  0  0  0  0  0  0
    6.0035   11.6867   36.7501 N   0  0  0  0  0  0  0  0  0  0  0  0
    3.0299   13.2286   37.3137 C   0  0  2  0  0  0  0  0  0  0  0  0
    0.1141    7.1523   36.3049 C   0  0  2  0  0  0  0  0  0  0  0  0
    1.1701    6.2250   36.6968 N   0  0  0  0  0  0  0  0  0  0  0  0
    5.1937    9.4350   36.2413 C   0  0  0  0  0  0  0  0  0  0  0  0
    2.0525   14.4294   37.0811 C   0  0  2  0  0  0  0  0  0  0  0  0
    1.0528   14.0287   36.1682 O   0  0  0  0  0  0  0  0  0  0  0  0
   -0.6369    6.6459   35.0190 C   0  0  0  0  0  0  0  0  0  0  0  0
    3.8638    8.5782   36.1698 C   0  0  2  0  0  0  0  0  0  0  0  0
    4.2016    7.2074   35.7844 N   0  0  0  0  0  0  0  0  0  0  0  0
    2.8771   15.6408   36.5119 C   0  0  1  0  0  0  0  0  0  0  0  0
    1.9623   16.8012   36.2649 N   0  0  0  0  0  0  0  0  0  0  0  0
   -1.4295    7.8169   34.3004 C   0  0  0  0  0  0  0  0  0  0  0  0
    2.8962    9.2211   35.0939 C   0  0  2  0  0  0  0  0  0  0  0  0
    4.0054   16.0669   37.6044 C   0  0  1  0  0  0  0  0  0  0  0  0
    3.4565   16.4652   38.8451 O   0  0  0  0  0  0  0  0  0  0  0  0
   -1.2192    9.1138   34.6325 C   0  0  1  0  0  0  0  0  0  0  0  0
   -0.2926    9.5258   35.6334 O   0  0  0  0  0  0  0  0  0  0  0  0
    2.5365   10.7058   35.5181 C   0  0  2  0  0  0  0  0  0  0  0  0
    1.6671   11.2880   34.5254 O   0  0  0  0  0  0  0  0  0  0  0  0
    4.9504   14.8552   37.8614 C   0  0  0  0  0  0  0  0  0  0  0  0
    4.1360   13.6399   38.2702 O   0  0  0  0  0  0  0  0  0  0  0  0
   -1.9475   10.2576   33.9678 C   0  0  0  0  0  0  0  0  0  0  0  0
   -0.9379   11.0868   33.3530 O   0  0  0  0  0  0  0  0  0  0  0  0
    3.8625   11.5548   35.5958 C   0  0  1  0  0  0  0  0  0  0  0  0
    3.5194   12.8634   35.9787 O   0  0  0  0  0  0  0  0  0  0  0  0
    4.8971   17.2396   37.1759 C   0  0  0  0  0  0  0  0  0  0  0  0
    2.0497   17.4304   34.9308 C   0  0  0  0  0  0  0  0  0  0  0  0
  1  2  1  6  0  0  0
  1  6  1  0  0  0  0
  1 21  1  0  0  0  0
  3  4  1  6  0  0  0
  3  8  1  0  0  0  0
  3 28  1  0  0  0  0
  5  9  1  0  0  0  0
  5 25  1  0  0  0  0
  5 29  1  6  0  0  0
  6  7  1  6  0  0  0
  6 11  1  0  0  0  0
  8 12  1  0  0  0  0
  9 10  1  6  0  0  0
  9 14  1  0  0  0  0
 11 16  1  0  0  0  0
 12 13  1  6  0  0  0
 12 17  1  0  0  0  0
 14 15  1  1  0  0  0
 14 18  1  0  0  0  0
 15 31  1  0  0  0  0
 16 20  1  0  0  0  0
 17  2  1  1  0  0  0
 17 22  1  0  0  0  0
 18 19  1  1  0  0  0
 18 24  1  0  0  0  0
 18 30  1  0  0  0  0
 20 21  1  0  0  0  0
 20 26  1  6  0  0  0
 22 23  1  6  0  0  0
 22 28  1  0  0  0  0
 24 25  1  0  0  0  0
 26 27  1  0  0  0  0
 28 29  1  1  0  0  0
M  END
>  <CHROM.1>
-144.63718747,-148.05465040,-129.50171214,77.71847789,-119.70812231,-48.94605657
2.24759183,11.59995135,36.03359420,1.97670137,0.38968542,-3.06269368

>  <Name>
ligand

>  <RI>
0

>  <Rbt.Current_Directory>
/home/itssahil/PROJECTS/Mol_Feturizer/New_Systems/rnas/4GPY

>  <Rbt.Executable>
rbdock ($Id: //depot/dev/client3/rdock/2013.1/src/exe/rbdock.cxx#4 $)

>  <Rbt.Library>
libRbt.so (2013.1, Build901 2013/11/27)

>  <Rbt.Parameter_File>
/export/apps/rDock/src/rDock_2013.1_src/data/scripts/dock_solv.prm

>  <Rbt.Receptor>
prm/pocket_docking_8.prm

>  <SCORE>
-10.6587

>  <SCORE.INTER>
-12.2901

>  <SCORE.INTER.CONST>
1

>  <SCORE.INTER.POLAR>
0

>  <SCORE.INTER.ROT>
6

>  <SCORE.INTER.SOLV>
12.8227

>  <SCORE.INTER.VDW>
-20.0676

>  <SCORE.INTER.norm>
-0.396453

>  <SCORE.INTRA>
1.63139

>  <SCORE.INTRA.DIHEDRAL>
-1.29473

>  <SCORE.INTRA.DIHEDRAL.0>
14.7001

>  <SCORE.INTRA.POLAR>
0

>  <SCORE.INTRA.POLAR.0>
0

>  <SCORE.INTRA.REPUL>
0.0035675

>  <SCORE.INTRA.REPUL.0>
0

>  <SCORE.INTRA.SOLV>
2.4806

>  <SCORE.INTRA.SOLV.lig_0>
-65.3082

>  <SCORE.INTRA.VDW>
1.02061

>  <SCORE.INTRA.VDW.0>
-4.21408

>  <SCORE.INTRA.norm>
0.0526254

>  <SCORE.RESTR>
0

>  <SCORE.RESTR.CAVITY>
0

>  <SCORE.RESTR.norm>
0

>  <SCORE.SYSTEM>
0

>  <SCORE.SYSTEM.CONST>
0

>  <SCORE.SYSTEM.DIHEDRAL>
0

>  <SCORE.SYSTEM.SOLV>
0

>  <SCORE.SYSTEM.norm>
0

>  <SCORE.heavy>
31

>  <SCORE.norm>
-0.343828

>  <RMSD>
8.917

$$$$
ligand
 OpenBabel11021811493D
libRbt.so/2013.1/901 2013/11/27
 31 33  0  0  0  0  0  0  0  0999 V2000
    1.9821    6.8645   37.0731 C   0  0  2  0  0  0  0  0  0  0  0  0
    2.7645    6.6411   38.2304 O   0  0  0  0  0  0  0  0  0  0  0  0
    1.6096    9.9969   40.5680 C   0  0  2  0  0  0  0  0  0  0  0  0
    1.4567   10.8513   41.6965 N   0  0  0  0  0  0  0  0  0  0  0  0
    5.1417   11.2704   39.7152 C   0  0  2  0  0  0  0  0  0  0  0  0
    2.1754    5.6234   36.0983 C   0  0  2  0  0  0  0  0  0  0  0  0
    1.7859    4.4022   36.7951 N   0  0  0  0  0  0  0  0  0  0  0  0
    0.9570    8.5861   40.9191 C   0  0  0  0  0  0  0  0  0  0  0  0
    5.5262   12.5187   40.5783 C   0  0  2  0  0  0  0  0  0  0  0  0
    5.1764   12.2647   41.9223 O   0  0  0  0  0  0  0  0  0  0  0  0
    3.6641    5.5405   35.5974 C   0  0  0  0  0  0  0  0  0  0  0  0
    1.1127    7.6415   39.6578 C   0  0  2  0  0  0  0  0  0  0  0  0
    0.5102    6.3424   39.9595 N   0  0  0  0  0  0  0  0  0  0  0  0
    4.7482   13.7673   40.0238 C   0  0  1  0  0  0  0  0  0  0  0  0
    5.0861   14.9756   40.8425 N   0  0  0  0  0  0  0  0  0  0  0  0
    4.2607    6.9763   35.2834 C   0  0  0  0  0  0  0  0  0  0  0  0
    2.6530    7.4632   39.3369 C   0  0  2  0  0  0  0  0  0  0  0  0
    5.1948   14.0204   38.4796 C   0  0  1  0  0  0  0  0  0  0  0  0
    6.5779   14.2761   38.3348 O   0  0  0  0  0  0  0  0  0  0  0  0
    3.6238    8.1037   35.6831 C   0  0  1  0  0  0  0  0  0  0  0  0
    2.3922    8.0956   36.3996 O   0  0  0  0  0  0  0  0  0  0  0  0
    3.2981    8.8748   39.0127 C   0  0  2  0  0  0  0  0  0  0  0  0
    4.7034    8.7046   38.7362 O   0  0  0  0  0  0  0  0  0  0  0  0
    4.8461   12.7589   37.6342 C   0  0  0  0  0  0  0  0  0  0  0  0
    5.4792   11.5264   38.2564 O   0  0  0  0  0  0  0  0  0  0  0  0
    4.1617    9.4882   35.4105 C   0  0  0  0  0  0  0  0  0  0  0  0
    5.4551    9.5604   36.0483 O   0  0  0  0  0  0  0  0  0  0  0  0
    3.1353    9.8157   40.2670 C   0  0  1  0  0  0  0  0  0  0  0  0
    3.7085   11.0609   39.9540 O   0  0  0  0  0  0  0  0  0  0  0  0
    4.5032   15.2109   37.8028 C   0  0  0  0  0  0  0  0  0  0  0  0
    3.9511   15.6643   41.4912 C   0  0  0  0  0  0  0  0  0  0  0  0
  1  2  1  1  0  0  0
  1  6  1  0  0  0  0
  1 21  1  0  0  0  0
  3  4  1  1  0  0  0
  3  8  1  0  0  0  0
  3 28  1  0  0  0  0
  5  9  1  0  0  0  0
  5 25  1  0  0  0  0
  5 29  1  6  0  0  0
  6  7  1  1  0  0  0
  6 11  1  0  0  0  0
  8 12  1  0  0  0  0
  9 10  1  1  0  0  0
  9 14  1  0  0  0  0
 11 16  1  0  0  0  0
 12 13  1  1  0  0  0
 12 17  1  0  0  0  0
 14 15  1  1  0  0  0
 14 18  1  0  0  0  0
 15 31  1  0  0  0  0
 16 20  1  0  0  0  0
 17  2  1  6  0  0  0
 17 22  1  0  0  0  0
 18 19  1  6  0  0  0
 18 24  1  0  0  0  0
 18 30  1  0  0  0  0
 20 21  1  0  0  0  0
 20 26  1  1  0  0  0
 22 23  1  1  0  0  0
 22 28  1  0  0  0  0
 24 25  1  0  0  0  0
 26 27  1  0  0  0  0
 28 29  1  6  0  0  0
M  END
>  <CHROM.1>
-170.90701191,-132.11085260,-121.92324573,47.69023722,-59.91575818,175.35992388
3.64114155,9.99917534,38.63173778,2.07551349,-0.90962181,-2.37612151

>  <Name>
ligand

>  <RI>
0

>  <Rbt.Current_Directory>
/home/itssahil/PROJECTS/Mol_Feturizer/New_Systems/rnas/4GPY

>  <Rbt.Executable>
rbdock ($Id: //depot/dev/client3/rdock/2013.1/src/exe/rbdock.cxx#4 $)

>  <Rbt.Library>
libRbt.so (2013.1, Build901 2013/11/27)

>  <Rbt.Parameter_File>
/export/apps/rDock/src/rDock_2013.1_src/data/scripts/dock_solv.prm

>  <Rbt.Receptor>
prm/pocket_docking_8.prm

>  <SCORE>
-2.83586

>  <SCORE.INTER>
-2.57598

>  <SCORE.INTER.CONST>
1

>  <SCORE.INTER.POLAR>
0

>  <SCORE.INTER.ROT>
6

>  <SCORE.INTER.SOLV>
9.10946

>  <SCORE.INTER.VDW>
-12.3538

>  <SCORE.INTER.norm>
-0.083096

>  <SCORE.INTRA>
-0.259884

>  <SCORE.INTRA.DIHEDRAL>
-2.16603

>  <SCORE.INTRA.DIHEDRAL.0>
14.7001

>  <SCORE.INTRA.POLAR>
0

>  <SCORE.INTRA.POLAR.0>
0

>  <SCORE.INTRA.REPUL>
0

>  <SCORE.INTRA.REPUL.0>
0

>  <SCORE.INTRA.SOLV>
0.129536

>  <SCORE.INTRA.SOLV.lig_0>
-65.3082

>  <SCORE.INTRA.VDW>
0.758362

>  <SCORE.INTRA.VDW.0>
-4.21408

>  <SCORE.INTRA.norm>
-0.00838336

>  <SCORE.RESTR>
0

>  <SCORE.RESTR.CAVITY>
0

>  <SCORE.RESTR.norm>
0

>  <SCORE.SYSTEM>
0

>  <SCORE.SYSTEM.CONST>
0

>  <SCORE.SYSTEM.DIHEDRAL>
0

>  <SCORE.SYSTEM.SOLV>
0

>  <SCORE.SYSTEM.norm>
0

>  <SCORE.heavy>
31

>  <SCORE.norm>
-0.0914794

>  <RMSD>
8.926

$$$$
ligand
 OpenBabel11021811493D
libRbt.so/2013.1/901 2013/11/27
 31 33  0  0  0  0  0  0  0  0999 V2000
    3.2668   12.9938   38.4115 C   0  0  2  0  0  0  0  0  0  0  0  0
    3.4764   14.3033   37.9190 O   0  0  0  0  0  0  0  0  0  0  0  0
    0.9555   16.9726   35.7790 C   0  0  2  0  0  0  0  0  0  0  0  0
   -0.1423   17.8311   35.4880 N   0  0  0  0  0  0  0  0  0  0  0  0
    3.1744   19.0806   35.5745 C   0  0  2  0  0  0  0  0  0  0  0  0
    4.4226   12.6663   39.4531 C   0  0  2  0  0  0  0  0  0  0  0  0
    4.4024   13.6620   40.5193 N   0  0  0  0  0  0  0  0  0  0  0  0
    0.3792   15.5301   36.1351 C   0  0  0  0  0  0  0  0  0  0  0  0
    3.2609   20.6403   35.4692 C   0  0  2  0  0  0  0  0  0  0  0  0
    3.6713   21.1560   36.7177 O   0  0  0  0  0  0  0  0  0  0  0  0
    5.8213   12.6332   38.7344 C   0  0  0  0  0  0  0  0  0  0  0  0
    1.6015   14.5714   36.4427 C   0  0  2  0  0  0  0  0  0  0  0  0
    1.0908   13.2380   36.7635 N   0  0  0  0  0  0  0  0  0  0  0  0
    1.8432   21.1930   35.0740 C   0  0  1  0  0  0  0  0  0  0  0  0
    1.8931   22.6874   34.9809 N   0  0  0  0  0  0  0  0  0  0  0  0
    5.7344   11.9446   37.3082 C   0  0  0  0  0  0  0  0  0  0  0  0
    2.4124   15.1518   37.6726 C   0  0  2  0  0  0  0  0  0  0  0  0
    1.4244   20.5766   33.6273 C   0  0  1  0  0  0  0  0  0  0  0  0
    2.3246   20.9224   32.5932 O   0  0  0  0  0  0  0  0  0  0  0  0
    4.5389   11.6953   36.7207 C   0  0  1  0  0  0  0  0  0  0  0  0
    3.2882   12.0200   37.3212 O   0  0  0  0  0  0  0  0  0  0  0  0
    2.9607   16.5964   37.3174 C   0  0  2  0  0  0  0  0  0  0  0  0
    3.6851   17.1228   38.4480 O   0  0  0  0  0  0  0  0  0  0  0  0
    1.3793   19.0225   33.7283 C   0  0  0  0  0  0  0  0  0  0  0  0
    2.7051   18.4982   34.2523 O   0  0  0  0  0  0  0  0  0  0  0  0
    4.4134   11.0486   35.3619 C   0  0  0  0  0  0  0  0  0  0  0  0
    4.6085    9.6318   35.5605 O   0  0  0  0  0  0  0  0  0  0  0  0
    1.7427   17.5470   37.0044 C   0  0  1  0  0  0  0  0  0  0  0  0
    2.2532   18.8180   36.6870 O   0  0  0  0  0  0  0  0  0  0  0  0
    0.0494   21.0263   33.1164 C   0  0  0  0  0  0  0  0  0  0  0  0
    0.7091   23.4139   35.4847 C   0  0  0  0  0  0  0  0  0  0  0  0
  1  2  1  6  0  0  0
  1  6  1  0  0  0  0
  1 21  1  0  0  0  0
  3  4  1  1  0  0  0
  3  8  1  0  0  0  0
  3 28  1  0  0  0  0
  5  9  1  0  0  0  0
  5 25  1  0  0  0  0
  5 29  1  1  0  0  0
  6  7  1  1  0  0  0
  6 11  1  0  0  0  0
  8 12  1  0  0  0  0
  9 10  1  1  0  0  0
  9 14  1  0  0  0  0
 11 16  1  0  0  0  0
 12 13  1  1  0  0  0
 12 17  1  0  0  0  0
 14 15  1  6  0  0  0
 14 18  1  0  0  0  0
 15 31  1  0  0  0  0
 16 20  1  0  0  0  0
 17  2  1  6  0  0  0
 17 22  1  0  0  0  0
 18 19  1  6  0  0  0
 18 24  1  0  0  0  0
 18 30  1  0  0  0  0
 20 21  1  0  0  0  0
 20 26  1  6  0  0  0
 22 23  1  1  0  0  0
 22 28  1  0  0  0  0
 24 25  1  0  0  0  0
 26 27  1  0  0  0  0
 28 29  1  6  0  0  0
M  END
>  <CHROM.1>
-142.03586359,170.54885751,-141.49532734,-68.14719583,79.06010530,-59.02064656
2.70280462,16.60111327,36.29772327,-1.02329747,-1.05378088,0.17539274

>  <Name>
ligand

>  <RI>
0

>  <Rbt.Current_Directory>
/home/itssahil/PROJECTS/Mol_Feturizer/New_Systems/rnas/4GPY

>  <Rbt.Executable>
rbdock ($Id: //depot/dev/client3/rdock/2013.1/src/exe/rbdock.cxx#4 $)

>  <Rbt.Library>
libRbt.so (2013.1, Build901 2013/11/27)

>  <Rbt.Parameter_File>
/export/apps/rDock/src/rDock_2013.1_src/data/scripts/dock_solv.prm

>  <Rbt.Receptor>
prm/blind_docking_100.prm

>  <SCORE>
10.6186

>  <SCORE.INTER>
3.64103

>  <SCORE.INTER.CONST>
1

>  <SCORE.INTER.POLAR>
0

>  <SCORE.INTER.ROT>
6

>  <SCORE.INTER.SOLV>
17.8515

>  <SCORE.INTER.VDW>
-11.1231

>  <SCORE.INTER.norm>
0.117453

>  <SCORE.INTRA>
3.83591

>  <SCORE.INTRA.DIHEDRAL>
-4.85657

>  <SCORE.INTRA.DIHEDRAL.0>
14.7001

>  <SCORE.INTRA.POLAR>
0

>  <SCORE.INTRA.POLAR.0>
0

>  <SCORE.INTRA.REPUL>
0

>  <SCORE.INTRA.REPUL.0>
0

>  <SCORE.INTRA.SOLV>
3.49908

>  <SCORE.INTRA.SOLV.lig_0>
-65.3082

>  <SCORE.INTRA.VDW>
4.51466

>  <SCORE.INTRA.VDW.0>
-4.21408

>  <SCORE.INTRA.norm>
0.123739

>  <SCORE.RESTR>
3.14166

>  <SCORE.RESTR.CAVITY>
3.14166

>  <SCORE.RESTR.norm>
0.101344

>  <SCORE.SYSTEM>
0

>  <SCORE.SYSTEM.CONST>
0

>  <SCORE.SYSTEM.DIHEDRAL>
0

>  <SCORE.SYSTEM.SOLV>
0

>  <SCORE.SYSTEM.norm>
0

>  <SCORE.heavy>
31

>  <SCORE.norm>
0.342536

>  <RMSD>
8.944

$$$$
ligand
 OpenBabel11021811493D
libRbt.so/2013.1/901 2013/11/27
 31 33  0  0  0  0  0  0  0  0999 V2000
   -1.3831   15.0495   40.5804 C   0  0  2  0  0  0  0  0  0  0  0  0
   -0.2667   15.8062   40.1534 O   0  0  0  0  0  0  0  0  0  0  0  0
    3.2849   15.0926   37.9314 C   0  0  2  0  0  0  0  0  0  0  0  0
    4.1422   14.6298   36.8933 N   0  0  0  0  0  0  0  0  0  0  0  0
    3.0868   17.4278   35.3409 C   0  0  2  0  0  0  0  0  0  0  0  0
   -2.4660   15.0657   39.4163 C   0  0  2  0  0  0  0  0  0  0  0  0
   -1.8697   14.5231   38.2003 N   0  0  0  0  0  0  0  0  0  0  0  0
    2.5317   13.8337   38.5539 C   0  0  0  0  0  0  0  0  0  0  0  0
    3.9877   18.7038   35.2332 C   0  0  2  0  0  0  0  0  0  0  0  0
    5.1799   18.4782   35.9551 O   0  0  0  0  0  0  0  0  0  0  0  0
   -3.0039   16.5250   39.1819 C   0  0  0  0  0  0  0  0  0  0  0  0
    1.5906   14.3470   39.7194 C   0  0  2  0  0  0  0  0  0  0  0  0
    0.8966   13.2016   40.3094 N   0  0  0  0  0  0  0  0  0  0  0  0
    3.1960   19.9250   35.8276 C   0  0  1  0  0  0  0  0  0  0  0  0
    4.0420   21.1591   35.7513 N   0  0  0  0  0  0  0  0  0  0  0  0
   -3.2047   17.3052   40.5483 C   0  0  0  0  0  0  0  0  0  0  0  0
    0.5392   15.3672   39.1187 C   0  0  2  0  0  0  0  0  0  0  0  0
    1.8403   20.1462   34.9551 C   0  0  1  0  0  0  0  0  0  0  0  0
    2.0943   20.4207   33.5916 O   0  0  0  0  0  0  0  0  0  0  0  0
   -2.6952   16.8286   41.7102 C   0  0  1  0  0  0  0  0  0  0  0  0
   -1.9559   15.6140   41.8014 O   0  0  0  0  0  0  0  0  0  0  0  0
    1.2990   16.6038   38.4805 C   0  0  2  0  0  0  0  0  0  0  0  0
    0.3346   17.5201   37.9232 O   0  0  0  0  0  0  0  0  0  0  0  0
    0.9670   18.8582   35.0336 C   0  0  0  0  0  0  0  0  0  0  0  0
    1.7812   17.6523   34.5976 O   0  0  0  0  0  0  0  0  0  0  0  0
   -2.8579   17.5442   43.0299 C   0  0  0  0  0  0  0  0  0  0  0  0
   -3.5675   16.6400   43.9039 O   0  0  0  0  0  0  0  0  0  0  0  0
    2.2407   16.0896   37.3257 C   0  0  1  0  0  0  0  0  0  0  0  0
    2.9069   17.2011   36.7801 O   0  0  0  0  0  0  0  0  0  0  0  0
    0.9581   21.3077   35.4309 C   0  0  0  0  0  0  0  0  0  0  0  0
    4.9551   21.3973   36.8883 C   0  0  0  0  0  0  0  0  0  0  0  0
  1  2  1  6  0  0  0
  1  6  1  0  0  0  0
  1 21  1  0  0  0  0
  3  4  1  6  0  0  0
  3  8  1  0  0  0  0
  3 28  1  0  0  0  0
  5  9  1  0  0  0  0
  5 25  1  0  0  0  0
  5 29  1  1  0  0  0
  6  7  1  6  0  0  0
  6 11  1  0  0  0  0
  8 12  1  0  0  0  0
  9 10  1  1  0  0  0
  9 14  1  0  0  0  0
 11 16  1  0  0  0  0
 12 13  1  6  0  0  0
 12 17  1  0  0  0  0
 14 15  1  6  0  0  0
 14 18  1  0  0  0  0
 15 31  1  0  0  0  0
 16 20  1  0  0  0  0
 17  2  1  1  0  0  0
 17 22  1  0  0  0  0
 18 19  1  6  0  0  0
 18 24  1  0  0  0  0
 18 30  1  0  0  0  0
 20 21  1  0  0  0  0
 20 26  1  6  0  0  0
 22 23  1  6  0  0  0
 22 28  1  0  0  0  0
 24 25  1  0  0  0  0
 26 27  1  0  0  0  0
 28 29  1  1  0  0  0
M  END
>  <CHROM.1>
-67.75778449,-174.96939637,-87.02378390,-83.39148967,119.75089144,105.37833509
0.91729965,17.13981157,38.07174635,-2.41653319,0.60315681,-0.45437831

>  <Name>
ligand

>  <RI>
0

>  <Rbt.Current_Directory>
/home/itssahil/PROJECTS/Mol_Feturizer/New_Systems/rnas/4GPY

>  <Rbt.Executable>
rbdock ($Id: //depot/dev/client3/rdock/2013.1/src/exe/rbdock.cxx#4 $)

>  <Rbt.Library>
libRbt.so (2013.1, Build901 2013/11/27)

>  <Rbt.Parameter_File>
/export/apps/rDock/src/rDock_2013.1_src/data/scripts/dock_solv.prm

>  <Rbt.Receptor>
prm/pocket_docking_8.prm

>  <SCORE>
-7.04051

>  <SCORE.INTER>
-7.49573

>  <SCORE.INTER.CONST>
1

>  <SCORE.INTER.POLAR>
0

>  <SCORE.INTER.ROT>
6

>  <SCORE.INTER.SOLV>
17.1298

>  <SCORE.INTER.VDW>
-18.3071

>  <SCORE.INTER.norm>
-0.241798

>  <SCORE.INTRA>
0.455222

>  <SCORE.INTRA.DIHEDRAL>
-3.52527

>  <SCORE.INTRA.DIHEDRAL.0>
14.7001

>  <SCORE.INTRA.POLAR>
0

>  <SCORE.INTRA.POLAR.0>
0

>  <SCORE.INTRA.REPUL>
0

>  <SCORE.INTRA.REPUL.0>
0

>  <SCORE.INTRA.SOLV>
2.19353

>  <SCORE.INTRA.SOLV.lig_0>
-65.3082

>  <SCORE.INTRA.VDW>
1.12109

>  <SCORE.INTRA.VDW.0>
-4.21408

>  <SCORE.INTRA.norm>
0.0146846

>  <SCORE.RESTR>
0

>  <SCORE.RESTR.CAVITY>
0

>  <SCORE.RESTR.norm>
0

>  <SCORE.SYSTEM>
0

>  <SCORE.SYSTEM.CONST>
0

>  <SCORE.SYSTEM.DIHEDRAL>
0

>  <SCORE.SYSTEM.SOLV>
0

>  <SCORE.SYSTEM.norm>
0

>  <SCORE.heavy>
31

>  <SCORE.norm>
-0.227113

>  <RMSD>
8.948

$$$$
ligand
 OpenBabel11021811493D
libRbt.so/2013.1/901 2013/11/27
 31 33  0  0  0  0  0  0  0  0999 V2000
    3.2756   11.6019   36.7777 C   0  0  2  0  0  0  0  0  0  0  0  0
    3.3403   12.2602   38.0282 O   0  0  0  0  0  0  0  0  0  0  0  0
    4.0091   16.2938   39.1873 C   0  0  2  0  0  0  0  0  0  0  0  0
    4.6713   17.5414   39.3653 N   0  0  0  0  0  0  0  0  0  0  0  0
    3.0385   17.1765   35.5789 C   0  0  2  0  0  0  0  0  0  0  0  0
    2.4674   10.2467   36.9735 C   0  0  2  0  0  0  0  0  0  0  0  0
    1.1418   10.5518   37.5009 N   0  0  0  0  0  0  0  0  0  0  0  0
    4.8790   15.1624   39.8964 C   0  0  0  0  0  0  0  0  0  0  0  0
    3.9145   18.4380   35.2749 C   0  0  2  0  0  0  0  0  0  0  0  0
    5.2162   18.2159   35.7744 O   0  0  0  0  0  0  0  0  0  0  0  0
    3.2475    9.2712   37.9296 C   0  0  0  0  0  0  0  0  0  0  0  0
    4.1338   13.7773   39.7121 C   0  0  2  0  0  0  0  0  0  0  0  0
    4.9151   12.7265   40.3657 N   0  0  0  0  0  0  0  0  0  0  0  0
    3.2534   19.6837   35.9697 C   0  0  1  0  0  0  0  0  0  0  0  0
    4.0808   20.9048   35.7076 N   0  0  0  0  0  0  0  0  0  0  0  0
    4.8098    9.3042   37.6575 C   0  0  0  0  0  0  0  0  0  0  0  0
    3.9981   13.4691   38.1650 C   0  0  2  0  0  0  0  0  0  0  0  0
    1.7634   19.8995   35.3520 C   0  0  1  0  0  0  0  0  0  0  0  0
    1.7676   20.1363   33.9580 O   0  0  0  0  0  0  0  0  0  0  0  0
    5.3683   10.2710   36.8895 C   0  0  1  0  0  0  0  0  0  0  0  0
    4.6172   11.3134   36.2734 O   0  0  0  0  0  0  0  0  0  0  0  0
    3.1520   14.6125   37.4646 C   0  0  2  0  0  0  0  0  0  0  0  0
    3.0461   14.3311   36.0539 O   0  0  0  0  0  0  0  0  0  0  0  0
    0.9091   18.6250   35.6225 C   0  0  0  0  0  0  0  0  0  0  0  0
    1.6212   17.3983   35.0790 O   0  0  0  0  0  0  0  0  0  0  0  0
    6.8510   10.3419   36.6124 C   0  0  0  0  0  0  0  0  0  0  0  0
    7.1280   11.6966   36.1966 O   0  0  0  0  0  0  0  0  0  0  0  0
    3.8920   15.9912   37.6556 C   0  0  1  0  0  0  0  0  0  0  0  0
    3.1213   16.9886   37.0325 O   0  0  0  0  0  0  0  0  0  0  0  0
    0.9913   21.0837   35.9482 C   0  0  0  0  0  0  0  0  0  0  0  0
    5.1858   21.1615   36.6544 C   0  0  0  0  0  0  0  0  0  0  0  0
  1  2  1  1  0  0  0
  1  6  1  0  0  0  0
  1 21  1  0  0  0  0
  3  4  1  6  0  0  0
  3  8  1  0  0  0  0
  3 28  1  0  0  0  0
  5  9  1  0  0  0  0
  5 25  1  0  0  0  0
  5 29  1  1  0  0  0
  6  7  1  1  0  0  0
  6 11  1  0  0  0  0
  8 12  1  0  0  0  0
  9 10  1  1  0  0  0
  9 14  1  0  0  0  0
 11 16  1  0  0  0  0
 12 13  1  1  0  0  0
 12 17  1  0  0  0  0
 14 15  1  6  0  0  0
 14 18  1  0  0  0  0
 15 31  1  0  0  0  0
 16 20  1  0  0  0  0
 17  2  1  1  0  0  0
 17 22  1  0  0  0  0
 18 19  1  6  0  0  0
 18 24  1  0  0  0  0
 18 30  1  0  0  0  0
 20 21  1  0  0  0  0
 20 26  1  1  0  0  0
 22 23  1  6  0  0  0
 22 28  1  0  0  0  0
 24 25  1  0  0  0  0
 26 27  1  0  0  0  0
 28 29  1  6  0  0  0
M  END
>  <CHROM.1>
179.47225089,-104.72070690,-87.11853485,-168.78517017,-160.03372355,166.81255029
3.67917201,15.19871672,36.95297397,1.36768503,0.63881908,3.06714592

>  <Name>
ligand

>  <RI>
0

>  <Rbt.Current_Directory>
/home/itssahil/PROJECTS/Mol_Feturizer/New_Systems/rnas/4GPY

>  <Rbt.Executable>
rbdock ($Id: //depot/dev/client3/rdock/2013.1/src/exe/rbdock.cxx#4 $)

>  <Rbt.Library>
libRbt.so (2013.1, Build901 2013/11/27)

>  <Rbt.Parameter_File>
/export/apps/rDock/src/rDock_2013.1_src/data/scripts/dock_solv.prm

>  <Rbt.Receptor>
prm/blind_docking_80.prm

>  <SCORE>
-2.33677

>  <SCORE.INTER>
-7.02727

>  <SCORE.INTER.CONST>
1

>  <SCORE.INTER.POLAR>
0

>  <SCORE.INTER.ROT>
6

>  <SCORE.INTER.SOLV>
19.6247

>  <SCORE.INTER.VDW>
-18.8264

>  <SCORE.INTER.norm>
-0.226686

>  <SCORE.INTRA>
-0.928199

>  <SCORE.INTRA.DIHEDRAL>
-3.52487

>  <SCORE.INTRA.DIHEDRAL.0>
14.7001

>  <SCORE.INTRA.POLAR>
0

>  <SCORE.INTRA.POLAR.0>
0

>  <SCORE.INTRA.REPUL>
0

>  <SCORE.INTRA.REPUL.0>
0

>  <SCORE.INTRA.SOLV>
-1.24659

>  <SCORE.INTRA.SOLV.lig_0>
-65.3082

>  <SCORE.INTRA.VDW>
1.45753

>  <SCORE.INTRA.VDW.0>
-4.21408

>  <SCORE.INTRA.norm>
-0.0299419

>  <SCORE.RESTR>
5.61869

>  <SCORE.RESTR.CAVITY>
5.61869

>  <SCORE.RESTR.norm>
0.181248

>  <SCORE.SYSTEM>
0

>  <SCORE.SYSTEM.CONST>
0

>  <SCORE.SYSTEM.DIHEDRAL>
0

>  <SCORE.SYSTEM.SOLV>
0

>  <SCORE.SYSTEM.norm>
0

>  <SCORE.heavy>
31

>  <SCORE.norm>
-0.0753798

>  <RMSD>
8.956

$$$$
ligand
 OpenBabel11021811493D
libRbt.so/2013.1/901 2013/11/27
 31 33  0  0  0  0  0  0  0  0999 V2000
    3.1974   12.8195   38.1387 C   0  0  2  0  0  0  0  0  0  0  0  0
    3.1123   13.9115   37.2434 O   0  0  0  0  0  0  0  0  0  0  0  0
    1.0590   17.6321   37.2063 C   0  0  2  0  0  0  0  0  0  0  0  0
    0.5943   18.9070   37.6369 N   0  0  0  0  0  0  0  0  0  0  0  0
    2.7853   18.4766   34.6986 C   0  0  2  0  0  0  0  0  0  0  0  0
    4.4504   13.0554   39.0887 C   0  0  2  0  0  0  0  0  0  0  0  0
    4.2886   14.3255   39.7880 N   0  0  0  0  0  0  0  0  0  0  0  0
    0.6155   16.5488   38.2878 C   0  0  0  0  0  0  0  0  0  0  0  0
    3.2255   19.8431   34.0740 C   0  0  2  0  0  0  0  0  0  0  0  0
    4.5624   20.1013   34.4470 O   0  0  0  0  0  0  0  0  0  0  0  0
    5.7860   13.0314   38.2581 C   0  0  0  0  0  0  0  0  0  0  0  0
    1.1185   15.1286   37.8002 C   0  0  2  0  0  0  0  0  0  0  0  0
    0.7118   14.1187   38.7782 N   0  0  0  0  0  0  0  0  0  0  0  0
    2.2674   20.9683   34.6102 C   0  0  1  0  0  0  0  0  0  0  0  0
    2.6759   22.2919   34.0394 N   0  0  0  0  0  0  0  0  0  0  0  0
    5.7617   11.9104   37.1362 C   0  0  0  0  0  0  0  0  0  0  0  0
    2.6966   15.1578   37.6754 C   0  0  2  0  0  0  0  0  0  0  0  0
    0.7457   20.6273   34.1451 C   0  0  1  0  0  0  0  0  0  0  0  0
    0.5934   20.5658   32.7407 O   0  0  0  0  0  0  0  0  0  0  0  0
    4.6105   11.2802   36.7983 C   0  0  1  0  0  0  0  0  0  0  0  0
    3.3547   11.5621   37.4096 O   0  0  0  0  0  0  0  0  0  0  0  0
    3.1287   16.2550   36.6155 C   0  0  2  0  0  0  0  0  0  0  0  0
    4.5675   16.2846   36.5193 O   0  0  0  0  0  0  0  0  0  0  0  0
    0.3281   19.2478   34.7368 C   0  0  0  0  0  0  0  0  0  0  0  0
    1.3384   18.1856   34.3389 O   0  0  0  0  0  0  0  0  0  0  0  0
    4.5437   10.2135   35.7315 C   0  0  0  0  0  0  0  0  0  0  0  0
    5.5156    9.2086   36.0925 O   0  0  0  0  0  0  0  0  0  0  0  0
    2.6206   17.6666   37.0993 C   0  0  1  0  0  0  0  0  0  0  0  0
    3.0097   18.6204   36.1422 O   0  0  0  0  0  0  0  0  0  0  0  0
   -0.3057   21.6437   34.6091 C   0  0  0  0  0  0  0  0  0  0  0  0
    3.5484   23.1290   34.8888 C   0  0  0  0  0  0  0  0  0  0  0  0
  1  2  1  6  0  0  0
  1  6  1  0  0  0  0
  1 21  1  0  0  0  0
  3  4  1  1  0  0  0
  3  8  1  0  0  0  0
  3 28  1  0  0  0  0
  5  9  1  0  0  0  0
  5 25  1  0  0  0  0
  5 29  1  1  0  0  0
  6  7  1  6  0  0  0
  6 11  1  0  0  0  0
  8 12  1  0  0  0  0
  9 10  1  1  0  0  0
  9 14  1  0  0  0  0
 11 16  1  0  0  0  0
 12 13  1  1  0  0  0
 12 17  1  0  0  0  0
 14 15  1  6  0  0  0
 14 18  1  0  0  0  0
 15 31  1  0  0  0  0
 16 20  1  0  0  0  0
 17  2  1  6  0  0  0
 17 22  1  0  0  0  0
 18 19  1  6  0  0  0
 18 24  1  0  0  0  0
 18 30  1  0  0  0  0
 20 21  1  0  0  0  0
 20 26  1  6  0  0  0
 22 23  1  1  0  0  0
 22 28  1  0  0  0  0
 24 25  1  0  0  0  0
 26 27  1  0  0  0  0
 28 29  1  6  0  0  0
M  END
>  <CHROM.1>
-72.56684655,173.42572442,-96.31599167,-78.47441372,54.72953500,-69.21956044
2.81041068,16.53818130,36.31474531,1.25675830,-0.56990612,2.64956656

>  <Name>
ligand

>  <RI>
0

>  <Rbt.Current_Directory>
/home/itssahil/PROJECTS/Mol_Feturizer/New_Systems/rnas/4GPY

>  <Rbt.Executable>
rbdock ($Id: //depot/dev/client3/rdock/2013.1/src/exe/rbdock.cxx#4 $)

>  <Rbt.Library>
libRbt.so (2013.1, Build901 2013/11/27)

>  <Rbt.Parameter_File>
/export/apps/rDock/src/rDock_2013.1_src/data/scripts/dock_solv.prm

>  <Rbt.Receptor>
prm/blind_docking_80.prm

>  <SCORE>
-4.17543

>  <SCORE.INTER>
-7.05968

>  <SCORE.INTER.CONST>
1

>  <SCORE.INTER.POLAR>
0

>  <SCORE.INTER.ROT>
6

>  <SCORE.INTER.SOLV>
16.3969

>  <SCORE.INTER.VDW>
-17.7721

>  <SCORE.INTER.norm>
-0.227732

>  <SCORE.INTRA>
0.624401

>  <SCORE.INTRA.DIHEDRAL>
-7.40209

>  <SCORE.INTRA.DIHEDRAL.0>
14.7001

>  <SCORE.INTRA.POLAR>
0

>  <SCORE.INTRA.POLAR.0>
0

>  <SCORE.INTRA.REPUL>
0

>  <SCORE.INTRA.REPUL.0>
0

>  <SCORE.INTRA.SOLV>
4.11225

>  <SCORE.INTRA.SOLV.lig_0>
-65.3082

>  <SCORE.INTRA.VDW>
2.26932

>  <SCORE.INTRA.VDW.0>
-4.21408

>  <SCORE.INTRA.norm>
0.020142

>  <SCORE.RESTR>
2.25985

>  <SCORE.RESTR.CAVITY>
2.25985

>  <SCORE.RESTR.norm>
0.0728983

>  <SCORE.SYSTEM>
0

>  <SCORE.SYSTEM.CONST>
0

>  <SCORE.SYSTEM.DIHEDRAL>
0

>  <SCORE.SYSTEM.SOLV>
0

>  <SCORE.SYSTEM.norm>
0

>  <SCORE.heavy>
31

>  <SCORE.norm>
-0.134691

>  <RMSD>
8.964

$$$$
ligand
 OpenBabel11021811493D
libRbt.so/2013.1/901 2013/11/27
 31 33  0  0  0  0  0  0  0  0999 V2000
    3.1889   12.2463   37.9857 C   0  0  2  0  0  0  0  0  0  0  0  0
    2.9091   13.3064   37.0916 O   0  0  0  0  0  0  0  0  0  0  0  0
    1.1018   17.1500   36.9490 C   0  0  2  0  0  0  0  0  0  0  0  0
    0.5533   18.3867   37.3922 N   0  0  0  0  0  0  0  0  0  0  0  0
    3.5427   18.2324   35.3273 C   0  0  2  0  0  0  0  0  0  0  0  0
    4.4848   12.6333   38.8217 C   0  0  2  0  0  0  0  0  0  0  0  0
    4.2450   13.8909   39.5215 N   0  0  0  0  0  0  0  0  0  0  0  0
    0.2812   15.9674   37.6330 C   0  0  0  0  0  0  0  0  0  0  0  0
    4.2248   19.6268   35.1231 C   0  0  2  0  0  0  0  0  0  0  0  0
    5.3982   19.6756   35.9067 O   0  0  0  0  0  0  0  0  0  0  0  0
    5.7395   12.7391   37.8791 C   0  0  0  0  0  0  0  0  0  0  0  0
    0.8812   14.5920   37.1270 C   0  0  2  0  0  0  0  0  0  0  0  0
    0.1329   13.4932   37.7389 N   0  0  0  0  0  0  0  0  0  0  0  0
    3.2121   20.7465   35.5615 C   0  0  1  0  0  0  0  0  0  0  0  0
    3.8454   22.0934   35.3908 N   0  0  0  0  0  0  0  0  0  0  0  0
    5.7427   11.6021   36.7731 C   0  0  0  0  0  0  0  0  0  0  0  0
    2.4053   14.5107   37.5482 C   0  0  2  0  0  0  0  0  0  0  0  0
    1.8862   20.6514   34.6228 C   0  0  1  0  0  0  0  0  0  0  0  0
    2.1628   20.8356   33.2485 O   0  0  0  0  0  0  0  0  0  0  0  0
    4.6428   10.8450   36.5415 C   0  0  1  0  0  0  0  0  0  0  0  0
    3.4202   11.0003   37.2565 O   0  0  0  0  0  0  0  0  0  0  0  0
    3.2081   15.7049   36.8825 C   0  0  2  0  0  0  0  0  0  0  0  0
    4.5917   15.6313   37.2833 O   0  0  0  0  0  0  0  0  0  0  0  0
    1.2349   19.2472   34.8001 C   0  0  0  0  0  0  0  0  0  0  0  0
    2.2588   18.1612   34.5185 O   0  0  0  0  0  0  0  0  0  0  0  0
    4.6027    9.7584   35.4936 C   0  0  0  0  0  0  0  0  0  0  0  0
    4.9738    8.5315   36.1582 O   0  0  0  0  0  0  0  0  0  0  0  0
    2.6044   17.0728   37.3819 C   0  0  1  0  0  0  0  0  0  0  0  0
    3.3273   18.1148   36.7747 O   0  0  0  0  0  0  0  0  0  0  0  0
    0.8005   21.6861   34.9461 C   0  0  0  0  0  0  0  0  0  0  0  0
    4.8035   22.5030   36.4385 C   0  0  0  0  0  0  0  0  0  0  0  0
  1  2  1  6  0  0  0
  1  6  1  0  0  0  0
  1 21  1  0  0  0  0
  3  4  1  1  0  0  0
  3  8  1  0  0  0  0
  3 28  1  0  0  0  0
  5  9  1  0  0  0  0
  5 25  1  0  0  0  0
  5 29  1  1  0  0  0
  6  7  1  6  0  0  0
  6 11  1  0  0  0  0
  8 12  1  0  0  0  0
  9 10  1  1  0  0  0
  9 14  1  0  0  0  0
 11 16  1  0  0  0  0
 12 13  1  1  0  0  0
 12 17  1  0  0  0  0
 14 15  1  6  0  0  0
 14 18  1  0  0  0  0
 15 31  1  0  0  0  0
 16 20  1  0  0  0  0
 17  2  1  6  0  0  0
 17 22  1  0  0  0  0
 18 19  1  6  0  0  0
 18 24  1  0  0  0  0
 18 30  1  0  0  0  0
 20 21  1  0  0  0  0
 20 26  1  6  0  0  0
 22 23  1  1  0  0  0
 22 28  1  0  0  0  0
 24 25  1  0  0  0  0
 26 27  1  0  0  0  0
 28 29  1  6  0  0  0
M  END
>  <CHROM.1>
-72.18033085,172.76892619,-78.29333654,-106.99531380,92.33352113,-65.36658819
3.13457766,16.14816949,36.49893066,1.42749840,-0.11691907,2.92405632

>  <Name>
ligand

>  <RI>
0

>  <Rbt.Current_Directory>
/home/itssahil/PROJECTS/Mol_Feturizer/New_Systems/rnas/4GPY

>  <Rbt.Executable>
rbdock ($Id: //depot/dev/client3/rdock/2013.1/src/exe/rbdock.cxx#4 $)

>  <Rbt.Library>
libRbt.so (2013.1, Build901 2013/11/27)

>  <Rbt.Parameter_File>
/export/apps/rDock/src/rDock_2013.1_src/data/scripts/dock_solv.prm

>  <Rbt.Receptor>
prm/blind_docking_100.prm

>  <SCORE>
-4.15692

>  <SCORE.INTER>
-9.41096

>  <SCORE.INTER.CONST>
1

>  <SCORE.INTER.POLAR>
0

>  <SCORE.INTER.ROT>
6

>  <SCORE.INTER.SOLV>
14.3767

>  <SCORE.INTER.VDW>
-18.6662

>  <SCORE.INTER.norm>
-0.303579

>  <SCORE.INTRA>
2.20246

>  <SCORE.INTRA.DIHEDRAL>
-4.41542

>  <SCORE.INTRA.DIHEDRAL.0>
14.7001

>  <SCORE.INTRA.POLAR>
0

>  <SCORE.INTRA.POLAR.0>
0

>  <SCORE.INTRA.REPUL>
0

>  <SCORE.INTRA.REPUL.0>
0

>  <SCORE.INTRA.SOLV>
3.91759

>  <SCORE.INTRA.SOLV.lig_0>
-65.3082

>  <SCORE.INTRA.VDW>
2.45138

>  <SCORE.INTRA.VDW.0>
-4.21408

>  <SCORE.INTRA.norm>
0.0710472

>  <SCORE.RESTR>
3.05158

>  <SCORE.RESTR.CAVITY>
3.05158

>  <SCORE.RESTR.norm>
0.098438

>  <SCORE.SYSTEM>
0

>  <SCORE.SYSTEM.CONST>
0

>  <SCORE.SYSTEM.DIHEDRAL>
0

>  <SCORE.SYSTEM.SOLV>
0

>  <SCORE.SYSTEM.norm>
0

>  <SCORE.heavy>
31

>  <SCORE.norm>
-0.134094

>  <RMSD>
8.984

$$$$
ligand
 OpenBabel11021811493D
libRbt.so/2013.1/901 2013/11/27
 31 33  0  0  0  0  0  0  0  0999 V2000
   -1.0141   15.0329   38.3277 C   0  0  2  0  0  0  0  0  0  0  0  0
    0.1628   15.0304   39.1127 O   0  0  0  0  0  0  0  0  0  0  0  0
    4.1526   16.2593   38.3182 C   0  0  2  0  0  0  0  0  0  0  0  0
    5.4566   16.2799   37.7472 N   0  0  0  0  0  0  0  0  0  0  0  0
    2.9956   17.9936   35.1609 C   0  0  2  0  0  0  0  0  0  0  0  0
   -2.2621   15.1328   39.3079 C   0  0  2  0  0  0  0  0  0  0  0  0
   -2.1405   16.3414   40.1160 N   0  0  0  0  0  0  0  0  0  0  0  0
    3.9357   14.8419   39.0137 C   0  0  0  0  0  0  0  0  0  0  0  0
    3.7257   19.3431   34.8498 C   0  0  2  0  0  0  0  0  0  0  0  0
    5.0953   19.1988   35.1607 O   0  0  0  0  0  0  0  0  0  0  0  0
   -2.3566   13.8512   40.2148 C   0  0  0  0  0  0  0  0  0  0  0  0
    2.4914   14.8254   39.6627 C   0  0  2  0  0  0  0  0  0  0  0  0
    2.2778   13.5326   40.3145 N   0  0  0  0  0  0  0  0  0  0  0  0
    3.0707   20.4768   35.7200 C   0  0  1  0  0  0  0  0  0  0  0  0
    3.7614   21.7792   35.4533 N   0  0  0  0  0  0  0  0  0  0  0  0
   -2.0059   12.5314   39.4078 C   0  0  0  0  0  0  0  0  0  0  0  0
    1.4138   15.0425   38.5231 C   0  0  2  0  0  0  0  0  0  0  0  0
    1.4998   20.6071   35.3156 C   0  0  1  0  0  0  0  0  0  0  0  0
    1.3008   20.9394   33.9557 O   0  0  0  0  0  0  0  0  0  0  0  0
   -1.4323   12.5901   38.1814 C   0  0  1  0  0  0  0  0  0  0  0  0
   -1.1060   13.8130   37.5270 O   0  0  0  0  0  0  0  0  0  0  0  0
    1.6530   16.4439   37.8214 C   0  0  2  0  0  0  0  0  0  0  0  0
    0.6766   16.6265   36.7757 O   0  0  0  0  0  0  0  0  0  0  0  0
    0.7877   19.2487   35.5898 C   0  0  0  0  0  0  0  0  0  0  0  0
    1.5118   18.1278   34.8641 O   0  0  0  0  0  0  0  0  0  0  0  0
   -1.0764   11.3580   37.3843 C   0  0  0  0  0  0  0  0  0  0  0  0
   -1.8822   11.3952   36.1868 O   0  0  0  0  0  0  0  0  0  0  0  0
    3.0940   16.4607   37.1825 C   0  0  1  0  0  0  0  0  0  0  0  0
    3.2849   17.7131   36.5725 O   0  0  0  0  0  0  0  0  0  0  0  0
    0.7267   21.6770   36.0976 C   0  0  0  0  0  0  0  0  0  0  0  0
    4.8855   22.1189   36.3502 C   0  0  0  0  0  0  0  0  0  0  0  0
  1  2  1  1  0  0  0
  1  6  1  0  0  0  0
  1 21  1  0  0  0  0
  3  4  1  6  0  0  0
  3  8  1  0  0  0  0
  3 28  1  0  0  0  0
  5  9  1  0  0  0  0
  5 25  1  0  0  0  0
  5 29  1  1  0  0  0
  6  7  1  1  0  0  0
  6 11  1  0  0  0  0
  8 12  1  0  0  0  0
  9 10  1  1  0  0  0
  9 14  1  0  0  0  0
 11 16  1  0  0  0  0
 12 13  1  6  0  0  0
 12 17  1  0  0  0  0
 14 15  1  6  0  0  0
 14 18  1  0  0  0  0
 15 31  1  0  0  0  0
 16 20  1  0  0  0  0
 17  2  1  1  0  0  0
 17 22  1  0  0  0  0
 18 19  1  6  0  0  0
 18 24  1  0  0  0  0
 18 30  1  0  0  0  0
 20 21  1  0  0  0  0
 20 26  1  1  0  0  0
 22 23  1  6  0  0  0
 22 28  1  0  0  0  0
 24 25  1  0  0  0  0
 26 27  1  0  0  0  0
 28 29  1  1  0  0  0
M  END
>  <CHROM.1>
-175.59778369,-164.41478330,-92.43835022,-171.96968353,116.61492975,148.71744713
1.36757819,16.67716718,37.25793619,2.08204532,0.12592107,2.64374430

>  <Name>
ligand

>  <RI>
0

>  <Rbt.Current_Directory>
/home/itssahil/PROJECTS/Mol_Feturizer/New_Systems/rnas/4GPY

>  <Rbt.Executable>
rbdock ($Id: //depot/dev/client3/rdock/2013.1/src/exe/rbdock.cxx#4 $)

>  <Rbt.Library>
libRbt.so (2013.1, Build901 2013/11/27)

>  <Rbt.Parameter_File>
/export/apps/rDock/src/rDock_2013.1_src/data/scripts/dock_solv.prm

>  <Rbt.Receptor>
prm/pocket_docking_6.prm

>  <SCORE>
-12.413

>  <SCORE.INTER>
-9.31255

>  <SCORE.INTER.CONST>
1

>  <SCORE.INTER.POLAR>
0

>  <SCORE.INTER.ROT>
6

>  <SCORE.INTER.SOLV>
16.5601

>  <SCORE.INTER.VDW>
-19.3284

>  <SCORE.INTER.norm>
-0.300405

>  <SCORE.INTRA>
-3.10207

>  <SCORE.INTRA.DIHEDRAL>
-6.94305

>  <SCORE.INTRA.DIHEDRAL.0>
14.7001

>  <SCORE.INTRA.POLAR>
0

>  <SCORE.INTRA.POLAR.0>
0

>  <SCORE.INTRA.REPUL>
0

>  <SCORE.INTRA.REPUL.0>
0

>  <SCORE.INTRA.SOLV>
-1.9268

>  <SCORE.INTRA.SOLV.lig_0>
-65.3082

>  <SCORE.INTRA.VDW>
1.33285

>  <SCORE.INTRA.VDW.0>
-4.21408

>  <SCORE.INTRA.norm>
-0.100067

>  <SCORE.RESTR>
0.00160361

>  <SCORE.RESTR.CAVITY>
0.00160361

>  <SCORE.RESTR.norm>
5.17295e-05

>  <SCORE.SYSTEM>
0

>  <SCORE.SYSTEM.CONST>
0

>  <SCORE.SYSTEM.DIHEDRAL>
0

>  <SCORE.SYSTEM.SOLV>
0

>  <SCORE.SYSTEM.norm>
0

>  <SCORE.heavy>
31

>  <SCORE.norm>
-0.40042

>  <RMSD>
9.008

$$$$
ligand
 OpenBabel11021811493D
libRbt.so/2013.1/901 2013/11/27
 31 33  0  0  0  0  0  0  0  0999 V2000
    3.2566   14.5305   38.5803 C   0  0  2  0  0  0  0  0  0  0  0  0
    3.7773   15.5691   37.7731 O   0  0  0  0  0  0  0  0  0  0  0  0
    1.1284   17.7347   35.2526 C   0  0  2  0  0  0  0  0  0  0  0  0
    0.2736   18.7754   34.7909 N   0  0  0  0  0  0  0  0  0  0  0  0
    3.4638   20.1580   33.9541 C   0  0  2  0  0  0  0  0  0  0  0  0
    4.0890   14.4921   39.9345 C   0  0  2  0  0  0  0  0  0  0  0  0
    3.9979   15.7926   40.5895 N   0  0  0  0  0  0  0  0  0  0  0  0
    0.5642   17.2084   36.6470 C   0  0  0  0  0  0  0  0  0  0  0  0
    3.1126   20.9395   35.2645 C   0  0  2  0  0  0  0  0  0  0  0  0
    3.7752   20.3250   36.3492 O   0  0  0  0  0  0  0  0  0  0  0  0
    5.5866   14.1030   39.6519 C   0  0  0  0  0  0  0  0  0  0  0  0
    1.5059   16.0398   37.1522 C   0  0  2  0  0  0  0  0  0  0  0  0
    0.9971   15.5377   38.4292 N   0  0  0  0  0  0  0  0  0  0  0  0
    1.5540   20.9004   35.4660 C   0  0  1  0  0  0  0  0  0  0  0  0
    1.1902   21.6292   36.7234 N   0  0  0  0  0  0  0  0  0  0  0  0
    5.7028   12.9741   38.5437 C   0  0  0  0  0  0  0  0  0  0  0  0
    2.9726   16.6064   37.3381 C   0  0  2  0  0  0  0  0  0  0  0  0
    0.8424   21.6281   34.1963 C   0  0  1  0  0  0  0  0  0  0  0  0
    1.2229   22.9815   34.0452 O   0  0  0  0  0  0  0  0  0  0  0  0
    4.6399   12.6327   37.7754 C   0  0  1  0  0  0  0  0  0  0  0  0
    3.3577   13.2421   37.8967 O   0  0  0  0  0  0  0  0  0  0  0  0
    3.5155   17.1494   35.9510 C   0  0  2  0  0  0  0  0  0  0  0  0
    4.8457   17.6766   36.1329 O   0  0  0  0  0  0  0  0  0  0  0  0
    1.2283   20.8697   32.8911 C   0  0  0  0  0  0  0  0  0  0  0  0
    2.7399   20.7789   32.7718 O   0  0  0  0  0  0  0  0  0  0  0  0
    4.7110   11.5693   36.7056 C   0  0  0  0  0  0  0  0  0  0  0  0
    3.8939   10.4701   37.1626 O   0  0  0  0  0  0  0  0  0  0  0  0
    2.5725   18.3075   35.4465 C   0  0  1  0  0  0  0  0  0  0  0  0
    3.0697   18.7681   34.2146 O   0  0  0  0  0  0  0  0  0  0  0  0
   -0.6905   21.6562   34.2541 C   0  0  0  0  0  0  0  0  0  0  0  0
    0.4224   20.8612   37.7255 C   0  0  0  0  0  0  0  0  0  0  0  0
  1  2  1  6  0  0  0
  1  6  1  0  0  0  0
  1 21  1  0  0  0  0
  3  4  1  1  0  0  0
  3  8  1  0  0  0  0
  3 28  1  0  0  0  0
  5  9  1  0  0  0  0
  5 25  1  0  0  0  0
  5 29  1  1  0  0  0
  6  7  1  6  0  0  0
  6 11  1  0  0  0  0
  8 12  1  0  0  0  0
  9 10  1  1  0  0  0
  9 14  1  0  0  0  0
 11 16  1  0  0  0  0
 12 13  1  1  0  0  0
 12 17  1  0  0  0  0
 14 15  1  1  0  0  0
 14 18  1  0  0  0  0
 15 31  1  0  0  0  0
 16 20  1  0  0  0  0
 17  2  1  6  0  0  0
 17 22  1  0  0  0  0
 18 19  1  6  0  0  0
 18 24  1  0  0  0  0
 18 30  1  0  0  0  0
 20 21  1  0  0  0  0
 20 26  1  6  0  0  0
 22 23  1  1  0  0  0
 22 28  1  0  0  0  0
 24 25  1  0  0  0  0
 26 27  1  0  0  0  0
 28 29  1  6  0  0  0
M  END
>  <CHROM.1>
-121.89513007,-3.76547169,-123.50198297,-31.45166827,111.98758238,119.41366809
2.70153883,17.48536138,36.42087776,0.87240868,-1.07736381,2.06385654

>  <Name>
ligand

>  <RI>
0

>  <Rbt.Current_Directory>
/home/itssahil/PROJECTS/Mol_Feturizer/New_Systems/rnas/4GPY

>  <Rbt.Executable>
rbdock ($Id: //depot/dev/client3/rdock/2013.1/src/exe/rbdock.cxx#4 $)

>  <Rbt.Library>
libRbt.so (2013.1, Build901 2013/11/27)

>  <Rbt.Parameter_File>
/export/apps/rDock/src/rDock_2013.1_src/data/scripts/dock_solv.prm

>  <Rbt.Receptor>
prm/blind_docking_80.prm

>  <SCORE>
13.6962

>  <SCORE.INTER>
-7.92407

>  <SCORE.INTER.CONST>
1

>  <SCORE.INTER.POLAR>
0

>  <SCORE.INTER.ROT>
6

>  <SCORE.INTER.SOLV>
17.147

>  <SCORE.INTER.VDW>
-18.5984

>  <SCORE.INTER.norm>
-0.255615

>  <SCORE.INTRA>
20.5126

>  <SCORE.INTRA.DIHEDRAL>
13.0817

>  <SCORE.INTRA.DIHEDRAL.0>
14.7001

>  <SCORE.INTRA.POLAR>
0

>  <SCORE.INTRA.POLAR.0>
0

>  <SCORE.INTRA.REPUL>
0

>  <SCORE.INTRA.REPUL.0>
0

>  <SCORE.INTRA.SOLV>
7.58058

>  <SCORE.INTRA.SOLV.lig_0>
-65.3082

>  <SCORE.INTRA.VDW>
10.1815

>  <SCORE.INTRA.VDW.0>
-4.21408

>  <SCORE.INTRA.norm>
0.661698

>  <SCORE.RESTR>
1.10767

>  <SCORE.RESTR.CAVITY>
1.10767

>  <SCORE.RESTR.norm>
0.0357313

>  <SCORE.SYSTEM>
0

>  <SCORE.SYSTEM.CONST>
0

>  <SCORE.SYSTEM.DIHEDRAL>
0

>  <SCORE.SYSTEM.SOLV>
0

>  <SCORE.SYSTEM.norm>
0

>  <SCORE.heavy>
31

>  <SCORE.norm>
0.441814

>  <RMSD>
9.012

$$$$
ligand
 OpenBabel11021811493D
libRbt.so/2013.1/901 2013/11/27
 31 33  0  0  0  0  0  0  0  0999 V2000
   -0.6826   17.8616   37.5890 C   0  0  2  0  0  0  0  0  0  0  0  0
    0.2841   18.6174   38.2930 O   0  0  0  0  0  0  0  0  0  0  0  0
    1.6010   21.2024   35.1876 C   0  0  2  0  0  0  0  0  0  0  0  0
    2.3582   22.1982   34.5080 N   0  0  0  0  0  0  0  0  0  0  0  0
    4.5656   19.3456   34.2215 C   0  0  2  0  0  0  0  0  0  0  0  0
   -1.3161   16.8075   38.5967 C   0  0  2  0  0  0  0  0  0  0  0  0
   -1.8966   17.5185   39.7308 N   0  0  0  0  0  0  0  0  0  0  0  0
    0.9540   21.8666   36.4837 C   0  0  0  0  0  0  0  0  0  0  0  0
    5.1227   18.4786   35.4002 C   0  0  2  0  0  0  0  0  0  0  0  0
    4.4329   17.2470   35.4213 O   0  0  0  0  0  0  0  0  0  0  0  0
   -0.2292   15.7742   39.0712 C   0  0  0  0  0  0  0  0  0  0  0  0
    0.0985   20.7629   37.2304 C   0  0  2  0  0  0  0  0  0  0  0  0
   -0.5112   21.3583   38.4201 N   0  0  0  0  0  0  0  0  0  0  0  0
    4.9051   19.2651   36.7440 C   0  0  1  0  0  0  0  0  0  0  0  0
    5.4161   18.4505   37.8928 N   0  0  0  0  0  0  0  0  0  0  0  0
    0.7382   15.3517   37.8873 C   0  0  0  0  0  0  0  0  0  0  0  0
    1.0522   19.5703   37.6491 C   0  0  2  0  0  0  0  0  0  0  0  0
    5.7270   20.6676   36.6700 C   0  0  1  0  0  0  0  0  0  0  0  0
    7.1189   20.4887   36.4967 O   0  0  0  0  0  0  0  0  0  0  0  0
    0.7569   16.0363   36.7179 C   0  0  1  0  0  0  0  0  0  0  0  0
   -0.0729   17.1649   36.4575 O   0  0  0  0  0  0  0  0  0  0  0  0
    1.7095   18.9321   36.3551 C   0  0  2  0  0  0  0  0  0  0  0  0
    2.5873   17.8569   36.7470 O   0  0  0  0  0  0  0  0  0  0  0  0
    5.1954   21.5082   35.4707 C   0  0  0  0  0  0  0  0  0  0  0  0
    5.2691   20.6916   34.1920 O   0  0  0  0  0  0  0  0  0  0  0  0
    1.6675   15.6711   35.5699 C   0  0  0  0  0  0  0  0  0  0  0  0
    1.4293   16.6436   34.5297 O   0  0  0  0  0  0  0  0  0  0  0  0
    2.5544   20.0345   35.6095 C   0  0  1  0  0  0  0  0  0  0  0  0
    3.1215   19.4476   34.4645 O   0  0  0  0  0  0  0  0  0  0  0  0
    5.5978   21.5491   37.9191 C   0  0  0  0  0  0  0  0  0  0  0  0
    4.7069   17.1825   38.1619 C   0  0  0  0  0  0  0  0  0  0  0  0
  1  2  1  1  0  0  0
  1  6  1  0  0  0  0
  1 21  1  0  0  0  0
  3  4  1  1  0  0  0
  3  8  1  0  0  0  0
  3 28  1  0  0  0  0
  5  9  1  0  0  0  0
  5 25  1  0  0  0  0
  5 29  1  1  0  0  0
  6  7  1  1  0  0  0
  6 11  1  0  0  0  0
  8 12  1  0  0  0  0
  9 10  1  1  0  0  0
  9 14  1  0  0  0  0
 11 16  1  0  0  0  0
 12 13  1  1  0  0  0
 12 17  1  0  0  0  0
 14 15  1  1  0  0  0
 14 18  1  0  0  0  0
 15 31  1  0  0  0  0
 16 20  1  0  0  0  0
 17  2  1  6  0  0  0
 17 22  1  0  0  0  0
 18 19  1  6  0  0  0
 18 24  1  0  0  0  0
 18 30  1  0  0  0  0
 20 21  1  0  0  0  0
 20 26  1  1  0  0  0
 22 23  1  1  0  0  0
 22 28  1  0  0  0  0
 24 25  1  0  0  0  0
 26 27  1  0  0  0  0
 28 29  1  6  0  0  0
M  END
>  <CHROM.1>
176.61333333,61.07329183,-65.07159451,68.43997291,-178.30995564,122.35182694
2.42928687,18.86814679,36.61598641,2.61190321,-0.32175004,3.03757494

>  <Name>
ligand

>  <RI>
0

>  <Rbt.Current_Directory>
/home/itssahil/PROJECTS/Mol_Feturizer/New_Systems/rnas/4GPY

>  <Rbt.Executable>
rbdock ($Id: //depot/dev/client3/rdock/2013.1/src/exe/rbdock.cxx#4 $)

>  <Rbt.Library>
libRbt.so (2013.1, Build901 2013/11/27)

>  <Rbt.Parameter_File>
/export/apps/rDock/src/rDock_2013.1_src/data/scripts/dock_solv.prm

>  <Rbt.Receptor>
prm/blind_docking_60.prm

>  <SCORE>
96.6997

>  <SCORE.INTER>
77.0124

>  <SCORE.INTER.CONST>
1

>  <SCORE.INTER.POLAR>
0

>  <SCORE.INTER.ROT>
6

>  <SCORE.INTER.SOLV>
34.0131

>  <SCORE.INTER.VDW>
32.4039

>  <SCORE.INTER.norm>
2.48427

>  <SCORE.INTRA>
12.4097

>  <SCORE.INTRA.DIHEDRAL>
-3.50694

>  <SCORE.INTRA.DIHEDRAL.0>
14.7001

>  <SCORE.INTRA.POLAR>
0

>  <SCORE.INTRA.POLAR.0>
0

>  <SCORE.INTRA.REPUL>
0.0037992

>  <SCORE.INTRA.REPUL.0>
0

>  <SCORE.INTRA.SOLV>
3.86898

>  <SCORE.INTRA.SOLV.lig_0>
-65.3082

>  <SCORE.INTRA.VDW>
12.2097

>  <SCORE.INTRA.VDW.0>
-4.21408

>  <SCORE.INTRA.norm>
0.400314

>  <SCORE.RESTR>
7.27766

>  <SCORE.RESTR.CAVITY>
7.27766

>  <SCORE.RESTR.norm>
0.234763

>  <SCORE.SYSTEM>
0

>  <SCORE.SYSTEM.CONST>
0

>  <SCORE.SYSTEM.DIHEDRAL>
0

>  <SCORE.SYSTEM.SOLV>
0

>  <SCORE.SYSTEM.norm>
0

>  <SCORE.heavy>
31

>  <SCORE.norm>
3.11935

>  <RMSD>
9.085

$$$$
ligand
 OpenBabel11021811493D
libRbt.so/2013.1/901 2013/11/27
 31 33  0  0  0  0  0  0  0  0999 V2000
    2.5319   14.1596   38.0352 C   0  0  2  0  0  0  0  0  0  0  0  0
    2.9647   14.4164   36.7131 O   0  0  0  0  0  0  0  0  0  0  0  0
    4.4505   18.3891   36.9766 C   0  0  2  0  0  0  0  0  0  0  0  0
    5.2473   19.5389   36.7118 N   0  0  0  0  0  0  0  0  0  0  0  0
    1.9319   19.7512   36.2108 C   0  0  2  0  0  0  0  0  0  0  0  0
    1.7936   12.7514   38.0492 C   0  0  2  0  0  0  0  0  0  0  0  0
    2.7106   11.7254   37.5643 N   0  0  0  0  0  0  0  0  0  0  0  0
    5.4189   17.2024   37.4164 C   0  0  0  0  0  0  0  0  0  0  0  0
    0.5789   19.9075   35.4385 C   0  0  2  0  0  0  0  0  0  0  0  0
    0.1307   18.6273   35.0472 O   0  0  0  0  0  0  0  0  0  0  0  0
    0.4871   12.8035   37.1749 C   0  0  0  0  0  0  0  0  0  0  0  0
    4.5309   15.9286   37.7266 C   0  0  2  0  0  0  0  0  0  0  0  0
    5.4041   14.8298   38.1413 N   0  0  0  0  0  0  0  0  0  0  0  0
    0.8236   20.8227   34.1839 C   0  0  1  0  0  0  0  0  0  0  0  0
   -0.4537   20.9772   33.4163 N   0  0  0  0  0  0  0  0  0  0  0  0
   -0.2862   14.1770   37.3530 C   0  0  0  0  0  0  0  0  0  0  0  0
    3.7365   15.5253   36.4176 C   0  0  2  0  0  0  0  0  0  0  0  0
    1.3279   22.2844   34.6909 C   0  0  1  0  0  0  0  0  0  0  0  0
    0.3912   22.9382   35.5242 O   0  0  0  0  0  0  0  0  0  0  0  0
    0.2958   15.2358   37.9668 C   0  0  1  0  0  0  0  0  0  0  0  0
    1.6190   15.2052   38.4944 O   0  0  0  0  0  0  0  0  0  0  0  0
    2.7945   16.7211   35.9745 C   0  0  2  0  0  0  0  0  0  0  0  0
    2.0863   16.3505   34.7739 O   0  0  0  0  0  0  0  0  0  0  0  0
    2.6532   22.1172   35.4929 C   0  0  0  0  0  0  0  0  0  0  0  0
    2.4552   21.1175   36.6192 O   0  0  0  0  0  0  0  0  0  0  0  0
   -0.4032   16.5618   38.1497 C   0  0  0  0  0  0  0  0  0  0  0  0
    0.4997   17.5748   37.6563 O   0  0  0  0  0  0  0  0  0  0  0  0
    3.6800   17.9900   35.6734 C   0  0  1  0  0  0  0  0  0  0  0  0
    2.8236   19.0368   35.2890 O   0  0  0  0  0  0  0  0  0  0  0  0
    1.6162   23.2855   33.5647 C   0  0  0  0  0  0  0  0  0  0  0  0
   -0.3316   21.0136   31.9442 C   0  0  0  0  0  0  0  0  0  0  0  0
  1  2  1  6  0  0  0
  1  6  1  0  0  0  0
  1 21  1  0  0  0  0
  3  4  1  6  0  0  0
  3  8  1  0  0  0  0
  3 28  1  0  0  0  0
  5  9  1  0  0  0  0
  5 25  1  0  0  0  0
  5 29  1  6  0  0  0
  6  7  1  6  0  0  0
  6 11  1  0  0  0  0
  8 12  1  0  0  0  0
  9 10  1  6  0  0  0
  9 14  1  0  0  0  0
 11 16  1  0  0  0  0
 12 13  1  6  0  0  0
 12 17  1  0  0  0  0
 14 15  1  1  0  0  0
 14 18  1  0  0  0  0
 15 31  1  0  0  0  0
 16 20  1  0  0  0  0
 17  2  1  1  0  0  0
 17 22  1  0  0  0  0
 18 19  1  1  0  0  0
 18 24  1  0  0  0  0
 18 30  1  0  0  0  0
 20 21  1  0  0  0  0
 20 26  1  6  0  0  0
 22 23  1  6  0  0  0
 22 28  1  0  0  0  0
 24 25  1  0  0  0  0
 26 27  1  0  0  0  0
 28 29  1  1  0  0  0
M  END
>  <CHROM.1>
-174.69028093,-137.36454643,-142.88915735,26.16158246,-129.04187027,-46.46719799
2.01938779,17.74173689,36.25310589,-1.42073531,-0.25246736,-0.35530626

>  <Name>
ligand

>  <RI>
0

>  <Rbt.Current_Directory>
/home/itssahil/PROJECTS/Mol_Feturizer/New_Systems/rnas/4GPY

>  <Rbt.Executable>
rbdock ($Id: //depot/dev/client3/rdock/2013.1/src/exe/rbdock.cxx#4 $)

>  <Rbt.Library>
libRbt.so (2013.1, Build901 2013/11/27)

>  <Rbt.Parameter_File>
/export/apps/rDock/src/rDock_2013.1_src/data/scripts/dock_solv.prm

>  <Rbt.Receptor>
prm/blind_docking_100.prm

>  <SCORE>
1.97049

>  <SCORE.INTER>
-5.33213

>  <SCORE.INTER.CONST>
1

>  <SCORE.INTER.POLAR>
0

>  <SCORE.INTER.ROT>
6

>  <SCORE.INTER.SOLV>
19.2221

>  <SCORE.INTER.VDW>
-17.5621

>  <SCORE.INTER.norm>
-0.172004

>  <SCORE.INTRA>
2.23818

>  <SCORE.INTRA.DIHEDRAL>
-0.955518

>  <SCORE.INTRA.DIHEDRAL.0>
14.7001

>  <SCORE.INTRA.POLAR>
0

>  <SCORE.INTRA.POLAR.0>
0

>  <SCORE.INTRA.REPUL>
0

>  <SCORE.INTRA.REPUL.0>
0

>  <SCORE.INTRA.SOLV>
2.38226

>  <SCORE.INTRA.SOLV.lig_0>
-65.3082

>  <SCORE.INTRA.VDW>
1.5248

>  <SCORE.INTRA.VDW.0>
-4.21408

>  <SCORE.INTRA.norm>
0.0721992

>  <SCORE.RESTR>
5.06444

>  <SCORE.RESTR.CAVITY>
5.06444

>  <SCORE.RESTR.norm>
0.163369

>  <SCORE.SYSTEM>
0

>  <SCORE.SYSTEM.CONST>
0

>  <SCORE.SYSTEM.DIHEDRAL>
0

>  <SCORE.SYSTEM.SOLV>
0

>  <SCORE.SYSTEM.norm>
0

>  <SCORE.heavy>
31

>  <SCORE.norm>
0.0635641

>  <RMSD>
9.097

$$$$
ligand
 OpenBabel11021811493D
libRbt.so/2013.1/901 2013/11/27
 31 33  0  0  0  0  0  0  0  0999 V2000
    3.5089   12.1286   37.9442 C   0  0  2  0  0  0  0  0  0  0  0  0
    3.8102   13.4207   37.4534 O   0  0  0  0  0  0  0  0  0  0  0  0
    1.2428   16.5392   36.1328 C   0  0  2  0  0  0  0  0  0  0  0  0
    0.2736   17.5811   36.1751 N   0  0  0  0  0  0  0  0  0  0  0  0
    3.4932   18.2825   35.1427 C   0  0  2  0  0  0  0  0  0  0  0  0
    4.8255   11.5316   38.6063 C   0  0  2  0  0  0  0  0  0  0  0  0
    5.2773   12.4279   39.6652 N   0  0  0  0  0  0  0  0  0  0  0  0
    0.5688   15.2087   36.6942 C   0  0  0  0  0  0  0  0  0  0  0  0
    4.2342   19.6614   35.1113 C   0  0  2  0  0  0  0  0  0  0  0  0
    5.2750   19.6376   36.0650 O   0  0  0  0  0  0  0  0  0  0  0  0
    5.9454   11.3257   37.5213 C   0  0  0  0  0  0  0  0  0  0  0  0
    1.6422   14.0461   36.6316 C   0  0  2  0  0  0  0  0  0  0  0  0
    1.0370   12.8127   37.1357 N   0  0  0  0  0  0  0  0  0  0  0  0
    3.1955   20.7935   35.4444 C   0  0  1  0  0  0  0  0  0  0  0  0
    3.8819   22.1251   35.4364 N   0  0  0  0  0  0  0  0  0  0  0  0
    5.3499   10.7781   36.1569 C   0  0  0  0  0  0  0  0  0  0  0  0
    2.8848   14.4459   37.5277 C   0  0  2  0  0  0  0  0  0  0  0  0
    2.0266   20.7828   34.3123 C   0  0  1  0  0  0  0  0  0  0  0  0
    2.5146   21.0174   33.0061 O   0  0  0  0  0  0  0  0  0  0  0  0
    4.0149   10.7780   35.9235 C   0  0  1  0  0  0  0  0  0  0  0  0
    3.0556   11.2556   36.8625 O   0  0  0  0  0  0  0  0  0  0  0  0
    3.5334   15.7833   36.9759 C   0  0  2  0  0  0  0  0  0  0  0  0
    4.6549   16.1474   37.8066 O   0  0  0  0  0  0  0  0  0  0  0  0
    1.3199   19.3943   34.3214 C   0  0  0  0  0  0  0  0  0  0  0  0
    2.3467   18.2886   34.1463 O   0  0  0  0  0  0  0  0  0  0  0  0
    3.4090   10.2726   34.6360 C   0  0  0  0  0  0  0  0  0  0  0  0
    4.2205    9.1573   34.2089 O   0  0  0  0  0  0  0  0  0  0  0  0
    2.4609   16.9372   37.0323 C   0  0  1  0  0  0  0  0  0  0  0  0
    3.0563   18.1092   36.5334 O   0  0  0  0  0  0  0  0  0  0  0  0
    0.9312   21.8374   34.5167 C   0  0  0  0  0  0  0  0  0  0  0  0
    4.7651   22.4125   36.5856 C   0  0  0  0  0  0  0  0  0  0  0  0
  1  2  1  6  0  0  0
  1  6  1  0  0  0  0
  1 21  1  0  0  0  0
  3  4  1  1  0  0  0
  3  8  1  0  0  0  0
  3 28  1  0  0  0  0
  5  9  1  0  0  0  0
  5 25  1  0  0  0  0
  5 29  1  1  0  0  0
  6  7  1  1  0  0  0
  6 11  1  0  0  0  0
  8 12  1  0  0  0  0
  9 10  1  1  0  0  0
  9 14  1  0  0  0  0
 11 16  1  0  0  0  0
 12 13  1  1  0  0  0
 12 17  1  0  0  0  0
 14 15  1  6  0  0  0
 14 18  1  0  0  0  0
 15 31  1  0  0  0  0
 16 20  1  0  0  0  0
 17  2  1  6  0  0  0
 17 22  1  0  0  0  0
 18 19  1  6  0  0  0
 18 24  1  0  0  0  0
 18 30  1  0  0  0  0
 20 21  1  0  0  0  0
 20 26  1  6  0  0  0
 22 23  1  1  0  0  0
 22 28  1  0  0  0  0
 24 25  1  0  0  0  0
 26 27  1  0  0  0  0
 28 29  1  6  0  0  0
M  END
>  <CHROM.1>
-142.91222024,-173.55662019,-73.56988209,-63.78356409,35.30705867,-52.74837859
3.20502713,15.97895275,36.16434969,-1.42513995,-0.59130001,-0.09998649

>  <Name>
ligand

>  <RI>
0

>  <Rbt.Current_Directory>
/home/itssahil/PROJECTS/Mol_Feturizer/New_Systems/rnas/4GPY

>  <Rbt.Executable>
rbdock ($Id: //depot/dev/client3/rdock/2013.1/src/exe/rbdock.cxx#4 $)

>  <Rbt.Library>
libRbt.so (2013.1, Build901 2013/11/27)

>  <Rbt.Parameter_File>
/export/apps/rDock/src/rDock_2013.1_src/data/scripts/dock_solv.prm

>  <Rbt.Receptor>
prm/blind_docking_100.prm

>  <SCORE>
-1.53593

>  <SCORE.INTER>
-8.67593

>  <SCORE.INTER.CONST>
1

>  <SCORE.INTER.POLAR>
0

>  <SCORE.INTER.ROT>
6

>  <SCORE.INTER.SOLV>
15.2525

>  <SCORE.INTER.VDW>
-18.4681

>  <SCORE.INTER.norm>
-0.279869

>  <SCORE.INTRA>
2.56917

>  <SCORE.INTRA.DIHEDRAL>
-6.20675

>  <SCORE.INTRA.DIHEDRAL.0>
14.7001

>  <SCORE.INTRA.POLAR>
0

>  <SCORE.INTRA.POLAR.0>
0

>  <SCORE.INTRA.REPUL>
0

>  <SCORE.INTRA.REPUL.0>
0

>  <SCORE.INTRA.SOLV>
2.75489

>  <SCORE.INTRA.SOLV.lig_0>
-65.3082

>  <SCORE.INTRA.VDW>
4.2951

>  <SCORE.INTRA.VDW.0>
-4.21408

>  <SCORE.INTRA.norm>
0.0828763

>  <SCORE.RESTR>
4.57083

>  <SCORE.RESTR.CAVITY>
4.57083

>  <SCORE.RESTR.norm>
0.147446

>  <SCORE.SYSTEM>
0

>  <SCORE.SYSTEM.CONST>
0

>  <SCORE.SYSTEM.DIHEDRAL>
0

>  <SCORE.SYSTEM.SOLV>
0

>  <SCORE.SYSTEM.norm>
0

>  <SCORE.heavy>
31

>  <SCORE.norm>
-0.0495461

>  <RMSD>
9.106

$$$$
ligand
 OpenBabel11021811493D
libRbt.so/2013.1/901 2013/11/27
 31 33  0  0  0  0  0  0  0  0999 V2000
   -0.4884   17.3108   40.1283 C   0  0  2  0  0  0  0  0  0  0  0  0
    0.1766   16.2930   39.4050 O   0  0  0  0  0  0  0  0  0  0  0  0
    1.6907   15.8756   35.4561 C   0  0  2  0  0  0  0  0  0  0  0  0
    1.7222   15.8389   34.0333 N   0  0  0  0  0  0  0  0  0  0  0  0
    2.1601   18.9281   34.1796 C   0  0  2  0  0  0  0  0  0  0  0  0
   -1.0124   16.6859   41.4932 C   0  0  2  0  0  0  0  0  0  0  0  0
    0.1186   16.1375   42.2339 N   0  0  0  0  0  0  0  0  0  0  0  0
    0.6193   14.8081   35.9584 C   0  0  0  0  0  0  0  0  0  0  0  0
    3.1177   20.1594   34.3135 C   0  0  2  0  0  0  0  0  0  0  0  0
    4.3979   19.6982   34.6899 O   0  0  0  0  0  0  0  0  0  0  0  0
   -2.0973   15.5815   41.2150 C   0  0  0  0  0  0  0  0  0  0  0  0
    0.5964   14.8377   37.5415 C   0  0  2  0  0  0  0  0  0  0  0  0
   -0.3770   13.8558   38.0213 N   0  0  0  0  0  0  0  0  0  0  0  0
    2.5310   21.1316   35.4007 C   0  0  1  0  0  0  0  0  0  0  0  0
    3.4372   22.3139   35.5609 N   0  0  0  0  0  0  0  0  0  0  0  0
   -3.0717   15.9973   40.0345 C   0  0  0  0  0  0  0  0  0  0  0  0
    0.1843   16.2890   38.0220 C   0  0  2  0  0  0  0  0  0  0  0  0
    1.0637   21.6394   34.9137 C   0  0  1  0  0  0  0  0  0  0  0  0
    1.0959   22.3376   33.6846 O   0  0  0  0  0  0  0  0  0  0  0  0
   -2.7847   17.0442   39.2231 C   0  0  1  0  0  0  0  0  0  0  0  0
   -1.6127   17.8429   39.3600 O   0  0  0  0  0  0  0  0  0  0  0  0
    1.2426   17.3463   37.4970 C   0  0  2  0  0  0  0  0  0  0  0  0
    0.8514   18.6664   37.9269 O   0  0  0  0  0  0  0  0  0  0  0  0
    0.1273   20.4058   34.7435 C   0  0  0  0  0  0  0  0  0  0  0  0
    0.7646   19.3965   33.8042 O   0  0  0  0  0  0  0  0  0  0  0  0
   -3.6817   17.4675   38.0845 C   0  0  0  0  0  0  0  0  0  0  0  0
   -3.2682   18.7985   37.7074 O   0  0  0  0  0  0  0  0  0  0  0  0
    1.2690   17.3098   35.9213 C   0  0  1  0  0  0  0  0  0  0  0  0
    2.2172   18.2497   35.4802 O   0  0  0  0  0  0  0  0  0  0  0  0
    0.3633   22.5946   35.8887 C   0  0  0  0  0  0  0  0  0  0  0  0
    4.6180   22.1200   36.4278 C   0  0  0  0  0  0  0  0  0  0  0  0
  1  2  1  6  0  0  0
  1  6  1  0  0  0  0
  1 21  1  0  0  0  0
  3  4  1  6  0  0  0
  3  8  1  0  0  0  0
  3 28  1  0  0  0  0
  5  9  1  0  0  0  0
  5 25  1  0  0  0  0
  5 29  1  1  0  0  0
  6  7  1  6  0  0  0
  6 11  1  0  0  0  0
  8 12  1  0  0  0  0
  9 10  1  1  0  0  0
  9 14  1  0  0  0  0
 11 16  1  0  0  0  0
 12 13  1  6  0  0  0
 12 17  1  0  0  0  0
 14 15  1  6  0  0  0
 14 18  1  0  0  0  0
 15 31  1  0  0  0  0
 16 20  1  0  0  0  0
 17  2  1  1  0  0  0
 17 22  1  0  0  0  0
 18 19  1  6  0  0  0
 18 24  1  0  0  0  0
 18 30  1  0  0  0  0
 20 21  1  0  0  0  0
 20 26  1  6  0  0  0
 22 23  1  6  0  0  0
 22 28  1  0  0  0  0
 24 25  1  0  0  0  0
 26 27  1  0  0  0  0
 28 29  1  1  0  0  0
M  END
>  <CHROM.1>
149.10645970,162.90283031,-81.66471081,-162.71387079,164.07697268,88.63197655
0.51734986,18.20618502,37.02602576,2.37169628,-0.81474249,2.97388080

>  <Name>
ligand

>  <RI>
0

>  <Rbt.Current_Directory>
/home/itssahil/PROJECTS/Mol_Feturizer/New_Systems/rnas/4GPY

>  <Rbt.Executable>
rbdock ($Id: //depot/dev/client3/rdock/2013.1/src/exe/rbdock.cxx#4 $)

>  <Rbt.Library>
libRbt.so (2013.1, Build901 2013/11/27)

>  <Rbt.Parameter_File>
/export/apps/rDock/src/rDock_2013.1_src/data/scripts/dock_solv.prm

>  <Rbt.Receptor>
prm/blind_docking_60.prm

>  <SCORE>
21.6239

>  <SCORE.INTER>
3.12763

>  <SCORE.INTER.CONST>
1

>  <SCORE.INTER.POLAR>
0

>  <SCORE.INTER.ROT>
6

>  <SCORE.INTER.SOLV>
21.4946

>  <SCORE.INTER.VDW>
-12.6798

>  <SCORE.INTER.norm>
0.100891

>  <SCORE.INTRA>
0.187984

>  <SCORE.INTRA.DIHEDRAL>
-1.22999

>  <SCORE.INTRA.DIHEDRAL.0>
14.7001

>  <SCORE.INTRA.POLAR>
0

>  <SCORE.INTRA.POLAR.0>
0

>  <SCORE.INTRA.REPUL>
0

>  <SCORE.INTRA.REPUL.0>
0

>  <SCORE.INTRA.SOLV>
-0.496225

>  <SCORE.INTRA.SOLV.lig_0>
-65.3082

>  <SCORE.INTRA.VDW>
1.05109

>  <SCORE.INTRA.VDW.0>
-4.21408

>  <SCORE.INTRA.norm>
0.006064

>  <SCORE.RESTR>
18.3083

>  <SCORE.RESTR.CAVITY>
18.3083

>  <SCORE.RESTR.norm>
0.590591

>  <SCORE.SYSTEM>
0

>  <SCORE.SYSTEM.CONST>
0

>  <SCORE.SYSTEM.DIHEDRAL>
0

>  <SCORE.SYSTEM.SOLV>
0

>  <SCORE.SYSTEM.norm>
0

>  <SCORE.heavy>
31

>  <SCORE.norm>
0.697546

>  <RMSD>
9.125

$$$$
ligand
 OpenBabel11021811493D
libRbt.so/2013.1/901 2013/11/27
 31 33  0  0  0  0  0  0  0  0999 V2000
   -0.1855   17.3738   37.6057 C   0  0  2  0  0  0  0  0  0  0  0  0
    0.3257   18.4895   38.3096 O   0  0  0  0  0  0  0  0  0  0  0  0
    1.6086   21.0978   35.2095 C   0  0  2  0  0  0  0  0  0  0  0  0
    2.3532   22.1043   34.5317 N   0  0  0  0  0  0  0  0  0  0  0  0
    4.5925   19.3135   34.2175 C   0  0  2  0  0  0  0  0  0  0  0  0
   -1.1788   16.5929   38.5709 C   0  0  2  0  0  0  0  0  0  0  0  0
   -2.2372   17.4992   39.0034 N   0  0  0  0  0  0  0  0  0  0  0  0
    0.9551   21.7510   36.5079 C   0  0  0  0  0  0  0  0  0  0  0  0
    5.2046   18.5203   35.4205 C   0  0  2  0  0  0  0  0  0  0  0  0
    4.5698   17.2619   35.5026 O   0  0  0  0  0  0  0  0  0  0  0  0
   -0.4008   16.0004   39.8028 C   0  0  0  0  0  0  0  0  0  0  0  0
    0.1135   20.6353   37.2527 C   0  0  2  0  0  0  0  0  0  0  0  0
   -0.5020   21.2204   38.4445 N   0  0  0  0  0  0  0  0  0  0  0  0
    4.9731   19.3508   36.7351 C   0  0  1  0  0  0  0  0  0  0  0  0
    5.5366   18.6066   37.9069 N   0  0  0  0  0  0  0  0  0  0  0  0
    1.0151   15.4221   39.3825 C   0  0  0  0  0  0  0  0  0  0  0  0
    1.0818   19.4531   37.6674 C   0  0  2  0  0  0  0  0  0  0  0  0
    5.7317   20.7833   36.5911 C   0  0  1  0  0  0  0  0  0  0  0  0
    7.1272   20.6576   36.4017 O   0  0  0  0  0  0  0  0  0  0  0  0
    1.5485   15.6877   38.1653 C   0  0  1  0  0  0  0  0  0  0  0  0
    0.8973   16.4874   37.1822 O   0  0  0  0  0  0  0  0  0  0  0  0
    1.7452   18.8261   36.3711 C   0  0  2  0  0  0  0  0  0  0  0  0
    2.6362   17.7603   36.7594 O   0  0  0  0  0  0  0  0  0  0  0  0
    5.1457   21.5504   35.3681 C   0  0  0  0  0  0  0  0  0  0  0  0
    5.2359   20.6863   34.1222 O   0  0  0  0  0  0  0  0  0  0  0  0
    2.8957   15.1626   37.7297 C   0  0  0  0  0  0  0  0  0  0  0  0
    2.9124   15.2180   36.2870 O   0  0  0  0  0  0  0  0  0  0  0  0
    2.5763   19.9403   35.6275 C   0  0  1  0  0  0  0  0  0  0  0  0
    3.1491   19.3630   34.4805 O   0  0  0  0  0  0  0  0  0  0  0  0
    5.5828   21.7086   37.8058 C   0  0  0  0  0  0  0  0  0  0  0  0
    4.8105   17.3868   38.3174 C   0  0  0  0  0  0  0  0  0  0  0  0
  1  2  1  1  0  0  0
  1  6  1  0  0  0  0
  1 21  1  0  0  0  0
  3  4  1  1  0  0  0
  3  8  1  0  0  0  0
  3 28  1  0  0  0  0
  5  9  1  0  0  0  0
  5 25  1  0  0  0  0
  5 29  1  1  0  0  0
  6  7  1  1  0  0  0
  6 11  1  0  0  0  0
  8 12  1  0  0  0  0
  9 10  1  1  0  0  0
  9 14  1  0  0  0  0
 11 16  1  0  0  0  0
 12 13  1  1  0  0  0
 12 17  1  0  0  0  0
 14 15  1  1  0  0  0
 14 18  1  0  0  0  0
 15 31  1  0  0  0  0
 16 20  1  0  0  0  0
 17  2  1  6  0  0  0
 17 22  1  0  0  0  0
 18 19  1  6  0  0  0
 18 24  1  0  0  0  0
 18 30  1  0  0  0  0
 20 21  1  0  0  0  0
 20 26  1  1  0  0  0
 22 23  1  1  0  0  0
 22 28  1  0  0  0  0
 24 25  1  0  0  0  0
 26 27  1  0  0  0  0
 28 29  1  6  0  0  0
M  END
>  <CHROM.1>
-171.49019396,59.32909374,-70.61589270,95.55288823,159.59659207,120.49984802
2.61501288,18.74569589,36.86623555,2.44994259,-0.28592709,2.81646167

>  <Name>
ligand

>  <RI>
0

>  <Rbt.Current_Directory>
/home/itssahil/PROJECTS/Mol_Feturizer/New_Systems/rnas/4GPY

>  <Rbt.Executable>
rbdock ($Id: //depot/dev/client3/rdock/2013.1/src/exe/rbdock.cxx#4 $)

>  <Rbt.Library>
libRbt.so (2013.1, Build901 2013/11/27)

>  <Rbt.Parameter_File>
/export/apps/rDock/src/rDock_2013.1_src/data/scripts/dock_solv.prm

>  <Rbt.Receptor>
prm/blind_docking_60.prm

>  <SCORE>
84.1764

>  <SCORE.INTER>
55.8935

>  <SCORE.INTER.CONST>
1

>  <SCORE.INTER.POLAR>
0

>  <SCORE.INTER.ROT>
6

>  <SCORE.INTER.SOLV>
33.5858

>  <SCORE.INTER.VDW>
18.4671

>  <SCORE.INTER.norm>
1.80302

>  <SCORE.INTRA>
17.5458

>  <SCORE.INTRA.DIHEDRAL>
0.671364

>  <SCORE.INTRA.DIHEDRAL.0>
14.7001

>  <SCORE.INTRA.POLAR>
0

>  <SCORE.INTRA.POLAR.0>
0

>  <SCORE.INTRA.REPUL>
0.0235888

>  <SCORE.INTRA.REPUL.0>
0

>  <SCORE.INTRA.SOLV>
4.03088

>  <SCORE.INTRA.SOLV.lig_0>
-65.3082

>  <SCORE.INTRA.VDW>
15.0767

>  <SCORE.INTRA.VDW.0>
-4.21408

>  <SCORE.INTRA.norm>
0.565994

>  <SCORE.RESTR>
10.737

>  <SCORE.RESTR.CAVITY>
10.737

>  <SCORE.RESTR.norm>
0.346356

>  <SCORE.SYSTEM>
0

>  <SCORE.SYSTEM.CONST>
0

>  <SCORE.SYSTEM.DIHEDRAL>
0

>  <SCORE.SYSTEM.SOLV>
0

>  <SCORE.SYSTEM.norm>
0

>  <SCORE.heavy>
31

>  <SCORE.norm>
2.71537

>  <RMSD>
9.172

$$$$
ligand
 OpenBabel11021811493D
libRbt.so/2013.1/901 2013/11/27
 31 33  0  0  0  0  0  0  0  0999 V2000
   -0.0507   17.0951   38.9659 C   0  0  2  0  0  0  0  0  0  0  0  0
    0.0842   16.4254   37.7271 O   0  0  0  0  0  0  0  0  0  0  0  0
    4.1381   17.3023   36.8014 C   0  0  2  0  0  0  0  0  0  0  0  0
    5.3436   17.4183   36.0531 N   0  0  0  0  0  0  0  0  0  0  0  0
    3.6473   20.3542   34.9538 C   0  0  2  0  0  0  0  0  0  0  0  0
   -0.0628   16.0019   40.1204 C   0  0  2  0  0  0  0  0  0  0  0  0
    1.1669   15.2197   40.0519 N   0  0  0  0  0  0  0  0  0  0  0  0
    3.6846   15.7747   36.7819 C   0  0  0  0  0  0  0  0  0  0  0  0
    2.9946   21.7408   35.2741 C   0  0  2  0  0  0  0  0  0  0  0  0
    3.5782   22.2542   36.4526 O   0  0  0  0  0  0  0  0  0  0  0  0
   -1.3300   15.0786   39.9941 C   0  0  0  0  0  0  0  0  0  0  0  0
    2.3525   15.6434   37.6281 C   0  0  2  0  0  0  0  0  0  0  0  0
    1.9256   14.2435   37.6285 N   0  0  0  0  0  0  0  0  0  0  0  0
    1.4475   21.5327   35.4603 C   0  0  1  0  0  0  0  0  0  0  0  0
    0.7982   22.8436   35.7835 N   0  0  0  0  0  0  0  0  0  0  0  0
   -2.6210   15.9035   39.5831 C   0  0  0  0  0  0  0  0  0  0  0  0
    1.2345   16.5509   36.9697 C   0  0  2  0  0  0  0  0  0  0  0  0
    0.8257   20.9506   34.0738 C   0  0  1  0  0  0  0  0  0  0  0  0
    1.0137   21.8172   32.9723 O   0  0  0  0  0  0  0  0  0  0  0  0
   -2.5260   17.1793   39.1361 C   0  0  1  0  0  0  0  0  0  0  0  0
   -1.2883   17.8726   39.0031 O   0  0  0  0  0  0  0  0  0  0  0  0
    1.7053   18.0648   36.9718 C   0  0  2  0  0  0  0  0  0  0  0  0
    0.6875   18.8815   36.3573 O   0  0  0  0  0  0  0  0  0  0  0  0
    1.5080   19.5904   33.7397 C   0  0  0  0  0  0  0  0  0  0  0  0
    3.0169   19.7618   33.7051 O   0  0  0  0  0  0  0  0  0  0  0  0
   -3.7292   17.9956   38.7283 C   0  0  0  0  0  0  0  0  0  0  0  0
   -3.4048   18.6011   37.4583 O   0  0  0  0  0  0  0  0  0  0  0  0
    3.0353   18.1918   36.1352 C   0  0  1  0  0  0  0  0  0  0  0  0
    3.4357   19.5395   36.1565 O   0  0  0  0  0  0  0  0  0  0  0  0
   -0.6856   20.6890   34.1129 C   0  0  0  0  0  0  0  0  0  0  0  0
   -0.3813   22.7877   36.6718 C   0  0  0  0  0  0  0  0  0  0  0  0
  1  2  1  6  0  0  0
  1  6  1  0  0  0  0
  1 21  1  0  0  0  0
  3  4  1  6  0  0  0
  3  8  1  0  0  0  0
  3 28  1  0  0  0  0
  5  9  1  0  0  0  0
  5 25  1  0  0  0  0
  5 29  1  1  0  0  0
  6  7  1  6  0  0  0
  6 11  1  0  0  0  0
  8 12  1  0  0  0  0
  9 10  1  1  0  0  0
  9 14  1  0  0  0  0
 11 16  1  0  0  0  0
 12 13  1  6  0  0  0
 12 17  1  0  0  0  0
 14 15  1  6  0  0  0
 14 18  1  0  0  0  0
 15 31  1  0  0  0  0
 16 20  1  0  0  0  0
 17  2  1  1  0  0  0
 17 22  1  0  0  0  0
 18 19  1  6  0  0  0
 18 24  1  0  0  0  0
 18 30  1  0  0  0  0
 20 21  1  0  0  0  0
 20 26  1  6  0  0  0
 22 23  1  6  0  0  0
 22 28  1  0  0  0  0
 24 25  1  0  0  0  0
 26 27  1  0  0  0  0
 28 29  1  1  0  0  0
M  END
>  <CHROM.1>
-112.07168001,137.12455314,-147.58950080,76.94100433,-132.68949540,118.60320284
0.99108966,18.53853119,36.79795417,2.03096273,-0.32129070,2.59008361

>  <Name>
ligand

>  <RI>
0

>  <Rbt.Current_Directory>
/home/itssahil/PROJECTS/Mol_Feturizer/New_Systems/rnas/4GPY

>  <Rbt.Executable>
rbdock ($Id: //depot/dev/client3/rdock/2013.1/src/exe/rbdock.cxx#4 $)

>  <Rbt.Library>
libRbt.so (2013.1, Build901 2013/11/27)

>  <Rbt.Parameter_File>
/export/apps/rDock/src/rDock_2013.1_src/data/scripts/dock_solv.prm

>  <Rbt.Receptor>
prm/blind_docking_60.prm

>  <SCORE>
22.1604

>  <SCORE.INTER>
-1.80605

>  <SCORE.INTER.CONST>
1

>  <SCORE.INTER.POLAR>
0

>  <SCORE.INTER.ROT>
6

>  <SCORE.INTER.SOLV>
20.0069

>  <SCORE.INTER.VDW>
-15.473

>  <SCORE.INTER.norm>
-0.0582598

>  <SCORE.INTRA>
8.48777

>  <SCORE.INTRA.DIHEDRAL>
9.10944

>  <SCORE.INTRA.DIHEDRAL.0>
14.7001

>  <SCORE.INTRA.POLAR>
0

>  <SCORE.INTRA.POLAR.0>
0

>  <SCORE.INTRA.REPUL>
0

>  <SCORE.INTRA.REPUL.0>
0

>  <SCORE.INTRA.SOLV>
3.6207

>  <SCORE.INTRA.SOLV.lig_0>
-65.3082

>  <SCORE.INTRA.VDW>
2.1227

>  <SCORE.INTRA.VDW.0>
-4.21408

>  <SCORE.INTRA.norm>
0.273799

>  <SCORE.RESTR>
15.4787

>  <SCORE.RESTR.CAVITY>
15.4787

>  <SCORE.RESTR.norm>
0.499312

>  <SCORE.SYSTEM>
0

>  <SCORE.SYSTEM.CONST>
0

>  <SCORE.SYSTEM.DIHEDRAL>
0

>  <SCORE.SYSTEM.SOLV>
0

>  <SCORE.SYSTEM.norm>
0

>  <SCORE.heavy>
31

>  <SCORE.norm>
0.714851

>  <RMSD>
9.207

$$$$
ligand
 OpenBabel11021811493D
libRbt.so/2013.1/901 2013/11/27
 31 33  0  0  0  0  0  0  0  0999 V2000
    3.3247   13.8603   38.3566 C   0  0  2  0  0  0  0  0  0  0  0  0
    3.6012   14.9590   37.5094 O   0  0  0  0  0  0  0  0  0  0  0  0
    1.1465   17.6314   35.2975 C   0  0  2  0  0  0  0  0  0  0  0  0
    0.1530   18.6114   35.0152 N   0  0  0  0  0  0  0  0  0  0  0  0
    3.0488   20.6580   36.2145 C   0  0  2  0  0  0  0  0  0  0  0  0
    4.5238   13.7194   39.3911 C   0  0  2  0  0  0  0  0  0  0  0  0
    4.6608   14.9655   40.1376 N   0  0  0  0  0  0  0  0  0  0  0  0
    0.4402   16.4006   36.0228 C   0  0  0  0  0  0  0  0  0  0  0  0
    1.6102   21.1796   36.5457 C   0  0  2  0  0  0  0  0  0  0  0  0
    0.9625   20.2305   37.3661 O   0  0  0  0  0  0  0  0  0  0  0  0
    5.8592   13.3564   38.6435 C   0  0  0  0  0  0  0  0  0  0  0  0
    1.5427   15.3039   36.3218 C   0  0  2  0  0  0  0  0  0  0  0  0
    0.9097   14.1608   36.9808 N   0  0  0  0  0  0  0  0  0  0  0  0
    0.8289   21.3788   35.1961 C   0  0  1  0  0  0  0  0  0  0  0  0
   -0.5590   21.8638   35.4844 N   0  0  0  0  0  0  0  0  0  0  0  0
    5.6137   12.3164   37.4712 C   0  0  0  0  0  0  0  0  0  0  0  0
    2.6476   15.9309   37.2669 C   0  0  2  0  0  0  0  0  0  0  0  0
    1.6106   22.4863   34.2958 C   0  0  1  0  0  0  0  0  0  0  0  0
    1.7085   23.7480   34.9266 O   0  0  0  0  0  0  0  0  0  0  0  0
    4.3624   12.0330   37.0348 C   0  0  1  0  0  0  0  0  0  0  0  0
    3.1888   12.6286   37.5807 O   0  0  0  0  0  0  0  0  0  0  0  0
    3.3271   17.1690   36.5464 C   0  0  2  0  0  0  0  0  0  0  0  0
    4.3213   17.7423   37.4201 O   0  0  0  0  0  0  0  0  0  0  0  0
    3.0547   21.9794   34.0037 C   0  0  0  0  0  0  0  0  0  0  0  0
    3.7608   21.6460   35.3065 O   0  0  0  0  0  0  0  0  0  0  0  0
    4.0870   11.0552   35.9175 C   0  0  0  0  0  0  0  0  0  0  0  0
    4.9088    9.8958   36.1728 O   0  0  0  0  0  0  0  0  0  0  0  0
    2.2266   18.2561   36.2432 C   0  0  1  0  0  0  0  0  0  0  0  0
    2.8508   19.3395   35.6002 O   0  0  0  0  0  0  0  0  0  0  0  0
    0.9609   22.7771   32.9367 C   0  0  0  0  0  0  0  0  0  0  0  0
   -0.6677   23.0669   36.3354 C   0  0  0  0  0  0  0  0  0  0  0  0
  1  2  1  6  0  0  0
  1  6  1  0  0  0  0
  1 21  1  0  0  0  0
  3  4  1  1  0  0  0
  3  8  1  0  0  0  0
  3 28  1  0  0  0  0
  5  9  1  0  0  0  0
  5 25  1  0  0  0  0
  5 29  1  6  0  0  0
  6  7  1  6  0  0  0
  6 11  1  0  0  0  0
  8 12  1  0  0  0  0
  9 10  1  1  0  0  0
  9 14  1  0  0  0  0
 11 16  1  0  0  0  0
 12 13  1  1  0  0  0
 12 17  1  0  0  0  0
 14 15  1  1  0  0  0
 14 18  1  0  0  0  0
 15 31  1  0  0  0  0
 16 20  1  0  0  0  0
 17  2  1  6  0  0  0
 17 22  1  0  0  0  0
 18 19  1  1  0  0  0
 18 24  1  0  0  0  0
 18 30  1  0  0  0  0
 20 21  1  0  0  0  0
 20 26  1  6  0  0  0
 22 23  1  1  0  0  0
 22 28  1  0  0  0  0
 24 25  1  0  0  0  0
 26 27  1  0  0  0  0
 28 29  1  6  0  0  0
M  END
>  <CHROM.1>
-131.16540912,-60.28733609,53.40702167,-72.49456969,45.03290932,131.34521362
2.59509136,17.44657646,36.43176382,-1.23546073,-0.48497276,-0.09007537

>  <Name>
ligand

>  <RI>
0

>  <Rbt.Current_Directory>
/home/itssahil/PROJECTS/Mol_Feturizer/New_Systems/rnas/4GPY

>  <Rbt.Executable>
rbdock ($Id: //depot/dev/client3/rdock/2013.1/src/exe/rbdock.cxx#4 $)

>  <Rbt.Library>
libRbt.so (2013.1, Build901 2013/11/27)

>  <Rbt.Parameter_File>
/export/apps/rDock/src/rDock_2013.1_src/data/scripts/dock_solv.prm

>  <Rbt.Receptor>
prm/blind_docking_100.prm

>  <SCORE>
5.99581

>  <SCORE.INTER>
-6.82449

>  <SCORE.INTER.CONST>
1

>  <SCORE.INTER.POLAR>
0

>  <SCORE.INTER.ROT>
6

>  <SCORE.INTER.SOLV>
17.2899

>  <SCORE.INTER.VDW>
-17.913

>  <SCORE.INTER.norm>
-0.220145

>  <SCORE.INTRA>
7.76263

>  <SCORE.INTRA.DIHEDRAL>
2.57999

>  <SCORE.INTRA.DIHEDRAL.0>
14.7001

>  <SCORE.INTRA.POLAR>
0

>  <SCORE.INTRA.POLAR.0>
0

>  <SCORE.INTRA.REPUL>
0

>  <SCORE.INTRA.REPUL.0>
0

>  <SCORE.INTRA.SOLV>
4.0187

>  <SCORE.INTRA.SOLV.lig_0>
-65.3082

>  <SCORE.INTRA.VDW>
4.46328

>  <SCORE.INTRA.VDW.0>
-4.21408

>  <SCORE.INTRA.norm>
0.250407

>  <SCORE.RESTR>
5.05767

>  <SCORE.RESTR.CAVITY>
5.05767

>  <SCORE.RESTR.norm>
0.163151

>  <SCORE.SYSTEM>
0

>  <SCORE.SYSTEM.CONST>
0

>  <SCORE.SYSTEM.DIHEDRAL>
0

>  <SCORE.SYSTEM.SOLV>
0

>  <SCORE.SYSTEM.norm>
0

>  <SCORE.heavy>
31

>  <SCORE.norm>
0.193413

>  <RMSD>
9.258

$$$$
ligand
 OpenBabel11021811493D
libRbt.so/2013.1/901 2013/11/27
 31 33  0  0  0  0  0  0  0  0999 V2000
    1.4349    8.8407   41.2308 C   0  0  2  0  0  0  0  0  0  0  0  0
    2.8001    8.9290   40.8708 O   0  0  0  0  0  0  0  0  0  0  0  0
    4.8646   11.5524   38.2411 C   0  0  2  0  0  0  0  0  0  0  0  0
    5.3013   12.1608   37.0303 N   0  0  0  0  0  0  0  0  0  0  0  0
    3.4660   14.0082   39.4921 C   0  0  2  0  0  0  0  0  0  0  0  0
    1.3451    8.1685   42.6690 C   0  0  2  0  0  0  0  0  0  0  0  0
    2.1114    8.9675   43.6193 N   0  0  0  0  0  0  0  0  0  0  0  0
    5.2235   10.0010   38.1768 C   0  0  0  0  0  0  0  0  0  0  0  0
    2.5160   15.2505   39.4197 C   0  0  2  0  0  0  0  0  0  0  0  0
    1.1821   14.8087   39.5566 O   0  0  0  0  0  0  0  0  0  0  0  0
    1.8704    6.6867   42.6204 C   0  0  0  0  0  0  0  0  0  0  0  0
    4.7524    9.3279   39.5305 C   0  0  2  0  0  0  0  0  0  0  0  0
    5.0824    7.9027   39.4928 N   0  0  0  0  0  0  0  0  0  0  0  0
    2.7304   15.9623   38.0344 C   0  0  1  0  0  0  0  0  0  0  0  0
    1.8209   17.1483   37.9314 N   0  0  0  0  0  0  0  0  0  0  0  0
    1.4105    5.9420   41.2976 C   0  0  0  0  0  0  0  0  0  0  0  0
    3.1877    9.5182   39.6811 C   0  0  2  0  0  0  0  0  0  0  0  0
    4.2768   16.4587   37.9334 C   0  0  1  0  0  0  0  0  0  0  0  0
    4.6345   17.3759   38.9483 O   0  0  0  0  0  0  0  0  0  0  0  0
    0.8805    6.6263   40.2548 C   0  0  1  0  0  0  0  0  0  0  0  0
    0.6931    8.0388   40.2591 O   0  0  0  0  0  0  0  0  0  0  0  0
    2.8386   11.0643   39.7197 C   0  0  2  0  0  0  0  0  0  0  0  0
    1.4109   11.2279   39.8422 O   0  0  0  0  0  0  0  0  0  0  0  0
    5.2182   15.2223   38.0465 C   0  0  0  0  0  0  0  0  0  0  0  0
    4.9090   14.4496   39.3171 O   0  0  0  0  0  0  0  0  0  0  0  0
    0.4374    5.9561   38.9762 C   0  0  0  0  0  0  0  0  0  0  0  0
   -0.9836    6.1855   38.8621 O   0  0  0  0  0  0  0  0  0  0  0  0
    3.3152   11.7336   38.3743 C   0  0  1  0  0  0  0  0  0  0  0  0
    3.0009   13.1027   38.4344 O   0  0  0  0  0  0  0  0  0  0  0  0
    4.6345   17.1677   36.6207 C   0  0  0  0  0  0  0  0  0  0  0  0
    0.5726   16.9506   37.1658 C   0  0  0  0  0  0  0  0  0  0  0  0
  1  2  1  6  0  0  0
  1  6  1  0  0  0  0
  1 21  1  0  0  0  0
  3  4  1  6  0  0  0
  3  8  1  0  0  0  0
  3 28  1  0  0  0  0
  5  9  1  0  0  0  0
  5 25  1  0  0  0  0
  5 29  1  6  0  0  0
  6  7  1  1  0  0  0
  6 11  1  0  0  0  0
  8 12  1  0  0  0  0
  9 10  1  6  0  0  0
  9 14  1  0  0  0  0
 11 16  1  0  0  0  0
 12 13  1  6  0  0  0
 12 17  1  0  0  0  0
 14 15  1  1  0  0  0
 14 18  1  0  0  0  0
 15 31  1  0  0  0  0
 16 20  1  0  0  0  0
 17  2  1  1  0  0  0
 17 22  1  0  0  0  0
 18 19  1  1  0  0  0
 18 24  1  0  0  0  0
 18 30  1  0  0  0  0
 20 21  1  0  0  0  0
 20 26  1  6  0  0  0
 22 23  1  6  0  0  0
 22 28  1  0  0  0  0
 24 25  1  0  0  0  0
 26 27  1  0  0  0  0
 28 29  1  1  0  0  0
M  END
>  <CHROM.1>
-177.73213905,-161.71630301,-98.98935198,-174.75203764,117.45403472,-61.65929210
2.77404143,11.52997002,39.39971058,1.79316611,-0.23433771,2.90075607

>  <Name>
ligand

>  <RI>
0

>  <Rbt.Current_Directory>
/home/itssahil/PROJECTS/Mol_Feturizer/New_Systems/rnas/4GPY

>  <Rbt.Executable>
rbdock ($Id: //depot/dev/client3/rdock/2013.1/src/exe/rbdock.cxx#4 $)

>  <Rbt.Library>
libRbt.so (2013.1, Build901 2013/11/27)

>  <Rbt.Parameter_File>
/export/apps/rDock/src/rDock_2013.1_src/data/scripts/dock_solv.prm

>  <Rbt.Receptor>
prm/pocket_docking_8.prm

>  <SCORE>
-10.6893

>  <SCORE.INTER>
-6.25373

>  <SCORE.INTER.CONST>
1

>  <SCORE.INTER.POLAR>
0

>  <SCORE.INTER.ROT>
6

>  <SCORE.INTER.SOLV>
12.9872

>  <SCORE.INTER.VDW>
-16.0982

>  <SCORE.INTER.norm>
-0.201733

>  <SCORE.INTRA>
-4.4356

>  <SCORE.INTRA.DIHEDRAL>
-10.4285

>  <SCORE.INTRA.DIHEDRAL.0>
14.7001

>  <SCORE.INTRA.POLAR>
0

>  <SCORE.INTRA.POLAR.0>
0

>  <SCORE.INTRA.REPUL>
0

>  <SCORE.INTRA.REPUL.0>
0

>  <SCORE.INTRA.SOLV>
-0.688611

>  <SCORE.INTRA.SOLV.lig_0>
-65.3082

>  <SCORE.INTRA.VDW>
1.12295

>  <SCORE.INTRA.VDW.0>
-4.21408

>  <SCORE.INTRA.norm>
-0.143084

>  <SCORE.RESTR>
0

>  <SCORE.RESTR.CAVITY>
0

>  <SCORE.RESTR.norm>
0

>  <SCORE.SYSTEM>
0

>  <SCORE.SYSTEM.CONST>
0

>  <SCORE.SYSTEM.DIHEDRAL>
0

>  <SCORE.SYSTEM.SOLV>
0

>  <SCORE.SYSTEM.norm>
0

>  <SCORE.heavy>
31

>  <SCORE.norm>
-0.344817

>  <RMSD>
9.266

$$$$
ligand
 OpenBabel11021811493D
libRbt.so/2013.1/901 2013/11/27
 31 33  0  0  0  0  0  0  0  0999 V2000
    0.2192   16.8199   39.0547 C   0  0  2  0  0  0  0  0  0  0  0  0
    0.3770   16.1722   37.8070 O   0  0  0  0  0  0  0  0  0  0  0  0
    4.2269   17.5855   36.6932 C   0  0  2  0  0  0  0  0  0  0  0  0
    5.3761   17.8455   35.8940 N   0  0  0  0  0  0  0  0  0  0  0  0
    3.4032   20.4430   34.7768 C   0  0  2  0  0  0  0  0  0  0  0  0
   -0.0228   15.7059   40.1632 C   0  0  2  0  0  0  0  0  0  0  0  0
    1.1049   14.7802   40.1656 N   0  0  0  0  0  0  0  0  0  0  0  0
    3.9980   16.0090   36.7387 C   0  0  0  0  0  0  0  0  0  0  0  0
    2.7836   21.8536   35.0557 C   0  0  2  0  0  0  0  0  0  0  0  0
    3.3905   22.3941   36.2101 O   0  0  0  0  0  0  0  0  0  0  0  0
   -1.3768   14.9498   39.9005 C   0  0  0  0  0  0  0  0  0  0  0  0
    2.7295   15.7193   37.6411 C   0  0  2  0  0  0  0  0  0  0  0  0
    2.5092   14.2738   37.7015 N   0  0  0  0  0  0  0  0  0  0  0  0
    1.2345   21.6855   35.2643 C   0  0  1  0  0  0  0  0  0  0  0  0
    0.6167   23.0204   35.5488 N   0  0  0  0  0  0  0  0  0  0  0  0
   -2.5192   15.9384   39.4171 C   0  0  0  0  0  0  0  0  0  0  0  0
    1.4698   16.4333   37.0006 C   0  0  2  0  0  0  0  0  0  0  0  0
    0.5857   21.0701   33.9048 C   0  0  1  0  0  0  0  0  0  0  0  0
    0.7804   21.8944   32.7725 O   0  0  0  0  0  0  0  0  0  0  0  0
   -2.2333   17.2042   39.0268 C   0  0  1  0  0  0  0  0  0  0  0  0
   -0.9142   17.7428   39.0203 O   0  0  0  0  0  0  0  0  0  0  0  0
    1.7171   17.9981   36.9375 C   0  0  2  0  0  0  0  0  0  0  0  0
    0.5713   18.6383   36.3395 O   0  0  0  0  0  0  0  0  0  0  0  0
    1.2353   19.6848   33.6108 C   0  0  0  0  0  0  0  0  0  0  0  0
    2.7470   19.8222   33.5554 O   0  0  0  0  0  0  0  0  0  0  0  0
   -3.2901   18.1734   38.5534 C   0  0  0  0  0  0  0  0  0  0  0  0
   -3.2516   19.2987   39.4573 O   0  0  0  0  0  0  0  0  0  0  0  0
    2.9846   18.2836   36.0447 C   0  0  1  0  0  0  0  0  0  0  0  0
    3.1870   19.6745   36.0087 O   0  0  0  0  0  0  0  0  0  0  0  0
   -0.9303   20.8428   33.9678 C   0  0  0  0  0  0  0  0  0  0  0  0
   -0.4413   23.0449   36.5800 C   0  0  0  0  0  0  0  0  0  0  0  0
  1  2  1  6  0  0  0
  1  6  1  0  0  0  0
  1 21  1  0  0  0  0
  3  4  1  6  0  0  0
  3  8  1  0  0  0  0
  3 28  1  0  0  0  0
  5  9  1  0  0  0  0
  5 25  1  0  0  0  0
  5 29  1  1  0  0  0
  6  7  1  6  0  0  0
  6 11  1  0  0  0  0
  8 12  1  0  0  0  0
  9 10  1  1  0  0  0
  9 14  1  0  0  0  0
 11 16  1  0  0  0  0
 12 13  1  6  0  0  0
 12 17  1  0  0  0  0
 14 15  1  6  0  0  0
 14 18  1  0  0  0  0
 15 31  1  0  0  0  0
 16 20  1  0  0  0  0
 17  2  1  1  0  0  0
 17 22  1  0  0  0  0
 18 19  1  6  0  0  0
 18 24  1  0  0  0  0
 18 30  1  0  0  0  0
 20 21  1  0  0  0  0
 20 26  1  6  0  0  0
 22 23  1  6  0  0  0
 22 28  1  0  0  0  0
 24 25  1  0  0  0  0
 26 27  1  0  0  0  0
 28 29  1  1  0  0  0
M  END
>  <CHROM.1>
-127.76497551,148.60264204,-140.06804227,74.32036858,119.66782542,110.65675836
1.01215583,18.59507909,36.78552636,1.92315243,-0.39051282,2.57201392

>  <Name>
ligand

>  <RI>
0

>  <Rbt.Current_Directory>
/home/itssahil/PROJECTS/Mol_Feturizer/New_Systems/rnas/4GPY

>  <Rbt.Executable>
rbdock ($Id: //depot/dev/client3/rdock/2013.1/src/exe/rbdock.cxx#4 $)

>  <Rbt.Library>
libRbt.so (2013.1, Build901 2013/11/27)

>  <Rbt.Parameter_File>
/export/apps/rDock/src/rDock_2013.1_src/data/scripts/dock_solv.prm

>  <Rbt.Receptor>
prm/blind_docking_60.prm

>  <SCORE>
18.9647

>  <SCORE.INTER>
-2.69144

>  <SCORE.INTER.CONST>
1

>  <SCORE.INTER.POLAR>
0

>  <SCORE.INTER.ROT>
6

>  <SCORE.INTER.SOLV>
18.7513

>  <SCORE.INTER.VDW>
-15.6447

>  <SCORE.INTER.norm>
-0.0868205

>  <SCORE.INTRA>
4.84729

>  <SCORE.INTRA.DIHEDRAL>
6.38482

>  <SCORE.INTRA.DIHEDRAL.0>
14.7001

>  <SCORE.INTRA.POLAR>
0

>  <SCORE.INTRA.POLAR.0>
0

>  <SCORE.INTRA.REPUL>
0

>  <SCORE.INTRA.REPUL.0>
0

>  <SCORE.INTRA.SOLV>
2.00457

>  <SCORE.INTRA.SOLV.lig_0>
-65.3082

>  <SCORE.INTRA.VDW>
0.652598

>  <SCORE.INTRA.VDW.0>
-4.21408

>  <SCORE.INTRA.norm>
0.156364

>  <SCORE.RESTR>
16.8088

>  <SCORE.RESTR.CAVITY>
16.8088

>  <SCORE.RESTR.norm>
0.54222

>  <SCORE.SYSTEM>
0

>  <SCORE.SYSTEM.CONST>
0

>  <SCORE.SYSTEM.DIHEDRAL>
0

>  <SCORE.SYSTEM.SOLV>
0

>  <SCORE.SYSTEM.norm>
0

>  <SCORE.heavy>
31

>  <SCORE.norm>
0.611763

>  <RMSD>
9.277

$$$$
ligand
 OpenBabel11021811493D
libRbt.so/2013.1/901 2013/11/27
 31 33  0  0  0  0  0  0  0  0999 V2000
    1.4236   15.8298   39.2192 C   0  0  2  0  0  0  0  0  0  0  0  0
    1.4575   15.3092   37.9042 O   0  0  0  0  0  0  0  0  0  0  0  0
    3.5531   18.3707   35.8316 C   0  0  2  0  0  0  0  0  0  0  0  0
    4.3602   19.0073   34.8466 N   0  0  0  0  0  0  0  0  0  0  0  0
    0.6066   19.6673   35.2973 C   0  0  2  0  0  0  0  0  0  0  0  0
    1.1578   14.6246   40.2216 C   0  0  2  0  0  0  0  0  0  0  0  0
    2.2065   13.6239   40.0558 N   0  0  0  0  0  0  0  0  0  0  0  0
    4.4096   17.2048   36.5000 C   0  0  0  0  0  0  0  0  0  0  0  0
    0.2324   20.8176   34.3033 C   0  0  2  0  0  0  0  0  0  0  0  0
   -0.3033   20.2448   33.1294 O   0  0  0  0  0  0  0  0  0  0  0  0
   -0.2649   14.0018   39.9722 C   0  0  0  0  0  0  0  0  0  0  0  0
    3.5171   16.5077   37.6068 C   0  0  2  0  0  0  0  0  0  0  0  0
    4.2918   15.4386   38.2382 N   0  0  0  0  0  0  0  0  0  0  0  0
    1.5323   21.6411   33.9813 C   0  0  1  0  0  0  0  0  0  0  0  0
    1.2060   22.7414   33.0183 N   0  0  0  0  0  0  0  0  0  0  0  0
   -1.3509   15.1172   39.6679 C   0  0  0  0  0  0  0  0  0  0  0  0
    2.2234   15.9066   36.9197 C   0  0  2  0  0  0  0  0  0  0  0  0
    2.1010   22.2854   35.3632 C   0  0  1  0  0  0  0  0  0  0  0  0
    1.1823   23.1590   35.9895 O   0  0  0  0  0  0  0  0  0  0  0  0
   -0.9881   16.3932   39.3909 C   0  0  1  0  0  0  0  0  0  0  0  0
    0.3671   16.8315   39.3532 O   0  0  0  0  0  0  0  0  0  0  0  0
    1.3911   17.0706   36.2372 C   0  0  2  0  0  0  0  0  0  0  0  0
    0.2229   16.5122   35.6017 O   0  0  0  0  0  0  0  0  0  0  0  0
    2.4335   21.1374   36.3627 C   0  0  0  0  0  0  0  0  0  0  0  0
    1.2148   20.2526   36.5603 O   0  0  0  0  0  0  0  0  0  0  0  0
   -1.9899   17.4820   39.0890 C   0  0  0  0  0  0  0  0  0  0  0  0
   -3.2444   16.8225   38.8136 O   0  0  0  0  0  0  0  0  0  0  0  0
    2.2840   17.7678   35.1410 C   0  0  1  0  0  0  0  0  0  0  0  0
    1.5279   18.7983   34.5550 O   0  0  0  0  0  0  0  0  0  0  0  0
    3.3816   23.1145   35.2006 C   0  0  0  0  0  0  0  0  0  0  0  0
    1.5697   22.5035   31.6060 C   0  0  0  0  0  0  0  0  0  0  0  0
  1  2  1  6  0  0  0
  1  6  1  0  0  0  0
  1 21  1  0  0  0  0
  3  4  1  6  0  0  0
  3  8  1  0  0  0  0
  3 28  1  0  0  0  0
  5  9  1  0  0  0  0
  5 25  1  0  0  0  0
  5 29  1  6  0  0  0
  6  7  1  6  0  0  0
  6 11  1  0  0  0  0
  8 12  1  0  0  0  0
  9 10  1  6  0  0  0
  9 14  1  0  0  0  0
 11 16  1  0  0  0  0
 12 13  1  6  0  0  0
 12 17  1  0  0  0  0
 14 15  1  6  0  0  0
 14 18  1  0  0  0  0
 15 31  1  0  0  0  0
 16 20  1  0  0  0  0
 17  2  1  1  0  0  0
 17 22  1  0  0  0  0
 18 19  1  1  0  0  0
 18 24  1  0  0  0  0
 18 30  1  0  0  0  0
 20 21  1  0  0  0  0
 20 26  1  6  0  0  0
 22 23  1  6  0  0  0
 22 28  1  0  0  0  0
 24 25  1  0  0  0  0
 26 27  1  0  0  0  0
 28 29  1  1  0  0  0
M  END
>  <CHROM.1>
-150.46583357,168.84801822,-101.34197835,33.18298014,-14.88295813,-80.28936286
1.30463972,18.28916624,36.62741324,-1.71880949,0.23313260,-0.62961263

>  <Name>
ligand

>  <RI>
0

>  <Rbt.Current_Directory>
/home/itssahil/PROJECTS/Mol_Feturizer/New_Systems/rnas/4GPY

>  <Rbt.Executable>
rbdock ($Id: //depot/dev/client3/rdock/2013.1/src/exe/rbdock.cxx#4 $)

>  <Rbt.Library>
libRbt.so (2013.1, Build901 2013/11/27)

>  <Rbt.Parameter_File>
/export/apps/rDock/src/rDock_2013.1_src/data/scripts/dock_solv.prm

>  <Rbt.Receptor>
prm/blind_docking_60.prm

>  <SCORE>
23.294

>  <SCORE.INTER>
-1.27094

>  <SCORE.INTER.CONST>
1

>  <SCORE.INTER.POLAR>
0

>  <SCORE.INTER.ROT>
6

>  <SCORE.INTER.SOLV>
17.6646

>  <SCORE.INTER.VDW>
-14.3355

>  <SCORE.INTER.norm>
-0.0409979

>  <SCORE.INTRA>
3.48638

>  <SCORE.INTRA.DIHEDRAL>
-2.84528

>  <SCORE.INTRA.DIHEDRAL.0>
14.7001

>  <SCORE.INTRA.POLAR>
0

>  <SCORE.INTRA.POLAR.0>
0

>  <SCORE.INTRA.REPUL>
0

>  <SCORE.INTRA.REPUL.0>
0

>  <SCORE.INTRA.SOLV>
2.54282

>  <SCORE.INTRA.SOLV.lig_0>
-65.3082

>  <SCORE.INTRA.VDW>
3.63761

>  <SCORE.INTRA.VDW.0>
-4.21408

>  <SCORE.INTRA.norm>
0.112464

>  <SCORE.RESTR>
21.0786

>  <SCORE.RESTR.CAVITY>
21.0786

>  <SCORE.RESTR.norm>
0.679955

>  <SCORE.SYSTEM>
0

>  <SCORE.SYSTEM.CONST>
0

>  <SCORE.SYSTEM.DIHEDRAL>
0

>  <SCORE.SYSTEM.SOLV>
0

>  <SCORE.SYSTEM.norm>
0

>  <SCORE.heavy>
31

>  <SCORE.norm>
0.751421

>  <RMSD>
9.359

$$$$
ligand
 OpenBabel11021811493D
libRbt.so/2013.1/901 2013/11/27
 31 33  0  0  0  0  0  0  0  0999 V2000
    0.1229   16.8808   39.1802 C   0  0  2  0  0  0  0  0  0  0  0  0
    0.3427   16.0580   38.0506 O   0  0  0  0  0  0  0  0  0  0  0  0
    3.9803   17.7362   36.6323 C   0  0  2  0  0  0  0  0  0  0  0  0
    5.1594   17.9076   35.8530 N   0  0  0  0  0  0  0  0  0  0  0  0
    2.9021   20.3516   35.8046 C   0  0  2  0  0  0  0  0  0  0  0  0
   -0.1458   15.9394   40.4331 C   0  0  2  0  0  0  0  0  0  0  0  0
    0.9961   15.0502   40.6173 N   0  0  0  0  0  0  0  0  0  0  0  0
    4.0425   16.3003   37.3208 C   0  0  0  0  0  0  0  0  0  0  0  0
    1.4799   20.9755   36.0030 C   0  0  2  0  0  0  0  0  0  0  0  0
    0.6674   20.0425   36.6832 O   0  0  0  0  0  0  0  0  0  0  0  0
   -1.4750   15.1221   40.2353 C   0  0  0  0  0  0  0  0  0  0  0  0
    2.7387   16.1168   38.2006 C   0  0  2  0  0  0  0  0  0  0  0  0
    2.7831   14.8052   38.8484 N   0  0  0  0  0  0  0  0  0  0  0  0
    0.8815   21.3126   34.5889 C   0  0  1  0  0  0  0  0  0  0  0  0
   -0.4883   21.8981   34.7481 N   0  0  0  0  0  0  0  0  0  0  0  0
   -2.6129   16.0013   39.5659 C   0  0  0  0  0  0  0  0  0  0  0  0
    1.4677   16.2149   37.2615 C   0  0  2  0  0  0  0  0  0  0  0  0
    1.8486   22.3959   33.8546 C   0  0  1  0  0  0  0  0  0  0  0  0
    1.9701   23.6091   34.5707 O   0  0  0  0  0  0  0  0  0  0  0  0
   -2.3324   17.2010   39.0014 C   0  0  1  0  0  0  0  0  0  0  0  0
   -1.0233   17.7624   38.9645 O   0  0  0  0  0  0  0  0  0  0  0  0
    1.4280   17.6375   36.5628 C   0  0  2  0  0  0  0  0  0  0  0  0
    0.2756   17.7124   35.6987 O   0  0  0  0  0  0  0  0  0  0  0  0
    3.2728   21.7841   33.6964 C   0  0  0  0  0  0  0  0  0  0  0  0
    3.7918   21.3224   35.0472 O   0  0  0  0  0  0  0  0  0  0  0  0
   -3.3849   18.0645   38.3480 C   0  0  0  0  0  0  0  0  0  0  0  0
   -3.2845   19.3690   38.9585 O   0  0  0  0  0  0  0  0  0  0  0  0
    2.7302   17.8209   35.6936 C   0  0  1  0  0  0  0  0  0  0  0  0
    2.6752   19.0896   35.0899 O   0  0  0  0  0  0  0  0  0  0  0  0
    1.3888   22.8135   32.4517 C   0  0  0  0  0  0  0  0  0  0  0  0
   -1.5065   21.4542   33.7736 C   0  0  0  0  0  0  0  0  0  0  0  0
  1  2  1  6  0  0  0
  1  6  1  0  0  0  0
  1 21  1  0  0  0  0
  3  4  1  6  0  0  0
  3  8  1  0  0  0  0
  3 28  1  0  0  0  0
  5  9  1  0  0  0  0
  5 25  1  0  0  0  0
  5 29  1  6  0  0  0
  6  7  1  6  0  0  0
  6 11  1  0  0  0  0
  8 12  1  0  0  0  0
  9 10  1  6  0  0  0
  9 14  1  0  0  0  0
 11 16  1  0  0  0  0
 12 13  1  6  0  0  0
 12 17  1  0  0  0  0
 14 15  1  1  0  0  0
 14 18  1  0  0  0  0
 15 31  1  0  0  0  0
 16 20  1  0  0  0  0
 17  2  1  1  0  0  0
 17 22  1  0  0  0  0
 18 19  1  1  0  0  0
 18 24  1  0  0  0  0
 18 30  1  0  0  0  0
 20 21  1  0  0  0  0
 20 26  1  6  0  0  0
 22 23  1  6  0  0  0
 22 28  1  0  0  0  0
 24 25  1  0  0  0  0
 26 27  1  0  0  0  0
 28 29  1  1  0  0  0
M  END
>  <CHROM.1>
-127.33250587,-103.96637583,-139.51028302,54.65849447,126.89060715,-44.28423450
0.95985228,18.64617721,36.80996295,1.88745066,-0.27865376,2.49633186

>  <Name>
ligand

>  <RI>
0

>  <Rbt.Current_Directory>
/home/itssahil/PROJECTS/Mol_Feturizer/New_Systems/rnas/4GPY

>  <Rbt.Executable>
rbdock ($Id: //depot/dev/client3/rdock/2013.1/src/exe/rbdock.cxx#4 $)

>  <Rbt.Library>
libRbt.so (2013.1, Build901 2013/11/27)

>  <Rbt.Parameter_File>
/export/apps/rDock/src/rDock_2013.1_src/data/scripts/dock_solv.prm

>  <Rbt.Receptor>
prm/blind_docking_60.prm

>  <SCORE>
24.2162

>  <SCORE.INTER>
-6.12467

>  <SCORE.INTER.CONST>
1

>  <SCORE.INTER.POLAR>
0

>  <SCORE.INTER.ROT>
6

>  <SCORE.INTER.SOLV>
18.1173

>  <SCORE.INTER.VDW>
-17.7222

>  <SCORE.INTER.norm>
-0.19757

>  <SCORE.INTRA>
9.57909

>  <SCORE.INTRA.DIHEDRAL>
2.19442

>  <SCORE.INTRA.DIHEDRAL.0>
14.7001

>  <SCORE.INTRA.POLAR>
0

>  <SCORE.INTRA.POLAR.0>
0

>  <SCORE.INTRA.REPUL>
0.609431

>  <SCORE.INTRA.REPUL.0>
0

>  <SCORE.INTRA.SOLV>
3.41996

>  <SCORE.INTRA.SOLV.lig_0>
-65.3082

>  <SCORE.INTRA.VDW>
3.72475

>  <SCORE.INTRA.VDW.0>
-4.21408

>  <SCORE.INTRA.norm>
0.309003

>  <SCORE.RESTR>
20.7618

>  <SCORE.RESTR.CAVITY>
20.7618

>  <SCORE.RESTR.norm>
0.669735

>  <SCORE.SYSTEM>
0

>  <SCORE.SYSTEM.CONST>
0

>  <SCORE.SYSTEM.DIHEDRAL>
0

>  <SCORE.SYSTEM.SOLV>
0

>  <SCORE.SYSTEM.norm>
0

>  <SCORE.heavy>
31

>  <SCORE.norm>
0.781168

>  <RMSD>
9.375

$$$$
ligand
 OpenBabel11021811493D
libRbt.so/2013.1/901 2013/11/27
 31 33  0  0  0  0  0  0  0  0999 V2000
    3.2923   11.9703   36.7017 C   0  0  2  0  0  0  0  0  0  0  0  0
    3.6879   13.3011   36.4301 O   0  0  0  0  0  0  0  0  0  0  0  0
    1.5569   16.9656   36.1302 C   0  0  2  0  0  0  0  0  0  0  0  0
    0.7335   18.0673   36.4977 N   0  0  0  0  0  0  0  0  0  0  0  0
    4.1306   18.5499   35.6102 C   0  0  2  0  0  0  0  0  0  0  0  0
    2.8791   11.8802   38.2344 C   0  0  2  0  0  0  0  0  0  0  0  0
    1.8075   12.8346   38.4981 N   0  0  0  0  0  0  0  0  0  0  0  0
    0.7122   15.6275   36.3188 C   0  0  0  0  0  0  0  0  0  0  0  0
    4.8178   19.9245   35.9099 C   0  0  2  0  0  0  0  0  0  0  0  0
    5.7558   19.7443   36.9496 O   0  0  0  0  0  0  0  0  0  0  0  0
    4.1219   12.1531   39.1589 C   0  0  0  0  0  0  0  0  0  0  0  0
    1.6230   14.4037   35.8943 C   0  0  2  0  0  0  0  0  0  0  0  0
    0.8595   13.1653   36.0528 N   0  0  0  0  0  0  0  0  0  0  0  0
    3.7080   20.9558   36.3298 C   0  0  1  0  0  0  0  0  0  0  0  0
    4.3404   22.2786   36.6378 N   0  0  0  0  0  0  0  0  0  0  0  0
    5.4401   11.4812   38.5871 C   0  0  0  0  0  0  0  0  0  0  0  0
    2.9057   14.3722   36.8220 C   0  0  2  0  0  0  0  0  0  0  0  0
    2.6622   21.1328   35.0956 C   0  0  1  0  0  0  0  0  0  0  0  0
    3.2718   21.6139   33.9140 O   0  0  0  0  0  0  0  0  0  0  0  0
    5.4879   10.9929   37.3239 C   0  0  1  0  0  0  0  0  0  0  0  0
    4.3838   11.0379   36.4244 O   0  0  0  0  0  0  0  0  0  0  0  0
    3.7261   15.7174   36.6454 C   0  0  2  0  0  0  0  0  0  0  0  0
    4.8841   15.6859   37.5046 O   0  0  0  0  0  0  0  0  0  0  0  0
    2.0118   19.7535   34.7760 C   0  0  0  0  0  0  0  0  0  0  0  0
    3.0924   18.7187   34.5142 O   0  0  0  0  0  0  0  0  0  0  0  0
    6.7246   10.3528   36.7398 C   0  0  0  0  0  0  0  0  0  0  0  0
    7.3166    9.5633   37.7939 O   0  0  0  0  0  0  0  0  0  0  0  0
    2.8150   16.9347   37.0615 C   0  0  1  0  0  0  0  0  0  0  0  0
    3.5607   18.1144   36.8911 O   0  0  0  0  0  0  0  0  0  0  0  0
    1.5123   22.1108   35.3695 C   0  0  0  0  0  0  0  0  0  0  0  0
    5.1690   22.8723   35.5680 C   0  0  0  0  0  0  0  0  0  0  0  0
  1  2  1  1  0  0  0
  1  6  1  0  0  0  0
  1 21  1  0  0  0  0
  3  4  1  1  0  0  0
  3  8  1  0  0  0  0
  3 28  1  0  0  0  0
  5  9  1  0  0  0  0
  5 25  1  0  0  0  0
  5 29  1  1  0  0  0
  6  7  1  6  0  0  0
  6 11  1  0  0  0  0
  8 12  1  0  0  0  0
  9 10  1  1  0  0  0
  9 14  1  0  0  0  0
 11 16  1  0  0  0  0
 12 13  1  1  0  0  0
 12 17  1  0  0  0  0
 14 15  1  6  0  0  0
 14 18  1  0  0  0  0
 15 31  1  0  0  0  0
 16 20  1  0  0  0  0
 17  2  1  6  0  0  0
 17 22  1  0  0  0  0
 18 19  1  6  0  0  0
 18 24  1  0  0  0  0
 18 30  1  0  0  0  0
 20 21  1  0  0  0  0
 20 26  1  6  0  0  0
 22 23  1  1  0  0  0
 22 28  1  0  0  0  0
 24 25  1  0  0  0  0
 26 27  1  0  0  0  0
 28 29  1  6  0  0  0
M  END
>  <CHROM.1>
-48.74998591,178.04798544,55.82303434,-71.83870731,39.25535571,-58.94427408
3.55833514,16.21311859,36.52013985,1.44886611,0.14776297,2.95953517

>  <Name>
ligand

>  <RI>
0

>  <Rbt.Current_Directory>
/home/itssahil/PROJECTS/Mol_Feturizer/New_Systems/rnas/4GPY

>  <Rbt.Executable>
rbdock ($Id: //depot/dev/client3/rdock/2013.1/src/exe/rbdock.cxx#4 $)

>  <Rbt.Library>
libRbt.so (2013.1, Build901 2013/11/27)

>  <Rbt.Parameter_File>
/export/apps/rDock/src/rDock_2013.1_src/data/scripts/dock_solv.prm

>  <Rbt.Receptor>
prm/blind_docking_100.prm

>  <SCORE>
-0.795792

>  <SCORE.INTER>
-9.7489

>  <SCORE.INTER.CONST>
1

>  <SCORE.INTER.POLAR>
0

>  <SCORE.INTER.ROT>
6

>  <SCORE.INTER.SOLV>
18.041

>  <SCORE.INTER.VDW>
-20.1129

>  <SCORE.INTER.norm>
-0.314481

>  <SCORE.INTRA>
6.04862

>  <SCORE.INTRA.DIHEDRAL>
-10.2871

>  <SCORE.INTRA.DIHEDRAL.0>
14.7001

>  <SCORE.INTRA.POLAR>
0

>  <SCORE.INTRA.POLAR.0>
0

>  <SCORE.INTRA.REPUL>
0

>  <SCORE.INTRA.REPUL.0>
0

>  <SCORE.INTRA.SOLV>
6.82864

>  <SCORE.INTRA.SOLV.lig_0>
-65.3082

>  <SCORE.INTRA.VDW>
7.77783

>  <SCORE.INTRA.VDW.0>
-4.21408

>  <SCORE.INTRA.norm>
0.195117

>  <SCORE.RESTR>
2.90449

>  <SCORE.RESTR.CAVITY>
2.90449

>  <SCORE.RESTR.norm>
0.0936933

>  <SCORE.SYSTEM>
0

>  <SCORE.SYSTEM.CONST>
0

>  <SCORE.SYSTEM.DIHEDRAL>
0

>  <SCORE.SYSTEM.SOLV>
0

>  <SCORE.SYSTEM.norm>
0

>  <SCORE.heavy>
31

>  <SCORE.norm>
-0.0256707

>  <RMSD>
9.401

$$$$
ligand
 OpenBabel11021811493D
libRbt.so/2013.1/901 2013/11/27
 31 33  0  0  0  0  0  0  0  0999 V2000
    3.1492   12.9605   38.2883 C   0  0  2  0  0  0  0  0  0  0  0  0
    3.3777   14.0529   37.4190 O   0  0  0  0  0  0  0  0  0  0  0  0
    1.1364   17.2182   35.6820 C   0  0  2  0  0  0  0  0  0  0  0  0
    0.1984   18.2822   35.5604 N   0  0  0  0  0  0  0  0  0  0  0  0
    3.5369   18.9119   35.0570 C   0  0  2  0  0  0  0  0  0  0  0  0
    4.2171   13.0323   39.4642 C   0  0  2  0  0  0  0  0  0  0  0  0
    4.0886   14.3138   40.1497 N   0  0  0  0  0  0  0  0  0  0  0  0
    0.3480   15.9080   36.1308 C   0  0  0  0  0  0  0  0  0  0  0  0
    5.0401   19.2210   35.3670 C   0  0  2  0  0  0  0  0  0  0  0  0
    5.5624   18.1768   36.1608 O   0  0  0  0  0  0  0  0  0  0  0  0
    5.6725   12.8332   38.9019 C   0  0  0  0  0  0  0  0  0  0  0  0
    1.3892   14.7208   36.2501 C   0  0  2  0  0  0  0  0  0  0  0  0
    0.6804   13.5056   36.6533 N   0  0  0  0  0  0  0  0  0  0  0  0
    5.1205   20.5952   36.1262 C   0  0  1  0  0  0  0  0  0  0  0  0
    6.5492   20.9092   36.4497 N   0  0  0  0  0  0  0  0  0  0  0  0
    5.7197   11.7233   37.7698 C   0  0  0  0  0  0  0  0  0  0  0  0
    2.4773   15.0994   37.3362 C   0  0  2  0  0  0  0  0  0  0  0  0
    4.5165   21.7616   35.1656 C   0  0  1  0  0  0  0  0  0  0  0  0
    5.2220   21.9008   33.9481 O   0  0  0  0  0  0  0  0  0  0  0  0
    4.5833   11.2480   37.2048 C   0  0  1  0  0  0  0  0  0  0  0  0
    3.2805   11.6921   37.5730 O   0  0  0  0  0  0  0  0  0  0  0  0
    3.2392   16.4172   36.8926 C   0  0  2  0  0  0  0  0  0  0  0  0
    4.2177   16.7624   37.8944 O   0  0  0  0  0  0  0  0  0  0  0  0
    3.0326   21.4273   34.8280 C   0  0  0  0  0  0  0  0  0  0  0  0
    2.9382   20.0352   34.2278 O   0  0  0  0  0  0  0  0  0  0  0  0
    4.5856   10.1976   36.1200 C   0  0  0  0  0  0  0  0  0  0  0  0
    4.4566   10.9008   34.8655 O   0  0  0  0  0  0  0  0  0  0  0  0
    2.1997   17.5956   36.7674 C   0  0  1  0  0  0  0  0  0  0  0  0
    2.8965   18.7497   36.3679 O   0  0  0  0  0  0  0  0  0  0  0  0
    4.5234   23.1652   35.7851 C   0  0  0  0  0  0  0  0  0  0  0  0
    6.9805   20.6380   37.8367 C   0  0  0  0  0  0  0  0  0  0  0  0
  1  2  1  6  0  0  0
  1  6  1  0  0  0  0
  1 21  1  0  0  0  0
  3  4  1  1  0  0  0
  3  8  1  0  0  0  0
  3 28  1  0  0  0  0
  5  9  1  0  0  0  0
  5 25  1  0  0  0  0
  5 29  1  1  0  0  0
  6  7  1  6  0  0  0
  6 11  1  0  0  0  0
  8 12  1  0  0  0  0
  9 10  1  1  0  0  0
  9 14  1  0  0  0  0
 11 16  1  0  0  0  0
 12 13  1  1  0  0  0
 12 17  1  0  0  0  0
 14 15  1  6  0  0  0
 14 18  1  0  0  0  0
 15 31  1  0  0  0  0
 16 20  1  0  0  0  0
 17  2  1  6  0  0  0
 17 22  1  0  0  0  0
 18 19  1  6  0  0  0
 18 24  1  0  0  0  0
 18 30  1  0  0  0  0
 20 21  1  0  0  0  0
 20 26  1  6  0  0  0
 22 23  1  1  0  0  0
 22 28  1  0  0  0  0
 24 25  1  0  0  0  0
 26 27  1  0  0  0  0
 28 29  1  6  0  0  0
M  END
>  <CHROM.1>
-110.63058171,-122.88333637,-100.85277382,-87.69238986,-97.96788953,-51.49041378
3.73447861,16.59047941,36.57233415,1.64138700,0.34478929,2.90007273

>  <Name>
ligand

>  <RI>
0

>  <Rbt.Current_Directory>
/home/itssahil/PROJECTS/Mol_Feturizer/New_Systems/rnas/4GPY

>  <Rbt.Executable>
rbdock ($Id: //depot/dev/client3/rdock/2013.1/src/exe/rbdock.cxx#4 $)

>  <Rbt.Library>
libRbt.so (2013.1, Build901 2013/11/27)

>  <Rbt.Parameter_File>
/export/apps/rDock/src/rDock_2013.1_src/data/scripts/dock_solv.prm

>  <Rbt.Receptor>
prm/blind_docking_100.prm

>  <SCORE>
6.6653

>  <SCORE.INTER>
-1.83457

>  <SCORE.INTER.CONST>
1

>  <SCORE.INTER.POLAR>
0

>  <SCORE.INTER.ROT>
6

>  <SCORE.INTER.SOLV>
18.3873

>  <SCORE.INTER.VDW>
-14.9521

>  <SCORE.INTER.norm>
-0.0591797

>  <SCORE.INTRA>
4.36982

>  <SCORE.INTRA.DIHEDRAL>
5.93271

>  <SCORE.INTRA.DIHEDRAL.0>
14.7001

>  <SCORE.INTRA.POLAR>
0

>  <SCORE.INTRA.POLAR.0>
0

>  <SCORE.INTRA.REPUL>
0

>  <SCORE.INTRA.REPUL.0>
0

>  <SCORE.INTRA.SOLV>
1.4116

>  <SCORE.INTRA.SOLV.lig_0>
-65.3082

>  <SCORE.INTRA.VDW>
0.697664

>  <SCORE.INTRA.VDW.0>
-4.21408

>  <SCORE.INTRA.norm>
0.140962

>  <SCORE.RESTR>
4.13005

>  <SCORE.RESTR.CAVITY>
4.13005

>  <SCORE.RESTR.norm>
0.133228

>  <SCORE.SYSTEM>
0

>  <SCORE.SYSTEM.CONST>
0

>  <SCORE.SYSTEM.DIHEDRAL>
0

>  <SCORE.SYSTEM.SOLV>
0

>  <SCORE.SYSTEM.norm>
0

>  <SCORE.heavy>
31

>  <SCORE.norm>
0.21501

>  <RMSD>
9.423

$$$$
ligand
 OpenBabel11021811493D
libRbt.so/2013.1/901 2013/11/27
 31 33  0  0  0  0  0  0  0  0999 V2000
    2.1378   13.6551   35.9264 C   0  0  2  0  0  0  0  0  0  0  0  0
    2.3923   14.7216   36.8203 O   0  0  0  0  0  0  0  0  0  0  0  0
    4.7627   18.2167   37.2952 C   0  0  2  0  0  0  0  0  0  0  0  0
    5.7763   19.1874   37.0560 N   0  0  0  0  0  0  0  0  0  0  0  0
    3.4065   20.2495   34.6849 C   0  0  2  0  0  0  0  0  0  0  0  0
    0.9049   12.8227   36.4879 C   0  0  2  0  0  0  0  0  0  0  0  0
   -0.2467   13.7076   36.6265 N   0  0  0  0  0  0  0  0  0  0  0  0
    5.4675   16.8046   37.5163 C   0  0  0  0  0  0  0  0  0  0  0  0
    2.8683   21.6603   35.0986 C   0  0  2  0  0  0  0  0  0  0  0  0
    3.5396   22.0752   36.2693 O   0  0  0  0  0  0  0  0  0  0  0  0
    1.2719   12.1500   37.8616 C   0  0  0  0  0  0  0  0  0  0  0  0
    4.3407   15.7283   37.7986 C   0  0  2  0  0  0  0  0  0  0  0  0
    4.9712   14.4251   38.0131 N   0  0  0  0  0  0  0  0  0  0  0  0
    1.3205   21.5495   35.3505 C   0  0  1  0  0  0  0  0  0  0  0  0
    0.7805   22.8845   35.7636 N   0  0  0  0  0  0  0  0  0  0  0  0
    2.7556   11.5892   37.8650 C   0  0  0  0  0  0  0  0  0  0  0  0
    3.3698   15.6618   36.5496 C   0  0  2  0  0  0  0  0  0  0  0  0
    0.5968   21.0788   33.9710 C   0  0  1  0  0  0  0  0  0  0  0  0
    0.7951   21.9827   32.9019 O   0  0  0  0  0  0  0  0  0  0  0  0
    3.6355   11.9259   36.8908 C   0  0  1  0  0  0  0  0  0  0  0  0
    3.3096   12.7892   35.8052 O   0  0  0  0  0  0  0  0  0  0  0  0
    2.6924   17.0773   36.3233 C   0  0  2  0  0  0  0  0  0  0  0  0
    1.8216   17.0111   35.1755 O   0  0  0  0  0  0  0  0  0  0  0  0
    1.1658   19.6929   33.5432 C   0  0  0  0  0  0  0  0  0  0  0  0
    2.6799   19.7625   33.4430 O   0  0  0  0  0  0  0  0  0  0  0  0
    5.0579   11.4197   36.8618 C   0  0  0  0  0  0  0  0  0  0  0  0
    5.1242   10.4381   35.8050 O   0  0  0  0  0  0  0  0  0  0  0  0
    3.8163   18.1483   36.0498 C   0  0  1  0  0  0  0  0  0  0  0  0
    3.1929   19.3940   35.8586 O   0  0  0  0  0  0  0  0  0  0  0  0
   -0.9258   20.9193   34.0720 C   0  0  0  0  0  0  0  0  0  0  0  0
   -0.4066   22.8659   36.6434 C   0  0  0  0  0  0  0  0  0  0  0  0
  1  2  1  1  0  0  0
  1  6  1  0  0  0  0
  1 21  1  0  0  0  0
  3  4  1  6  0  0  0
  3  8  1  0  0  0  0
  3 28  1  0  0  0  0
  5  9  1  0  0  0  0
  5 25  1  0  0  0  0
  5 29  1  1  0  0  0
  6  7  1  1  0  0  0
  6 11  1  0  0  0  0
  8 12  1  0  0  0  0
  9 10  1  1  0  0  0
  9 14  1  0  0  0  0
 11 16  1  0  0  0  0
 12 13  1  6  0  0  0
 12 17  1  0  0  0  0
 14 15  1  6  0  0  0
 14 18  1  0  0  0  0
 15 31  1  0  0  0  0
 16 20  1  0  0  0  0
 17  2  1  1  0  0  0
 17 22  1  0  0  0  0
 18 19  1  6  0  0  0
 18 24  1  0  0  0  0
 18 30  1  0  0  0  0
 20 21  1  0  0  0  0
 20 26  1  1  0  0  0
 22 23  1  6  0  0  0
 22 28  1  0  0  0  0
 24 25  1  0  0  0  0
 26 27  1  0  0  0  0
 28 29  1  1  0  0  0
M  END
>  <CHROM.1>
-176.46068023,-163.76036152,-150.96739012,-126.22944674,106.77336755,115.31503670
2.64937830,17.16074116,35.98444130,1.35720936,0.33852698,2.99812189

>  <Name>
ligand

>  <RI>
0

>  <Rbt.Current_Directory>
/home/itssahil/PROJECTS/Mol_Feturizer/New_Systems/rnas/4GPY

>  <Rbt.Executable>
rbdock ($Id: //depot/dev/client3/rdock/2013.1/src/exe/rbdock.cxx#4 $)

>  <Rbt.Library>
libRbt.so (2013.1, Build901 2013/11/27)

>  <Rbt.Parameter_File>
/export/apps/rDock/src/rDock_2013.1_src/data/scripts/dock_solv.prm

>  <Rbt.Receptor>
prm/blind_docking_100.prm

>  <SCORE>
-3.77883

>  <SCORE.INTER>
-9.34082

>  <SCORE.INTER.CONST>
1

>  <SCORE.INTER.POLAR>
0

>  <SCORE.INTER.ROT>
6

>  <SCORE.INTER.SOLV>
20.4991

>  <SCORE.INTER.VDW>
-20.6602

>  <SCORE.INTER.norm>
-0.301317

>  <SCORE.INTRA>
2.54597

>  <SCORE.INTRA.DIHEDRAL>
3.15135

>  <SCORE.INTRA.DIHEDRAL.0>
14.7001

>  <SCORE.INTRA.POLAR>
0

>  <SCORE.INTRA.POLAR.0>
0

>  <SCORE.INTRA.REPUL>
0

>  <SCORE.INTRA.REPUL.0>
0

>  <SCORE.INTRA.SOLV>
1.52043

>  <SCORE.INTRA.SOLV.lig_0>
-65.3082

>  <SCORE.INTRA.VDW>
0.210077

>  <SCORE.INTRA.VDW.0>
-4.21408

>  <SCORE.INTRA.norm>
0.082128

>  <SCORE.RESTR>
3.01602

>  <SCORE.RESTR.CAVITY>
3.01602

>  <SCORE.RESTR.norm>
0.097291

>  <SCORE.SYSTEM>
0

>  <SCORE.SYSTEM.CONST>
0

>  <SCORE.SYSTEM.DIHEDRAL>
0

>  <SCORE.SYSTEM.SOLV>
0

>  <SCORE.SYSTEM.norm>
0

>  <SCORE.heavy>
31

>  <SCORE.norm>
-0.121898

>  <RMSD>
9.428

$$$$
ligand
 OpenBabel11021811493D
libRbt.so/2013.1/901 2013/11/27
 31 33  0  0  0  0  0  0  0  0999 V2000
    2.1720   13.7629   35.9210 C   0  0  2  0  0  0  0  0  0  0  0  0
    2.4040   14.8497   36.7965 O   0  0  0  0  0  0  0  0  0  0  0  0
    4.8349   18.2974   37.3104 C   0  0  2  0  0  0  0  0  0  0  0  0
    5.8694   19.2494   37.0861 N   0  0  0  0  0  0  0  0  0  0  0  0
    3.4601   20.3156   34.6438 C   0  0  2  0  0  0  0  0  0  0  0  0
    0.9324   12.9364   36.4763 C   0  0  2  0  0  0  0  0  0  0  0  0
   -0.2259   13.8181   36.5735 N   0  0  0  0  0  0  0  0  0  0  0  0
    5.5102   16.8714   37.5344 C   0  0  0  0  0  0  0  0  0  0  0  0
    2.8851   21.7259   35.0064 C   0  0  2  0  0  0  0  0  0  0  0  0
    3.5705   22.2164   36.1391 O   0  0  0  0  0  0  0  0  0  0  0  0
    1.2758   12.2952   37.8710 C   0  0  0  0  0  0  0  0  0  0  0  0
    4.3600   15.8158   37.8001 C   0  0  2  0  0  0  0  0  0  0  0  0
    4.9631   14.5002   38.0171 N   0  0  0  0  0  0  0  0  0  0  0  0
    1.3485   21.5769   35.3031 C   0  0  1  0  0  0  0  0  0  0  0  0
    0.7742   22.9115   35.6686 N   0  0  0  0  0  0  0  0  0  0  0  0
    2.7618   11.7423   37.9151 C   0  0  0  0  0  0  0  0  0  0  0  0
    3.4022   15.7720   36.5401 C   0  0  2  0  0  0  0  0  0  0  0  0
    0.6076   21.0194   33.9658 C   0  0  1  0  0  0  0  0  0  0  0  0
    0.7493   21.8784   32.8517 O   0  0  0  0  0  0  0  0  0  0  0  0
    3.6588   12.0625   36.9511 C   0  0  1  0  0  0  0  0  0  0  0  0
    3.3500   12.9007   35.8410 O   0  0  0  0  0  0  0  0  0  0  0  0
    2.7545   17.2008   36.3113 C   0  0  2  0  0  0  0  0  0  0  0  0
    1.8955   17.1551   35.1535 O   0  0  0  0  0  0  0  0  0  0  0  0
    1.2122   19.6342   33.5872 C   0  0  0  0  0  0  0  0  0  0  0  0
    2.7202   19.7480   33.4446 O   0  0  0  0  0  0  0  0  0  0  0  0
    5.0839   11.5632   36.9604 C   0  0  0  0  0  0  0  0  0  0  0  0
    5.1978   10.6223   35.8711 O   0  0  0  0  0  0  0  0  0  0  0  0
    3.9015   18.2512   36.0543 C   0  0  1  0  0  0  0  0  0  0  0  0
    3.3041   19.5091   35.8605 O   0  0  0  0  0  0  0  0  0  0  0  0
   -0.9059   20.8155   34.1133 C   0  0  0  0  0  0  0  0  0  0  0  0
   -0.3574   22.8984   36.6187 C   0  0  0  0  0  0  0  0  0  0  0  0
  1  2  1  1  0  0  0
  1  6  1  0  0  0  0
  1 21  1  0  0  0  0
  3  4  1  6  0  0  0
  3  8  1  0  0  0  0
  3 28  1  0  0  0  0
  5  9  1  0  0  0  0
  5 25  1  0  0  0  0
  5 29  1  1  0  0  0
  6  7  1  1  0  0  0
  6 11  1  0  0  0  0
  8 12  1  0  0  0  0
  9 10  1  1  0  0  0
  9 14  1  0  0  0  0
 11 16  1  0  0  0  0
 12 13  1  6  0  0  0
 12 17  1  0  0  0  0
 14 15  1  6  0  0  0
 14 18  1  0  0  0  0
 15 31  1  0  0  0  0
 16 20  1  0  0  0  0
 17  2  1  1  0  0  0
 17 22  1  0  0  0  0
 18 19  1  6  0  0  0
 18 24  1  0  0  0  0
 18 30  1  0  0  0  0
 20 21  1  0  0  0  0
 20 26  1  1  0  0  0
 22 23  1  6  0  0  0
 22 28  1  0  0  0  0
 24 25  1  0  0  0  0
 26 27  1  0  0  0  0
 28 29  1  1  0  0  0
M  END
>  <CHROM.1>
-177.93636389,-168.29644576,-148.74340812,-123.87380235,110.35866403,120.54472575
2.68490895,17.23576832,35.97979921,1.35488521,0.33805502,2.98945304

>  <Name>
ligand

>  <RI>
0

>  <Rbt.Current_Directory>
/home/itssahil/PROJECTS/Mol_Feturizer/New_Systems/rnas/4GPY

>  <Rbt.Executable>
rbdock ($Id: //depot/dev/client3/rdock/2013.1/src/exe/rbdock.cxx#4 $)

>  <Rbt.Library>
libRbt.so (2013.1, Build901 2013/11/27)

>  <Rbt.Parameter_File>
/export/apps/rDock/src/rDock_2013.1_src/data/scripts/dock_solv.prm

>  <Rbt.Receptor>
prm/blind_docking_100.prm

>  <SCORE>
-2.53823

>  <SCORE.INTER>
-7.59183

>  <SCORE.INTER.CONST>
1

>  <SCORE.INTER.POLAR>
0

>  <SCORE.INTER.ROT>
6

>  <SCORE.INTER.SOLV>
21.0974

>  <SCORE.INTER.VDW>
-19.6937

>  <SCORE.INTER.norm>
-0.244898

>  <SCORE.INTRA>
2.37258

>  <SCORE.INTRA.DIHEDRAL>
2.7315

>  <SCORE.INTRA.DIHEDRAL.0>
14.7001

>  <SCORE.INTRA.POLAR>
0

>  <SCORE.INTRA.POLAR.0>
0

>  <SCORE.INTRA.REPUL>
0

>  <SCORE.INTRA.REPUL.0>
0

>  <SCORE.INTRA.SOLV>
1.56515

>  <SCORE.INTRA.SOLV.lig_0>
-65.3082

>  <SCORE.INTRA.VDW>
0.224254

>  <SCORE.INTRA.VDW.0>
-4.21408

>  <SCORE.INTRA.norm>
0.0765348

>  <SCORE.RESTR>
2.68102

>  <SCORE.RESTR.CAVITY>
2.68102

>  <SCORE.RESTR.norm>
0.0864845

>  <SCORE.SYSTEM>
0

>  <SCORE.SYSTEM.CONST>
0

>  <SCORE.SYSTEM.DIHEDRAL>
0

>  <SCORE.SYSTEM.SOLV>
0

>  <SCORE.SYSTEM.norm>
0

>  <SCORE.heavy>
31

>  <SCORE.norm>
-0.0818784

>  <RMSD>
9.442

$$$$
ligand
 OpenBabel11021811493D
libRbt.so/2013.1/901 2013/11/27
 31 33  0  0  0  0  0  0  0  0999 V2000
    2.3045   13.8207   36.1243 C   0  0  2  0  0  0  0  0  0  0  0  0
    2.6537   14.8716   37.0048 O   0  0  0  0  0  0  0  0  0  0  0  0
    4.7602   18.5614   36.9175 C   0  0  2  0  0  0  0  0  0  0  0  0
    5.7683   19.5185   36.6097 N   0  0  0  0  0  0  0  0  0  0  0  0
    2.2586   19.0659   34.1305 C   0  0  2  0  0  0  0  0  0  0  0  0
    1.0979   13.0130   36.7723 C   0  0  2  0  0  0  0  0  0  0  0  0
   -0.0171   13.9244   37.0065 N   0  0  0  0  0  0  0  0  0  0  0  0
    5.4522   17.3274   37.6510 C   0  0  0  0  0  0  0  0  0  0  0  0
    2.0818   20.4744   33.4701 C   0  0  2  0  0  0  0  0  0  0  0  0
    3.2551   20.7869   32.7498 O   0  0  0  0  0  0  0  0  0  0  0  0
    1.5523   12.3176   38.1079 C   0  0  0  0  0  0  0  0  0  0  0  0
    4.3282   16.2705   38.0077 C   0  0  2  0  0  0  0  0  0  0  0  0
    4.9450   15.1327   38.6908 N   0  0  0  0  0  0  0  0  0  0  0  0
    1.8252   21.5296   34.6069 C   0  0  1  0  0  0  0  0  0  0  0  0
    1.6673   22.8918   34.0035 N   0  0  0  0  0  0  0  0  0  0  0  0
    3.0173   11.7207   37.9923 C   0  0  0  0  0  0  0  0  0  0  0  0
    3.6339   15.7877   36.6691 C   0  0  2  0  0  0  0  0  0  0  0  0
    0.4601   21.1285   35.3967 C   0  0  1  0  0  0  0  0  0  0  0  0
   -0.6810   21.1093   34.5619 O   0  0  0  0  0  0  0  0  0  0  0  0
    3.8279   12.0457   36.9560 C   0  0  1  0  0  0  0  0  0  0  0  0
    3.4414   12.9278   35.9059 O   0  0  0  0  0  0  0  0  0  0  0  0
    2.9697   17.0260   35.9349 C   0  0  2  0  0  0  0  0  0  0  0  0
    2.3527   16.5794   34.7100 O   0  0  0  0  0  0  0  0  0  0  0  0
    0.6278   19.7092   36.0174 C   0  0  0  0  0  0  0  0  0  0  0  0
    1.0213   18.7147   34.9389 O   0  0  0  0  0  0  0  0  0  0  0  0
    5.2307   11.5052   36.8132 C   0  0  0  0  0  0  0  0  0  0  0  0
    5.1654   10.4429   35.8375 O   0  0  0  0  0  0  0  0  0  0  0  0
    4.0893   18.0800   35.5874 C   0  0  1  0  0  0  0  0  0  0  0  0
    3.4764   19.1694   34.9436 O   0  0  0  0  0  0  0  0  0  0  0  0
    0.0880   22.0728   36.5472 C   0  0  0  0  0  0  0  0  0  0  0  0
    2.5682   23.9436   34.5187 C   0  0  0  0  0  0  0  0  0  0  0  0
  1  2  1  1  0  0  0
  1  6  1  0  0  0  0
  1 21  1  0  0  0  0
  3  4  1  6  0  0  0
  3  8  1  0  0  0  0
  3 28  1  0  0  0  0
  5  9  1  0  0  0  0
  5 25  1  0  0  0  0
  5 29  1  1  0  0  0
  6  7  1  1  0  0  0
  6 11  1  0  0  0  0
  8 12  1  0  0  0  0
  9 10  1  1  0  0  0
  9 14  1  0  0  0  0
 11 16  1  0  0  0  0
 12 13  1  6  0  0  0
 12 17  1  0  0  0  0
 14 15  1  6  0  0  0
 14 18  1  0  0  0  0
 15 31  1  0  0  0  0
 16 20  1  0  0  0  0
 17  2  1  1  0  0  0
 17 22  1  0  0  0  0
 18 19  1  6  0  0  0
 18 24  1  0  0  0  0
 18 30  1  0  0  0  0
 20 21  1  0  0  0  0
 20 26  1  1  0  0  0
 22 23  1  6  0  0  0
 22 28  1  0  0  0  0
 24 25  1  0  0  0  0
 26 27  1  0  0  0  0
 28 29  1  1  0  0  0
M  END
>  <CHROM.1>
-176.67093563,-172.27111728,-124.75983455,-149.48494328,101.35643424,-147.65610587
2.74041832,17.14788236,35.94336772,1.37765135,0.12974631,2.90932011

>  <Name>
ligand

>  <RI>
0

>  <Rbt.Current_Directory>
/home/itssahil/PROJECTS/Mol_Feturizer/New_Systems/rnas/4GPY

>  <Rbt.Executable>
rbdock ($Id: //depot/dev/client3/rdock/2013.1/src/exe/rbdock.cxx#4 $)

>  <Rbt.Library>
libRbt.so (2013.1, Build901 2013/11/27)

>  <Rbt.Parameter_File>
/export/apps/rDock/src/rDock_2013.1_src/data/scripts/dock_solv.prm

>  <Rbt.Receptor>
prm/blind_docking_100.prm

>  <SCORE>
-2.46002

>  <SCORE.INTER>
-8.84695

>  <SCORE.INTER.CONST>
1

>  <SCORE.INTER.POLAR>
0

>  <SCORE.INTER.ROT>
6

>  <SCORE.INTER.SOLV>
19.8332

>  <SCORE.INTER.VDW>
-20.109

>  <SCORE.INTER.norm>
-0.285386

>  <SCORE.INTRA>
1.38025

>  <SCORE.INTRA.DIHEDRAL>
-3.33446

>  <SCORE.INTRA.DIHEDRAL.0>
14.7001

>  <SCORE.INTRA.POLAR>
0

>  <SCORE.INTRA.POLAR.0>
0

>  <SCORE.INTRA.REPUL>
0

>  <SCORE.INTRA.REPUL.0>
0

>  <SCORE.INTRA.SOLV>
-0.857296

>  <SCORE.INTRA.SOLV.lig_0>
-65.3082

>  <SCORE.INTRA.VDW>
3.47613

>  <SCORE.INTRA.VDW.0>
-4.21408

>  <SCORE.INTRA.norm>
0.0445241

>  <SCORE.RESTR>
5.00669

>  <SCORE.RESTR.CAVITY>
5.00669

>  <SCORE.RESTR.norm>
0.161506

>  <SCORE.SYSTEM>
0

>  <SCORE.SYSTEM.CONST>
0

>  <SCORE.SYSTEM.DIHEDRAL>
0

>  <SCORE.SYSTEM.SOLV>
0

>  <SCORE.SYSTEM.norm>
0

>  <SCORE.heavy>
31

>  <SCORE.norm>
-0.0793554

>  <RMSD>
9.444

$$$$
ligand
 OpenBabel11021811493D
libRbt.so/2013.1/901 2013/11/27
 31 33  0  0  0  0  0  0  0  0999 V2000
    1.4097   14.6290   36.4594 C   0  0  2  0  0  0  0  0  0  0  0  0
    2.1947   15.4067   37.3428 O   0  0  0  0  0  0  0  0  0  0  0  0
    4.9055   18.6756   37.1808 C   0  0  2  0  0  0  0  0  0  0  0  0
    5.9676   19.5107   36.7321 N   0  0  0  0  0  0  0  0  0  0  0  0
    3.3791   20.5305   34.4933 C   0  0  2  0  0  0  0  0  0  0  0  0
    0.2750   13.9092   37.3094 C   0  0  2  0  0  0  0  0  0  0  0  0
   -0.5181   14.9195   38.0015 N   0  0  0  0  0  0  0  0  0  0  0  0
    5.5023   17.2289   37.4818 C   0  0  0  0  0  0  0  0  0  0  0  0
    2.7745   21.9557   34.7269 C   0  0  2  0  0  0  0  0  0  0  0  0
    3.4859   22.5831   35.7726 O   0  0  0  0  0  0  0  0  0  0  0  0
    0.9087   12.8906   38.3267 C   0  0  0  0  0  0  0  0  0  0  0  0
    4.3237   16.3050   37.9965 C   0  0  2  0  0  0  0  0  0  0  0  0
    4.8559   14.9730   38.2868 N   0  0  0  0  0  0  0  0  0  0  0  0
    1.2553   21.7981   35.0993 C   0  0  1  0  0  0  0  0  0  0  0  0
    0.6539   23.1483   35.3438 N   0  0  0  0  0  0  0  0  0  0  0  0
    2.1292   12.1035   37.6889 C   0  0  0  0  0  0  0  0  0  0  0  0
    3.2148   16.2121   36.8701 C   0  0  2  0  0  0  0  0  0  0  0  0
    0.4829   21.0806   33.8596 C   0  0  1  0  0  0  0  0  0  0  0  0
    0.5565   21.8187   32.6558 O   0  0  0  0  0  0  0  0  0  0  0  0
    2.6860   12.5005   36.5189 C   0  0  1  0  0  0  0  0  0  0  0  0
    2.2315   13.6298   35.7784 O   0  0  0  0  0  0  0  0  0  0  0  0
    2.6448   17.6588   36.5607 C   0  0  2  0  0  0  0  0  0  0  0  0
    1.6465   17.5663   35.5238 O   0  0  0  0  0  0  0  0  0  0  0  0
    1.1157   19.6796   33.6062 C   0  0  0  0  0  0  0  0  0  0  0  0
    2.6131   19.8179   33.3919 O   0  0  0  0  0  0  0  0  0  0  0  0
    3.8527   11.7834   35.8826 C   0  0  0  0  0  0  0  0  0  0  0  0
    4.9413   11.8475   36.8290 O   0  0  0  0  0  0  0  0  0  0  0  0
    3.8211   18.5787   36.0556 C   0  0  1  0  0  0  0  0  0  0  0  0
    3.2934   19.8554   35.7940 O   0  0  0  0  0  0  0  0  0  0  0  0
   -1.0170   20.8531   34.0887 C   0  0  0  0  0  0  0  0  0  0  0  0
   -0.4072   23.2154   36.3700 C   0  0  0  0  0  0  0  0  0  0  0  0
  1  2  1  1  0  0  0
  1  6  1  0  0  0  0
  1 21  1  0  0  0  0
  3  4  1  6  0  0  0
  3  8  1  0  0  0  0
  3 28  1  0  0  0  0
  5  9  1  0  0  0  0
  5 25  1  0  0  0  0
  5 29  1  1  0  0  0
  6  7  1  1  0  0  0
  6 11  1  0  0  0  0
  8 12  1  0  0  0  0
  9 10  1  1  0  0  0
  9 14  1  0  0  0  0
 11 16  1  0  0  0  0
 12 13  1  6  0  0  0
 12 17  1  0  0  0  0
 14 15  1  6  0  0  0
 14 18  1  0  0  0  0
 15 31  1  0  0  0  0
 16 20  1  0  0  0  0
 17  2  1  1  0  0  0
 17 22  1  0  0  0  0
 18 19  1  6  0  0  0
 18 24  1  0  0  0  0
 18 30  1  0  0  0  0
 20 21  1  0  0  0  0
 20 26  1  1  0  0  0
 22 23  1  6  0  0  0
 22 28  1  0  0  0  0
 24 25  1  0  0  0  0
 26 27  1  0  0  0  0
 28 29  1  1  0  0  0
M  END
>  <CHROM.1>
-176.11296020,-175.06870425,-146.59900293,-150.07093400,-60.39935710,119.06245491
2.41738814,17.64795524,36.04126078,1.41474513,0.23882410,2.89488528

>  <Name>
ligand

>  <RI>
0

>  <Rbt.Current_Directory>
/home/itssahil/PROJECTS/Mol_Feturizer/New_Systems/rnas/4GPY

>  <Rbt.Executable>
rbdock ($Id: //depot/dev/client3/rdock/2013.1/src/exe/rbdock.cxx#4 $)

>  <Rbt.Library>
libRbt.so (2013.1, Build901 2013/11/27)

>  <Rbt.Parameter_File>
/export/apps/rDock/src/rDock_2013.1_src/data/scripts/dock_solv.prm

>  <Rbt.Receptor>
prm/blind_docking_100.prm

>  <SCORE>
-0.476917

>  <SCORE.INTER>
-5.14183

>  <SCORE.INTER.CONST>
1

>  <SCORE.INTER.POLAR>
0

>  <SCORE.INTER.ROT>
6

>  <SCORE.INTER.SOLV>
18.3203

>  <SCORE.INTER.VDW>
-17.1347

>  <SCORE.INTER.norm>
-0.165866

>  <SCORE.INTRA>
0.957616

>  <SCORE.INTRA.DIHEDRAL>
0.575401

>  <SCORE.INTRA.DIHEDRAL.0>
14.7001

>  <SCORE.INTRA.POLAR>
0

>  <SCORE.INTRA.POLAR.0>
0

>  <SCORE.INTRA.REPUL>
0

>  <SCORE.INTRA.REPUL.0>
0

>  <SCORE.INTRA.SOLV>
0.144463

>  <SCORE.INTRA.SOLV.lig_0>
-65.3082

>  <SCORE.INTRA.VDW>
0.597684

>  <SCORE.INTRA.VDW.0>
-4.21408

>  <SCORE.INTRA.norm>
0.0308908

>  <SCORE.RESTR>
3.7073

>  <SCORE.RESTR.CAVITY>
3.7073

>  <SCORE.RESTR.norm>
0.11959

>  <SCORE.SYSTEM>
0

>  <SCORE.SYSTEM.CONST>
0

>  <SCORE.SYSTEM.DIHEDRAL>
0

>  <SCORE.SYSTEM.SOLV>
0

>  <SCORE.SYSTEM.norm>
0

>  <SCORE.heavy>
31

>  <SCORE.norm>
-0.0153844

>  <RMSD>
9.455

$$$$
ligand
 OpenBabel11021811493D
libRbt.so/2013.1/901 2013/11/27
 31 33  0  0  0  0  0  0  0  0999 V2000
    0.3817   15.9000   38.2075 C   0  0  2  0  0  0  0  0  0  0  0  0
   -0.1167   16.8615   37.2973 O   0  0  0  0  0  0  0  0  0  0  0  0
    3.4498   18.5146   35.6828 C   0  0  2  0  0  0  0  0  0  0  0  0
    4.3389   19.1268   34.7546 N   0  0  0  0  0  0  0  0  0  0  0  0
    2.6530   22.0068   35.9614 C   0  0  2  0  0  0  0  0  0  0  0  0
   -0.5782   14.6332   38.1636 C   0  0  2  0  0  0  0  0  0  0  0  0
   -0.6309   14.1196   36.7990 N   0  0  0  0  0  0  0  0  0  0  0  0
    2.8856   17.1774   35.0244 C   0  0  0  0  0  0  0  0  0  0  0  0
    1.1176   22.3095   35.9179 C   0  0  2  0  0  0  0  0  0  0  0  0
    0.5980   22.2027   37.2263 O   0  0  0  0  0  0  0  0  0  0  0  0
   -2.0141   15.0094   38.6839 C   0  0  0  0  0  0  0  0  0  0  0  0
    1.9095   16.4883   36.0636 C   0  0  2  0  0  0  0  0  0  0  0  0
    1.3880   15.2524   35.4785 N   0  0  0  0  0  0  0  0  0  0  0  0
    0.4316   21.2716   34.9568 C   0  0  1  0  0  0  0  0  0  0  0  0
   -1.0435   21.5286   34.9080 N   0  0  0  0  0  0  0  0  0  0  0  0
   -1.9512   15.9926   39.9270 C   0  0  0  0  0  0  0  0  0  0  0  0
    0.7183   17.4807   36.3851 C   0  0  2  0  0  0  0  0  0  0  0  0
    1.0584   21.4440   33.4650 C   0  0  1  0  0  0  0  0  0  0  0  0
    0.8551   22.7334   32.9214 O   0  0  0  0  0  0  0  0  0  0  0  0
   -0.7983   16.6165   40.2708 C   0  0  1  0  0  0  0  0  0  0  0  0
    0.4266   16.4441   39.5638 O   0  0  0  0  0  0  0  0  0  0  0  0
    1.2917   18.8170   37.0169 C   0  0  2  0  0  0  0  0  0  0  0  0
    0.2015   19.7201   37.2928 O   0  0  0  0  0  0  0  0  0  0  0  0
    2.5930   21.1809   33.5225 C   0  0  0  0  0  0  0  0  0  0  0  0
    3.2355   22.0847   34.5606 O   0  0  0  0  0  0  0  0  0  0  0  0
   -0.6984   17.5647   41.4418 C   0  0  0  0  0  0  0  0  0  0  0  0
    0.6993   17.6343   41.7973 O   0  0  0  0  0  0  0  0  0  0  0  0
    2.2688   19.4973   35.9837 C   0  0  1  0  0  0  0  0  0  0  0  0
    2.7682   20.6748   36.5676 O   0  0  0  0  0  0  0  0  0  0  0  0
    0.4842   20.4819   32.4169 C   0  0  0  0  0  0  0  0  0  0  0  0
   -1.4566   22.9000   34.5445 C   0  0  0  0  0  0  0  0  0  0  0  0
  1  2  1  6  0  0  0
  1  6  1  0  0  0  0
  1 21  1  0  0  0  0
  3  4  1  6  0  0  0
  3  8  1  0  0  0  0
  3 28  1  0  0  0  0
  5  9  1  0  0  0  0
  5 25  1  0  0  0  0
  5 29  1  6  0  0  0
  6  7  1  6  0  0  0
  6 11  1  0  0  0  0
  8 12  1  0  0  0  0
  9 10  1  1  0  0  0
  9 14  1  0  0  0  0
 11 16  1  0  0  0  0
 12 13  1  6  0  0  0
 12 17  1  0  0  0  0
 14 15  1  6  0  0  0
 14 18  1  0  0  0  0
 15 31  1  0  0  0  0
 16 20  1  0  0  0  0
 17  2  1  1  0  0  0
 17 22  1  0  0  0  0
 18 19  1  6  0  0  0
 18 24  1  0  0  0  0
 18 30  1  0  0  0  0
 20 21  1  0  0  0  0
 20 26  1  6  0  0  0
 22 23  1  6  0  0  0
 22 28  1  0  0  0  0
 24 25  1  0  0  0  0
 26 27  1  0  0  0  0
 28 29  1  1  0  0  0
M  END
>  <CHROM.1>
-131.78625311,64.33763797,54.60543254,28.09704287,159.32415071,117.51565379
0.84696914,18.87231931,36.55819526,-2.05381219,1.01719967,-0.27617202

>  <Name>
ligand

>  <RI>
0

>  <Rbt.Current_Directory>
/home/itssahil/PROJECTS/Mol_Feturizer/New_Systems/rnas/4GPY

>  <Rbt.Executable>
rbdock ($Id: //depot/dev/client3/rdock/2013.1/src/exe/rbdock.cxx#4 $)

>  <Rbt.Library>
libRbt.so (2013.1, Build901 2013/11/27)

>  <Rbt.Parameter_File>
/export/apps/rDock/src/rDock_2013.1_src/data/scripts/dock_solv.prm

>  <Rbt.Receptor>
prm/blind_docking_60.prm

>  <SCORE>
44.2681

>  <SCORE.INTER>
16.1986

>  <SCORE.INTER.CONST>
1

>  <SCORE.INTER.POLAR>
0

>  <SCORE.INTER.ROT>
6

>  <SCORE.INTER.SOLV>
23.022

>  <SCORE.INTER.VDW>
-4.47495

>  <SCORE.INTER.norm>
0.522535

>  <SCORE.INTRA>
12.6048

>  <SCORE.INTRA.DIHEDRAL>
6.16333

>  <SCORE.INTRA.DIHEDRAL.0>
14.7001

>  <SCORE.INTRA.POLAR>
0

>  <SCORE.INTRA.POLAR.0>
0

>  <SCORE.INTRA.REPUL>
0

>  <SCORE.INTRA.REPUL.0>
0

>  <SCORE.INTRA.SOLV>
5.62664

>  <SCORE.INTRA.SOLV.lig_0>
-65.3082

>  <SCORE.INTRA.VDW>
6.70985

>  <SCORE.INTRA.VDW.0>
-4.21408

>  <SCORE.INTRA.norm>
0.406607

>  <SCORE.RESTR>
15.4647

>  <SCORE.RESTR.CAVITY>
15.4647

>  <SCORE.RESTR.norm>
0.498863

>  <SCORE.SYSTEM>
0

>  <SCORE.SYSTEM.CONST>
0

>  <SCORE.SYSTEM.DIHEDRAL>
0

>  <SCORE.SYSTEM.SOLV>
0

>  <SCORE.SYSTEM.norm>
0

>  <SCORE.heavy>
31

>  <SCORE.norm>
1.428

>  <RMSD>
9.465

$$$$
ligand
 OpenBabel11021811493D
libRbt.so/2013.1/901 2013/11/27
 31 33  0  0  0  0  0  0  0  0999 V2000
    2.2721   15.3861   38.0326 C   0  0  2  0  0  0  0  0  0  0  0  0
    2.9748   15.3586   36.8050 O   0  0  0  0  0  0  0  0  0  0  0  0
    4.7390   19.2244   36.7466 C   0  0  2  0  0  0  0  0  0  0  0  0
    5.6502   20.2737   36.4373 N   0  0  0  0  0  0  0  0  0  0  0  0
    2.6313   19.6095   33.5457 C   0  0  2  0  0  0  0  0  0  0  0  0
    1.0119   14.4253   37.9026 C   0  0  2  0  0  0  0  0  0  0  0  0
    1.4675   13.0816   37.5625 N   0  0  0  0  0  0  0  0  0  0  0  0
    5.5545   18.0454   37.4426 C   0  0  0  0  0  0  0  0  0  0  0  0
    2.5151   21.0625   32.9743 C   0  0  2  0  0  0  0  0  0  0  0  0
    3.8123   21.6071   32.8557 O   0  0  0  0  0  0  0  0  0  0  0  0
    0.0076   14.9738   36.8235 C   0  0  0  0  0  0  0  0  0  0  0  0
    4.5378   16.8855   37.8013 C   0  0  2  0  0  0  0  0  0  0  0  0
    5.2688   15.7964   38.4503 N   0  0  0  0  0  0  0  0  0  0  0  0
    1.6373   21.9171   33.9595 C   0  0  1  0  0  0  0  0  0  0  0  0
    1.5219   23.3192   33.4443 N   0  0  0  0  0  0  0  0  0  0  0  0
   -0.1237   16.5531   36.8902 C   0  0  0  0  0  0  0  0  0  0  0  0
    3.8613   16.3651   36.4676 C   0  0  2  0  0  0  0  0  0  0  0  0
    0.1545   21.2530   34.0515 C   0  0  1  0  0  0  0  0  0  0  0  0
   -0.5144   21.2097   32.8065 O   0  0  0  0  0  0  0  0  0  0  0  0
    0.7497   17.3005   37.6079 C   0  0  1  0  0  0  0  0  0  0  0  0
    1.8326   16.7443   38.3483 O   0  0  0  0  0  0  0  0  0  0  0  0
    3.0730   17.5509   35.7704 C   0  0  2  0  0  0  0  0  0  0  0  0
    2.4727   17.0715   34.5496 O   0  0  0  0  0  0  0  0  0  0  0  0
    0.2808   19.7937   34.5826 C   0  0  0  0  0  0  0  0  0  0  0  0
    1.2468   19.0073   33.7132 O   0  0  0  0  0  0  0  0  0  0  0  0
    0.6636   18.8058   37.6910 C   0  0  0  0  0  0  0  0  0  0  0  0
    1.6345   19.3260   36.7574 O   0  0  0  0  0  0  0  0  0  0  0  0
    4.0858   18.7073   35.4210 C   0  0  1  0  0  0  0  0  0  0  0  0
    3.3639   19.7479   34.8102 O   0  0  0  0  0  0  0  0  0  0  0  0
   -0.8139   21.9829   34.9914 C   0  0  0  0  0  0  0  0  0  0  0  0
    1.1002   23.4656   32.0357 C   0  0  0  0  0  0  0  0  0  0  0  0
  1  2  1  6  0  0  0
  1  6  1  0  0  0  0
  1 21  1  0  0  0  0
  3  4  1  6  0  0  0
  3  8  1  0  0  0  0
  3 28  1  0  0  0  0
  5  9  1  0  0  0  0
  5 25  1  0  0  0  0
  5 29  1  1  0  0  0
  6  7  1  6  0  0  0
  6 11  1  0  0  0  0
  8 12  1  0  0  0  0
  9 10  1  1  0  0  0
  9 14  1  0  0  0  0
 11 16  1  0  0  0  0
 12 13  1  6  0  0  0
 12 17  1  0  0  0  0
 14 15  1  6  0  0  0
 14 18  1  0  0  0  0
 15 31  1  0  0  0  0
 16 20  1  0  0  0  0
 17  2  1  1  0  0  0
 17 22  1  0  0  0  0
 18 19  1  6  0  0  0
 18 24  1  0  0  0  0
 18 30  1  0  0  0  0
 20 21  1  0  0  0  0
 20 26  1  6  0  0  0
 22 23  1  6  0  0  0
 22 28  1  0  0  0  0
 24 25  1  0  0  0  0
 26 27  1  0  0  0  0
 28 29  1  1  0  0  0
M  END
>  <CHROM.1>
160.48875294,-157.05980979,50.87136628,32.98536204,-99.65081930,179.71740761
2.19535927,18.60277526,35.68551076,1.41624523,0.15189344,2.57213741

>  <Name>
ligand

>  <RI>
0

>  <Rbt.Current_Directory>
/home/itssahil/PROJECTS/Mol_Feturizer/New_Systems/rnas/4GPY

>  <Rbt.Executable>
rbdock ($Id: //depot/dev/client3/rdock/2013.1/src/exe/rbdock.cxx#4 $)

>  <Rbt.Library>
libRbt.so (2013.1, Build901 2013/11/27)

>  <Rbt.Parameter_File>
/export/apps/rDock/src/rDock_2013.1_src/data/scripts/dock_solv.prm

>  <Rbt.Receptor>
prm/blind_docking_60.prm

>  <SCORE>
30.7614

>  <SCORE.INTER>
4.88509

>  <SCORE.INTER.CONST>
1

>  <SCORE.INTER.POLAR>
0

>  <SCORE.INTER.ROT>
6

>  <SCORE.INTER.SOLV>
18.6255

>  <SCORE.INTER.VDW>
-10.5518

>  <SCORE.INTER.norm>
0.157583

>  <SCORE.INTRA>
6.53704

>  <SCORE.INTRA.DIHEDRAL>
-5.388

>  <SCORE.INTRA.DIHEDRAL.0>
14.7001

>  <SCORE.INTRA.POLAR>
0

>  <SCORE.INTRA.POLAR.0>
0

>  <SCORE.INTRA.REPUL>
0

>  <SCORE.INTRA.REPUL.0>
0

>  <SCORE.INTRA.SOLV>
1.60952

>  <SCORE.INTRA.SOLV.lig_0>
-65.3082

>  <SCORE.INTRA.VDW>
8.42628

>  <SCORE.INTRA.VDW.0>
-4.21408

>  <SCORE.INTRA.norm>
0.210872

>  <SCORE.RESTR>
19.3393

>  <SCORE.RESTR.CAVITY>
19.3393

>  <SCORE.RESTR.norm>
0.623848

>  <SCORE.SYSTEM>
0

>  <SCORE.SYSTEM.CONST>
0

>  <SCORE.SYSTEM.DIHEDRAL>
0

>  <SCORE.SYSTEM.SOLV>
0

>  <SCORE.SYSTEM.norm>
0

>  <SCORE.heavy>
31

>  <SCORE.norm>
0.992304

>  <RMSD>
9.481

$$$$
ligand
 OpenBabel11021811493D
libRbt.so/2013.1/901 2013/11/27
 31 33  0  0  0  0  0  0  0  0999 V2000
    1.4803   16.3096   37.8185 C   0  0  2  0  0  0  0  0  0  0  0  0
    0.9008   17.2446   36.9290 O   0  0  0  0  0  0  0  0  0  0  0  0
    0.3742   21.4463   36.5706 C   0  0  2  0  0  0  0  0  0  0  0  0
    0.6425   22.8408   36.6717 N   0  0  0  0  0  0  0  0  0  0  0  0
    2.6090   21.8741   33.6923 C   0  0  2  0  0  0  0  0  0  0  0  0
    1.2950   14.8571   37.1989 C   0  0  2  0  0  0  0  0  0  0  0  0
    1.9174   14.8164   35.8799 N   0  0  0  0  0  0  0  0  0  0  0  0
    0.4118   20.8241   38.0372 C   0  0  0  0  0  0  0  0  0  0  0  0
    3.6200   20.6837   33.5816 C   0  0  2  0  0  0  0  0  0  0  0  0
    2.9840   19.6098   32.9216 O   0  0  0  0  0  0  0  0  0  0  0  0
   -0.2301   14.4809   37.1182 C   0  0  0  0  0  0  0  0  0  0  0  0
    0.0971   19.2761   37.9259 C   0  0  2  0  0  0  0  0  0  0  0  0
    0.1187   18.6891   39.2663 N   0  0  0  0  0  0  0  0  0  0  0  0
    4.0607   20.2670   35.0320 C   0  0  1  0  0  0  0  0  0  0  0  0
    5.0184   19.1174   34.9568 N   0  0  0  0  0  0  0  0  0  0  0  0
   -1.0265   14.9729   38.3987 C   0  0  0  0  0  0  0  0  0  0  0  0
    1.1985   18.5924   37.0168 C   0  0  2  0  0  0  0  0  0  0  0  0
    4.7945   21.5343   35.7418 C   0  0  1  0  0  0  0  0  0  0  0  0
    5.9484   21.9686   35.0496 O   0  0  0  0  0  0  0  0  0  0  0  0
   -0.4736   15.8439   39.2775 C   0  0  1  0  0  0  0  0  0  0  0  0
    0.8397   16.3767   39.1310 O   0  0  0  0  0  0  0  0  0  0  0  0
    1.1694   19.2348   35.5676 C   0  0  2  0  0  0  0  0  0  0  0  0
    2.1851   18.6164   34.7514 O   0  0  0  0  0  0  0  0  0  0  0  0
    3.7961   22.7283   35.8125 C   0  0  0  0  0  0  0  0  0  0  0  0
    3.2564   23.0358   34.4263 O   0  0  0  0  0  0  0  0  0  0  0  0
   -1.2006   16.3419   40.5038 C   0  0  0  0  0  0  0  0  0  0  0  0
   -2.0767   17.4009   40.0614 O   0  0  0  0  0  0  0  0  0  0  0  0
    1.4756   20.7770   35.6817 C   0  0  1  0  0  0  0  0  0  0  0  0
    1.4385   21.3248   34.3873 O   0  0  0  0  0  0  0  0  0  0  0  0
    5.2730   21.2729   37.1758 C   0  0  0  0  0  0  0  0  0  0  0  0
    4.9390   18.1275   36.0510 C   0  0  0  0  0  0  0  0  0  0  0  0
  1  2  1  6  0  0  0
  1  6  1  0  0  0  0
  1 21  1  0  0  0  0
  3  4  1  1  0  0  0
  3  8  1  0  0  0  0
  3 28  1  0  0  0  0
  5  9  1  0  0  0  0
  5 25  1  0  0  0  0
  5 29  1  1  0  0  0
  6  7  1  6  0  0  0
  6 11  1  0  0  0  0
  8 12  1  0  0  0  0
  9 10  1  1  0  0  0
  9 14  1  0  0  0  0
 11 16  1  0  0  0  0
 12 13  1  1  0  0  0
 12 17  1  0  0  0  0
 14 15  1  6  0  0  0
 14 18  1  0  0  0  0
 15 31  1  0  0  0  0
 16 20  1  0  0  0  0
 17  2  1  6  0  0  0
 17 22  1  0  0  0  0
 18 19  1  6  0  0  0
 18 24  1  0  0  0  0
 18 30  1  0  0  0  0
 20 21  1  0  0  0  0
 20 26  1  6  0  0  0
 22 23  1  6  0  0  0
 22 28  1  0  0  0  0
 24 25  1  0  0  0  0
 26 27  1  0  0  0  0
 28 29  1  6  0  0  0
M  END
>  <CHROM.1>
-163.25006606,60.27167049,-145.60117530,-93.56304376,-80.74564154,128.06137370
1.84595966,19.05473729,36.52558578,-2.31941496,0.69604898,-0.07117250

>  <Name>
ligand

>  <RI>
0

>  <Rbt.Current_Directory>
/home/itssahil/PROJECTS/Mol_Feturizer/New_Systems/rnas/4GPY

>  <Rbt.Executable>
rbdock ($Id: //depot/dev/client3/rdock/2013.1/src/exe/rbdock.cxx#4 $)

>  <Rbt.Library>
libRbt.so (2013.1, Build901 2013/11/27)

>  <Rbt.Parameter_File>
/export/apps/rDock/src/rDock_2013.1_src/data/scripts/dock_solv.prm

>  <Rbt.Receptor>
prm/blind_docking_60.prm

>  <SCORE>
56.9025

>  <SCORE.INTER>
31.2868

>  <SCORE.INTER.CONST>
1

>  <SCORE.INTER.POLAR>
0

>  <SCORE.INTER.ROT>
6

>  <SCORE.INTER.SOLV>
26.5286

>  <SCORE.INTER.VDW>
4.41501

>  <SCORE.INTER.norm>
1.00925

>  <SCORE.INTRA>
12.145

>  <SCORE.INTRA.DIHEDRAL>
1.56875

>  <SCORE.INTRA.DIHEDRAL.0>
14.7001

>  <SCORE.INTRA.POLAR>
0

>  <SCORE.INTRA.POLAR.0>
0

>  <SCORE.INTRA.REPUL>
0

>  <SCORE.INTRA.REPUL.0>
0

>  <SCORE.INTRA.SOLV>
6.57859

>  <SCORE.INTRA.SOLV.lig_0>
-65.3082

>  <SCORE.INTRA.VDW>
8.07131

>  <SCORE.INTRA.VDW.0>
-4.21408

>  <SCORE.INTRA.norm>
0.391774

>  <SCORE.RESTR>
13.4707

>  <SCORE.RESTR.CAVITY>
13.4707

>  <SCORE.RESTR.norm>
0.434538

>  <SCORE.SYSTEM>
0

>  <SCORE.SYSTEM.CONST>
0

>  <SCORE.SYSTEM.DIHEDRAL>
0

>  <SCORE.SYSTEM.SOLV>
0

>  <SCORE.SYSTEM.norm>
0

>  <SCORE.heavy>
31

>  <SCORE.norm>
1.83556

>  <RMSD>
9.484

$$$$
ligand
 OpenBabel11021811493D
libRbt.so/2013.1/901 2013/11/27
 31 33  0  0  0  0  0  0  0  0999 V2000
    1.9710   15.6687   35.6021 C   0  0  2  0  0  0  0  0  0  0  0  0
    1.1149   16.4478   36.4154 O   0  0  0  0  0  0  0  0  0  0  0  0
    0.5954   20.6635   36.5503 C   0  0  2  0  0  0  0  0  0  0  0  0
    0.8515   22.0335   36.8407 N   0  0  0  0  0  0  0  0  0  0  0  0
    2.7710   21.8619   34.1309 C   0  0  2  0  0  0  0  0  0  0  0  0
    1.8210   14.1478   36.0411 C   0  0  2  0  0  0  0  0  0  0  0  0
    0.4246   13.7467   35.9079 N   0  0  0  0  0  0  0  0  0  0  0  0
    0.5439   19.8635   37.9277 C   0  0  0  0  0  0  0  0  0  0  0  0
    4.0328   21.1082   33.5916 C   0  0  2  0  0  0  0  0  0  0  0  0
    3.6479   20.3103   32.4923 O   0  0  0  0  0  0  0  0  0  0  0  0
    2.3313   13.9450   37.5150 C   0  0  0  0  0  0  0  0  0  0  0  0
    0.2427   18.3427   37.6053 C   0  0  2  0  0  0  0  0  0  0  0  0
    0.1829   17.5933   38.8609 N   0  0  0  0  0  0  0  0  0  0  0  0
    4.6167   20.2205   34.7503 C   0  0  1  0  0  0  0  0  0  0  0  0
    5.8185   19.4746   34.2567 N   0  0  0  0  0  0  0  0  0  0  0  0
    3.6378   14.7954   37.8082 C   0  0  0  0  0  0  0  0  0  0  0  0
    1.4013   17.7730   36.6886 C   0  0  2  0  0  0  0  0  0  0  0  0
    5.0521   21.1880   35.9841 C   0  0  1  0  0  0  0  0  0  0  0  0
    6.0403   22.1344   35.6275 O   0  0  0  0  0  0  0  0  0  0  0  0
    4.0490   15.7664   36.9569 C   0  0  1  0  0  0  0  0  0  0  0  0
    3.3609   16.0962   35.7536 O   0  0  0  0  0  0  0  0  0  0  0  0
    1.4602   18.5908   35.3317 C   0  0  2  0  0  0  0  0  0  0  0  0
    2.5272   18.0748   34.5098 O   0  0  0  0  0  0  0  0  0  0  0  0
    3.7999   21.9651   36.4898 C   0  0  0  0  0  0  0  0  0  0  0  0
    3.1487   22.7070   35.3353 O   0  0  0  0  0  0  0  0  0  0  0  0
    5.2820   16.6027   37.2031 C   0  0  0  0  0  0  0  0  0  0  0  0
    4.8209   17.9361   37.5099 O   0  0  0  0  0  0  0  0  0  0  0  0
    1.7527   20.1056   35.6556 C   0  0  1  0  0  0  0  0  0  0  0  0
    1.7943   20.8103   34.4396 O   0  0  0  0  0  0  0  0  0  0  0  0
    5.6347   20.4514   37.1973 C   0  0  0  0  0  0  0  0  0  0  0  0
    6.9068   20.2937   33.6839 C   0  0  0  0  0  0  0  0  0  0  0  0
  1  2  1  1  0  0  0
  1  6  1  0  0  0  0
  1 21  1  0  0  0  0
  3  4  1  1  0  0  0
  3  8  1  0  0  0  0
  3 28  1  0  0  0  0
  5  9  1  0  0  0  0
  5 25  1  0  0  0  0
  5 29  1  1  0  0  0
  6  7  1  1  0  0  0
  6 11  1  0  0  0  0
  8 12  1  0  0  0  0
  9 10  1  6  0  0  0
  9 14  1  0  0  0  0
 11 16  1  0  0  0  0
 12 13  1  1  0  0  0
 12 17  1  0  0  0  0
 14 15  1  6  0  0  0
 14 18  1  0  0  0  0
 15 31  1  0  0  0  0
 16 20  1  0  0  0  0
 17  2  1  6  0  0  0
 17 22  1  0  0  0  0
 18 19  1  6  0  0  0
 18 24  1  0  0  0  0
 18 30  1  0  0  0  0
 20 21  1  0  0  0  0
 20 26  1  1  0  0  0
 22 23  1  6  0  0  0
 22 28  1  0  0  0  0
 24 25  1  0  0  0  0
 26 27  1  0  0  0  0
 28 29  1  6  0  0  0
M  END
>  <CHROM.1>
152.32672645,85.15544637,55.85370700,179.46653919,-110.09184232,102.41088685
2.99225339,18.75427450,35.93528040,-1.93529369,0.30754791,-0.19260243

>  <Name>
ligand

>  <RI>
0

>  <Rbt.Current_Directory>
/home/itssahil/PROJECTS/Mol_Feturizer/New_Systems/rnas/4GPY

>  <Rbt.Executable>
rbdock ($Id: //depot/dev/client3/rdock/2013.1/src/exe/rbdock.cxx#4 $)

>  <Rbt.Library>
libRbt.so (2013.1, Build901 2013/11/27)

>  <Rbt.Parameter_File>
/export/apps/rDock/src/rDock_2013.1_src/data/scripts/dock_solv.prm

>  <Rbt.Receptor>
prm/blind_docking_60.prm

>  <SCORE>
33.967

>  <SCORE.INTER>
10.3538

>  <SCORE.INTER.CONST>
1

>  <SCORE.INTER.POLAR>
0

>  <SCORE.INTER.ROT>
6

>  <SCORE.INTER.SOLV>
23.7125

>  <SCORE.INTER.VDW>
-8.60166

>  <SCORE.INTER.norm>
0.333993

>  <SCORE.INTRA>
6.05673

>  <SCORE.INTRA.DIHEDRAL>
-1.24286

>  <SCORE.INTRA.DIHEDRAL.0>
14.7001

>  <SCORE.INTRA.POLAR>
0

>  <SCORE.INTRA.POLAR.0>
0

>  <SCORE.INTRA.REPUL>
0.00827121

>  <SCORE.INTRA.REPUL.0>
0

>  <SCORE.INTRA.SOLV>
2.47426

>  <SCORE.INTRA.SOLV.lig_0>
-65.3082

>  <SCORE.INTRA.VDW>
5.39967

>  <SCORE.INTRA.VDW.0>
-4.21408

>  <SCORE.INTRA.norm>
0.195378

>  <SCORE.RESTR>
17.5565

>  <SCORE.RESTR.CAVITY>
17.5565

>  <SCORE.RESTR.norm>
0.566337

>  <SCORE.SYSTEM>
0

>  <SCORE.SYSTEM.CONST>
0

>  <SCORE.SYSTEM.DIHEDRAL>
0

>  <SCORE.SYSTEM.SOLV>
0

>  <SCORE.SYSTEM.norm>
0

>  <SCORE.heavy>
31

>  <SCORE.norm>
1.09571

>  <RMSD>
9.488

$$$$
ligand
 OpenBabel11021811493D
libRbt.so/2013.1/901 2013/11/27
 31 33  0  0  0  0  0  0  0  0999 V2000
    1.4812   16.3313   37.8068 C   0  0  2  0  0  0  0  0  0  0  0  0
    0.8992   17.2675   36.9201 O   0  0  0  0  0  0  0  0  0  0  0  0
    0.3903   21.4702   36.5490 C   0  0  2  0  0  0  0  0  0  0  0  0
    0.6641   22.8639   36.6466 N   0  0  0  0  0  0  0  0  0  0  0  0
    2.6318   21.8803   33.6731 C   0  0  2  0  0  0  0  0  0  0  0  0
    1.3614   14.8880   37.1506 C   0  0  2  0  0  0  0  0  0  0  0  0
    2.0243   14.8965   35.8510 N   0  0  0  0  0  0  0  0  0  0  0  0
    0.4229   20.8520   38.0175 C   0  0  0  0  0  0  0  0  0  0  0  0
    3.6403   20.6869   33.5733 C   0  0  2  0  0  0  0  0  0  0  0  0
    3.0039   19.6103   32.9181 O   0  0  0  0  0  0  0  0  0  0  0  0
   -0.1478   14.4661   37.0148 C   0  0  0  0  0  0  0  0  0  0  0  0
    0.1022   19.3050   37.9100 C   0  0  2  0  0  0  0  0  0  0  0  0
    0.1191   18.7216   39.2521 N   0  0  0  0  0  0  0  0  0  0  0  0
    4.0754   20.2786   35.0277 C   0  0  1  0  0  0  0  0  0  0  0  0
    5.0307   19.1263   34.9630 N   0  0  0  0  0  0  0  0  0  0  0  0
   -0.9979   14.9040   38.2803 C   0  0  0  0  0  0  0  0  0  0  0  0
    1.2023   18.6142   37.0047 C   0  0  2  0  0  0  0  0  0  0  0  0
    4.8099   21.5487   35.7317 C   0  0  1  0  0  0  0  0  0  0  0  0
    5.9670   21.9759   35.0404 O   0  0  0  0  0  0  0  0  0  0  0  0
   -0.4999   15.7718   39.1943 C   0  0  1  0  0  0  0  0  0  0  0  0
    0.7995   16.3487   39.1001 O   0  0  0  0  0  0  0  0  0  0  0  0
    1.1782   19.2527   35.5537 C   0  0  2  0  0  0  0  0  0  0  0  0
    2.1928   18.6279   34.7409 O   0  0  0  0  0  0  0  0  0  0  0  0
    3.8140   22.7454   35.7916 C   0  0  0  0  0  0  0  0  0  0  0  0
    3.2794   23.0453   34.4018 O   0  0  0  0  0  0  0  0  0  0  0  0
   -1.2792   16.2191   40.4080 C   0  0  0  0  0  0  0  0  0  0  0  0
   -2.0033   17.4059   40.0181 O   0  0  0  0  0  0  0  0  0  0  0  0
    1.4904   20.7939   35.6639 C   0  0  1  0  0  0  0  0  0  0  0  0
    1.4577   21.3382   34.3679 O   0  0  0  0  0  0  0  0  0  0  0  0
    5.2832   21.2954   37.1689 C   0  0  0  0  0  0  0  0  0  0  0  0
    4.9281   18.1300   36.0493 C   0  0  0  0  0  0  0  0  0  0  0  0
  1  2  1  6  0  0  0
  1  6  1  0  0  0  0
  1 21  1  0  0  0  0
  3  4  1  1  0  0  0
  3  8  1  0  0  0  0
  3 28  1  0  0  0  0
  5  9  1  0  0  0  0
  5 25  1  0  0  0  0
  5 29  1  1  0  0  0
  6  7  1  6  0  0  0
  6 11  1  0  0  0  0
  8 12  1  0  0  0  0
  9 10  1  1  0  0  0
  9 14  1  0  0  0  0
 11 16  1  0  0  0  0
 12 13  1  1  0  0  0
 12 17  1  0  0  0  0
 14 15  1  6  0  0  0
 14 18  1  0  0  0  0
 15 31  1  0  0  0  0
 16 20  1  0  0  0  0
 17  2  1  6  0  0  0
 17 22  1  0  0  0  0
 18 19  1  6  0  0  0
 18 24  1  0  0  0  0
 18 30  1  0  0  0  0
 20 21  1  0  0  0  0
 20 26  1  6  0  0  0
 22 23  1  6  0  0  0
 22 28  1  0  0  0  0
 24 25  1  0  0  0  0
 26 27  1  0  0  0  0
 28 29  1  6  0  0  0
M  END
>  <CHROM.1>
-160.03624591,60.01540505,-144.47278157,-94.04507728,-90.37767454,128.08403551
1.86155056,19.06025501,36.49853457,-2.31378211,0.69041546,-0.06940277

>  <Name>
ligand

>  <RI>
0

>  <Rbt.Current_Directory>
/home/itssahil/PROJECTS/Mol_Feturizer/New_Systems/rnas/4GPY

>  <Rbt.Executable>
rbdock ($Id: //depot/dev/client3/rdock/2013.1/src/exe/rbdock.cxx#4 $)

>  <Rbt.Library>
libRbt.so (2013.1, Build901 2013/11/27)

>  <Rbt.Parameter_File>
/export/apps/rDock/src/rDock_2013.1_src/data/scripts/dock_solv.prm

>  <Rbt.Receptor>
prm/blind_docking_60.prm

>  <SCORE>
56.3552

>  <SCORE.INTER>
30.9271

>  <SCORE.INTER.CONST>
1

>  <SCORE.INTER.POLAR>
0

>  <SCORE.INTER.ROT>
6

>  <SCORE.INTER.SOLV>
26.7208

>  <SCORE.INTER.VDW>
4.11113

>  <SCORE.INTER.norm>
0.997648

>  <SCORE.INTRA>
11.8422

>  <SCORE.INTRA.DIHEDRAL>
1.71986

>  <SCORE.INTRA.DIHEDRAL.0>
14.7001

>  <SCORE.INTRA.POLAR>
0

>  <SCORE.INTRA.POLAR.0>
0

>  <SCORE.INTRA.REPUL>
0

>  <SCORE.INTRA.REPUL.0>
0

>  <SCORE.INTRA.SOLV>
6.59687

>  <SCORE.INTRA.SOLV.lig_0>
-65.3082

>  <SCORE.INTRA.VDW>
7.68388

>  <SCORE.INTRA.VDW.0>
-4.21408

>  <SCORE.INTRA.norm>
0.382008

>  <SCORE.RESTR>
13.5859

>  <SCORE.RESTR.CAVITY>
13.5859

>  <SCORE.RESTR.norm>
0.438254

>  <SCORE.SYSTEM>
0

>  <SCORE.SYSTEM.CONST>
0

>  <SCORE.SYSTEM.DIHEDRAL>
0

>  <SCORE.SYSTEM.SOLV>
0

>  <SCORE.SYSTEM.norm>
0

>  <SCORE.heavy>
31

>  <SCORE.norm>
1.81791

>  <RMSD>
9.495

$$$$
ligand
 OpenBabel11021811493D
libRbt.so/2013.1/901 2013/11/27
 31 33  0  0  0  0  0  0  0  0999 V2000
    2.8866   15.1603   37.3800 C   0  0  2  0  0  0  0  0  0  0  0  0
    3.2654   15.7146   36.1348 O   0  0  0  0  0  0  0  0  0  0  0  0
    4.3230   19.6582   37.3135 C   0  0  2  0  0  0  0  0  0  0  0  0
    4.9137   20.9528   37.2722 N   0  0  0  0  0  0  0  0  0  0  0  0
    2.4815   21.8804   35.8760 C   0  0  2  0  0  0  0  0  0  0  0  0
    2.0466   13.8400   37.0987 C   0  0  2  0  0  0  0  0  0  0  0  0
    2.8564   12.9160   36.3119 N   0  0  0  0  0  0  0  0  0  0  0  0
    5.4878   18.5755   37.2098 C   0  0  0  0  0  0  0  0  0  0  0  0
    1.0282   22.4347   35.6967 C   0  0  2  0  0  0  0  0  0  0  0  0
    0.2942   22.1689   36.8730 O   0  0  0  0  0  0  0  0  0  0  0  0
    0.7024   14.1871   36.3593 C   0  0  0  0  0  0  0  0  0  0  0  0
    4.8317   17.1357   37.2723 C   0  0  2  0  0  0  0  0  0  0  0  0
    5.8890   16.1274   37.1873 N   0  0  0  0  0  0  0  0  0  0  0  0
    0.3733   21.7253   34.4560 C   0  0  1  0  0  0  0  0  0  0  0  0
   -1.0262   22.2265   34.2698 N   0  0  0  0  0  0  0  0  0  0  0  0
    0.0450   15.5152   36.9250 C   0  0  0  0  0  0  0  0  0  0  0  0
    3.8300   16.9747   36.0567 C   0  0  2  0  0  0  0  0  0  0  0  0
    1.2507   22.0716   33.1300 C   0  0  1  0  0  0  0  0  0  0  0  0
    1.3137   23.4562   32.8502 O   0  0  0  0  0  0  0  0  0  0  0  0
    0.7371   16.3497   37.7381 C   0  0  1  0  0  0  0  0  0  0  0  0
    2.0808   16.1095   38.1465 O   0  0  0  0  0  0  0  0  0  0  0  0
    2.6891   18.0712   36.1556 C   0  0  2  0  0  0  0  0  0  0  0  0
    1.7902   17.9263   35.0369 O   0  0  0  0  0  0  0  0  0  0  0  0
    2.7061   21.5531   33.3311 C   0  0  0  0  0  0  0  0  0  0  0  0
    3.2881   22.1253   34.6123 O   0  0  0  0  0  0  0  0  0  0  0  0
    0.1504   17.6264   38.2915 C   0  0  0  0  0  0  0  0  0  0  0  0
   -0.3643   17.3087   39.6025 O   0  0  0  0  0  0  0  0  0  0  0  0
    3.3452   19.5035   36.1006 C   0  0  1  0  0  0  0  0  0  0  0  0
    2.3164   20.4572   36.1958 O   0  0  0  0  0  0  0  0  0  0  0  0
    0.7293   21.4337   31.8358 C   0  0  0  0  0  0  0  0  0  0  0  0
   -1.9229   21.3762   33.4598 C   0  0  0  0  0  0  0  0  0  0  0  0
  1  2  1  6  0  0  0
  1  6  1  0  0  0  0
  1 21  1  0  0  0  0
  3  4  1  6  0  0  0
  3  8  1  0  0  0  0
  3 28  1  0  0  0  0
  5  9  1  0  0  0  0
  5 25  1  0  0  0  0
  5 29  1  6  0  0  0
  6  7  1  6  0  0  0
  6 11  1  0  0  0  0
  8 12  1  0  0  0  0
  9 10  1  1  0  0  0
  9 14  1  0  0  0  0
 11 16  1  0  0  0  0
 12 13  1  6  0  0  0
 12 17  1  0  0  0  0
 14 15  1  6  0  0  0
 14 18  1  0  0  0  0
 15 31  1  0  0  0  0
 16 20  1  0  0  0  0
 17  2  1  1  0  0  0
 17 22  1  0  0  0  0
 18 19  1  6  0  0  0
 18 24  1  0  0  0  0
 18 30  1  0  0  0  0
 20 21  1  0  0  0  0
 20 26  1  6  0  0  0
 22 23  1  6  0  0  0
 22 28  1  0  0  0  0
 24 25  1  0  0  0  0
 26 27  1  0  0  0  0
 28 29  1  1  0  0  0
M  END
>  <CHROM.1>
170.02179235,162.94322760,-160.55027035,39.90988861,95.17014076,76.16186924
2.04183525,18.82065178,35.99819899,-1.36739092,-0.15507841,-0.40110726

>  <Name>
ligand

>  <RI>
0

>  <Rbt.Current_Directory>
/home/itssahil/PROJECTS/Mol_Feturizer/New_Systems/rnas/4GPY

>  <Rbt.Executable>
rbdock ($Id: //depot/dev/client3/rdock/2013.1/src/exe/rbdock.cxx#4 $)

>  <Rbt.Library>
libRbt.so (2013.1, Build901 2013/11/27)

>  <Rbt.Parameter_File>
/export/apps/rDock/src/rDock_2013.1_src/data/scripts/dock_solv.prm

>  <Rbt.Receptor>
prm/blind_docking_60.prm

>  <SCORE>
41.3491

>  <SCORE.INTER>
22.8331

>  <SCORE.INTER.CONST>
1

>  <SCORE.INTER.POLAR>
0

>  <SCORE.INTER.ROT>
6

>  <SCORE.INTER.SOLV>
24.6758

>  <SCORE.INTER.VDW>
-0.603217

>  <SCORE.INTER.norm>
0.736551

>  <SCORE.INTRA>
-1.04124

>  <SCORE.INTRA.DIHEDRAL>
-7.17437

>  <SCORE.INTRA.DIHEDRAL.0>
14.7001

>  <SCORE.INTRA.POLAR>
0

>  <SCORE.INTRA.POLAR.0>
0

>  <SCORE.INTRA.REPUL>
0

>  <SCORE.INTRA.REPUL.0>
0

>  <SCORE.INTRA.SOLV>
-0.200897

>  <SCORE.INTRA.SOLV.lig_0>
-65.3082

>  <SCORE.INTRA.VDW>
2.6464

>  <SCORE.INTRA.VDW.0>
-4.21408

>  <SCORE.INTRA.norm>
-0.0335883

>  <SCORE.RESTR>
19.5572

>  <SCORE.RESTR.CAVITY>
19.5572

>  <SCORE.RESTR.norm>
0.630879

>  <SCORE.SYSTEM>
0

>  <SCORE.SYSTEM.CONST>
0

>  <SCORE.SYSTEM.DIHEDRAL>
0

>  <SCORE.SYSTEM.SOLV>
0

>  <SCORE.SYSTEM.norm>
0

>  <SCORE.heavy>
31

>  <SCORE.norm>
1.33384

>  <RMSD>
9.507

$$$$
ligand
 OpenBabel11021811493D
libRbt.so/2013.1/901 2013/11/27
 31 33  0  0  0  0  0  0  0  0999 V2000
    2.9882   12.5319   36.0471 C   0  0  2  0  0  0  0  0  0  0  0  0
    3.1332   13.5452   37.0235 O   0  0  0  0  0  0  0  0  0  0  0  0
    4.2580   17.6294   37.3623 C   0  0  2  0  0  0  0  0  0  0  0  0
    4.9276   18.8579   37.0994 N   0  0  0  0  0  0  0  0  0  0  0  0
    2.3443   18.8387   34.4926 C   0  0  2  0  0  0  0  0  0  0  0  0
    1.9512   11.4596   36.5973 C   0  0  2  0  0  0  0  0  0  0  0  0
    0.6854   12.1238   36.8892 N   0  0  0  0  0  0  0  0  0  0  0  0
    5.3567   16.5252   37.6987 C   0  0  0  0  0  0  0  0  0  0  0  0
    3.2227   20.1310   34.5907 C   0  0  2  0  0  0  0  0  0  0  0  0
    4.5398   19.7576   34.9360 O   0  0  0  0  0  0  0  0  0  0  0  0
    2.5232   10.7424   37.8750 C   0  0  0  0  0  0  0  0  0  0  0  0
    4.6106   15.1629   38.0071 C   0  0  2  0  0  0  0  0  0  0  0  0
    5.6050   14.1381   38.3273 N   0  0  0  0  0  0  0  0  0  0  0  0
    2.6029   21.0736   35.6856 C   0  0  1  0  0  0  0  0  0  0  0  0
    3.4339   22.3137   35.8117 N   0  0  0  0  0  0  0  0  0  0  0  0
    4.0741   10.4400   37.7359 C   0  0  0  0  0  0  0  0  0  0  0  0
    3.7799   14.7319   36.7298 C   0  0  2  0  0  0  0  0  0  0  0  0
    1.0932   21.4801   35.2342 C   0  0  1  0  0  0  0  0  0  0  0  0
    1.0473   22.1669   33.9991 O   0  0  0  0  0  0  0  0  0  0  0  0
    4.8130   11.0018   36.7485 C   0  0  1  0  0  0  0  0  0  0  0  0
    4.2721   11.8883   35.7730 O   0  0  0  0  0  0  0  0  0  0  0  0
    2.7064   15.8477   36.3890 C   0  0  2  0  0  0  0  0  0  0  0  0
    1.9649   15.4536   35.2163 O   0  0  0  0  0  0  0  0  0  0  0  0
    0.2350   20.1866   35.0994 C   0  0  0  0  0  0  0  0  0  0  0  0
    0.9118   19.2118   34.1513 O   0  0  0  0  0  0  0  0  0  0  0  0
    6.2923   10.7455   36.5861 C   0  0  0  0  0  0  0  0  0  0  0  0
    6.6530    9.7679   37.5855 O   0  0  0  0  0  0  0  0  0  0  0  0
    3.4510   17.2045   36.0897 C   0  0  1  0  0  0  0  0  0  0  0  0
    2.4799   18.1782   35.7966 O   0  0  0  0  0  0  0  0  0  0  0  0
    0.3580   22.3973   36.2202 C   0  0  0  0  0  0  0  0  0  0  0  0
    3.7454   23.0229   34.5534 C   0  0  0  0  0  0  0  0  0  0  0  0
  1  2  1  1  0  0  0
  1  6  1  0  0  0  0
  1 21  1  0  0  0  0
  3  4  1  6  0  0  0
  3  8  1  0  0  0  0
  3 28  1  0  0  0  0
  5  9  1  0  0  0  0
  5 25  1  0  0  0  0
  5 29  1  1  0  0  0
  6  7  1  1  0  0  0
  6 11  1  0  0  0  0
  8 12  1  0  0  0  0
  9 10  1  1  0  0  0
  9 14  1  0  0  0  0
 11 16  1  0  0  0  0
 12 13  1  6  0  0  0
 12 17  1  0  0  0  0
 14 15  1  6  0  0  0
 14 18  1  0  0  0  0
 15 31  1  0  0  0  0
 16 20  1  0  0  0  0
 17  2  1  1  0  0  0
 17 22  1  0  0  0  0
 18 19  1  6  0  0  0
 18 24  1  0  0  0  0
 18 30  1  0  0  0  0
 20 21  1  0  0  0  0
 20 26  1  1  0  0  0
 22 23  1  6  0  0  0
 22 28  1  0  0  0  0
 24 25  1  0  0  0  0
 26 27  1  0  0  0  0
 28 29  1  1  0  0  0
M  END
>  <CHROM.1>
-168.11708053,-91.65578856,50.49860857,-142.52084126,4.01533066,126.01505499
3.22557257,16.41599440,36.18115825,1.35718294,0.28472462,3.00109092

>  <Name>
ligand

>  <RI>
0

>  <Rbt.Current_Directory>
/home/itssahil/PROJECTS/Mol_Feturizer/New_Systems/rnas/4GPY

>  <Rbt.Executable>
rbdock ($Id: //depot/dev/client3/rdock/2013.1/src/exe/rbdock.cxx#4 $)

>  <Rbt.Library>
libRbt.so (2013.1, Build901 2013/11/27)

>  <Rbt.Parameter_File>
/export/apps/rDock/src/rDock_2013.1_src/data/scripts/dock_solv.prm

>  <Rbt.Receptor>
prm/blind_docking_100.prm

>  <SCORE>
1.23775

>  <SCORE.INTER>
-12.0257

>  <SCORE.INTER.CONST>
1

>  <SCORE.INTER.POLAR>
0

>  <SCORE.INTER.ROT>
6

>  <SCORE.INTER.SOLV>
18.9475

>  <SCORE.INTER.VDW>
-21.933

>  <SCORE.INTER.norm>
-0.387925

>  <SCORE.INTRA>
7.95594

>  <SCORE.INTRA.DIHEDRAL>
3.65076

>  <SCORE.INTRA.DIHEDRAL.0>
14.7001

>  <SCORE.INTRA.POLAR>
0

>  <SCORE.INTRA.POLAR.0>
0

>  <SCORE.INTRA.REPUL>
0

>  <SCORE.INTRA.REPUL.0>
0

>  <SCORE.INTRA.SOLV>
2.94504

>  <SCORE.INTRA.SOLV.lig_0>
-65.3082

>  <SCORE.INTRA.VDW>
4.65804

>  <SCORE.INTRA.VDW.0>
-4.21408

>  <SCORE.INTRA.norm>
0.256643

>  <SCORE.RESTR>
5.3075

>  <SCORE.RESTR.CAVITY>
5.3075

>  <SCORE.RESTR.norm>
0.17121

>  <SCORE.SYSTEM>
0

>  <SCORE.SYSTEM.CONST>
0

>  <SCORE.SYSTEM.DIHEDRAL>
0

>  <SCORE.SYSTEM.SOLV>
0

>  <SCORE.SYSTEM.norm>
0

>  <SCORE.heavy>
31

>  <SCORE.norm>
0.0399275

>  <RMSD>
9.514

$$$$
ligand
 OpenBabel11021811493D
libRbt.so/2013.1/901 2013/11/27
 31 33  0  0  0  0  0  0  0  0999 V2000
    2.0900   13.7605   35.8882 C   0  0  2  0  0  0  0  0  0  0  0  0
    2.4132   14.7371   36.8594 O   0  0  0  0  0  0  0  0  0  0  0  0
    4.8830   18.1501   37.4173 C   0  0  2  0  0  0  0  0  0  0  0  0
    5.9801   19.0452   37.2688 N   0  0  0  0  0  0  0  0  0  0  0  0
    2.7640   19.4439   34.4786 C   0  0  2  0  0  0  0  0  0  0  0  0
    0.7909   12.9861   36.3787 C   0  0  2  0  0  0  0  0  0  0  0  0
   -0.2923   13.9439   36.5735 N   0  0  0  0  0  0  0  0  0  0  0  0
    5.4530   16.7360   37.8810 C   0  0  0  0  0  0  0  0  0  0  0  0
    2.8644   20.9674   34.1322 C   0  0  2  0  0  0  0  0  0  0  0  0
    4.2199   21.2918   33.9068 O   0  0  0  0  0  0  0  0  0  0  0  0
    1.0887   12.1898   37.7020 C   0  0  0  0  0  0  0  0  0  0  0  0
    4.2309   15.7453   38.0619 C   0  0  2  0  0  0  0  0  0  0  0  0
    4.7355   14.4423   38.4968 N   0  0  0  0  0  0  0  0  0  0  0  0
    2.2845   21.7925   35.3382 C   0  0  1  0  0  0  0  0  0  0  0  0
    2.3823   23.2573   35.0397 N   0  0  0  0  0  0  0  0  0  0  0  0
    2.5257   11.5187   37.6747 C   0  0  0  0  0  0  0  0  0  0  0  0
    3.4781   15.6003   36.6765 C   0  0  2  0  0  0  0  0  0  0  0  0
    0.7222   21.3882   35.5474 C   0  0  1  0  0  0  0  0  0  0  0  0
   -0.0797   21.6601   34.4149 O   0  0  0  0  0  0  0  0  0  0  0  0
    3.4406   11.8569   36.7340 C   0  0  1  0  0  0  0  0  0  0  0  0
    3.1945   12.8189   35.7121 O   0  0  0  0  0  0  0  0  0  0  0  0
    2.9361   17.0161   36.2121 C   0  0  2  0  0  0  0  0  0  0  0  0
    2.2650   16.8768   34.9430 O   0  0  0  0  0  0  0  0  0  0  0  0
    0.6259   19.8633   35.8520 C   0  0  0  0  0  0  0  0  0  0  0  0
    1.3179   19.0708   34.7564 O   0  0  0  0  0  0  0  0  0  0  0  0
    4.8210   11.2472   36.6779 C   0  0  0  0  0  0  0  0  0  0  0  0
    5.7272   12.2285   37.2261 O   0  0  0  0  0  0  0  0  0  0  0  0
    4.1536   18.0024   36.0399 C   0  0  1  0  0  0  0  0  0  0  0  0
    3.6485   19.2503   35.6342 O   0  0  0  0  0  0  0  0  0  0  0  0
    0.0249   22.1149   36.7048 C   0  0  0  0  0  0  0  0  0  0  0  0
    1.7379   23.7148   33.7912 C   0  0  0  0  0  0  0  0  0  0  0  0
  1  2  1  1  0  0  0
  1  6  1  0  0  0  0
  1 21  1  0  0  0  0
  3  4  1  6  0  0  0
  3  8  1  0  0  0  0
  3 28  1  0  0  0  0
  5  9  1  0  0  0  0
  5 25  1  0  0  0  0
  5 29  1  1  0  0  0
  6  7  1  1  0  0  0
  6 11  1  0  0  0  0
  8 12  1  0  0  0  0
  9 10  1  1  0  0  0
  9 14  1  0  0  0  0
 11 16  1  0  0  0  0
 12 13  1  6  0  0  0
 12 17  1  0  0  0  0
 14 15  1  6  0  0  0
 14 18  1  0  0  0  0
 15 31  1  0  0  0  0
 16 20  1  0  0  0  0
 17  2  1  1  0  0  0
 17 22  1  0  0  0  0
 18 19  1  6  0  0  0
 18 24  1  0  0  0  0
 18 30  1  0  0  0  0
 20 21  1  0  0  0  0
 20 26  1  1  0  0  0
 22 23  1  6  0  0  0
 22 28  1  0  0  0  0
 24 25  1  0  0  0  0
 26 27  1  0  0  0  0
 28 29  1  1  0  0  0
M  END
>  <CHROM.1>
-177.70823946,-161.28797348,55.88674157,-138.85825272,-102.56209094,-171.83262735
2.78299050,17.20191738,36.10326461,1.42187543,0.21558768,2.94169919

>  <Name>
ligand

>  <RI>
0

>  <Rbt.Current_Directory>
/home/itssahil/PROJECTS/Mol_Feturizer/New_Systems/rnas/4GPY

>  <Rbt.Executable>
rbdock ($Id: //depot/dev/client3/rdock/2013.1/src/exe/rbdock.cxx#4 $)

>  <Rbt.Library>
libRbt.so (2013.1, Build901 2013/11/27)

>  <Rbt.Parameter_File>
/export/apps/rDock/src/rDock_2013.1_src/data/scripts/dock_solv.prm

>  <Rbt.Receptor>
prm/blind_docking_100.prm

>  <SCORE>
3.13687

>  <SCORE.INTER>
-5.02858

>  <SCORE.INTER.CONST>
1

>  <SCORE.INTER.POLAR>
0

>  <SCORE.INTER.ROT>
6

>  <SCORE.INTER.SOLV>
21.3906

>  <SCORE.INTER.VDW>
-18.0826

>  <SCORE.INTER.norm>
-0.162212

>  <SCORE.INTRA>
2.35947

>  <SCORE.INTRA.DIHEDRAL>
-5.09789

>  <SCORE.INTRA.DIHEDRAL.0>
14.7001

>  <SCORE.INTRA.POLAR>
0

>  <SCORE.INTRA.POLAR.0>
0

>  <SCORE.INTRA.REPUL>
0

>  <SCORE.INTRA.REPUL.0>
0

>  <SCORE.INTRA.SOLV>
1.33934

>  <SCORE.INTRA.SOLV.lig_0>
-65.3082

>  <SCORE.INTRA.VDW>
4.23875

>  <SCORE.INTRA.VDW.0>
-4.21408

>  <SCORE.INTRA.norm>
0.0761119

>  <SCORE.RESTR>
5.80598

>  <SCORE.RESTR.CAVITY>
5.80598

>  <SCORE.RESTR.norm>
0.18729

>  <SCORE.SYSTEM>
0

>  <SCORE.SYSTEM.CONST>
0

>  <SCORE.SYSTEM.DIHEDRAL>
0

>  <SCORE.SYSTEM.SOLV>
0

>  <SCORE.SYSTEM.norm>
0

>  <SCORE.heavy>
31

>  <SCORE.norm>
0.101189

>  <RMSD>
9.523

$$$$
ligand
 OpenBabel11021811493D
libRbt.so/2013.1/901 2013/11/27
 31 33  0  0  0  0  0  0  0  0999 V2000
    1.4876   15.7500   38.2164 C   0  0  2  0  0  0  0  0  0  0  0  0
    1.3305   16.3662   36.9527 O   0  0  0  0  0  0  0  0  0  0  0  0
    4.6476   18.9615   36.3856 C   0  0  2  0  0  0  0  0  0  0  0  0
    5.7678   19.5834   35.7649 N   0  0  0  0  0  0  0  0  0  0  0  0
    3.0522   21.3499   34.1759 C   0  0  2  0  0  0  0  0  0  0  0  0
    1.0866   14.2182   38.0729 C   0  0  2  0  0  0  0  0  0  0  0  0
    1.9250   13.5973   37.0530 N   0  0  0  0  0  0  0  0  0  0  0  0
    4.9352   17.3968   36.4796 C   0  0  0  0  0  0  0  0  0  0  0  0
    2.2385   22.6443   34.5129 C   0  0  2  0  0  0  0  0  0  0  0  0
    2.8775   23.3160   35.5777 O   0  0  0  0  0  0  0  0  0  0  0  0
   -0.4388   14.0772   37.7160 C   0  0  0  0  0  0  0  0  0  0  0  0
    3.6962   16.7077   37.1849 C   0  0  2  0  0  0  0  0  0  0  0  0
    3.9470   15.2696   37.2878 N   0  0  0  0  0  0  0  0  0  0  0  0
    0.7770   22.2248   34.9125 C   0  0  1  0  0  0  0  0  0  0  0  0
   -0.0213   23.4453   35.2557 N   0  0  0  0  0  0  0  0  0  0  0  0
   -1.3284   15.1240   38.5091 C   0  0  0  0  0  0  0  0  0  0  0  0
    2.3990   16.9709   36.3159 C   0  0  2  0  0  0  0  0  0  0  0  0
    0.0853   21.4658   33.6501 C   0  0  1  0  0  0  0  0  0  0  0  0
   -0.0002   22.2742   32.4932 O   0  0  0  0  0  0  0  0  0  0  0  0
   -0.7656   16.1626   39.1733 C   0  0  1  0  0  0  0  0  0  0  0  0
    0.6394   16.3954   39.2171 O   0  0  0  0  0  0  0  0  0  0  0  0
    2.1353   18.5305   36.2081 C   0  0  2  0  0  0  0  0  0  0  0  0
    0.9609   18.7611   35.4031 O   0  0  0  0  0  0  0  0  0  0  0  0
    0.9224   20.2008   33.2942 C   0  0  0  0  0  0  0  0  0  0  0  0
    2.3708   20.5887   33.0516 O   0  0  0  0  0  0  0  0  0  0  0  0
   -1.5771   17.1842   39.9337 C   0  0  0  0  0  0  0  0  0  0  0  0
   -2.6766   17.5582   39.0757 O   0  0  0  0  0  0  0  0  0  0  0  0
    3.3731   19.2153   35.5125 C   0  0  1  0  0  0  0  0  0  0  0  0
    3.1191   20.5960   35.4337 O   0  0  0  0  0  0  0  0  0  0  0  0
   -1.3510   20.9888   33.9019 C   0  0  0  0  0  0  0  0  0  0  0  0
   -0.6410   23.4655   36.5970 C   0  0  0  0  0  0  0  0  0  0  0  0
  1  2  1  6  0  0  0
  1  6  1  0  0  0  0
  1 21  1  0  0  0  0
  3  4  1  6  0  0  0
  3  8  1  0  0  0  0
  3 28  1  0  0  0  0
  5  9  1  0  0  0  0
  5 25  1  0  0  0  0
  5 29  1  1  0  0  0
  6  7  1  6  0  0  0
  6 11  1  0  0  0  0
  8 12  1  0  0  0  0
  9 10  1  1  0  0  0
  9 14  1  0  0  0  0
 11 16  1  0  0  0  0
 12 13  1  6  0  0  0
 12 17  1  0  0  0  0
 14 15  1  6  0  0  0
 14 18  1  0  0  0  0
 15 31  1  0  0  0  0
 16 20  1  0  0  0  0
 17  2  1  1  0  0  0
 17 22  1  0  0  0  0
 18 19  1  6  0  0  0
 18 24  1  0  0  0  0
 18 30  1  0  0  0  0
 20 21  1  0  0  0  0
 20 26  1  6  0  0  0
 22 23  1  6  0  0  0
 22 28  1  0  0  0  0
 24 25  1  0  0  0  0
 26 27  1  0  0  0  0
 28 29  1  1  0  0  0
M  END
>  <CHROM.1>
-120.56791023,159.01071343,-123.65853822,4.74770905,-45.59146794,121.64905597
1.41342033,18.76054305,36.22660100,-1.66690945,0.26284681,-0.49756685

>  <Name>
ligand

>  <RI>
0

>  <Rbt.Current_Directory>
/home/itssahil/PROJECTS/Mol_Feturizer/New_Systems/rnas/4GPY

>  <Rbt.Executable>
rbdock ($Id: //depot/dev/client3/rdock/2013.1/src/exe/rbdock.cxx#4 $)

>  <Rbt.Library>
libRbt.so (2013.1, Build901 2013/11/27)

>  <Rbt.Parameter_File>
/export/apps/rDock/src/rDock_2013.1_src/data/scripts/dock_solv.prm

>  <Rbt.Receptor>
prm/blind_docking_60.prm

>  <SCORE>
27.938

>  <SCORE.INTER>
-5.83479

>  <SCORE.INTER.CONST>
1

>  <SCORE.INTER.POLAR>
0

>  <SCORE.INTER.ROT>
6

>  <SCORE.INTER.SOLV>
17.2423

>  <SCORE.INTER.VDW>
-17.2373

>  <SCORE.INTER.norm>
-0.188219

>  <SCORE.INTRA>
14.8789

>  <SCORE.INTRA.DIHEDRAL>
13.2559

>  <SCORE.INTRA.DIHEDRAL.0>
14.7001

>  <SCORE.INTRA.POLAR>
0

>  <SCORE.INTRA.POLAR.0>
0

>  <SCORE.INTRA.REPUL>
0

>  <SCORE.INTRA.REPUL.0>
0

>  <SCORE.INTRA.SOLV>
2.67415

>  <SCORE.INTRA.SOLV.lig_0>
-65.3082

>  <SCORE.INTRA.VDW>
6.91385

>  <SCORE.INTRA.VDW.0>
-4.21408

>  <SCORE.INTRA.norm>
0.479964

>  <SCORE.RESTR>
18.894

>  <SCORE.RESTR.CAVITY>
18.894

>  <SCORE.RESTR.norm>
0.609482

>  <SCORE.SYSTEM>
0

>  <SCORE.SYSTEM.CONST>
0

>  <SCORE.SYSTEM.DIHEDRAL>
0

>  <SCORE.SYSTEM.SOLV>
0

>  <SCORE.SYSTEM.norm>
0

>  <SCORE.heavy>
31

>  <SCORE.norm>
0.901227

>  <RMSD>
9.577

$$$$
ligand
 OpenBabel11021811493D
libRbt.so/2013.1/901 2013/11/27
 31 33  0  0  0  0  0  0  0  0999 V2000
    1.1020   14.5402   36.4116 C   0  0  2  0  0  0  0  0  0  0  0  0
    2.0058   15.2069   37.2718 O   0  0  0  0  0  0  0  0  0  0  0  0
    4.6034   18.5292   36.7477 C   0  0  2  0  0  0  0  0  0  0  0  0
    5.6863   19.3163   36.2632 N   0  0  0  0  0  0  0  0  0  0  0  0
    2.3452   19.3058   33.7291 C   0  0  2  0  0  0  0  0  0  0  0  0
    0.0026   13.8233   37.3091 C   0  0  2  0  0  0  0  0  0  0  0  0
   -0.6651   14.8220   38.1369 N   0  0  0  0  0  0  0  0  0  0  0  0
    5.2042   17.2141   37.4180 C   0  0  0  0  0  0  0  0  0  0  0  0
    2.5466   20.7308   33.1126 C   0  0  2  0  0  0  0  0  0  0  0  0
    3.9284   20.9515   32.9250 O   0  0  0  0  0  0  0  0  0  0  0  0
    0.6578   12.6996   38.1935 C   0  0  0  0  0  0  0  0  0  0  0  0
    4.0003   16.3469   37.9713 C   0  0  2  0  0  0  0  0  0  0  0  0
    4.5345   15.1377   38.5991 N   0  0  0  0  0  0  0  0  0  0  0  0
    1.9393   21.7922   34.1007 C   0  0  1  0  0  0  0  0  0  0  0  0
    2.1322   23.1688   33.5420 N   0  0  0  0  0  0  0  0  0  0  0  0
    1.7689   11.8958   37.3964 C   0  0  0  0  0  0  0  0  0  0  0  0
    3.0512   15.9574   36.7652 C   0  0  2  0  0  0  0  0  0  0  0  0
    0.3481   21.4985   34.2730 C   0  0  1  0  0  0  0  0  0  0  0  0
   -0.3685   21.5832   33.0570 O   0  0  0  0  0  0  0  0  0  0  0  0
    2.2464   12.3463   36.2109 C   0  0  1  0  0  0  0  0  0  0  0  0
    1.7998   13.5500   35.5930 O   0  0  0  0  0  0  0  0  0  0  0  0
    2.4781   17.2725   36.0900 C   0  0  2  0  0  0  0  0  0  0  0  0
    1.6268   16.9086   34.9840 O   0  0  0  0  0  0  0  0  0  0  0  0
    0.1532   20.0640   34.8490 C   0  0  0  0  0  0  0  0  0  0  0  0
    0.8673   19.0510   33.9709 O   0  0  0  0  0  0  0  0  0  0  0  0
    3.3084   11.6150   35.4249 C   0  0  0  0  0  0  0  0  0  0  0  0
    2.6713   11.1313   34.2229 O   0  0  0  0  0  0  0  0  0  0  0  0
    3.6786   18.1376   35.5466 C   0  0  1  0  0  0  0  0  0  0  0  0
    3.1469   19.2990   34.9588 O   0  0  0  0  0  0  0  0  0  0  0  0
   -0.3784   22.4589   35.2236 C   0  0  0  0  0  0  0  0  0  0  0  0
    3.2403   23.9588   34.1176 C   0  0  0  0  0  0  0  0  0  0  0  0
  1  2  1  1  0  0  0
  1  6  1  0  0  0  0
  1 21  1  0  0  0  0
  3  4  1  6  0  0  0
  3  8  1  0  0  0  0
  3 28  1  0  0  0  0
  5  9  1  0  0  0  0
  5 25  1  0  0  0  0
  5 29  1  1  0  0  0
  6  7  1  1  0  0  0
  6 11  1  0  0  0  0
  8 12  1  0  0  0  0
  9 10  1  1  0  0  0
  9 14  1  0  0  0  0
 11 16  1  0  0  0  0
 12 13  1  6  0  0  0
 12 17  1  0  0  0  0
 14 15  1  6  0  0  0
 14 18  1  0  0  0  0
 15 31  1  0  0  0  0
 16 20  1  0  0  0  0
 17  2  1  1  0  0  0
 17 22  1  0  0  0  0
 18 19  1  6  0  0  0
 18 24  1  0  0  0  0
 18 30  1  0  0  0  0
 20 21  1  0  0  0  0
 20 26  1  1  0  0  0
 22 23  1  6  0  0  0
 22 28  1  0  0  0  0
 24 25  1  0  0  0  0
 26 27  1  0  0  0  0
 28 29  1  1  0  0  0
M  END
>  <CHROM.1>
-177.93158157,-154.31318313,-101.42667871,-170.25667151,112.38994391,173.73707022
2.23415570,17.43605057,35.58707382,1.55236308,0.24789476,2.84038335

>  <Name>
ligand

>  <RI>
0

>  <Rbt.Current_Directory>
/home/itssahil/PROJECTS/Mol_Feturizer/New_Systems/rnas/4GPY

>  <Rbt.Executable>
rbdock ($Id: //depot/dev/client3/rdock/2013.1/src/exe/rbdock.cxx#4 $)

>  <Rbt.Library>
libRbt.so (2013.1, Build901 2013/11/27)

>  <Rbt.Parameter_File>
/export/apps/rDock/src/rDock_2013.1_src/data/scripts/dock_solv.prm

>  <Rbt.Receptor>
prm/pocket_docking_8.prm

>  <SCORE>
-14.6273

>  <SCORE.INTER>
-10.9123

>  <SCORE.INTER.CONST>
1

>  <SCORE.INTER.POLAR>
0

>  <SCORE.INTER.ROT>
6

>  <SCORE.INTER.SOLV>
16.7127

>  <SCORE.INTER.VDW>
-20.4458

>  <SCORE.INTER.norm>
-0.35201

>  <SCORE.INTRA>
-3.71501

>  <SCORE.INTRA.DIHEDRAL>
-8.53307

>  <SCORE.INTRA.DIHEDRAL.0>
14.7001

>  <SCORE.INTRA.POLAR>
0

>  <SCORE.INTRA.POLAR.0>
0

>  <SCORE.INTRA.REPUL>
0

>  <SCORE.INTRA.REPUL.0>
0

>  <SCORE.INTRA.SOLV>
-2.19469

>  <SCORE.INTRA.SOLV.lig_0>
-65.3082

>  <SCORE.INTRA.VDW>
1.64887

>  <SCORE.INTRA.VDW.0>
-4.21408

>  <SCORE.INTRA.norm>
-0.119839

>  <SCORE.RESTR>
0

>  <SCORE.RESTR.CAVITY>
0

>  <SCORE.RESTR.norm>
0

>  <SCORE.SYSTEM>
0

>  <SCORE.SYSTEM.CONST>
0

>  <SCORE.SYSTEM.DIHEDRAL>
0

>  <SCORE.SYSTEM.SOLV>
0

>  <SCORE.SYSTEM.norm>
0

>  <SCORE.heavy>
31

>  <SCORE.norm>
-0.471849

>  <RMSD>
9.593

$$$$
ligand
 OpenBabel11021811493D
libRbt.so/2013.1/901 2013/11/27
 31 33  0  0  0  0  0  0  0  0999 V2000
    1.3932   16.0942   37.9233 C   0  0  2  0  0  0  0  0  0  0  0  0
    1.0688   16.7609   36.7185 O   0  0  0  0  0  0  0  0  0  0  0  0
    4.2432   19.5615   36.3446 C   0  0  2  0  0  0  0  0  0  0  0  0
    5.2035   20.4210   35.7398 N   0  0  0  0  0  0  0  0  0  0  0  0
    2.4630   22.5256   35.5641 C   0  0  2  0  0  0  0  0  0  0  0  0
    1.0914   14.5453   37.7281 C   0  0  2  0  0  0  0  0  0  0  0  0
    1.8683   14.0448   36.5991 N   0  0  0  0  0  0  0  0  0  0  0  0
    4.4896   18.0820   35.8060 C   0  0  0  0  0  0  0  0  0  0  0  0
    0.9265   22.8148   35.4834 C   0  0  2  0  0  0  0  0  0  0  0  0
    0.4267   22.9748   36.7941 O   0  0  0  0  0  0  0  0  0  0  0  0
   -0.4475   14.3054   37.5085 C   0  0  0  0  0  0  0  0  0  0  0  0
    3.4318   17.1235   36.4916 C   0  0  2  0  0  0  0  0  0  0  0  0
    3.6491   15.7571   36.0147 N   0  0  0  0  0  0  0  0  0  0  0  0
    0.2284   21.6050   34.7619 C   0  0  1  0  0  0  0  0  0  0  0  0
   -1.2478   21.8485   34.6843 N   0  0  0  0  0  0  0  0  0  0  0  0
   -1.3280   15.2378   38.4420 C   0  0  0  0  0  0  0  0  0  0  0  0
    1.9745   17.6072   36.1051 C   0  0  2  0  0  0  0  0  0  0  0  0
    0.8325   21.4722   33.2568 C   0  0  1  0  0  0  0  0  0  0  0  0
    0.6186   22.6256   32.4673 O   0  0  0  0  0  0  0  0  0  0  0  0
   -0.7791   16.2811   39.1105 C   0  0  1  0  0  0  0  0  0  0  0  0
    0.6030   16.6193   39.0356 O   0  0  0  0  0  0  0  0  0  0  0  0
    1.7478   19.0882   36.6238 C   0  0  2  0  0  0  0  0  0  0  0  0
    0.4238   19.5253   36.2547 O   0  0  0  0  0  0  0  0  0  0  0  0
    2.3683   21.2246   33.3432 C   0  0  0  0  0  0  0  0  0  0  0  0
    3.0244   22.3185   34.1679 O   0  0  0  0  0  0  0  0  0  0  0  0
   -1.5835   17.1961   40.0026 C   0  0  0  0  0  0  0  0  0  0  0  0
   -0.7530   17.4908   41.1463 O   0  0  0  0  0  0  0  0  0  0  0  0
    2.8065   20.0391   35.9457 C   0  0  1  0  0  0  0  0  0  0  0  0
    2.5899   21.3431   36.4248 O   0  0  0  0  0  0  0  0  0  0  0  0
    0.2447   20.3190   32.4331 C   0  0  0  0  0  0  0  0  0  0  0  0
   -1.6669   23.1614   34.1514 C   0  0  0  0  0  0  0  0  0  0  0  0
  1  2  1  6  0  0  0
  1  6  1  0  0  0  0
  1 21  1  0  0  0  0
  3  4  1  6  0  0  0
  3  8  1  0  0  0  0
  3 28  1  0  0  0  0
  5  9  1  0  0  0  0
  5 25  1  0  0  0  0
  5 29  1  1  0  0  0
  6  7  1  6  0  0  0
  6 11  1  0  0  0  0
  8 12  1  0  0  0  0
  9 10  1  1  0  0  0
  9 14  1  0  0  0  0
 11 16  1  0  0  0  0
 12 13  1  6  0  0  0
 12 17  1  0  0  0  0
 14 15  1  6  0  0  0
 14 18  1  0  0  0  0
 15 31  1  0  0  0  0
 16 20  1  0  0  0  0
 17  2  1  1  0  0  0
 17 22  1  0  0  0  0
 18 19  1  6  0  0  0
 18 24  1  0  0  0  0
 18 30  1  0  0  0  0
 20 21  1  0  0  0  0
 20 26  1  6  0  0  0
 22 23  1  6  0  0  0
 22 28  1  0  0  0  0
 24 25  1  0  0  0  0
 26 27  1  0  0  0  0
 28 29  1  1  0  0  0
M  END
>  <CHROM.1>
-128.38010291,101.34588437,50.15681443,27.71823556,141.02950231,111.45770817
1.25756468,19.07208263,36.23450864,-1.67623559,0.39940803,-0.51792578

>  <Name>
ligand

>  <RI>
0

>  <Rbt.Current_Directory>
/home/itssahil/PROJECTS/Mol_Feturizer/New_Systems/rnas/4GPY

>  <Rbt.Executable>
rbdock ($Id: //depot/dev/client3/rdock/2013.1/src/exe/rbdock.cxx#4 $)

>  <Rbt.Library>
libRbt.so (2013.1, Build901 2013/11/27)

>  <Rbt.Parameter_File>
/export/apps/rDock/src/rDock_2013.1_src/data/scripts/dock_solv.prm

>  <Rbt.Receptor>
prm/blind_docking_60.prm

>  <SCORE>
41.2512

>  <SCORE.INTER>
10.7294

>  <SCORE.INTER.CONST>
1

>  <SCORE.INTER.POLAR>
0

>  <SCORE.INTER.ROT>
6

>  <SCORE.INTER.SOLV>
20.1452

>  <SCORE.INTER.VDW>
-7.16213

>  <SCORE.INTER.norm>
0.34611

>  <SCORE.INTRA>
14.2042

>  <SCORE.INTRA.DIHEDRAL>
10.926

>  <SCORE.INTRA.DIHEDRAL.0>
14.7001

>  <SCORE.INTRA.POLAR>
0

>  <SCORE.INTRA.POLAR.0>
0

>  <SCORE.INTRA.REPUL>
0

>  <SCORE.INTRA.REPUL.0>
0

>  <SCORE.INTRA.SOLV>
4.62488

>  <SCORE.INTRA.SOLV.lig_0>
-65.3082

>  <SCORE.INTRA.VDW>
6.42876

>  <SCORE.INTRA.VDW.0>
-4.21408

>  <SCORE.INTRA.norm>
0.4582

>  <SCORE.RESTR>
16.3176

>  <SCORE.RESTR.CAVITY>
16.3176

>  <SCORE.RESTR.norm>
0.526374

>  <SCORE.SYSTEM>
0

>  <SCORE.SYSTEM.CONST>
0

>  <SCORE.SYSTEM.DIHEDRAL>
0

>  <SCORE.SYSTEM.SOLV>
0

>  <SCORE.SYSTEM.norm>
0

>  <SCORE.heavy>
31

>  <SCORE.norm>
1.33068

>  <RMSD>
9.598

$$$$
ligand
 OpenBabel11021811493D
libRbt.so/2013.1/901 2013/11/27
 31 33  0  0  0  0  0  0  0  0999 V2000
    0.1384   16.7274   37.1797 C   0  0  2  0  0  0  0  0  0  0  0  0
    1.4894   16.7464   37.5990 O   0  0  0  0  0  0  0  0  0  0  0  0
    4.8712   18.9483   36.2667 C   0  0  2  0  0  0  0  0  0  0  0  0
    5.9301   19.3935   35.4256 N   0  0  0  0  0  0  0  0  0  0  0  0
    3.2032   21.2255   34.0248 C   0  0  2  0  0  0  0  0  0  0  0  0
   -0.7674   16.3998   38.4447 C   0  0  2  0  0  0  0  0  0  0  0  0
   -0.5287   17.4027   39.4771 N   0  0  0  0  0  0  0  0  0  0  0  0
    5.0507   17.3833   36.5076 C   0  0  0  0  0  0  0  0  0  0  0  0
    2.3985   22.5453   34.2734 C   0  0  2  0  0  0  0  0  0  0  0  0
    3.0896   23.3238   35.2272 O   0  0  0  0  0  0  0  0  0  0  0  0
   -0.4663   14.9518   38.9802 C   0  0  0  0  0  0  0  0  0  0  0  0
    3.8822   16.8917   37.4565 C   0  0  2  0  0  0  0  0  0  0  0  0
    4.0364   15.4562   37.6962 N   0  0  0  0  0  0  0  0  0  0  0  0
    0.9648   22.1648   34.7942 C   0  0  1  0  0  0  0  0  0  0  0  0
    0.1764   23.4117   35.0555 N   0  0  0  0  0  0  0  0  0  0  0  0
   -0.2451   13.9201   37.7958 C   0  0  0  0  0  0  0  0  0  0  0  0
    2.4936   17.1775   36.7514 C   0  0  2  0  0  0  0  0  0  0  0  0
    0.2110   21.2793   33.6559 C   0  0  1  0  0  0  0  0  0  0  0  0
    0.0552   21.9654   32.4294 O   0  0  0  0  0  0  0  0  0  0  0  0
   -0.0682   14.3429   36.5205 C   0  0  1  0  0  0  0  0  0  0  0  0
   -0.0688   15.7170   36.1435 O   0  0  0  0  0  0  0  0  0  0  0  0
    2.3352   18.7339   36.4942 C   0  0  2  0  0  0  0  0  0  0  0  0
    1.0748   18.9831   35.8387 O   0  0  0  0  0  0  0  0  0  0  0  0
    1.0377   19.9868   33.3842 C   0  0  0  0  0  0  0  0  0  0  0  0
    2.4673   20.3519   33.0233 O   0  0  0  0  0  0  0  0  0  0  0  0
    0.1524   13.3941   35.3666 C   0  0  0  0  0  0  0  0  0  0  0  0
    1.4241   13.7467   34.7808 O   0  0  0  0  0  0  0  0  0  0  0  0
    3.5037   19.2223   35.5555 C   0  0  1  0  0  0  0  0  0  0  0  0
    3.3456   20.6038   35.3470 O   0  0  0  0  0  0  0  0  0  0  0  0
   -1.2052   20.8265   34.0343 C   0  0  0  0  0  0  0  0  0  0  0  0
   -0.5740   23.4563   36.3276 C   0  0  0  0  0  0  0  0  0  0  0  0
  1  2  1  1  0  0  0
  1  6  1  0  0  0  0
  1 21  1  0  0  0  0
  3  4  1  6  0  0  0
  3  8  1  0  0  0  0
  3 28  1  0  0  0  0
  5  9  1  0  0  0  0
  5 25  1  0  0  0  0
  5 29  1  1  0  0  0
  6  7  1  1  0  0  0
  6 11  1  0  0  0  0
  8 12  1  0  0  0  0
  9 10  1  1  0  0  0
  9 14  1  0  0  0  0
 11 16  1  0  0  0  0
 12 13  1  6  0  0  0
 12 17  1  0  0  0  0
 14 15  1  6  0  0  0
 14 18  1  0  0  0  0
 15 31  1  0  0  0  0
 16 20  1  0  0  0  0
 17  2  1  1  0  0  0
 17 22  1  0  0  0  0
 18 19  1  6  0  0  0
 18 24  1  0  0  0  0
 18 30  1  0  0  0  0
 20 21  1  0  0  0  0
 20 26  1  1  0  0  0
 22 23  1  6  0  0  0
 22 28  1  0  0  0  0
 24 25  1  0  0  0  0
 26 27  1  0  0  0  0
 28 29  1  1  0  0  0
M  END
>  <CHROM.1>
-171.42307550,153.45999613,-134.53035585,-172.63246431,-121.28980578,119.07742321
1.57673037,18.61879665,35.83637323,1.67058224,-0.01166160,2.76072846

>  <Name>
ligand

>  <RI>
0

>  <Rbt.Current_Directory>
/home/itssahil/PROJECTS/Mol_Feturizer/New_Systems/rnas/4GPY

>  <Rbt.Executable>
rbdock ($Id: //depot/dev/client3/rdock/2013.1/src/exe/rbdock.cxx#4 $)

>  <Rbt.Library>
libRbt.so (2013.1, Build901 2013/11/27)

>  <Rbt.Parameter_File>
/export/apps/rDock/src/rDock_2013.1_src/data/scripts/dock_solv.prm

>  <Rbt.Receptor>
prm/blind_docking_60.prm

>  <SCORE>
18.2059

>  <SCORE.INTER>
-0.0464285

>  <SCORE.INTER.CONST>
1

>  <SCORE.INTER.POLAR>
0

>  <SCORE.INTER.ROT>
6

>  <SCORE.INTER.SOLV>
20.9721

>  <SCORE.INTER.VDW>
-14.6217

>  <SCORE.INTER.norm>
-0.00149769

>  <SCORE.INTRA>
0.0830994

>  <SCORE.INTRA.DIHEDRAL>
-1.22007

>  <SCORE.INTRA.DIHEDRAL.0>
14.7001

>  <SCORE.INTRA.POLAR>
0

>  <SCORE.INTRA.POLAR.0>
0

>  <SCORE.INTRA.REPUL>
0

>  <SCORE.INTRA.REPUL.0>
0

>  <SCORE.INTRA.SOLV>
-1.63557

>  <SCORE.INTRA.SOLV.lig_0>
-65.3082

>  <SCORE.INTRA.VDW>
1.51092

>  <SCORE.INTRA.VDW.0>
-4.21408

>  <SCORE.INTRA.norm>
0.00268063

>  <SCORE.RESTR>
18.1692

>  <SCORE.RESTR.CAVITY>
18.1692

>  <SCORE.RESTR.norm>
0.586105

>  <SCORE.SYSTEM>
0

>  <SCORE.SYSTEM.CONST>
0

>  <SCORE.SYSTEM.DIHEDRAL>
0

>  <SCORE.SYSTEM.SOLV>
0

>  <SCORE.SYSTEM.norm>
0

>  <SCORE.heavy>
31

>  <SCORE.norm>
0.587288

>  <RMSD>
9.600

$$$$
ligand
 OpenBabel11021811493D
libRbt.so/2013.1/901 2013/11/27
 31 33  0  0  0  0  0  0  0  0999 V2000
    1.4511   13.8619   36.5308 C   0  0  2  0  0  0  0  0  0  0  0  0
    2.2307   14.7145   37.3474 O   0  0  0  0  0  0  0  0  0  0  0  0
    4.3130   18.3399   36.5859 C   0  0  2  0  0  0  0  0  0  0  0  0
    5.2787   19.2407   36.0541 N   0  0  0  0  0  0  0  0  0  0  0  0
    1.7396   19.5489   35.2984 C   0  0  2  0  0  0  0  0  0  0  0  0
    0.4977   13.0088   37.4749 C   0  0  2  0  0  0  0  0  0  0  0  0
   -0.3282   13.9149   38.2658 N   0  0  0  0  0  0  0  0  0  0  0  0
    5.0851   17.1907   37.3750 C   0  0  0  0  0  0  0  0  0  0  0  0
    1.1224   20.3402   34.0967 C   0  0  2  0  0  0  0  0  0  0  0  0
    0.6996   19.4166   33.1162 O   0  0  0  0  0  0  0  0  0  0  0  0
    1.3427   12.0581   38.4002 C   0  0  0  0  0  0  0  0  0  0  0  0
    4.0098   16.1980   37.9801 C   0  0  2  0  0  0  0  0  0  0  0  0
    4.7015   15.1395   38.7169 N   0  0  0  0  0  0  0  0  0  0  0  0
    2.2200   21.3064   33.5193 C   0  0  1  0  0  0  0  0  0  0  0  0
    1.6603   22.0667   32.3561 N   0  0  0  0  0  0  0  0  0  0  0  0
    2.5717   11.4218   37.6252 C   0  0  0  0  0  0  0  0  0  0  0  0
    3.1655   15.5718   36.7961 C   0  0  2  0  0  0  0  0  0  0  0  0
    2.6632   22.3528   34.6841 C   0  0  1  0  0  0  0  0  0  0  0  0
    1.5932   23.1489   35.1537 O   0  0  0  0  0  0  0  0  0  0  0  0
    2.9572   11.8918   36.4140 C   0  0  1  0  0  0  0  0  0  0  0  0
    2.3052   12.9698   35.7484 O   0  0  0  0  0  0  0  0  0  0  0  0
    2.4209   16.7248   36.0026 C   0  0  2  0  0  0  0  0  0  0  0  0
    1.6665   16.1467   34.9177 O   0  0  0  0  0  0  0  0  0  0  0  0
    3.2393   21.5567   35.8932 C   0  0  0  0  0  0  0  0  0  0  0  0
    2.2321   20.5192   36.3584 O   0  0  0  0  0  0  0  0  0  0  0  0
    4.1253   11.3189   35.6474 C   0  0  0  0  0  0  0  0  0  0  0  0
    3.5803   10.7256   34.4491 O   0  0  0  0  0  0  0  0  0  0  0  0
    3.4928   17.7157   35.4074 C   0  0  1  0  0  0  0  0  0  0  0  0
    2.8096   18.7307   34.7147 O   0  0  0  0  0  0  0  0  0  0  0  0
    3.7430   23.3574   34.2616 C   0  0  0  0  0  0  0  0  0  0  0  0
    0.3534   22.7219   32.5710 C   0  0  0  0  0  0  0  0  0  0  0  0
  1  2  1  1  0  0  0
  1  6  1  0  0  0  0
  1 21  1  0  0  0  0
  3  4  1  6  0  0  0
  3  8  1  0  0  0  0
  3 28  1  0  0  0  0
  5  9  1  0  0  0  0
  5 25  1  0  0  0  0
  5 29  1  6  0  0  0
  6  7  1  1  0  0  0
  6 11  1  0  0  0  0
  8 12  1  0  0  0  0
  9 10  1  6  0  0  0
  9 14  1  0  0  0  0
 11 16  1  0  0  0  0
 12 13  1  6  0  0  0
 12 17  1  0  0  0  0
 14 15  1  6  0  0  0
 14 18  1  0  0  0  0
 15 31  1  0  0  0  0
 16 20  1  0  0  0  0
 17  2  1  1  0  0  0
 17 22  1  0  0  0  0
 18 19  1  1  0  0  0
 18 24  1  0  0  0  0
 18 30  1  0  0  0  0
 20 21  1  0  0  0  0
 20 26  1  1  0  0  0
 22 23  1  6  0  0  0
 22 28  1  0  0  0  0
 24 25  1  0  0  0  0
 26 27  1  0  0  0  0
 28 29  1  1  0  0  0
M  END
>  <CHROM.1>
179.46249989,-170.02806532,49.61894513,-171.04508341,114.75329319,-65.04413529
2.53049597,17.20897498,35.76696798,1.52267439,0.67056288,2.89359393

>  <Name>
ligand

>  <RI>
0

>  <Rbt.Current_Directory>
/home/itssahil/PROJECTS/Mol_Feturizer/New_Systems/rnas/4GPY

>  <Rbt.Executable>
rbdock ($Id: //depot/dev/client3/rdock/2013.1/src/exe/rbdock.cxx#4 $)

>  <Rbt.Library>
libRbt.so (2013.1, Build901 2013/11/27)

>  <Rbt.Parameter_File>
/export/apps/rDock/src/rDock_2013.1_src/data/scripts/dock_solv.prm

>  <Rbt.Receptor>
prm/pocket_docking_8.prm

>  <SCORE>
-13.6883

>  <SCORE.INTER>
-10.7741

>  <SCORE.INTER.CONST>
1

>  <SCORE.INTER.POLAR>
0

>  <SCORE.INTER.ROT>
6

>  <SCORE.INTER.SOLV>
15.676

>  <SCORE.INTER.VDW>
-20.0081

>  <SCORE.INTER.norm>
-0.347552

>  <SCORE.INTRA>
-2.9142

>  <SCORE.INTRA.DIHEDRAL>
-11.8936

>  <SCORE.INTRA.DIHEDRAL.0>
14.7001

>  <SCORE.INTRA.POLAR>
0

>  <SCORE.INTRA.POLAR.0>
0

>  <SCORE.INTRA.REPUL>
0

>  <SCORE.INTRA.REPUL.0>
0

>  <SCORE.INTRA.SOLV>
-0.178135

>  <SCORE.INTRA.SOLV.lig_0>
-65.3082

>  <SCORE.INTRA.VDW>
3.12169

>  <SCORE.INTRA.VDW.0>
-4.21408

>  <SCORE.INTRA.norm>
-0.0940064

>  <SCORE.RESTR>
0

>  <SCORE.RESTR.CAVITY>
0

>  <SCORE.RESTR.norm>
0

>  <SCORE.SYSTEM>
0

>  <SCORE.SYSTEM.CONST>
0

>  <SCORE.SYSTEM.DIHEDRAL>
0

>  <SCORE.SYSTEM.SOLV>
0

>  <SCORE.SYSTEM.norm>
0

>  <SCORE.heavy>
31

>  <SCORE.norm>
-0.441559

>  <RMSD>
9.658

$$$$
ligand
 OpenBabel11021811493D
libRbt.so/2013.1/901 2013/11/27
 31 33  0  0  0  0  0  0  0  0999 V2000
    3.0058   15.8163   37.2174 C   0  0  2  0  0  0  0  0  0  0  0  0
    3.3090   16.5517   36.0475 O   0  0  0  0  0  0  0  0  0  0  0  0
    5.1949   20.1485   37.2993 C   0  0  2  0  0  0  0  0  0  0  0  0
    6.1430   21.2085   37.3640 N   0  0  0  0  0  0  0  0  0  0  0  0
    3.5759   21.8846   34.3162 C   0  0  2  0  0  0  0  0  0  0  0  0
    2.2757   14.4728   36.7816 C   0  0  2  0  0  0  0  0  0  0  0  0
    3.1443   13.7279   35.8764 N   0  0  0  0  0  0  0  0  0  0  0  0
    5.9628   18.7766   37.5599 C   0  0  0  0  0  0  0  0  0  0  0  0
    2.4705   22.9697   34.5442 C   0  0  2  0  0  0  0  0  0  0  0  0
    2.9469   23.9107   35.4826 O   0  0  0  0  0  0  0  0  0  0  0  0
    0.8911   14.7901   36.1061 C   0  0  0  0  0  0  0  0  0  0  0  0
    4.9050   17.5994   37.5041 C   0  0  2  0  0  0  0  0  0  0  0  0
    5.5920   16.3309   37.7505 N   0  0  0  0  0  0  0  0  0  0  0  0
    1.1739   22.2568   35.0751 C   0  0  1  0  0  0  0  0  0  0  0  0
    0.1022   23.2755   35.3171 N   0  0  0  0  0  0  0  0  0  0  0  0
    0.1352   15.9752   36.8410 C   0  0  0  0  0  0  0  0  0  0  0  0
    4.2316   17.5818   36.0712 C   0  0  2  0  0  0  0  0  0  0  0  0
    0.6634   21.1933   33.9542 C   0  0  1  0  0  0  0  0  0  0  0  0
    0.3454   21.7986   32.7166 O   0  0  0  0  0  0  0  0  0  0  0  0
    0.7709   16.7596   37.7449 C   0  0  1  0  0  0  0  0  0  0  0  0
    2.1387   16.5889   38.1055 O   0  0  0  0  0  0  0  0  0  0  0  0
    3.4911   18.9595   35.8118 C   0  0  2  0  0  0  0  0  0  0  0  0
    2.8934   18.9399   34.4993 O   0  0  0  0  0  0  0  0  0  0  0  0
    1.7834   20.1398   33.7027 C   0  0  0  0  0  0  0  0  0  0  0  0
    3.0796   20.8395   33.3318 O   0  0  0  0  0  0  0  0  0  0  0  0
    0.0895   17.9016   38.4604 C   0  0  0  0  0  0  0  0  0  0  0  0
   -0.4251   17.3639   39.6977 O   0  0  0  0  0  0  0  0  0  0  0  0
    4.5447   20.1304   35.8752 C   0  0  1  0  0  0  0  0  0  0  0  0
    3.8648   21.3401   35.6485 O   0  0  0  0  0  0  0  0  0  0  0  0
   -0.5984   20.4124   34.3440 C   0  0  0  0  0  0  0  0  0  0  0  0
   -0.6540   23.1418   36.5795 C   0  0  0  0  0  0  0  0  0  0  0  0
  1  2  1  6  0  0  0
  1  6  1  0  0  0  0
  1 21  1  0  0  0  0
  3  4  1  6  0  0  0
  3  8  1  0  0  0  0
  3 28  1  0  0  0  0
  5  9  1  0  0  0  0
  5 25  1  0  0  0  0
  5 29  1  1  0  0  0
  6  7  1  6  0  0  0
  6 11  1  0  0  0  0
  8 12  1  0  0  0  0
  9 10  1  1  0  0  0
  9 14  1  0  0  0  0
 11 16  1  0  0  0  0
 12 13  1  6  0  0  0
 12 17  1  0  0  0  0
 14 15  1  6  0  0  0
 14 18  1  0  0  0  0
 15 31  1  0  0  0  0
 16 20  1  0  0  0  0
 17  2  1  1  0  0  0
 17 22  1  0  0  0  0
 18 19  1  6  0  0  0
 18 24  1  0  0  0  0
 18 30  1  0  0  0  0
 20 21  1  0  0  0  0
 20 26  1  6  0  0  0
 22 23  1  6  0  0  0
 22 28  1  0  0  0  0
 24 25  1  0  0  0  0
 26 27  1  0  0  0  0
 28 29  1  1  0  0  0
M  END
>  <CHROM.1>
-163.32469058,163.60324363,-135.55081081,6.35470119,92.43166840,156.30305265
2.45244663,19.14851805,36.04249330,-1.45047125,-0.09944697,-0.36020752

>  <Name>
ligand

>  <RI>
0

>  <Rbt.Current_Directory>
/home/itssahil/PROJECTS/Mol_Feturizer/New_Systems/rnas/4GPY

>  <Rbt.Executable>
rbdock ($Id: //depot/dev/client3/rdock/2013.1/src/exe/rbdock.cxx#4 $)

>  <Rbt.Library>
libRbt.so (2013.1, Build901 2013/11/27)

>  <Rbt.Parameter_File>
/export/apps/rDock/src/rDock_2013.1_src/data/scripts/dock_solv.prm

>  <Rbt.Receptor>
prm/blind_docking_60.prm

>  <SCORE>
40.0722

>  <SCORE.INTER>
0.877181

>  <SCORE.INTER.CONST>
1

>  <SCORE.INTER.POLAR>
0

>  <SCORE.INTER.ROT>
6

>  <SCORE.INTER.SOLV>
24.2044

>  <SCORE.INTER.VDW>
-15.0833

>  <SCORE.INTER.norm>
0.0282962

>  <SCORE.INTRA>
23.6345

>  <SCORE.INTRA.DIHEDRAL>
0.800525

>  <SCORE.INTRA.DIHEDRAL.0>
14.7001

>  <SCORE.INTRA.POLAR>
0

>  <SCORE.INTRA.POLAR.0>
0

>  <SCORE.INTRA.REPUL>
0

>  <SCORE.INTRA.REPUL.0>
0

>  <SCORE.INTRA.SOLV>
0.106286

>  <SCORE.INTRA.SOLV.lig_0>
-65.3082

>  <SCORE.INTRA.VDW>
23.1811

>  <SCORE.INTRA.VDW.0>
-4.21408

>  <SCORE.INTRA.norm>
0.762403

>  <SCORE.RESTR>
15.5605

>  <SCORE.RESTR.CAVITY>
15.5605

>  <SCORE.RESTR.norm>
0.501952

>  <SCORE.SYSTEM>
0

>  <SCORE.SYSTEM.CONST>
0

>  <SCORE.SYSTEM.DIHEDRAL>
0

>  <SCORE.SYSTEM.SOLV>
0

>  <SCORE.SYSTEM.norm>
0

>  <SCORE.heavy>
31

>  <SCORE.norm>
1.29265

>  <RMSD>
9.697

$$$$
ligand
 OpenBabel11021811493D
libRbt.so/2013.1/901 2013/11/27
 31 33  0  0  0  0  0  0  0  0999 V2000
    0.1911   16.7220   37.1961 C   0  0  2  0  0  0  0  0  0  0  0  0
    1.5450   16.7104   37.6061 O   0  0  0  0  0  0  0  0  0  0  0  0
    4.8850   18.9791   36.2804 C   0  0  2  0  0  0  0  0  0  0  0  0
    5.9434   19.4378   35.4460 N   0  0  0  0  0  0  0  0  0  0  0  0
    3.1827   21.1689   33.9748 C   0  0  2  0  0  0  0  0  0  0  0  0
   -0.7118   16.3889   38.4618 C   0  0  2  0  0  0  0  0  0  0  0  0
   -0.4484   17.3699   39.5091 N   0  0  0  0  0  0  0  0  0  0  0  0
    5.1031   17.4241   36.5523 C   0  0  0  0  0  0  0  0  0  0  0  0
    2.4178   22.5159   34.2026 C   0  0  2  0  0  0  0  0  0  0  0  0
    3.1443   23.2981   35.1266 O   0  0  0  0  0  0  0  0  0  0  0  0
   -0.4324   14.9270   38.9707 C   0  0  0  0  0  0  0  0  0  0  0  0
    3.9348   16.9180   37.4939 C   0  0  2  0  0  0  0  0  0  0  0  0
    4.1242   15.4918   37.7618 N   0  0  0  0  0  0  0  0  0  0  0  0
    0.9826   22.1875   34.7538 C   0  0  1  0  0  0  0  0  0  0  0  0
    0.2323   23.4614   34.9959 N   0  0  0  0  0  0  0  0  0  0  0  0
   -0.2374   13.9118   37.7677 C   0  0  0  0  0  0  0  0  0  0  0  0
    2.5492   17.1533   36.7646 C   0  0  2  0  0  0  0  0  0  0  0  0
    0.1877   21.2955   33.6490 C   0  0  1  0  0  0  0  0  0  0  0  0
    0.0314   21.9556   32.4084 O   0  0  0  0  0  0  0  0  0  0  0  0
   -0.0618   14.3530   36.4984 C   0  0  1  0  0  0  0  0  0  0  0  0
   -0.0408   15.7330   36.1446 O   0  0  0  0  0  0  0  0  0  0  0  0
    2.3527   18.7000   36.4769 C   0  0  2  0  0  0  0  0  0  0  0  0
    1.0955   18.9031   35.7997 O   0  0  0  0  0  0  0  0  0  0  0  0
    0.9749   19.9747   33.3971 C   0  0  0  0  0  0  0  0  0  0  0  0
    2.4081   20.2917   33.0062 O   0  0  0  0  0  0  0  0  0  0  0  0
    0.1343   13.4201   35.3272 C   0  0  0  0  0  0  0  0  0  0  0  0
    1.4197   13.7430   34.7543 O   0  0  0  0  0  0  0  0  0  0  0  0
    3.5209   19.2031   35.5455 C   0  0  1  0  0  0  0  0  0  0  0  0
    3.3287   20.5759   35.3097 O   0  0  0  0  0  0  0  0  0  0  0  0
   -1.2342   20.8909   34.0594 C   0  0  0  0  0  0  0  0  0  0  0  0
    0.2356   24.4424   33.8909 C   0  0  0  0  0  0  0  0  0  0  0  0
  1  2  1  1  0  0  0
  1  6  1  0  0  0  0
  1 21  1  0  0  0  0
  3  4  1  6  0  0  0
  3  8  1  0  0  0  0
  3 28  1  0  0  0  0
  5  9  1  0  0  0  0
  5 25  1  0  0  0  0
  5 29  1  1  0  0  0
  6  7  1  1  0  0  0
  6 11  1  0  0  0  0
  8 12  1  0  0  0  0
  9 10  1  1  0  0  0
  9 14  1  0  0  0  0
 11 16  1  0  0  0  0
 12 13  1  6  0  0  0
 12 17  1  0  0  0  0
 14 15  1  6  0  0  0
 14 18  1  0  0  0  0
 15 31  1  0  0  0  0
 16 20  1  0  0  0  0
 17  2  1  1  0  0  0
 17 22  1  0  0  0  0
 18 19  1  6  0  0  0
 18 24  1  0  0  0  0
 18 30  1  0  0  0  0
 20 21  1  0  0  0  0
 20 26  1  1  0  0  0
 22 23  1  6  0  0  0
 22 28  1  0  0  0  0
 24 25  1  0  0  0  0
 26 27  1  0  0  0  0
 28 29  1  1  0  0  0
M  END
>  <CHROM.1>
-170.63162793,156.84226951,49.20783318,-176.43053941,-120.20585900,119.35267714
1.62130097,18.64802137,35.74309831,1.65889374,0.10012511,2.72055487

>  <Name>
ligand

>  <RI>
0

>  <Rbt.Current_Directory>
/home/itssahil/PROJECTS/Mol_Feturizer/New_Systems/rnas/4GPY

>  <Rbt.Executable>
rbdock ($Id: //depot/dev/client3/rdock/2013.1/src/exe/rbdock.cxx#4 $)

>  <Rbt.Library>
libRbt.so (2013.1, Build901 2013/11/27)

>  <Rbt.Parameter_File>
/export/apps/rDock/src/rDock_2013.1_src/data/scripts/dock_solv.prm

>  <Rbt.Receptor>
prm/blind_docking_60.prm

>  <SCORE>
22.226

>  <SCORE.INTER>
0.81534

>  <SCORE.INTER.CONST>
1

>  <SCORE.INTER.POLAR>
0

>  <SCORE.INTER.ROT>
6

>  <SCORE.INTER.SOLV>
20.304

>  <SCORE.INTER.VDW>
-13.8244

>  <SCORE.INTER.norm>
0.0263013

>  <SCORE.INTRA>
1.7908

>  <SCORE.INTRA.DIHEDRAL>
-2.90872

>  <SCORE.INTRA.DIHEDRAL.0>
14.7001

>  <SCORE.INTRA.POLAR>
0

>  <SCORE.INTRA.POLAR.0>
0

>  <SCORE.INTRA.REPUL>
0

>  <SCORE.INTRA.REPUL.0>
0

>  <SCORE.INTRA.SOLV>
-1.59061

>  <SCORE.INTRA.SOLV.lig_0>
-65.3082

>  <SCORE.INTRA.VDW>
4.04046

>  <SCORE.INTRA.VDW.0>
-4.21408

>  <SCORE.INTRA.norm>
0.0577676

>  <SCORE.RESTR>
19.6199

>  <SCORE.RESTR.CAVITY>
19.6199

>  <SCORE.RESTR.norm>
0.6329

>  <SCORE.SYSTEM>
0

>  <SCORE.SYSTEM.CONST>
0

>  <SCORE.SYSTEM.DIHEDRAL>
0

>  <SCORE.SYSTEM.SOLV>
0

>  <SCORE.SYSTEM.norm>
0

>  <SCORE.heavy>
31

>  <SCORE.norm>
0.716969

>  <RMSD>
9.721

$$$$
ligand
 OpenBabel11021811493D
libRbt.so/2013.1/901 2013/11/27
 31 33  0  0  0  0  0  0  0  0999 V2000
    2.4466   14.9070   36.7110 C   0  0  2  0  0  0  0  0  0  0  0  0
    2.3758   16.2886   37.0070 O   0  0  0  0  0  0  0  0  0  0  0  0
    3.8382   20.0463   35.6650 C   0  0  2  0  0  0  0  0  0  0  0  0
    4.4064   21.0312   34.8082 N   0  0  0  0  0  0  0  0  0  0  0  0
    1.7433   21.6901   33.9621 C   0  0  2  0  0  0  0  0  0  0  0  0
    1.4091   14.1471   37.6460 C   0  0  2  0  0  0  0  0  0  0  0  0
    0.0735   14.6882   37.4178 N   0  0  0  0  0  0  0  0  0  0  0  0
    4.8824   18.8513   35.8115 C   0  0  0  0  0  0  0  0  0  0  0  0
    0.7603   22.7957   34.4744 C   0  0  2  0  0  0  0  0  0  0  0  0
    1.0765   23.0953   35.8173 O   0  0  0  0  0  0  0  0  0  0  0  0
    1.8250   14.2817   39.1569 C   0  0  0  0  0  0  0  0  0  0  0  0
    4.2568   17.7636   36.7776 C   0  0  2  0  0  0  0  0  0  0  0  0
    5.2071   16.6613   36.9310 N   0  0  0  0  0  0  0  0  0  0  0  0
   -0.7096   22.2511   34.3536 C   0  0  1  0  0  0  0  0  0  0  0  0
   -1.6724   23.2849   34.8523 N   0  0  0  0  0  0  0  0  0  0  0  0
    3.3952   14.1638   39.3482 C   0  0  0  0  0  0  0  0  0  0  0  0
    2.9064   17.2311   36.1452 C   0  0  2  0  0  0  0  0  0  0  0  0
   -1.0240   21.9321   32.7892 C   0  0  1  0  0  0  0  0  0  0  0  0
   -0.9169   23.0699   31.9565 O   0  0  0  0  0  0  0  0  0  0  0  0
    4.2381   14.2257   38.2888 C   0  0  1  0  0  0  0  0  0  0  0  0
    3.7959   14.3950   36.9449 O   0  0  0  0  0  0  0  0  0  0  0  0
    1.8835   18.4313   35.9811 C   0  0  2  0  0  0  0  0  0  0  0  0
    0.6625   17.9398   35.3912 O   0  0  0  0  0  0  0  0  0  0  0  0
   -0.0167   20.8607   32.2743 C   0  0  0  0  0  0  0  0  0  0  0  0
    1.4076   21.3245   32.5263 O   0  0  0  0  0  0  0  0  0  0  0  0
    5.7382   14.1249   38.4291 C   0  0  0  0  0  0  0  0  0  0  0  0
    5.9926   13.5509   39.7294 O   0  0  0  0  0  0  0  0  0  0  0  0
    2.5114   19.5161   35.0250 C   0  0  1  0  0  0  0  0  0  0  0  0
    1.5903   20.5710   34.8998 O   0  0  0  0  0  0  0  0  0  0  0  0
   -2.4305   21.3812   32.5208 C   0  0  0  0  0  0  0  0  0  0  0  0
   -1.5557   24.6304   34.2528 C   0  0  0  0  0  0  0  0  0  0  0  0
  1  2  1  1  0  0  0
  1  6  1  0  0  0  0
  1 21  1  0  0  0  0
  3  4  1  6  0  0  0
  3  8  1  0  0  0  0
  3 28  1  0  0  0  0
  5  9  1  0  0  0  0
  5 25  1  0  0  0  0
  5 29  1  1  0  0  0
  6  7  1  1  0  0  0
  6 11  1  0  0  0  0
  8 12  1  0  0  0  0
  9 10  1  1  0  0  0
  9 14  1  0  0  0  0
 11 16  1  0  0  0  0
 12 13  1  6  0  0  0
 12 17  1  0  0  0  0
 14 15  1  6  0  0  0
 14 18  1  0  0  0  0
 15 31  1  0  0  0  0
 16 20  1  0  0  0  0
 17  2  1  1  0  0  0
 17 22  1  0  0  0  0
 18 19  1  6  0  0  0
 18 24  1  0  0  0  0
 18 30  1  0  0  0  0
 20 21  1  0  0  0  0
 20 26  1  1  0  0  0
 22 23  1  6  0  0  0
 22 28  1  0  0  0  0
 24 25  1  0  0  0  0
 26 27  1  0  0  0  0
 28 29  1  1  0  0  0
M  END
>  <CHROM.1>
-163.86213812,-163.05639678,53.12179243,-104.97691356,17.71391059,69.37434259
1.92720542,18.69578624,35.72950630,1.13384420,0.17316105,2.69821095

>  <Name>
ligand

>  <RI>
0

>  <Rbt.Current_Directory>
/home/itssahil/PROJECTS/Mol_Feturizer/New_Systems/rnas/4GPY

>  <Rbt.Executable>
rbdock ($Id: //depot/dev/client3/rdock/2013.1/src/exe/rbdock.cxx#4 $)

>  <Rbt.Library>
libRbt.so (2013.1, Build901 2013/11/27)

>  <Rbt.Parameter_File>
/export/apps/rDock/src/rDock_2013.1_src/data/scripts/dock_solv.prm

>  <Rbt.Receptor>
prm/pocket_docking_7.prm

>  <SCORE>
-8.56738

>  <SCORE.INTER>
-12.1192

>  <SCORE.INTER.CONST>
1

>  <SCORE.INTER.POLAR>
0

>  <SCORE.INTER.ROT>
6

>  <SCORE.INTER.SOLV>
15.3463

>  <SCORE.INTER.VDW>
-20.7949

>  <SCORE.INTER.norm>
-0.390943

>  <SCORE.INTRA>
3.55185

>  <SCORE.INTRA.DIHEDRAL>
-3.48584

>  <SCORE.INTRA.DIHEDRAL.0>
14.7001

>  <SCORE.INTRA.POLAR>
0

>  <SCORE.INTRA.POLAR.0>
0

>  <SCORE.INTRA.REPUL>
0

>  <SCORE.INTRA.REPUL.0>
0

>  <SCORE.INTRA.SOLV>
2.70985

>  <SCORE.INTRA.SOLV.lig_0>
-65.3082

>  <SCORE.INTRA.VDW>
3.93985

>  <SCORE.INTRA.VDW.0>
-4.21408

>  <SCORE.INTRA.norm>
0.114576

>  <SCORE.RESTR>
0

>  <SCORE.RESTR.CAVITY>
0

>  <SCORE.RESTR.norm>
0

>  <SCORE.SYSTEM>
0

>  <SCORE.SYSTEM.CONST>
0

>  <SCORE.SYSTEM.DIHEDRAL>
0

>  <SCORE.SYSTEM.SOLV>
0

>  <SCORE.SYSTEM.norm>
0

>  <SCORE.heavy>
31

>  <SCORE.norm>
-0.276367

>  <RMSD>
9.819

$$$$
ligand
 OpenBabel11021811493D
libRbt.so/2013.1/901 2013/11/27
 31 33  0  0  0  0  0  0  0  0999 V2000
    2.6419   16.3996   37.3802 C   0  0  2  0  0  0  0  0  0  0  0  0
    2.5122   16.9913   36.1018 O   0  0  0  0  0  0  0  0  0  0  0  0
    4.2570   20.8088   36.7672 C   0  0  2  0  0  0  0  0  0  0  0  0
    4.9059   22.0473   36.4991 N   0  0  0  0  0  0  0  0  0  0  0  0
    1.5105   22.8330   35.5332 C   0  0  2  0  0  0  0  0  0  0  0  0
    2.4110   14.8341   37.2263 C   0  0  2  0  0  0  0  0  0  0  0  0
    3.3786   14.2988   36.2746 N   0  0  0  0  0  0  0  0  0  0  0  0
    5.2114   19.6301   36.2780 C   0  0  0  0  0  0  0  0  0  0  0  0
    0.5503   22.0747   34.5563 C   0  0  2  0  0  0  0  0  0  0  0  0
   -0.4052   21.3682   35.3186 O   0  0  0  0  0  0  0  0  0  0  0  0
    0.9371   14.5354   36.7652 C   0  0  0  0  0  0  0  0  0  0  0  0
    4.4964   18.2524   36.5913 C   0  0  2  0  0  0  0  0  0  0  0  0
    5.3637   17.1569   36.1561 N   0  0  0  0  0  0  0  0  0  0  0  0
    1.4065   21.0897   33.6799 C   0  0  1  0  0  0  0  0  0  0  0  0
    0.5094   20.3381   32.7445 N   0  0  0  0  0  0  0  0  0  0  0  0
   -0.1088   15.4882   37.4823 C   0  0  0  0  0  0  0  0  0  0  0  0
    3.1208   18.1983   35.8091 C   0  0  2  0  0  0  0  0  0  0  0  0
    2.4816   21.9545   32.8171 C   0  0  1  0  0  0  0  0  0  0  0  0
    1.8742   22.8882   31.9461 O   0  0  0  0  0  0  0  0  0  0  0  0
    0.2962   16.5819   38.1725 C   0  0  1  0  0  0  0  0  0  0  0  0
    1.6633   16.9583   38.3119 O   0  0  0  0  0  0  0  0  0  0  0  0
    2.1882   19.3888   36.2852 C   0  0  2  0  0  0  0  0  0  0  0  0
    0.9439   19.3402   35.5572 O   0  0  0  0  0  0  0  0  0  0  0  0
    3.4082   22.7380   33.7944 C   0  0  0  0  0  0  0  0  0  0  0  0
    2.5700   23.5797   34.7411 O   0  0  0  0  0  0  0  0  0  0  0  0
   -0.6674   17.5175   38.8627 C   0  0  0  0  0  0  0  0  0  0  0  0
   -1.0280   16.8894   40.1118 O   0  0  0  0  0  0  0  0  0  0  0  0
    2.9052   20.7589   35.9790 C   0  0  1  0  0  0  0  0  0  0  0  0
    2.0632   21.7973   36.4146 O   0  0  0  0  0  0  0  0  0  0  0  0
    3.3978   21.1164   31.9159 C   0  0  0  0  0  0  0  0  0  0  0  0
   -0.5027   21.1387   32.0247 C   0  0  0  0  0  0  0  0  0  0  0  0
  1  2  1  6  0  0  0
  1  6  1  0  0  0  0
  1 21  1  0  0  0  0
  3  4  1  6  0  0  0
  3  8  1  0  0  0  0
  3 28  1  0  0  0  0
  5  9  1  0  0  0  0
  5 25  1  0  0  0  0
  5 29  1  1  0  0  0
  6  7  1  6  0  0  0
  6 11  1  0  0  0  0
  8 12  1  0  0  0  0
  9 10  1  1  0  0  0
  9 14  1  0  0  0  0
 11 16  1  0  0  0  0
 12 13  1  6  0  0  0
 12 17  1  0  0  0  0
 14 15  1  6  0  0  0
 14 18  1  0  0  0  0
 15 31  1  0  0  0  0
 16 20  1  0  0  0  0
 17  2  1  1  0  0  0
 17 22  1  0  0  0  0
 18 19  1  6  0  0  0
 18 24  1  0  0  0  0
 18 30  1  0  0  0  0
 20 21  1  0  0  0  0
 20 26  1  6  0  0  0
 22 23  1  6  0  0  0
 22 28  1  0  0  0  0
 24 25  1  0  0  0  0
 26 27  1  0  0  0  0
 28 29  1  1  0  0  0
M  END
>  <CHROM.1>
-155.73884288,65.46877369,45.71191068,34.66149183,80.00730681,122.22389032
2.03339729,19.34524473,35.74171528,-1.66078372,0.05158816,-0.57036110

>  <Name>
ligand

>  <RI>
0

>  <Rbt.Current_Directory>
/home/itssahil/PROJECTS/Mol_Feturizer/New_Systems/rnas/4GPY

>  <Rbt.Executable>
rbdock ($Id: //depot/dev/client3/rdock/2013.1/src/exe/rbdock.cxx#4 $)

>  <Rbt.Library>
libRbt.so (2013.1, Build901 2013/11/27)

>  <Rbt.Parameter_File>
/export/apps/rDock/src/rDock_2013.1_src/data/scripts/dock_solv.prm

>  <Rbt.Receptor>
prm/blind_docking_60.prm

>  <SCORE>
36.0728

>  <SCORE.INTER>
9.11724

>  <SCORE.INTER.CONST>
1

>  <SCORE.INTER.POLAR>
0

>  <SCORE.INTER.ROT>
6

>  <SCORE.INTER.SOLV>
26.0715

>  <SCORE.INTER.VDW>
-10.2124

>  <SCORE.INTER.norm>
0.294104

>  <SCORE.INTRA>
8.97471

>  <SCORE.INTRA.DIHEDRAL>
1.15918

>  <SCORE.INTRA.DIHEDRAL.0>
14.7001

>  <SCORE.INTRA.POLAR>
0

>  <SCORE.INTRA.POLAR.0>
0

>  <SCORE.INTRA.REPUL>
0

>  <SCORE.INTRA.REPUL.0>
0

>  <SCORE.INTRA.SOLV>
3.67564

>  <SCORE.INTRA.SOLV.lig_0>
-65.3082

>  <SCORE.INTRA.VDW>
6.5573

>  <SCORE.INTRA.VDW.0>
-4.21408

>  <SCORE.INTRA.norm>
0.289507

>  <SCORE.RESTR>
17.9809

>  <SCORE.RESTR.CAVITY>
17.9809

>  <SCORE.RESTR.norm>
0.580028

>  <SCORE.SYSTEM>
0

>  <SCORE.SYSTEM.CONST>
0

>  <SCORE.SYSTEM.DIHEDRAL>
0

>  <SCORE.SYSTEM.SOLV>
0

>  <SCORE.SYSTEM.norm>
0

>  <SCORE.heavy>
31

>  <SCORE.norm>
1.16364

>  <RMSD>
9.834

$$$$
ligand
 OpenBabel11021811493D
libRbt.so/2013.1/901 2013/11/27
 31 33  0  0  0  0  0  0  0  0999 V2000
    2.4977   16.4398   37.4584 C   0  0  2  0  0  0  0  0  0  0  0  0
    2.3240   17.0377   36.1882 O   0  0  0  0  0  0  0  0  0  0  0  0
    4.2634   20.7799   36.7311 C   0  0  2  0  0  0  0  0  0  0  0  0
    4.9611   21.9816   36.4211 N   0  0  0  0  0  0  0  0  0  0  0  0
    1.5634   22.8992   35.5358 C   0  0  2  0  0  0  0  0  0  0  0  0
    2.3695   14.8645   37.2852 C   0  0  2  0  0  0  0  0  0  0  0  0
    3.3661   14.4060   36.3234 N   0  0  0  0  0  0  0  0  0  0  0  0
    5.1471   19.5492   36.2369 C   0  0  0  0  0  0  0  0  0  0  0  0
    0.5796   22.1463   34.5785 C   0  0  2  0  0  0  0  0  0  0  0  0
   -0.3789   21.4647   35.3595 O   0  0  0  0  0  0  0  0  0  0  0  0
    0.9164   14.4754   36.8255 C   0  0  0  0  0  0  0  0  0  0  0  0
    4.3783   18.2124   36.5966 C   0  0  2  0  0  0  0  0  0  0  0  0
    5.1804   17.0698   36.1575 N   0  0  0  0  0  0  0  0  0  0  0  0
    1.4091   21.1370   33.7040 C   0  0  1  0  0  0  0  0  0  0  0  0
    0.4889   20.3903   32.7874 N   0  0  0  0  0  0  0  0  0  0  0  0
   -0.1867   15.3483   37.5584 C   0  0  0  0  0  0  0  0  0  0  0  0
    2.9792   18.2094   35.8554 C   0  0  2  0  0  0  0  0  0  0  0  0
    2.4888   21.9736   32.8194 C   0  0  1  0  0  0  0  0  0  0  0  0
    1.8874   22.9075   31.9445 O   0  0  0  0  0  0  0  0  0  0  0  0
    0.1486   16.4575   38.2612 C   0  0  1  0  0  0  0  0  0  0  0  0
    1.4886   16.9211   38.4006 O   0  0  0  0  0  0  0  0  0  0  0  0
    2.1174   19.4506   36.3355 C   0  0  2  0  0  0  0  0  0  0  0  0
    0.8513   19.4479   35.6446 O   0  0  0  0  0  0  0  0  0  0  0  0
    3.4395   22.7523   33.7772 C   0  0  0  0  0  0  0  0  0  0  0  0
    2.6264   23.6187   34.7235 O   0  0  0  0  0  0  0  0  0  0  0  0
   -0.8714   17.3190   38.9667 C   0  0  0  0  0  0  0  0  0  0  0  0
   -0.4824   17.3633   40.3565 O   0  0  0  0  0  0  0  0  0  0  0  0
    2.8881   20.7798   35.9831 C   0  0  1  0  0  0  0  0  0  0  0  0
    2.1086   21.8643   36.4229 O   0  0  0  0  0  0  0  0  0  0  0  0
    3.3804   21.1099   31.9178 C   0  0  0  0  0  0  0  0  0  0  0  0
   -0.5078   21.2016   32.0583 C   0  0  0  0  0  0  0  0  0  0  0  0
  1  2  1  6  0  0  0
  1  6  1  0  0  0  0
  1 21  1  0  0  0  0
  3  4  1  6  0  0  0
  3  8  1  0  0  0  0
  3 28  1  0  0  0  0
  5  9  1  0  0  0  0
  5 25  1  0  0  0  0
  5 29  1  1  0  0  0
  6  7  1  6  0  0  0
  6 11  1  0  0  0  0
  8 12  1  0  0  0  0
  9 10  1  1  0  0  0
  9 14  1  0  0  0  0
 11 16  1  0  0  0  0
 12 13  1  6  0  0  0
 12 17  1  0  0  0  0
 14 15  1  6  0  0  0
 14 18  1  0  0  0  0
 15 31  1  0  0  0  0
 16 20  1  0  0  0  0
 17  2  1  1  0  0  0
 17 22  1  0  0  0  0
 18 19  1  6  0  0  0
 18 24  1  0  0  0  0
 18 30  1  0  0  0  0
 20 21  1  0  0  0  0
 20 26  1  6  0  0  0
 22 23  1  6  0  0  0
 22 28  1  0  0  0  0
 24 25  1  0  0  0  0
 26 27  1  0  0  0  0
 28 29  1  1  0  0  0
M  END
>  <CHROM.1>
-148.05863882,63.07618669,46.36748746,32.58823544,122.80176396,123.09968046
2.00793815,19.36727776,35.77905070,-1.66630277,0.07664359,-0.57627632

>  <Name>
ligand

>  <RI>
0

>  <Rbt.Current_Directory>
/home/itssahil/PROJECTS/Mol_Feturizer/New_Systems/rnas/4GPY

>  <Rbt.Executable>
rbdock ($Id: //depot/dev/client3/rdock/2013.1/src/exe/rbdock.cxx#4 $)

>  <Rbt.Library>
libRbt.so (2013.1, Build901 2013/11/27)

>  <Rbt.Parameter_File>
/export/apps/rDock/src/rDock_2013.1_src/data/scripts/dock_solv.prm

>  <Rbt.Receptor>
prm/blind_docking_60.prm

>  <SCORE>
35.4556

>  <SCORE.INTER>
7.33202

>  <SCORE.INTER.CONST>
1

>  <SCORE.INTER.POLAR>
0

>  <SCORE.INTER.ROT>
6

>  <SCORE.INTER.SOLV>
25.4137

>  <SCORE.INTER.VDW>
-11.1832

>  <SCORE.INTER.norm>
0.236517

>  <SCORE.INTRA>
10.0578

>  <SCORE.INTRA.DIHEDRAL>
1.40838

>  <SCORE.INTRA.DIHEDRAL.0>
14.7001

>  <SCORE.INTRA.POLAR>
0

>  <SCORE.INTRA.POLAR.0>
0

>  <SCORE.INTRA.REPUL>
0

>  <SCORE.INTRA.REPUL.0>
0

>  <SCORE.INTRA.SOLV>
4.27373

>  <SCORE.INTRA.SOLV.lig_0>
-65.3082

>  <SCORE.INTRA.VDW>
7.21678

>  <SCORE.INTRA.VDW.0>
-4.21408

>  <SCORE.INTRA.norm>
0.324446

>  <SCORE.RESTR>
18.0658

>  <SCORE.RESTR.CAVITY>
18.0658

>  <SCORE.RESTR.norm>
0.582767

>  <SCORE.SYSTEM>
0

>  <SCORE.SYSTEM.CONST>
0

>  <SCORE.SYSTEM.DIHEDRAL>
0

>  <SCORE.SYSTEM.SOLV>
0

>  <SCORE.SYSTEM.norm>
0

>  <SCORE.heavy>
31

>  <SCORE.norm>
1.14373

>  <RMSD>
9.854

$$$$
ligand
 OpenBabel11021811493D
libRbt.so/2013.1/901 2013/11/27
 31 33  0  0  0  0  0  0  0  0999 V2000
    6.4399   20.7261   37.0494 C   0  0  2  0  0  0  0  0  0  0  0  0
    6.1328   19.3452   37.0439 O   0  0  0  0  0  0  0  0  0  0  0  0
    2.9705   17.1236   35.2763 C   0  0  2  0  0  0  0  0  0  0  0  0
    1.6580   16.6298   35.0307 N   0  0  0  0  0  0  0  0  0  0  0  0
    1.4781   19.7220   33.2899 C   0  0  2  0  0  0  0  0  0  0  0  0
    7.4196   21.0198   35.8320 C   0  0  2  0  0  0  0  0  0  0  0  0
    6.7760   20.6070   34.5894 N   0  0  0  0  0  0  0  0  0  0  0  0
    3.3477   16.8037   36.7913 C   0  0  0  0  0  0  0  0  0  0  0  0
    1.8286   21.2147   33.6067 C   0  0  2  0  0  0  0  0  0  0  0  0
    3.0253   21.5504   32.9370 O   0  0  0  0  0  0  0  0  0  0  0  0
    8.7910   20.2768   36.0345 C   0  0  0  0  0  0  0  0  0  0  0  0
    4.8139   17.3384   37.0594 C   0  0  2  0  0  0  0  0  0  0  0  0
    5.1810   17.0449   38.4453 N   0  0  0  0  0  0  0  0  0  0  0  0
    1.9957   21.3685   35.1623 C   0  0  1  0  0  0  0  0  0  0  0  0
    2.3472   22.7867   35.4934 N   0  0  0  0  0  0  0  0  0  0  0  0
    9.2677   20.3221   37.5467 C   0  0  0  0  0  0  0  0  0  0  0  0
    4.8438   18.9018   36.8101 C   0  0  2  0  0  0  0  0  0  0  0  0
    0.5889   20.9798   35.8820 C   0  0  1  0  0  0  0  0  0  0  0  0
   -0.4878   21.8041   35.4814 O   0  0  0  0  0  0  0  0  0  0  0  0
    8.4281   20.7133   38.5360 C   0  0  1  0  0  0  0  0  0  0  0  0
    7.0790   21.1103   38.3070 O   0  0  0  0  0  0  0  0  0  0  0  0
    4.4437   19.2111   35.3074 C   0  0  2  0  0  0  0  0  0  0  0  0
    4.4594   20.6374   35.0937 O   0  0  0  0  0  0  0  0  0  0  0  0
    0.2256   19.5062   35.5300 C   0  0  0  0  0  0  0  0  0  0  0  0
    0.2088   19.3221   34.0224 O   0  0  0  0  0  0  0  0  0  0  0  0
    8.8406   20.7633   39.9877 C   0  0  0  0  0  0  0  0  0  0  0  0
    8.7781   22.1498   40.3861 O   0  0  0  0  0  0  0  0  0  0  0  0
    2.9868   18.6713   35.0408 C   0  0  1  0  0  0  0  0  0  0  0  0
    2.6572   18.9512   33.7029 O   0  0  0  0  0  0  0  0  0  0  0  0
    0.6079   21.0766   37.4131 C   0  0  0  0  0  0  0  0  0  0  0  0
    3.6988   23.2347   35.0985 C   0  0  0  0  0  0  0  0  0  0  0  0
  1  2  1  1  0  0  0
  1  6  1  0  0  0  0
  1 21  1  0  0  0  0
  3  4  1  1  0  0  0
  3  8  1  0  0  0  0
  3 28  1  0  0  0  0
  5  9  1  0  0  0  0
  5 25  1  0  0  0  0
  5 29  1  1  0  0  0
  6  7  1  6  0  0  0
  6 11  1  0  0  0  0
  8 12  1  0  0  0  0
  9 10  1  6  0  0  0
  9 14  1  0  0  0  0
 11 16  1  0  0  0  0
 12 13  1  1  0  0  0
 12 17  1  0  0  0  0
 14 15  1  6  0  0  0
 14 18  1  0  0  0  0
 15 31  1  0  0  0  0
 16 20  1  0  0  0  0
 17  2  1  6  0  0  0
 17 22  1  0  0  0  0
 18 19  1  6  0  0  0
 18 24  1  0  0  0  0
 18 30  1  0  0  0  0
 20 21  1  0  0  0  0
 20 26  1  1  0  0  0
 22 23  1  1  0  0  0
 22 28  1  0  0  0  0
 24 25  1  0  0  0  0
 26 27  1  0  0  0  0
 28 29  1  6  0  0  0
M  END
>  <CHROM.1>
-114.96042722,75.27104555,-70.17647112,-172.75970832,115.81642966,117.82190675
4.21622428,20.06567561,36.06112341,0.00471307,-0.46898567,-0.14175274

>  <Name>
ligand

>  <RI>
0

>  <Rbt.Current_Directory>
/home/itssahil/PROJECTS/Mol_Feturizer/New_Systems/rnas/4GPY

>  <Rbt.Executable>
rbdock ($Id: //depot/dev/client3/rdock/2013.1/src/exe/rbdock.cxx#4 $)

>  <Rbt.Library>
libRbt.so (2013.1, Build901 2013/11/27)

>  <Rbt.Parameter_File>
/export/apps/rDock/src/rDock_2013.1_src/data/scripts/dock_solv.prm

>  <Rbt.Receptor>
prm/blind_docking_60.prm

>  <SCORE>
29.343

>  <SCORE.INTER>
1.03616

>  <SCORE.INTER.CONST>
1

>  <SCORE.INTER.POLAR>
0

>  <SCORE.INTER.ROT>
6

>  <SCORE.INTER.SOLV>
25.8949

>  <SCORE.INTER.VDW>
-15.5408

>  <SCORE.INTER.norm>
0.0334245

>  <SCORE.INTRA>
9.95561

>  <SCORE.INTRA.DIHEDRAL>
2.67794

>  <SCORE.INTRA.DIHEDRAL.0>
14.7001

>  <SCORE.INTRA.POLAR>
0

>  <SCORE.INTRA.POLAR.0>
0

>  <SCORE.INTRA.REPUL>
0.00400269

>  <SCORE.INTRA.REPUL.0>
0

>  <SCORE.INTRA.SOLV>
4.18283

>  <SCORE.INTRA.SOLV.lig_0>
-65.3082

>  <SCORE.INTRA.VDW>
6.50521

>  <SCORE.INTRA.VDW.0>
-4.21408

>  <SCORE.INTRA.norm>
0.321149

>  <SCORE.RESTR>
18.3512

>  <SCORE.RESTR.CAVITY>
18.3512

>  <SCORE.RESTR.norm>
0.591975

>  <SCORE.SYSTEM>
0

>  <SCORE.SYSTEM.CONST>
0

>  <SCORE.SYSTEM.DIHEDRAL>
0

>  <SCORE.SYSTEM.SOLV>
0

>  <SCORE.SYSTEM.norm>
0

>  <SCORE.heavy>
31

>  <SCORE.norm>
0.946548

>  <RMSD>
9.928

$$$$
ligand
 OpenBabel11021811493D
libRbt.so/2013.1/901 2013/11/27
 31 33  0  0  0  0  0  0  0  0999 V2000
    0.2439   17.6934   37.1793 C   0  0  2  0  0  0  0  0  0  0  0  0
    0.8025   18.7948   37.8694 O   0  0  0  0  0  0  0  0  0  0  0  0
    1.1886   21.7246   34.8153 C   0  0  2  0  0  0  0  0  0  0  0  0
    1.6786   22.8540   34.1004 N   0  0  0  0  0  0  0  0  0  0  0  0
    4.1075   20.3914   33.1572 C   0  0  2  0  0  0  0  0  0  0  0  0
   -0.4644   16.7496   38.2450 C   0  0  2  0  0  0  0  0  0  0  0  0
   -1.4765   17.5154   38.9646 N   0  0  0  0  0  0  0  0  0  0  0  0
    0.7231   22.2126   36.2592 C   0  0  0  0  0  0  0  0  0  0  0  0
    5.0486   19.8727   34.2958 C   0  0  2  0  0  0  0  0  0  0  0  0
    4.6790   18.5494   34.6207 O   0  0  0  0  0  0  0  0  0  0  0  0
    0.5956   16.1402   39.2345 C   0  0  0  0  0  0  0  0  0  0  0  0
    0.1631   20.9589   37.0482 C   0  0  2  0  0  0  0  0  0  0  0  0
   -0.2779   21.3906   38.3752 N   0  0  0  0  0  0  0  0  0  0  0  0
    4.8930   20.8191   35.5414 C   0  0  1  0  0  0  0  0  0  0  0  0
    5.7727   20.3364   36.6539 N   0  0  0  0  0  0  0  0  0  0  0  0
    1.9337   15.7330   38.4863 C   0  0  0  0  0  0  0  0  0  0  0  0
    1.3150   19.8811   37.1837 C   0  0  2  0  0  0  0  0  0  0  0  0
    5.3400   22.3248   35.1155 C   0  0  1  0  0  0  0  0  0  0  0  0
    6.6828   22.4045   34.6797 O   0  0  0  0  0  0  0  0  0  0  0  0
    2.1808   16.1411   37.2179 C   0  0  1  0  0  0  0  0  0  0  0  0
    1.2801   16.9490   36.4655 O   0  0  0  0  0  0  0  0  0  0  0  0
    1.7878   19.4201   35.7423 C   0  0  2  0  0  0  0  0  0  0  0  0
    2.8465   18.4497   35.8755 O   0  0  0  0  0  0  0  0  0  0  0  0
    4.4257   22.8196   33.9550 C   0  0  0  0  0  0  0  0  0  0  0  0
    4.4622   21.8263   32.8065 O   0  0  0  0  0  0  0  0  0  0  0  0
    3.4446   15.7813   36.4737 C   0  0  0  0  0  0  0  0  0  0  0  0
    4.4268   16.7804   36.8229 O   0  0  0  0  0  0  0  0  0  0  0  0
    2.3380   20.6709   34.9563 C   0  0  1  0  0  0  0  0  0  0  0  0
    2.7448   20.2391   33.6815 O   0  0  0  0  0  0  0  0  0  0  0  0
    5.2302   23.3643   36.2385 C   0  0  0  0  0  0  0  0  0  0  0  0
    5.6772   21.0746   37.9304 C   0  0  0  0  0  0  0  0  0  0  0  0
  1  2  1  1  0  0  0
  1  6  1  0  0  0  0
  1 21  1  0  0  0  0
  3  4  1  6  0  0  0
  3  8  1  0  0  0  0
  3 28  1  0  0  0  0
  5  9  1  0  0  0  0
  5 25  1  0  0  0  0
  5 29  1  1  0  0  0
  6  7  1  1  0  0  0
  6 11  1  0  0  0  0
  8 12  1  0  0  0  0
  9 10  1  1  0  0  0
  9 14  1  0  0  0  0
 11 16  1  0  0  0  0
 12 13  1  1  0  0  0
 12 17  1  0  0  0  0
 14 15  1  1  0  0  0
 14 18  1  0  0  0  0
 15 31  1  0  0  0  0
 16 20  1  0  0  0  0
 17  2  1  1  0  0  0
 17 22  1  0  0  0  0
 18 19  1  6  0  0  0
 18 24  1  0  0  0  0
 18 30  1  0  0  0  0
 20 21  1  0  0  0  0
 20 26  1  1  0  0  0
 22 23  1  1  0  0  0
 22 28  1  0  0  0  0
 24 25  1  0  0  0  0
 26 27  1  0  0  0  0
 28 29  1  6  0  0  0
M  END
>  <CHROM.1>
-170.55373213,48.28115417,-176.32936781,92.97262636,-86.54385251,120.04026397
2.74796431,19.66190398,36.11440590,2.22213122,-0.36042440,2.79025390

>  <Name>
ligand

>  <RI>
0

>  <Rbt.Current_Directory>
/home/itssahil/PROJECTS/Mol_Feturizer/New_Systems/rnas/4GPY

>  <Rbt.Executable>
rbdock ($Id: //depot/dev/client3/rdock/2013.1/src/exe/rbdock.cxx#4 $)

>  <Rbt.Library>
libRbt.so (2013.1, Build901 2013/11/27)

>  <Rbt.Parameter_File>
/export/apps/rDock/src/rDock_2013.1_src/data/scripts/dock_solv.prm

>  <Rbt.Receptor>
prm/blind_docking_60.prm

>  <SCORE>
72.2962

>  <SCORE.INTER>
35.0645

>  <SCORE.INTER.CONST>
1

>  <SCORE.INTER.POLAR>
0

>  <SCORE.INTER.ROT>
6

>  <SCORE.INTER.SOLV>
28.3897

>  <SCORE.INTER.VDW>
6.31315

>  <SCORE.INTER.norm>
1.13111

>  <SCORE.INTRA>
20.0679

>  <SCORE.INTRA.DIHEDRAL>
0.564582

>  <SCORE.INTRA.DIHEDRAL.0>
14.7001

>  <SCORE.INTRA.POLAR>
0

>  <SCORE.INTRA.POLAR.0>
0

>  <SCORE.INTRA.REPUL>
0.00998718

>  <SCORE.INTRA.REPUL.0>
0

>  <SCORE.INTRA.SOLV>
4.44618

>  <SCORE.INTRA.SOLV.lig_0>
-65.3082

>  <SCORE.INTRA.VDW>
17.5126

>  <SCORE.INTRA.VDW.0>
-4.21408

>  <SCORE.INTRA.norm>
0.647352

>  <SCORE.RESTR>
17.1637

>  <SCORE.RESTR.CAVITY>
17.1637

>  <SCORE.RESTR.norm>
0.553669

>  <SCORE.SYSTEM>
0

>  <SCORE.SYSTEM.CONST>
0

>  <SCORE.SYSTEM.DIHEDRAL>
0

>  <SCORE.SYSTEM.SOLV>
0

>  <SCORE.SYSTEM.norm>
0

>  <SCORE.heavy>
31

>  <SCORE.norm>
2.33214

>  <RMSD>
9.973

$$$$
ligand
 OpenBabel11021811493D
libRbt.so/2013.1/901 2013/11/27
 31 33  0  0  0  0  0  0  0  0999 V2000
    0.3945   18.5471   36.9118 C   0  0  2  0  0  0  0  0  0  0  0  0
    1.2806   19.4191   37.5869 O   0  0  0  0  0  0  0  0  0  0  0  0
    1.0093   22.8282   35.0642 C   0  0  2  0  0  0  0  0  0  0  0  0
    1.1778   24.1624   34.5968 N   0  0  0  0  0  0  0  0  0  0  0  0
    4.4919   22.4254   33.7946 C   0  0  2  0  0  0  0  0  0  0  0  0
    0.6345   17.0748   37.4622 C   0  0  2  0  0  0  0  0  0  0  0  0
    0.4211   17.0626   38.9054 N   0  0  0  0  0  0  0  0  0  0  0  0
    0.2646   22.8839   36.4720 C   0  0  0  0  0  0  0  0  0  0  0  0
    5.2265   21.0431   33.8255 C   0  0  2  0  0  0  0  0  0  0  0  0
    4.6581   20.2065   32.8404 O   0  0  0  0  0  0  0  0  0  0  0  0
    2.0819   16.5779   37.0986 C   0  0  0  0  0  0  0  0  0  0  0  0
    0.0627   21.3989   36.9838 C   0  0  2  0  0  0  0  0  0  0  0  0
   -0.6286   21.4303   38.2733 N   0  0  0  0  0  0  0  0  0  0  0  0
    5.0539   20.4184   35.2578 C   0  0  1  0  0  0  0  0  0  0  0  0
    5.7354   19.0853   35.3114 N   0  0  0  0  0  0  0  0  0  0  0  0
    2.5087   17.0256   35.6380 C   0  0  0  0  0  0  0  0  0  0  0  0
    1.4813   20.7144   37.1457 C   0  0  2  0  0  0  0  0  0  0  0  0
    5.7330   21.4152   36.3502 C   0  0  1  0  0  0  0  0  0  0  0  0
    7.1152   21.6197   36.1337 O   0  0  0  0  0  0  0  0  0  0  0  0
    1.7961   17.9514   34.9512 C   0  0  1  0  0  0  0  0  0  0  0  0
    0.6292   18.5840   35.4692 O   0  0  0  0  0  0  0  0  0  0  0  0
    2.2238   20.6858   35.7451 C   0  0  2  0  0  0  0  0  0  0  0  0
    3.5202   20.0741   35.9052 O   0  0  0  0  0  0  0  0  0  0  0  0
    5.0243   22.8013   36.2864 C   0  0  0  0  0  0  0  0  0  0  0  0
    5.0626   23.3385   34.8661 O   0  0  0  0  0  0  0  0  0  0  0  0
    2.1729   18.4097   33.5626 C   0  0  0  0  0  0  0  0  0  0  0  0
    1.3868   19.5900   33.2910 O   0  0  0  0  0  0  0  0  0  0  0  0
    2.4170   22.1646   35.2343 C   0  0  1  0  0  0  0  0  0  0  0  0
    3.0709   22.1133   33.9906 O   0  0  0  0  0  0  0  0  0  0  0  0
    5.6311   20.9333   37.8032 C   0  0  0  0  0  0  0  0  0  0  0  0
    5.2137   18.1237   36.3047 C   0  0  0  0  0  0  0  0  0  0  0  0
  1  2  1  1  0  0  0
  1  6  1  0  0  0  0
  1 21  1  0  0  0  0
  3  4  1  1  0  0  0
  3  8  1  0  0  0  0
  3 28  1  0  0  0  0
  5  9  1  0  0  0  0
  5 25  1  0  0  0  0
  5 29  1  1  0  0  0
  6  7  1  1  0  0  0
  6 11  1  0  0  0  0
  8 12  1  0  0  0  0
  9 10  1  6  0  0  0
  9 14  1  0  0  0  0
 11 16  1  0  0  0  0
 12 13  1  1  0  0  0
 12 17  1  0  0  0  0
 14 15  1  6  0  0  0
 14 18  1  0  0  0  0
 15 31  1  0  0  0  0
 16 20  1  0  0  0  0
 17  2  1  6  0  0  0
 17 22  1  0  0  0  0
 18 19  1  6  0  0  0
 18 24  1  0  0  0  0
 18 30  1  0  0  0  0
 20 21  1  0  0  0  0
 20 26  1  1  0  0  0
 22 23  1  1  0  0  0
 22 28  1  0  0  0  0
 24 25  1  0  0  0  0
 26 27  1  0  0  0  0
 28 29  1  6  0  0  0
M  END
>  <CHROM.1>
167.64615198,96.11160089,-154.29386439,51.97055314,-167.21257748,137.69725530
2.83360640,20.32407387,35.75440036,2.42143090,-0.26278769,2.91571682

>  <Name>
ligand

>  <RI>
0

>  <Rbt.Current_Directory>
/home/itssahil/PROJECTS/Mol_Feturizer/New_Systems/rnas/4GPY

>  <Rbt.Executable>
rbdock ($Id: //depot/dev/client3/rdock/2013.1/src/exe/rbdock.cxx#4 $)

>  <Rbt.Library>
libRbt.so (2013.1, Build901 2013/11/27)

>  <Rbt.Parameter_File>
/export/apps/rDock/src/rDock_2013.1_src/data/scripts/dock_solv.prm

>  <Rbt.Receptor>
prm/blind_docking_60.prm

>  <SCORE>
74.3454

>  <SCORE.INTER>
32.394

>  <SCORE.INTER.CONST>
1

>  <SCORE.INTER.POLAR>
0

>  <SCORE.INTER.ROT>
6

>  <SCORE.INTER.SOLV>
29.2677

>  <SCORE.INTER.VDW>
4.24009

>  <SCORE.INTER.norm>
1.04497

>  <SCORE.INTRA>
25.9414

>  <SCORE.INTRA.DIHEDRAL>
0.690925

>  <SCORE.INTRA.DIHEDRAL.0>
14.7001

>  <SCORE.INTRA.POLAR>
0

>  <SCORE.INTRA.POLAR.0>
0

>  <SCORE.INTRA.REPUL>
0

>  <SCORE.INTRA.REPUL.0>
0

>  <SCORE.INTRA.SOLV>
3.19967

>  <SCORE.INTRA.SOLV.lig_0>
-65.3082

>  <SCORE.INTRA.VDW>
23.9961

>  <SCORE.INTRA.VDW.0>
-4.21408

>  <SCORE.INTRA.norm>
0.836818

>  <SCORE.RESTR>
16.01

>  <SCORE.RESTR.CAVITY>
16.01

>  <SCORE.RESTR.norm>
0.516452

>  <SCORE.SYSTEM>
0

>  <SCORE.SYSTEM.CONST>
0

>  <SCORE.SYSTEM.DIHEDRAL>
0

>  <SCORE.SYSTEM.SOLV>
0

>  <SCORE.SYSTEM.norm>
0

>  <SCORE.heavy>
31

>  <SCORE.norm>
2.39824

>  <RMSD>
10.024

$$$$
ligand
 OpenBabel11021811493D
libRbt.so/2013.1/901 2013/11/27
 31 33  0  0  0  0  0  0  0  0999 V2000
    1.6610   17.7391   36.8921 C   0  0  2  0  0  0  0  0  0  0  0  0
    0.9948   18.2720   35.7636 O   0  0  0  0  0  0  0  0  0  0  0  0
    2.2829   20.9490   32.7248 C   0  0  2  0  0  0  0  0  0  0  0  0
    2.6905   22.1579   32.0928 N   0  0  0  0  0  0  0  0  0  0  0  0
    5.7470   21.2309   33.5833 C   0  0  2  0  0  0  0  0  0  0  0  0
    2.3894   16.3972   36.4484 C   0  0  2  0  0  0  0  0  0  0  0  0
    3.3114   16.6915   35.3567 N   0  0  0  0  0  0  0  0  0  0  0  0
    0.8370   21.1789   33.3543 C   0  0  0  0  0  0  0  0  0  0  0  0
    6.5676   20.4484   34.6630 C   0  0  2  0  0  0  0  0  0  0  0  0
    6.8665   19.1633   34.1605 O   0  0  0  0  0  0  0  0  0  0  0  0
    1.3348   15.3105   36.0228 C   0  0  0  0  0  0  0  0  0  0  0  0
    0.3772   19.8292   34.0430 C   0  0  2  0  0  0  0  0  0  0  0  0
   -0.9544   20.0193   34.6197 N   0  0  0  0  0  0  0  0  0  0  0  0
    5.7030   20.3503   35.9723 C   0  0  1  0  0  0  0  0  0  0  0  0
    6.4592   19.5914   37.0196 N   0  0  0  0  0  0  0  0  0  0  0  0
    0.0633   15.3208   36.9710 C   0  0  0  0  0  0  0  0  0  0  0  0
    1.4124   19.4548   35.1811 C   0  0  2  0  0  0  0  0  0  0  0  0
    5.3964   21.8543   36.5125 C   0  0  1  0  0  0  0  0  0  0  0  0
    6.5672   22.5835   36.8237 O   0  0  0  0  0  0  0  0  0  0  0  0
   -0.1581   16.3390   37.8375 C   0  0  1  0  0  0  0  0  0  0  0  0
    0.7131   17.4587   37.9694 O   0  0  0  0  0  0  0  0  0  0  0  0
    2.8519   19.2521   34.5484 C   0  0  2  0  0  0  0  0  0  0  0  0
    3.7906   18.9259   35.5938 O   0  0  0  0  0  0  0  0  0  0  0  0
    4.6149   22.6405   35.4177 C   0  0  0  0  0  0  0  0  0  0  0  0
    5.3840   22.6094   34.1082 O   0  0  0  0  0  0  0  0  0  0  0  0
   -1.3593   16.3899   38.7512 C   0  0  0  0  0  0  0  0  0  0  0  0
   -1.5173   17.7693   39.1472 O   0  0  0  0  0  0  0  0  0  0  0  0
    3.3044   20.5946   33.8571 C   0  0  1  0  0  0  0  0  0  0  0  0
    4.5786   20.3888   33.2994 O   0  0  0  0  0  0  0  0  0  0  0  0
    4.5476   21.9127   37.7892 C   0  0  0  0  0  0  0  0  0  0  0  0
    5.6781   18.6239   37.8179 C   0  0  0  0  0  0  0  0  0  0  0  0
  1  2  1  6  0  0  0
  1  6  1  0  0  0  0
  1 21  1  0  0  0  0
  3  4  1  1  0  0  0
  3  8  1  0  0  0  0
  3 28  1  0  0  0  0
  5  9  1  0  0  0  0
  5 25  1  0  0  0  0
  5 29  1  1  0  0  0
  6  7  1  6  0  0  0
  6 11  1  0  0  0  0
  8 12  1  0  0  0  0
  9 10  1  6  0  0  0
  9 14  1  0  0  0  0
 11 16  1  0  0  0  0
 12 13  1  1  0  0  0
 12 17  1  0  0  0  0
 14 15  1  1  0  0  0
 14 18  1  0  0  0  0
 15 31  1  0  0  0  0
 16 20  1  0  0  0  0
 17  2  1  6  0  0  0
 17 22  1  0  0  0  0
 18 19  1  1  0  0  0
 18 24  1  0  0  0  0
 18 30  1  0  0  0  0
 20 21  1  0  0  0  0
 20 26  1  6  0  0  0
 22 23  1  1  0  0  0
 22 28  1  0  0  0  0
 24 25  1  0  0  0  0
 26 27  1  0  0  0  0
 28 29  1  6  0  0  0
M  END
>  <CHROM.1>
-112.03664712,99.12396858,-138.52098180,-174.72591525,-159.92267865,115.87066193
2.98827353,19.40490449,35.65245992,-2.44565751,-0.30437622,-0.84340416

>  <Name>
ligand

>  <RI>
0

>  <Rbt.Current_Directory>
/home/itssahil/PROJECTS/Mol_Feturizer/New_Systems/rnas/4GPY

>  <Rbt.Executable>
rbdock ($Id: //depot/dev/client3/rdock/2013.1/src/exe/rbdock.cxx#4 $)

>  <Rbt.Library>
libRbt.so (2013.1, Build901 2013/11/27)

>  <Rbt.Parameter_File>
/export/apps/rDock/src/rDock_2013.1_src/data/scripts/dock_solv.prm

>  <Rbt.Receptor>
prm/blind_docking_60.prm

>  <SCORE>
43.0828

>  <SCORE.INTER>
10.8645

>  <SCORE.INTER.CONST>
1

>  <SCORE.INTER.POLAR>
0

>  <SCORE.INTER.ROT>
6

>  <SCORE.INTER.SOLV>
29.536

>  <SCORE.INTER.VDW>
-10.2023

>  <SCORE.INTER.norm>
0.350468

>  <SCORE.INTRA>
13.6667

>  <SCORE.INTRA.DIHEDRAL>
8.74739

>  <SCORE.INTRA.DIHEDRAL.0>
14.7001

>  <SCORE.INTRA.POLAR>
0

>  <SCORE.INTRA.POLAR.0>
0

>  <SCORE.INTRA.REPUL>
0

>  <SCORE.INTRA.REPUL.0>
0

>  <SCORE.INTRA.SOLV>
3.65773

>  <SCORE.INTRA.SOLV.lig_0>
-65.3082

>  <SCORE.INTRA.VDW>
7.46414

>  <SCORE.INTRA.VDW.0>
-4.21408

>  <SCORE.INTRA.norm>
0.440861

>  <SCORE.RESTR>
18.5516

>  <SCORE.RESTR.CAVITY>
18.5516

>  <SCORE.RESTR.norm>
0.598439

>  <SCORE.SYSTEM>
0

>  <SCORE.SYSTEM.CONST>
0

>  <SCORE.SYSTEM.DIHEDRAL>
0

>  <SCORE.SYSTEM.SOLV>
0

>  <SCORE.SYSTEM.norm>
0

>  <SCORE.heavy>
31

>  <SCORE.norm>
1.38977

>  <RMSD>
10.243

$$$$
ligand
 OpenBabel11021811493D
libRbt.so/2013.1/901 2013/11/27
 31 33  0  0  0  0  0  0  0  0999 V2000
    1.6413   17.7801   36.9059 C   0  0  2  0  0  0  0  0  0  0  0  0
    1.0074   18.2844   35.7461 O   0  0  0  0  0  0  0  0  0  0  0  0
    2.2891   20.9631   32.7060 C   0  0  2  0  0  0  0  0  0  0  0  0
    2.6945   22.1724   32.0735 N   0  0  0  0  0  0  0  0  0  0  0  0
    5.7542   21.2481   33.5627 C   0  0  2  0  0  0  0  0  0  0  0  0
    2.3549   16.4115   36.5242 C   0  0  2  0  0  0  0  0  0  0  0  0
    3.3039   16.6521   35.4424 N   0  0  0  0  0  0  0  0  0  0  0  0
    0.8435   21.1911   33.3369 C   0  0  0  0  0  0  0  0  0  0  0  0
    6.5766   20.4639   34.6397 C   0  0  2  0  0  0  0  0  0  0  0  0
    6.8759   19.1802   34.1342 O   0  0  0  0  0  0  0  0  0  0  0  0
    1.2904   15.3285   36.1145 C   0  0  0  0  0  0  0  0  0  0  0  0
    0.3861   19.8407   34.0260 C   0  0  2  0  0  0  0  0  0  0  0  0
   -0.9452   20.0292   34.6040 N   0  0  0  0  0  0  0  0  0  0  0  0
    5.7135   20.3624   35.9498 C   0  0  1  0  0  0  0  0  0  0  0  0
    6.4715   19.6018   36.9946 N   0  0  0  0  0  0  0  0  0  0  0  0
    0.0003   15.3931   37.0351 C   0  0  0  0  0  0  0  0  0  0  0  0
    1.4229   19.4677   35.1631 C   0  0  2  0  0  0  0  0  0  0  0  0
    5.4065   21.8651   36.4937 C   0  0  1  0  0  0  0  0  0  0  0  0
    6.5771   22.5944   36.8050 O   0  0  0  0  0  0  0  0  0  0  0  0
   -0.2208   16.4446   37.8611 C   0  0  1  0  0  0  0  0  0  0  0  0
    0.6671   17.5534   37.9723 O   0  0  0  0  0  0  0  0  0  0  0  0
    2.8621   19.2668   34.5290 C   0  0  2  0  0  0  0  0  0  0  0  0
    3.8022   18.9419   35.5735 O   0  0  0  0  0  0  0  0  0  0  0  0
    4.6231   22.6530   35.4014 C   0  0  0  0  0  0  0  0  0  0  0  0
    5.3907   22.6252   34.0910 O   0  0  0  0  0  0  0  0  0  0  0  0
   -1.4391   16.5474   38.7473 C   0  0  0  0  0  0  0  0  0  0  0  0
   -0.9560   16.8058   40.0832 O   0  0  0  0  0  0  0  0  0  0  0  0
    3.3122   20.6099   33.8373 C   0  0  1  0  0  0  0  0  0  0  0  0
    4.5860   20.4058   33.2783 O   0  0  0  0  0  0  0  0  0  0  0  0
    4.5591   21.9200   37.7714 C   0  0  0  0  0  0  0  0  0  0  0  0
    5.6864   18.6528   37.8110 C   0  0  0  0  0  0  0  0  0  0  0  0
  1  2  1  6  0  0  0
  1  6  1  0  0  0  0
  1 21  1  0  0  0  0
  3  4  1  1  0  0  0
  3  8  1  0  0  0  0
  3 28  1  0  0  0  0
  5  9  1  0  0  0  0
  5 25  1  0  0  0  0
  5 29  1  1  0  0  0
  6  7  1  6  0  0  0
  6 11  1  0  0  0  0
  8 12  1  0  0  0  0
  9 10  1  6  0  0  0
  9 14  1  0  0  0  0
 11 16  1  0  0  0  0
 12 13  1  1  0  0  0
 12 17  1  0  0  0  0
 14 15  1  1  0  0  0
 14 18  1  0  0  0  0
 15 31  1  0  0  0  0
 16 20  1  0  0  0  0
 17  2  1  6  0  0  0
 17 22  1  0  0  0  0
 18 19  1  1  0  0  0
 18 24  1  0  0  0  0
 18 30  1  0  0  0  0
 20 21  1  0  0  0  0
 20 26  1  6  0  0  0
 22 23  1  1  0  0  0
 22 28  1  0  0  0  0
 24 25  1  0  0  0  0
 26 27  1  0  0  0  0
 28 29  1  6  0  0  0
M  END
>  <CHROM.1>
-114.68168606,99.16614649,-139.76751328,-172.15156078,127.79240611,115.97055887
3.00376792,19.39473287,35.68409858,-2.41694462,-0.33637997,-0.89485986

>  <Name>
ligand

>  <RI>
0

>  <Rbt.Current_Directory>
/home/itssahil/PROJECTS/Mol_Feturizer/New_Systems/rnas/4GPY

>  <Rbt.Executable>
rbdock ($Id: //depot/dev/client3/rdock/2013.1/src/exe/rbdock.cxx#4 $)

>  <Rbt.Library>
libRbt.so (2013.1, Build901 2013/11/27)

>  <Rbt.Parameter_File>
/export/apps/rDock/src/rDock_2013.1_src/data/scripts/dock_solv.prm

>  <Rbt.Receptor>
prm/blind_docking_60.prm

>  <SCORE>
39.126

>  <SCORE.INTER>
8.69722

>  <SCORE.INTER.CONST>
1

>  <SCORE.INTER.POLAR>
0

>  <SCORE.INTER.ROT>
6

>  <SCORE.INTER.SOLV>
28.3934

>  <SCORE.INTER.VDW>
-11.2663

>  <SCORE.INTER.norm>
0.280556

>  <SCORE.INTRA>
11.7772

>  <SCORE.INTRA.DIHEDRAL>
7.7021

>  <SCORE.INTRA.DIHEDRAL.0>
14.7001

>  <SCORE.INTRA.POLAR>
0

>  <SCORE.INTRA.POLAR.0>
0

>  <SCORE.INTRA.REPUL>
0

>  <SCORE.INTRA.REPUL.0>
0

>  <SCORE.INTRA.SOLV>
3.39183

>  <SCORE.INTRA.SOLV.lig_0>
-65.3082

>  <SCORE.INTRA.VDW>
6.23019

>  <SCORE.INTRA.VDW.0>
-4.21408

>  <SCORE.INTRA.norm>
0.379908

>  <SCORE.RESTR>
18.6516

>  <SCORE.RESTR.CAVITY>
18.6516

>  <SCORE.RESTR.norm>
0.601665

>  <SCORE.SYSTEM>
0

>  <SCORE.SYSTEM.CONST>
0

>  <SCORE.SYSTEM.DIHEDRAL>
0

>  <SCORE.SYSTEM.SOLV>
0

>  <SCORE.SYSTEM.norm>
0

>  <SCORE.heavy>
31

>  <SCORE.norm>
1.26213

>  <RMSD>
10.274

$$$$
