@<TRIPOS>MOLECULE
4GPY_rdock.pdb
 407 453 0 0 0
SMALL
GASTEIGER

@<TRIPOS>ATOM
      1  P          5.5900    3.8660   33.0330 P.3    14  G14         0.1280
      2  C5'        8.1690    4.1810   33.4290 C.3    14  G14         0.1795
      3  O5'        6.8980    4.7730   33.1500 O.3    14  G14        -0.3259
      4  C4'        9.2780    5.1970   33.2660 C.3    14  G14         0.1772
      5  O4'        9.3610    5.6220   31.8800 O.3    14  G14        -0.3307
      6  C3'        9.0900    6.5020   34.0140 C.3    14  G14         0.1860
      7  O3'        9.4440    6.3800   35.3800 O.3    14  G14        -0.3112
      8  C2'       10.0310    7.4190   33.2560 C.3    14  G14         0.2309
      9  O2'       11.3840    7.1530   33.5540 O.3    14  G14        -0.2156
     10  C1'        9.7330    6.9900   31.8230 C.3    14  G14         0.2408
     11  N1         8.4340   11.2350   29.3840 N.ar   14  G14        -0.1709
     12  C2         9.6400   10.8730   29.9330 C.ar   14  G14         0.2606
     13  N2        10.6310   11.7620   29.8240 N.pl3  14  G14        -0.0859
     14  N3         9.8540    9.7310   30.5540 N.ar   14  G14        -0.1918
     15  C4         8.7430    8.9720   30.6090 C.ar   14  G14         0.1723
     16  C5         7.4880    9.2440   30.1100 C.ar   14  G14         0.1748
     17  C6         7.2740   10.4670   29.4270 C.ar   14  G14         0.3023
     18  O6         6.2300   10.8940   28.9030 O.2    14  G14        -0.2633
     19  N7         6.6090    8.2060   30.3970 N.ar   14  G14        -0.2173
     20  C8         7.3360    7.3350   31.0480 C.ar   14  G14         0.1817
     21  N9         8.6450    7.7330   31.1960 N.ar   14  G14        -0.2693
     22  OP1        5.4660    3.0370   34.2610 O.3    14  G14        -0.1955
     23  OP2        4.4590    4.7360   32.6000 O.co2  14  G14        -0.7863
     24  P          8.6040    7.1930   36.4830 P.3    15  C15         0.2141
     25  C5'       10.5100    8.9870   36.4610 C.3    15  C15         0.1812
     26  O5'        9.1260    8.6920   36.3330 O.3    15  C15        -0.3114
     27  C4'       10.8330   10.3150   35.8130 C.3    15  C15         0.1773
     28  O4'       10.5520   10.2800   34.3870 O.3    15  C15        -0.3307
     29  C3'       10.0490   11.5250   36.2840 C.3    15  C15         0.1860
     30  O3'       10.5240   12.0180   37.5260 O.3    15  C15        -0.3112
     31  C2'       10.3200   12.5010   35.1550 C.3    15  C15         0.2309
     32  O2'       11.6460   12.9850   35.1930 O.3    15  C15        -0.2156
     33  C1'       10.1520   11.5750   33.9530 C.3    15  C15         0.2420
     34  N1         8.7610   11.4870   33.4940 N.ar   15  C15        -0.2535
     35  C2         8.2290   12.5210   32.6930 C.ar   15  C15         0.3532
     36  O2         8.9360   13.5050   32.4250 O.2    15  C15        -0.2443
     37  N3         6.9560   12.4140   32.2390 N.ar   15  C15        -0.1739
     38  C4         6.2190   11.3420   32.5680 C.ar   15  C15         0.1759
     39  N4         4.9690   11.2700   32.1110 N.pl3  15  C15        -0.1070
     40  C5         6.7330   10.2920   33.3870 C.ar   15  C15         0.0566
     41  C6         7.9950   10.4050   33.8250 C.ar   15  C15         0.0850
     42  OP1        9.0150    6.6720   37.8140 O.3    15  C15        -0.4373
     43  OP2        7.1670    7.1440   36.0730 O.co2  15  C15        -0.5172
     44  P          9.4990   12.7410   38.5170 P.3    16  G16         0.2141
     45  C5'       10.2840   15.0640   37.5960 C.3    16  G16         0.1812
     46  O5'        9.2260   14.1320   37.7930 O.3    16  G16        -0.3114
     47  C4'        9.7890   16.2410   36.7990 C.3    16  G16         0.1773
     48  O4'        9.4130   15.7970   35.4710 O.3    16  G16        -0.3307
     49  C3'        8.5150   16.8870   37.3120 C.3    16  G16         0.1860
     50  O3'        8.8020   17.7820   38.3660 O.3    16  G16        -0.3112
     51  C2'        8.0490   17.6260   36.0710 C.3    16  G16         0.2309
     52  O2'        8.8470   18.7480   35.7730 O.3    16  G16        -0.2156
     53  C1'        8.3130   16.5670   35.0080 C.3    16  G16         0.2408
     54  N1         3.8340   15.9950   32.7620 N.ar   16  G16        -0.1709
     55  C2         4.7090   17.0510   32.7110 C.ar   16  G16         0.2606
     56  N2         4.3580   18.0830   31.9330 N.pl3  16  G16        -0.0859
     57  N3         5.8500   17.0900   33.3680 N.ar   16  G16        -0.1918
     58  C4         6.0640   15.9560   34.0730 C.ar   16  G16         0.1723
     59  C5         5.2620   14.8480   34.1780 C.ar   16  G16         0.1748
     60  C6         4.0320   14.8250   33.4890 C.ar   16  G16         0.3023
     61  O6         3.1720   13.9310   33.4710 O.2    16  G16        -0.2633
     62  N7         5.8570   13.8900   34.9940 N.ar   16  G16        -0.2173
     63  C8         6.9840   14.4300   35.3550 C.ar   16  G16         0.1817
     64  N9         7.1730   15.6880   34.8250 N.ar   16  G16        -0.2693
     65  OP1       10.2010   13.0090   39.7980 O.3    16  G16        -0.4373
     66  OP2        8.2410   11.9330   38.5080 O.co2  16  G16        -0.5172
     67  P          8.1510   17.5380   39.8090 P.3    17  A17         0.2141
     68  C5'        7.0560   19.2430   41.4300 C.3    17  A17         0.1812
     69  O5'        7.3430   18.8780   40.0940 O.3    17  A17        -0.3114
     70  C4'        6.1840   20.4770   41.4910 C.3    17  A17         0.1773
     71  O4'        6.8700   21.7100   41.2070 O.3    17  A17        -0.3307
     72  C3'        4.9380   20.6360   40.6390 C.3    17  A17         0.1860
     73  O3'        3.8940   19.7520   41.0340 O.3    17  A17        -0.3112
     74  C2'        4.5450   22.0770   40.9760 C.3    17  A17         0.2309
     75  O2'        3.7310   22.1160   42.1350 O.3    17  A17        -0.2156
     76  C1'        5.9000   22.7240   41.3080 C.3    17  A17         0.2408
     77  N1         6.8840   27.7460   41.2690 N.ar   17  A17        -0.2040
     78  C2         6.4920   26.9040   42.2370 C.ar   17  A17         0.2016
     79  N3         6.2390   25.5970   42.1650 N.ar   17  A17        -0.2048
     80  C4         6.4270   25.1430   40.9110 C.ar   17  A17         0.1692
     81  C5         6.8220   25.8820   39.8080 C.ar   17  A17         0.1518
     82  C6         7.0650   27.2570   40.0170 C.ar   17  A17         0.1919
     83  N6         7.4610   28.0960   39.0520 N.pl3  17  A17        -0.1054
     84  N7         6.9060   25.0750   38.6820 N.ar   17  A17        -0.2193
     85  C8         6.5740   23.8820   39.1230 C.ar   17  A17         0.1816
     86  N9         6.2820   23.8510   40.4630 N.ar   17  A17        -0.2693
     87  OP1        9.2760   17.4880   40.7760 O.3    17  A17        -0.4373
     88  OP2        7.1930   16.3990   39.7410 O.co2  17  A17        -0.5172
     89  P          2.6440   19.5170   40.0490 P.3    18  A18         0.2141
     90  C5'        1.0860   20.8020   41.7330 C.3    18  A18         0.1812
     91  O5'        1.6160   20.6760   40.4180 O.3    18  A18        -0.3114
     92  C4'        0.4260   22.1530   41.8980 C.3    18  A18         0.1773
     93  O4'        1.4340   23.1900   41.8180 O.3    18  A18        -0.3307
     94  C3'       -0.6060   22.4980   40.8390 C.3    18  A18         0.1860
     95  O3'       -1.8860   22.0980   41.3070 O.3    18  A18        -0.3112
     96  C2'       -0.5240   24.0190   40.7600 C.3    18  A18         0.2309
     97  O2'       -1.3500   24.6780   41.7000 O.3    18  A18        -0.2156
     98  C1'        0.9490   24.2780   41.0660 C.3    18  A18         0.2408
     99  N1         4.2780   27.2290   38.4810 N.ar   18  A18        -0.2040
    100  C2         3.6880   27.3730   39.6750 C.ar   18  A18         0.2016
    101  N3         2.8400   26.5600   40.2990 N.ar   18  A18        -0.2048
    102  C4         2.6040   25.4600   39.5600 C.ar   18  A18         0.1692
    103  C5         3.1390   25.1650   38.3220 C.ar   18  A18         0.1518
    104  C6         4.0130   26.1180   37.7590 C.ar   18  A18         0.1919
    105  N6         4.5780   25.9930   36.5540 N.pl3  18  A18        -0.1054
    106  N7         2.6730   23.9410   37.8690 N.ar   18  A18        -0.2193
    107  C8         1.8700   23.5340   38.8230 C.ar   18  A18         0.1816
    108  N9         1.7730   24.4070   39.8690 N.ar   18  A18        -0.2693
    109  OP1        2.0120   18.2060   40.3900 O.3    18  A18        -0.4373
    110  OP2        3.1260   19.7810   38.6560 O.co2  18  A18        -0.5172
    111  P         -2.6180   20.8420   40.6360 P.3    19  G19         0.2141
    112  C5'       -3.7530   22.7010   39.1660 C.3    19  G19         0.1812
    113  O5'       -3.1600   21.4190   39.2560 O.3    19  G19        -0.3114
    114  C4'       -4.4700   22.8340   37.8420 C.3    19  G19         0.1773
    115  O4'       -3.5080   22.5490   36.7860 O.3    19  G19        -0.3307
    116  C3'       -5.6280   21.8580   37.6240 C.3    19  G19         0.1860
    117  O3'       -6.8810   22.4500   37.9750 O.3    19  G19        -0.3112
    118  C2'       -5.5650   21.5710   36.1280 C.3    19  G19         0.2309
    119  O2'       -6.2430   22.5280   35.3410 O.3    19  G19        -0.2156
    120  C1'       -4.0600   21.6160   35.8680 C.3    19  G19         0.2408
    121  N1        -4.1400   16.6650   34.7690 N.ar   19  G19        -0.1709
    122  C2        -4.9610   17.6720   34.3180 C.ar   19  G19         0.2606
    123  N2        -5.9600   17.3100   33.5000 N.pl3  19  G19        -0.0859
    124  N3        -4.8160   18.9410   34.6490 N.ar   19  G19        -0.1918
    125  C4        -3.7780   19.1280   35.4950 C.ar   19  G19         0.1723
    126  C5        -2.8970   18.1930   35.9980 C.ar   19  G19         0.1748
    127  C6        -3.0550   16.8360   35.6280 C.ar   19  G19         0.3023
    128  O6        -2.3720   15.8590   35.9650 O.2    19  G19        -0.2633
    129  N7        -1.9570   18.7950   36.8250 N.ar   19  G19        -0.2173
    130  C8        -2.2870   20.0570   36.8220 C.ar   19  G19         0.1817
    131  N9        -3.3980   20.3250   36.0510 N.ar   19  G19        -0.2693
    132  OP1       -3.7810   20.4150   41.4670 O.3    19  G19        -0.4373
    133  OP2       -1.5310   19.8660   40.3390 O.co2  19  G19        -0.5172
    134  P         -7.9970   21.5610   38.7250 P.3    20  U20         0.2141
    135  C5'       -9.2130   21.0340   36.4670 C.3    20  U20         0.1812
    136  O5'       -8.5000   20.5590   37.5990 O.3    20  U20        -0.3114
    137  C4'       -9.6760   19.8710   35.6400 C.3    20  U20         0.1773
    138  O4'       -8.5110   19.1390   35.1730 O.3    20  U20        -0.3307
    139  C3'      -10.4610   18.8190   36.4050 C.3    20  U20         0.1860
    140  O3'      -11.8280   19.1890   36.5400 O.3    20  U20        -0.3112
    141  C2'      -10.2760   17.6010   35.5120 C.3    20  U20         0.2309
    142  O2'      -11.0860   17.6530   34.3500 O.3    20  U20        -0.2156
    143  C1'       -8.8040   17.7500   35.1250 C.3    20  U20         0.2420
    144  N1        -7.8710   17.0440   36.0180 N.ar   20  U20        -0.2534
    145  C2        -7.6870   15.6910   35.8100 C.ar   20  U20         0.3546
    146  O2        -8.2920   15.0640   34.9580 O.2    20  U20        -0.2443
    147  N3        -6.7740   15.0960   36.6430 N.ar   20  U20        -0.1530
    148  C4        -6.0540   15.6980   37.6510 C.ar   20  U20         0.2846
    149  O4        -5.2520   15.0300   38.2990 O.2    20  U20        -0.2650
    150  C5        -6.3170   17.0910   37.8230 C.ar   20  U20         0.0814
    151  C6        -7.1940   17.7020   37.0210 C.ar   20  U20         0.0870
    152  OP1       -9.1380   22.4460   39.0710 O.2    20  U20        -0.5172
    153  OP2       -7.3290   20.7630   39.7920 O.co2  20  U20        -0.4373
    154  P        -12.6080   18.8570   37.9040 P.3    21  C21         0.2141
    155  C5'      -13.9240   17.0460   36.5290 C.3    21  C21         0.1812
    156  O5'      -13.1540   17.3760   37.6820 O.3    21  C21        -0.3114
    157  C4'      -13.7910   15.5730   36.2060 C.3    21  C21         0.1773
    158  O4'      -12.4150   15.2570   35.8570 O.3    21  C21        -0.3307
    159  C3'      -14.1460   14.6090   37.3280 C.3    21  C21         0.1860
    160  O3'      -15.5320   14.3170   37.2730 O.3    21  C21        -0.3112
    161  C2'      -13.3420   13.3660   36.9680 C.3    21  C21         0.2309
    162  O2'      -13.9880   12.5260   36.0380 O.3    21  C21        -0.2156
    163  C1'      -12.0810   13.9740   36.3550 C.3    21  C21         0.2420
    164  N1       -11.0260   14.1230   37.3580 N.ar   21  C21        -0.2535
    165  C2       -10.3200   12.9900   37.7440 C.ar   21  C21         0.3532
    166  O2       -10.6210   11.8970   37.2300 O.2    21  C21        -0.2443
    167  N3        -9.3380   13.1070   38.6690 N.ar   21  C21        -0.1739
    168  C4        -9.0680   14.2980   39.2050 C.ar   21  C21         0.1759
    169  N4        -8.0950   14.3720   40.1180 N.pl3  21  C21        -0.1070
    170  C5        -9.7820   15.4690   38.8300 C.ar   21  C21         0.0566
    171  C6       -10.7410   15.3390   37.9110 C.ar   21  C21         0.0850
    172  OP1      -13.7760   19.7700   37.9770 O.2    21  C21        -0.5172
    173  OP2      -11.6120   18.8420   39.0140 O.co2  21  C21        -0.4373
    174  P        -16.3630   14.1380   38.6330 P.3    22  G22         0.2141
    175  C5'      -16.5490   11.5630   38.2760 C.3    22  G22         0.1812
    176  O5'      -16.0860   12.6340   39.0750 O.3    22  G22        -0.3114
    177  C4'      -15.7590   10.3180   38.5610 C.3    22  G22         0.1773
    178  O4'      -14.3390   10.5710   38.4140 O.3    22  G22        -0.3307
    179  C3'      -15.8090    9.7740   39.9740 C.3    22  G22         0.1860
    180  O3'      -17.0450    9.1330   40.2350 O.3    22  G22        -0.3112
    181  C2'      -14.6640    8.7730   39.9200 C.3    22  G22         0.2309
    182  O2'      -15.0100    7.6140   39.1840 O.3    22  G22        -0.2156
    183  C1'      -13.6230    9.5790   39.1390 C.3    22  G22         0.2408
    184  N1        -9.6190    8.9990   42.2000 N.ar   22  G22        -0.1709
    185  C2       -10.3380    8.0470   41.5290 C.ar   22  G22         0.2606
    186  N2        -9.9190    6.7830   41.6870 N.pl3  22  G22        -0.0859
    187  N3       -11.3850    8.3160   40.7610 N.ar   22  G22        -0.1918
    188  C4       -11.6480    9.6390   40.7190 C.ar   22  G22         0.1723
    189  C5       -10.9840   10.6650   41.3540 C.ar   22  G22         0.1748
    190  C6        -9.8750   10.3630   42.1680 C.ar   22  G22         0.3023
    191  O6        -9.1570   11.1360   42.8020 O.2    22  G22        -0.2633
    192  N7       -11.5610   11.8890   41.0450 N.ar   22  G22        -0.2173
    193  C8       -12.5460   11.5910   40.2420 C.ar   22  G22         0.1817
    194  N9       -12.6510   10.2440   39.9980 N.ar   22  G22        -0.2693
    195  OP1      -17.8040   14.2490   38.2790 O.2    22  G22        -0.5172
    196  OP2      -15.7730   15.0670   39.6440 O.co2  22  G22        -0.4373
    197  P        -17.6660    9.1810   41.7120 P.3    23  C23         0.2141
    198  C5'      -16.6410    6.8160   42.1440 C.3    23  C23         0.1813
    199  O5'      -16.7590    8.1720   42.5380 O.3    23  C23        -0.3114
    200  C4'      -15.5070    6.1640   42.8880 C.3    23  C23         0.1801
    201  O4'      -14.3020    6.9280   42.6440 O.3    23  C23        -0.3306
    202  C3'      -15.6180    6.1710   44.4040 C.3    23  C23         0.2161
    203  O3'      -16.5100    5.1920   44.9420 O.3    23  C23        -0.2175
    204  C2'      -14.1670    5.9880   44.8270 C.3    23  C23         0.2338
    205  O2'      -13.7390    4.6410   44.7550 O.3    23  C23        -0.2155
    206  C1'      -13.4360    6.7940   43.7510 C.3    23  C23         0.2421
    207  N1       -13.0000    8.1340   44.1620 N.ar   23  C23        -0.2535
    208  C2       -11.8510    8.2490   44.9500 C.ar   23  C23         0.3532
    209  O2       -11.2790    7.2070   45.3310 O.2    23  C23        -0.2443
    210  N3       -11.3980    9.4800   45.2800 N.ar   23  C23        -0.1739
    211  C4       -12.0650   10.5610   44.8750 C.ar   23  C23         0.1759
    212  N4       -11.5930   11.7560   45.2240 N.pl3  23  C23        -0.1070
    213  C5       -13.2490   10.4680   44.0970 C.ar   23  C23         0.0566
    214  C6       -13.6800    9.2480   43.7670 C.ar   23  C23         0.0850
    215  OP1      -19.0380    8.6100   41.6110 O.2    23  C23        -0.5172
    216  OP2      -17.4710   10.5520   42.2740 O.co2  23  C23        -0.4373
    217  P         -2.0510   13.2990   49.6390 P.3    26  G26         0.1280
    218  C5'       -1.7400   10.6790   50.0510 C.3    26  G26         0.1795
    219  O5'       -2.5570   11.7850   49.6880 O.3    26  G26        -0.3259
    220  C4'       -2.5640    9.4020   49.9480 C.3    26  G26         0.1772
    221  O4'       -3.9260    9.7080   50.4090 O.3    26  G26        -0.3307
    222  C3'       -2.8040    8.8330   48.5490 C.3    26  G26         0.1860
    223  O3'       -1.7450    7.9890   48.0970 O.3    26  G26        -0.3112
    224  C2'       -4.0720    8.0060   48.7650 C.3    26  G26         0.2309
    225  O2'       -3.8760    6.7310   49.3370 O.3    26  G26        -0.2156
    226  C1'       -4.8680    8.8970   49.7170 C.3    26  G26         0.2408
    227  N1        -8.9550    9.0420   46.6900 N.ar   26  G26        -0.1709
    228  C2        -8.2690    7.9500   47.1860 C.ar   26  G26         0.2606
    229  N2        -8.7240    6.7330   46.8210 N.pl3  26  G26        -0.0859
    230  N3        -7.2130    8.0430   47.9770 N.ar   26  G26        -0.1918
    231  C4        -6.8760    9.3280   48.2250 C.ar   26  G26         0.1723
    232  C5        -7.4880   10.4830   47.7750 C.ar   26  G26         0.1748
    233  C6        -8.6360   10.3760   46.9460 C.ar   26  G26         0.3023
    234  O6        -9.3330   11.2840   46.4750 O.2    26  G26        -0.2633
    235  N7        -6.8300   11.6080   48.2570 N.ar   26  G26        -0.2173
    236  C8        -5.8490   11.1270   48.9780 C.ar   26  G26         0.1817
    237  N9        -5.8190    9.7530   49.0060 N.ar   26  G26        -0.2693
    238  OP1       -0.6900   13.3890   49.0110 O.3    26  G26        -0.1955
    239  OP2       -3.2100   14.0320   49.0310 O.co2  26  G26        -0.7863
    240  P         -1.4410    7.8710   46.5340 P.3    27  C27         0.2141
    241  C5'       -2.5080    5.5050   46.0690 C.3    27  C27         0.1812
    242  O5'       -2.5830    6.9340   45.9600 O.3    27  C27        -0.3114
    243  C4'       -3.6810    4.8730   45.3490 C.3    27  C27         0.1773
    244  O4'       -4.9170    5.3800   45.9260 O.3    27  C27        -0.3307
    245  C3'       -3.7920    5.2660   43.8910 C.3    27  C27         0.1860
    246  O3'       -2.9260    4.4830   43.0850 O.3    27  C27        -0.3112
    247  C2'       -5.2680    5.0230   43.6180 C.3    27  C27         0.2309
    248  O2'       -5.6160    3.6720   43.4190 O.3    27  C27        -0.2156
    249  C1'       -5.8910    5.5510   44.9080 C.3    27  C27         0.2420
    250  N1        -6.1790    6.9820   44.7660 N.ar   27  C27        -0.2535
    251  C2        -7.3310    7.3570   44.0830 C.ar   27  C27         0.3532
    252  O2        -8.1100    6.4760   43.7020 O.2    27  C27        -0.2443
    253  N3        -7.5670    8.6690   43.8560 N.ar   27  C27        -0.1739
    254  C4        -6.7030    9.5850   44.2940 C.ar   27  C27         0.1759
    255  N4        -6.9400   10.8600   43.9920 N.pl3  27  C27        -0.1070
    256  C5        -5.5470    9.2310   45.0440 C.ar   27  C27         0.0566
    257  C6        -5.3250    7.9300   45.2550 C.ar   27  C27         0.0850
    258  OP1       -0.1830    7.1200   46.3810 O.3    27  C27        -0.4373
    259  OP2       -1.6130    9.2080   45.9300 O.co2  27  C27        -0.5172
    260  P         -2.2130    5.1540   41.8120 P.3    28  G28         0.2141
    261  C5'       -3.9950    3.9110   40.3520 C.3    28  G28         0.1812
    262  O5'       -3.3500    5.1280   40.6950 O.3    28  G28        -0.3114
    263  C4'       -5.3210    4.1940   39.7010 C.3    28  G28         0.1773
    264  O4'       -6.1540    4.9610   40.6100 O.3    28  G28        -0.3307
    265  C3'       -5.2730    5.1040   38.4940 C.3    28  G28         0.1860
    266  O3'       -4.8010    4.4590   37.3250 O.3    28  G28        -0.3112
    267  C2'       -6.7270    5.5260   38.3840 C.3    28  G28         0.2309
    268  O2'       -7.5510    4.5450   37.7890 O.3    28  G28        -0.2156
    269  C1'       -7.0560    5.7690   39.8590 C.3    28  G28         0.2408
    270  N1        -8.4630   10.5560   38.9800 N.ar   28  G28        -0.1709
    271  C2        -9.0260    9.3820   38.5410 C.ar   28  G28         0.2606
    272  N2       -10.0830    9.5080   37.7350 N.pl3  28  G28        -0.0859
    273  N3        -8.5830    8.1770   38.8710 N.ar   28  G28        -0.1918
    274  C4        -7.5200    8.2410   39.7060 C.ar   28  G28         0.1723
    275  C5        -6.8880    9.3600   40.2130 C.ar   28  G28         0.1748
    276  C6        -7.3600   10.6490   39.8240 C.ar   28  G28         0.3023
    277  O6        -6.9110   11.7580   40.1180 O.2    28  G28        -0.2633
    278  N7        -5.8280    8.9940   41.0360 N.ar   28  G28        -0.2173
    279  C8        -5.8260    7.6870   41.0030 C.ar   28  G28         0.1817
    280  N9        -6.8140    7.1680   40.1940 N.ar   28  G28        -0.2693
    281  OP1       -1.0900    4.2890   41.3740 O.2    28  G28        -0.5172
    282  OP2       -1.9480    6.5730   42.1620 O.co2  28  G28        -0.4373
    283  P         -4.0820    5.3330   36.1900 P.3    29  U29         0.2141
    284  C5'       -6.2900    5.2430   34.7560 C.3    29  U29         0.1812
    285  O5'       -5.2970    6.0290   35.4120 O.3    29  U29        -0.3114
    286  C4'       -7.3560    6.1230   34.1440 C.3    29  U29         0.1773
    287  O4'       -8.0600    6.8690   35.1790 O.3    29  U29        -0.3307
    288  C3'       -6.9060    7.2200   33.2000 C.3    29  U29         0.1860
    289  O3'       -6.5080    6.7450   31.9230 O.3    29  U29        -0.3112
    290  C2'       -8.1500    8.1010   33.1630 C.3    29  U29         0.2309
    291  O2'       -9.2150    7.6020   32.3780 O.3    29  U29        -0.2156
    292  C1'       -8.5320    8.1030   34.6430 C.3    29  U29         0.2420
    293  N1        -7.8660    9.2000   35.3560 N.ar   29  U29        -0.2534
    294  C2        -8.3370   10.4780   35.1480 C.ar   29  U29         0.3546
    295  O2        -9.2850   10.7120   34.4330 O.2    29  U29        -0.2443
    296  N3        -7.6580   11.4670   35.8130 N.ar   29  U29        -0.1530
    297  C4        -6.5840   11.3040   36.6580 C.ar   29  U29         0.2846
    298  O4        -6.0870   12.2880   37.2070 O.2    29  U29        -0.2650
    299  C5        -6.1620    9.9470   36.8280 C.ar   29  U29         0.0814
    300  C6        -6.8040    8.9660   36.1870 C.ar   29  U29         0.0870
    301  OP1       -3.3910    4.3840   35.2860 O.2    29  U29        -0.5172
    302  OP2       -3.2910    6.3760   36.9000 O.co2  29  U29        -0.4373
    303  P         -5.2940    7.4780   31.1540 P.3    30  C30         0.2141
    304  C5'       -6.9360    9.1380   29.9510 C.3    30  C30         0.1812
    305  O5'       -5.8520    8.9400   30.8440 O.3    30  C30        -0.3114
    306  C4'       -7.2900   10.5990   29.8910 C.3    30  C30         0.1773
    307  O4'       -7.5410   11.0670   31.2420 O.3    30  C30        -0.3307
    308  C3'       -6.2010   11.5450   29.4110 C.3    30  C30         0.1860
    309  O3'       -6.1190   11.5590   27.9920 O.3    30  C30        -0.3112
    310  C2'       -6.6970   12.8780   29.9650 C.3    30  C30         0.2309
    311  O2'       -7.7760   13.4290   29.2370 O.3    30  C30        -0.2156
    312  C1'       -7.2110   12.4480   31.3380 C.3    30  C30         0.2420
    313  N1        -6.2230   12.6300   32.4150 N.ar   30  C30        -0.2535
    314  C2        -5.8810   13.9290   32.7900 C.ar   30  C30         0.3532
    315  O2        -6.4000   14.8820   32.1860 O.2    30  C30        -0.2443
    316  N3        -4.9910   14.1180   33.7960 N.ar   30  C30        -0.1739
    317  C4        -4.4470   13.0660   34.4080 C.ar   30  C30         0.1759
    318  N4        -3.5750   13.2990   35.3940 N.pl3  30  C30        -0.1070
    319  C5        -4.7710   11.7280   34.0380 C.ar   30  C30         0.0566
    320  C6        -5.6560   11.5580   33.0460 C.ar   30  C30         0.0850
    321  OP1       -5.0860    6.7600   29.8670 O.2    30  C30        -0.5172
    322  OP2       -4.1530    7.6290   32.1070 O.co2  30  C30        -0.4373
    323  P         -4.8160   12.1730   27.2740 P.3    31  A31         0.2141
    324  C5'       -5.8630   14.5770   27.2160 C.3    31  A31         0.1812
    325  O5'       -4.8300   13.7140   27.6750 O.3    31  A31        -0.3114
    326  C4'       -5.5850   15.9890   27.6550 C.3    31  A31         0.1773
    327  O4'       -5.6950   16.0850   29.1010 O.3    31  A31        -0.3307
    328  C3'       -4.1780   16.4760   27.3640 C.3    31  A31         0.1860
    329  O3'       -4.0500   16.9030   26.0150 O.3    31  A31        -0.3112
    330  C2'       -4.0350   17.6060   28.3720 C.3    31  A31         0.2309
    331  O2'       -4.7220   18.7710   27.9760 O.3    31  A31        -0.2156
    332  C1'       -4.7150   16.9860   29.5950 C.3    31  A31         0.2408
    333  N1        -1.0840   17.2690   33.2430 N.ar   31  A31        -0.2040
    334  C2        -1.8090   18.2060   32.6180 C.ar   31  A31         0.2016
    335  N3        -2.7430   18.0660   31.6770 N.ar   31  A31        -0.2048
    336  C4        -2.9190   16.7680   31.3740 C.ar   31  A31         0.1692
    337  C5        -2.2480   15.6880   31.9330 C.ar   31  A31         0.1518
    338  C6        -1.2800   15.9770   32.9200 C.ar   31  A31         0.1919
    339  N6        -0.5540   15.0550   33.5480 N.pl3  31  A31        -0.1054
    340  N7        -2.6940   14.4930   31.3790 N.ar   31  A31        -0.2193
    341  C8        -3.6090   14.8700   30.5120 C.ar   31  A31         0.1816
    342  N9        -3.7930   16.2350   30.4540 N.ar   31  A31        -0.2693
    343  OP1       -5.0210   12.0930   25.7990 O.2    31  A31        -0.5172
    344  OP2       -3.6210   11.5370   27.8980 O.co2  31  A31        -0.4373
    345  P         -2.6690   16.6560   25.2310 P.3    32  C32         0.2141
    346  C5'       -1.8970   19.0560   25.9500 C.3    32  C32         0.1812
    347  O5'       -1.6600   17.6530   25.9550 O.3    32  C32        -0.3114
    348  C4'       -0.8890   19.7500   26.8260 C.3    32  C32         0.1773
    349  O4'       -1.0820   19.3430   28.2060 O.3    32  C32        -0.3307
    350  C3'        0.5670   19.4000   26.5700 C.3    32  C32         0.1860
    351  O3'        1.1050   20.1200   25.4690 O.3    32  C32        -0.3112
    352  C2'        1.2100   19.8450   27.8710 C.3    32  C32         0.2309
    353  O2'        1.3910   21.2440   27.9240 O.3    32  C32        -0.2156
    354  C1'        0.1610   19.3930   28.8870 C.3    32  C32         0.2420
    355  N1         0.4500   18.0530   29.4190 N.ar   32  C32        -0.2535
    356  C2         1.3850   17.9290   30.4560 C.ar   32  C32         0.3532
    357  O2         1.9380   18.9580   30.8890 O.2    32  C32        -0.2443
    358  N3         1.6570   16.6970   30.9560 N.ar   32  C32        -0.1739
    359  C4         1.0360   15.6190   30.4570 C.ar   32  C32         0.1759
    360  N4         1.3290   14.4230   30.9810 N.pl3  32  C32        -0.1070
    361  C5         0.0850   15.7190   29.3980 C.ar   32  C32         0.0566
    362  C6        -0.1770   16.9430   28.9150 C.ar   32  C32         0.0850
    363  OP1       -2.8350   17.1050   23.8230 O.2    32  C32        -0.5172
    364  OP2       -2.2150   15.2680   25.5090 O.co2  32  C32        -0.4373
    365  P          2.2800   19.4620   24.5860 P.3    33  G33         0.2141
    366  C5'        4.1690   20.8680   25.7250 C.3    33  G33         0.1812
    367  O5'        3.5840   19.5960   25.4910 O.3    33  G33        -0.3114
    368  C4'        5.3280   20.7490   26.6820 C.3    33  G33         0.1773
    369  O4'        4.8550   20.2510   27.9660 O.3    33  G33        -0.3307
    370  C3'        6.4090   19.7480   26.3130 C.3    33  G33         0.1860
    371  O3'        7.2920   20.2110   25.2980 O.3    33  G33        -0.3112
    372  C2'        7.0870   19.5620   27.6570 C.3    33  G33         0.2309
    373  O2'        7.8080   20.7140   28.0320 O.3    33  G33        -0.2156
    374  C1'        5.8570   19.4260   28.5530 C.3    33  G33         0.2408
    375  N1         6.4080   14.7830   30.5710 N.ar   33  G33        -0.1709
    376  C2         7.2150   15.8920   30.6920 C.ar   33  G33         0.2606
    377  N2         8.3000   15.7510   31.4750 N.pl3  33  G33        -0.0859
    378  N3         6.9810   17.0530   30.0920 N.ar   33  G33        -0.1918
    379  C4         5.8640   17.0160   29.3390 C.ar   33  G33         0.1723
    380  C5         4.9950   15.9600   29.1370 C.ar   33  G33         0.1748
    381  C6         5.2460   14.7200   29.8100 C.ar   33  G33         0.3023
    382  O6         4.5710   13.6730   29.7980 O.2    33  G33        -0.2633
    383  N7         3.9700   16.3270   28.2710 N.ar   33  G33        -0.2173
    384  C8         4.2190   17.5800   27.9840 C.ar   33  G33         0.1817
    385  N9         5.3390   18.0640   28.6140 N.ar   33  G33        -0.2693
    386  OP1        2.4600   20.3240   23.3830 O.2    33  G33        -0.5172
    387  OP2        1.9880   18.0110   24.4240 O.co2  33  G33        -0.4373
    388  P          7.8820   19.1630   24.2210 P.3    34  C34         0.2141
    389  C5'       10.1470   19.2350   25.5320 C.3    34  C34         0.1813
    390  O5'        9.0770   18.4610   25.0060 O.3    34  C34        -0.3114
    391  C4'       11.0120   18.3910   26.4350 C.3    34  C34         0.1801
    392  O4'       10.2570   17.9840   27.6100 O.3    34  C34        -0.3306
    393  C3'       11.5140   17.0780   25.8560 C.3    34  C34         0.2161
    394  O3'       12.6640   17.2580   25.0440 O.3    34  C34        -0.2175
    395  C2'       11.8400   16.2920   27.1190 C.3    34  C34         0.2338
    396  O2'       13.0680   16.6580   27.7150 O.3    34  C34        -0.2155
    397  C1'       10.6610   16.6800   28.0070 C.3    34  C34         0.2421
    398  N1         9.5340   15.7700   27.7980 N.ar   34  C34        -0.2535
    399  C2         9.5650   14.5170   28.4210 C.ar   34  C34         0.3532
    400  O2        10.5510   14.2260   29.1320 O.2    34  C34        -0.2443
    401  N3         8.5230   13.6630   28.2380 N.ar   34  C34        -0.1739
    402  C4         7.4810   14.0360   27.4770 C.ar   34  C34         0.1759
    403  N4         6.4670   13.1800   27.3330 N.pl3  34  C34        -0.1070
    404  C5         7.4340   15.3070   26.8300 C.ar   34  C34         0.0566
    405  C6         8.4720   16.1330   27.0140 C.ar   34  C34         0.0850
    406  OP1        8.4470   19.9380   23.0900 O.2    34  C34        -0.5172
    407  OP2        6.8340   18.1380   23.9500 O.co2  34  C34        -0.4373
@<TRIPOS>BOND
     1   406   388    2
     2   386   365    2
     3   363   345    2
     4   407   388    1
     5   388   390    1
     6   388   371    1
     7   387   365    1
     8   365   351    1
     9   365   367    1
    10   390   389    1
    11   394   393    1
    12   345   364    1
    13   345   347    1
    14   345   329    1
    15   371   370    1
    16   351   350    1
    17   367   366    1
    18   389   391    1
    19   366   368    1
    20   343   323    2
    21   393   391    1
    22   393   395    1
    23   346   347    1
    24   346   348    1
    25   329   328    1
    26   370   368    1
    27   370   372    1
    28   391   392    1
    29   350   348    1
    30   350   352    1
    31   368   369    1
    32   348   349    1
    33   404   405   ar
    34   404   402   ar
    35   405   398   ar
    36   395   396    1
    37   395   397    1
    38   324   326    1
    39   324   325    1
    40   323   325    1
    41   323   344    1
    42   323   309    1
    43   403   402    1
    44   328   326    1
    45   328   330    1
    46   402   401   ar
    47   392   397    1
    48   326   327    1
    49   372   373    1
    50   372   374    1
    51   398   397    1
    52   398   399   ar
    53   352   353    1
    54   352   354    1
    55   369   374    1
    56   331   330    1
    57   384   383   ar
    58   384   385   ar
    59   309   308    1
    60   349   354    1
    61   401   399   ar
    62   383   380   ar
    63   330   332    1
    64   399   400    2
    65   374   385    1
    66   385   379   ar
    67   354   355    1
    68    18    17    2
    69   362   361   ar
    70   362   355   ar
    71   327   332    1
    72   380   379   ar
    73   380   381   ar
    74   311   310    1
    75   379   378   ar
    76    11    17   ar
    77    11    12   ar
    78   361   359   ar
    79   308   306    1
    80   308   310    1
    81   355   356   ar
    82    17    16   ar
    83   332   342    1
    84   382   381    2
    85   381   375   ar
    86    13    12    1
    87   321   303    2
    88   306   304    1
    89   306   307    1
    90    12    14   ar
    91   304   305    1
    92   310   312    1
    93   378   376   ar
    94    16    19   ar
    95    16    15   ar
    96    19    20   ar
    97   342   341   ar
    98   342   336   ar
    99   356   357    2
   100   356   358   ar
   101   359   358   ar
   102   359   360    1
   103   341   340   ar
   104    14    15   ar
   105   375   376   ar
   106    15    21   ar
   107   376   377    1
   108   305   303    1
   109    20    21   ar
   110   303   289    1
   111   303   322    1
   112    21    10    1
   113   307   312    1
   114   312   313    1
   115   336   335   ar
   116   336   337   ar
   117   340   337   ar
   118   335   334   ar
   119    10     5    1
   120    10     8    1
   121     5     4    1
   122   289   288    1
   123   337   338   ar
   124    56    55    1
   125    39    38    1
   126   315   314    2
   127    37    38   ar
   128    37    35   ar
   129   291   290    1
   130   313   314   ar
   131   313   320   ar
   132    36    35    2
   133    38    40   ar
   134    23     1    1
   135   334   333   ar
   136    35    34   ar
   137    55    54   ar
   138    55    57   ar
   139    54    60   ar
   140   314   316   ar
   141   338   333   ar
   142   338   339    1
   143     1     3    1
   144     1    22    1
   145   320   319   ar
   146     3     2    1
   147   290   288    1
   148   290   292    1
   149   288   286    1
   150     8     9    1
   151     8     6    1
   152     4     2    1
   153     4     6    1
   154    57    58   ar
   155    40    41   ar
   156    61    60    2
   157    60    59   ar
   158    34    41   ar
   159    34    33    1
   160   123   122    1
   161   316   317   ar
   162    33    28    1
   163    33    31    1
   164     6     7    1
   165   319   317   ar
   166    58    59   ar
   167    58    64   ar
   168   286   284    1
   169   286   287    1
   170    59    62   ar
   171   122   124   ar
   172   122   121   ar
   173   142   141    1
   174    28    27    1
   175   317   318    1
   176   295   294    2
   177   292   287    1
   178   292   293    1
   179   124   125   ar
   180   284   285    1
   181   121   127   ar
   182    64    53    1
   183    64    63   ar
   184   146   145    2
   185    62    63   ar
   186    53    48    1
   187    53    51    1
   188   143   138    1
   189   143   141    1
   190   143   144    1
   191   294   293   ar
   192   294   296   ar
   193    31    32    1
   194    31    29    1
   195   138   137    1
   196   301   283    2
   197   119   118    1
   198   293   300   ar
   199     7    24    1
   200   285   283    1
   201    48    47    1
   202   125   126   ar
   203   125   131   ar
   204   141   139    1
   205   127   128    2
   206   127   126   ar
   207   137   139    1
   208   137   135    1
   209    52    51    1
   210   145   144   ar
   211   145   147   ar
   212   296   297   ar
   213    27    29    1
   214    27    25    1
   215   158   157    1
   216   158   163    1
   217   120   131    1
   218   120   118    1
   219   120   115    1
   220   126   129   ar
   221   144   151   ar
   222   162   161    1
   223   131   130   ar
   224    51    49    1
   225    43    24    2
   226   118   116    1
   227   300   299   ar
   228   283   302    1
   229   283   266    1
   230   157   155    1
   231   157   159    1
   232    29    30    1
   233    26    25    1
   234    26    24    1
   235   163   161    1
   236   163   164    1
   237   139   140    1
   238   135   136    1
   239    24    42    1
   240   155   156    1
   241   140   154    1
   242   105   104    1
   243   147   148   ar
   244   297   299   ar
   245   297   298    2
   246   115   114    1
   247    47    49    1
   248    47    45    1
   249   130   129   ar
   250   161   159    1
   251   151   150   ar
   252   166   165    2
   253   160   159    1
   254   160   174    1
   255    49    50    1
   256   266   265    1
   257   164   165   ar
   258   164   171   ar
   259    30    44    1
   260    45    46    1
   261   136   134    1
   262   116   114    1
   263   116   117    1
   264   148   150   ar
   265   148   149    2
   266   156   154    1
   267   272   271    1
   268   165   167   ar
   269   104   103   ar
   270   104    99   ar
   271   268   267    1
   272    46    44    1
   273   114   112    1
   274   106   103   ar
   275   106   107   ar
   276   154   172    2
   277   154   173    1
   278   171   170   ar
   279   117   134    1
   280   175   177    1
   281   175   176    1
   282   195   174    2
   283   103   102   ar
   284    50    67    1
   285   267   265    1
   286   267   269    1
   287   178   177    1
   288   178   183    1
   289    99   100   ar
   290   265   263    1
   291    66    44    2
   292    44    65    1
   293   271   273   ar
   294   271   270   ar
   295   177   179    1
   296   174   176    1
   297   174   196    1
   298   110    89    2
   299   167   168   ar
   300    84    85   ar
   301    84    81   ar
   302   134   152    2
   303   134   153    1
   304   107   108   ar
   305   170   168   ar
   306   273   274   ar
   307   270   276   ar
   308    83    82    1
   309    85    86   ar
   310   183   181    1
   311   183   194    1
   312   112   113    1
   313   182   181    1
   314   168   169    1
   315   113   111    1
   316   102   108   ar
   317   102   101   ar
   318   100   101   ar
   319   263   261    1
   320   263   264    1
   321   274   280   ar
   322   274   275   ar
   323    88    67    2
   324    81    82   ar
   325    81    80   ar
   326    67    69    1
   327    67    87    1
   328   276   277    2
   329   276   275   ar
   330   269   280    1
   331   269   264    1
   332   108    98    1
   333   181   179    1
   334   179   180    1
   335   194   193   ar
   336   194   188   ar
   337    82    77   ar
   338    89   109    1
   339    89    91    1
   340    89    73    1
   341    69    68    1
   342   280   279   ar
   343   275   278   ar
   344   180   197    1
   345   193   192   ar
   346   133   111    2
   347   261   262    1
   348    91    90    1
   349    86    80   ar
   350    86    76    1
   351   111    95    1
   352   111   132    1
   353    72    74    1
   354    72    73    1
   355    72    70    1
   356   262   260    1
   357   188   187   ar
   358   188   189   ar
   359    96    94    1
   360    96    98    1
   361    96    97    1
   362   187   185   ar
   363    94    95    1
   364    94    92    1
   365    80    79   ar
   366    74    76    1
   367    74    75    1
   368   279   278   ar
   369   192   189   ar
   370    98    93    1
   371    71    76    1
   372    71    70    1
   373    77    78   ar
   374   189   190   ar
   375   281   260    2
   376    68    70    1
   377   185   186    1
   378   185   184   ar
   379   215   197    2
   380   197   216    1
   381   197   199    1
   382    90    92    1
   383   260   282    1
   384   260   246    1
   385    93    92    1
   386   198   199    1
   387   198   200    1
   388    79    78   ar
   389   190   184   ar
   390   190   191    2
   391   201   200    1
   392   201   206    1
   393   200   202    1
   394   246   245    1
   395   248   247    1
   396   247   245    1
   397   247   249    1
   398   252   251    2
   399   206   207    1
   400   206   204    1
   401   214   213   ar
   402   214   207   ar
   403   253   251   ar
   404   253   254   ar
   405   245   243    1
   406   255   254    1
   407   251   250   ar
   408   213   211   ar
   409   207   208   ar
   410   254   256   ar
   411   202   204    1
   412   202   203    1
   413   205   204    1
   414   250   249    1
   415   250   257   ar
   416   211   212    1
   417   211   210   ar
   418   249   244    1
   419   208   210   ar
   420   208   209    2
   421   256   257   ar
   422   243   244    1
   423   243   241    1
   424   259   240    2
   425   242   241    1
   426   242   240    1
   427   258   240    1
   428   234   233    2
   429   240   223    1
   430   227   233   ar
   431   227   228   ar
   432   229   228    1
   433   233   232   ar
   434   228   230   ar
   435   232   231   ar
   436   232   235   ar
   437   230   231   ar
   438   223   222    1
   439   231   237   ar
   440   235   236   ar
   441   222   224    1
   442   222   220    1
   443   224   225    1
   444   224   226    1
   445   236   237   ar
   446   237   226    1
   447   238   217    1
   448   239   217    1
   449   217   219    1
   450   219   218    1
   451   226   221    1
   452   220   218    1
   453   220   221    1
