ligand
  PyMOL2.2          3D                             0

 10 11  0  0  0  0  0  0  0  0999 V2000
  -30.1240   16.6940  -14.3560 N   0  0  0  0  0  0  0  0  0  0  0  0
  -30.9960   17.7030  -14.2380 C   0  0  0  0  0  0  0  0  0  0  0  0
  -31.4180   18.5580  -15.1680 N   0  0  0  0  0  0  0  0  0  0  0  0
  -30.8390   18.3000  -16.3510 C   0  0  0  0  0  0  0  0  0  0  0  0
  -29.9250   17.3020  -16.6270 C   0  0  0  0  0  0  0  0  0  0  0  0
  -29.5590   16.4600  -15.5580 C   0  0  0  0  0  0  0  0  0  0  0  0
  -28.6870   15.4530  -15.6790 N   0  0  0  0  0  0  0  0  0  0  0  0
  -29.5450   17.3380  -17.9580 N   0  0  0  0  0  0  0  0  0  0  0  0
  -30.2270   18.3450  -18.4520 C   0  0  0  0  0  0  0  0  0  0  0  0
  -31.0280   18.9710  -17.5380 N   0  0  0  0  0  0  0  0  0  0  0  0
  1  2  4  0  0  0  0
  2  3  4  0  0  0  0
  3  4  4  0  0  0  0
  4  5  4  0  0  0  0
  5  6  4  0  0  0  0
  1  6  4  0  0  0  0
  6  7  1  0  0  0  0
  5  8  4  0  0  0  0
  8  9  4  0  0  0  0
  4 10  4  0  0  0  0
  9 10  4  0  0  0  0
M  END
$$$$
