ligand
 OpenBabel11021811513D
libRbt.so/2013.1/901 2013/11/27
 10 11  0  0  0  0  0  0  0  0999 V2000
  -30.2763   16.9149  -14.2409 N   0  0  0  0  0  0  0  0  0  0  0  0
  -31.1093   17.9620  -14.2863 C   0  0  0  0  0  0  0  0  0  0  0  0
  -31.4374   18.7264  -15.3266 N   0  0  0  0  0  0  0  0  0  0  0  0
  -30.8002   18.3211  -16.4361 C   0  0  0  0  0  0  0  0  0  0  0  0
  -29.9153   17.2664  -16.5459 C   0  0  0  0  0  0  0  0  0  0  0  0
  -29.6508   16.5320  -15.3727 C   0  0  0  0  0  0  0  0  0  0  0  0
  -28.8175   15.4866  -15.3305 N   0  0  0  0  0  0  0  0  0  0  0  0
  -29.4549   17.1445  -17.8461 N   0  0  0  0  0  0  0  0  0  0  0  0
  -30.0619   18.1165  -18.4864 C   0  0  0  0  0  0  0  0  0  0  0  0
  -30.8885   18.8664  -17.6969 N   0  0  0  0  0  0  0  0  0  0  0  0
  1  2  2  0  0  0  0
  1  6  1  0  0  0  0
  2  3  1  0  0  0  0
  3  4  2  0  0  0  0
  4  5  1  0  0  0  0
  4 10  1  0  0  0  0
  5  6  2  0  0  0  0
  5  8  1  0  0  0  0
  6  7  1  0  0  0  0
  8  9  1  0  0  0  0
  9 10  2  0  0  0  0
M  END
>  <CHROM.1>
-30.23613351,17.52556665,-16.15157120,1.41108292,-0.86327776,1.90343897

>  <Name>
ligand

>  <RI>
0

>  <Rbt.Current_Directory>
/home/itssahil/PROJECTS/Mol_Feturizer/New_Systems/rnas/4TZY

>  <Rbt.Executable>
rbdock ($Id: //depot/dev/client3/rdock/2013.1/src/exe/rbdock.cxx#4 $)

>  <Rbt.Library>
libRbt.so (2013.1, Build901 2013/11/27)

>  <Rbt.Parameter_File>
/export/apps/rDock/src/rDock_2013.1_src/data/scripts/dock_solv.prm

>  <Rbt.Receptor>
prm/blind_docking_60.prm

>  <SCORE>
-13.7572

>  <SCORE.INTER>
-13.7572

>  <SCORE.INTER.CONST>
1

>  <SCORE.INTER.POLAR>
0

>  <SCORE.INTER.ROT>
0

>  <SCORE.INTER.SOLV>
8.81513

>  <SCORE.INTER.VDW>
-15.7099

>  <SCORE.INTER.norm>
-1.37572

>  <SCORE.INTRA>
0

>  <SCORE.INTRA.DIHEDRAL>
0

>  <SCORE.INTRA.DIHEDRAL.0>
0

>  <SCORE.INTRA.POLAR>
0

>  <SCORE.INTRA.POLAR.0>
0

>  <SCORE.INTRA.REPUL>
0

>  <SCORE.INTRA.REPUL.0>
0

>  <SCORE.INTRA.SOLV>
0

>  <SCORE.INTRA.SOLV.lig_0>
-23.8941

>  <SCORE.INTRA.VDW>
0

>  <SCORE.INTRA.VDW.0>
0

>  <SCORE.INTRA.norm>
0

>  <SCORE.RESTR>
2.3588e-05

>  <SCORE.RESTR.CAVITY>
2.3588e-05

>  <SCORE.RESTR.norm>
2.3588e-06

>  <SCORE.SYSTEM>
0

>  <SCORE.SYSTEM.CONST>
0

>  <SCORE.SYSTEM.DIHEDRAL>
0

>  <SCORE.SYSTEM.SOLV>
0

>  <SCORE.SYSTEM.norm>
0

>  <SCORE.heavy>
10

>  <SCORE.norm>
-1.37572

>  <RMSD>
0.249

$$$$
ligand
 OpenBabel11021811513D
libRbt.so/2013.1/901 2013/11/27
 10 11  0  0  0  0  0  0  0  0999 V2000
  -30.3837   17.0442  -14.3082 N   0  0  0  0  0  0  0  0  0  0  0  0
  -31.1692   18.1230  -14.4165 C   0  0  0  0  0  0  0  0  0  0  0  0
  -31.4242   18.8686  -15.4903 N   0  0  0  0  0  0  0  0  0  0  0  0
  -30.7625   18.4041  -16.5616 C   0  0  0  0  0  0  0  0  0  0  0  0
  -29.9196   17.3108  -16.6061 C   0  0  0  0  0  0  0  0  0  0  0  0
  -29.7320   16.6018  -15.4029 C   0  0  0  0  0  0  0  0  0  0  0  0
  -28.9461   15.5246  -15.2978 N   0  0  0  0  0  0  0  0  0  0  0  0
  -29.4151   17.1309  -17.8829 N   0  0  0  0  0  0  0  0  0  0  0  0
  -29.9551   18.1074  -18.5743 C   0  0  0  0  0  0  0  0  0  0  0  0
  -30.7788   18.9143  -17.8400 N   0  0  0  0  0  0  0  0  0  0  0  0
  1  2  2  0  0  0  0
  1  6  1  0  0  0  0
  2  3  1  0  0  0  0
  3  4  2  0  0  0  0
  4  5  1  0  0  0  0
  4 10  1  0  0  0  0
  5  6  2  0  0  0  0
  5  8  1  0  0  0  0
  6  7  1  0  0  0  0
  8  9  1  0  0  0  0
  9 10  2  0  0  0  0
M  END
>  <CHROM.1>
-30.24409576,17.59479501,-16.23237648,1.49102509,-0.88934046,1.93555024

>  <Name>
ligand

>  <RI>
0

>  <Rbt.Current_Directory>
/home/itssahil/PROJECTS/Mol_Feturizer/New_Systems/rnas/4TZY

>  <Rbt.Executable>
rbdock ($Id: //depot/dev/client3/rdock/2013.1/src/exe/rbdock.cxx#4 $)

>  <Rbt.Library>
libRbt.so (2013.1, Build901 2013/11/27)

>  <Rbt.Parameter_File>
/export/apps/rDock/src/rDock_2013.1_src/data/scripts/dock_solv.prm

>  <Rbt.Receptor>
prm/blind_docking_100.prm

>  <SCORE>
-13.7719

>  <SCORE.INTER>
-13.7721

>  <SCORE.INTER.CONST>
1

>  <SCORE.INTER.POLAR>
0

>  <SCORE.INTER.ROT>
0

>  <SCORE.INTER.SOLV>
9.12796

>  <SCORE.INTER.VDW>
-15.8241

>  <SCORE.INTER.norm>
-1.37721

>  <SCORE.INTRA>
0

>  <SCORE.INTRA.DIHEDRAL>
0

>  <SCORE.INTRA.DIHEDRAL.0>
0

>  <SCORE.INTRA.POLAR>
0

>  <SCORE.INTRA.POLAR.0>
0

>  <SCORE.INTRA.REPUL>
0

>  <SCORE.INTRA.REPUL.0>
0

>  <SCORE.INTRA.SOLV>
0

>  <SCORE.INTRA.SOLV.lig_0>
-23.8941

>  <SCORE.INTRA.VDW>
0

>  <SCORE.INTRA.VDW.0>
0

>  <SCORE.INTRA.norm>
0

>  <SCORE.RESTR>
0.00023868

>  <SCORE.RESTR.CAVITY>
0.00023868

>  <SCORE.RESTR.norm>
2.3868e-05

>  <SCORE.SYSTEM>
0

>  <SCORE.SYSTEM.CONST>
0

>  <SCORE.SYSTEM.DIHEDRAL>
0

>  <SCORE.SYSTEM.SOLV>
0

>  <SCORE.SYSTEM.norm>
0

>  <SCORE.heavy>
10

>  <SCORE.norm>
-1.37719

>  <RMSD>
0.368

$$$$
ligand
 OpenBabel11021811513D
libRbt.so/2013.1/901 2013/11/27
 10 11  0  0  0  0  0  0  0  0999 V2000
  -30.1386   16.6716  -14.5688 N   0  0  0  0  0  0  0  0  0  0  0  0
  -31.0253   17.6227  -14.2499 C   0  0  0  0  0  0  0  0  0  0  0  0
  -31.5524   18.5695  -15.0244 N   0  0  0  0  0  0  0  0  0  0  0  0
  -31.0734   18.4840  -16.2752 C   0  0  0  0  0  0  0  0  0  0  0  0
  -30.1593   17.5652  -16.7523 C   0  0  0  0  0  0  0  0  0  0  0  0
  -29.6760   16.6118  -15.8342 C   0  0  0  0  0  0  0  0  0  0  0  0
  -28.7896   15.6631  -16.1557 N   0  0  0  0  0  0  0  0  0  0  0  0
  -29.9000   17.7818  -18.0951 N   0  0  0  0  0  0  0  0  0  0  0  0
  -30.6517   18.8147  -18.3974 C   0  0  0  0  0  0  0  0  0  0  0  0
  -31.3861   19.2897  -17.3467 N   0  0  0  0  0  0  0  0  0  0  0  0
  1  2  2  0  0  0  0
  1  6  1  0  0  0  0
  2  3  1  0  0  0  0
  3  4  2  0  0  0  0
  4  5  1  0  0  0  0
  4 10  1  0  0  0  0
  5  6  2  0  0  0  0
  5  8  1  0  0  0  0
  6  7  1  0  0  0  0
  8  9  1  0  0  0  0
  9 10  2  0  0  0  0
M  END
>  <CHROM.1>
-30.42895413,17.69879552,-16.26753099,1.16029020,-0.84586124,1.94869495

>  <Name>
ligand

>  <RI>
0

>  <Rbt.Current_Directory>
/home/itssahil/PROJECTS/Mol_Feturizer/New_Systems/rnas/4TZY

>  <Rbt.Executable>
rbdock ($Id: //depot/dev/client3/rdock/2013.1/src/exe/rbdock.cxx#4 $)

>  <Rbt.Library>
libRbt.so (2013.1, Build901 2013/11/27)

>  <Rbt.Parameter_File>
/export/apps/rDock/src/rDock_2013.1_src/data/scripts/dock_solv.prm

>  <Rbt.Receptor>
prm/blind_docking_80.prm

>  <SCORE>
-14.3805

>  <SCORE.INTER>
-14.3805

>  <SCORE.INTER.CONST>
1

>  <SCORE.INTER.POLAR>
0

>  <SCORE.INTER.ROT>
0

>  <SCORE.INTER.SOLV>
8.26167

>  <SCORE.INTER.VDW>
-15.9409

>  <SCORE.INTER.norm>
-1.43805

>  <SCORE.INTRA>
0

>  <SCORE.INTRA.DIHEDRAL>
0

>  <SCORE.INTRA.DIHEDRAL.0>
0

>  <SCORE.INTRA.POLAR>
0

>  <SCORE.INTRA.POLAR.0>
0

>  <SCORE.INTRA.REPUL>
0

>  <SCORE.INTRA.REPUL.0>
0

>  <SCORE.INTRA.SOLV>
0

>  <SCORE.INTRA.SOLV.lig_0>
-23.8941

>  <SCORE.INTRA.VDW>
0

>  <SCORE.INTRA.VDW.0>
0

>  <SCORE.INTRA.norm>
0

>  <SCORE.RESTR>
1.12436e-05

>  <SCORE.RESTR.CAVITY>
1.12436e-05

>  <SCORE.RESTR.norm>
1.12436e-06

>  <SCORE.SYSTEM>
0

>  <SCORE.SYSTEM.CONST>
0

>  <SCORE.SYSTEM.DIHEDRAL>
0

>  <SCORE.SYSTEM.SOLV>
0

>  <SCORE.SYSTEM.norm>
0

>  <SCORE.heavy>
10

>  <SCORE.norm>
-1.43805

>  <RMSD>
0.416

$$$$
ligand
 OpenBabel11021811513D
libRbt.so/2013.1/901 2013/11/27
 10 11  0  0  0  0  0  0  0  0999 V2000
  -30.1329   16.6720  -14.5683 N   0  0  0  0  0  0  0  0  0  0  0  0
  -31.0162   17.6255  -14.2470 C   0  0  0  0  0  0  0  0  0  0  0  0
  -31.5425   18.5740  -15.0199 N   0  0  0  0  0  0  0  0  0  0  0  0
  -31.0667   18.4876  -16.2719 C   0  0  0  0  0  0  0  0  0  0  0  0
  -30.1562   17.5664  -16.7514 C   0  0  0  0  0  0  0  0  0  0  0  0
  -29.6734   16.6113  -15.8347 C   0  0  0  0  0  0  0  0  0  0  0  0
  -28.7904   15.6603  -16.1586 N   0  0  0  0  0  0  0  0  0  0  0  0
  -29.8994   17.7827  -18.0948 N   0  0  0  0  0  0  0  0  0  0  0  0
  -30.6489   18.8178  -18.3949 C   0  0  0  0  0  0  0  0  0  0  0  0
  -31.3796   19.2945  -17.3424 N   0  0  0  0  0  0  0  0  0  0  0  0
  1  2  2  0  0  0  0
  1  6  1  0  0  0  0
  2  3  1  0  0  0  0
  3  4  2  0  0  0  0
  4  5  1  0  0  0  0
  4 10  1  0  0  0  0
  5  6  2  0  0  0  0
  5  8  1  0  0  0  0
  6  7  1  0  0  0  0
  8  9  1  0  0  0  0
  9 10  2  0  0  0  0
M  END
>  <CHROM.1>
-30.42435364,17.70058476,-16.26597778,1.15858437,-0.84929274,1.94775173

>  <Name>
ligand

>  <RI>
0

>  <Rbt.Current_Directory>
/home/itssahil/PROJECTS/Mol_Feturizer/New_Systems/rnas/4TZY

>  <Rbt.Executable>
rbdock ($Id: //depot/dev/client3/rdock/2013.1/src/exe/rbdock.cxx#4 $)

>  <Rbt.Library>
libRbt.so (2013.1, Build901 2013/11/27)

>  <Rbt.Parameter_File>
/export/apps/rDock/src/rDock_2013.1_src/data/scripts/dock_solv.prm

>  <Rbt.Receptor>
prm/pocket_docking_6.prm

>  <SCORE>
-14.3879

>  <SCORE.INTER>
-14.3885

>  <SCORE.INTER.CONST>
1

>  <SCORE.INTER.POLAR>
0

>  <SCORE.INTER.ROT>
0

>  <SCORE.INTER.SOLV>
8.27152

>  <SCORE.INTER.VDW>
-15.9495

>  <SCORE.INTER.norm>
-1.43885

>  <SCORE.INTRA>
0

>  <SCORE.INTRA.DIHEDRAL>
0

>  <SCORE.INTRA.DIHEDRAL.0>
0

>  <SCORE.INTRA.POLAR>
0

>  <SCORE.INTRA.POLAR.0>
0

>  <SCORE.INTRA.REPUL>
0

>  <SCORE.INTRA.REPUL.0>
0

>  <SCORE.INTRA.SOLV>
0

>  <SCORE.INTRA.SOLV.lig_0>
-23.8941

>  <SCORE.INTRA.VDW>
0

>  <SCORE.INTRA.VDW.0>
0

>  <SCORE.INTRA.norm>
0

>  <SCORE.RESTR>
0.000610183

>  <SCORE.RESTR.CAVITY>
0.000610183

>  <SCORE.RESTR.norm>
6.10183e-05

>  <SCORE.SYSTEM>
0

>  <SCORE.SYSTEM.CONST>
0

>  <SCORE.SYSTEM.DIHEDRAL>
0

>  <SCORE.SYSTEM.SOLV>
0

>  <SCORE.SYSTEM.norm>
0

>  <SCORE.heavy>
10

>  <SCORE.norm>
-1.43879

>  <RMSD>
0.416

$$$$
ligand
 OpenBabel11021811513D
libRbt.so/2013.1/901 2013/11/27
 10 11  0  0  0  0  0  0  0  0999 V2000
  -30.1355   16.6801  -14.5622 N   0  0  0  0  0  0  0  0  0  0  0  0
  -31.0245   17.6293  -14.2444 C   0  0  0  0  0  0  0  0  0  0  0  0
  -31.5541   18.5738  -15.0198 N   0  0  0  0  0  0  0  0  0  0  0  0
  -31.0751   18.4881  -16.2706 C   0  0  0  0  0  0  0  0  0  0  0  0
  -30.1587   17.5711  -16.7468 C   0  0  0  0  0  0  0  0  0  0  0  0
  -29.6728   16.6199  -15.8276 C   0  0  0  0  0  0  0  0  0  0  0  0
  -28.7841   15.6731  -16.1482 N   0  0  0  0  0  0  0  0  0  0  0  0
  -29.9001   17.7867  -18.0899 N   0  0  0  0  0  0  0  0  0  0  0  0
  -30.6544   18.8173  -18.3932 C   0  0  0  0  0  0  0  0  0  0  0  0
  -31.3899   19.2917  -17.3430 N   0  0  0  0  0  0  0  0  0  0  0  0
  1  2  2  0  0  0  0
  1  6  1  0  0  0  0
  2  3  1  0  0  0  0
  3  4  2  0  0  0  0
  4  5  1  0  0  0  0
  4 10  1  0  0  0  0
  5  6  2  0  0  0  0
  5  8  1  0  0  0  0
  6  7  1  0  0  0  0
  8  9  1  0  0  0  0
  9 10  2  0  0  0  0
M  END
>  <CHROM.1>
-30.42861985,17.70451058,-16.26213833,1.15871197,-0.84355773,1.94634735

>  <Name>
ligand

>  <RI>
0

>  <Rbt.Current_Directory>
/home/itssahil/PROJECTS/Mol_Feturizer/New_Systems/rnas/4TZY

>  <Rbt.Executable>
rbdock ($Id: //depot/dev/client3/rdock/2013.1/src/exe/rbdock.cxx#4 $)

>  <Rbt.Library>
libRbt.so (2013.1, Build901 2013/11/27)

>  <Rbt.Parameter_File>
/export/apps/rDock/src/rDock_2013.1_src/data/scripts/dock_solv.prm

>  <Rbt.Receptor>
prm/blind_docking_80.prm

>  <SCORE>
-14.3819

>  <SCORE.INTER>
-14.3819

>  <SCORE.INTER.CONST>
1

>  <SCORE.INTER.POLAR>
0

>  <SCORE.INTER.ROT>
0

>  <SCORE.INTER.SOLV>
8.22508

>  <SCORE.INTER.VDW>
-15.9296

>  <SCORE.INTER.norm>
-1.43819

>  <SCORE.INTRA>
0

>  <SCORE.INTRA.DIHEDRAL>
0

>  <SCORE.INTRA.DIHEDRAL.0>
0

>  <SCORE.INTRA.POLAR>
0

>  <SCORE.INTRA.POLAR.0>
0

>  <SCORE.INTRA.REPUL>
0

>  <SCORE.INTRA.REPUL.0>
0

>  <SCORE.INTRA.SOLV>
0

>  <SCORE.INTRA.SOLV.lig_0>
-23.8941

>  <SCORE.INTRA.VDW>
0

>  <SCORE.INTRA.VDW.0>
0

>  <SCORE.INTRA.norm>
0

>  <SCORE.RESTR>
0

>  <SCORE.RESTR.CAVITY>
0

>  <SCORE.RESTR.norm>
0

>  <SCORE.SYSTEM>
0

>  <SCORE.SYSTEM.CONST>
0

>  <SCORE.SYSTEM.DIHEDRAL>
0

>  <SCORE.SYSTEM.SOLV>
0

>  <SCORE.SYSTEM.norm>
0

>  <SCORE.heavy>
10

>  <SCORE.norm>
-1.43819

>  <RMSD>
0.418

$$$$
ligand
 OpenBabel11021811513D
libRbt.so/2013.1/901 2013/11/27
 10 11  0  0  0  0  0  0  0  0999 V2000
  -30.1182   16.6862  -14.5790 N   0  0  0  0  0  0  0  0  0  0  0  0
  -31.0166   17.6260  -14.2597 C   0  0  0  0  0  0  0  0  0  0  0  0
  -31.5572   18.5651  -15.0342 N   0  0  0  0  0  0  0  0  0  0  0  0
  -31.0792   18.4846  -16.2857 C   0  0  0  0  0  0  0  0  0  0  0  0
  -30.1539   17.5773  -16.7634 C   0  0  0  0  0  0  0  0  0  0  0  0
  -29.6568   16.6311  -15.8451 C   0  0  0  0  0  0  0  0  0  0  0  0
  -28.7587   15.6936  -16.1672 N   0  0  0  0  0  0  0  0  0  0  0  0
  -29.8996   17.7958  -18.1068 N   0  0  0  0  0  0  0  0  0  0  0  0
  -30.6652   18.8185  -18.4089 C   0  0  0  0  0  0  0  0  0  0  0  0
  -31.4040   19.2850  -17.3575 N   0  0  0  0  0  0  0  0  0  0  0  0
  1  2  2  0  0  0  0
  1  6  1  0  0  0  0
  2  3  1  0  0  0  0
  3  4  2  0  0  0  0
  4  5  1  0  0  0  0
  4 10  1  0  0  0  0
  5  6  2  0  0  0  0
  5  8  1  0  0  0  0
  6  7  1  0  0  0  0
  8  9  1  0  0  0  0
  9 10  2  0  0  0  0
M  END
>  <CHROM.1>
-30.42455269,17.70780124,-16.27830668,1.15093121,-0.83435449,1.94073465

>  <Name>
ligand

>  <RI>
0

>  <Rbt.Current_Directory>
/home/itssahil/PROJECTS/Mol_Feturizer/New_Systems/rnas/4TZY

>  <Rbt.Executable>
rbdock ($Id: //depot/dev/client3/rdock/2013.1/src/exe/rbdock.cxx#4 $)

>  <Rbt.Library>
libRbt.so (2013.1, Build901 2013/11/27)

>  <Rbt.Parameter_File>
/export/apps/rDock/src/rDock_2013.1_src/data/scripts/dock_solv.prm

>  <Rbt.Receptor>
prm/pocket_docking_6.prm

>  <SCORE>
-14.3416

>  <SCORE.INTER>
-14.342

>  <SCORE.INTER.CONST>
1

>  <SCORE.INTER.POLAR>
0

>  <SCORE.INTER.ROT>
0

>  <SCORE.INTER.SOLV>
8.16426

>  <SCORE.INTER.VDW>
-15.8827

>  <SCORE.INTER.norm>
-1.4342

>  <SCORE.INTRA>
0

>  <SCORE.INTRA.DIHEDRAL>
0

>  <SCORE.INTRA.DIHEDRAL.0>
0

>  <SCORE.INTRA.POLAR>
0

>  <SCORE.INTRA.POLAR.0>
0

>  <SCORE.INTRA.REPUL>
0

>  <SCORE.INTRA.REPUL.0>
0

>  <SCORE.INTRA.SOLV>
0

>  <SCORE.INTRA.SOLV.lig_0>
-23.8941

>  <SCORE.INTRA.VDW>
0

>  <SCORE.INTRA.VDW.0>
0

>  <SCORE.INTRA.norm>
0

>  <SCORE.RESTR>
0.000355699

>  <SCORE.RESTR.CAVITY>
0.000355699

>  <SCORE.RESTR.norm>
3.55699e-05

>  <SCORE.SYSTEM>
0

>  <SCORE.SYSTEM.CONST>
0

>  <SCORE.SYSTEM.DIHEDRAL>
0

>  <SCORE.SYSTEM.SOLV>
0

>  <SCORE.SYSTEM.norm>
0

>  <SCORE.heavy>
10

>  <SCORE.norm>
-1.43416

>  <RMSD>
0.425

$$$$
ligand
 OpenBabel11021811513D
libRbt.so/2013.1/901 2013/11/27
 10 11  0  0  0  0  0  0  0  0999 V2000
  -30.1043   16.7022  -14.5998 N   0  0  0  0  0  0  0  0  0  0  0  0
  -30.9865   17.6563  -14.2776 C   0  0  0  0  0  0  0  0  0  0  0  0
  -31.5204   18.5992  -15.0522 N   0  0  0  0  0  0  0  0  0  0  0  0
  -31.0543   18.5056  -16.3073 C   0  0  0  0  0  0  0  0  0  0  0  0
  -30.1463   17.5828  -16.7883 C   0  0  0  0  0  0  0  0  0  0  0  0
  -29.6547   16.6343  -15.8695 C   0  0  0  0  0  0  0  0  0  0  0  0
  -28.7729   15.6825  -16.1944 N   0  0  0  0  0  0  0  0  0  0  0  0
  -29.9005   17.7911  -18.1350 N   0  0  0  0  0  0  0  0  0  0  0  0
  -30.6540   18.8231  -18.4357 C   0  0  0  0  0  0  0  0  0  0  0  0
  -31.3770   19.3053  -17.3804 N   0  0  0  0  0  0  0  0  0  0  0  0
  1  2  2  0  0  0  0
  1  6  1  0  0  0  0
  2  3  1  0  0  0  0
  3  4  2  0  0  0  0
  4  5  1  0  0  0  0
  4 10  1  0  0  0  0
  5  6  2  0  0  0  0
  5  8  1  0  0  0  0
  6  7  1  0  0  0  0
  8  9  1  0  0  0  0
  9 10  2  0  0  0  0
M  END
>  <CHROM.1>
-30.41077570,17.71962916,-16.30159497,1.14651772,-0.85072794,1.93239799

>  <Name>
ligand

>  <RI>
0

>  <Rbt.Current_Directory>
/home/itssahil/PROJECTS/Mol_Feturizer/New_Systems/rnas/4TZY

>  <Rbt.Executable>
rbdock ($Id: //depot/dev/client3/rdock/2013.1/src/exe/rbdock.cxx#4 $)

>  <Rbt.Library>
libRbt.so (2013.1, Build901 2013/11/27)

>  <Rbt.Parameter_File>
/export/apps/rDock/src/rDock_2013.1_src/data/scripts/dock_solv.prm

>  <Rbt.Receptor>
prm/pocket_docking_6.prm

>  <SCORE>
-14.3246

>  <SCORE.INTER>
-14.3246

>  <SCORE.INTER.CONST>
1

>  <SCORE.INTER.POLAR>
0

>  <SCORE.INTER.ROT>
0

>  <SCORE.INTER.SOLV>
8.2415

>  <SCORE.INTER.VDW>
-15.8969

>  <SCORE.INTER.norm>
-1.43246

>  <SCORE.INTRA>
0

>  <SCORE.INTRA.DIHEDRAL>
0

>  <SCORE.INTRA.DIHEDRAL.0>
0

>  <SCORE.INTRA.POLAR>
0

>  <SCORE.INTRA.POLAR.0>
0

>  <SCORE.INTRA.REPUL>
0

>  <SCORE.INTRA.REPUL.0>
0

>  <SCORE.INTRA.SOLV>
0

>  <SCORE.INTRA.SOLV.lig_0>
-23.8941

>  <SCORE.INTRA.VDW>
0

>  <SCORE.INTRA.VDW.0>
0

>  <SCORE.INTRA.norm>
0

>  <SCORE.RESTR>
0

>  <SCORE.RESTR.CAVITY>
0

>  <SCORE.RESTR.norm>
0

>  <SCORE.SYSTEM>
0

>  <SCORE.SYSTEM.CONST>
0

>  <SCORE.SYSTEM.DIHEDRAL>
0

>  <SCORE.SYSTEM.SOLV>
0

>  <SCORE.SYSTEM.norm>
0

>  <SCORE.heavy>
10

>  <SCORE.norm>
-1.43246

>  <RMSD>
0.428

$$$$
ligand
 OpenBabel11021811513D
libRbt.so/2013.1/901 2013/11/27
 10 11  0  0  0  0  0  0  0  0999 V2000
  -30.1048   16.6863  -14.6090 N   0  0  0  0  0  0  0  0  0  0  0  0
  -30.9915   17.6350  -14.2832 C   0  0  0  0  0  0  0  0  0  0  0  0
  -31.5279   18.5798  -15.0536 N   0  0  0  0  0  0  0  0  0  0  0  0
  -31.0593   18.4950  -16.3084 C   0  0  0  0  0  0  0  0  0  0  0  0
  -30.1466   17.5786  -16.7928 C   0  0  0  0  0  0  0  0  0  0  0  0
  -29.6528   16.6271  -15.8783 C   0  0  0  0  0  0  0  0  0  0  0  0
  -28.7664   15.6807  -16.2068 N   0  0  0  0  0  0  0  0  0  0  0  0
  -29.8994   17.7952  -18.1378 N   0  0  0  0  0  0  0  0  0  0  0  0
  -30.6566   18.8257  -18.4342 C   0  0  0  0  0  0  0  0  0  0  0  0
  -31.3834   19.2992  -17.3776 N   0  0  0  0  0  0  0  0  0  0  0  0
  1  2  2  0  0  0  0
  1  6  1  0  0  0  0
  2  3  1  0  0  0  0
  3  4  2  0  0  0  0
  4  5  1  0  0  0  0
  4 10  1  0  0  0  0
  5  6  2  0  0  0  0
  5  8  1  0  0  0  0
  6  7  1  0  0  0  0
  8  9  1  0  0  0  0
  9 10  2  0  0  0  0
M  END
>  <CHROM.1>
-30.41254930,17.71165462,-16.30577895,1.14677807,-0.84625299,1.93804567

>  <Name>
ligand

>  <RI>
0

>  <Rbt.Current_Directory>
/home/itssahil/PROJECTS/Mol_Feturizer/New_Systems/rnas/4TZY

>  <Rbt.Executable>
rbdock ($Id: //depot/dev/client3/rdock/2013.1/src/exe/rbdock.cxx#4 $)

>  <Rbt.Library>
libRbt.so (2013.1, Build901 2013/11/27)

>  <Rbt.Parameter_File>
/export/apps/rDock/src/rDock_2013.1_src/data/scripts/dock_solv.prm

>  <Rbt.Receptor>
prm/pocket_docking_5.prm

>  <SCORE>
-14.3503

>  <SCORE.INTER>
-14.3509

>  <SCORE.INTER.CONST>
1

>  <SCORE.INTER.POLAR>
0

>  <SCORE.INTER.ROT>
0

>  <SCORE.INTER.SOLV>
8.24774

>  <SCORE.INTER.VDW>
-15.9165

>  <SCORE.INTER.norm>
-1.43509

>  <SCORE.INTRA>
0

>  <SCORE.INTRA.DIHEDRAL>
0

>  <SCORE.INTRA.DIHEDRAL.0>
0

>  <SCORE.INTRA.POLAR>
0

>  <SCORE.INTRA.POLAR.0>
0

>  <SCORE.INTRA.REPUL>
0

>  <SCORE.INTRA.REPUL.0>
0

>  <SCORE.INTRA.SOLV>
0

>  <SCORE.INTRA.SOLV.lig_0>
-23.8941

>  <SCORE.INTRA.VDW>
0

>  <SCORE.INTRA.VDW.0>
0

>  <SCORE.INTRA.norm>
0

>  <SCORE.RESTR>
0.000647371

>  <SCORE.RESTR.CAVITY>
0.000647371

>  <SCORE.RESTR.norm>
6.47371e-05

>  <SCORE.SYSTEM>
0

>  <SCORE.SYSTEM.CONST>
0

>  <SCORE.SYSTEM.DIHEDRAL>
0

>  <SCORE.SYSTEM.SOLV>
0

>  <SCORE.SYSTEM.norm>
0

>  <SCORE.heavy>
10

>  <SCORE.norm>
-1.43503

>  <RMSD>
0.431

$$$$
ligand
 OpenBabel11021811513D
libRbt.so/2013.1/901 2013/11/27
 10 11  0  0  0  0  0  0  0  0999 V2000
  -30.1406   16.6609  -14.5919 N   0  0  0  0  0  0  0  0  0  0  0  0
  -31.0184   17.6160  -14.2611 C   0  0  0  0  0  0  0  0  0  0  0  0
  -31.5390   18.5755  -15.0242 N   0  0  0  0  0  0  0  0  0  0  0  0
  -31.0634   18.4993  -16.2769 C   0  0  0  0  0  0  0  0  0  0  0  0
  -30.1581   17.5778  -16.7658 C   0  0  0  0  0  0  0  0  0  0  0  0
  -29.6811   16.6105  -15.8589 C   0  0  0  0  0  0  0  0  0  0  0  0
  -28.8035   15.6578  -16.1924 N   0  0  0  0  0  0  0  0  0  0  0  0
  -29.8998   17.8064  -18.1068 N   0  0  0  0  0  0  0  0  0  0  0  0
  -30.6432   18.8488  -18.3964 C   0  0  0  0  0  0  0  0  0  0  0  0
  -31.3714   19.3189  -17.3391 N   0  0  0  0  0  0  0  0  0  0  0  0
  1  2  2  0  0  0  0
  1  6  1  0  0  0  0
  2  3  1  0  0  0  0
  3  4  2  0  0  0  0
  4  5  1  0  0  0  0
  4 10  1  0  0  0  0
  5  6  2  0  0  0  0
  5  8  1  0  0  0  0
  6  7  1  0  0  0  0
  8  9  1  0  0  0  0
  9 10  2  0  0  0  0
M  END
>  <CHROM.1>
-30.42563066,17.70850083,-16.27902327,1.16216766,-0.85457519,1.96075023

>  <Name>
ligand

>  <RI>
0

>  <Rbt.Current_Directory>
/home/itssahil/PROJECTS/Mol_Feturizer/New_Systems/rnas/4TZY

>  <Rbt.Executable>
rbdock ($Id: //depot/dev/client3/rdock/2013.1/src/exe/rbdock.cxx#4 $)

>  <Rbt.Library>
libRbt.so (2013.1, Build901 2013/11/27)

>  <Rbt.Parameter_File>
/export/apps/rDock/src/rDock_2013.1_src/data/scripts/dock_solv.prm

>  <Rbt.Receptor>
prm/pocket_docking_5.prm

>  <SCORE>
-14.358

>  <SCORE.INTER>
-14.3582

>  <SCORE.INTER.CONST>
1

>  <SCORE.INTER.POLAR>
0

>  <SCORE.INTER.ROT>
0

>  <SCORE.INTER.SOLV>
8.34503

>  <SCORE.INTER.VDW>
-15.9538

>  <SCORE.INTER.norm>
-1.43582

>  <SCORE.INTRA>
0

>  <SCORE.INTRA.DIHEDRAL>
0

>  <SCORE.INTRA.DIHEDRAL.0>
0

>  <SCORE.INTRA.POLAR>
0

>  <SCORE.INTRA.POLAR.0>
0

>  <SCORE.INTRA.REPUL>
0

>  <SCORE.INTRA.REPUL.0>
0

>  <SCORE.INTRA.SOLV>
0

>  <SCORE.INTRA.SOLV.lig_0>
-23.8941

>  <SCORE.INTRA.VDW>
0

>  <SCORE.INTRA.VDW.0>
0

>  <SCORE.INTRA.norm>
0

>  <SCORE.RESTR>
0.000241417

>  <SCORE.RESTR.CAVITY>
0.000241417

>  <SCORE.RESTR.norm>
2.41417e-05

>  <SCORE.SYSTEM>
0

>  <SCORE.SYSTEM.CONST>
0

>  <SCORE.SYSTEM.DIHEDRAL>
0

>  <SCORE.SYSTEM.SOLV>
0

>  <SCORE.SYSTEM.norm>
0

>  <SCORE.heavy>
10

>  <SCORE.norm>
-1.4358

>  <RMSD>
0.432

$$$$
ligand
 OpenBabel11021811513D
libRbt.so/2013.1/901 2013/11/27
 10 11  0  0  0  0  0  0  0  0999 V2000
  -30.1545   16.6591  -14.5893 N   0  0  0  0  0  0  0  0  0  0  0  0
  -31.0318   17.6156  -14.2609 C   0  0  0  0  0  0  0  0  0  0  0  0
  -31.5483   18.5763  -15.0253 N   0  0  0  0  0  0  0  0  0  0  0  0
  -31.0687   18.4999  -16.2764 C   0  0  0  0  0  0  0  0  0  0  0  0
  -30.1633   17.5772  -16.7628 C   0  0  0  0  0  0  0  0  0  0  0  0
  -29.6909   16.6086  -15.8548 C   0  0  0  0  0  0  0  0  0  0  0  0
  -28.8139   15.6546  -16.1859 N   0  0  0  0  0  0  0  0  0  0  0  0
  -29.9002   17.8060  -18.1028 N   0  0  0  0  0  0  0  0  0  0  0  0
  -30.6409   18.8498  -18.3943 C   0  0  0  0  0  0  0  0  0  0  0  0
  -31.3718   19.3205  -17.3393 N   0  0  0  0  0  0  0  0  0  0  0  0
  1  2  2  0  0  0  0
  1  6  1  0  0  0  0
  2  3  1  0  0  0  0
  3  4  2  0  0  0  0
  4  5  1  0  0  0  0
  4 10  1  0  0  0  0
  5  6  2  0  0  0  0
  5  8  1  0  0  0  0
  6  7  1  0  0  0  0
  8  9  1  0  0  0  0
  9 10  2  0  0  0  0
M  END
>  <CHROM.1>
-30.43224045,17.70805286,-16.27681996,1.16778435,-0.85485544,1.96548529

>  <Name>
ligand

>  <RI>
0

>  <Rbt.Current_Directory>
/home/itssahil/PROJECTS/Mol_Feturizer/New_Systems/rnas/4TZY

>  <Rbt.Executable>
rbdock ($Id: //depot/dev/client3/rdock/2013.1/src/exe/rbdock.cxx#4 $)

>  <Rbt.Library>
libRbt.so (2013.1, Build901 2013/11/27)

>  <Rbt.Parameter_File>
/export/apps/rDock/src/rDock_2013.1_src/data/scripts/dock_solv.prm

>  <Rbt.Receptor>
prm/pocket_docking_8.prm

>  <SCORE>
-14.3541

>  <SCORE.INTER>
-14.3541

>  <SCORE.INTER.CONST>
1

>  <SCORE.INTER.POLAR>
0

>  <SCORE.INTER.ROT>
0

>  <SCORE.INTER.SOLV>
8.36227

>  <SCORE.INTER.VDW>
-15.9569

>  <SCORE.INTER.norm>
-1.43541

>  <SCORE.INTRA>
0

>  <SCORE.INTRA.DIHEDRAL>
0

>  <SCORE.INTRA.DIHEDRAL.0>
0

>  <SCORE.INTRA.POLAR>
0

>  <SCORE.INTRA.POLAR.0>
0

>  <SCORE.INTRA.REPUL>
0

>  <SCORE.INTRA.REPUL.0>
0

>  <SCORE.INTRA.SOLV>
0

>  <SCORE.INTRA.SOLV.lig_0>
-23.8941

>  <SCORE.INTRA.VDW>
0

>  <SCORE.INTRA.VDW.0>
0

>  <SCORE.INTRA.norm>
0

>  <SCORE.RESTR>
0

>  <SCORE.RESTR.CAVITY>
0

>  <SCORE.RESTR.norm>
0

>  <SCORE.SYSTEM>
0

>  <SCORE.SYSTEM.CONST>
0

>  <SCORE.SYSTEM.DIHEDRAL>
0

>  <SCORE.SYSTEM.SOLV>
0

>  <SCORE.SYSTEM.norm>
0

>  <SCORE.heavy>
10

>  <SCORE.norm>
-1.43541

>  <RMSD>
0.432

$$$$
ligand
 OpenBabel11021811513D
libRbt.so/2013.1/901 2013/11/27
 10 11  0  0  0  0  0  0  0  0999 V2000
  -30.1560   16.6547  -14.5889 N   0  0  0  0  0  0  0  0  0  0  0  0
  -31.0368   17.6077  -14.2595 C   0  0  0  0  0  0  0  0  0  0  0  0
  -31.5551   18.5685  -15.0224 N   0  0  0  0  0  0  0  0  0  0  0  0
  -31.0734   18.4966  -16.2731 C   0  0  0  0  0  0  0  0  0  0  0  0
  -30.1645   17.5778  -16.7602 C   0  0  0  0  0  0  0  0  0  0  0  0
  -29.6903   16.6087  -15.8537 C   0  0  0  0  0  0  0  0  0  0  0  0
  -28.8098   15.6581  -16.1858 N   0  0  0  0  0  0  0  0  0  0  0  0
  -29.9000   17.8106  -18.0992 N   0  0  0  0  0  0  0  0  0  0  0  0
  -30.6436   18.8528  -18.3895 C   0  0  0  0  0  0  0  0  0  0  0  0
  -31.3775   19.3188  -17.3344 N   0  0  0  0  0  0  0  0  0  0  0  0
  1  2  2  0  0  0  0
  1  6  1  0  0  0  0
  2  3  1  0  0  0  0
  3  4  2  0  0  0  0
  4  5  1  0  0  0  0
  4 10  1  0  0  0  0
  5  6  2  0  0  0  0
  5  8  1  0  0  0  0
  6  7  1  0  0  0  0
  8  9  1  0  0  0  0
  9 10  2  0  0  0  0
M  END
>  <CHROM.1>
-30.43449671,17.70675374,-16.27432135,1.16804321,-0.85139495,1.96801379

>  <Name>
ligand

>  <RI>
0

>  <Rbt.Current_Directory>
/home/itssahil/PROJECTS/Mol_Feturizer/New_Systems/rnas/4TZY

>  <Rbt.Executable>
rbdock ($Id: //depot/dev/client3/rdock/2013.1/src/exe/rbdock.cxx#4 $)

>  <Rbt.Library>
libRbt.so (2013.1, Build901 2013/11/27)

>  <Rbt.Parameter_File>
/export/apps/rDock/src/rDock_2013.1_src/data/scripts/dock_solv.prm

>  <Rbt.Receptor>
prm/blind_docking_100.prm

>  <SCORE>
-14.3515

>  <SCORE.INTER>
-14.3515

>  <SCORE.INTER.CONST>
1

>  <SCORE.INTER.POLAR>
0

>  <SCORE.INTER.ROT>
0

>  <SCORE.INTER.SOLV>
8.34858

>  <SCORE.INTER.VDW>
-15.9506

>  <SCORE.INTER.norm>
-1.43515

>  <SCORE.INTRA>
0

>  <SCORE.INTRA.DIHEDRAL>
0

>  <SCORE.INTRA.DIHEDRAL.0>
0

>  <SCORE.INTRA.POLAR>
0

>  <SCORE.INTRA.POLAR.0>
0

>  <SCORE.INTRA.REPUL>
0

>  <SCORE.INTRA.REPUL.0>
0

>  <SCORE.INTRA.SOLV>
0

>  <SCORE.INTRA.SOLV.lig_0>
-23.8941

>  <SCORE.INTRA.VDW>
0

>  <SCORE.INTRA.VDW.0>
0

>  <SCORE.INTRA.norm>
0

>  <SCORE.RESTR>
0

>  <SCORE.RESTR.CAVITY>
0

>  <SCORE.RESTR.norm>
0

>  <SCORE.SYSTEM>
0

>  <SCORE.SYSTEM.CONST>
0

>  <SCORE.SYSTEM.DIHEDRAL>
0

>  <SCORE.SYSTEM.SOLV>
0

>  <SCORE.SYSTEM.norm>
0

>  <SCORE.heavy>
10

>  <SCORE.norm>
-1.43515

>  <RMSD>
0.435

$$$$
ligand
 OpenBabel11021811513D
libRbt.so/2013.1/901 2013/11/27
 10 11  0  0  0  0  0  0  0  0999 V2000
  -30.0413   16.6843  -14.5803 N   0  0  0  0  0  0  0  0  0  0  0  0
  -30.9567   17.6018  -14.2447 C   0  0  0  0  0  0  0  0  0  0  0  0
  -31.5302   18.5305  -15.0079 N   0  0  0  0  0  0  0  0  0  0  0  0
  -31.0686   18.4653  -16.2665 C   0  0  0  0  0  0  0  0  0  0  0  0
  -30.1295   17.5814  -16.7607 C   0  0  0  0  0  0  0  0  0  0  0  0
  -29.5972   16.6441  -15.8531 C   0  0  0  0  0  0  0  0  0  0  0  0
  -28.6822   15.7289  -16.1915 N   0  0  0  0  0  0  0  0  0  0  0  0
  -29.8998   17.8102  -18.1069 N   0  0  0  0  0  0  0  0  0  0  0  0
  -30.6933   18.8157  -18.3942 C   0  0  0  0  0  0  0  0  0  0  0  0
  -31.4275   19.2614  -17.3306 N   0  0  0  0  0  0  0  0  0  0  0  0
  1  2  2  0  0  0  0
  1  6  1  0  0  0  0
  2  3  1  0  0  0  0
  3  4  2  0  0  0  0
  4  5  1  0  0  0  0
  4 10  1  0  0  0  0
  5  6  2  0  0  0  0
  5  8  1  0  0  0  0
  6  7  1  0  0  0  0
  8  9  1  0  0  0  0
  9 10  2  0  0  0  0
M  END
>  <CHROM.1>
-30.39599916,17.70397155,-16.27132346,1.11884260,-0.81760018,1.92057104

>  <Name>
ligand

>  <RI>
0

>  <Rbt.Current_Directory>
/home/itssahil/PROJECTS/Mol_Feturizer/New_Systems/rnas/4TZY

>  <Rbt.Executable>
rbdock ($Id: //depot/dev/client3/rdock/2013.1/src/exe/rbdock.cxx#4 $)

>  <Rbt.Library>
libRbt.so (2013.1, Build901 2013/11/27)

>  <Rbt.Parameter_File>
/export/apps/rDock/src/rDock_2013.1_src/data/scripts/dock_solv.prm

>  <Rbt.Receptor>
prm/pocket_docking_6.prm

>  <SCORE>
-14.3528

>  <SCORE.INTER>
-14.3529

>  <SCORE.INTER.CONST>
1

>  <SCORE.INTER.POLAR>
0

>  <SCORE.INTER.ROT>
0

>  <SCORE.INTER.SOLV>
7.98981

>  <SCORE.INTER.VDW>
-15.8319

>  <SCORE.INTER.norm>
-1.43529

>  <SCORE.INTRA>
0

>  <SCORE.INTRA.DIHEDRAL>
0

>  <SCORE.INTRA.DIHEDRAL.0>
0

>  <SCORE.INTRA.POLAR>
0

>  <SCORE.INTRA.POLAR.0>
0

>  <SCORE.INTRA.REPUL>
0

>  <SCORE.INTRA.REPUL.0>
0

>  <SCORE.INTRA.SOLV>
0

>  <SCORE.INTRA.SOLV.lig_0>
-23.8941

>  <SCORE.INTRA.VDW>
0

>  <SCORE.INTRA.VDW.0>
0

>  <SCORE.INTRA.norm>
0

>  <SCORE.RESTR>
0.000152206

>  <SCORE.RESTR.CAVITY>
0.000152206

>  <SCORE.RESTR.norm>
1.52206e-05

>  <SCORE.SYSTEM>
0

>  <SCORE.SYSTEM.CONST>
0

>  <SCORE.SYSTEM.DIHEDRAL>
0

>  <SCORE.SYSTEM.SOLV>
0

>  <SCORE.SYSTEM.norm>
0

>  <SCORE.heavy>
10

>  <SCORE.norm>
-1.43528

>  <RMSD>
0.435

$$$$
ligand
 OpenBabel11021811513D
libRbt.so/2013.1/901 2013/11/27
 10 11  0  0  0  0  0  0  0  0999 V2000
  -30.1049   16.6928  -14.6011 N   0  0  0  0  0  0  0  0  0  0  0  0
  -30.9983   17.6346  -14.2735 C   0  0  0  0  0  0  0  0  0  0  0  0
  -31.5393   18.5788  -15.0415 N   0  0  0  0  0  0  0  0  0  0  0  0
  -31.0678   18.5016  -16.2957 C   0  0  0  0  0  0  0  0  0  0  0  0
  -30.1483   17.5928  -16.7817 C   0  0  0  0  0  0  0  0  0  0  0  0
  -29.6501   16.6411  -15.8697 C   0  0  0  0  0  0  0  0  0  0  0  0
  -28.7571   15.7017  -16.2000 N   0  0  0  0  0  0  0  0  0  0  0  0
  -29.8999   17.8158  -18.1255 N   0  0  0  0  0  0  0  0  0  0  0  0
  -30.6632   18.8426  -18.4196 C   0  0  0  0  0  0  0  0  0  0  0  0
  -31.3950   19.3075  -17.3627 N   0  0  0  0  0  0  0  0  0  0  0  0
  1  2  2  0  0  0  0
  1  6  1  0  0  0  0
  2  3  1  0  0  0  0
  3  4  2  0  0  0  0
  4  5  1  0  0  0  0
  4 10  1  0  0  0  0
  5  6  2  0  0  0  0
  5  8  1  0  0  0  0
  6  7  1  0  0  0  0
  8  9  1  0  0  0  0
  9 10  2  0  0  0  0
M  END
>  <CHROM.1>
-30.41602760,17.72237875,-16.29473920,1.14596355,-0.83961230,1.94106752

>  <Name>
ligand

>  <RI>
0

>  <Rbt.Current_Directory>
/home/itssahil/PROJECTS/Mol_Feturizer/New_Systems/rnas/4TZY

>  <Rbt.Executable>
rbdock ($Id: //depot/dev/client3/rdock/2013.1/src/exe/rbdock.cxx#4 $)

>  <Rbt.Library>
libRbt.so (2013.1, Build901 2013/11/27)

>  <Rbt.Parameter_File>
/export/apps/rDock/src/rDock_2013.1_src/data/scripts/dock_solv.prm

>  <Rbt.Receptor>
prm/pocket_docking_4.prm

>  <SCORE>
-14.351

>  <SCORE.INTER>
-14.351

>  <SCORE.INTER.CONST>
1

>  <SCORE.INTER.POLAR>
0

>  <SCORE.INTER.ROT>
0

>  <SCORE.INTER.SOLV>
8.18994

>  <SCORE.INTER.VDW>
-15.8973

>  <SCORE.INTER.norm>
-1.4351

>  <SCORE.INTRA>
0

>  <SCORE.INTRA.DIHEDRAL>
0

>  <SCORE.INTRA.DIHEDRAL.0>
0

>  <SCORE.INTRA.POLAR>
0

>  <SCORE.INTRA.POLAR.0>
0

>  <SCORE.INTRA.REPUL>
0

>  <SCORE.INTRA.REPUL.0>
0

>  <SCORE.INTRA.SOLV>
0

>  <SCORE.INTRA.SOLV.lig_0>
-23.8941

>  <SCORE.INTRA.VDW>
0

>  <SCORE.INTRA.VDW.0>
0

>  <SCORE.INTRA.norm>
0

>  <SCORE.RESTR>
6.18176e-05

>  <SCORE.RESTR.CAVITY>
6.18176e-05

>  <SCORE.RESTR.norm>
6.18176e-06

>  <SCORE.SYSTEM>
0

>  <SCORE.SYSTEM.CONST>
0

>  <SCORE.SYSTEM.DIHEDRAL>
0

>  <SCORE.SYSTEM.SOLV>
0

>  <SCORE.SYSTEM.norm>
0

>  <SCORE.heavy>
10

>  <SCORE.norm>
-1.4351

>  <RMSD>
0.439

$$$$
ligand
 OpenBabel11021811513D
libRbt.so/2013.1/901 2013/11/27
 10 11  0  0  0  0  0  0  0  0999 V2000
  -29.9932   16.7256  -14.5707 N   0  0  0  0  0  0  0  0  0  0  0  0
  -30.9143   17.6377  -14.2359 C   0  0  0  0  0  0  0  0  0  0  0  0
  -31.5051   18.5518  -15.0036 N   0  0  0  0  0  0  0  0  0  0  0  0
  -31.0560   18.4768  -16.2661 C   0  0  0  0  0  0  0  0  0  0  0  0
  -30.1131   17.5967  -16.7601 C   0  0  0  0  0  0  0  0  0  0  0  0
  -29.5619   16.6752  -15.8475 C   0  0  0  0  0  0  0  0  0  0  0  0
  -28.6413   15.7655  -16.1850 N   0  0  0  0  0  0  0  0  0  0  0  0
  -29.8998   17.8123  -18.1111 N   0  0  0  0  0  0  0  0  0  0  0  0
  -30.7063   18.8065  -18.4015 C   0  0  0  0  0  0  0  0  0  0  0  0
  -31.4339   19.2570  -17.3354 N   0  0  0  0  0  0  0  0  0  0  0  0
  1  2  2  0  0  0  0
  1  6  1  0  0  0  0
  2  3  1  0  0  0  0
  3  4  2  0  0  0  0
  4  5  1  0  0  0  0
  4 10  1  0  0  0  0
  5  6  2  0  0  0  0
  5  8  1  0  0  0  0
  6  7  1  0  0  0  0
  8  9  1  0  0  0  0
  9 10  2  0  0  0  0
M  END
>  <CHROM.1>
-30.37576595,17.72220839,-16.26937415,1.09964492,-0.81153546,1.89518964

>  <Name>
ligand

>  <RI>
0

>  <Rbt.Current_Directory>
/home/itssahil/PROJECTS/Mol_Feturizer/New_Systems/rnas/4TZY

>  <Rbt.Executable>
rbdock ($Id: //depot/dev/client3/rdock/2013.1/src/exe/rbdock.cxx#4 $)

>  <Rbt.Library>
libRbt.so (2013.1, Build901 2013/11/27)

>  <Rbt.Parameter_File>
/export/apps/rDock/src/rDock_2013.1_src/data/scripts/dock_solv.prm

>  <Rbt.Receptor>
prm/pocket_docking_6.prm

>  <SCORE>
-14.3364

>  <SCORE.INTER>
-14.3366

>  <SCORE.INTER.CONST>
1

>  <SCORE.INTER.POLAR>
0

>  <SCORE.INTER.ROT>
0

>  <SCORE.INTER.SOLV>
7.83356

>  <SCORE.INTER.VDW>
-15.7689

>  <SCORE.INTER.norm>
-1.43366

>  <SCORE.INTRA>
0

>  <SCORE.INTRA.DIHEDRAL>
0

>  <SCORE.INTRA.DIHEDRAL.0>
0

>  <SCORE.INTRA.POLAR>
0

>  <SCORE.INTRA.POLAR.0>
0

>  <SCORE.INTRA.REPUL>
0

>  <SCORE.INTRA.REPUL.0>
0

>  <SCORE.INTRA.SOLV>
0

>  <SCORE.INTRA.SOLV.lig_0>
-23.8941

>  <SCORE.INTRA.VDW>
0

>  <SCORE.INTRA.VDW.0>
0

>  <SCORE.INTRA.norm>
0

>  <SCORE.RESTR>
0.000225099

>  <SCORE.RESTR.CAVITY>
0.000225099

>  <SCORE.RESTR.norm>
2.25099e-05

>  <SCORE.SYSTEM>
0

>  <SCORE.SYSTEM.CONST>
0

>  <SCORE.SYSTEM.DIHEDRAL>
0

>  <SCORE.SYSTEM.SOLV>
0

>  <SCORE.SYSTEM.norm>
0

>  <SCORE.heavy>
10

>  <SCORE.norm>
-1.43364

>  <RMSD>
0.439

$$$$
ligand
 OpenBabel11021811513D
libRbt.so/2013.1/901 2013/11/27
 10 11  0  0  0  0  0  0  0  0999 V2000
  -30.0794   16.7156  -14.5863 N   0  0  0  0  0  0  0  0  0  0  0  0
  -30.9998   17.6339  -14.2670 C   0  0  0  0  0  0  0  0  0  0  0  0
  -31.5660   18.5568  -15.0427 N   0  0  0  0  0  0  0  0  0  0  0  0
  -31.0902   18.4839  -16.2956 C   0  0  0  0  0  0  0  0  0  0  0  0
  -30.1444   17.5981  -16.7734 C   0  0  0  0  0  0  0  0  0  0  0  0
  -29.6210   16.6676  -15.8537 C   0  0  0  0  0  0  0  0  0  0  0  0
  -28.7011   15.7516  -16.1757 N   0  0  0  0  0  0  0  0  0  0  0  0
  -29.9000   17.8184  -18.1184 N   0  0  0  0  0  0  0  0  0  0  0  0
  -30.6916   18.8209  -18.4212 C   0  0  0  0  0  0  0  0  0  0  0  0
  -31.4383   19.2725  -17.3689 N   0  0  0  0  0  0  0  0  0  0  0  0
  1  2  2  0  0  0  0
  1  6  1  0  0  0  0
  2  3  1  0  0  0  0
  3  4  2  0  0  0  0
  4  5  1  0  0  0  0
  4 10  1  0  0  0  0
  5  6  2  0  0  0  0
  5  8  1  0  0  0  0
  6  7  1  0  0  0  0
  8  9  1  0  0  0  0
  9 10  2  0  0  0  0
M  END
>  <CHROM.1>
-30.41655277,17.72357533,-16.28785994,1.13347935,-0.81240894,1.92462507

>  <Name>
ligand

>  <RI>
0

>  <Rbt.Current_Directory>
/home/itssahil/PROJECTS/Mol_Feturizer/New_Systems/rnas/4TZY

>  <Rbt.Executable>
rbdock ($Id: //depot/dev/client3/rdock/2013.1/src/exe/rbdock.cxx#4 $)

>  <Rbt.Library>
libRbt.so (2013.1, Build901 2013/11/27)

>  <Rbt.Parameter_File>
/export/apps/rDock/src/rDock_2013.1_src/data/scripts/dock_solv.prm

>  <Rbt.Receptor>
prm/blind_docking_60.prm

>  <SCORE>
-14.385

>  <SCORE.INTER>
-14.385

>  <SCORE.INTER.CONST>
1

>  <SCORE.INTER.POLAR>
0

>  <SCORE.INTER.ROT>
0

>  <SCORE.INTER.SOLV>
7.96089

>  <SCORE.INTER.VDW>
-15.8437

>  <SCORE.INTER.norm>
-1.4385

>  <SCORE.INTRA>
0

>  <SCORE.INTRA.DIHEDRAL>
0

>  <SCORE.INTRA.DIHEDRAL.0>
0

>  <SCORE.INTRA.POLAR>
0

>  <SCORE.INTRA.POLAR.0>
0

>  <SCORE.INTRA.REPUL>
0

>  <SCORE.INTRA.REPUL.0>
0

>  <SCORE.INTRA.SOLV>
0

>  <SCORE.INTRA.SOLV.lig_0>
-23.8941

>  <SCORE.INTRA.VDW>
0

>  <SCORE.INTRA.VDW.0>
0

>  <SCORE.INTRA.norm>
0

>  <SCORE.RESTR>
1.06138e-05

>  <SCORE.RESTR.CAVITY>
1.06138e-05

>  <SCORE.RESTR.norm>
1.06138e-06

>  <SCORE.SYSTEM>
0

>  <SCORE.SYSTEM.CONST>
0

>  <SCORE.SYSTEM.DIHEDRAL>
0

>  <SCORE.SYSTEM.SOLV>
0

>  <SCORE.SYSTEM.norm>
0

>  <SCORE.heavy>
10

>  <SCORE.norm>
-1.4385

>  <RMSD>
0.440

$$$$
ligand
 OpenBabel11021811513D
libRbt.so/2013.1/901 2013/11/27
 10 11  0  0  0  0  0  0  0  0999 V2000
  -30.0851   16.7161  -14.5779 N   0  0  0  0  0  0  0  0  0  0  0  0
  -31.0080   17.6324  -14.2602 C   0  0  0  0  0  0  0  0  0  0  0  0
  -31.5744   18.5545  -15.0368 N   0  0  0  0  0  0  0  0  0  0  0  0
  -31.0957   18.4832  -16.2886 C   0  0  0  0  0  0  0  0  0  0  0  0
  -30.1471   17.5995  -16.7648 C   0  0  0  0  0  0  0  0  0  0  0  0
  -29.6238   16.6696  -15.8443 C   0  0  0  0  0  0  0  0  0  0  0  0
  -28.7014   15.7556  -16.1647 N   0  0  0  0  0  0  0  0  0  0  0  0
  -29.9002   17.8209  -18.1091 N   0  0  0  0  0  0  0  0  0  0  0  0
  -30.6931   18.8219  -18.4132 C   0  0  0  0  0  0  0  0  0  0  0  0
  -31.4430   19.2715  -17.3623 N   0  0  0  0  0  0  0  0  0  0  0  0
  1  2  2  0  0  0  0
  1  6  1  0  0  0  0
  2  3  1  0  0  0  0
  3  4  2  0  0  0  0
  4  5  1  0  0  0  0
  4 10  1  0  0  0  0
  5  6  2  0  0  0  0
  5  8  1  0  0  0  0
  6  7  1  0  0  0  0
  8  9  1  0  0  0  0
  9 10  2  0  0  0  0
M  END
>  <CHROM.1>
-30.42055132,17.72417300,-16.27973186,1.13544666,-0.80976202,1.92650245

>  <Name>
ligand

>  <RI>
0

>  <Rbt.Current_Directory>
/home/itssahil/PROJECTS/Mol_Feturizer/New_Systems/rnas/4TZY

>  <Rbt.Executable>
rbdock ($Id: //depot/dev/client3/rdock/2013.1/src/exe/rbdock.cxx#4 $)

>  <Rbt.Library>
libRbt.so (2013.1, Build901 2013/11/27)

>  <Rbt.Parameter_File>
/export/apps/rDock/src/rDock_2013.1_src/data/scripts/dock_solv.prm

>  <Rbt.Receptor>
prm/pocket_docking_5.prm

>  <SCORE>
-14.3835

>  <SCORE.INTER>
-14.3835

>  <SCORE.INTER.CONST>
1

>  <SCORE.INTER.POLAR>
0

>  <SCORE.INTER.ROT>
0

>  <SCORE.INTER.SOLV>
7.9413

>  <SCORE.INTER.VDW>
-15.8361

>  <SCORE.INTER.norm>
-1.43835

>  <SCORE.INTRA>
0

>  <SCORE.INTRA.DIHEDRAL>
0

>  <SCORE.INTRA.DIHEDRAL.0>
0

>  <SCORE.INTRA.POLAR>
0

>  <SCORE.INTRA.POLAR.0>
0

>  <SCORE.INTRA.REPUL>
0

>  <SCORE.INTRA.REPUL.0>
0

>  <SCORE.INTRA.SOLV>
0

>  <SCORE.INTRA.SOLV.lig_0>
-23.8941

>  <SCORE.INTRA.VDW>
0

>  <SCORE.INTRA.VDW.0>
0

>  <SCORE.INTRA.norm>
0

>  <SCORE.RESTR>
0

>  <SCORE.RESTR.CAVITY>
0

>  <SCORE.RESTR.norm>
0

>  <SCORE.SYSTEM>
0

>  <SCORE.SYSTEM.CONST>
0

>  <SCORE.SYSTEM.DIHEDRAL>
0

>  <SCORE.SYSTEM.SOLV>
0

>  <SCORE.SYSTEM.norm>
0

>  <SCORE.heavy>
10

>  <SCORE.norm>
-1.43835

>  <RMSD>
0.440

$$$$
ligand
 OpenBabel11021811513D
libRbt.so/2013.1/901 2013/11/27
 10 11  0  0  0  0  0  0  0  0999 V2000
  -29.9993   16.7474  -14.5817 N   0  0  0  0  0  0  0  0  0  0  0  0
  -30.9214   17.6613  -14.2548 C   0  0  0  0  0  0  0  0  0  0  0  0
  -31.5114   18.5697  -15.0298 N   0  0  0  0  0  0  0  0  0  0  0  0
  -31.0601   18.4862  -16.2910 C   0  0  0  0  0  0  0  0  0  0  0  0
  -30.1160   17.6032  -16.7773 C   0  0  0  0  0  0  0  0  0  0  0  0
  -29.5659   16.6884  -15.8575 C   0  0  0  0  0  0  0  0  0  0  0  0
  -28.6442   15.7768  -16.1871 N   0  0  0  0  0  0  0  0  0  0  0  0
  -29.9006   17.8096  -18.1295 N   0  0  0  0  0  0  0  0  0  0  0  0
  -30.7071   18.8013  -18.4280 C   0  0  0  0  0  0  0  0  0  0  0  0
  -31.4367   19.2588  -17.3663 N   0  0  0  0  0  0  0  0  0  0  0  0
  1  2  2  0  0  0  0
  1  6  1  0  0  0  0
  2  3  1  0  0  0  0
  3  4  2  0  0  0  0
  4  5  1  0  0  0  0
  4 10  1  0  0  0  0
  5  6  2  0  0  0  0
  5  8  1  0  0  0  0
  6  7  1  0  0  0  0
  8  9  1  0  0  0  0
  9 10  2  0  0  0  0
M  END
>  <CHROM.1>
-30.37954211,17.73198819,-16.28789068,1.10167827,-0.81051721,1.88972491

>  <Name>
ligand

>  <RI>
0

>  <Rbt.Current_Directory>
/home/itssahil/PROJECTS/Mol_Feturizer/New_Systems/rnas/4TZY

>  <Rbt.Executable>
rbdock ($Id: //depot/dev/client3/rdock/2013.1/src/exe/rbdock.cxx#4 $)

>  <Rbt.Library>
libRbt.so (2013.1, Build901 2013/11/27)

>  <Rbt.Parameter_File>
/export/apps/rDock/src/rDock_2013.1_src/data/scripts/dock_solv.prm

>  <Rbt.Receptor>
prm/pocket_docking_5.prm

>  <SCORE>
-14.3325

>  <SCORE.INTER>
-14.3325

>  <SCORE.INTER.CONST>
1

>  <SCORE.INTER.POLAR>
0

>  <SCORE.INTER.ROT>
0

>  <SCORE.INTER.SOLV>
7.81487

>  <SCORE.INTER.VDW>
-15.7599

>  <SCORE.INTER.norm>
-1.43325

>  <SCORE.INTRA>
0

>  <SCORE.INTRA.DIHEDRAL>
0

>  <SCORE.INTRA.DIHEDRAL.0>
0

>  <SCORE.INTRA.POLAR>
0

>  <SCORE.INTRA.POLAR.0>
0

>  <SCORE.INTRA.REPUL>
0

>  <SCORE.INTRA.REPUL.0>
0

>  <SCORE.INTRA.SOLV>
0

>  <SCORE.INTRA.SOLV.lig_0>
-23.8941

>  <SCORE.INTRA.VDW>
0

>  <SCORE.INTRA.VDW.0>
0

>  <SCORE.INTRA.norm>
0

>  <SCORE.RESTR>
0

>  <SCORE.RESTR.CAVITY>
0

>  <SCORE.RESTR.norm>
0

>  <SCORE.SYSTEM>
0

>  <SCORE.SYSTEM.CONST>
0

>  <SCORE.SYSTEM.DIHEDRAL>
0

>  <SCORE.SYSTEM.SOLV>
0

>  <SCORE.SYSTEM.norm>
0

>  <SCORE.heavy>
10

>  <SCORE.norm>
-1.43325

>  <RMSD>
0.441

$$$$
ligand
 OpenBabel11021811513D
libRbt.so/2013.1/901 2013/11/27
 10 11  0  0  0  0  0  0  0  0999 V2000
  -30.0860   16.7201  -14.5677 N   0  0  0  0  0  0  0  0  0  0  0  0
  -31.0139   17.6322  -14.2521 C   0  0  0  0  0  0  0  0  0  0  0  0
  -31.5835   18.5510  -15.0302 N   0  0  0  0  0  0  0  0  0  0  0  0
  -31.1024   18.4812  -16.2812 C   0  0  0  0  0  0  0  0  0  0  0  0
  -30.1486   17.6019  -16.7553 C   0  0  0  0  0  0  0  0  0  0  0  0
  -29.6224   16.6752  -15.8333 C   0  0  0  0  0  0  0  0  0  0  0  0
  -28.6949   15.7655  -16.1516 N   0  0  0  0  0  0  0  0  0  0  0  0
  -29.9006   17.8237  -18.0993 N   0  0  0  0  0  0  0  0  0  0  0  0
  -30.6979   18.8206  -18.4054 C   0  0  0  0  0  0  0  0  0  0  0  0
  -31.4518   19.2672  -17.3560 N   0  0  0  0  0  0  0  0  0  0  0  0
  1  2  2  0  0  0  0
  1  6  1  0  0  0  0
  2  3  1  0  0  0  0
  3  4  2  0  0  0  0
  4  5  1  0  0  0  0
  4 10  1  0  0  0  0
  5  6  2  0  0  0  0
  5  8  1  0  0  0  0
  6  7  1  0  0  0  0
  8  9  1  0  0  0  0
  9 10  2  0  0  0  0
M  END
>  <CHROM.1>
-30.42353010,17.72553226,-16.27075420,1.13523846,-0.80457616,1.92572173

>  <Name>
ligand

>  <RI>
0

>  <Rbt.Current_Directory>
/home/itssahil/PROJECTS/Mol_Feturizer/New_Systems/rnas/4TZY

>  <Rbt.Executable>
rbdock ($Id: //depot/dev/client3/rdock/2013.1/src/exe/rbdock.cxx#4 $)

>  <Rbt.Library>
libRbt.so (2013.1, Build901 2013/11/27)

>  <Rbt.Parameter_File>
/export/apps/rDock/src/rDock_2013.1_src/data/scripts/dock_solv.prm

>  <Rbt.Receptor>
prm/pocket_docking_7.prm

>  <SCORE>
-14.3826

>  <SCORE.INTER>
-14.3826

>  <SCORE.INTER.CONST>
1

>  <SCORE.INTER.POLAR>
0

>  <SCORE.INTER.ROT>
0

>  <SCORE.INTER.SOLV>
7.8939

>  <SCORE.INTER.VDW>
-15.8197

>  <SCORE.INTER.norm>
-1.43826

>  <SCORE.INTRA>
0

>  <SCORE.INTRA.DIHEDRAL>
0

>  <SCORE.INTRA.DIHEDRAL.0>
0

>  <SCORE.INTRA.POLAR>
0

>  <SCORE.INTRA.POLAR.0>
0

>  <SCORE.INTRA.REPUL>
0

>  <SCORE.INTRA.REPUL.0>
0

>  <SCORE.INTRA.SOLV>
0

>  <SCORE.INTRA.SOLV.lig_0>
-23.8941

>  <SCORE.INTRA.VDW>
0

>  <SCORE.INTRA.VDW.0>
0

>  <SCORE.INTRA.norm>
0

>  <SCORE.RESTR>
0

>  <SCORE.RESTR.CAVITY>
0

>  <SCORE.RESTR.norm>
0

>  <SCORE.SYSTEM>
0

>  <SCORE.SYSTEM.CONST>
0

>  <SCORE.SYSTEM.DIHEDRAL>
0

>  <SCORE.SYSTEM.SOLV>
0

>  <SCORE.SYSTEM.norm>
0

>  <SCORE.heavy>
10

>  <SCORE.norm>
-1.43826

>  <RMSD>
0.441

$$$$
ligand
 OpenBabel11021811513D
libRbt.so/2013.1/901 2013/11/27
 10 11  0  0  0  0  0  0  0  0999 V2000
  -30.1573   16.6543  -14.5961 N   0  0  0  0  0  0  0  0  0  0  0  0
  -31.0407   17.6040  -14.2644 C   0  0  0  0  0  0  0  0  0  0  0  0
  -31.5604   18.5664  -15.0245 N   0  0  0  0  0  0  0  0  0  0  0  0
  -31.0771   18.4999  -16.2748 C   0  0  0  0  0  0  0  0  0  0  0  0
  -30.1655   17.5849  -16.7641 C   0  0  0  0  0  0  0  0  0  0  0  0
  -29.6902   16.6137  -15.8605 C   0  0  0  0  0  0  0  0  0  0  0  0
  -28.8071   15.6664  -16.1949 N   0  0  0  0  0  0  0  0  0  0  0  0
  -29.9001   17.8230  -18.1021 N   0  0  0  0  0  0  0  0  0  0  0  0
  -30.6458   18.8645  -18.3895 C   0  0  0  0  0  0  0  0  0  0  0  0
  -31.3819   19.3251  -17.3336 N   0  0  0  0  0  0  0  0  0  0  0  0
  1  2  2  0  0  0  0
  1  6  1  0  0  0  0
  2  3  1  0  0  0  0
  3  4  2  0  0  0  0
  4  5  1  0  0  0  0
  4 10  1  0  0  0  0
  5  6  2  0  0  0  0
  5  8  1  0  0  0  0
  6  7  1  0  0  0  0
  8  9  1  0  0  0  0
  9 10  2  0  0  0  0
M  END
>  <CHROM.1>
-30.43637690,17.71153062,-16.27813809,1.16822945,-0.84884372,1.97164347

>  <Name>
ligand

>  <RI>
0

>  <Rbt.Current_Directory>
/home/itssahil/PROJECTS/Mol_Feturizer/New_Systems/rnas/4TZY

>  <Rbt.Executable>
rbdock ($Id: //depot/dev/client3/rdock/2013.1/src/exe/rbdock.cxx#4 $)

>  <Rbt.Library>
libRbt.so (2013.1, Build901 2013/11/27)

>  <Rbt.Parameter_File>
/export/apps/rDock/src/rDock_2013.1_src/data/scripts/dock_solv.prm

>  <Rbt.Receptor>
prm/pocket_docking_4.prm

>  <SCORE>
-14.3492

>  <SCORE.INTER>
-14.3492

>  <SCORE.INTER.CONST>
1

>  <SCORE.INTER.POLAR>
0

>  <SCORE.INTER.ROT>
0

>  <SCORE.INTER.SOLV>
8.34246

>  <SCORE.INTER.VDW>
-15.9469

>  <SCORE.INTER.norm>
-1.43492

>  <SCORE.INTRA>
0

>  <SCORE.INTRA.DIHEDRAL>
0

>  <SCORE.INTRA.DIHEDRAL.0>
0

>  <SCORE.INTRA.POLAR>
0

>  <SCORE.INTRA.POLAR.0>
0

>  <SCORE.INTRA.REPUL>
0

>  <SCORE.INTRA.REPUL.0>
0

>  <SCORE.INTRA.SOLV>
0

>  <SCORE.INTRA.SOLV.lig_0>
-23.8941

>  <SCORE.INTRA.VDW>
0

>  <SCORE.INTRA.VDW.0>
0

>  <SCORE.INTRA.norm>
0

>  <SCORE.RESTR>
0

>  <SCORE.RESTR.CAVITY>
0

>  <SCORE.RESTR.norm>
0

>  <SCORE.SYSTEM>
0

>  <SCORE.SYSTEM.CONST>
0

>  <SCORE.SYSTEM.DIHEDRAL>
0

>  <SCORE.SYSTEM.SOLV>
0

>  <SCORE.SYSTEM.norm>
0

>  <SCORE.heavy>
10

>  <SCORE.norm>
-1.43492

>  <RMSD>
0.442

$$$$
ligand
 OpenBabel11021811513D
libRbt.so/2013.1/901 2013/11/27
 10 11  0  0  0  0  0  0  0  0999 V2000
  -30.1132   16.6798  -14.6049 N   0  0  0  0  0  0  0  0  0  0  0  0
  -31.0010   17.6248  -14.2717 C   0  0  0  0  0  0  0  0  0  0  0  0
  -31.5360   18.5771  -15.0339 N   0  0  0  0  0  0  0  0  0  0  0  0
  -31.0645   18.5050  -16.2884 C   0  0  0  0  0  0  0  0  0  0  0  0
  -30.1502   17.5938  -16.7797 C   0  0  0  0  0  0  0  0  0  0  0  0
  -29.6581   16.6334  -15.8736 C   0  0  0  0  0  0  0  0  0  0  0  0
  -28.7706   15.6907  -16.2095 N   0  0  0  0  0  0  0  0  0  0  0  0
  -29.8999   17.8238  -18.1220 N   0  0  0  0  0  0  0  0  0  0  0  0
  -30.6569   18.8569  -18.4099 C   0  0  0  0  0  0  0  0  0  0  0  0
  -31.3864   19.3196  -17.3504 N   0  0  0  0  0  0  0  0  0  0  0  0
  1  2  2  0  0  0  0
  1  6  1  0  0  0  0
  2  3  1  0  0  0  0
  3  4  2  0  0  0  0
  4  5  1  0  0  0  0
  4 10  1  0  0  0  0
  5  6  2  0  0  0  0
  5  8  1  0  0  0  0
  6  7  1  0  0  0  0
  8  9  1  0  0  0  0
  9 10  2  0  0  0  0
M  END
>  <CHROM.1>
-30.41734096,17.72187032,-16.29206938,1.14984007,-0.84501930,1.95027760

>  <Name>
ligand

>  <RI>
0

>  <Rbt.Current_Directory>
/home/itssahil/PROJECTS/Mol_Feturizer/New_Systems/rnas/4TZY

>  <Rbt.Executable>
rbdock ($Id: //depot/dev/client3/rdock/2013.1/src/exe/rbdock.cxx#4 $)

>  <Rbt.Library>
libRbt.so (2013.1, Build901 2013/11/27)

>  <Rbt.Parameter_File>
/export/apps/rDock/src/rDock_2013.1_src/data/scripts/dock_solv.prm

>  <Rbt.Receptor>
prm/pocket_docking_4.prm

>  <SCORE>
-14.3568

>  <SCORE.INTER>
-14.3569

>  <SCORE.INTER.CONST>
1

>  <SCORE.INTER.POLAR>
0

>  <SCORE.INTER.ROT>
0

>  <SCORE.INTER.SOLV>
8.24843

>  <SCORE.INTER.VDW>
-15.9208

>  <SCORE.INTER.norm>
-1.43569

>  <SCORE.INTRA>
0

>  <SCORE.INTRA.DIHEDRAL>
0

>  <SCORE.INTRA.DIHEDRAL.0>
0

>  <SCORE.INTRA.POLAR>
0

>  <SCORE.INTRA.POLAR.0>
0

>  <SCORE.INTRA.REPUL>
0

>  <SCORE.INTRA.REPUL.0>
0

>  <SCORE.INTRA.SOLV>
0

>  <SCORE.INTRA.SOLV.lig_0>
-23.8941

>  <SCORE.INTRA.VDW>
0

>  <SCORE.INTRA.VDW.0>
0

>  <SCORE.INTRA.norm>
0

>  <SCORE.RESTR>
0.000104235

>  <SCORE.RESTR.CAVITY>
0.000104235

>  <SCORE.RESTR.norm>
1.04235e-05

>  <SCORE.SYSTEM>
0

>  <SCORE.SYSTEM.CONST>
0

>  <SCORE.SYSTEM.DIHEDRAL>
0

>  <SCORE.SYSTEM.SOLV>
0

>  <SCORE.SYSTEM.norm>
0

>  <SCORE.heavy>
10

>  <SCORE.norm>
-1.43568

>  <RMSD>
0.443

$$$$
ligand
 OpenBabel11021811513D
libRbt.so/2013.1/901 2013/11/27
 10 11  0  0  0  0  0  0  0  0999 V2000
  -29.9870   16.7481  -14.5707 N   0  0  0  0  0  0  0  0  0  0  0  0
  -30.9060   17.6629  -14.2376 C   0  0  0  0  0  0  0  0  0  0  0  0
  -31.4973   18.5747  -15.0077 N   0  0  0  0  0  0  0  0  0  0  0  0
  -31.0510   18.4938  -16.2709 C   0  0  0  0  0  0  0  0  0  0  0  0
  -30.1105   17.6104  -16.7634 C   0  0  0  0  0  0  0  0  0  0  0  0
  -29.5586   16.6919  -15.8482 C   0  0  0  0  0  0  0  0  0  0  0  0
  -28.6401   15.7794  -16.1840 N   0  0  0  0  0  0  0  0  0  0  0  0
  -29.8999   17.8202  -18.1157 N   0  0  0  0  0  0  0  0  0  0  0  0
  -30.7057   18.8143  -18.4084 C   0  0  0  0  0  0  0  0  0  0  0  0
  -31.4303   19.2702  -17.3425 N   0  0  0  0  0  0  0  0  0  0  0  0
  1  2  2  0  0  0  0
  1  6  1  0  0  0  0
  2  3  1  0  0  0  0
  3  4  2  0  0  0  0
  4  5  1  0  0  0  0
  4 10  1  0  0  0  0
  5  6  2  0  0  0  0
  5  8  1  0  0  0  0
  6  7  1  0  0  0  0
  8  9  1  0  0  0  0
  9 10  2  0  0  0  0
M  END
>  <CHROM.1>
-30.37191948,17.73828552,-16.27255180,1.09722150,-0.81360391,1.88932417

>  <Name>
ligand

>  <RI>
0

>  <Rbt.Current_Directory>
/home/itssahil/PROJECTS/Mol_Feturizer/New_Systems/rnas/4TZY

>  <Rbt.Executable>
rbdock ($Id: //depot/dev/client3/rdock/2013.1/src/exe/rbdock.cxx#4 $)

>  <Rbt.Library>
libRbt.so (2013.1, Build901 2013/11/27)

>  <Rbt.Parameter_File>
/export/apps/rDock/src/rDock_2013.1_src/data/scripts/dock_solv.prm

>  <Rbt.Receptor>
prm/pocket_docking_4.prm

>  <SCORE>
-14.3444

>  <SCORE.INTER>
-14.3444

>  <SCORE.INTER.CONST>
1

>  <SCORE.INTER.POLAR>
0

>  <SCORE.INTER.ROT>
0

>  <SCORE.INTER.SOLV>
7.80384

>  <SCORE.INTER.VDW>
-15.7642

>  <SCORE.INTER.norm>
-1.43444

>  <SCORE.INTRA>
0

>  <SCORE.INTRA.DIHEDRAL>
0

>  <SCORE.INTRA.DIHEDRAL.0>
0

>  <SCORE.INTRA.POLAR>
0

>  <SCORE.INTRA.POLAR.0>
0

>  <SCORE.INTRA.REPUL>
0

>  <SCORE.INTRA.REPUL.0>
0

>  <SCORE.INTRA.SOLV>
0

>  <SCORE.INTRA.SOLV.lig_0>
-23.8941

>  <SCORE.INTRA.VDW>
0

>  <SCORE.INTRA.VDW.0>
0

>  <SCORE.INTRA.norm>
0

>  <SCORE.RESTR>
7.78707e-05

>  <SCORE.RESTR.CAVITY>
7.78707e-05

>  <SCORE.RESTR.norm>
7.78707e-06

>  <SCORE.SYSTEM>
0

>  <SCORE.SYSTEM.CONST>
0

>  <SCORE.SYSTEM.DIHEDRAL>
0

>  <SCORE.SYSTEM.SOLV>
0

>  <SCORE.SYSTEM.norm>
0

>  <SCORE.heavy>
10

>  <SCORE.norm>
-1.43444

>  <RMSD>
0.444

$$$$
ligand
 OpenBabel11021811513D
libRbt.so/2013.1/901 2013/11/27
 10 11  0  0  0  0  0  0  0  0999 V2000
  -30.1385   16.6674  -14.5938 N   0  0  0  0  0  0  0  0  0  0  0  0
  -31.0145   17.6223  -14.2572 C   0  0  0  0  0  0  0  0  0  0  0  0
  -31.5344   18.5864  -15.0150 N   0  0  0  0  0  0  0  0  0  0  0  0
  -31.0603   18.5157  -16.2686 C   0  0  0  0  0  0  0  0  0  0  0  0
  -30.1570   17.5953  -16.7630 C   0  0  0  0  0  0  0  0  0  0  0  0
  -29.6805   16.6227  -15.8615 C   0  0  0  0  0  0  0  0  0  0  0  0
  -28.8048   15.6703  -16.2008 N   0  0  0  0  0  0  0  0  0  0  0  0
  -29.8997   17.8302  -18.1032 N   0  0  0  0  0  0  0  0  0  0  0  0
  -30.6419   18.8752  -18.3867 C   0  0  0  0  0  0  0  0  0  0  0  0
  -31.3681   19.3411  -17.3264 N   0  0  0  0  0  0  0  0  0  0  0  0
  1  2  2  0  0  0  0
  1  6  1  0  0  0  0
  2  3  1  0  0  0  0
  3  4  2  0  0  0  0
  4  5  1  0  0  0  0
  4 10  1  0  0  0  0
  5  6  2  0  0  0  0
  5  8  1  0  0  0  0
  6  7  1  0  0  0  0
  8  9  1  0  0  0  0
  9 10  2  0  0  0  0
M  END
>  <CHROM.1>
-30.42375395,17.72393343,-16.27533497,1.16153477,-0.85644611,1.96527024

>  <Name>
ligand

>  <RI>
0

>  <Rbt.Current_Directory>
/home/itssahil/PROJECTS/Mol_Feturizer/New_Systems/rnas/4TZY

>  <Rbt.Executable>
rbdock ($Id: //depot/dev/client3/rdock/2013.1/src/exe/rbdock.cxx#4 $)

>  <Rbt.Library>
libRbt.so (2013.1, Build901 2013/11/27)

>  <Rbt.Parameter_File>
/export/apps/rDock/src/rDock_2013.1_src/data/scripts/dock_solv.prm

>  <Rbt.Receptor>
prm/pocket_docking_5.prm

>  <SCORE>
-14.3246

>  <SCORE.INTER>
-14.3249

>  <SCORE.INTER.CONST>
1

>  <SCORE.INTER.POLAR>
0

>  <SCORE.INTER.ROT>
0

>  <SCORE.INTER.SOLV>
8.34322

>  <SCORE.INTER.VDW>
-15.931

>  <SCORE.INTER.norm>
-1.43249

>  <SCORE.INTRA>
0

>  <SCORE.INTRA.DIHEDRAL>
0

>  <SCORE.INTRA.DIHEDRAL.0>
0

>  <SCORE.INTRA.POLAR>
0

>  <SCORE.INTRA.POLAR.0>
0

>  <SCORE.INTRA.REPUL>
0

>  <SCORE.INTRA.REPUL.0>
0

>  <SCORE.INTRA.SOLV>
0

>  <SCORE.INTRA.SOLV.lig_0>
-23.8941

>  <SCORE.INTRA.VDW>
0

>  <SCORE.INTRA.VDW.0>
0

>  <SCORE.INTRA.norm>
0

>  <SCORE.RESTR>
0.000270275

>  <SCORE.RESTR.CAVITY>
0.000270275

>  <SCORE.RESTR.norm>
2.70275e-05

>  <SCORE.SYSTEM>
0

>  <SCORE.SYSTEM.CONST>
0

>  <SCORE.SYSTEM.DIHEDRAL>
0

>  <SCORE.SYSTEM.SOLV>
0

>  <SCORE.SYSTEM.norm>
0

>  <SCORE.heavy>
10

>  <SCORE.norm>
-1.43246

>  <RMSD>
0.444

$$$$
ligand
 OpenBabel11021811513D
libRbt.so/2013.1/901 2013/11/27
 10 11  0  0  0  0  0  0  0  0999 V2000
  -29.9969   16.7410  -14.5765 N   0  0  0  0  0  0  0  0  0  0  0  0
  -30.9189   17.6529  -14.2441 C   0  0  0  0  0  0  0  0  0  0  0  0
  -31.5094   18.5657  -15.0137 N   0  0  0  0  0  0  0  0  0  0  0  0
  -31.0586   18.4893  -16.2756 C   0  0  0  0  0  0  0  0  0  0  0  0
  -30.1146   17.6091  -16.7673 C   0  0  0  0  0  0  0  0  0  0  0  0
  -29.5640   16.6892  -15.8527 C   0  0  0  0  0  0  0  0  0  0  0  0
  -28.6425   15.7795  -16.1879 N   0  0  0  0  0  0  0  0  0  0  0  0
  -29.8997   17.8231  -18.1183 N   0  0  0  0  0  0  0  0  0  0  0  0
  -30.7065   18.8164  -18.4110 C   0  0  0  0  0  0  0  0  0  0  0  0
  -31.4357   19.2678  -17.3464 N   0  0  0  0  0  0  0  0  0  0  0  0
  1  2  2  0  0  0  0
  1  6  1  0  0  0  0
  2  3  1  0  0  0  0
  3  4  2  0  0  0  0
  4  5  1  0  0  0  0
  4 10  1  0  0  0  0
  5  6  2  0  0  0  0
  5  8  1  0  0  0  0
  6  7  1  0  0  0  0
  8  9  1  0  0  0  0
  9 10  2  0  0  0  0
M  END
>  <CHROM.1>
-30.37794642,17.73510704,-16.27698134,1.10105926,-0.81058033,1.89487864

>  <Name>
ligand

>  <RI>
0

>  <Rbt.Current_Directory>
/home/itssahil/PROJECTS/Mol_Feturizer/New_Systems/rnas/4TZY

>  <Rbt.Executable>
rbdock ($Id: //depot/dev/client3/rdock/2013.1/src/exe/rbdock.cxx#4 $)

>  <Rbt.Library>
libRbt.so (2013.1, Build901 2013/11/27)

>  <Rbt.Parameter_File>
/export/apps/rDock/src/rDock_2013.1_src/data/scripts/dock_solv.prm

>  <Rbt.Receptor>
prm/pocket_docking_5.prm

>  <SCORE>
-14.3417

>  <SCORE.INTER>
-14.342

>  <SCORE.INTER.CONST>
1

>  <SCORE.INTER.POLAR>
0

>  <SCORE.INTER.ROT>
0

>  <SCORE.INTER.SOLV>
7.81245

>  <SCORE.INTER.VDW>
-15.7655

>  <SCORE.INTER.norm>
-1.4342

>  <SCORE.INTRA>
0

>  <SCORE.INTRA.DIHEDRAL>
0

>  <SCORE.INTRA.DIHEDRAL.0>
0

>  <SCORE.INTRA.POLAR>
0

>  <SCORE.INTRA.POLAR.0>
0

>  <SCORE.INTRA.REPUL>
0

>  <SCORE.INTRA.REPUL.0>
0

>  <SCORE.INTRA.SOLV>
0

>  <SCORE.INTRA.SOLV.lig_0>
-23.8941

>  <SCORE.INTRA.VDW>
0

>  <SCORE.INTRA.VDW.0>
0

>  <SCORE.INTRA.norm>
0

>  <SCORE.RESTR>
0.000252385

>  <SCORE.RESTR.CAVITY>
0.000252385

>  <SCORE.RESTR.norm>
2.52385e-05

>  <SCORE.SYSTEM>
0

>  <SCORE.SYSTEM.CONST>
0

>  <SCORE.SYSTEM.DIHEDRAL>
0

>  <SCORE.SYSTEM.SOLV>
0

>  <SCORE.SYSTEM.norm>
0

>  <SCORE.heavy>
10

>  <SCORE.norm>
-1.43417

>  <RMSD>
0.446

$$$$
ligand
 OpenBabel11021811513D
libRbt.so/2013.1/901 2013/11/27
 10 11  0  0  0  0  0  0  0  0999 V2000
  -29.9904   16.7438  -14.5740 N   0  0  0  0  0  0  0  0  0  0  0  0
  -30.9107   17.6569  -14.2397 C   0  0  0  0  0  0  0  0  0  0  0  0
  -31.5017   18.5703  -15.0081 N   0  0  0  0  0  0  0  0  0  0  0  0
  -31.0536   18.4934  -16.2708 C   0  0  0  0  0  0  0  0  0  0  0  0
  -30.1116   17.6122  -16.7645 C   0  0  0  0  0  0  0  0  0  0  0  0
  -29.5602   16.6916  -15.8511 C   0  0  0  0  0  0  0  0  0  0  0  0
  -28.6404   15.7809  -16.1882 N   0  0  0  0  0  0  0  0  0  0  0  0
  -29.8992   17.8260  -18.1159 N   0  0  0  0  0  0  0  0  0  0  0  0
  -30.7055   18.8202  -18.4069 C   0  0  0  0  0  0  0  0  0  0  0  0
  -31.4320   19.2725  -17.3408 N   0  0  0  0  0  0  0  0  0  0  0  0
  1  2  2  0  0  0  0
  1  6  1  0  0  0  0
  2  3  1  0  0  0  0
  3  4  2  0  0  0  0
  4  5  1  0  0  0  0
  4 10  1  0  0  0  0
  5  6  2  0  0  0  0
  5  8  1  0  0  0  0
  6  7  1  0  0  0  0
  8  9  1  0  0  0  0
  9 10  2  0  0  0  0
M  END
>  <CHROM.1>
-30.37378773,17.73848694,-16.27364874,1.09877785,-0.81232064,1.89326035

>  <Name>
ligand

>  <RI>
0

>  <Rbt.Current_Directory>
/home/itssahil/PROJECTS/Mol_Feturizer/New_Systems/rnas/4TZY

>  <Rbt.Executable>
rbdock ($Id: //depot/dev/client3/rdock/2013.1/src/exe/rbdock.cxx#4 $)

>  <Rbt.Library>
libRbt.so (2013.1, Build901 2013/11/27)

>  <Rbt.Parameter_File>
/export/apps/rDock/src/rDock_2013.1_src/data/scripts/dock_solv.prm

>  <Rbt.Receptor>
prm/pocket_docking_4.prm

>  <SCORE>
-14.3459

>  <SCORE.INTER>
-14.3467

>  <SCORE.INTER.CONST>
1

>  <SCORE.INTER.POLAR>
0

>  <SCORE.INTER.ROT>
0

>  <SCORE.INTER.SOLV>
7.80778

>  <SCORE.INTER.VDW>
-15.767

>  <SCORE.INTER.norm>
-1.43467

>  <SCORE.INTRA>
0

>  <SCORE.INTRA.DIHEDRAL>
0

>  <SCORE.INTRA.DIHEDRAL.0>
0

>  <SCORE.INTRA.POLAR>
0

>  <SCORE.INTRA.POLAR.0>
0

>  <SCORE.INTRA.REPUL>
0

>  <SCORE.INTRA.REPUL.0>
0

>  <SCORE.INTRA.SOLV>
0

>  <SCORE.INTRA.SOLV.lig_0>
-23.8941

>  <SCORE.INTRA.VDW>
0

>  <SCORE.INTRA.VDW.0>
0

>  <SCORE.INTRA.norm>
0

>  <SCORE.RESTR>
0.000750896

>  <SCORE.RESTR.CAVITY>
0.000750896

>  <SCORE.RESTR.norm>
7.50896e-05

>  <SCORE.SYSTEM>
0

>  <SCORE.SYSTEM.CONST>
0

>  <SCORE.SYSTEM.DIHEDRAL>
0

>  <SCORE.SYSTEM.SOLV>
0

>  <SCORE.SYSTEM.norm>
0

>  <SCORE.heavy>
10

>  <SCORE.norm>
-1.43459

>  <RMSD>
0.447

$$$$
ligand
 OpenBabel11021811513D
libRbt.so/2013.1/901 2013/11/27
 10 11  0  0  0  0  0  0  0  0999 V2000
  -30.0030   16.7395  -14.5765 N   0  0  0  0  0  0  0  0  0  0  0  0
  -30.9298   17.6471  -14.2455 C   0  0  0  0  0  0  0  0  0  0  0  0
  -31.5218   18.5584  -15.0156 N   0  0  0  0  0  0  0  0  0  0  0  0
  -31.0670   18.4858  -16.2762 C   0  0  0  0  0  0  0  0  0  0  0  0
  -30.1178   17.6103  -16.7663 C   0  0  0  0  0  0  0  0  0  0  0  0
  -29.5661   16.6914  -15.8515 C   0  0  0  0  0  0  0  0  0  0  0  0
  -28.6397   15.7861  -16.1853 N   0  0  0  0  0  0  0  0  0  0  0  0
  -29.8999   17.8271  -18.1164 N   0  0  0  0  0  0  0  0  0  0  0  0
  -30.7100   18.8175  -18.4101 C   0  0  0  0  0  0  0  0  0  0  0  0
  -31.4442   19.2643  -17.3470 N   0  0  0  0  0  0  0  0  0  0  0  0
  1  2  2  0  0  0  0
  1  6  1  0  0  0  0
  2  3  1  0  0  0  0
  3  4  2  0  0  0  0
  4  5  1  0  0  0  0
  4 10  1  0  0  0  0
  5  6  2  0  0  0  0
  5  8  1  0  0  0  0
  6  7  1  0  0  0  0
  8  9  1  0  0  0  0
  9 10  2  0  0  0  0
M  END
>  <CHROM.1>
-30.38315369,17.73448214,-16.27667772,1.10319043,-0.80563269,1.89787384

>  <Name>
ligand

>  <RI>
0

>  <Rbt.Current_Directory>
/home/itssahil/PROJECTS/Mol_Feturizer/New_Systems/rnas/4TZY

>  <Rbt.Executable>
rbdock ($Id: //depot/dev/client3/rdock/2013.1/src/exe/rbdock.cxx#4 $)

>  <Rbt.Library>
libRbt.so (2013.1, Build901 2013/11/27)

>  <Rbt.Parameter_File>
/export/apps/rDock/src/rDock_2013.1_src/data/scripts/dock_solv.prm

>  <Rbt.Receptor>
prm/pocket_docking_6.prm

>  <SCORE>
-14.3413

>  <SCORE.INTER>
-14.3415

>  <SCORE.INTER.CONST>
1

>  <SCORE.INTER.POLAR>
0

>  <SCORE.INTER.ROT>
0

>  <SCORE.INTER.SOLV>
7.79009

>  <SCORE.INTER.VDW>
-15.7577

>  <SCORE.INTER.norm>
-1.43415

>  <SCORE.INTRA>
0

>  <SCORE.INTRA.DIHEDRAL>
0

>  <SCORE.INTRA.DIHEDRAL.0>
0

>  <SCORE.INTRA.POLAR>
0

>  <SCORE.INTRA.POLAR.0>
0

>  <SCORE.INTRA.REPUL>
0

>  <SCORE.INTRA.REPUL.0>
0

>  <SCORE.INTRA.SOLV>
0

>  <SCORE.INTRA.SOLV.lig_0>
-23.8941

>  <SCORE.INTRA.VDW>
0

>  <SCORE.INTRA.VDW.0>
0

>  <SCORE.INTRA.norm>
0

>  <SCORE.RESTR>
0.000144562

>  <SCORE.RESTR.CAVITY>
0.000144562

>  <SCORE.RESTR.norm>
1.44562e-05

>  <SCORE.SYSTEM>
0

>  <SCORE.SYSTEM.CONST>
0

>  <SCORE.SYSTEM.DIHEDRAL>
0

>  <SCORE.SYSTEM.SOLV>
0

>  <SCORE.SYSTEM.norm>
0

>  <SCORE.heavy>
10

>  <SCORE.norm>
-1.43413

>  <RMSD>
0.448

$$$$
ligand
 OpenBabel11021811513D
libRbt.so/2013.1/901 2013/11/27
 10 11  0  0  0  0  0  0  0  0999 V2000
  -30.0876   16.7164  -14.5750 N   0  0  0  0  0  0  0  0  0  0  0  0
  -31.0127   17.6289  -14.2527 C   0  0  0  0  0  0  0  0  0  0  0  0
  -31.5798   18.5549  -15.0241 N   0  0  0  0  0  0  0  0  0  0  0  0
  -31.0993   18.4926  -16.2757 C   0  0  0  0  0  0  0  0  0  0  0  0
  -30.1482   17.6139  -16.7562 C   0  0  0  0  0  0  0  0  0  0  0  0
  -29.6245   16.6791  -15.8410 C   0  0  0  0  0  0  0  0  0  0  0  0
  -28.6998   15.7689  -16.1661 N   0  0  0  0  0  0  0  0  0  0  0  0
  -29.8999   17.8444  -18.0987 N   0  0  0  0  0  0  0  0  0  0  0  0
  -30.6943   18.8458  -18.3974 C   0  0  0  0  0  0  0  0  0  0  0  0
  -31.4465   19.2872  -17.3447 N   0  0  0  0  0  0  0  0  0  0  0  0
  1  2  2  0  0  0  0
  1  6  1  0  0  0  0
  2  3  1  0  0  0  0
  3  4  2  0  0  0  0
  4  5  1  0  0  0  0
  4 10  1  0  0  0  0
  5  6  2  0  0  0  0
  5  8  1  0  0  0  0
  6  7  1  0  0  0  0
  8  9  1  0  0  0  0
  9 10  2  0  0  0  0
M  END
>  <CHROM.1>
-30.42263217,17.73486609,-16.27074831,1.13637589,-0.80746114,1.93364131

>  <Name>
ligand

>  <RI>
0

>  <Rbt.Current_Directory>
/home/itssahil/PROJECTS/Mol_Feturizer/New_Systems/rnas/4TZY

>  <Rbt.Executable>
rbdock ($Id: //depot/dev/client3/rdock/2013.1/src/exe/rbdock.cxx#4 $)

>  <Rbt.Library>
libRbt.so (2013.1, Build901 2013/11/27)

>  <Rbt.Parameter_File>
/export/apps/rDock/src/rDock_2013.1_src/data/scripts/dock_solv.prm

>  <Rbt.Receptor>
prm/pocket_docking_6.prm

>  <SCORE>
-14.3488

>  <SCORE.INTER>
-14.3489

>  <SCORE.INTER.CONST>
1

>  <SCORE.INTER.POLAR>
0

>  <SCORE.INTER.ROT>
0

>  <SCORE.INTER.SOLV>
7.92081

>  <SCORE.INTER.VDW>
-15.8062

>  <SCORE.INTER.norm>
-1.43489

>  <SCORE.INTRA>
0

>  <SCORE.INTRA.DIHEDRAL>
0

>  <SCORE.INTRA.DIHEDRAL.0>
0

>  <SCORE.INTRA.POLAR>
0

>  <SCORE.INTRA.POLAR.0>
0

>  <SCORE.INTRA.REPUL>
0

>  <SCORE.INTRA.REPUL.0>
0

>  <SCORE.INTRA.SOLV>
0

>  <SCORE.INTRA.SOLV.lig_0>
-23.8941

>  <SCORE.INTRA.VDW>
0

>  <SCORE.INTRA.VDW.0>
0

>  <SCORE.INTRA.norm>
0

>  <SCORE.RESTR>
0.000125168

>  <SCORE.RESTR.CAVITY>
0.000125168

>  <SCORE.RESTR.norm>
1.25168e-05

>  <SCORE.SYSTEM>
0

>  <SCORE.SYSTEM.CONST>
0

>  <SCORE.SYSTEM.DIHEDRAL>
0

>  <SCORE.SYSTEM.SOLV>
0

>  <SCORE.SYSTEM.norm>
0

>  <SCORE.heavy>
10

>  <SCORE.norm>
-1.43488

>  <RMSD>
0.451

$$$$
ligand
 OpenBabel11021811513D
libRbt.so/2013.1/901 2013/11/27
 10 11  0  0  0  0  0  0  0  0999 V2000
  -30.0997   16.6863  -14.6162 N   0  0  0  0  0  0  0  0  0  0  0  0
  -30.9946   17.6239  -14.2808 C   0  0  0  0  0  0  0  0  0  0  0  0
  -31.5380   18.5728  -15.0412 N   0  0  0  0  0  0  0  0  0  0  0  0
  -31.0673   18.5061  -16.2963 C   0  0  0  0  0  0  0  0  0  0  0  0
  -30.1464   17.6028  -16.7898 C   0  0  0  0  0  0  0  0  0  0  0  0
  -29.6457   16.6452  -15.8854 C   0  0  0  0  0  0  0  0  0  0  0  0
  -28.7511   15.7100  -16.2236 N   0  0  0  0  0  0  0  0  0  0  0  0
  -29.8994   17.8366  -18.1320 N   0  0  0  0  0  0  0  0  0  0  0  0
  -30.6648   18.8641  -18.4177 C   0  0  0  0  0  0  0  0  0  0  0  0
  -31.3968   19.3196  -17.3568 N   0  0  0  0  0  0  0  0  0  0  0  0
  1  2  2  0  0  0  0
  1  6  1  0  0  0  0
  2  3  1  0  0  0  0
  3  4  2  0  0  0  0
  4  5  1  0  0  0  0
  4 10  1  0  0  0  0
  5  6  2  0  0  0  0
  5  8  1  0  0  0  0
  6  7  1  0  0  0  0
  8  9  1  0  0  0  0
  9 10  2  0  0  0  0
M  END
>  <CHROM.1>
-30.41398106,17.72818471,-16.30166918,1.14393621,-0.83806402,1.94720406

>  <Name>
ligand

>  <RI>
0

>  <Rbt.Current_Directory>
/home/itssahil/PROJECTS/Mol_Feturizer/New_Systems/rnas/4TZY

>  <Rbt.Executable>
rbdock ($Id: //depot/dev/client3/rdock/2013.1/src/exe/rbdock.cxx#4 $)

>  <Rbt.Library>
libRbt.so (2013.1, Build901 2013/11/27)

>  <Rbt.Parameter_File>
/export/apps/rDock/src/rDock_2013.1_src/data/scripts/dock_solv.prm

>  <Rbt.Receptor>
prm/pocket_docking_4.prm

>  <SCORE>
-14.3565

>  <SCORE.INTER>
-14.3571

>  <SCORE.INTER.CONST>
1

>  <SCORE.INTER.POLAR>
0

>  <SCORE.INTER.ROT>
0

>  <SCORE.INTER.SOLV>
8.1963

>  <SCORE.INTER.VDW>
-15.9035

>  <SCORE.INTER.norm>
-1.43571

>  <SCORE.INTRA>
0

>  <SCORE.INTRA.DIHEDRAL>
0

>  <SCORE.INTRA.DIHEDRAL.0>
0

>  <SCORE.INTRA.POLAR>
0

>  <SCORE.INTRA.POLAR.0>
0

>  <SCORE.INTRA.REPUL>
0

>  <SCORE.INTRA.REPUL.0>
0

>  <SCORE.INTRA.SOLV>
0

>  <SCORE.INTRA.SOLV.lig_0>
-23.8941

>  <SCORE.INTRA.VDW>
0

>  <SCORE.INTRA.VDW.0>
0

>  <SCORE.INTRA.norm>
0

>  <SCORE.RESTR>
0.000637209

>  <SCORE.RESTR.CAVITY>
0.000637209

>  <SCORE.RESTR.norm>
6.37209e-05

>  <SCORE.SYSTEM>
0

>  <SCORE.SYSTEM.CONST>
0

>  <SCORE.SYSTEM.DIHEDRAL>
0

>  <SCORE.SYSTEM.SOLV>
0

>  <SCORE.SYSTEM.norm>
0

>  <SCORE.heavy>
10

>  <SCORE.norm>
-1.43565

>  <RMSD>
0.452

$$$$
ligand
 OpenBabel11021811513D
libRbt.so/2013.1/901 2013/11/27
 10 11  0  0  0  0  0  0  0  0999 V2000
  -30.1032   16.6970  -14.5969 N   0  0  0  0  0  0  0  0  0  0  0  0
  -31.0122   17.6229  -14.2668 C   0  0  0  0  0  0  0  0  0  0  0  0
  -31.5642   18.5640  -15.0307 N   0  0  0  0  0  0  0  0  0  0  0  0
  -31.0861   18.5026  -16.2833 C   0  0  0  0  0  0  0  0  0  0  0  0
  -30.1508   17.6113  -16.7714 C   0  0  0  0  0  0  0  0  0  0  0  0
  -29.6422   16.6610  -15.8637 C   0  0  0  0  0  0  0  0  0  0  0  0
  -28.7336   15.7375  -16.1965 N   0  0  0  0  0  0  0  0  0  0  0  0
  -29.9000   17.8473  -18.1126 N   0  0  0  0  0  0  0  0  0  0  0  0
  -30.6775   18.8643  -18.4030 C   0  0  0  0  0  0  0  0  0  0  0  0
  -31.4209   19.3109  -17.3462 N   0  0  0  0  0  0  0  0  0  0  0  0
  1  2  2  0  0  0  0
  1  6  1  0  0  0  0
  2  3  1  0  0  0  0
  3  4  2  0  0  0  0
  4  5  1  0  0  0  0
  4 10  1  0  0  0  0
  5  6  2  0  0  0  0
  5  8  1  0  0  0  0
  6  7  1  0  0  0  0
  8  9  1  0  0  0  0
  9 10  2  0  0  0  0
M  END
>  <CHROM.1>
-30.42257883,17.73339905,-16.28478250,1.14380781,-0.82386917,1.94633531

>  <Name>
ligand

>  <RI>
0

>  <Rbt.Current_Directory>
/home/itssahil/PROJECTS/Mol_Feturizer/New_Systems/rnas/4TZY

>  <Rbt.Executable>
rbdock ($Id: //depot/dev/client3/rdock/2013.1/src/exe/rbdock.cxx#4 $)

>  <Rbt.Library>
libRbt.so (2013.1, Build901 2013/11/27)

>  <Rbt.Parameter_File>
/export/apps/rDock/src/rDock_2013.1_src/data/scripts/dock_solv.prm

>  <Rbt.Receptor>
prm/pocket_docking_6.prm

>  <SCORE>
-14.3472

>  <SCORE.INTER>
-14.3472

>  <SCORE.INTER.CONST>
1

>  <SCORE.INTER.POLAR>
0

>  <SCORE.INTER.ROT>
0

>  <SCORE.INTER.SOLV>
8.08431

>  <SCORE.INTER.VDW>
-15.8596

>  <SCORE.INTER.norm>
-1.43472

>  <SCORE.INTRA>
0

>  <SCORE.INTRA.DIHEDRAL>
0

>  <SCORE.INTRA.DIHEDRAL.0>
0

>  <SCORE.INTRA.POLAR>
0

>  <SCORE.INTRA.POLAR.0>
0

>  <SCORE.INTRA.REPUL>
0

>  <SCORE.INTRA.REPUL.0>
0

>  <SCORE.INTRA.SOLV>
0

>  <SCORE.INTRA.SOLV.lig_0>
-23.8941

>  <SCORE.INTRA.VDW>
0

>  <SCORE.INTRA.VDW.0>
0

>  <SCORE.INTRA.norm>
0

>  <SCORE.RESTR>
0

>  <SCORE.RESTR.CAVITY>
0

>  <SCORE.RESTR.norm>
0

>  <SCORE.SYSTEM>
0

>  <SCORE.SYSTEM.CONST>
0

>  <SCORE.SYSTEM.DIHEDRAL>
0

>  <SCORE.SYSTEM.SOLV>
0

>  <SCORE.SYSTEM.norm>
0

>  <SCORE.heavy>
10

>  <SCORE.norm>
-1.43472

>  <RMSD>
0.454

$$$$
ligand
 OpenBabel11021811513D
libRbt.so/2013.1/901 2013/11/27
 10 11  0  0  0  0  0  0  0  0999 V2000
  -30.0944   16.6979  -14.6209 N   0  0  0  0  0  0  0  0  0  0  0  0
  -30.9884   17.6366  -14.2861 C   0  0  0  0  0  0  0  0  0  0  0  0
  -31.5329   18.5839  -15.0477 N   0  0  0  0  0  0  0  0  0  0  0  0
  -31.0645   18.5140  -16.3035 C   0  0  0  0  0  0  0  0  0  0  0  0
  -30.1448   17.6093  -16.7966 C   0  0  0  0  0  0  0  0  0  0  0  0
  -29.6427   16.6536  -15.8909 C   0  0  0  0  0  0  0  0  0  0  0  0
  -28.7491   15.7174  -16.2284 N   0  0  0  0  0  0  0  0  0  0  0  0
  -29.9002   17.8398  -18.1399 N   0  0  0  0  0  0  0  0  0  0  0  0
  -30.6659   18.8668  -18.4266 C   0  0  0  0  0  0  0  0  0  0  0  0
  -31.3957   19.3250  -17.3654 N   0  0  0  0  0  0  0  0  0  0  0  0
  1  2  2  0  0  0  0
  1  6  1  0  0  0  0
  2  3  1  0  0  0  0
  3  4  2  0  0  0  0
  4  5  1  0  0  0  0
  4 10  1  0  0  0  0
  5  6  2  0  0  0  0
  5  8  1  0  0  0  0
  6  7  1  0  0  0  0
  8  9  1  0  0  0  0
  9 10  2  0  0  0  0
M  END
>  <CHROM.1>
-30.41146753,17.73586285,-16.30830508,1.14151236,-0.83902707,1.94299848

>  <Name>
ligand

>  <RI>
0

>  <Rbt.Current_Directory>
/home/itssahil/PROJECTS/Mol_Feturizer/New_Systems/rnas/4TZY

>  <Rbt.Executable>
rbdock ($Id: //depot/dev/client3/rdock/2013.1/src/exe/rbdock.cxx#4 $)

>  <Rbt.Library>
libRbt.so (2013.1, Build901 2013/11/27)

>  <Rbt.Parameter_File>
/export/apps/rDock/src/rDock_2013.1_src/data/scripts/dock_solv.prm

>  <Rbt.Receptor>
prm/pocket_docking_7.prm

>  <SCORE>
-14.3557

>  <SCORE.INTER>
-14.3557

>  <SCORE.INTER.CONST>
1

>  <SCORE.INTER.POLAR>
0

>  <SCORE.INTER.ROT>
0

>  <SCORE.INTER.SOLV>
8.18411

>  <SCORE.INTER.VDW>
-15.8985

>  <SCORE.INTER.norm>
-1.43557

>  <SCORE.INTRA>
0

>  <SCORE.INTRA.DIHEDRAL>
0

>  <SCORE.INTRA.DIHEDRAL.0>
0

>  <SCORE.INTRA.POLAR>
0

>  <SCORE.INTRA.POLAR.0>
0

>  <SCORE.INTRA.REPUL>
0

>  <SCORE.INTRA.REPUL.0>
0

>  <SCORE.INTRA.SOLV>
0

>  <SCORE.INTRA.SOLV.lig_0>
-23.8941

>  <SCORE.INTRA.VDW>
0

>  <SCORE.INTRA.VDW.0>
0

>  <SCORE.INTRA.norm>
0

>  <SCORE.RESTR>
0

>  <SCORE.RESTR.CAVITY>
0

>  <SCORE.RESTR.norm>
0

>  <SCORE.SYSTEM>
0

>  <SCORE.SYSTEM.CONST>
0

>  <SCORE.SYSTEM.DIHEDRAL>
0

>  <SCORE.SYSTEM.SOLV>
0

>  <SCORE.SYSTEM.norm>
0

>  <SCORE.heavy>
10

>  <SCORE.norm>
-1.43557

>  <RMSD>
0.455

$$$$
ligand
 OpenBabel11021811513D
libRbt.so/2013.1/901 2013/11/27
 10 11  0  0  0  0  0  0  0  0999 V2000
  -30.1037   16.6918  -14.6200 N   0  0  0  0  0  0  0  0  0  0  0  0
  -30.9912   17.6358  -14.2828 C   0  0  0  0  0  0  0  0  0  0  0  0
  -31.5286   18.5891  -15.0420 N   0  0  0  0  0  0  0  0  0  0  0  0
  -31.0602   18.5196  -16.2977 C   0  0  0  0  0  0  0  0  0  0  0  0
  -30.1467   17.6098  -16.7930 C   0  0  0  0  0  0  0  0  0  0  0  0
  -29.6518   16.6480  -15.8899 C   0  0  0  0  0  0  0  0  0  0  0  0
  -28.7646   15.7065  -16.2297 N   0  0  0  0  0  0  0  0  0  0  0  0
  -29.8998   17.8425  -18.1355 N   0  0  0  0  0  0  0  0  0  0  0  0
  -30.6580   18.8757  -18.4196 C   0  0  0  0  0  0  0  0  0  0  0  0
  -31.3852   19.3360  -17.3574 N   0  0  0  0  0  0  0  0  0  0  0  0
  1  2  2  0  0  0  0
  1  6  1  0  0  0  0
  2  3  1  0  0  0  0
  3  4  2  0  0  0  0
  4  5  1  0  0  0  0
  4 10  1  0  0  0  0
  5  6  2  0  0  0  0
  5  8  1  0  0  0  0
  6  7  1  0  0  0  0
  8  9  1  0  0  0  0
  9 10  2  0  0  0  0
M  END
>  <CHROM.1>
-30.41264778,17.73687495,-16.30446913,1.14605726,-0.84544018,1.94930291

>  <Name>
ligand

>  <RI>
0

>  <Rbt.Current_Directory>
/home/itssahil/PROJECTS/Mol_Feturizer/New_Systems/rnas/4TZY

>  <Rbt.Executable>
rbdock ($Id: //depot/dev/client3/rdock/2013.1/src/exe/rbdock.cxx#4 $)

>  <Rbt.Library>
libRbt.so (2013.1, Build901 2013/11/27)

>  <Rbt.Parameter_File>
/export/apps/rDock/src/rDock_2013.1_src/data/scripts/dock_solv.prm

>  <Rbt.Receptor>
prm/pocket_docking_4.prm

>  <SCORE>
-14.3958

>  <SCORE.INTER>
-14.396

>  <SCORE.INTER.CONST>
1

>  <SCORE.INTER.POLAR>
0

>  <SCORE.INTER.ROT>
0

>  <SCORE.INTER.SOLV>
8.23588

>  <SCORE.INTER.VDW>
-15.9426

>  <SCORE.INTER.norm>
-1.4396

>  <SCORE.INTRA>
0

>  <SCORE.INTRA.DIHEDRAL>
0

>  <SCORE.INTRA.DIHEDRAL.0>
0

>  <SCORE.INTRA.POLAR>
0

>  <SCORE.INTRA.POLAR.0>
0

>  <SCORE.INTRA.REPUL>
0

>  <SCORE.INTRA.REPUL.0>
0

>  <SCORE.INTRA.SOLV>
0

>  <SCORE.INTRA.SOLV.lig_0>
-23.8941

>  <SCORE.INTRA.VDW>
0

>  <SCORE.INTRA.VDW.0>
0

>  <SCORE.INTRA.norm>
0

>  <SCORE.RESTR>
0.000187901

>  <SCORE.RESTR.CAVITY>
0.000187901

>  <SCORE.RESTR.norm>
1.87901e-05

>  <SCORE.SYSTEM>
0

>  <SCORE.SYSTEM.CONST>
0

>  <SCORE.SYSTEM.DIHEDRAL>
0

>  <SCORE.SYSTEM.SOLV>
0

>  <SCORE.SYSTEM.norm>
0

>  <SCORE.heavy>
10

>  <SCORE.norm>
-1.43958

>  <RMSD>
0.456

$$$$
ligand
 OpenBabel11021811513D
libRbt.so/2013.1/901 2013/11/27
 10 11  0  0  0  0  0  0  0  0999 V2000
  -30.1118   16.6870  -14.6181 N   0  0  0  0  0  0  0  0  0  0  0  0
  -31.0027   17.6280  -14.2816 C   0  0  0  0  0  0  0  0  0  0  0  0
  -31.5385   18.5830  -15.0397 N   0  0  0  0  0  0  0  0  0  0  0  0
  -31.0643   18.5189  -16.2936 C   0  0  0  0  0  0  0  0  0  0  0  0
  -30.1468   17.6126  -16.7880 C   0  0  0  0  0  0  0  0  0  0  0  0
  -29.6541   16.6485  -15.8861 C   0  0  0  0  0  0  0  0  0  0  0  0
  -28.7636   15.7099  -16.2252 N   0  0  0  0  0  0  0  0  0  0  0  0
  -29.8943   17.8505  -18.1285 N   0  0  0  0  0  0  0  0  0  0  0  0
  -30.6533   18.8833  -18.4124 C   0  0  0  0  0  0  0  0  0  0  0  0
  -31.3861   19.3384  -17.3518 N   0  0  0  0  0  0  0  0  0  0  0  0
  1  2  2  0  0  0  0
  1  6  1  0  0  0  0
  2  3  1  0  0  0  0
  3  4  2  0  0  0  0
  4  5  1  0  0  0  0
  4 10  1  0  0  0  0
  5  6  2  0  0  0  0
  5  8  1  0  0  0  0
  6  7  1  0  0  0  0
  8  9  1  0  0  0  0
  9 10  2  0  0  0  0
M  END
>  <CHROM.1>
-30.41520992,17.73739178,-16.30020951,1.15126515,-0.84196956,1.95674431

>  <Name>
ligand

>  <RI>
0

>  <Rbt.Current_Directory>
/home/itssahil/PROJECTS/Mol_Feturizer/New_Systems/rnas/4TZY

>  <Rbt.Executable>
rbdock ($Id: //depot/dev/client3/rdock/2013.1/src/exe/rbdock.cxx#4 $)

>  <Rbt.Library>
libRbt.so (2013.1, Build901 2013/11/27)

>  <Rbt.Parameter_File>
/export/apps/rDock/src/rDock_2013.1_src/data/scripts/dock_solv.prm

>  <Rbt.Receptor>
prm/blind_docking_100.prm

>  <SCORE>
-14.4024

>  <SCORE.INTER>
-14.4081

>  <SCORE.INTER.CONST>
1

>  <SCORE.INTER.POLAR>
0

>  <SCORE.INTER.ROT>
0

>  <SCORE.INTER.SOLV>
8.22386

>  <SCORE.INTER.VDW>
-15.9467

>  <SCORE.INTER.norm>
-1.44081

>  <SCORE.INTRA>
0

>  <SCORE.INTRA.DIHEDRAL>
0

>  <SCORE.INTRA.DIHEDRAL.0>
0

>  <SCORE.INTRA.POLAR>
0

>  <SCORE.INTRA.POLAR.0>
0

>  <SCORE.INTRA.REPUL>
0

>  <SCORE.INTRA.REPUL.0>
0

>  <SCORE.INTRA.SOLV>
0

>  <SCORE.INTRA.SOLV.lig_0>
-23.8941

>  <SCORE.INTRA.VDW>
0

>  <SCORE.INTRA.VDW.0>
0

>  <SCORE.INTRA.norm>
0

>  <SCORE.RESTR>
0.00566

>  <SCORE.RESTR.CAVITY>
0.00566

>  <SCORE.RESTR.norm>
0.000566

>  <SCORE.SYSTEM>
0

>  <SCORE.SYSTEM.CONST>
0

>  <SCORE.SYSTEM.DIHEDRAL>
0

>  <SCORE.SYSTEM.SOLV>
0

>  <SCORE.SYSTEM.norm>
0

>  <SCORE.heavy>
10

>  <SCORE.norm>
-1.44024

>  <RMSD>
0.457

$$$$
ligand
 OpenBabel11021811513D
libRbt.so/2013.1/901 2013/11/27
 10 11  0  0  0  0  0  0  0  0999 V2000
  -30.1058   16.6883  -14.6249 N   0  0  0  0  0  0  0  0  0  0  0  0
  -30.9879   17.6365  -14.2855 C   0  0  0  0  0  0  0  0  0  0  0  0
  -31.5212   18.5936  -15.0429 N   0  0  0  0  0  0  0  0  0  0  0  0
  -31.0546   18.5231  -16.2993 C   0  0  0  0  0  0  0  0  0  0  0  0
  -30.1464   17.6091  -16.7968 C   0  0  0  0  0  0  0  0  0  0  0  0
  -29.6556   16.6436  -15.8954 C   0  0  0  0  0  0  0  0  0  0  0  0
  -28.7738   15.6978  -16.2374 N   0  0  0  0  0  0  0  0  0  0  0  0
  -29.9000   17.8421  -18.1393 N   0  0  0  0  0  0  0  0  0  0  0  0
  -30.6530   18.8797  -18.4212 C   0  0  0  0  0  0  0  0  0  0  0  0
  -31.3765   19.3425  -17.3576 N   0  0  0  0  0  0  0  0  0  0  0  0
  1  2  2  0  0  0  0
  1  6  1  0  0  0  0
  2  3  1  0  0  0  0
  3  4  2  0  0  0  0
  4  5  1  0  0  0  0
  4 10  1  0  0  0  0
  5  6  2  0  0  0  0
  5  8  1  0  0  0  0
  6  7  1  0  0  0  0
  8  9  1  0  0  0  0
  9 10  2  0  0  0  0
M  END
>  <CHROM.1>
-30.41117867,17.73698899,-16.30775210,1.14735370,-0.85078346,1.95148410

>  <Name>
ligand

>  <RI>
0

>  <Rbt.Current_Directory>
/home/itssahil/PROJECTS/Mol_Feturizer/New_Systems/rnas/4TZY

>  <Rbt.Executable>
rbdock ($Id: //depot/dev/client3/rdock/2013.1/src/exe/rbdock.cxx#4 $)

>  <Rbt.Library>
libRbt.so (2013.1, Build901 2013/11/27)

>  <Rbt.Parameter_File>
/export/apps/rDock/src/rDock_2013.1_src/data/scripts/dock_solv.prm

>  <Rbt.Receptor>
prm/blind_docking_100.prm

>  <SCORE>
-14.3947

>  <SCORE.INTER>
-14.3947

>  <SCORE.INTER.CONST>
1

>  <SCORE.INTER.POLAR>
0

>  <SCORE.INTER.ROT>
0

>  <SCORE.INTER.SOLV>
8.28688

>  <SCORE.INTER.VDW>
-15.9588

>  <SCORE.INTER.norm>
-1.43947

>  <SCORE.INTRA>
0

>  <SCORE.INTRA.DIHEDRAL>
0

>  <SCORE.INTRA.DIHEDRAL.0>
0

>  <SCORE.INTRA.POLAR>
0

>  <SCORE.INTRA.POLAR.0>
0

>  <SCORE.INTRA.REPUL>
0

>  <SCORE.INTRA.REPUL.0>
0

>  <SCORE.INTRA.SOLV>
0

>  <SCORE.INTRA.SOLV.lig_0>
-23.8941

>  <SCORE.INTRA.VDW>
0

>  <SCORE.INTRA.VDW.0>
0

>  <SCORE.INTRA.norm>
0

>  <SCORE.RESTR>
4.60769e-05

>  <SCORE.RESTR.CAVITY>
4.60769e-05

>  <SCORE.RESTR.norm>
4.60769e-06

>  <SCORE.SYSTEM>
0

>  <SCORE.SYSTEM.CONST>
0

>  <SCORE.SYSTEM.DIHEDRAL>
0

>  <SCORE.SYSTEM.SOLV>
0

>  <SCORE.SYSTEM.norm>
0

>  <SCORE.heavy>
10

>  <SCORE.norm>
-1.43947

>  <RMSD>
0.457

$$$$
ligand
 OpenBabel11021811513D
libRbt.so/2013.1/901 2013/11/27
 10 11  0  0  0  0  0  0  0  0999 V2000
  -30.1048   16.6875  -14.6206 N   0  0  0  0  0  0  0  0  0  0  0  0
  -30.9923   17.6308  -14.2816 C   0  0  0  0  0  0  0  0  0  0  0  0
  -31.5294   18.5859  -15.0388 N   0  0  0  0  0  0  0  0  0  0  0  0
  -31.0606   18.5191  -16.2946 C   0  0  0  0  0  0  0  0  0  0  0  0
  -30.1471   17.6102  -16.7917 C   0  0  0  0  0  0  0  0  0  0  0  0
  -29.6525   16.6464  -15.8905 C   0  0  0  0  0  0  0  0  0  0  0  0
  -28.7654   15.7055  -16.2322 N   0  0  0  0  0  0  0  0  0  0  0  0
  -29.8999   17.8458  -18.1336 N   0  0  0  0  0  0  0  0  0  0  0  0
  -30.6579   18.8797  -18.4156 C   0  0  0  0  0  0  0  0  0  0  0  0
  -31.3853   19.3378  -17.3526 N   0  0  0  0  0  0  0  0  0  0  0  0
  1  2  2  0  0  0  0
  1  6  1  0  0  0  0
  2  3  1  0  0  0  0
  3  4  2  0  0  0  0
  4  5  1  0  0  0  0
  4 10  1  0  0  0  0
  5  6  2  0  0  0  0
  5  8  1  0  0  0  0
  6  7  1  0  0  0  0
  8  9  1  0  0  0  0
  9 10  2  0  0  0  0
M  END
>  <CHROM.1>
-30.41319842,17.73624552,-16.30290104,1.14647446,-0.84544635,1.95179312

>  <Name>
ligand

>  <RI>
0

>  <Rbt.Current_Directory>
/home/itssahil/PROJECTS/Mol_Feturizer/New_Systems/rnas/4TZY

>  <Rbt.Executable>
rbdock ($Id: //depot/dev/client3/rdock/2013.1/src/exe/rbdock.cxx#4 $)

>  <Rbt.Library>
libRbt.so (2013.1, Build901 2013/11/27)

>  <Rbt.Parameter_File>
/export/apps/rDock/src/rDock_2013.1_src/data/scripts/dock_solv.prm

>  <Rbt.Receptor>
prm/blind_docking_100.prm

>  <SCORE>
-14.3958

>  <SCORE.INTER>
-14.3959

>  <SCORE.INTER.CONST>
1

>  <SCORE.INTER.POLAR>
0

>  <SCORE.INTER.ROT>
0

>  <SCORE.INTER.SOLV>
8.24375

>  <SCORE.INTER.VDW>
-15.9452

>  <SCORE.INTER.norm>
-1.43959

>  <SCORE.INTRA>
0

>  <SCORE.INTRA.DIHEDRAL>
0

>  <SCORE.INTRA.DIHEDRAL.0>
0

>  <SCORE.INTRA.POLAR>
0

>  <SCORE.INTRA.POLAR.0>
0

>  <SCORE.INTRA.REPUL>
0

>  <SCORE.INTRA.REPUL.0>
0

>  <SCORE.INTRA.SOLV>
0

>  <SCORE.INTRA.SOLV.lig_0>
-23.8941

>  <SCORE.INTRA.VDW>
0

>  <SCORE.INTRA.VDW.0>
0

>  <SCORE.INTRA.norm>
0

>  <SCORE.RESTR>
0.000115355

>  <SCORE.RESTR.CAVITY>
0.000115355

>  <SCORE.RESTR.norm>
1.15355e-05

>  <SCORE.SYSTEM>
0

>  <SCORE.SYSTEM.CONST>
0

>  <SCORE.SYSTEM.DIHEDRAL>
0

>  <SCORE.SYSTEM.SOLV>
0

>  <SCORE.SYSTEM.norm>
0

>  <SCORE.heavy>
10

>  <SCORE.norm>
-1.43958

>  <RMSD>
0.458

$$$$
ligand
 OpenBabel11021811513D
libRbt.so/2013.1/901 2013/11/27
 10 11  0  0  0  0  0  0  0  0999 V2000
  -30.0819   16.7126  -14.5982 N   0  0  0  0  0  0  0  0  0  0  0  0
  -31.0001   17.6297  -14.2695 C   0  0  0  0  0  0  0  0  0  0  0  0
  -31.5642   18.5618  -15.0358 N   0  0  0  0  0  0  0  0  0  0  0  0
  -31.0886   18.5006  -16.2893 C   0  0  0  0  0  0  0  0  0  0  0  0
  -30.1448   17.6176  -16.7762 C   0  0  0  0  0  0  0  0  0  0  0  0
  -29.6236   16.6765  -15.8660 C   0  0  0  0  0  0  0  0  0  0  0  0
  -28.7057   15.7617  -16.1974 N   0  0  0  0  0  0  0  0  0  0  0  0
  -29.8999   17.8510  -18.1189 N   0  0  0  0  0  0  0  0  0  0  0  0
  -30.6891   18.8583  -18.4114 C   0  0  0  0  0  0  0  0  0  0  0  0
  -31.4348   19.3009  -17.3545 N   0  0  0  0  0  0  0  0  0  0  0  0
  1  2  2  0  0  0  0
  1  6  1  0  0  0  0
  2  3  1  0  0  0  0
  3  4  2  0  0  0  0
  4  5  1  0  0  0  0
  4 10  1  0  0  0  0
  5  6  2  0  0  0  0
  5  8  1  0  0  0  0
  6  7  1  0  0  0  0
  8  9  1  0  0  0  0
  9 10  2  0  0  0  0
M  END
>  <CHROM.1>
-30.41667258,17.73866625,-16.28935177,1.13467098,-0.81456442,1.93570207

>  <Name>
ligand

>  <RI>
0

>  <Rbt.Current_Directory>
/home/itssahil/PROJECTS/Mol_Feturizer/New_Systems/rnas/4TZY

>  <Rbt.Executable>
rbdock ($Id: //depot/dev/client3/rdock/2013.1/src/exe/rbdock.cxx#4 $)

>  <Rbt.Library>
libRbt.so (2013.1, Build901 2013/11/27)

>  <Rbt.Parameter_File>
/export/apps/rDock/src/rDock_2013.1_src/data/scripts/dock_solv.prm

>  <Rbt.Receptor>
prm/pocket_docking_4.prm

>  <SCORE>
-14.3506

>  <SCORE.INTER>
-14.3508

>  <SCORE.INTER.CONST>
1

>  <SCORE.INTER.POLAR>
0

>  <SCORE.INTER.ROT>
0

>  <SCORE.INTER.SOLV>
7.98593

>  <SCORE.INTER.VDW>
-15.8292

>  <SCORE.INTER.norm>
-1.43508

>  <SCORE.INTRA>
0

>  <SCORE.INTRA.DIHEDRAL>
0

>  <SCORE.INTRA.DIHEDRAL.0>
0

>  <SCORE.INTRA.POLAR>
0

>  <SCORE.INTRA.POLAR.0>
0

>  <SCORE.INTRA.REPUL>
0

>  <SCORE.INTRA.REPUL.0>
0

>  <SCORE.INTRA.SOLV>
0

>  <SCORE.INTRA.SOLV.lig_0>
-23.8941

>  <SCORE.INTRA.VDW>
0

>  <SCORE.INTRA.VDW.0>
0

>  <SCORE.INTRA.norm>
0

>  <SCORE.RESTR>
0.000144818

>  <SCORE.RESTR.CAVITY>
0.000144818

>  <SCORE.RESTR.norm>
1.44818e-05

>  <SCORE.SYSTEM>
0

>  <SCORE.SYSTEM.CONST>
0

>  <SCORE.SYSTEM.DIHEDRAL>
0

>  <SCORE.SYSTEM.SOLV>
0

>  <SCORE.SYSTEM.norm>
0

>  <SCORE.heavy>
10

>  <SCORE.norm>
-1.43506

>  <RMSD>
0.458

$$$$
ligand
 OpenBabel11021811513D
libRbt.so/2013.1/901 2013/11/27
 10 11  0  0  0  0  0  0  0  0999 V2000
  -30.0872   16.7067  -14.5934 N   0  0  0  0  0  0  0  0  0  0  0  0
  -31.0067   17.6223  -14.2637 C   0  0  0  0  0  0  0  0  0  0  0  0
  -31.5702   18.5560  -15.0284 N   0  0  0  0  0  0  0  0  0  0  0  0
  -31.0925   18.4986  -16.2813 C   0  0  0  0  0  0  0  0  0  0  0  0
  -30.1472   17.6175  -16.7690 C   0  0  0  0  0  0  0  0  0  0  0  0
  -29.6268   16.6744  -15.8605 C   0  0  0  0  0  0  0  0  0  0  0  0
  -28.7078   15.7611  -16.1928 N   0  0  0  0  0  0  0  0  0  0  0  0
  -29.9002   17.8548  -18.1107 N   0  0  0  0  0  0  0  0  0  0  0  0
  -30.6898   18.8623  -18.4018 C   0  0  0  0  0  0  0  0  0  0  0  0
  -31.4375   19.3015  -17.3449 N   0  0  0  0  0  0  0  0  0  0  0  0
  1  2  2  0  0  0  0
  1  6  1  0  0  0  0
  2  3  1  0  0  0  0
  3  4  2  0  0  0  0
  4  5  1  0  0  0  0
  4 10  1  0  0  0  0
  5  6  2  0  0  0  0
  5  8  1  0  0  0  0
  6  7  1  0  0  0  0
  8  9  1  0  0  0  0
  9 10  2  0  0  0  0
M  END
>  <CHROM.1>
-30.41999065,17.73712270,-16.28231103,1.13652518,-0.81329394,1.93973980

>  <Name>
ligand

>  <RI>
0

>  <Rbt.Current_Directory>
/home/itssahil/PROJECTS/Mol_Feturizer/New_Systems/rnas/4TZY

>  <Rbt.Executable>
rbdock ($Id: //depot/dev/client3/rdock/2013.1/src/exe/rbdock.cxx#4 $)

>  <Rbt.Library>
libRbt.so (2013.1, Build901 2013/11/27)

>  <Rbt.Parameter_File>
/export/apps/rDock/src/rDock_2013.1_src/data/scripts/dock_solv.prm

>  <Rbt.Receptor>
prm/pocket_docking_4.prm

>  <SCORE>
-14.3484

>  <SCORE.INTER>
-14.3484

>  <SCORE.INTER.CONST>
1

>  <SCORE.INTER.POLAR>
0

>  <SCORE.INTER.ROT>
0

>  <SCORE.INTER.SOLV>
7.98725

>  <SCORE.INTER.VDW>
-15.828

>  <SCORE.INTER.norm>
-1.43484

>  <SCORE.INTRA>
0

>  <SCORE.INTRA.DIHEDRAL>
0

>  <SCORE.INTRA.DIHEDRAL.0>
0

>  <SCORE.INTRA.POLAR>
0

>  <SCORE.INTRA.POLAR.0>
0

>  <SCORE.INTRA.REPUL>
0

>  <SCORE.INTRA.REPUL.0>
0

>  <SCORE.INTRA.SOLV>
0

>  <SCORE.INTRA.SOLV.lig_0>
-23.8941

>  <SCORE.INTRA.VDW>
0

>  <SCORE.INTRA.VDW.0>
0

>  <SCORE.INTRA.norm>
0

>  <SCORE.RESTR>
0

>  <SCORE.RESTR.CAVITY>
0

>  <SCORE.RESTR.norm>
0

>  <SCORE.SYSTEM>
0

>  <SCORE.SYSTEM.CONST>
0

>  <SCORE.SYSTEM.DIHEDRAL>
0

>  <SCORE.SYSTEM.SOLV>
0

>  <SCORE.SYSTEM.norm>
0

>  <SCORE.heavy>
10

>  <SCORE.norm>
-1.43484

>  <RMSD>
0.458

$$$$
ligand
 OpenBabel11021811513D
libRbt.so/2013.1/901 2013/11/27
 10 11  0  0  0  0  0  0  0  0999 V2000
  -30.2265   16.6988  -14.6033 N   0  0  0  0  0  0  0  0  0  0  0  0
  -31.1104   17.6560  -14.2950 C   0  0  0  0  0  0  0  0  0  0  0  0
  -31.6111   18.6150  -15.0719 N   0  0  0  0  0  0  0  0  0  0  0  0
  -31.1058   18.5360  -16.3128 C   0  0  0  0  0  0  0  0  0  0  0  0
  -30.1907   17.6122  -16.7784 C   0  0  0  0  0  0  0  0  0  0  0  0
  -29.7370   16.6457  -15.8588 C   0  0  0  0  0  0  0  0  0  0  0  0
  -28.8534   15.6909  -16.1697 N   0  0  0  0  0  0  0  0  0  0  0  0
  -29.9000   17.8382  -18.1132 N   0  0  0  0  0  0  0  0  0  0  0  0
  -30.6346   18.8813  -18.4221 C   0  0  0  0  0  0  0  0  0  0  0  0
  -31.3869   19.3543  -17.3834 N   0  0  0  0  0  0  0  0  0  0  0  0
  1  2  2  0  0  0  0
  1  6  1  0  0  0  0
  2  3  1  0  0  0  0
  3  4  2  0  0  0  0
  4  5  1  0  0  0  0
  4 10  1  0  0  0  0
  5  6  2  0  0  0  0
  5  8  1  0  0  0  0
  6  7  1  0  0  0  0
  8  9  1  0  0  0  0
  9 10  2  0  0  0  0
M  END
>  <CHROM.1>
-30.46949105,17.74415233,-16.29835961,1.19646617,-0.84675695,1.98489528

>  <Name>
ligand

>  <RI>
0

>  <Rbt.Current_Directory>
/home/itssahil/PROJECTS/Mol_Feturizer/New_Systems/rnas/4TZY

>  <Rbt.Executable>
rbdock ($Id: //depot/dev/client3/rdock/2013.1/src/exe/rbdock.cxx#4 $)

>  <Rbt.Library>
libRbt.so (2013.1, Build901 2013/11/27)

>  <Rbt.Parameter_File>
/export/apps/rDock/src/rDock_2013.1_src/data/scripts/dock_solv.prm

>  <Rbt.Receptor>
prm/pocket_docking_6.prm

>  <SCORE>
-14.2881

>  <SCORE.INTER>
-14.2881

>  <SCORE.INTER.CONST>
1

>  <SCORE.INTER.POLAR>
0

>  <SCORE.INTER.ROT>
0

>  <SCORE.INTER.SOLV>
8.35532

>  <SCORE.INTER.VDW>
-15.9105

>  <SCORE.INTER.norm>
-1.42881

>  <SCORE.INTRA>
0

>  <SCORE.INTRA.DIHEDRAL>
0

>  <SCORE.INTRA.DIHEDRAL.0>
0

>  <SCORE.INTRA.POLAR>
0

>  <SCORE.INTRA.POLAR.0>
0

>  <SCORE.INTRA.REPUL>
0

>  <SCORE.INTRA.REPUL.0>
0

>  <SCORE.INTRA.SOLV>
0

>  <SCORE.INTRA.SOLV.lig_0>
-23.8941

>  <SCORE.INTRA.VDW>
0

>  <SCORE.INTRA.VDW.0>
0

>  <SCORE.INTRA.norm>
0

>  <SCORE.RESTR>
2.38528e-05

>  <SCORE.RESTR.CAVITY>
2.38528e-05

>  <SCORE.RESTR.norm>
2.38528e-06

>  <SCORE.SYSTEM>
0

>  <SCORE.SYSTEM.CONST>
0

>  <SCORE.SYSTEM.DIHEDRAL>
0

>  <SCORE.SYSTEM.SOLV>
0

>  <SCORE.SYSTEM.norm>
0

>  <SCORE.heavy>
10

>  <SCORE.norm>
-1.42881

>  <RMSD>
0.458

$$$$
ligand
 OpenBabel11021811513D
libRbt.so/2013.1/901 2013/11/27
 10 11  0  0  0  0  0  0  0  0999 V2000
  -30.1083   16.6872  -14.6256 N   0  0  0  0  0  0  0  0  0  0  0  0
  -30.9950   17.6315  -14.2872 C   0  0  0  0  0  0  0  0  0  0  0  0
  -31.5303   18.5873  -15.0447 N   0  0  0  0  0  0  0  0  0  0  0  0
  -31.0606   18.5201  -16.3002 C   0  0  0  0  0  0  0  0  0  0  0  0
  -30.1477   17.6102  -16.7965 C   0  0  0  0  0  0  0  0  0  0  0  0
  -29.6550   16.6457  -15.8950 C   0  0  0  0  0  0  0  0  0  0  0  0
  -28.7687   15.7038  -16.2361 N   0  0  0  0  0  0  0  0  0  0  0  0
  -29.8991   17.8456  -18.1382 N   0  0  0  0  0  0  0  0  0  0  0  0
  -30.6557   18.8805  -18.4207 C   0  0  0  0  0  0  0  0  0  0  0  0
  -31.3834   19.3393  -17.3583 N   0  0  0  0  0  0  0  0  0  0  0  0
  1  2  2  0  0  0  0
  1  6  1  0  0  0  0
  2  3  1  0  0  0  0
  3  4  2  0  0  0  0
  4  5  1  0  0  0  0
  4 10  1  0  0  0  0
  5  6  2  0  0  0  0
  5  8  1  0  0  0  0
  6  7  1  0  0  0  0
  8  9  1  0  0  0  0
  9 10  2  0  0  0  0
M  END
>  <CHROM.1>
-30.41406294,17.73649594,-16.30797241,1.14829701,-0.84622300,1.95326522

>  <Name>
ligand

>  <RI>
0

>  <Rbt.Current_Directory>
/home/itssahil/PROJECTS/Mol_Feturizer/New_Systems/rnas/4TZY

>  <Rbt.Executable>
rbdock ($Id: //depot/dev/client3/rdock/2013.1/src/exe/rbdock.cxx#4 $)

>  <Rbt.Library>
libRbt.so (2013.1, Build901 2013/11/27)

>  <Rbt.Parameter_File>
/export/apps/rDock/src/rDock_2013.1_src/data/scripts/dock_solv.prm

>  <Rbt.Receptor>
prm/pocket_docking_8.prm

>  <SCORE>
-14.3938

>  <SCORE.INTER>
-14.3947

>  <SCORE.INTER.CONST>
1

>  <SCORE.INTER.POLAR>
0

>  <SCORE.INTER.ROT>
0

>  <SCORE.INTER.SOLV>
8.26081

>  <SCORE.INTER.VDW>
-15.9501

>  <SCORE.INTER.norm>
-1.43947

>  <SCORE.INTRA>
0

>  <SCORE.INTRA.DIHEDRAL>
0

>  <SCORE.INTRA.DIHEDRAL.0>
0

>  <SCORE.INTRA.POLAR>
0

>  <SCORE.INTRA.POLAR.0>
0

>  <SCORE.INTRA.REPUL>
0

>  <SCORE.INTRA.REPUL.0>
0

>  <SCORE.INTRA.SOLV>
0

>  <SCORE.INTRA.SOLV.lig_0>
-23.8941

>  <SCORE.INTRA.VDW>
0

>  <SCORE.INTRA.VDW.0>
0

>  <SCORE.INTRA.norm>
0

>  <SCORE.RESTR>
0.000902208

>  <SCORE.RESTR.CAVITY>
0.000902208

>  <SCORE.RESTR.norm>
9.02208e-05

>  <SCORE.SYSTEM>
0

>  <SCORE.SYSTEM.CONST>
0

>  <SCORE.SYSTEM.DIHEDRAL>
0

>  <SCORE.SYSTEM.SOLV>
0

>  <SCORE.SYSTEM.norm>
0

>  <SCORE.heavy>
10

>  <SCORE.norm>
-1.43938

>  <RMSD>
0.458

$$$$
ligand
 OpenBabel11021811513D
libRbt.so/2013.1/901 2013/11/27
 10 11  0  0  0  0  0  0  0  0999 V2000
  -30.0940   16.7005  -14.6008 N   0  0  0  0  0  0  0  0  0  0  0  0
  -31.0033   17.6249  -14.2676 C   0  0  0  0  0  0  0  0  0  0  0  0
  -31.5579   18.5664  -15.0291 N   0  0  0  0  0  0  0  0  0  0  0  0
  -31.0825   18.5072  -16.2828 C   0  0  0  0  0  0  0  0  0  0  0  0
  -30.1473   17.6175  -16.7741 C   0  0  0  0  0  0  0  0  0  0  0  0
  -29.6356   16.6666  -15.8687 C   0  0  0  0  0  0  0  0  0  0  0  0
  -28.7267   15.7446  -16.2046 N   0  0  0  0  0  0  0  0  0  0  0  0
  -29.8996   17.8555  -18.1155 N   0  0  0  0  0  0  0  0  0  0  0  0
  -30.6789   18.8721  -18.4029 C   0  0  0  0  0  0  0  0  0  0  0  0
  -31.4205   19.3164  -17.3439 N   0  0  0  0  0  0  0  0  0  0  0  0
  1  2  2  0  0  0  0
  1  6  1  0  0  0  0
  2  3  1  0  0  0  0
  3  4  2  0  0  0  0
  4  5  1  0  0  0  0
  4 10  1  0  0  0  0
  5  6  2  0  0  0  0
  5  8  1  0  0  0  0
  6  7  1  0  0  0  0
  8  9  1  0  0  0  0
  9 10  2  0  0  0  0
M  END
>  <CHROM.1>
-30.41811901,17.73869870,-16.28669813,1.14027053,-0.82360719,1.94502768

>  <Name>
ligand

>  <RI>
0

>  <Rbt.Current_Directory>
/home/itssahil/PROJECTS/Mol_Feturizer/New_Systems/rnas/4TZY

>  <Rbt.Executable>
rbdock ($Id: //depot/dev/client3/rdock/2013.1/src/exe/rbdock.cxx#4 $)

>  <Rbt.Library>
libRbt.so (2013.1, Build901 2013/11/27)

>  <Rbt.Parameter_File>
/export/apps/rDock/src/rDock_2013.1_src/data/scripts/dock_solv.prm

>  <Rbt.Receptor>
prm/blind_docking_60.prm

>  <SCORE>
-14.3518

>  <SCORE.INTER>
-14.3521

>  <SCORE.INTER.CONST>
1

>  <SCORE.INTER.POLAR>
0

>  <SCORE.INTER.ROT>
0

>  <SCORE.INTER.SOLV>
8.06957

>  <SCORE.INTER.VDW>
-15.8579

>  <SCORE.INTER.norm>
-1.43521

>  <SCORE.INTRA>
0

>  <SCORE.INTRA.DIHEDRAL>
0

>  <SCORE.INTRA.DIHEDRAL.0>
0

>  <SCORE.INTRA.POLAR>
0

>  <SCORE.INTRA.POLAR.0>
0

>  <SCORE.INTRA.REPUL>
0

>  <SCORE.INTRA.REPUL.0>
0

>  <SCORE.INTRA.SOLV>
0

>  <SCORE.INTRA.SOLV.lig_0>
-23.8941

>  <SCORE.INTRA.VDW>
0

>  <SCORE.INTRA.VDW.0>
0

>  <SCORE.INTRA.norm>
0

>  <SCORE.RESTR>
0.000370503

>  <SCORE.RESTR.CAVITY>
0.000370503

>  <SCORE.RESTR.norm>
3.70503e-05

>  <SCORE.SYSTEM>
0

>  <SCORE.SYSTEM.CONST>
0

>  <SCORE.SYSTEM.DIHEDRAL>
0

>  <SCORE.SYSTEM.SOLV>
0

>  <SCORE.SYSTEM.norm>
0

>  <SCORE.heavy>
10

>  <SCORE.norm>
-1.43518

>  <RMSD>
0.459

$$$$
ligand
 OpenBabel11021811513D
libRbt.so/2013.1/901 2013/11/27
 10 11  0  0  0  0  0  0  0  0999 V2000
  -30.0309   16.7941  -14.5763 N   0  0  0  0  0  0  0  0  0  0  0  0
  -30.9850   17.6829  -14.2728 C   0  0  0  0  0  0  0  0  0  0  0  0
  -31.5872   18.5681  -15.0650 N   0  0  0  0  0  0  0  0  0  0  0  0
  -31.1111   18.4889  -16.3173 C   0  0  0  0  0  0  0  0  0  0  0  0
  -30.1330   17.6305  -16.7801 C   0  0  0  0  0  0  0  0  0  0  0  0
  -29.5730   16.7388  -15.8436 C   0  0  0  0  0  0  0  0  0  0  0  0
  -28.6194   15.8523  -16.1498 N   0  0  0  0  0  0  0  0  0  0  0  0
  -29.8994   17.8335  -18.1297 N   0  0  0  0  0  0  0  0  0  0  0  0
  -30.7291   18.7990  -18.4501 C   0  0  0  0  0  0  0  0  0  0  0  0
  -31.4907   19.2424  -17.4050 N   0  0  0  0  0  0  0  0  0  0  0  0
  1  2  2  0  0  0  0
  1  6  1  0  0  0  0
  2  3  1  0  0  0  0
  3  4  2  0  0  0  0
  4  5  1  0  0  0  0
  4 10  1  0  0  0  0
  5  6  2  0  0  0  0
  5  8  1  0  0  0  0
  6  7  1  0  0  0  0
  8  9  1  0  0  0  0
  9 10  2  0  0  0  0
M  END
>  <CHROM.1>
-30.40893901,17.75501374,-16.29636858,1.11279937,-0.77712966,1.89026886

>  <Name>
ligand

>  <RI>
0

>  <Rbt.Current_Directory>
/home/itssahil/PROJECTS/Mol_Feturizer/New_Systems/rnas/4TZY

>  <Rbt.Executable>
rbdock ($Id: //depot/dev/client3/rdock/2013.1/src/exe/rbdock.cxx#4 $)

>  <Rbt.Library>
libRbt.so (2013.1, Build901 2013/11/27)

>  <Rbt.Parameter_File>
/export/apps/rDock/src/rDock_2013.1_src/data/scripts/dock_solv.prm

>  <Rbt.Receptor>
prm/blind_docking_80.prm

>  <SCORE>
-14.2764

>  <SCORE.INTER>
-14.2771

>  <SCORE.INTER.CONST>
1

>  <SCORE.INTER.POLAR>
0

>  <SCORE.INTER.ROT>
0

>  <SCORE.INTER.SOLV>
7.57183

>  <SCORE.INTER.VDW>
-15.642

>  <SCORE.INTER.norm>
-1.42771

>  <SCORE.INTRA>
0

>  <SCORE.INTRA.DIHEDRAL>
0

>  <SCORE.INTRA.DIHEDRAL.0>
0

>  <SCORE.INTRA.POLAR>
0

>  <SCORE.INTRA.POLAR.0>
0

>  <SCORE.INTRA.REPUL>
0

>  <SCORE.INTRA.REPUL.0>
0

>  <SCORE.INTRA.SOLV>
0

>  <SCORE.INTRA.SOLV.lig_0>
-23.8941

>  <SCORE.INTRA.VDW>
0

>  <SCORE.INTRA.VDW.0>
0

>  <SCORE.INTRA.norm>
0

>  <SCORE.RESTR>
0.000622824

>  <SCORE.RESTR.CAVITY>
0.000622824

>  <SCORE.RESTR.norm>
6.22824e-05

>  <SCORE.SYSTEM>
0

>  <SCORE.SYSTEM.CONST>
0

>  <SCORE.SYSTEM.DIHEDRAL>
0

>  <SCORE.SYSTEM.SOLV>
0

>  <SCORE.SYSTEM.norm>
0

>  <SCORE.heavy>
10

>  <SCORE.norm>
-1.42764

>  <RMSD>
0.459

$$$$
ligand
 OpenBabel11021811513D
libRbt.so/2013.1/901 2013/11/27
 10 11  0  0  0  0  0  0  0  0999 V2000
  -30.1024   16.6890  -14.6261 N   0  0  0  0  0  0  0  0  0  0  0  0
  -30.9888   17.6332  -14.2867 C   0  0  0  0  0  0  0  0  0  0  0  0
  -31.5260   18.5883  -15.0438 N   0  0  0  0  0  0  0  0  0  0  0  0
  -31.0585   18.5204  -16.3001 C   0  0  0  0  0  0  0  0  0  0  0  0
  -30.1462   17.6106  -16.7976 C   0  0  0  0  0  0  0  0  0  0  0  0
  -29.6515   16.6469  -15.8964 C   0  0  0  0  0  0  0  0  0  0  0  0
  -28.7654   15.7051  -16.2385 N   0  0  0  0  0  0  0  0  0  0  0  0
  -29.9002   17.8453  -18.1399 N   0  0  0  0  0  0  0  0  0  0  0  0
  -30.6577   18.8797  -18.4217 C   0  0  0  0  0  0  0  0  0  0  0  0
  -31.3836   19.3388  -17.3581 N   0  0  0  0  0  0  0  0  0  0  0  0
  1  2  2  0  0  0  0
  1  6  1  0  0  0  0
  2  3  1  0  0  0  0
  3  4  2  0  0  0  0
  4  5  1  0  0  0  0
  4 10  1  0  0  0  0
  5  6  2  0  0  0  0
  5  8  1  0  0  0  0
  6  7  1  0  0  0  0
  8  9  1  0  0  0  0
  9 10  2  0  0  0  0
M  END
>  <CHROM.1>
-30.41170395,17.73711053,-16.30861432,1.14548520,-0.84653127,1.95052392

>  <Name>
ligand

>  <RI>
0

>  <Rbt.Current_Directory>
/home/itssahil/PROJECTS/Mol_Feturizer/New_Systems/rnas/4TZY

>  <Rbt.Executable>
rbdock ($Id: //depot/dev/client3/rdock/2013.1/src/exe/rbdock.cxx#4 $)

>  <Rbt.Library>
libRbt.so (2013.1, Build901 2013/11/27)

>  <Rbt.Parameter_File>
/export/apps/rDock/src/rDock_2013.1_src/data/scripts/dock_solv.prm

>  <Rbt.Receptor>
prm/pocket_docking_5.prm

>  <SCORE>
-14.3931

>  <SCORE.INTER>
-14.3931

>  <SCORE.INTER.CONST>
1

>  <SCORE.INTER.POLAR>
0

>  <SCORE.INTER.ROT>
0

>  <SCORE.INTER.SOLV>
8.2553

>  <SCORE.INTER.VDW>
-15.9472

>  <SCORE.INTER.norm>
-1.43931

>  <SCORE.INTRA>
0

>  <SCORE.INTRA.DIHEDRAL>
0

>  <SCORE.INTRA.DIHEDRAL.0>
0

>  <SCORE.INTRA.POLAR>
0

>  <SCORE.INTRA.POLAR.0>
0

>  <SCORE.INTRA.REPUL>
0

>  <SCORE.INTRA.REPUL.0>
0

>  <SCORE.INTRA.SOLV>
0

>  <SCORE.INTRA.SOLV.lig_0>
-23.8941

>  <SCORE.INTRA.VDW>
0

>  <SCORE.INTRA.VDW.0>
0

>  <SCORE.INTRA.norm>
0

>  <SCORE.RESTR>
0

>  <SCORE.RESTR.CAVITY>
0

>  <SCORE.RESTR.norm>
0

>  <SCORE.SYSTEM>
0

>  <SCORE.SYSTEM.CONST>
0

>  <SCORE.SYSTEM.DIHEDRAL>
0

>  <SCORE.SYSTEM.SOLV>
0

>  <SCORE.SYSTEM.norm>
0

>  <SCORE.heavy>
10

>  <SCORE.norm>
-1.43931

>  <RMSD>
0.459

$$$$
ligand
 OpenBabel11021811513D
libRbt.so/2013.1/901 2013/11/27
 10 11  0  0  0  0  0  0  0  0999 V2000
  -30.1115   16.6926  -14.6199 N   0  0  0  0  0  0  0  0  0  0  0  0
  -31.0013   17.6347  -14.2837 C   0  0  0  0  0  0  0  0  0  0  0  0
  -31.5379   18.5886  -15.0428 N   0  0  0  0  0  0  0  0  0  0  0  0
  -31.0658   18.5218  -16.2974 C   0  0  0  0  0  0  0  0  0  0  0  0
  -30.1495   17.6141  -16.7916 C   0  0  0  0  0  0  0  0  0  0  0  0
  -29.6559   16.6515  -15.8886 C   0  0  0  0  0  0  0  0  0  0  0  0
  -28.7664   15.7118  -16.2275 N   0  0  0  0  0  0  0  0  0  0  0  0
  -29.8992   17.8494  -18.1329 N   0  0  0  0  0  0  0  0  0  0  0  0
  -30.6581   18.8820  -18.4175 C   0  0  0  0  0  0  0  0  0  0  0  0
  -31.3889   19.3395  -17.3566 N   0  0  0  0  0  0  0  0  0  0  0  0
  1  2  2  0  0  0  0
  1  6  1  0  0  0  0
  2  3  1  0  0  0  0
  3  4  2  0  0  0  0
  4  5  1  0  0  0  0
  4 10  1  0  0  0  0
  5  6  2  0  0  0  0
  5  8  1  0  0  0  0
  6  7  1  0  0  0  0
  8  9  1  0  0  0  0
  9 10  2  0  0  0  0
M  END
>  <CHROM.1>
-30.41711169,17.73999459,-16.30355035,1.14926999,-0.84305960,1.95336954

>  <Name>
ligand

>  <RI>
0

>  <Rbt.Current_Directory>
/home/itssahil/PROJECTS/Mol_Feturizer/New_Systems/rnas/4TZY

>  <Rbt.Executable>
rbdock ($Id: //depot/dev/client3/rdock/2013.1/src/exe/rbdock.cxx#4 $)

>  <Rbt.Library>
libRbt.so (2013.1, Build901 2013/11/27)

>  <Rbt.Parameter_File>
/export/apps/rDock/src/rDock_2013.1_src/data/scripts/dock_solv.prm

>  <Rbt.Receptor>
prm/pocket_docking_8.prm

>  <SCORE>
-14.3925

>  <SCORE.INTER>
-14.3933

>  <SCORE.INTER.CONST>
1

>  <SCORE.INTER.POLAR>
0

>  <SCORE.INTER.ROT>
0

>  <SCORE.INTER.SOLV>
8.22832

>  <SCORE.INTER.VDW>
-15.9383

>  <SCORE.INTER.norm>
-1.43933

>  <SCORE.INTRA>
0

>  <SCORE.INTRA.DIHEDRAL>
0

>  <SCORE.INTRA.DIHEDRAL.0>
0

>  <SCORE.INTRA.POLAR>
0

>  <SCORE.INTRA.POLAR.0>
0

>  <SCORE.INTRA.REPUL>
0

>  <SCORE.INTRA.REPUL.0>
0

>  <SCORE.INTRA.SOLV>
0

>  <SCORE.INTRA.SOLV.lig_0>
-23.8941

>  <SCORE.INTRA.VDW>
0

>  <SCORE.INTRA.VDW.0>
0

>  <SCORE.INTRA.norm>
0

>  <SCORE.RESTR>
0.000816441

>  <SCORE.RESTR.CAVITY>
0.000816441

>  <SCORE.RESTR.norm>
8.16441e-05

>  <SCORE.SYSTEM>
0

>  <SCORE.SYSTEM.CONST>
0

>  <SCORE.SYSTEM.DIHEDRAL>
0

>  <SCORE.SYSTEM.SOLV>
0

>  <SCORE.SYSTEM.norm>
0

>  <SCORE.heavy>
10

>  <SCORE.norm>
-1.43925

>  <RMSD>
0.459

$$$$
ligand
 OpenBabel11021811513D
libRbt.so/2013.1/901 2013/11/27
 10 11  0  0  0  0  0  0  0  0999 V2000
  -30.1126   16.6909  -14.6220 N   0  0  0  0  0  0  0  0  0  0  0  0
  -31.0033   17.6319  -14.2852 C   0  0  0  0  0  0  0  0  0  0  0  0
  -31.5405   18.5860  -15.0437 N   0  0  0  0  0  0  0  0  0  0  0  0
  -31.0678   18.5208  -16.2981 C   0  0  0  0  0  0  0  0  0  0  0  0
  -30.1507   17.6143  -16.7928 C   0  0  0  0  0  0  0  0  0  0  0  0
  -29.6565   16.6514  -15.8905 C   0  0  0  0  0  0  0  0  0  0  0  0
  -28.7661   15.7127  -16.2299 N   0  0  0  0  0  0  0  0  0  0  0  0
  -29.9001   17.8510  -18.1339 N   0  0  0  0  0  0  0  0  0  0  0  0
  -30.6598   18.8832  -18.4178 C   0  0  0  0  0  0  0  0  0  0  0  0
  -31.3913   19.3391  -17.3567 N   0  0  0  0  0  0  0  0  0  0  0  0
  1  2  2  0  0  0  0
  1  6  1  0  0  0  0
  2  3  1  0  0  0  0
  3  4  2  0  0  0  0
  4  5  1  0  0  0  0
  4 10  1  0  0  0  0
  5  6  2  0  0  0  0
  5  8  1  0  0  0  0
  6  7  1  0  0  0  0
  8  9  1  0  0  0  0
  9 10  2  0  0  0  0
M  END
>  <CHROM.1>
-30.41850941,17.73952160,-16.30477551,1.14922846,-0.84213219,1.95422357

>  <Name>
ligand

>  <RI>
0

>  <Rbt.Current_Directory>
/home/itssahil/PROJECTS/Mol_Feturizer/New_Systems/rnas/4TZY

>  <Rbt.Executable>
rbdock ($Id: //depot/dev/client3/rdock/2013.1/src/exe/rbdock.cxx#4 $)

>  <Rbt.Library>
libRbt.so (2013.1, Build901 2013/11/27)

>  <Rbt.Parameter_File>
/export/apps/rDock/src/rDock_2013.1_src/data/scripts/dock_solv.prm

>  <Rbt.Receptor>
prm/pocket_docking_8.prm

>  <SCORE>
-14.3892

>  <SCORE.INTER>
-14.3892

>  <SCORE.INTER.CONST>
1

>  <SCORE.INTER.POLAR>
0

>  <SCORE.INTER.ROT>
0

>  <SCORE.INTER.SOLV>
8.22943

>  <SCORE.INTER.VDW>
-15.9359

>  <SCORE.INTER.norm>
-1.43892

>  <SCORE.INTRA>
0

>  <SCORE.INTRA.DIHEDRAL>
0

>  <SCORE.INTRA.DIHEDRAL.0>
0

>  <SCORE.INTRA.POLAR>
0

>  <SCORE.INTRA.POLAR.0>
0

>  <SCORE.INTRA.REPUL>
0

>  <SCORE.INTRA.REPUL.0>
0

>  <SCORE.INTRA.SOLV>
0

>  <SCORE.INTRA.SOLV.lig_0>
-23.8941

>  <SCORE.INTRA.VDW>
0

>  <SCORE.INTRA.VDW.0>
0

>  <SCORE.INTRA.norm>
0

>  <SCORE.RESTR>
0

>  <SCORE.RESTR.CAVITY>
0

>  <SCORE.RESTR.norm>
0

>  <SCORE.SYSTEM>
0

>  <SCORE.SYSTEM.CONST>
0

>  <SCORE.SYSTEM.DIHEDRAL>
0

>  <SCORE.SYSTEM.SOLV>
0

>  <SCORE.SYSTEM.norm>
0

>  <SCORE.heavy>
10

>  <SCORE.norm>
-1.43892

>  <RMSD>
0.461

$$$$
ligand
 OpenBabel11021811513D
libRbt.so/2013.1/901 2013/11/27
 10 11  0  0  0  0  0  0  0  0999 V2000
  -30.1399   16.6774  -14.5868 N   0  0  0  0  0  0  0  0  0  0  0  0
  -31.0198   17.6263  -14.2438 C   0  0  0  0  0  0  0  0  0  0  0  0
  -31.5421   18.5947  -14.9944 N   0  0  0  0  0  0  0  0  0  0  0  0
  -31.0657   18.5360  -16.2478 C   0  0  0  0  0  0  0  0  0  0  0  0
  -30.1583   17.6230  -16.7483 C   0  0  0  0  0  0  0  0  0  0  0  0
  -29.6797   16.6448  -15.8541 C   0  0  0  0  0  0  0  0  0  0  0  0
  -28.8001   15.6983  -16.1998 N   0  0  0  0  0  0  0  0  0  0  0  0
  -29.8998   17.8699  -18.0861 N   0  0  0  0  0  0  0  0  0  0  0  0
  -30.6453   18.9145  -18.3622 C   0  0  0  0  0  0  0  0  0  0  0  0
  -31.3748   19.3690  -17.2992 N   0  0  0  0  0  0  0  0  0  0  0  0
  1  2  2  0  0  0  0
  1  6  1  0  0  0  0
  2  3  1  0  0  0  0
  3  4  2  0  0  0  0
  4  5  1  0  0  0  0
  4 10  1  0  0  0  0
  5  6  2  0  0  0  0
  5  8  1  0  0  0  0
  6  7  1  0  0  0  0
  8  9  1  0  0  0  0
  9 10  2  0  0  0  0
M  END
>  <CHROM.1>
-30.42633835,17.74667209,-16.26001345,1.16163489,-0.85252789,1.97358706

>  <Name>
ligand

>  <RI>
0

>  <Rbt.Current_Directory>
/home/itssahil/PROJECTS/Mol_Feturizer/New_Systems/rnas/4TZY

>  <Rbt.Executable>
rbdock ($Id: //depot/dev/client3/rdock/2013.1/src/exe/rbdock.cxx#4 $)

>  <Rbt.Library>
libRbt.so (2013.1, Build901 2013/11/27)

>  <Rbt.Parameter_File>
/export/apps/rDock/src/rDock_2013.1_src/data/scripts/dock_solv.prm

>  <Rbt.Receptor>
prm/pocket_docking_5.prm

>  <SCORE>
-14.3442

>  <SCORE.INTER>
-14.3443

>  <SCORE.INTER.CONST>
1

>  <SCORE.INTER.POLAR>
0

>  <SCORE.INTER.ROT>
0

>  <SCORE.INTER.SOLV>
8.29597

>  <SCORE.INTER.VDW>
-15.9282

>  <SCORE.INTER.norm>
-1.43443

>  <SCORE.INTRA>
0

>  <SCORE.INTRA.DIHEDRAL>
0

>  <SCORE.INTRA.DIHEDRAL.0>
0

>  <SCORE.INTRA.POLAR>
0

>  <SCORE.INTRA.POLAR.0>
0

>  <SCORE.INTRA.REPUL>
0

>  <SCORE.INTRA.REPUL.0>
0

>  <SCORE.INTRA.SOLV>
0

>  <SCORE.INTRA.SOLV.lig_0>
-23.8941

>  <SCORE.INTRA.VDW>
0

>  <SCORE.INTRA.VDW.0>
0

>  <SCORE.INTRA.norm>
0

>  <SCORE.RESTR>
0.000163808

>  <SCORE.RESTR.CAVITY>
0.000163808

>  <SCORE.RESTR.norm>
1.63808e-05

>  <SCORE.SYSTEM>
0

>  <SCORE.SYSTEM.CONST>
0

>  <SCORE.SYSTEM.DIHEDRAL>
0

>  <SCORE.SYSTEM.SOLV>
0

>  <SCORE.SYSTEM.norm>
0

>  <SCORE.heavy>
10

>  <SCORE.norm>
-1.43442

>  <RMSD>
0.463

$$$$
ligand
 OpenBabel11021811513D
libRbt.so/2013.1/901 2013/11/27
 10 11  0  0  0  0  0  0  0  0999 V2000
  -30.1623   16.6654  -14.5784 N   0  0  0  0  0  0  0  0  0  0  0  0
  -31.0443   17.6133  -14.2375 C   0  0  0  0  0  0  0  0  0  0  0  0
  -31.5616   18.5845  -14.9879 N   0  0  0  0  0  0  0  0  0  0  0  0
  -31.0774   18.5303  -16.2385 C   0  0  0  0  0  0  0  0  0  0  0  0
  -30.1670   17.6189  -16.7366 C   0  0  0  0  0  0  0  0  0  0  0  0
  -29.6942   16.6373  -15.8429 C   0  0  0  0  0  0  0  0  0  0  0  0
  -28.8126   15.6920  -16.1865 N   0  0  0  0  0  0  0  0  0  0  0  0
  -29.9000   17.8706  -18.0718 N   0  0  0  0  0  0  0  0  0  0  0  0
  -30.6436   18.9163  -18.3488 C   0  0  0  0  0  0  0  0  0  0  0  0
  -31.3798   19.3671  -17.2888 N   0  0  0  0  0  0  0  0  0  0  0  0
  1  2  2  0  0  0  0
  1  6  1  0  0  0  0
  2  3  1  0  0  0  0
  3  4  2  0  0  0  0
  4  5  1  0  0  0  0
  4 10  1  0  0  0  0
  5  6  2  0  0  0  0
  5  8  1  0  0  0  0
  6  7  1  0  0  0  0
  8  9  1  0  0  0  0
  9 10  2  0  0  0  0
M  END
>  <CHROM.1>
-30.43805014,17.74084067,-16.24953111,1.17049765,-0.85017249,1.98387591

>  <Name>
ligand

>  <RI>
0

>  <Rbt.Current_Directory>
/home/itssahil/PROJECTS/Mol_Feturizer/New_Systems/rnas/4TZY

>  <Rbt.Executable>
rbdock ($Id: //depot/dev/client3/rdock/2013.1/src/exe/rbdock.cxx#4 $)

>  <Rbt.Library>
libRbt.so (2013.1, Build901 2013/11/27)

>  <Rbt.Parameter_File>
/export/apps/rDock/src/rDock_2013.1_src/data/scripts/dock_solv.prm

>  <Rbt.Receptor>
prm/pocket_docking_8.prm

>  <SCORE>
-14.3361

>  <SCORE.INTER>
-14.3361

>  <SCORE.INTER.CONST>
1

>  <SCORE.INTER.POLAR>
0

>  <SCORE.INTER.ROT>
0

>  <SCORE.INTER.SOLV>
8.31469

>  <SCORE.INTER.VDW>
-15.929

>  <SCORE.INTER.norm>
-1.43361

>  <SCORE.INTRA>
0

>  <SCORE.INTRA.DIHEDRAL>
0

>  <SCORE.INTRA.DIHEDRAL.0>
0

>  <SCORE.INTRA.POLAR>
0

>  <SCORE.INTRA.POLAR.0>
0

>  <SCORE.INTRA.REPUL>
0

>  <SCORE.INTRA.REPUL.0>
0

>  <SCORE.INTRA.SOLV>
0

>  <SCORE.INTRA.SOLV.lig_0>
-23.8941

>  <SCORE.INTRA.VDW>
0

>  <SCORE.INTRA.VDW.0>
0

>  <SCORE.INTRA.norm>
0

>  <SCORE.RESTR>
0

>  <SCORE.RESTR.CAVITY>
0

>  <SCORE.RESTR.norm>
0

>  <SCORE.SYSTEM>
0

>  <SCORE.SYSTEM.CONST>
0

>  <SCORE.SYSTEM.DIHEDRAL>
0

>  <SCORE.SYSTEM.SOLV>
0

>  <SCORE.SYSTEM.norm>
0

>  <SCORE.heavy>
10

>  <SCORE.norm>
-1.43361

>  <RMSD>
0.463

$$$$
ligand
 OpenBabel11021811513D
libRbt.so/2013.1/901 2013/11/27
 10 11  0  0  0  0  0  0  0  0999 V2000
  -30.0659   16.7461  -14.5984 N   0  0  0  0  0  0  0  0  0  0  0  0
  -30.9876   17.6613  -14.2739 C   0  0  0  0  0  0  0  0  0  0  0  0
  -31.5585   18.5848  -15.0455 N   0  0  0  0  0  0  0  0  0  0  0  0
  -31.0863   18.5164  -16.3000 C   0  0  0  0  0  0  0  0  0  0  0  0
  -30.1397   17.6342  -16.7830 C   0  0  0  0  0  0  0  0  0  0  0  0
  -29.6112   16.7026  -15.8673 C   0  0  0  0  0  0  0  0  0  0  0  0
  -28.6900   15.7898  -16.1945 N   0  0  0  0  0  0  0  0  0  0  0  0
  -29.8999   17.8586  -18.1281 N   0  0  0  0  0  0  0  0  0  0  0  0
  -30.6949   18.8599  -18.4259 C   0  0  0  0  0  0  0  0  0  0  0  0
  -31.4395   19.3069  -17.3702 N   0  0  0  0  0  0  0  0  0  0  0  0
  1  2  2  0  0  0  0
  1  6  1  0  0  0  0
  2  3  1  0  0  0  0
  3  4  2  0  0  0  0
  4  5  1  0  0  0  0
  4 10  1  0  0  0  0
  5  6  2  0  0  0  0
  5  8  1  0  0  0  0
  6  7  1  0  0  0  0
  8  9  1  0  0  0  0
  9 10  2  0  0  0  0
M  END
>  <CHROM.1>
-30.41068946,17.75771763,-16.29627216,1.12811736,-0.81110044,1.92335048

>  <Name>
ligand

>  <RI>
0

>  <Rbt.Current_Directory>
/home/itssahil/PROJECTS/Mol_Feturizer/New_Systems/rnas/4TZY

>  <Rbt.Executable>
rbdock ($Id: //depot/dev/client3/rdock/2013.1/src/exe/rbdock.cxx#4 $)

>  <Rbt.Library>
libRbt.so (2013.1, Build901 2013/11/27)

>  <Rbt.Parameter_File>
/export/apps/rDock/src/rDock_2013.1_src/data/scripts/dock_solv.prm

>  <Rbt.Receptor>
prm/pocket_docking_4.prm

>  <SCORE>
-14.3183

>  <SCORE.INTER>
-14.3184

>  <SCORE.INTER.CONST>
1

>  <SCORE.INTER.POLAR>
0

>  <SCORE.INTER.ROT>
0

>  <SCORE.INTER.SOLV>
7.89773

>  <SCORE.INTER.VDW>
-15.7782

>  <SCORE.INTER.norm>
-1.43184

>  <SCORE.INTRA>
0

>  <SCORE.INTRA.DIHEDRAL>
0

>  <SCORE.INTRA.DIHEDRAL.0>
0

>  <SCORE.INTRA.POLAR>
0

>  <SCORE.INTRA.POLAR.0>
0

>  <SCORE.INTRA.REPUL>
0

>  <SCORE.INTRA.REPUL.0>
0

>  <SCORE.INTRA.SOLV>
0

>  <SCORE.INTRA.SOLV.lig_0>
-23.8941

>  <SCORE.INTRA.VDW>
0

>  <SCORE.INTRA.VDW.0>
0

>  <SCORE.INTRA.norm>
0

>  <SCORE.RESTR>
0.000117062

>  <SCORE.RESTR.CAVITY>
0.000117062

>  <SCORE.RESTR.norm>
1.17062e-05

>  <SCORE.SYSTEM>
0

>  <SCORE.SYSTEM.CONST>
0

>  <SCORE.SYSTEM.DIHEDRAL>
0

>  <SCORE.SYSTEM.SOLV>
0

>  <SCORE.SYSTEM.norm>
0

>  <SCORE.heavy>
10

>  <SCORE.norm>
-1.43183

>  <RMSD>
0.464

$$$$
ligand
 OpenBabel11021811513D
libRbt.so/2013.1/901 2013/11/27
 10 11  0  0  0  0  0  0  0  0999 V2000
  -30.1340   16.6799  -14.5931 N   0  0  0  0  0  0  0  0  0  0  0  0
  -31.0144   17.6281  -14.2492 C   0  0  0  0  0  0  0  0  0  0  0  0
  -31.5385   18.5958  -14.9994 N   0  0  0  0  0  0  0  0  0  0  0  0
  -31.0638   18.5373  -16.2534 C   0  0  0  0  0  0  0  0  0  0  0  0
  -30.1562   17.6249  -16.7549 C   0  0  0  0  0  0  0  0  0  0  0  0
  -29.6755   16.6474  -15.8610 C   0  0  0  0  0  0  0  0  0  0  0  0
  -28.7954   15.7017  -16.2076 N   0  0  0  0  0  0  0  0  0  0  0  0
  -29.8997   17.8717  -18.0930 N   0  0  0  0  0  0  0  0  0  0  0  0
  -30.6465   18.9155  -18.3684 C   0  0  0  0  0  0  0  0  0  0  0  0
  -31.3751   19.3697  -17.3046 N   0  0  0  0  0  0  0  0  0  0  0  0
  1  2  2  0  0  0  0
  1  6  1  0  0  0  0
  2  3  1  0  0  0  0
  3  4  2  0  0  0  0
  4  5  1  0  0  0  0
  4 10  1  0  0  0  0
  5  6  2  0  0  0  0
  5  8  1  0  0  0  0
  6  7  1  0  0  0  0
  8  9  1  0  0  0  0
  9 10  2  0  0  0  0
M  END
>  <CHROM.1>
-30.42365740,17.74849281,-16.26623534,1.15922488,-0.85215242,1.97149812

>  <Name>
ligand

>  <RI>
0

>  <Rbt.Current_Directory>
/home/itssahil/PROJECTS/Mol_Feturizer/New_Systems/rnas/4TZY

>  <Rbt.Executable>
rbdock ($Id: //depot/dev/client3/rdock/2013.1/src/exe/rbdock.cxx#4 $)

>  <Rbt.Library>
libRbt.so (2013.1, Build901 2013/11/27)

>  <Rbt.Parameter_File>
/export/apps/rDock/src/rDock_2013.1_src/data/scripts/dock_solv.prm

>  <Rbt.Receptor>
prm/pocket_docking_6.prm

>  <SCORE>
-14.3442

>  <SCORE.INTER>
-14.3445

>  <SCORE.INTER.CONST>
1

>  <SCORE.INTER.POLAR>
0

>  <SCORE.INTER.ROT>
0

>  <SCORE.INTER.SOLV>
8.29035

>  <SCORE.INTER.VDW>
-15.9265

>  <SCORE.INTER.norm>
-1.43445

>  <SCORE.INTRA>
0

>  <SCORE.INTRA.DIHEDRAL>
0

>  <SCORE.INTRA.DIHEDRAL.0>
0

>  <SCORE.INTRA.POLAR>
0

>  <SCORE.INTRA.POLAR.0>
0

>  <SCORE.INTRA.REPUL>
0

>  <SCORE.INTRA.REPUL.0>
0

>  <SCORE.INTRA.SOLV>
0

>  <SCORE.INTRA.SOLV.lig_0>
-23.8941

>  <SCORE.INTRA.VDW>
0

>  <SCORE.INTRA.VDW.0>
0

>  <SCORE.INTRA.norm>
0

>  <SCORE.RESTR>
0.000327331

>  <SCORE.RESTR.CAVITY>
0.000327331

>  <SCORE.RESTR.norm>
3.27331e-05

>  <SCORE.SYSTEM>
0

>  <SCORE.SYSTEM.CONST>
0

>  <SCORE.SYSTEM.DIHEDRAL>
0

>  <SCORE.SYSTEM.SOLV>
0

>  <SCORE.SYSTEM.norm>
0

>  <SCORE.heavy>
10

>  <SCORE.norm>
-1.43442

>  <RMSD>
0.465

$$$$
ligand
 OpenBabel11021811513D
libRbt.so/2013.1/901 2013/11/27
 10 11  0  0  0  0  0  0  0  0999 V2000
  -30.1044   16.6871  -14.6367 N   0  0  0  0  0  0  0  0  0  0  0  0
  -30.9886   17.6321  -14.2937 C   0  0  0  0  0  0  0  0  0  0  0  0
  -31.5235   18.5913  -15.0472 N   0  0  0  0  0  0  0  0  0  0  0  0
  -31.0563   18.5271  -16.3038 C   0  0  0  0  0  0  0  0  0  0  0  0
  -30.1461   17.6170  -16.8047 C   0  0  0  0  0  0  0  0  0  0  0  0
  -29.6536   16.6488  -15.9072 C   0  0  0  0  0  0  0  0  0  0  0  0
  -28.7698   15.7062  -16.2528 N   0  0  0  0  0  0  0  0  0  0  0  0
  -29.8995   17.8562  -18.1461 N   0  0  0  0  0  0  0  0  0  0  0  0
  -30.6546   18.8934  -18.4240 C   0  0  0  0  0  0  0  0  0  0  0  0
  -31.3794   19.3503  -17.3587 N   0  0  0  0  0  0  0  0  0  0  0  0
  1  2  2  0  0  0  0
  1  6  1  0  0  0  0
  2  3  1  0  0  0  0
  3  4  2  0  0  0  0
  4  5  1  0  0  0  0
  4 10  1  0  0  0  0
  5  6  2  0  0  0  0
  5  8  1  0  0  0  0
  6  7  1  0  0  0  0
  8  9  1  0  0  0  0
  9 10  2  0  0  0  0
M  END
>  <CHROM.1>
-30.41129045,17.74230053,-16.31525988,1.14677164,-0.84874882,1.95525973

>  <Name>
ligand

>  <RI>
0

>  <Rbt.Current_Directory>
/home/itssahil/PROJECTS/Mol_Feturizer/New_Systems/rnas/4TZY

>  <Rbt.Executable>
rbdock ($Id: //depot/dev/client3/rdock/2013.1/src/exe/rbdock.cxx#4 $)

>  <Rbt.Library>
libRbt.so (2013.1, Build901 2013/11/27)

>  <Rbt.Parameter_File>
/export/apps/rDock/src/rDock_2013.1_src/data/scripts/dock_solv.prm

>  <Rbt.Receptor>
prm/blind_docking_100.prm

>  <SCORE>
-14.3885

>  <SCORE.INTER>
-14.3889

>  <SCORE.INTER.CONST>
1

>  <SCORE.INTER.POLAR>
0

>  <SCORE.INTER.ROT>
0

>  <SCORE.INTER.SOLV>
8.29147

>  <SCORE.INTER.VDW>
-15.9564

>  <SCORE.INTER.norm>
-1.43889

>  <SCORE.INTRA>
0

>  <SCORE.INTRA.DIHEDRAL>
0

>  <SCORE.INTRA.DIHEDRAL.0>
0

>  <SCORE.INTRA.POLAR>
0

>  <SCORE.INTRA.POLAR.0>
0

>  <SCORE.INTRA.REPUL>
0

>  <SCORE.INTRA.REPUL.0>
0

>  <SCORE.INTRA.SOLV>
0

>  <SCORE.INTRA.SOLV.lig_0>
-23.8941

>  <SCORE.INTRA.VDW>
0

>  <SCORE.INTRA.VDW.0>
0

>  <SCORE.INTRA.norm>
0

>  <SCORE.RESTR>
0.00045003

>  <SCORE.RESTR.CAVITY>
0.00045003

>  <SCORE.RESTR.norm>
4.5003e-05

>  <SCORE.SYSTEM>
0

>  <SCORE.SYSTEM.CONST>
0

>  <SCORE.SYSTEM.DIHEDRAL>
0

>  <SCORE.SYSTEM.SOLV>
0

>  <SCORE.SYSTEM.norm>
0

>  <SCORE.heavy>
10

>  <SCORE.norm>
-1.43885

>  <RMSD>
0.466

$$$$
ligand
 OpenBabel11021811513D
libRbt.so/2013.1/901 2013/11/27
 10 11  0  0  0  0  0  0  0  0999 V2000
  -30.0849   16.7142  -14.6046 N   0  0  0  0  0  0  0  0  0  0  0  0
  -31.0025   17.6305  -14.2718 C   0  0  0  0  0  0  0  0  0  0  0  0
  -31.5653   18.5670  -15.0336 N   0  0  0  0  0  0  0  0  0  0  0  0
  -31.0889   18.5119  -16.2871 C   0  0  0  0  0  0  0  0  0  0  0  0
  -30.1456   17.6305  -16.7779 C   0  0  0  0  0  0  0  0  0  0  0  0
  -29.6258   16.6843  -15.8723 C   0  0  0  0  0  0  0  0  0  0  0  0
  -28.7086   15.7703  -16.2078 N   0  0  0  0  0  0  0  0  0  0  0  0
  -29.8996   17.8707  -18.1192 N   0  0  0  0  0  0  0  0  0  0  0  0
  -30.6877   18.8803  -18.4070 C   0  0  0  0  0  0  0  0  0  0  0  0
  -31.4336   19.3180  -17.3483 N   0  0  0  0  0  0  0  0  0  0  0  0
  1  2  2  0  0  0  0
  1  6  1  0  0  0  0
  2  3  1  0  0  0  0
  3  4  2  0  0  0  0
  4  5  1  0  0  0  0
  4 10  1  0  0  0  0
  5  6  2  0  0  0  0
  5  8  1  0  0  0  0
  6  7  1  0  0  0  0
  8  9  1  0  0  0  0
  9 10  2  0  0  0  0
M  END
>  <CHROM.1>
-30.41766956,17.74935798,-16.29065118,1.13603570,-0.81519664,1.94187908

>  <Name>
ligand

>  <RI>
0

>  <Rbt.Current_Directory>
/home/itssahil/PROJECTS/Mol_Feturizer/New_Systems/rnas/4TZY

>  <Rbt.Executable>
rbdock ($Id: //depot/dev/client3/rdock/2013.1/src/exe/rbdock.cxx#4 $)

>  <Rbt.Library>
libRbt.so (2013.1, Build901 2013/11/27)

>  <Rbt.Parameter_File>
/export/apps/rDock/src/rDock_2013.1_src/data/scripts/dock_solv.prm

>  <Rbt.Receptor>
prm/blind_docking_60.prm

>  <SCORE>
-14.3771

>  <SCORE.INTER>
-14.3775

>  <SCORE.INTER.CONST>
1

>  <SCORE.INTER.POLAR>
0

>  <SCORE.INTER.ROT>
0

>  <SCORE.INTER.SOLV>
7.99208

>  <SCORE.INTER.VDW>
-15.849

>  <SCORE.INTER.norm>
-1.43775

>  <SCORE.INTRA>
0

>  <SCORE.INTRA.DIHEDRAL>
0

>  <SCORE.INTRA.DIHEDRAL.0>
0

>  <SCORE.INTRA.POLAR>
0

>  <SCORE.INTRA.POLAR.0>
0

>  <SCORE.INTRA.REPUL>
0

>  <SCORE.INTRA.REPUL.0>
0

>  <SCORE.INTRA.SOLV>
0

>  <SCORE.INTRA.SOLV.lig_0>
-23.8941

>  <SCORE.INTRA.VDW>
0

>  <SCORE.INTRA.VDW.0>
0

>  <SCORE.INTRA.norm>
0

>  <SCORE.RESTR>
0.000437719

>  <SCORE.RESTR.CAVITY>
0.000437719

>  <SCORE.RESTR.norm>
4.37719e-05

>  <SCORE.SYSTEM>
0

>  <SCORE.SYSTEM.CONST>
0

>  <SCORE.SYSTEM.DIHEDRAL>
0

>  <SCORE.SYSTEM.SOLV>
0

>  <SCORE.SYSTEM.norm>
0

>  <SCORE.heavy>
10

>  <SCORE.norm>
-1.43771

>  <RMSD>
0.468

$$$$
ligand
 OpenBabel11021811513D
libRbt.so/2013.1/901 2013/11/27
 10 11  0  0  0  0  0  0  0  0999 V2000
  -30.1095   16.7010  -14.5888 N   0  0  0  0  0  0  0  0  0  0  0  0
  -31.0386   17.6076  -14.2615 C   0  0  0  0  0  0  0  0  0  0  0  0
  -31.6023   18.5421  -15.0250 N   0  0  0  0  0  0  0  0  0  0  0  0
  -31.1131   18.4964  -16.2740 C   0  0  0  0  0  0  0  0  0  0  0  0
  -30.1571   17.6255  -16.7590 C   0  0  0  0  0  0  0  0  0  0  0  0
  -29.6377   16.6804  -15.8521 C   0  0  0  0  0  0  0  0  0  0  0  0
  -28.7090   15.7761  -16.1821 N   0  0  0  0  0  0  0  0  0  0  0  0
  -29.9001   17.8733  -18.0968 N   0  0  0  0  0  0  0  0  0  0  0  0
  -30.6945   18.8769  -18.3884 C   0  0  0  0  0  0  0  0  0  0  0  0
  -31.4547   19.3036  -17.3354 N   0  0  0  0  0  0  0  0  0  0  0  0
  1  2  2  0  0  0  0
  1  6  1  0  0  0  0
  2  3  1  0  0  0  0
  3  4  2  0  0  0  0
  4  5  1  0  0  0  0
  4 10  1  0  0  0  0
  5  6  2  0  0  0  0
  5  8  1  0  0  0  0
  6  7  1  0  0  0  0
  8  9  1  0  0  0  0
  9 10  2  0  0  0  0
M  END
>  <CHROM.1>
-30.43501396,17.73993922,-16.27396771,1.14449433,-0.80315752,1.95199575

>  <Name>
ligand

>  <RI>
0

>  <Rbt.Current_Directory>
/home/itssahil/PROJECTS/Mol_Feturizer/New_Systems/rnas/4TZY

>  <Rbt.Executable>
rbdock ($Id: //depot/dev/client3/rdock/2013.1/src/exe/rbdock.cxx#4 $)

>  <Rbt.Library>
libRbt.so (2013.1, Build901 2013/11/27)

>  <Rbt.Parameter_File>
/export/apps/rDock/src/rDock_2013.1_src/data/scripts/dock_solv.prm

>  <Rbt.Receptor>
prm/pocket_docking_8.prm

>  <SCORE>
-14.3614

>  <SCORE.INTER>
-14.3614

>  <SCORE.INTER.CONST>
1

>  <SCORE.INTER.POLAR>
0

>  <SCORE.INTER.ROT>
0

>  <SCORE.INTER.SOLV>
7.95141

>  <SCORE.INTER.VDW>
-15.8248

>  <SCORE.INTER.norm>
-1.43614

>  <SCORE.INTRA>
0

>  <SCORE.INTRA.DIHEDRAL>
0

>  <SCORE.INTRA.DIHEDRAL.0>
0

>  <SCORE.INTRA.POLAR>
0

>  <SCORE.INTRA.POLAR.0>
0

>  <SCORE.INTRA.REPUL>
0

>  <SCORE.INTRA.REPUL.0>
0

>  <SCORE.INTRA.SOLV>
0

>  <SCORE.INTRA.SOLV.lig_0>
-23.8941

>  <SCORE.INTRA.VDW>
0

>  <SCORE.INTRA.VDW.0>
0

>  <SCORE.INTRA.norm>
0

>  <SCORE.RESTR>
0

>  <SCORE.RESTR.CAVITY>
0

>  <SCORE.RESTR.norm>
0

>  <SCORE.SYSTEM>
0

>  <SCORE.SYSTEM.CONST>
0

>  <SCORE.SYSTEM.DIHEDRAL>
0

>  <SCORE.SYSTEM.SOLV>
0

>  <SCORE.SYSTEM.norm>
0

>  <SCORE.heavy>
10

>  <SCORE.norm>
-1.43614

>  <RMSD>
0.468

$$$$
ligand
 OpenBabel11021811513D
libRbt.so/2013.1/901 2013/11/27
 10 11  0  0  0  0  0  0  0  0999 V2000
  -29.9687   16.7278  -14.5330 N   0  0  0  0  0  0  0  0  0  0  0  0
  -30.9444   17.5818  -14.1997 C   0  0  0  0  0  0  0  0  0  0  0  0
  -31.5786   18.4685  -14.9649 N   0  0  0  0  0  0  0  0  0  0  0  0
  -31.1123   18.4328  -16.2229 C   0  0  0  0  0  0  0  0  0  0  0  0
  -30.1151   17.6136  -16.7149 C   0  0  0  0  0  0  0  0  0  0  0  0
  -29.5216   16.7158  -15.8053 C   0  0  0  0  0  0  0  0  0  0  0  0
  -28.5465   15.8641  -16.1414 N   0  0  0  0  0  0  0  0  0  0  0  0
  -29.9000   17.8555  -18.0612 N   0  0  0  0  0  0  0  0  0  0  0  0
  -30.7594   18.8047  -18.3508 C   0  0  0  0  0  0  0  0  0  0  0  0
  -31.5231   19.2013  -17.2886 N   0  0  0  0  0  0  0  0  0  0  0  0
  1  2  2  0  0  0  0
  1  6  1  0  0  0  0
  2  3  1  0  0  0  0
  3  4  2  0  0  0  0
  4  5  1  0  0  0  0
  4 10  1  0  0  0  0
  5  6  2  0  0  0  0
  5  8  1  0  0  0  0
  6  7  1  0  0  0  0
  8  9  1  0  0  0  0
  9 10  2  0  0  0  0
M  END
>  <CHROM.1>
-30.38979237,17.71868112,-16.22593457,1.08841948,-0.75346193,1.89752974

>  <Name>
ligand

>  <RI>
0

>  <Rbt.Current_Directory>
/home/itssahil/PROJECTS/Mol_Feturizer/New_Systems/rnas/4TZY

>  <Rbt.Executable>
rbdock ($Id: //depot/dev/client3/rdock/2013.1/src/exe/rbdock.cxx#4 $)

>  <Rbt.Library>
libRbt.so (2013.1, Build901 2013/11/27)

>  <Rbt.Parameter_File>
/export/apps/rDock/src/rDock_2013.1_src/data/scripts/dock_solv.prm

>  <Rbt.Receptor>
prm/pocket_docking_4.prm

>  <SCORE>
-14.29

>  <SCORE.INTER>
-14.29

>  <SCORE.INTER.CONST>
1

>  <SCORE.INTER.POLAR>
0

>  <SCORE.INTER.ROT>
0

>  <SCORE.INTER.SOLV>
7.42261

>  <SCORE.INTER.VDW>
-15.6008

>  <SCORE.INTER.norm>
-1.429

>  <SCORE.INTRA>
0

>  <SCORE.INTRA.DIHEDRAL>
0

>  <SCORE.INTRA.DIHEDRAL.0>
0

>  <SCORE.INTRA.POLAR>
0

>  <SCORE.INTRA.POLAR.0>
0

>  <SCORE.INTRA.REPUL>
0

>  <SCORE.INTRA.REPUL.0>
0

>  <SCORE.INTRA.SOLV>
0

>  <SCORE.INTRA.SOLV.lig_0>
-23.8941

>  <SCORE.INTRA.VDW>
0

>  <SCORE.INTRA.VDW.0>
0

>  <SCORE.INTRA.norm>
0

>  <SCORE.RESTR>
0

>  <SCORE.RESTR.CAVITY>
0

>  <SCORE.RESTR.norm>
0

>  <SCORE.SYSTEM>
0

>  <SCORE.SYSTEM.CONST>
0

>  <SCORE.SYSTEM.DIHEDRAL>
0

>  <SCORE.SYSTEM.SOLV>
0

>  <SCORE.SYSTEM.norm>
0

>  <SCORE.heavy>
10

>  <SCORE.norm>
-1.429

>  <RMSD>
0.469

$$$$
ligand
 OpenBabel11021811513D
libRbt.so/2013.1/901 2013/11/27
 10 11  0  0  0  0  0  0  0  0999 V2000
  -30.1140   16.6891  -14.6117 N   0  0  0  0  0  0  0  0  0  0  0  0
  -31.0010   17.6309  -14.2673 C   0  0  0  0  0  0  0  0  0  0  0  0
  -31.5353   18.5925  -15.0182 N   0  0  0  0  0  0  0  0  0  0  0  0
  -31.0639   18.5348  -16.2735 C   0  0  0  0  0  0  0  0  0  0  0  0
  -30.1505   17.6287  -16.7756 C   0  0  0  0  0  0  0  0  0  0  0  0
  -29.6591   16.6573  -15.8809 C   0  0  0  0  0  0  0  0  0  0  0  0
  -28.7724   15.7179  -16.2279 N   0  0  0  0  0  0  0  0  0  0  0  0
  -29.9001   17.8743  -18.1151 N   0  0  0  0  0  0  0  0  0  0  0  0
  -30.6562   18.9114  -18.3907 C   0  0  0  0  0  0  0  0  0  0  0  0
  -31.3853   19.3621  -17.3257 N   0  0  0  0  0  0  0  0  0  0  0  0
  1  2  2  0  0  0  0
  1  6  1  0  0  0  0
  2  3  1  0  0  0  0
  3  4  2  0  0  0  0
  4  5  1  0  0  0  0
  4 10  1  0  0  0  0
  5  6  2  0  0  0  0
  5  8  1  0  0  0  0
  6  7  1  0  0  0  0
  8  9  1  0  0  0  0
  9 10  2  0  0  0  0
M  END
>  <CHROM.1>
-30.41745029,17.75125070,-16.28642988,1.15016168,-0.84582318,1.96229979

>  <Name>
ligand

>  <RI>
0

>  <Rbt.Current_Directory>
/home/itssahil/PROJECTS/Mol_Feturizer/New_Systems/rnas/4TZY

>  <Rbt.Executable>
rbdock ($Id: //depot/dev/client3/rdock/2013.1/src/exe/rbdock.cxx#4 $)

>  <Rbt.Library>
libRbt.so (2013.1, Build901 2013/11/27)

>  <Rbt.Parameter_File>
/export/apps/rDock/src/rDock_2013.1_src/data/scripts/dock_solv.prm

>  <Rbt.Receptor>
prm/blind_docking_60.prm

>  <SCORE>
-14.3802

>  <SCORE.INTER>
-14.3802

>  <SCORE.INTER.CONST>
1

>  <SCORE.INTER.POLAR>
0

>  <SCORE.INTER.ROT>
0

>  <SCORE.INTER.SOLV>
8.2386

>  <SCORE.INTER.VDW>
-15.933

>  <SCORE.INTER.norm>
-1.43802

>  <SCORE.INTRA>
0

>  <SCORE.INTRA.DIHEDRAL>
0

>  <SCORE.INTRA.DIHEDRAL.0>
0

>  <SCORE.INTRA.POLAR>
0

>  <SCORE.INTRA.POLAR.0>
0

>  <SCORE.INTRA.REPUL>
0

>  <SCORE.INTRA.REPUL.0>
0

>  <SCORE.INTRA.SOLV>
0

>  <SCORE.INTRA.SOLV.lig_0>
-23.8941

>  <SCORE.INTRA.VDW>
0

>  <SCORE.INTRA.VDW.0>
0

>  <SCORE.INTRA.norm>
0

>  <SCORE.RESTR>
0

>  <SCORE.RESTR.CAVITY>
0

>  <SCORE.RESTR.norm>
0

>  <SCORE.SYSTEM>
0

>  <SCORE.SYSTEM.CONST>
0

>  <SCORE.SYSTEM.DIHEDRAL>
0

>  <SCORE.SYSTEM.SOLV>
0

>  <SCORE.SYSTEM.norm>
0

>  <SCORE.heavy>
10

>  <SCORE.norm>
-1.43802

>  <RMSD>
0.470

$$$$
ligand
 OpenBabel11021811513D
libRbt.so/2013.1/901 2013/11/27
 10 11  0  0  0  0  0  0  0  0999 V2000
  -30.1146   16.6940  -14.6059 N   0  0  0  0  0  0  0  0  0  0  0  0
  -31.0032   17.6347  -14.2625 C   0  0  0  0  0  0  0  0  0  0  0  0
  -31.5383   18.5953  -15.0141 N   0  0  0  0  0  0  0  0  0  0  0  0
  -31.0659   18.5379  -16.2690 C   0  0  0  0  0  0  0  0  0  0  0  0
  -30.1508   17.6328  -16.7702 C   0  0  0  0  0  0  0  0  0  0  0  0
  -29.6587   16.6624  -15.8747 C   0  0  0  0  0  0  0  0  0  0  0  0
  -28.7704   15.7242  -16.2208 N   0  0  0  0  0  0  0  0  0  0  0  0
  -29.8997   17.8784  -18.1095 N   0  0  0  0  0  0  0  0  0  0  0  0
  -30.6571   18.9143  -18.3861 C   0  0  0  0  0  0  0  0  0  0  0  0
  -31.3876   19.3644  -17.3218 N   0  0  0  0  0  0  0  0  0  0  0  0
  1  2  2  0  0  0  0
  1  6  1  0  0  0  0
  2  3  1  0  0  0  0
  3  4  2  0  0  0  0
  4  5  1  0  0  0  0
  4 10  1  0  0  0  0
  5  6  2  0  0  0  0
  5  8  1  0  0  0  0
  6  7  1  0  0  0  0
  8  9  1  0  0  0  0
  9 10  2  0  0  0  0
M  END
>  <CHROM.1>
-30.41828499,17.75520091,-16.28122989,1.15041147,-0.84424714,1.96215197

>  <Name>
ligand

>  <RI>
0

>  <Rbt.Current_Directory>
/home/itssahil/PROJECTS/Mol_Feturizer/New_Systems/rnas/4TZY

>  <Rbt.Executable>
rbdock ($Id: //depot/dev/client3/rdock/2013.1/src/exe/rbdock.cxx#4 $)

>  <Rbt.Library>
libRbt.so (2013.1, Build901 2013/11/27)

>  <Rbt.Parameter_File>
/export/apps/rDock/src/rDock_2013.1_src/data/scripts/dock_solv.prm

>  <Rbt.Receptor>
prm/blind_docking_80.prm

>  <SCORE>
-14.3786

>  <SCORE.INTER>
-14.3789

>  <SCORE.INTER.CONST>
1

>  <SCORE.INTER.POLAR>
0

>  <SCORE.INTER.ROT>
0

>  <SCORE.INTER.SOLV>
8.21648

>  <SCORE.INTER.VDW>
-15.9247

>  <SCORE.INTER.norm>
-1.43789

>  <SCORE.INTRA>
0

>  <SCORE.INTRA.DIHEDRAL>
0

>  <SCORE.INTRA.DIHEDRAL.0>
0

>  <SCORE.INTRA.POLAR>
0

>  <SCORE.INTRA.POLAR.0>
0

>  <SCORE.INTRA.REPUL>
0

>  <SCORE.INTRA.REPUL.0>
0

>  <SCORE.INTRA.SOLV>
0

>  <SCORE.INTRA.SOLV.lig_0>
-23.8941

>  <SCORE.INTRA.VDW>
0

>  <SCORE.INTRA.VDW.0>
0

>  <SCORE.INTRA.norm>
0

>  <SCORE.RESTR>
0.000269811

>  <SCORE.RESTR.CAVITY>
0.000269811

>  <SCORE.RESTR.norm>
2.69811e-05

>  <SCORE.SYSTEM>
0

>  <SCORE.SYSTEM.CONST>
0

>  <SCORE.SYSTEM.DIHEDRAL>
0

>  <SCORE.SYSTEM.SOLV>
0

>  <SCORE.SYSTEM.norm>
0

>  <SCORE.heavy>
10

>  <SCORE.norm>
-1.43786

>  <RMSD>
0.470

$$$$
ligand
 OpenBabel11021811513D
libRbt.so/2013.1/901 2013/11/27
 10 11  0  0  0  0  0  0  0  0999 V2000
  -30.0882   16.6694  -14.6355 N   0  0  0  0  0  0  0  0  0  0  0  0
  -30.9973   17.5896  -14.2905 C   0  0  0  0  0  0  0  0  0  0  0  0
  -31.5535   18.5394  -15.0405 N   0  0  0  0  0  0  0  0  0  0  0  0
  -31.0801   18.4944  -16.2956 C   0  0  0  0  0  0  0  0  0  0  0  0
  -30.1453   17.6106  -16.7983 C   0  0  0  0  0  0  0  0  0  0  0  0
  -29.6318   16.6499  -15.9045 C   0  0  0  0  0  0  0  0  0  0  0  0
  -28.7231   15.7320  -16.2521 N   0  0  0  0  0  0  0  0  0  0  0  0
  -29.8999   17.8638  -18.1373 N   0  0  0  0  0  0  0  0  0  0  0  0
  -30.6800   18.8832  -18.4121 C   0  0  0  0  0  0  0  0  0  0  0  0
  -31.4201   19.3153  -17.3470 N   0  0  0  0  0  0  0  0  0  0  0  0
  1  2  2  0  0  0  0
  1  6  1  0  0  0  0
  2  3  1  0  0  0  0
  3  4  2  0  0  0  0
  4  5  1  0  0  0  0
  4 10  1  0  0  0  0
  5  6  2  0  0  0  0
  5  8  1  0  0  0  0
  6  7  1  0  0  0  0
  8  9  1  0  0  0  0
  9 10  2  0  0  0  0
M  END
>  <CHROM.1>
-30.41540794,17.72627197,-16.30912878,1.13786071,-0.82385280,1.95447998

>  <Name>
ligand

>  <RI>
0

>  <Rbt.Current_Directory>
/home/itssahil/PROJECTS/Mol_Feturizer/New_Systems/rnas/4TZY

>  <Rbt.Executable>
rbdock ($Id: //depot/dev/client3/rdock/2013.1/src/exe/rbdock.cxx#4 $)

>  <Rbt.Library>
libRbt.so (2013.1, Build901 2013/11/27)

>  <Rbt.Parameter_File>
/export/apps/rDock/src/rDock_2013.1_src/data/scripts/dock_solv.prm

>  <Rbt.Receptor>
prm/pocket_docking_4.prm

>  <SCORE>
-14.3065

>  <SCORE.INTER>
-14.3066

>  <SCORE.INTER.CONST>
1

>  <SCORE.INTER.POLAR>
0

>  <SCORE.INTER.ROT>
0

>  <SCORE.INTER.SOLV>
8.14326

>  <SCORE.INTER.VDW>
-15.8521

>  <SCORE.INTER.norm>
-1.43066

>  <SCORE.INTRA>
0

>  <SCORE.INTRA.DIHEDRAL>
0

>  <SCORE.INTRA.DIHEDRAL.0>
0

>  <SCORE.INTRA.POLAR>
0

>  <SCORE.INTRA.POLAR.0>
0

>  <SCORE.INTRA.REPUL>
0

>  <SCORE.INTRA.REPUL.0>
0

>  <SCORE.INTRA.SOLV>
0

>  <SCORE.INTRA.SOLV.lig_0>
-23.8941

>  <SCORE.INTRA.VDW>
0

>  <SCORE.INTRA.VDW.0>
0

>  <SCORE.INTRA.norm>
0

>  <SCORE.RESTR>
8.57835e-05

>  <SCORE.RESTR.CAVITY>
8.57835e-05

>  <SCORE.RESTR.norm>
8.57835e-06

>  <SCORE.SYSTEM>
0

>  <SCORE.SYSTEM.CONST>
0

>  <SCORE.SYSTEM.DIHEDRAL>
0

>  <SCORE.SYSTEM.SOLV>
0

>  <SCORE.SYSTEM.norm>
0

>  <SCORE.heavy>
10

>  <SCORE.norm>
-1.43065

>  <RMSD>
0.470

$$$$
ligand
 OpenBabel11021811513D
libRbt.so/2013.1/901 2013/11/27
 10 11  0  0  0  0  0  0  0  0999 V2000
  -30.0992   16.7034  -14.6156 N   0  0  0  0  0  0  0  0  0  0  0  0
  -31.0092   17.6261  -14.2799 C   0  0  0  0  0  0  0  0  0  0  0  0
  -31.5631   18.5706  -15.0382 N   0  0  0  0  0  0  0  0  0  0  0  0
  -31.0859   18.5167  -16.2915 C   0  0  0  0  0  0  0  0  0  0  0  0
  -30.1498   17.6293  -16.7852 C   0  0  0  0  0  0  0  0  0  0  0  0
  -29.6391   16.6748  -15.8830 C   0  0  0  0  0  0  0  0  0  0  0  0
  -28.7294   15.7545  -16.2215 N   0  0  0  0  0  0  0  0  0  0  0  0
  -29.9003   17.8730  -18.1252 N   0  0  0  0  0  0  0  0  0  0  0  0
  -30.6795   18.8905  -18.4095 C   0  0  0  0  0  0  0  0  0  0  0  0
  -31.4227   19.3302  -17.3497 N   0  0  0  0  0  0  0  0  0  0  0  0
  1  2  2  0  0  0  0
  1  6  1  0  0  0  0
  2  3  1  0  0  0  0
  3  4  2  0  0  0  0
  4  5  1  0  0  0  0
  4 10  1  0  0  0  0
  5  6  2  0  0  0  0
  5  8  1  0  0  0  0
  6  7  1  0  0  0  0
  8  9  1  0  0  0  0
  9 10  2  0  0  0  0
M  END
>  <CHROM.1>
-30.42131076,17.74843456,-16.29763793,1.14200651,-0.82283492,1.95044855

>  <Name>
ligand

>  <RI>
0

>  <Rbt.Current_Directory>
/home/itssahil/PROJECTS/Mol_Feturizer/New_Systems/rnas/4TZY

>  <Rbt.Executable>
rbdock ($Id: //depot/dev/client3/rdock/2013.1/src/exe/rbdock.cxx#4 $)

>  <Rbt.Library>
libRbt.so (2013.1, Build901 2013/11/27)

>  <Rbt.Parameter_File>
/export/apps/rDock/src/rDock_2013.1_src/data/scripts/dock_solv.prm

>  <Rbt.Receptor>
prm/pocket_docking_6.prm

>  <SCORE>
-14.3708

>  <SCORE.INTER>
-14.3708

>  <SCORE.INTER.CONST>
1

>  <SCORE.INTER.POLAR>
0

>  <SCORE.INTER.ROT>
0

>  <SCORE.INTER.SOLV>
8.0792

>  <SCORE.INTER.VDW>
-15.8736

>  <SCORE.INTER.norm>
-1.43708

>  <SCORE.INTRA>
0

>  <SCORE.INTRA.DIHEDRAL>
0

>  <SCORE.INTRA.DIHEDRAL.0>
0

>  <SCORE.INTRA.POLAR>
0

>  <SCORE.INTRA.POLAR.0>
0

>  <SCORE.INTRA.REPUL>
0

>  <SCORE.INTRA.REPUL.0>
0

>  <SCORE.INTRA.SOLV>
0

>  <SCORE.INTRA.SOLV.lig_0>
-23.8941

>  <SCORE.INTRA.VDW>
0

>  <SCORE.INTRA.VDW.0>
0

>  <SCORE.INTRA.norm>
0

>  <SCORE.RESTR>
0

>  <SCORE.RESTR.CAVITY>
0

>  <SCORE.RESTR.norm>
0

>  <SCORE.SYSTEM>
0

>  <SCORE.SYSTEM.CONST>
0

>  <SCORE.SYSTEM.DIHEDRAL>
0

>  <SCORE.SYSTEM.SOLV>
0

>  <SCORE.SYSTEM.norm>
0

>  <SCORE.heavy>
10

>  <SCORE.norm>
-1.43708

>  <RMSD>
0.471

$$$$
ligand
 OpenBabel11021811513D
libRbt.so/2013.1/901 2013/11/27
 10 11  0  0  0  0  0  0  0  0999 V2000
  -30.0847   16.7027  -14.6213 N   0  0  0  0  0  0  0  0  0  0  0  0
  -30.9983   17.6211  -14.2834 C   0  0  0  0  0  0  0  0  0  0  0  0
  -31.5586   18.5629  -15.0404 N   0  0  0  0  0  0  0  0  0  0  0  0
  -31.0842   18.5112  -16.2949 C   0  0  0  0  0  0  0  0  0  0  0  0
  -30.1449   17.6283  -16.7907 C   0  0  0  0  0  0  0  0  0  0  0  0
  -29.6275   16.6763  -15.8898 C   0  0  0  0  0  0  0  0  0  0  0  0
  -28.7143   15.7603  -16.2304 N   0  0  0  0  0  0  0  0  0  0  0  0
  -29.8999   17.8731  -18.1313 N   0  0  0  0  0  0  0  0  0  0  0  0
  -30.6845   18.8869  -18.4138 C   0  0  0  0  0  0  0  0  0  0  0  0
  -31.4273   19.3230  -17.3523 N   0  0  0  0  0  0  0  0  0  0  0  0
  1  2  2  0  0  0  0
  1  6  1  0  0  0  0
  2  3  1  0  0  0  0
  3  4  2  0  0  0  0
  4  5  1  0  0  0  0
  4 10  1  0  0  0  0
  5  6  2  0  0  0  0
  5  8  1  0  0  0  0
  6  7  1  0  0  0  0
  8  9  1  0  0  0  0
  9 10  2  0  0  0  0
M  END
>  <CHROM.1>
-30.41586227,17.74612004,-16.30255097,1.13614643,-0.81925972,1.94612507

>  <Name>
ligand

>  <RI>
0

>  <Rbt.Current_Directory>
/home/itssahil/PROJECTS/Mol_Feturizer/New_Systems/rnas/4TZY

>  <Rbt.Executable>
rbdock ($Id: //depot/dev/client3/rdock/2013.1/src/exe/rbdock.cxx#4 $)

>  <Rbt.Library>
libRbt.so (2013.1, Build901 2013/11/27)

>  <Rbt.Parameter_File>
/export/apps/rDock/src/rDock_2013.1_src/data/scripts/dock_solv.prm

>  <Rbt.Receptor>
prm/blind_docking_60.prm

>  <SCORE>
-14.3753

>  <SCORE.INTER>
-14.3755

>  <SCORE.INTER.CONST>
1

>  <SCORE.INTER.POLAR>
0

>  <SCORE.INTER.ROT>
0

>  <SCORE.INTER.SOLV>
8.04932

>  <SCORE.INTER.VDW>
-15.8668

>  <SCORE.INTER.norm>
-1.43755

>  <SCORE.INTRA>
0

>  <SCORE.INTRA.DIHEDRAL>
0

>  <SCORE.INTRA.DIHEDRAL.0>
0

>  <SCORE.INTRA.POLAR>
0

>  <SCORE.INTRA.POLAR.0>
0

>  <SCORE.INTRA.REPUL>
0

>  <SCORE.INTRA.REPUL.0>
0

>  <SCORE.INTRA.SOLV>
0

>  <SCORE.INTRA.SOLV.lig_0>
-23.8941

>  <SCORE.INTRA.VDW>
0

>  <SCORE.INTRA.VDW.0>
0

>  <SCORE.INTRA.norm>
0

>  <SCORE.RESTR>
0.000138223

>  <SCORE.RESTR.CAVITY>
0.000138223

>  <SCORE.RESTR.norm>
1.38223e-05

>  <SCORE.SYSTEM>
0

>  <SCORE.SYSTEM.CONST>
0

>  <SCORE.SYSTEM.DIHEDRAL>
0

>  <SCORE.SYSTEM.SOLV>
0

>  <SCORE.SYSTEM.norm>
0

>  <SCORE.heavy>
10

>  <SCORE.norm>
-1.43753

>  <RMSD>
0.472

$$$$
ligand
 OpenBabel11021811513D
libRbt.so/2013.1/901 2013/11/27
 10 11  0  0  0  0  0  0  0  0999 V2000
  -30.0941   16.7113  -14.5954 N   0  0  0  0  0  0  0  0  0  0  0  0
  -31.0236   17.6166  -14.2655 C   0  0  0  0  0  0  0  0  0  0  0  0
  -31.5920   18.5491  -15.0279 N   0  0  0  0  0  0  0  0  0  0  0  0
  -31.1075   18.5029  -16.2787 C   0  0  0  0  0  0  0  0  0  0  0  0
  -30.1518   17.6333  -16.7664 C   0  0  0  0  0  0  0  0  0  0  0  0
  -29.6271   16.6901  -15.8604 C   0  0  0  0  0  0  0  0  0  0  0  0
  -28.6980   15.7872  -16.1930 N   0  0  0  0  0  0  0  0  0  0  0  0
  -29.9004   17.8800  -18.1055 N   0  0  0  0  0  0  0  0  0  0  0  0
  -30.6978   18.8818  -18.3951 C   0  0  0  0  0  0  0  0  0  0  0  0
  -31.4547   19.3083  -17.3397 N   0  0  0  0  0  0  0  0  0  0  0  0
  1  2  2  0  0  0  0
  1  6  1  0  0  0  0
  2  3  1  0  0  0  0
  3  4  2  0  0  0  0
  4  5  1  0  0  0  0
  4 10  1  0  0  0  0
  5  6  2  0  0  0  0
  5  8  1  0  0  0  0
  6  7  1  0  0  0  0
  8  9  1  0  0  0  0
  9 10  2  0  0  0  0
M  END
>  <CHROM.1>
-30.42804327,17.74771840,-16.28043107,1.13833890,-0.80286624,1.94643749

>  <Name>
ligand

>  <RI>
0

>  <Rbt.Current_Directory>
/home/itssahil/PROJECTS/Mol_Feturizer/New_Systems/rnas/4TZY

>  <Rbt.Executable>
rbdock ($Id: //depot/dev/client3/rdock/2013.1/src/exe/rbdock.cxx#4 $)

>  <Rbt.Library>
libRbt.so (2013.1, Build901 2013/11/27)

>  <Rbt.Parameter_File>
/export/apps/rDock/src/rDock_2013.1_src/data/scripts/dock_solv.prm

>  <Rbt.Receptor>
prm/pocket_docking_5.prm

>  <SCORE>
-14.3674

>  <SCORE.INTER>
-14.3674

>  <SCORE.INTER.CONST>
1

>  <SCORE.INTER.POLAR>
0

>  <SCORE.INTER.ROT>
0

>  <SCORE.INTER.SOLV>
7.92313

>  <SCORE.INTER.VDW>
-15.8193

>  <SCORE.INTER.norm>
-1.43674

>  <SCORE.INTRA>
0

>  <SCORE.INTRA.DIHEDRAL>
0

>  <SCORE.INTRA.DIHEDRAL.0>
0

>  <SCORE.INTRA.POLAR>
0

>  <SCORE.INTRA.POLAR.0>
0

>  <SCORE.INTRA.REPUL>
0

>  <SCORE.INTRA.REPUL.0>
0

>  <SCORE.INTRA.SOLV>
0

>  <SCORE.INTRA.SOLV.lig_0>
-23.8941

>  <SCORE.INTRA.VDW>
0

>  <SCORE.INTRA.VDW.0>
0

>  <SCORE.INTRA.norm>
0

>  <SCORE.RESTR>
0

>  <SCORE.RESTR.CAVITY>
0

>  <SCORE.RESTR.norm>
0

>  <SCORE.SYSTEM>
0

>  <SCORE.SYSTEM.CONST>
0

>  <SCORE.SYSTEM.DIHEDRAL>
0

>  <SCORE.SYSTEM.SOLV>
0

>  <SCORE.SYSTEM.norm>
0

>  <SCORE.heavy>
10

>  <SCORE.norm>
-1.43674

>  <RMSD>
0.472

$$$$
ligand
 OpenBabel11021811513D
libRbt.so/2013.1/901 2013/11/27
 10 11  0  0  0  0  0  0  0  0999 V2000
  -30.0928   16.6995  -14.6302 N   0  0  0  0  0  0  0  0  0  0  0  0
  -30.9951   17.6282  -14.2899 C   0  0  0  0  0  0  0  0  0  0  0  0
  -31.5456   18.5771  -15.0453 N   0  0  0  0  0  0  0  0  0  0  0  0
  -31.0740   18.5210  -16.3005 C   0  0  0  0  0  0  0  0  0  0  0  0
  -30.1460   17.6276  -16.7987 C   0  0  0  0  0  0  0  0  0  0  0  0
  -29.6381   16.6689  -15.8995 C   0  0  0  0  0  0  0  0  0  0  0  0
  -28.7362   15.7426  -16.2424 N   0  0  0  0  0  0  0  0  0  0  0  0
  -29.9004   17.8707  -18.1396 N   0  0  0  0  0  0  0  0  0  0  0  0
  -30.6737   18.8938  -18.4199 C   0  0  0  0  0  0  0  0  0  0  0  0
  -31.4095   19.3377  -17.3567 N   0  0  0  0  0  0  0  0  0  0  0  0
  1  2  2  0  0  0  0
  1  6  1  0  0  0  0
  2  3  1  0  0  0  0
  3  4  2  0  0  0  0
  4  5  1  0  0  0  0
  4 10  1  0  0  0  0
  5  6  2  0  0  0  0
  5  8  1  0  0  0  0
  6  7  1  0  0  0  0
  8  9  1  0  0  0  0
  9 10  2  0  0  0  0
M  END
>  <CHROM.1>
-30.41467646,17.74819554,-16.31000928,1.14009210,-0.83070788,1.94985478

>  <Name>
ligand

>  <RI>
0

>  <Rbt.Current_Directory>
/home/itssahil/PROJECTS/Mol_Feturizer/New_Systems/rnas/4TZY

>  <Rbt.Executable>
rbdock ($Id: //depot/dev/client3/rdock/2013.1/src/exe/rbdock.cxx#4 $)

>  <Rbt.Library>
libRbt.so (2013.1, Build901 2013/11/27)

>  <Rbt.Parameter_File>
/export/apps/rDock/src/rDock_2013.1_src/data/scripts/dock_solv.prm

>  <Rbt.Receptor>
prm/blind_docking_100.prm

>  <SCORE>
-14.3758

>  <SCORE.INTER>
-14.3758

>  <SCORE.INTER.CONST>
1

>  <SCORE.INTER.POLAR>
0

>  <SCORE.INTER.ROT>
0

>  <SCORE.INTER.SOLV>
8.1369

>  <SCORE.INTER.VDW>
-15.8962

>  <SCORE.INTER.norm>
-1.43758

>  <SCORE.INTRA>
0

>  <SCORE.INTRA.DIHEDRAL>
0

>  <SCORE.INTRA.DIHEDRAL.0>
0

>  <SCORE.INTRA.POLAR>
0

>  <SCORE.INTRA.POLAR.0>
0

>  <SCORE.INTRA.REPUL>
0

>  <SCORE.INTRA.REPUL.0>
0

>  <SCORE.INTRA.SOLV>
0

>  <SCORE.INTRA.SOLV.lig_0>
-23.8941

>  <SCORE.INTRA.VDW>
0

>  <SCORE.INTRA.VDW.0>
0

>  <SCORE.INTRA.norm>
0

>  <SCORE.RESTR>
0

>  <SCORE.RESTR.CAVITY>
0

>  <SCORE.RESTR.norm>
0

>  <SCORE.SYSTEM>
0

>  <SCORE.SYSTEM.CONST>
0

>  <SCORE.SYSTEM.DIHEDRAL>
0

>  <SCORE.SYSTEM.SOLV>
0

>  <SCORE.SYSTEM.norm>
0

>  <SCORE.heavy>
10

>  <SCORE.norm>
-1.43758

>  <RMSD>
0.473

$$$$
ligand
 OpenBabel11021811513D
libRbt.so/2013.1/901 2013/11/27
 10 11  0  0  0  0  0  0  0  0999 V2000
  -30.0956   16.6921  -14.6280 N   0  0  0  0  0  0  0  0  0  0  0  0
  -30.9995   17.6187  -14.2862 C   0  0  0  0  0  0  0  0  0  0  0  0
  -31.5501   18.5693  -15.0394 N   0  0  0  0  0  0  0  0  0  0  0  0
  -31.0766   18.5176  -16.2941 C   0  0  0  0  0  0  0  0  0  0  0  0
  -30.1468   17.6269  -16.7938 C   0  0  0  0  0  0  0  0  0  0  0  0
  -29.6390   16.6660  -15.8967 C   0  0  0  0  0  0  0  0  0  0  0  0
  -28.7355   15.7419  -16.2412 N   0  0  0  0  0  0  0  0  0  0  0  0
  -29.8996   17.8744  -18.1335 N   0  0  0  0  0  0  0  0  0  0  0  0
  -30.6737   18.8974  -18.4117 C   0  0  0  0  0  0  0  0  0  0  0  0
  -31.4116   19.3371  -17.3482 N   0  0  0  0  0  0  0  0  0  0  0  0
  1  2  2  0  0  0  0
  1  6  1  0  0  0  0
  2  3  1  0  0  0  0
  3  4  2  0  0  0  0
  4  5  1  0  0  0  0
  4 10  1  0  0  0  0
  5  6  2  0  0  0  0
  5  8  1  0  0  0  0
  6  7  1  0  0  0  0
  8  9  1  0  0  0  0
  9 10  2  0  0  0  0
M  END
>  <CHROM.1>
-30.41633509,17.74559451,-16.30504677,1.14140932,-0.82906311,1.95391505

>  <Name>
ligand

>  <RI>
0

>  <Rbt.Current_Directory>
/home/itssahil/PROJECTS/Mol_Feturizer/New_Systems/rnas/4TZY

>  <Rbt.Executable>
rbdock ($Id: //depot/dev/client3/rdock/2013.1/src/exe/rbdock.cxx#4 $)

>  <Rbt.Library>
libRbt.so (2013.1, Build901 2013/11/27)

>  <Rbt.Parameter_File>
/export/apps/rDock/src/rDock_2013.1_src/data/scripts/dock_solv.prm

>  <Rbt.Receptor>
prm/blind_docking_80.prm

>  <SCORE>
-14.377

>  <SCORE.INTER>
-14.3774

>  <SCORE.INTER.CONST>
1

>  <SCORE.INTER.POLAR>
0

>  <SCORE.INTER.ROT>
0

>  <SCORE.INTER.SOLV>
8.1376

>  <SCORE.INTER.VDW>
-15.8975

>  <SCORE.INTER.norm>
-1.43774

>  <SCORE.INTRA>
0

>  <SCORE.INTRA.DIHEDRAL>
0

>  <SCORE.INTRA.DIHEDRAL.0>
0

>  <SCORE.INTRA.POLAR>
0

>  <SCORE.INTRA.POLAR.0>
0

>  <SCORE.INTRA.REPUL>
0

>  <SCORE.INTRA.REPUL.0>
0

>  <SCORE.INTRA.SOLV>
0

>  <SCORE.INTRA.SOLV.lig_0>
-23.8941

>  <SCORE.INTRA.VDW>
0

>  <SCORE.INTRA.VDW.0>
0

>  <SCORE.INTRA.norm>
0

>  <SCORE.RESTR>
0.000434768

>  <SCORE.RESTR.CAVITY>
0.000434768

>  <SCORE.RESTR.norm>
4.34768e-05

>  <SCORE.SYSTEM>
0

>  <SCORE.SYSTEM.CONST>
0

>  <SCORE.SYSTEM.DIHEDRAL>
0

>  <SCORE.SYSTEM.SOLV>
0

>  <SCORE.SYSTEM.norm>
0

>  <SCORE.heavy>
10

>  <SCORE.norm>
-1.4377

>  <RMSD>
0.473

$$$$
ligand
 OpenBabel11021811513D
libRbt.so/2013.1/901 2013/11/27
 10 11  0  0  0  0  0  0  0  0999 V2000
  -30.0862   16.7253  -14.5769 N   0  0  0  0  0  0  0  0  0  0  0  0
  -31.0361   17.6124  -14.2559 C   0  0  0  0  0  0  0  0  0  0  0  0
  -31.6202   18.5291  -15.0256 N   0  0  0  0  0  0  0  0  0  0  0  0
  -31.1290   18.4870  -16.2739 C   0  0  0  0  0  0  0  0  0  0  0  0
  -30.1528   17.6353  -16.7527 C   0  0  0  0  0  0  0  0  0  0  0  0
  -29.6128   16.7077  -15.8396 C   0  0  0  0  0  0  0  0  0  0  0  0
  -28.6634   15.8229  -16.1634 N   0  0  0  0  0  0  0  0  0  0  0  0
  -29.9003   17.8807  -18.0919 N   0  0  0  0  0  0  0  0  0  0  0  0
  -30.7171   18.8641  -18.3902 C   0  0  0  0  0  0  0  0  0  0  0  0
  -31.4879   19.2797  -17.3405 N   0  0  0  0  0  0  0  0  0  0  0  0
  1  2  2  0  0  0  0
  1  6  1  0  0  0  0
  2  3  1  0  0  0  0
  3  4  2  0  0  0  0
  4  5  1  0  0  0  0
  4 10  1  0  0  0  0
  5  6  2  0  0  0  0
  5  8  1  0  0  0  0
  6  7  1  0  0  0  0
  8  9  1  0  0  0  0
  9 10  2  0  0  0  0
M  END
>  <CHROM.1>
-30.43375351,17.74622927,-16.26864388,1.13377584,-0.78157535,1.93826881

>  <Name>
ligand

>  <RI>
0

>  <Rbt.Current_Directory>
/home/itssahil/PROJECTS/Mol_Feturizer/New_Systems/rnas/4TZY

>  <Rbt.Executable>
rbdock ($Id: //depot/dev/client3/rdock/2013.1/src/exe/rbdock.cxx#4 $)

>  <Rbt.Library>
libRbt.so (2013.1, Build901 2013/11/27)

>  <Rbt.Parameter_File>
/export/apps/rDock/src/rDock_2013.1_src/data/scripts/dock_solv.prm

>  <Rbt.Receptor>
prm/pocket_docking_4.prm

>  <SCORE>
-14.3365

>  <SCORE.INTER>
-14.3365

>  <SCORE.INTER.CONST>
1

>  <SCORE.INTER.POLAR>
0

>  <SCORE.INTER.ROT>
0

>  <SCORE.INTER.SOLV>
7.74377

>  <SCORE.INTER.VDW>
-15.7389

>  <SCORE.INTER.norm>
-1.43365

>  <SCORE.INTRA>
0

>  <SCORE.INTRA.DIHEDRAL>
0

>  <SCORE.INTRA.DIHEDRAL.0>
0

>  <SCORE.INTRA.POLAR>
0

>  <SCORE.INTRA.POLAR.0>
0

>  <SCORE.INTRA.REPUL>
0

>  <SCORE.INTRA.REPUL.0>
0

>  <SCORE.INTRA.SOLV>
0

>  <SCORE.INTRA.SOLV.lig_0>
-23.8941

>  <SCORE.INTRA.VDW>
0

>  <SCORE.INTRA.VDW.0>
0

>  <SCORE.INTRA.norm>
0

>  <SCORE.RESTR>
0

>  <SCORE.RESTR.CAVITY>
0

>  <SCORE.RESTR.norm>
0

>  <SCORE.SYSTEM>
0

>  <SCORE.SYSTEM.CONST>
0

>  <SCORE.SYSTEM.DIHEDRAL>
0

>  <SCORE.SYSTEM.SOLV>
0

>  <SCORE.SYSTEM.norm>
0

>  <SCORE.heavy>
10

>  <SCORE.norm>
-1.43365

>  <RMSD>
0.473

$$$$
ligand
 OpenBabel11021811513D
libRbt.so/2013.1/901 2013/11/27
 10 11  0  0  0  0  0  0  0  0999 V2000
  -30.1026   16.6882  -14.6268 N   0  0  0  0  0  0  0  0  0  0  0  0
  -31.0077   17.6140  -14.2857 C   0  0  0  0  0  0  0  0  0  0  0  0
  -31.5572   18.5651  -15.0390 N   0  0  0  0  0  0  0  0  0  0  0  0
  -31.0812   18.5150  -16.2929 C   0  0  0  0  0  0  0  0  0  0  0  0
  -30.1499   17.6253  -16.7916 C   0  0  0  0  0  0  0  0  0  0  0  0
  -29.6435   16.6637  -15.8946 C   0  0  0  0  0  0  0  0  0  0  0  0
  -28.7389   15.7404  -16.2383 N   0  0  0  0  0  0  0  0  0  0  0  0
  -29.9002   17.8744  -18.1305 N   0  0  0  0  0  0  0  0  0  0  0  0
  -30.6742   18.8973  -18.4092 C   0  0  0  0  0  0  0  0  0  0  0  0
  -31.4145   19.3355  -17.3467 N   0  0  0  0  0  0  0  0  0  0  0  0
  1  2  2  0  0  0  0
  1  6  1  0  0  0  0
  2  3  1  0  0  0  0
  3  4  2  0  0  0  0
  4  5  1  0  0  0  0
  4 10  1  0  0  0  0
  5  6  2  0  0  0  0
  5  8  1  0  0  0  0
  6  7  1  0  0  0  0
  8  9  1  0  0  0  0
  9 10  2  0  0  0  0
M  END
>  <CHROM.1>
-30.42051230,17.74335465,-16.30328708,1.14387719,-0.82786205,1.95682195

>  <Name>
ligand

>  <RI>
0

>  <Rbt.Current_Directory>
/home/itssahil/PROJECTS/Mol_Feturizer/New_Systems/rnas/4TZY

>  <Rbt.Executable>
rbdock ($Id: //depot/dev/client3/rdock/2013.1/src/exe/rbdock.cxx#4 $)

>  <Rbt.Library>
libRbt.so (2013.1, Build901 2013/11/27)

>  <Rbt.Parameter_File>
/export/apps/rDock/src/rDock_2013.1_src/data/scripts/dock_solv.prm

>  <Rbt.Receptor>
prm/pocket_docking_5.prm

>  <SCORE>
-14.3725

>  <SCORE.INTER>
-14.3725

>  <SCORE.INTER.CONST>
1

>  <SCORE.INTER.POLAR>
0

>  <SCORE.INTER.ROT>
0

>  <SCORE.INTER.SOLV>
8.14361

>  <SCORE.INTER.VDW>
-15.8962

>  <SCORE.INTER.norm>
-1.43725

>  <SCORE.INTRA>
0

>  <SCORE.INTRA.DIHEDRAL>
0

>  <SCORE.INTRA.DIHEDRAL.0>
0

>  <SCORE.INTRA.POLAR>
0

>  <SCORE.INTRA.POLAR.0>
0

>  <SCORE.INTRA.REPUL>
0

>  <SCORE.INTRA.REPUL.0>
0

>  <SCORE.INTRA.SOLV>
0

>  <SCORE.INTRA.SOLV.lig_0>
-23.8941

>  <SCORE.INTRA.VDW>
0

>  <SCORE.INTRA.VDW.0>
0

>  <SCORE.INTRA.norm>
0

>  <SCORE.RESTR>
0

>  <SCORE.RESTR.CAVITY>
0

>  <SCORE.RESTR.norm>
0

>  <SCORE.SYSTEM>
0

>  <SCORE.SYSTEM.CONST>
0

>  <SCORE.SYSTEM.DIHEDRAL>
0

>  <SCORE.SYSTEM.SOLV>
0

>  <SCORE.SYSTEM.norm>
0

>  <SCORE.heavy>
10

>  <SCORE.norm>
-1.43725

>  <RMSD>
0.473

$$$$
ligand
 OpenBabel11021811513D
libRbt.so/2013.1/901 2013/11/27
 10 11  0  0  0  0  0  0  0  0999 V2000
  -30.0844   16.7017  -14.6219 N   0  0  0  0  0  0  0  0  0  0  0  0
  -30.9975   17.6202  -14.2830 C   0  0  0  0  0  0  0  0  0  0  0  0
  -31.5575   18.5630  -15.0391 N   0  0  0  0  0  0  0  0  0  0  0  0
  -31.0834   18.5122  -16.2937 C   0  0  0  0  0  0  0  0  0  0  0  0
  -30.1447   17.6293  -16.7905 C   0  0  0  0  0  0  0  0  0  0  0  0
  -29.6275   16.6763  -15.8905 C   0  0  0  0  0  0  0  0  0  0  0  0
  -28.7147   15.7602  -16.2322 N   0  0  0  0  0  0  0  0  0  0  0  0
  -29.8998   17.8752  -18.1310 N   0  0  0  0  0  0  0  0  0  0  0  0
  -30.6841   18.8896  -18.4124 C   0  0  0  0  0  0  0  0  0  0  0  0
  -31.4265   19.3251  -17.3503 N   0  0  0  0  0  0  0  0  0  0  0  0
  1  2  2  0  0  0  0
  1  6  1  0  0  0  0
  2  3  1  0  0  0  0
  3  4  2  0  0  0  0
  4  5  1  0  0  0  0
  4 10  1  0  0  0  0
  5  6  2  0  0  0  0
  5  8  1  0  0  0  0
  6  7  1  0  0  0  0
  8  9  1  0  0  0  0
  9 10  2  0  0  0  0
M  END
>  <CHROM.1>
-30.41546504,17.74682799,-16.30218438,1.13606411,-0.81974182,1.94695294

>  <Name>
ligand

>  <RI>
0

>  <Rbt.Current_Directory>
/home/itssahil/PROJECTS/Mol_Feturizer/New_Systems/rnas/4TZY

>  <Rbt.Executable>
rbdock ($Id: //depot/dev/client3/rdock/2013.1/src/exe/rbdock.cxx#4 $)

>  <Rbt.Library>
libRbt.so (2013.1, Build901 2013/11/27)

>  <Rbt.Parameter_File>
/export/apps/rDock/src/rDock_2013.1_src/data/scripts/dock_solv.prm

>  <Rbt.Receptor>
prm/pocket_docking_8.prm

>  <SCORE>
-14.3758

>  <SCORE.INTER>
-14.3759

>  <SCORE.INTER.CONST>
1

>  <SCORE.INTER.POLAR>
0

>  <SCORE.INTER.ROT>
0

>  <SCORE.INTER.SOLV>
8.05304

>  <SCORE.INTER.VDW>
-15.8683

>  <SCORE.INTER.norm>
-1.43759

>  <SCORE.INTRA>
0

>  <SCORE.INTRA.DIHEDRAL>
0

>  <SCORE.INTRA.DIHEDRAL.0>
0

>  <SCORE.INTRA.POLAR>
0

>  <SCORE.INTRA.POLAR.0>
0

>  <SCORE.INTRA.REPUL>
0

>  <SCORE.INTRA.REPUL.0>
0

>  <SCORE.INTRA.SOLV>
0

>  <SCORE.INTRA.SOLV.lig_0>
-23.8941

>  <SCORE.INTRA.VDW>
0

>  <SCORE.INTRA.VDW.0>
0

>  <SCORE.INTRA.norm>
0

>  <SCORE.RESTR>
0.000170951

>  <SCORE.RESTR.CAVITY>
0.000170951

>  <SCORE.RESTR.norm>
1.70951e-05

>  <SCORE.SYSTEM>
0

>  <SCORE.SYSTEM.CONST>
0

>  <SCORE.SYSTEM.DIHEDRAL>
0

>  <SCORE.SYSTEM.SOLV>
0

>  <SCORE.SYSTEM.norm>
0

>  <SCORE.heavy>
10

>  <SCORE.norm>
-1.43758

>  <RMSD>
0.473

$$$$
ligand
 OpenBabel11021811513D
libRbt.so/2013.1/901 2013/11/27
 10 11  0  0  0  0  0  0  0  0999 V2000
  -30.1615   16.6731  -14.6434 N   0  0  0  0  0  0  0  0  0  0  0  0
  -31.0551   17.6122  -14.3088 C   0  0  0  0  0  0  0  0  0  0  0  0
  -31.5737   18.5807  -15.0619 N   0  0  0  0  0  0  0  0  0  0  0  0
  -31.0768   18.5340  -16.3077 C   0  0  0  0  0  0  0  0  0  0  0  0
  -30.1535   17.6320  -16.7992 C   0  0  0  0  0  0  0  0  0  0  0  0
  -29.6807   16.6524  -15.9033 C   0  0  0  0  0  0  0  0  0  0  0  0
  -28.7874   15.7157  -16.2405 N   0  0  0  0  0  0  0  0  0  0  0  0
  -29.8758   17.8894  -18.1310 N   0  0  0  0  0  0  0  0  0  0  0  0
  -30.6258   18.9292  -18.4128 C   0  0  0  0  0  0  0  0  0  0  0  0
  -31.3763   19.3708  -17.3589 N   0  0  0  0  0  0  0  0  0  0  0  0
  1  2  2  0  0  0  0
  1  6  1  0  0  0  0
  2  3  1  0  0  0  0
  3  4  2  0  0  0  0
  4  5  1  0  0  0  0
  4 10  1  0  0  0  0
  5  6  2  0  0  0  0
  5  8  1  0  0  0  0
  6  7  1  0  0  0  0
  8  9  1  0  0  0  0
  9 10  2  0  0  0  0
M  END
>  <CHROM.1>
-30.43039106,17.75027578,-16.31447946,1.17855559,-0.83807873,1.99240511

>  <Name>
ligand

>  <RI>
0

>  <Rbt.Current_Directory>
/home/itssahil/PROJECTS/Mol_Feturizer/New_Systems/rnas/4TZY

>  <Rbt.Executable>
rbdock ($Id: //depot/dev/client3/rdock/2013.1/src/exe/rbdock.cxx#4 $)

>  <Rbt.Library>
libRbt.so (2013.1, Build901 2013/11/27)

>  <Rbt.Parameter_File>
/export/apps/rDock/src/rDock_2013.1_src/data/scripts/dock_solv.prm

>  <Rbt.Receptor>
prm/blind_docking_60.prm

>  <SCORE>
-14.4469

>  <SCORE.INTER>
-14.4711

>  <SCORE.INTER.CONST>
1

>  <SCORE.INTER.POLAR>
0

>  <SCORE.INTER.ROT>
0

>  <SCORE.INTER.SOLV>
8.30078

>  <SCORE.INTER.VDW>
-16.0143

>  <SCORE.INTER.norm>
-1.44711

>  <SCORE.INTRA>
0

>  <SCORE.INTRA.DIHEDRAL>
0

>  <SCORE.INTRA.DIHEDRAL.0>
0

>  <SCORE.INTRA.POLAR>
0

>  <SCORE.INTRA.POLAR.0>
0

>  <SCORE.INTRA.REPUL>
0

>  <SCORE.INTRA.REPUL.0>
0

>  <SCORE.INTRA.SOLV>
0

>  <SCORE.INTRA.SOLV.lig_0>
-23.8941

>  <SCORE.INTRA.VDW>
0

>  <SCORE.INTRA.VDW.0>
0

>  <SCORE.INTRA.norm>
0

>  <SCORE.RESTR>
0.0242432

>  <SCORE.RESTR.CAVITY>
0.0242432

>  <SCORE.RESTR.norm>
0.00242432

>  <SCORE.SYSTEM>
0

>  <SCORE.SYSTEM.CONST>
0

>  <SCORE.SYSTEM.DIHEDRAL>
0

>  <SCORE.SYSTEM.SOLV>
0

>  <SCORE.SYSTEM.norm>
0

>  <SCORE.heavy>
10

>  <SCORE.norm>
-1.44469

>  <RMSD>
0.476

$$$$
ligand
 OpenBabel11021811513D
libRbt.so/2013.1/901 2013/11/27
 10 11  0  0  0  0  0  0  0  0999 V2000
  -29.9893   16.8392  -14.4983 N   0  0  0  0  0  0  0  0  0  0  0  0
  -30.9803   17.6889  -14.2013 C   0  0  0  0  0  0  0  0  0  0  0  0
  -31.6188   18.5425  -14.9999 N   0  0  0  0  0  0  0  0  0  0  0  0
  -31.1389   18.4749  -16.2515 C   0  0  0  0  0  0  0  0  0  0  0  0
  -30.1251   17.6554  -16.7079 C   0  0  0  0  0  0  0  0  0  0  0  0
  -29.5287   16.7946  -15.7651 C   0  0  0  0  0  0  0  0  0  0  0  0
  -28.5383   15.9470  -16.0648 N   0  0  0  0  0  0  0  0  0  0  0  0
  -29.8993   17.8588  -18.0587 N   0  0  0  0  0  0  0  0  0  0  0  0
  -30.7688   18.7862  -18.3861 C   0  0  0  0  0  0  0  0  0  0  0  0
  -31.5492   19.2042  -17.3444 N   0  0  0  0  0  0  0  0  0  0  0  0
  1  2  2  0  0  0  0
  1  6  1  0  0  0  0
  2  3  1  0  0  0  0
  3  4  2  0  0  0  0
  4  5  1  0  0  0  0
  4 10  1  0  0  0  0
  5  6  2  0  0  0  0
  5  8  1  0  0  0  0
  6  7  1  0  0  0  0
  8  9  1  0  0  0  0
  9 10  2  0  0  0  0
M  END
>  <CHROM.1>
-30.40642319,17.77143359,-16.22515442,1.09580000,-0.73676033,1.87173805

>  <Name>
ligand

>  <RI>
0

>  <Rbt.Current_Directory>
/home/itssahil/PROJECTS/Mol_Feturizer/New_Systems/rnas/4TZY

>  <Rbt.Executable>
rbdock ($Id: //depot/dev/client3/rdock/2013.1/src/exe/rbdock.cxx#4 $)

>  <Rbt.Library>
libRbt.so (2013.1, Build901 2013/11/27)

>  <Rbt.Parameter_File>
/export/apps/rDock/src/rDock_2013.1_src/data/scripts/dock_solv.prm

>  <Rbt.Receptor>
prm/pocket_docking_7.prm

>  <SCORE>
-14.2507

>  <SCORE.INTER>
-14.2514

>  <SCORE.INTER.CONST>
1

>  <SCORE.INTER.POLAR>
0

>  <SCORE.INTER.ROT>
0

>  <SCORE.INTER.SOLV>
7.16811

>  <SCORE.INTER.VDW>
-15.4903

>  <SCORE.INTER.norm>
-1.42514

>  <SCORE.INTRA>
0

>  <SCORE.INTRA.DIHEDRAL>
0

>  <SCORE.INTRA.DIHEDRAL.0>
0

>  <SCORE.INTRA.POLAR>
0

>  <SCORE.INTRA.POLAR.0>
0

>  <SCORE.INTRA.REPUL>
0

>  <SCORE.INTRA.REPUL.0>
0

>  <SCORE.INTRA.SOLV>
0

>  <SCORE.INTRA.SOLV.lig_0>
-23.8941

>  <SCORE.INTRA.VDW>
0

>  <SCORE.INTRA.VDW.0>
0

>  <SCORE.INTRA.norm>
0

>  <SCORE.RESTR>
0.000653141

>  <SCORE.RESTR.CAVITY>
0.000653141

>  <SCORE.RESTR.norm>
6.53141e-05

>  <SCORE.SYSTEM>
0

>  <SCORE.SYSTEM.CONST>
0

>  <SCORE.SYSTEM.DIHEDRAL>
0

>  <SCORE.SYSTEM.SOLV>
0

>  <SCORE.SYSTEM.norm>
0

>  <SCORE.heavy>
10

>  <SCORE.norm>
-1.42507

>  <RMSD>
0.476

$$$$
ligand
 OpenBabel11021811513D
libRbt.so/2013.1/901 2013/11/27
 10 11  0  0  0  0  0  0  0  0999 V2000
  -30.0897   16.6971  -14.6373 N   0  0  0  0  0  0  0  0  0  0  0  0
  -30.9893   17.6272  -14.2940 C   0  0  0  0  0  0  0  0  0  0  0  0
  -31.5388   18.5787  -15.0468 N   0  0  0  0  0  0  0  0  0  0  0  0
  -31.0693   18.5237  -16.3029 C   0  0  0  0  0  0  0  0  0  0  0  0
  -30.1440   17.6291  -16.8041 C   0  0  0  0  0  0  0  0  0  0  0  0
  -29.6370   16.6677  -15.9073 C   0  0  0  0  0  0  0  0  0  0  0  0
  -28.7377   15.7399  -16.2533 N   0  0  0  0  0  0  0  0  0  0  0  0
  -29.9000   17.8740  -18.1449 N   0  0  0  0  0  0  0  0  0  0  0  0
  -30.6714   18.8993  -18.4222 C   0  0  0  0  0  0  0  0  0  0  0  0
  -31.4045   19.3430  -17.3571 N   0  0  0  0  0  0  0  0  0  0  0  0
  1  2  2  0  0  0  0
  1  6  1  0  0  0  0
  2  3  1  0  0  0  0
  3  4  2  0  0  0  0
  4  5  1  0  0  0  0
  4 10  1  0  0  0  0
  5  6  2  0  0  0  0
  5  8  1  0  0  0  0
  6  7  1  0  0  0  0
  8  9  1  0  0  0  0
  9 10  2  0  0  0  0
M  END
>  <CHROM.1>
-30.41172180,17.74941291,-16.31476335,1.13923607,-0.83341486,1.95097746

>  <Name>
ligand

>  <RI>
0

>  <Rbt.Current_Directory>
/home/itssahil/PROJECTS/Mol_Feturizer/New_Systems/rnas/4TZY

>  <Rbt.Executable>
rbdock ($Id: //depot/dev/client3/rdock/2013.1/src/exe/rbdock.cxx#4 $)

>  <Rbt.Library>
libRbt.so (2013.1, Build901 2013/11/27)

>  <Rbt.Parameter_File>
/export/apps/rDock/src/rDock_2013.1_src/data/scripts/dock_solv.prm

>  <Rbt.Receptor>
prm/pocket_docking_8.prm

>  <SCORE>
-14.3786

>  <SCORE.INTER>
-14.3787

>  <SCORE.INTER.CONST>
1

>  <SCORE.INTER.POLAR>
0

>  <SCORE.INTER.ROT>
0

>  <SCORE.INTER.SOLV>
8.15769

>  <SCORE.INTER.VDW>
-15.905

>  <SCORE.INTER.norm>
-1.43787

>  <SCORE.INTRA>
0

>  <SCORE.INTRA.DIHEDRAL>
0

>  <SCORE.INTRA.DIHEDRAL.0>
0

>  <SCORE.INTRA.POLAR>
0

>  <SCORE.INTRA.POLAR.0>
0

>  <SCORE.INTRA.REPUL>
0

>  <SCORE.INTRA.REPUL.0>
0

>  <SCORE.INTRA.SOLV>
0

>  <SCORE.INTRA.SOLV.lig_0>
-23.8941

>  <SCORE.INTRA.VDW>
0

>  <SCORE.INTRA.VDW.0>
0

>  <SCORE.INTRA.norm>
0

>  <SCORE.RESTR>
3.90312e-05

>  <SCORE.RESTR.CAVITY>
3.90312e-05

>  <SCORE.RESTR.norm>
3.90312e-06

>  <SCORE.SYSTEM>
0

>  <SCORE.SYSTEM.CONST>
0

>  <SCORE.SYSTEM.DIHEDRAL>
0

>  <SCORE.SYSTEM.SOLV>
0

>  <SCORE.SYSTEM.norm>
0

>  <SCORE.heavy>
10

>  <SCORE.norm>
-1.43786

>  <RMSD>
0.476

$$$$
ligand
 OpenBabel11021811513D
libRbt.so/2013.1/901 2013/11/27
 10 11  0  0  0  0  0  0  0  0999 V2000
  -30.0592   16.7387  -14.6010 N   0  0  0  0  0  0  0  0  0  0  0  0
  -30.9994   17.6334  -14.2724 C   0  0  0  0  0  0  0  0  0  0  0  0
  -31.5826   18.5544  -15.0376 N   0  0  0  0  0  0  0  0  0  0  0  0
  -31.1020   18.5080  -16.2899 C   0  0  0  0  0  0  0  0  0  0  0  0
  -30.1366   17.6485  -16.7766 C   0  0  0  0  0  0  0  0  0  0  0  0
  -29.5964   16.7170  -15.8676 C   0  0  0  0  0  0  0  0  0  0  0  0
  -28.6567   15.8247  -16.1989 N   0  0  0  0  0  0  0  0  0  0  0  0
  -29.8932   17.8916  -18.1178 N   0  0  0  0  0  0  0  0  0  0  0  0
  -30.7047   18.8813  -18.4097 C   0  0  0  0  0  0  0  0  0  0  0  0
  -31.4635   19.3033  -17.3538 N   0  0  0  0  0  0  0  0  0  0  0  0
  1  2  2  0  0  0  0
  1  6  1  0  0  0  0
  2  3  1  0  0  0  0
  3  4  2  0  0  0  0
  4  5  1  0  0  0  0
  4 10  1  0  0  0  0
  5  6  2  0  0  0  0
  5  8  1  0  0  0  0
  6  7  1  0  0  0  0
  8  9  1  0  0  0  0
  9 10  2  0  0  0  0
M  END
>  <CHROM.1>
-30.41266509,17.76182392,-16.29018813,1.12681022,-0.79188512,1.93301591

>  <Name>
ligand

>  <RI>
0

>  <Rbt.Current_Directory>
/home/itssahil/PROJECTS/Mol_Feturizer/New_Systems/rnas/4TZY

>  <Rbt.Executable>
rbdock ($Id: //depot/dev/client3/rdock/2013.1/src/exe/rbdock.cxx#4 $)

>  <Rbt.Library>
libRbt.so (2013.1, Build901 2013/11/27)

>  <Rbt.Parameter_File>
/export/apps/rDock/src/rDock_2013.1_src/data/scripts/dock_solv.prm

>  <Rbt.Receptor>
prm/pocket_docking_7.prm

>  <SCORE>
-14.3802

>  <SCORE.INTER>
-14.387

>  <SCORE.INTER.CONST>
1

>  <SCORE.INTER.POLAR>
0

>  <SCORE.INTER.ROT>
0

>  <SCORE.INTER.SOLV>
7.78491

>  <SCORE.INTER.VDW>
-15.7863

>  <SCORE.INTER.norm>
-1.4387

>  <SCORE.INTRA>
0

>  <SCORE.INTRA.DIHEDRAL>
0

>  <SCORE.INTRA.DIHEDRAL.0>
0

>  <SCORE.INTRA.POLAR>
0

>  <SCORE.INTRA.POLAR.0>
0

>  <SCORE.INTRA.REPUL>
0

>  <SCORE.INTRA.REPUL.0>
0

>  <SCORE.INTRA.SOLV>
0

>  <SCORE.INTRA.SOLV.lig_0>
-23.8941

>  <SCORE.INTRA.VDW>
0

>  <SCORE.INTRA.VDW.0>
0

>  <SCORE.INTRA.norm>
0

>  <SCORE.RESTR>
0.00676968

>  <SCORE.RESTR.CAVITY>
0.00676968

>  <SCORE.RESTR.norm>
0.000676968

>  <SCORE.SYSTEM>
0

>  <SCORE.SYSTEM.CONST>
0

>  <SCORE.SYSTEM.DIHEDRAL>
0

>  <SCORE.SYSTEM.SOLV>
0

>  <SCORE.SYSTEM.norm>
0

>  <SCORE.heavy>
10

>  <SCORE.norm>
-1.43802

>  <RMSD>
0.479

$$$$
ligand
 OpenBabel11021811513D
libRbt.so/2013.1/901 2013/11/27
 10 11  0  0  0  0  0  0  0  0999 V2000
  -30.0918   16.7150  -14.5867 N   0  0  0  0  0  0  0  0  0  0  0  0
  -31.0143   17.6248  -14.2493 C   0  0  0  0  0  0  0  0  0  0  0  0
  -31.5785   18.5651  -15.0053 N   0  0  0  0  0  0  0  0  0  0  0  0
  -31.0978   18.5223  -16.2577 C   0  0  0  0  0  0  0  0  0  0  0  0
  -30.1493   17.6488  -16.7526 C   0  0  0  0  0  0  0  0  0  0  0  0
  -29.6285   16.6974  -15.8531 C   0  0  0  0  0  0  0  0  0  0  0  0
  -28.7064   15.7900  -16.1931 N   0  0  0  0  0  0  0  0  0  0  0  0
  -29.9000   17.9010  -18.0911 N   0  0  0  0  0  0  0  0  0  0  0  0
  -30.6914   18.9096  -18.3732 C   0  0  0  0  0  0  0  0  0  0  0  0
  -31.4426   19.3356  -17.3134 N   0  0  0  0  0  0  0  0  0  0  0  0
  1  2  2  0  0  0  0
  1  6  1  0  0  0  0
  2  3  1  0  0  0  0
  3  4  2  0  0  0  0
  4  5  1  0  0  0  0
  4 10  1  0  0  0  0
  5  6  2  0  0  0  0
  5  8  1  0  0  0  0
  6  7  1  0  0  0  0
  8  9  1  0  0  0  0
  9 10  2  0  0  0  0
M  END
>  <CHROM.1>
-30.42344623,17.76254710,-16.26526248,1.13817847,-0.81013295,1.95160402

>  <Name>
ligand

>  <RI>
0

>  <Rbt.Current_Directory>
/home/itssahil/PROJECTS/Mol_Feturizer/New_Systems/rnas/4TZY

>  <Rbt.Executable>
rbdock ($Id: //depot/dev/client3/rdock/2013.1/src/exe/rbdock.cxx#4 $)

>  <Rbt.Library>
libRbt.so (2013.1, Build901 2013/11/27)

>  <Rbt.Parameter_File>
/export/apps/rDock/src/rDock_2013.1_src/data/scripts/dock_solv.prm

>  <Rbt.Receptor>
prm/blind_docking_100.prm

>  <SCORE>
-14.3575

>  <SCORE.INTER>
-14.3575

>  <SCORE.INTER.CONST>
1

>  <SCORE.INTER.POLAR>
0

>  <SCORE.INTER.ROT>
0

>  <SCORE.INTER.SOLV>
7.94162

>  <SCORE.INTER.VDW>
-15.8189

>  <SCORE.INTER.norm>
-1.43575

>  <SCORE.INTRA>
0

>  <SCORE.INTRA.DIHEDRAL>
0

>  <SCORE.INTRA.DIHEDRAL.0>
0

>  <SCORE.INTRA.POLAR>
0

>  <SCORE.INTRA.POLAR.0>
0

>  <SCORE.INTRA.REPUL>
0

>  <SCORE.INTRA.REPUL.0>
0

>  <SCORE.INTRA.SOLV>
0

>  <SCORE.INTRA.SOLV.lig_0>
-23.8941

>  <SCORE.INTRA.VDW>
0

>  <SCORE.INTRA.VDW.0>
0

>  <SCORE.INTRA.norm>
0

>  <SCORE.RESTR>
2.05722e-05

>  <SCORE.RESTR.CAVITY>
2.05722e-05

>  <SCORE.RESTR.norm>
2.05722e-06

>  <SCORE.SYSTEM>
0

>  <SCORE.SYSTEM.CONST>
0

>  <SCORE.SYSTEM.DIHEDRAL>
0

>  <SCORE.SYSTEM.SOLV>
0

>  <SCORE.SYSTEM.norm>
0

>  <SCORE.heavy>
10

>  <SCORE.norm>
-1.43575

>  <RMSD>
0.480

$$$$
ligand
 OpenBabel11021811513D
libRbt.so/2013.1/901 2013/11/27
 10 11  0  0  0  0  0  0  0  0999 V2000
  -30.0872   16.7021  -14.6263 N   0  0  0  0  0  0  0  0  0  0  0  0
  -31.0087   17.6127  -14.2885 C   0  0  0  0  0  0  0  0  0  0  0  0
  -31.5720   18.5539  -15.0441 N   0  0  0  0  0  0  0  0  0  0  0  0
  -31.0916   18.5109  -16.2966 C   0  0  0  0  0  0  0  0  0  0  0  0
  -30.1440   17.6367  -16.7919 C   0  0  0  0  0  0  0  0  0  0  0  0
  -29.6241   16.6844  -15.8927 C   0  0  0  0  0  0  0  0  0  0  0  0
  -28.7030   15.7762  -16.2331 N   0  0  0  0  0  0  0  0  0  0  0  0
  -29.8946   17.8890  -18.1303 N   0  0  0  0  0  0  0  0  0  0  0  0
  -30.6850   18.8985  -18.4120 C   0  0  0  0  0  0  0  0  0  0  0  0
  -31.4356   19.3250  -17.3520 N   0  0  0  0  0  0  0  0  0  0  0  0
  1  2  2  0  0  0  0
  1  6  1  0  0  0  0
  2  3  1  0  0  0  0
  3  4  2  0  0  0  0
  4  5  1  0  0  0  0
  4 10  1  0  0  0  0
  5  6  2  0  0  0  0
  5  8  1  0  0  0  0
  6  7  1  0  0  0  0
  8  9  1  0  0  0  0
  9 10  2  0  0  0  0
M  END
>  <CHROM.1>
-30.41797487,17.75052033,-16.30449477,1.13858839,-0.81115163,1.95221814

>  <Name>
ligand

>  <RI>
0

>  <Rbt.Current_Directory>
/home/itssahil/PROJECTS/Mol_Feturizer/New_Systems/rnas/4TZY

>  <Rbt.Executable>
rbdock ($Id: //depot/dev/client3/rdock/2013.1/src/exe/rbdock.cxx#4 $)

>  <Rbt.Library>
libRbt.so (2013.1, Build901 2013/11/27)

>  <Rbt.Parameter_File>
/export/apps/rDock/src/rDock_2013.1_src/data/scripts/dock_solv.prm

>  <Rbt.Receptor>
prm/pocket_docking_5.prm

>  <SCORE>
-14.4042

>  <SCORE.INTER>
-14.4097

>  <SCORE.INTER.CONST>
1

>  <SCORE.INTER.POLAR>
0

>  <SCORE.INTER.ROT>
0

>  <SCORE.INTER.SOLV>
8.00261

>  <SCORE.INTER.VDW>
-15.874

>  <SCORE.INTER.norm>
-1.44097

>  <SCORE.INTRA>
0

>  <SCORE.INTRA.DIHEDRAL>
0

>  <SCORE.INTRA.DIHEDRAL.0>
0

>  <SCORE.INTRA.POLAR>
0

>  <SCORE.INTRA.POLAR.0>
0

>  <SCORE.INTRA.REPUL>
0

>  <SCORE.INTRA.REPUL.0>
0

>  <SCORE.INTRA.SOLV>
0

>  <SCORE.INTRA.SOLV.lig_0>
-23.8941

>  <SCORE.INTRA.VDW>
0

>  <SCORE.INTRA.VDW.0>
0

>  <SCORE.INTRA.norm>
0

>  <SCORE.RESTR>
0.0054243

>  <SCORE.RESTR.CAVITY>
0.0054243

>  <SCORE.RESTR.norm>
0.00054243

>  <SCORE.SYSTEM>
0

>  <SCORE.SYSTEM.CONST>
0

>  <SCORE.SYSTEM.DIHEDRAL>
0

>  <SCORE.SYSTEM.SOLV>
0

>  <SCORE.SYSTEM.norm>
0

>  <SCORE.heavy>
10

>  <SCORE.norm>
-1.44042

>  <RMSD>
0.480

$$$$
ligand
 OpenBabel11021811513D
libRbt.so/2013.1/901 2013/11/27
 10 11  0  0  0  0  0  0  0  0999 V2000
  -30.0846   16.7112  -14.6104 N   0  0  0  0  0  0  0  0  0  0  0  0
  -31.0143   17.6145  -14.2757 C   0  0  0  0  0  0  0  0  0  0  0  0
  -31.5846   18.5494  -15.0339 N   0  0  0  0  0  0  0  0  0  0  0  0
  -31.1020   18.5082  -16.2856 C   0  0  0  0  0  0  0  0  0  0  0  0
  -30.1463   17.6411  -16.7779 C   0  0  0  0  0  0  0  0  0  0  0  0
  -29.6195   16.6951  -15.8762 C   0  0  0  0  0  0  0  0  0  0  0  0
  -28.6903   15.7941  -16.2136 N   0  0  0  0  0  0  0  0  0  0  0  0
  -29.8972   17.8930  -18.1165 N   0  0  0  0  0  0  0  0  0  0  0  0
  -30.6958   18.8952  -18.4012 C   0  0  0  0  0  0  0  0  0  0  0  0
  -31.4515   19.3172  -17.3430 N   0  0  0  0  0  0  0  0  0  0  0  0
  1  2  2  0  0  0  0
  1  6  1  0  0  0  0
  2  3  1  0  0  0  0
  3  4  2  0  0  0  0
  4  5  1  0  0  0  0
  4 10  1  0  0  0  0
  5  6  2  0  0  0  0
  5  8  1  0  0  0  0
  6  7  1  0  0  0  0
  8  9  1  0  0  0  0
  9 10  2  0  0  0  0
M  END
>  <CHROM.1>
-30.42194414,17.75356063,-16.29110218,1.13587528,-0.80268594,1.94835723

>  <Name>
ligand

>  <RI>
0

>  <Rbt.Current_Directory>
/home/itssahil/PROJECTS/Mol_Feturizer/New_Systems/rnas/4TZY

>  <Rbt.Executable>
rbdock ($Id: //depot/dev/client3/rdock/2013.1/src/exe/rbdock.cxx#4 $)

>  <Rbt.Library>
libRbt.so (2013.1, Build901 2013/11/27)

>  <Rbt.Parameter_File>
/export/apps/rDock/src/rDock_2013.1_src/data/scripts/dock_solv.prm

>  <Rbt.Receptor>
prm/pocket_docking_6.prm

>  <SCORE>
-14.4005

>  <SCORE.INTER>
-14.4033

>  <SCORE.INTER.CONST>
1

>  <SCORE.INTER.POLAR>
0

>  <SCORE.INTER.ROT>
0

>  <SCORE.INTER.SOLV>
7.92135

>  <SCORE.INTER.VDW>
-15.8426

>  <SCORE.INTER.norm>
-1.44033

>  <SCORE.INTRA>
0

>  <SCORE.INTRA.DIHEDRAL>
0

>  <SCORE.INTRA.DIHEDRAL.0>
0

>  <SCORE.INTRA.POLAR>
0

>  <SCORE.INTRA.POLAR.0>
0

>  <SCORE.INTRA.REPUL>
0

>  <SCORE.INTRA.REPUL.0>
0

>  <SCORE.INTRA.SOLV>
0

>  <SCORE.INTRA.SOLV.lig_0>
-23.8941

>  <SCORE.INTRA.VDW>
0

>  <SCORE.INTRA.VDW.0>
0

>  <SCORE.INTRA.norm>
0

>  <SCORE.RESTR>
0.00280841

>  <SCORE.RESTR.CAVITY>
0.00280841

>  <SCORE.RESTR.norm>
0.000280841

>  <SCORE.SYSTEM>
0

>  <SCORE.SYSTEM.CONST>
0

>  <SCORE.SYSTEM.DIHEDRAL>
0

>  <SCORE.SYSTEM.SOLV>
0

>  <SCORE.SYSTEM.norm>
0

>  <SCORE.heavy>
10

>  <SCORE.norm>
-1.44005

>  <RMSD>
0.480

$$$$
ligand
 OpenBabel11021811513D
libRbt.so/2013.1/901 2013/11/27
 10 11  0  0  0  0  0  0  0  0999 V2000
  -30.0876   16.7151  -14.6030 N   0  0  0  0  0  0  0  0  0  0  0  0
  -31.0027   17.6314  -14.2636 C   0  0  0  0  0  0  0  0  0  0  0  0
  -31.5632   18.5747  -15.0187 N   0  0  0  0  0  0  0  0  0  0  0  0
  -31.0872   18.5271  -16.2727 C   0  0  0  0  0  0  0  0  0  0  0  0
  -30.1462   17.6468  -16.7698 C   0  0  0  0  0  0  0  0  0  0  0  0
  -29.6287   16.6929  -15.8710 C   0  0  0  0  0  0  0  0  0  0  0  0
  -28.7140   15.7790  -16.2130 N   0  0  0  0  0  0  0  0  0  0  0  0
  -29.8998   17.8957  -18.1095 N   0  0  0  0  0  0  0  0  0  0  0  0
  -30.6854   18.9093  -18.3901 C   0  0  0  0  0  0  0  0  0  0  0  0
  -31.4300   19.3415  -17.3282 N   0  0  0  0  0  0  0  0  0  0  0  0
  1  2  2  0  0  0  0
  1  6  1  0  0  0  0
  2  3  1  0  0  0  0
  3  4  2  0  0  0  0
  4  5  1  0  0  0  0
  4 10  1  0  0  0  0
  5  6  2  0  0  0  0
  5  8  1  0  0  0  0
  6  7  1  0  0  0  0
  8  9  1  0  0  0  0
  9 10  2  0  0  0  0
M  END
>  <CHROM.1>
-30.41792542,17.76289639,-16.28169117,1.13716501,-0.81765783,1.94969707

>  <Name>
ligand

>  <RI>
0

>  <Rbt.Current_Directory>
/home/itssahil/PROJECTS/Mol_Feturizer/New_Systems/rnas/4TZY

>  <Rbt.Executable>
rbdock ($Id: //depot/dev/client3/rdock/2013.1/src/exe/rbdock.cxx#4 $)

>  <Rbt.Library>
libRbt.so (2013.1, Build901 2013/11/27)

>  <Rbt.Parameter_File>
/export/apps/rDock/src/rDock_2013.1_src/data/scripts/dock_solv.prm

>  <Rbt.Receptor>
prm/pocket_docking_7.prm

>  <SCORE>
-14.3602

>  <SCORE.INTER>
-14.3604

>  <SCORE.INTER.CONST>
1

>  <SCORE.INTER.POLAR>
0

>  <SCORE.INTER.ROT>
0

>  <SCORE.INTER.SOLV>
7.99908

>  <SCORE.INTER.VDW>
-15.84

>  <SCORE.INTER.norm>
-1.43604

>  <SCORE.INTRA>
0

>  <SCORE.INTRA.DIHEDRAL>
0

>  <SCORE.INTRA.DIHEDRAL.0>
0

>  <SCORE.INTRA.POLAR>
0

>  <SCORE.INTRA.POLAR.0>
0

>  <SCORE.INTRA.REPUL>
0

>  <SCORE.INTRA.REPUL.0>
0

>  <SCORE.INTRA.SOLV>
0

>  <SCORE.INTRA.SOLV.lig_0>
-23.8941

>  <SCORE.INTRA.VDW>
0

>  <SCORE.INTRA.VDW.0>
0

>  <SCORE.INTRA.norm>
0

>  <SCORE.RESTR>
0.000176514

>  <SCORE.RESTR.CAVITY>
0.000176514

>  <SCORE.RESTR.norm>
1.76514e-05

>  <SCORE.SYSTEM>
0

>  <SCORE.SYSTEM.CONST>
0

>  <SCORE.SYSTEM.DIHEDRAL>
0

>  <SCORE.SYSTEM.SOLV>
0

>  <SCORE.SYSTEM.norm>
0

>  <SCORE.heavy>
10

>  <SCORE.norm>
-1.43602

>  <RMSD>
0.480

$$$$
ligand
 OpenBabel11021811513D
libRbt.so/2013.1/901 2013/11/27
 10 11  0  0  0  0  0  0  0  0999 V2000
  -30.1142   16.6898  -14.6162 N   0  0  0  0  0  0  0  0  0  0  0  0
  -31.0012   17.6297  -14.2667 C   0  0  0  0  0  0  0  0  0  0  0  0
  -31.5353   18.5955  -15.0124 N   0  0  0  0  0  0  0  0  0  0  0  0
  -31.0636   18.5448  -16.2679 C   0  0  0  0  0  0  0  0  0  0  0  0
  -30.1501   17.6414  -16.7748 C   0  0  0  0  0  0  0  0  0  0  0  0
  -29.6590   16.6650  -15.8854 C   0  0  0  0  0  0  0  0  0  0  0  0
  -28.7723   15.7275  -16.2375 N   0  0  0  0  0  0  0  0  0  0  0  0
  -29.8994   17.8945  -18.1129 N   0  0  0  0  0  0  0  0  0  0  0  0
  -30.6555   18.9331  -18.3829 C   0  0  0  0  0  0  0  0  0  0  0  0
  -31.3847   19.3779  -17.3156 N   0  0  0  0  0  0  0  0  0  0  0  0
  1  2  2  0  0  0  0
  1  6  1  0  0  0  0
  2  3  1  0  0  0  0
  3  4  2  0  0  0  0
  4  5  1  0  0  0  0
  4 10  1  0  0  0  0
  5  6  2  0  0  0  0
  5  8  1  0  0  0  0
  6  7  1  0  0  0  0
  8  9  1  0  0  0  0
  9 10  2  0  0  0  0
M  END
>  <CHROM.1>
-30.41721439,17.76125607,-16.28505277,1.15051314,-0.84577786,1.96812057

>  <Name>
ligand

>  <RI>
0

>  <Rbt.Current_Directory>
/home/itssahil/PROJECTS/Mol_Feturizer/New_Systems/rnas/4TZY

>  <Rbt.Executable>
rbdock ($Id: //depot/dev/client3/rdock/2013.1/src/exe/rbdock.cxx#4 $)

>  <Rbt.Library>
libRbt.so (2013.1, Build901 2013/11/27)

>  <Rbt.Parameter_File>
/export/apps/rDock/src/rDock_2013.1_src/data/scripts/dock_solv.prm

>  <Rbt.Receptor>
prm/pocket_docking_7.prm

>  <SCORE>
-14.3988

>  <SCORE.INTER>
-14.3993

>  <SCORE.INTER.CONST>
1

>  <SCORE.INTER.POLAR>
0

>  <SCORE.INTER.ROT>
0

>  <SCORE.INTER.SOLV>
8.24342

>  <SCORE.INTER.VDW>
-15.9474

>  <SCORE.INTER.norm>
-1.43993

>  <SCORE.INTRA>
0

>  <SCORE.INTRA.DIHEDRAL>
0

>  <SCORE.INTRA.DIHEDRAL.0>
0

>  <SCORE.INTRA.POLAR>
0

>  <SCORE.INTRA.POLAR.0>
0

>  <SCORE.INTRA.REPUL>
0

>  <SCORE.INTRA.REPUL.0>
0

>  <SCORE.INTRA.SOLV>
0

>  <SCORE.INTRA.SOLV.lig_0>
-23.8941

>  <SCORE.INTRA.VDW>
0

>  <SCORE.INTRA.VDW.0>
0

>  <SCORE.INTRA.norm>
0

>  <SCORE.RESTR>
0.000563683

>  <SCORE.RESTR.CAVITY>
0.000563683

>  <SCORE.RESTR.norm>
5.63683e-05

>  <SCORE.SYSTEM>
0

>  <SCORE.SYSTEM.CONST>
0

>  <SCORE.SYSTEM.DIHEDRAL>
0

>  <SCORE.SYSTEM.SOLV>
0

>  <SCORE.SYSTEM.norm>
0

>  <SCORE.heavy>
10

>  <SCORE.norm>
-1.43988

>  <RMSD>
0.480

$$$$
ligand
 OpenBabel11021811513D
libRbt.so/2013.1/901 2013/11/27
 10 11  0  0  0  0  0  0  0  0999 V2000
  -30.1246   16.6848  -14.6091 N   0  0  0  0  0  0  0  0  0  0  0  0
  -31.0181   17.6194  -14.2620 C   0  0  0  0  0  0  0  0  0  0  0  0
  -31.5537   18.5838  -15.0084 N   0  0  0  0  0  0  0  0  0  0  0  0
  -31.0760   18.5379  -16.2618 C   0  0  0  0  0  0  0  0  0  0  0  0
  -30.1555   17.6402  -16.7661 C   0  0  0  0  0  0  0  0  0  0  0  0
  -29.6634   16.6647  -15.8762 C   0  0  0  0  0  0  0  0  0  0  0  0
  -28.7702   15.7325  -16.2259 N   0  0  0  0  0  0  0  0  0  0  0  0
  -29.8999   17.8971  -18.1025 N   0  0  0  0  0  0  0  0  0  0  0  0
  -30.6600   18.9323  -18.3741 C   0  0  0  0  0  0  0  0  0  0  0  0
  -31.3965   19.3713  -17.3094 N   0  0  0  0  0  0  0  0  0  0  0  0
  1  2  2  0  0  0  0
  1  6  1  0  0  0  0
  2  3  1  0  0  0  0
  3  4  2  0  0  0  0
  4  5  1  0  0  0  0
  4 10  1  0  0  0  0
  5  6  2  0  0  0  0
  5  8  1  0  0  0  0
  6  7  1  0  0  0  0
  8  9  1  0  0  0  0
  9 10  2  0  0  0  0
M  END
>  <CHROM.1>
-30.42543127,17.75776715,-16.27737218,1.15391898,-0.83920320,1.97252376

>  <Name>
ligand

>  <RI>
0

>  <Rbt.Current_Directory>
/home/itssahil/PROJECTS/Mol_Feturizer/New_Systems/rnas/4TZY

>  <Rbt.Executable>
rbdock ($Id: //depot/dev/client3/rdock/2013.1/src/exe/rbdock.cxx#4 $)

>  <Rbt.Library>
libRbt.so (2013.1, Build901 2013/11/27)

>  <Rbt.Parameter_File>
/export/apps/rDock/src/rDock_2013.1_src/data/scripts/dock_solv.prm

>  <Rbt.Receptor>
prm/pocket_docking_8.prm

>  <SCORE>
-14.3918

>  <SCORE.INTER>
-14.3919

>  <SCORE.INTER.CONST>
1

>  <SCORE.INTER.POLAR>
0

>  <SCORE.INTER.ROT>
0

>  <SCORE.INTER.SOLV>
8.21389

>  <SCORE.INTER.VDW>
-15.9326

>  <SCORE.INTER.norm>
-1.43919

>  <SCORE.INTRA>
0

>  <SCORE.INTRA.DIHEDRAL>
0

>  <SCORE.INTRA.DIHEDRAL.0>
0

>  <SCORE.INTRA.POLAR>
0

>  <SCORE.INTRA.POLAR.0>
0

>  <SCORE.INTRA.REPUL>
0

>  <SCORE.INTRA.REPUL.0>
0

>  <SCORE.INTRA.SOLV>
0

>  <SCORE.INTRA.SOLV.lig_0>
-23.8941

>  <SCORE.INTRA.VDW>
0

>  <SCORE.INTRA.VDW.0>
0

>  <SCORE.INTRA.norm>
0

>  <SCORE.RESTR>
0.000127364

>  <SCORE.RESTR.CAVITY>
0.000127364

>  <SCORE.RESTR.norm>
1.27364e-05

>  <SCORE.SYSTEM>
0

>  <SCORE.SYSTEM.CONST>
0

>  <SCORE.SYSTEM.DIHEDRAL>
0

>  <SCORE.SYSTEM.SOLV>
0

>  <SCORE.SYSTEM.norm>
0

>  <SCORE.heavy>
10

>  <SCORE.norm>
-1.43918

>  <RMSD>
0.480

$$$$
ligand
 OpenBabel11021811513D
libRbt.so/2013.1/901 2013/11/27
 10 11  0  0  0  0  0  0  0  0999 V2000
  -30.1265   16.6786  -14.6179 N   0  0  0  0  0  0  0  0  0  0  0  0
  -31.0183   17.6143  -14.2695 C   0  0  0  0  0  0  0  0  0  0  0  0
  -31.5521   18.5809  -15.0144 N   0  0  0  0  0  0  0  0  0  0  0  0
  -31.0744   18.5360  -16.2678 C   0  0  0  0  0  0  0  0  0  0  0  0
  -30.1554   17.6375  -16.7735 C   0  0  0  0  0  0  0  0  0  0  0  0
  -29.6651   16.6597  -15.8850 C   0  0  0  0  0  0  0  0  0  0  0  0
  -28.7736   15.7264  -16.2360 N   0  0  0  0  0  0  0  0  0  0  0  0
  -29.8992   17.8959  -18.1094 N   0  0  0  0  0  0  0  0  0  0  0  0
  -30.6574   18.9329  -18.3795 C   0  0  0  0  0  0  0  0  0  0  0  0
  -31.3933   19.3716  -17.3142 N   0  0  0  0  0  0  0  0  0  0  0  0
  1  2  2  0  0  0  0
  1  6  1  0  0  0  0
  2  3  1  0  0  0  0
  3  4  2  0  0  0  0
  4  5  1  0  0  0  0
  4 10  1  0  0  0  0
  5  6  2  0  0  0  0
  5  8  1  0  0  0  0
  6  7  1  0  0  0  0
  8  9  1  0  0  0  0
  9 10  2  0  0  0  0
M  END
>  <CHROM.1>
-30.42519328,17.75474491,-16.28454271,1.15511629,-0.84080875,1.97496770

>  <Name>
ligand

>  <RI>
0

>  <Rbt.Current_Directory>
/home/itssahil/PROJECTS/Mol_Feturizer/New_Systems/rnas/4TZY

>  <Rbt.Executable>
rbdock ($Id: //depot/dev/client3/rdock/2013.1/src/exe/rbdock.cxx#4 $)

>  <Rbt.Library>
libRbt.so (2013.1, Build901 2013/11/27)

>  <Rbt.Parameter_File>
/export/apps/rDock/src/rDock_2013.1_src/data/scripts/dock_solv.prm

>  <Rbt.Receptor>
prm/blind_docking_100.prm

>  <SCORE>
-14.3919

>  <SCORE.INTER>
-14.3928

>  <SCORE.INTER.CONST>
1

>  <SCORE.INTER.POLAR>
0

>  <SCORE.INTER.ROT>
0

>  <SCORE.INTER.SOLV>
8.24625

>  <SCORE.INTER.VDW>
-15.9439

>  <SCORE.INTER.norm>
-1.43928

>  <SCORE.INTRA>
0

>  <SCORE.INTRA.DIHEDRAL>
0

>  <SCORE.INTRA.DIHEDRAL.0>
0

>  <SCORE.INTRA.POLAR>
0

>  <SCORE.INTRA.POLAR.0>
0

>  <SCORE.INTRA.REPUL>
0

>  <SCORE.INTRA.REPUL.0>
0

>  <SCORE.INTRA.SOLV>
0

>  <SCORE.INTRA.SOLV.lig_0>
-23.8941

>  <SCORE.INTRA.VDW>
0

>  <SCORE.INTRA.VDW.0>
0

>  <SCORE.INTRA.norm>
0

>  <SCORE.RESTR>
0.000809084

>  <SCORE.RESTR.CAVITY>
0.000809084

>  <SCORE.RESTR.norm>
8.09084e-05

>  <SCORE.SYSTEM>
0

>  <SCORE.SYSTEM.CONST>
0

>  <SCORE.SYSTEM.DIHEDRAL>
0

>  <SCORE.SYSTEM.SOLV>
0

>  <SCORE.SYSTEM.norm>
0

>  <SCORE.heavy>
10

>  <SCORE.norm>
-1.43919

>  <RMSD>
0.481

$$$$
ligand
 OpenBabel11021811513D
libRbt.so/2013.1/901 2013/11/27
 10 11  0  0  0  0  0  0  0  0999 V2000
  -30.1061   16.6971  -14.6100 N   0  0  0  0  0  0  0  0  0  0  0  0
  -31.0151   17.6185  -14.2678 C   0  0  0  0  0  0  0  0  0  0  0  0
  -31.5663   18.5702  -15.0190 N   0  0  0  0  0  0  0  0  0  0  0  0
  -31.0874   18.5261  -16.2720 C   0  0  0  0  0  0  0  0  0  0  0  0
  -30.1519   17.6414  -16.7717 C   0  0  0  0  0  0  0  0  0  0  0  0
  -29.6441   16.6785  -15.8769 C   0  0  0  0  0  0  0  0  0  0  0  0
  -28.7355   15.7595  -16.2218 N   0  0  0  0  0  0  0  0  0  0  0  0
  -29.9001   17.8960  -18.1092 N   0  0  0  0  0  0  0  0  0  0  0  0
  -30.6772   18.9171  -18.3861 C   0  0  0  0  0  0  0  0  0  0  0  0
  -31.4213   19.3491  -17.3237 N   0  0  0  0  0  0  0  0  0  0  0  0
  1  2  2  0  0  0  0
  1  6  1  0  0  0  0
  2  3  1  0  0  0  0
  3  4  2  0  0  0  0
  4  5  1  0  0  0  0
  4 10  1  0  0  0  0
  5  6  2  0  0  0  0
  5  8  1  0  0  0  0
  6  7  1  0  0  0  0
  8  9  1  0  0  0  0
  9 10  2  0  0  0  0
M  END
>  <CHROM.1>
-30.42399607,17.75683532,-16.28358851,1.14490633,-0.82378864,1.96101173

>  <Name>
ligand

>  <RI>
0

>  <Rbt.Current_Directory>
/home/itssahil/PROJECTS/Mol_Feturizer/New_Systems/rnas/4TZY

>  <Rbt.Executable>
rbdock ($Id: //depot/dev/client3/rdock/2013.1/src/exe/rbdock.cxx#4 $)

>  <Rbt.Library>
libRbt.so (2013.1, Build901 2013/11/27)

>  <Rbt.Parameter_File>
/export/apps/rDock/src/rDock_2013.1_src/data/scripts/dock_solv.prm

>  <Rbt.Receptor>
prm/blind_docking_60.prm

>  <SCORE>
-14.3537

>  <SCORE.INTER>
-14.3537

>  <SCORE.INTER.CONST>
1

>  <SCORE.INTER.POLAR>
0

>  <SCORE.INTER.ROT>
0

>  <SCORE.INTER.SOLV>
8.08971

>  <SCORE.INTER.VDW>
-15.8657

>  <SCORE.INTER.norm>
-1.43537

>  <SCORE.INTRA>
0

>  <SCORE.INTRA.DIHEDRAL>
0

>  <SCORE.INTRA.DIHEDRAL.0>
0

>  <SCORE.INTRA.POLAR>
0

>  <SCORE.INTRA.POLAR.0>
0

>  <SCORE.INTRA.REPUL>
0

>  <SCORE.INTRA.REPUL.0>
0

>  <SCORE.INTRA.SOLV>
0

>  <SCORE.INTRA.SOLV.lig_0>
-23.8941

>  <SCORE.INTRA.VDW>
0

>  <SCORE.INTRA.VDW.0>
0

>  <SCORE.INTRA.norm>
0

>  <SCORE.RESTR>
0

>  <SCORE.RESTR.CAVITY>
0

>  <SCORE.RESTR.norm>
0

>  <SCORE.SYSTEM>
0

>  <SCORE.SYSTEM.CONST>
0

>  <SCORE.SYSTEM.DIHEDRAL>
0

>  <SCORE.SYSTEM.SOLV>
0

>  <SCORE.SYSTEM.norm>
0

>  <SCORE.heavy>
10

>  <SCORE.norm>
-1.43537

>  <RMSD>
0.481

$$$$
ligand
 OpenBabel11021811513D
libRbt.so/2013.1/901 2013/11/27
 10 11  0  0  0  0  0  0  0  0999 V2000
  -30.0877   16.7129  -14.6028 N   0  0  0  0  0  0  0  0  0  0  0  0
  -31.0051   17.6268  -14.2629 C   0  0  0  0  0  0  0  0  0  0  0  0
  -31.5670   18.5697  -15.0173 N   0  0  0  0  0  0  0  0  0  0  0  0
  -31.0899   18.5248  -16.2710 C   0  0  0  0  0  0  0  0  0  0  0  0
  -30.1467   17.6471  -16.7685 C   0  0  0  0  0  0  0  0  0  0  0  0
  -29.6278   16.6932  -15.8704 C   0  0  0  0  0  0  0  0  0  0  0  0
  -28.7108   15.7817  -16.2129 N   0  0  0  0  0  0  0  0  0  0  0  0
  -29.8998   17.8982  -18.1076 N   0  0  0  0  0  0  0  0  0  0  0  0
  -30.6874   18.9104  -18.3876 C   0  0  0  0  0  0  0  0  0  0  0  0
  -31.4337   19.3397  -17.3258 N   0  0  0  0  0  0  0  0  0  0  0  0
  1  2  2  0  0  0  0
  1  6  1  0  0  0  0
  2  3  1  0  0  0  0
  3  4  2  0  0  0  0
  4  5  1  0  0  0  0
  4 10  1  0  0  0  0
  5  6  2  0  0  0  0
  5  8  1  0  0  0  0
  6  7  1  0  0  0  0
  8  9  1  0  0  0  0
  9 10  2  0  0  0  0
M  END
>  <CHROM.1>
-30.41901427,17.76201297,-16.28041034,1.13703962,-0.81535480,1.95083766

>  <Name>
ligand

>  <RI>
0

>  <Rbt.Current_Directory>
/home/itssahil/PROJECTS/Mol_Feturizer/New_Systems/rnas/4TZY

>  <Rbt.Executable>
rbdock ($Id: //depot/dev/client3/rdock/2013.1/src/exe/rbdock.cxx#4 $)

>  <Rbt.Library>
libRbt.so (2013.1, Build901 2013/11/27)

>  <Rbt.Parameter_File>
/export/apps/rDock/src/rDock_2013.1_src/data/scripts/dock_solv.prm

>  <Rbt.Receptor>
prm/blind_docking_80.prm

>  <SCORE>
-14.3593

>  <SCORE.INTER>
-14.3595

>  <SCORE.INTER.CONST>
1

>  <SCORE.INTER.POLAR>
0

>  <SCORE.INTER.ROT>
0

>  <SCORE.INTER.SOLV>
7.98843

>  <SCORE.INTER.VDW>
-15.8358

>  <SCORE.INTER.norm>
-1.43595

>  <SCORE.INTRA>
0

>  <SCORE.INTRA.DIHEDRAL>
0

>  <SCORE.INTRA.DIHEDRAL.0>
0

>  <SCORE.INTRA.POLAR>
0

>  <SCORE.INTRA.POLAR.0>
0

>  <SCORE.INTRA.REPUL>
0

>  <SCORE.INTRA.REPUL.0>
0

>  <SCORE.INTRA.SOLV>
0

>  <SCORE.INTRA.SOLV.lig_0>
-23.8941

>  <SCORE.INTRA.VDW>
0

>  <SCORE.INTRA.VDW.0>
0

>  <SCORE.INTRA.norm>
0

>  <SCORE.RESTR>
0.000208971

>  <SCORE.RESTR.CAVITY>
0.000208971

>  <SCORE.RESTR.norm>
2.08971e-05

>  <SCORE.SYSTEM>
0

>  <SCORE.SYSTEM.CONST>
0

>  <SCORE.SYSTEM.DIHEDRAL>
0

>  <SCORE.SYSTEM.SOLV>
0

>  <SCORE.SYSTEM.norm>
0

>  <SCORE.heavy>
10

>  <SCORE.norm>
-1.43593

>  <RMSD>
0.481

$$$$
ligand
 OpenBabel11021811513D
libRbt.so/2013.1/901 2013/11/27
 10 11  0  0  0  0  0  0  0  0999 V2000
  -30.0898   16.7090  -14.6102 N   0  0  0  0  0  0  0  0  0  0  0  0
  -31.0011   17.6282  -14.2681 C   0  0  0  0  0  0  0  0  0  0  0  0
  -31.5583   18.5754  -15.0207 N   0  0  0  0  0  0  0  0  0  0  0  0
  -31.0832   18.5288  -16.2751 C   0  0  0  0  0  0  0  0  0  0  0  0
  -30.1462   17.6458  -16.7749 C   0  0  0  0  0  0  0  0  0  0  0  0
  -29.6319   16.6879  -15.8785 C   0  0  0  0  0  0  0  0  0  0  0  0
  -28.7210   15.7711  -16.2233 N   0  0  0  0  0  0  0  0  0  0  0  0
  -29.8996   17.8968  -18.1141 N   0  0  0  0  0  0  0  0  0  0  0  0
  -30.6813   18.9141  -18.3919 C   0  0  0  0  0  0  0  0  0  0  0  0
  -31.4236   19.3469  -17.3286 N   0  0  0  0  0  0  0  0  0  0  0  0
  1  2  2  0  0  0  0
  1  6  1  0  0  0  0
  2  3  1  0  0  0  0
  3  4  2  0  0  0  0
  4  5  1  0  0  0  0
  4 10  1  0  0  0  0
  5  6  2  0  0  0  0
  5  8  1  0  0  0  0
  6  7  1  0  0  0  0
  8  9  1  0  0  0  0
  9 10  2  0  0  0  0
M  END
>  <CHROM.1>
-30.41706422,17.76193098,-16.28631316,1.13844365,-0.82160219,1.95288841

>  <Name>
ligand

>  <RI>
0

>  <Rbt.Current_Directory>
/home/itssahil/PROJECTS/Mol_Feturizer/New_Systems/rnas/4TZY

>  <Rbt.Executable>
rbdock ($Id: //depot/dev/client3/rdock/2013.1/src/exe/rbdock.cxx#4 $)

>  <Rbt.Library>
libRbt.so (2013.1, Build901 2013/11/27)

>  <Rbt.Parameter_File>
/export/apps/rDock/src/rDock_2013.1_src/data/scripts/dock_solv.prm

>  <Rbt.Receptor>
prm/pocket_docking_4.prm

>  <SCORE>
-14.3601

>  <SCORE.INTER>
-14.3605

>  <SCORE.INTER.CONST>
1

>  <SCORE.INTER.POLAR>
0

>  <SCORE.INTER.ROT>
0

>  <SCORE.INTER.SOLV>
8.0406

>  <SCORE.INTER.VDW>
-15.8539

>  <SCORE.INTER.norm>
-1.43605

>  <SCORE.INTRA>
0

>  <SCORE.INTRA.DIHEDRAL>
0

>  <SCORE.INTRA.DIHEDRAL.0>
0

>  <SCORE.INTRA.POLAR>
0

>  <SCORE.INTRA.POLAR.0>
0

>  <SCORE.INTRA.REPUL>
0

>  <SCORE.INTRA.REPUL.0>
0

>  <SCORE.INTRA.SOLV>
0

>  <SCORE.INTRA.SOLV.lig_0>
-23.8941

>  <SCORE.INTRA.VDW>
0

>  <SCORE.INTRA.VDW.0>
0

>  <SCORE.INTRA.norm>
0

>  <SCORE.RESTR>
0.000374723

>  <SCORE.RESTR.CAVITY>
0.000374723

>  <SCORE.RESTR.norm>
3.74723e-05

>  <SCORE.SYSTEM>
0

>  <SCORE.SYSTEM.CONST>
0

>  <SCORE.SYSTEM.DIHEDRAL>
0

>  <SCORE.SYSTEM.SOLV>
0

>  <SCORE.SYSTEM.norm>
0

>  <SCORE.heavy>
10

>  <SCORE.norm>
-1.43601

>  <RMSD>
0.481

$$$$
ligand
 OpenBabel11021811513D
libRbt.so/2013.1/901 2013/11/27
 10 11  0  0  0  0  0  0  0  0999 V2000
  -30.1243   16.6868  -14.6075 N   0  0  0  0  0  0  0  0  0  0  0  0
  -31.0297   17.6116  -14.2650 C   0  0  0  0  0  0  0  0  0  0  0  0
  -31.5733   18.5690  -15.0146 N   0  0  0  0  0  0  0  0  0  0  0  0
  -31.0901   18.5271  -16.2660 C   0  0  0  0  0  0  0  0  0  0  0  0
  -30.1575   17.6393  -16.7657 C   0  0  0  0  0  0  0  0  0  0  0  0
  -29.6579   16.6705  -15.8728 C   0  0  0  0  0  0  0  0  0  0  0  0
  -28.7528   15.7481  -16.2178 N   0  0  0  0  0  0  0  0  0  0  0  0
  -29.8996   17.8976  -18.1014 N   0  0  0  0  0  0  0  0  0  0  0  0
  -30.6703   18.9238  -18.3773 C   0  0  0  0  0  0  0  0  0  0  0  0
  -31.4160   19.3556  -17.3159 N   0  0  0  0  0  0  0  0  0  0  0  0
  1  2  2  0  0  0  0
  1  6  1  0  0  0  0
  2  3  1  0  0  0  0
  3  4  2  0  0  0  0
  4  5  1  0  0  0  0
  4 10  1  0  0  0  0
  5  6  2  0  0  0  0
  5  8  1  0  0  0  0
  6  7  1  0  0  0  0
  8  9  1  0  0  0  0
  9 10  2  0  0  0  0
M  END
>  <CHROM.1>
-30.43069993,17.75439042,-16.27818841,1.15271228,-0.82721008,1.97047424

>  <Name>
ligand

>  <RI>
0

>  <Rbt.Current_Directory>
/home/itssahil/PROJECTS/Mol_Feturizer/New_Systems/rnas/4TZY

>  <Rbt.Executable>
rbdock ($Id: //depot/dev/client3/rdock/2013.1/src/exe/rbdock.cxx#4 $)

>  <Rbt.Library>
libRbt.so (2013.1, Build901 2013/11/27)

>  <Rbt.Parameter_File>
/export/apps/rDock/src/rDock_2013.1_src/data/scripts/dock_solv.prm

>  <Rbt.Receptor>
prm/pocket_docking_4.prm

>  <SCORE>
-14.3485

>  <SCORE.INTER>
-14.349

>  <SCORE.INTER.CONST>
1

>  <SCORE.INTER.POLAR>
0

>  <SCORE.INTER.ROT>
0

>  <SCORE.INTER.SOLV>
8.14128

>  <SCORE.INTER.VDW>
-15.8797

>  <SCORE.INTER.norm>
-1.4349

>  <SCORE.INTRA>
0

>  <SCORE.INTRA.DIHEDRAL>
0

>  <SCORE.INTRA.DIHEDRAL.0>
0

>  <SCORE.INTRA.POLAR>
0

>  <SCORE.INTRA.POLAR.0>
0

>  <SCORE.INTRA.REPUL>
0

>  <SCORE.INTRA.REPUL.0>
0

>  <SCORE.INTRA.SOLV>
0

>  <SCORE.INTRA.SOLV.lig_0>
-23.8941

>  <SCORE.INTRA.VDW>
0

>  <SCORE.INTRA.VDW.0>
0

>  <SCORE.INTRA.norm>
0

>  <SCORE.RESTR>
0.000424989

>  <SCORE.RESTR.CAVITY>
0.000424989

>  <SCORE.RESTR.norm>
4.24989e-05

>  <SCORE.SYSTEM>
0

>  <SCORE.SYSTEM.CONST>
0

>  <SCORE.SYSTEM.DIHEDRAL>
0

>  <SCORE.SYSTEM.SOLV>
0

>  <SCORE.SYSTEM.norm>
0

>  <SCORE.heavy>
10

>  <SCORE.norm>
-1.43485

>  <RMSD>
0.481

$$$$
ligand
 OpenBabel11021811513D
libRbt.so/2013.1/901 2013/11/27
 10 11  0  0  0  0  0  0  0  0999 V2000
  -30.1186   16.6855  -14.6140 N   0  0  0  0  0  0  0  0  0  0  0  0
  -31.0069   17.6241  -14.2641 C   0  0  0  0  0  0  0  0  0  0  0  0
  -31.5406   18.5909  -15.0089 N   0  0  0  0  0  0  0  0  0  0  0  0
  -31.0671   18.5427  -16.2638 C   0  0  0  0  0  0  0  0  0  0  0  0
  -30.1522   17.6409  -16.7710 C   0  0  0  0  0  0  0  0  0  0  0  0
  -29.6616   16.6633  -15.8826 C   0  0  0  0  0  0  0  0  0  0  0  0
  -28.7737   15.7270  -16.2351 N   0  0  0  0  0  0  0  0  0  0  0  0
  -29.8998   17.8965  -18.1083 N   0  0  0  0  0  0  0  0  0  0  0  0
  -30.6562   18.9350  -18.3775 C   0  0  0  0  0  0  0  0  0  0  0  0
  -31.3873   19.3775  -17.3105 N   0  0  0  0  0  0  0  0  0  0  0  0
  1  2  2  0  0  0  0
  1  6  1  0  0  0  0
  2  3  1  0  0  0  0
  3  4  2  0  0  0  0
  4  5  1  0  0  0  0
  4 10  1  0  0  0  0
  5  6  2  0  0  0  0
  5  8  1  0  0  0  0
  6  7  1  0  0  0  0
  8  9  1  0  0  0  0
  9 10  2  0  0  0  0
M  END
>  <CHROM.1>
-30.42007738,17.75967517,-16.28141117,1.15207508,-0.84457283,1.97105917

>  <Name>
ligand

>  <RI>
0

>  <Rbt.Current_Directory>
/home/itssahil/PROJECTS/Mol_Feturizer/New_Systems/rnas/4TZY

>  <Rbt.Executable>
rbdock ($Id: //depot/dev/client3/rdock/2013.1/src/exe/rbdock.cxx#4 $)

>  <Rbt.Library>
libRbt.so (2013.1, Build901 2013/11/27)

>  <Rbt.Parameter_File>
/export/apps/rDock/src/rDock_2013.1_src/data/scripts/dock_solv.prm

>  <Rbt.Receptor>
prm/pocket_docking_4.prm

>  <SCORE>
-14.3966

>  <SCORE.INTER>
-14.3968

>  <SCORE.INTER.CONST>
1

>  <SCORE.INTER.POLAR>
0

>  <SCORE.INTER.ROT>
0

>  <SCORE.INTER.SOLV>
8.24439

>  <SCORE.INTER.VDW>
-15.946

>  <SCORE.INTER.norm>
-1.43968

>  <SCORE.INTRA>
0

>  <SCORE.INTRA.DIHEDRAL>
0

>  <SCORE.INTRA.DIHEDRAL.0>
0

>  <SCORE.INTRA.POLAR>
0

>  <SCORE.INTRA.POLAR.0>
0

>  <SCORE.INTRA.REPUL>
0

>  <SCORE.INTRA.REPUL.0>
0

>  <SCORE.INTRA.SOLV>
0

>  <SCORE.INTRA.SOLV.lig_0>
-23.8941

>  <SCORE.INTRA.VDW>
0

>  <SCORE.INTRA.VDW.0>
0

>  <SCORE.INTRA.norm>
0

>  <SCORE.RESTR>
0.000205597

>  <SCORE.RESTR.CAVITY>
0.000205597

>  <SCORE.RESTR.norm>
2.05597e-05

>  <SCORE.SYSTEM>
0

>  <SCORE.SYSTEM.CONST>
0

>  <SCORE.SYSTEM.DIHEDRAL>
0

>  <SCORE.SYSTEM.SOLV>
0

>  <SCORE.SYSTEM.norm>
0

>  <SCORE.heavy>
10

>  <SCORE.norm>
-1.43966

>  <RMSD>
0.481

$$$$
ligand
 OpenBabel11021811513D
libRbt.so/2013.1/901 2013/11/27
 10 11  0  0  0  0  0  0  0  0999 V2000
  -30.0922   16.7168  -14.5940 N   0  0  0  0  0  0  0  0  0  0  0  0
  -31.0107   17.6302  -14.2561 C   0  0  0  0  0  0  0  0  0  0  0  0
  -31.5721   18.5724  -15.0119 N   0  0  0  0  0  0  0  0  0  0  0  0
  -31.0931   18.5271  -16.2648 C   0  0  0  0  0  0  0  0  0  0  0  0
  -30.1485   17.6498  -16.7604 C   0  0  0  0  0  0  0  0  0  0  0  0
  -29.6304   16.6967  -15.8610 C   0  0  0  0  0  0  0  0  0  0  0  0
  -28.7123   15.7856  -16.2016 N   0  0  0  0  0  0  0  0  0  0  0  0
  -29.8998   17.9003  -18.0993 N   0  0  0  0  0  0  0  0  0  0  0  0
  -30.6876   18.9118  -18.3810 C   0  0  0  0  0  0  0  0  0  0  0  0
  -31.4359   19.3412  -17.3205 N   0  0  0  0  0  0  0  0  0  0  0  0
  1  2  2  0  0  0  0
  1  6  1  0  0  0  0
  2  3  1  0  0  0  0
  3  4  2  0  0  0  0
  4  5  1  0  0  0  0
  4 10  1  0  0  0  0
  5  6  2  0  0  0  0
  5  8  1  0  0  0  0
  6  7  1  0  0  0  0
  8  9  1  0  0  0  0
  9 10  2  0  0  0  0
M  END
>  <CHROM.1>
-30.42167631,17.76476724,-16.27277499,1.13873199,-0.81417091,1.95152535

>  <Name>
ligand

>  <RI>
0

>  <Rbt.Current_Directory>
/home/itssahil/PROJECTS/Mol_Feturizer/New_Systems/rnas/4TZY

>  <Rbt.Executable>
rbdock ($Id: //depot/dev/client3/rdock/2013.1/src/exe/rbdock.cxx#4 $)

>  <Rbt.Library>
libRbt.so (2013.1, Build901 2013/11/27)

>  <Rbt.Parameter_File>
/export/apps/rDock/src/rDock_2013.1_src/data/scripts/dock_solv.prm

>  <Rbt.Receptor>
prm/pocket_docking_5.prm

>  <SCORE>
-14.357

>  <SCORE.INTER>
-14.3573

>  <SCORE.INTER.CONST>
1

>  <SCORE.INTER.POLAR>
0

>  <SCORE.INTER.ROT>
0

>  <SCORE.INTER.SOLV>
7.97118

>  <SCORE.INTER.VDW>
-15.8286

>  <SCORE.INTER.norm>
-1.43573

>  <SCORE.INTRA>
0

>  <SCORE.INTRA.DIHEDRAL>
0

>  <SCORE.INTRA.DIHEDRAL.0>
0

>  <SCORE.INTRA.POLAR>
0

>  <SCORE.INTRA.POLAR.0>
0

>  <SCORE.INTRA.REPUL>
0

>  <SCORE.INTRA.REPUL.0>
0

>  <SCORE.INTRA.SOLV>
0

>  <SCORE.INTRA.SOLV.lig_0>
-23.8941

>  <SCORE.INTRA.VDW>
0

>  <SCORE.INTRA.VDW.0>
0

>  <SCORE.INTRA.norm>
0

>  <SCORE.RESTR>
0.000228588

>  <SCORE.RESTR.CAVITY>
0.000228588

>  <SCORE.RESTR.norm>
2.28588e-05

>  <SCORE.SYSTEM>
0

>  <SCORE.SYSTEM.CONST>
0

>  <SCORE.SYSTEM.DIHEDRAL>
0

>  <SCORE.SYSTEM.SOLV>
0

>  <SCORE.SYSTEM.norm>
0

>  <SCORE.heavy>
10

>  <SCORE.norm>
-1.4357

>  <RMSD>
0.481

$$$$
ligand
 OpenBabel11021811513D
libRbt.so/2013.1/901 2013/11/27
 10 11  0  0  0  0  0  0  0  0999 V2000
  -30.0949   16.7118  -14.5976 N   0  0  0  0  0  0  0  0  0  0  0  0
  -31.0076   17.6302  -14.2571 C   0  0  0  0  0  0  0  0  0  0  0  0
  -31.5643   18.5768  -15.0107 N   0  0  0  0  0  0  0  0  0  0  0  0
  -31.0872   18.5306  -16.2643 C   0  0  0  0  0  0  0  0  0  0  0  0
  -30.1484   17.6484  -16.7625 C   0  0  0  0  0  0  0  0  0  0  0  0
  -29.6348   16.6910  -15.8652 C   0  0  0  0  0  0  0  0  0  0  0  0
  -28.7226   15.7749  -16.2083 N   0  0  0  0  0  0  0  0  0  0  0  0
  -29.8999   17.8996  -18.1013 N   0  0  0  0  0  0  0  0  0  0  0  0
  -30.6820   18.9162  -18.3804 C   0  0  0  0  0  0  0  0  0  0  0  0
  -31.4264   19.3484  -17.3184 N   0  0  0  0  0  0  0  0  0  0  0  0
  1  2  2  0  0  0  0
  1  6  1  0  0  0  0
  2  3  1  0  0  0  0
  3  4  2  0  0  0  0
  4  5  1  0  0  0  0
  4 10  1  0  0  0  0
  5  6  2  0  0  0  0
  5  8  1  0  0  0  0
  6  7  1  0  0  0  0
  8  9  1  0  0  0  0
  9 10  2  0  0  0  0
M  END
>  <CHROM.1>
-30.42028369,17.76431372,-16.27434630,1.14026808,-0.82015220,1.95418079

>  <Name>
ligand

>  <RI>
0

>  <Rbt.Current_Directory>
/home/itssahil/PROJECTS/Mol_Feturizer/New_Systems/rnas/4TZY

>  <Rbt.Executable>
rbdock ($Id: //depot/dev/client3/rdock/2013.1/src/exe/rbdock.cxx#4 $)

>  <Rbt.Library>
libRbt.so (2013.1, Build901 2013/11/27)

>  <Rbt.Parameter_File>
/export/apps/rDock/src/rDock_2013.1_src/data/scripts/dock_solv.prm

>  <Rbt.Receptor>
prm/pocket_docking_6.prm

>  <SCORE>
-14.3577

>  <SCORE.INTER>
-14.3578

>  <SCORE.INTER.CONST>
1

>  <SCORE.INTER.POLAR>
0

>  <SCORE.INTER.ROT>
0

>  <SCORE.INTER.SOLV>
8.02053

>  <SCORE.INTER.VDW>
-15.8454

>  <SCORE.INTER.norm>
-1.43578

>  <SCORE.INTRA>
0

>  <SCORE.INTRA.DIHEDRAL>
0

>  <SCORE.INTRA.DIHEDRAL.0>
0

>  <SCORE.INTRA.POLAR>
0

>  <SCORE.INTRA.POLAR.0>
0

>  <SCORE.INTRA.REPUL>
0

>  <SCORE.INTRA.REPUL.0>
0

>  <SCORE.INTRA.SOLV>
0

>  <SCORE.INTRA.SOLV.lig_0>
-23.8941

>  <SCORE.INTRA.VDW>
0

>  <SCORE.INTRA.VDW.0>
0

>  <SCORE.INTRA.norm>
0

>  <SCORE.RESTR>
0.000133766

>  <SCORE.RESTR.CAVITY>
0.000133766

>  <SCORE.RESTR.norm>
1.33766e-05

>  <SCORE.SYSTEM>
0

>  <SCORE.SYSTEM.CONST>
0

>  <SCORE.SYSTEM.DIHEDRAL>
0

>  <SCORE.SYSTEM.SOLV>
0

>  <SCORE.SYSTEM.norm>
0

>  <SCORE.heavy>
10

>  <SCORE.norm>
-1.43577

>  <RMSD>
0.481

$$$$
ligand
 OpenBabel11021811513D
libRbt.so/2013.1/901 2013/11/27
 10 11  0  0  0  0  0  0  0  0999 V2000
  -30.0959   16.7028  -14.6177 N   0  0  0  0  0  0  0  0  0  0  0  0
  -31.0173   17.6135  -14.2800 C   0  0  0  0  0  0  0  0  0  0  0  0
  -31.5796   18.5556  -15.0353 N   0  0  0  0  0  0  0  0  0  0  0  0
  -31.0980   18.5135  -16.2873 C   0  0  0  0  0  0  0  0  0  0  0  0
  -30.1504   17.6393  -16.7826 C   0  0  0  0  0  0  0  0  0  0  0  0
  -29.6316   16.6860  -15.8838 C   0  0  0  0  0  0  0  0  0  0  0  0
  -28.7106   15.7778  -16.2241 N   0  0  0  0  0  0  0  0  0  0  0  0
  -29.8996   17.8927  -18.1206 N   0  0  0  0  0  0  0  0  0  0  0  0
  -30.6894   18.9027  -18.4021 C   0  0  0  0  0  0  0  0  0  0  0  0
  -31.4407   19.3286  -17.3424 N   0  0  0  0  0  0  0  0  0  0  0  0
  1  2  2  0  0  0  0
  1  6  1  0  0  0  0
  2  3  1  0  0  0  0
  3  4  2  0  0  0  0
  4  5  1  0  0  0  0
  4 10  1  0  0  0  0
  5  6  2  0  0  0  0
  5  8  1  0  0  0  0
  6  7  1  0  0  0  0
  8  9  1  0  0  0  0
  9 10  2  0  0  0  0
M  END
>  <CHROM.1>
-30.42470453,17.75283380,-16.29532918,1.14000340,-0.81118584,1.95410533

>  <Name>
ligand

>  <RI>
0

>  <Rbt.Current_Directory>
/home/itssahil/PROJECTS/Mol_Feturizer/New_Systems/rnas/4TZY

>  <Rbt.Executable>
rbdock ($Id: //depot/dev/client3/rdock/2013.1/src/exe/rbdock.cxx#4 $)

>  <Rbt.Library>
libRbt.so (2013.1, Build901 2013/11/27)

>  <Rbt.Parameter_File>
/export/apps/rDock/src/rDock_2013.1_src/data/scripts/dock_solv.prm

>  <Rbt.Receptor>
prm/pocket_docking_7.prm

>  <SCORE>
-14.3917

>  <SCORE.INTER>
-14.3921

>  <SCORE.INTER.CONST>
1

>  <SCORE.INTER.POLAR>
0

>  <SCORE.INTER.ROT>
0

>  <SCORE.INTER.SOLV>
8.00596

>  <SCORE.INTER.VDW>
-15.8634

>  <SCORE.INTER.norm>
-1.43921

>  <SCORE.INTRA>
0

>  <SCORE.INTRA.DIHEDRAL>
0

>  <SCORE.INTRA.DIHEDRAL.0>
0

>  <SCORE.INTRA.POLAR>
0

>  <SCORE.INTRA.POLAR.0>
0

>  <SCORE.INTRA.REPUL>
0

>  <SCORE.INTRA.REPUL.0>
0

>  <SCORE.INTRA.SOLV>
0

>  <SCORE.INTRA.SOLV.lig_0>
-23.8941

>  <SCORE.INTRA.VDW>
0

>  <SCORE.INTRA.VDW.0>
0

>  <SCORE.INTRA.norm>
0

>  <SCORE.RESTR>
0.000376787

>  <SCORE.RESTR.CAVITY>
0.000376787

>  <SCORE.RESTR.norm>
3.76787e-05

>  <SCORE.SYSTEM>
0

>  <SCORE.SYSTEM.CONST>
0

>  <SCORE.SYSTEM.DIHEDRAL>
0

>  <SCORE.SYSTEM.SOLV>
0

>  <SCORE.SYSTEM.norm>
0

>  <SCORE.heavy>
10

>  <SCORE.norm>
-1.43917

>  <RMSD>
0.481

$$$$
ligand
 OpenBabel11021811513D
libRbt.so/2013.1/901 2013/11/27
 10 11  0  0  0  0  0  0  0  0999 V2000
  -30.1214   16.6876  -14.6115 N   0  0  0  0  0  0  0  0  0  0  0  0
  -31.0063   17.6293  -14.2613 C   0  0  0  0  0  0  0  0  0  0  0  0
  -31.5371   18.5977  -15.0058 N   0  0  0  0  0  0  0  0  0  0  0  0
  -31.0643   18.5479  -16.2609 C   0  0  0  0  0  0  0  0  0  0  0  0
  -30.1527   17.6430  -16.7685 C   0  0  0  0  0  0  0  0  0  0  0  0
  -29.6650   16.6638  -15.8803 C   0  0  0  0  0  0  0  0  0  0  0  0
  -28.7804   15.7246  -16.2331 N   0  0  0  0  0  0  0  0  0  0  0  0
  -29.9000   17.8977  -18.1059 N   0  0  0  0  0  0  0  0  0  0  0  0
  -30.6530   18.9387  -18.3749 C   0  0  0  0  0  0  0  0  0  0  0  0
  -31.3821   19.3837  -17.3075 N   0  0  0  0  0  0  0  0  0  0  0  0
  1  2  2  0  0  0  0
  1  6  1  0  0  0  0
  2  3  1  0  0  0  0
  3  4  2  0  0  0  0
  4  5  1  0  0  0  0
  4 10  1  0  0  0  0
  5  6  2  0  0  0  0
  5  8  1  0  0  0  0
  6  7  1  0  0  0  0
  8  9  1  0  0  0  0
  9 10  2  0  0  0  0
M  END
>  <CHROM.1>
-30.41992365,17.76270233,-16.27881194,1.15343430,-0.84783254,1.97201841

>  <Name>
ligand

>  <RI>
0

>  <Rbt.Current_Directory>
/home/itssahil/PROJECTS/Mol_Feturizer/New_Systems/rnas/4TZY

>  <Rbt.Executable>
rbdock ($Id: //depot/dev/client3/rdock/2013.1/src/exe/rbdock.cxx#4 $)

>  <Rbt.Library>
libRbt.so (2013.1, Build901 2013/11/27)

>  <Rbt.Parameter_File>
/export/apps/rDock/src/rDock_2013.1_src/data/scripts/dock_solv.prm

>  <Rbt.Receptor>
prm/pocket_docking_7.prm

>  <SCORE>
-14.3956

>  <SCORE.INTER>
-14.3956

>  <SCORE.INTER.CONST>
1

>  <SCORE.INTER.POLAR>
0

>  <SCORE.INTER.ROT>
0

>  <SCORE.INTER.SOLV>
8.26241

>  <SCORE.INTER.VDW>
-15.9512

>  <SCORE.INTER.norm>
-1.43956

>  <SCORE.INTRA>
0

>  <SCORE.INTRA.DIHEDRAL>
0

>  <SCORE.INTRA.DIHEDRAL.0>
0

>  <SCORE.INTRA.POLAR>
0

>  <SCORE.INTRA.POLAR.0>
0

>  <SCORE.INTRA.REPUL>
0

>  <SCORE.INTRA.REPUL.0>
0

>  <SCORE.INTRA.SOLV>
0

>  <SCORE.INTRA.SOLV.lig_0>
-23.8941

>  <SCORE.INTRA.VDW>
0

>  <SCORE.INTRA.VDW.0>
0

>  <SCORE.INTRA.norm>
0

>  <SCORE.RESTR>
7.26243e-06

>  <SCORE.RESTR.CAVITY>
7.26243e-06

>  <SCORE.RESTR.norm>
7.26243e-07

>  <SCORE.SYSTEM>
0

>  <SCORE.SYSTEM.CONST>
0

>  <SCORE.SYSTEM.DIHEDRAL>
0

>  <SCORE.SYSTEM.SOLV>
0

>  <SCORE.SYSTEM.norm>
0

>  <SCORE.heavy>
10

>  <SCORE.norm>
-1.43956

>  <RMSD>
0.481

$$$$
ligand
 OpenBabel11021811513D
libRbt.so/2013.1/901 2013/11/27
 10 11  0  0  0  0  0  0  0  0999 V2000
  -30.0882   16.7226  -14.5919 N   0  0  0  0  0  0  0  0  0  0  0  0
  -31.0080   17.6351  -14.2548 C   0  0  0  0  0  0  0  0  0  0  0  0
  -31.5712   18.5754  -15.0116 N   0  0  0  0  0  0  0  0  0  0  0  0
  -31.0927   18.5290  -16.2647 C   0  0  0  0  0  0  0  0  0  0  0  0
  -30.1471   17.6524  -16.7595 C   0  0  0  0  0  0  0  0  0  0  0  0
  -29.6270   16.7015  -15.8590 C   0  0  0  0  0  0  0  0  0  0  0  0
  -28.7076   15.7913  -16.1988 N   0  0  0  0  0  0  0  0  0  0  0  0
  -29.8994   17.9014  -18.0989 N   0  0  0  0  0  0  0  0  0  0  0  0
  -30.6889   18.9113  -18.3817 C   0  0  0  0  0  0  0  0  0  0  0  0
  -31.4373   19.3410  -17.3215 N   0  0  0  0  0  0  0  0  0  0  0  0
  1  2  2  0  0  0  0
  1  6  1  0  0  0  0
  2  3  1  0  0  0  0
  3  4  2  0  0  0  0
  4  5  1  0  0  0  0
  4 10  1  0  0  0  0
  5  6  2  0  0  0  0
  5  8  1  0  0  0  0
  6  7  1  0  0  0  0
  8  9  1  0  0  0  0
  9 10  2  0  0  0  0
M  END
>  <CHROM.1>
-30.42012436,17.76766779,-16.27195417,1.13720896,-0.81291237,1.94896998

>  <Name>
ligand

>  <RI>
0

>  <Rbt.Current_Directory>
/home/itssahil/PROJECTS/Mol_Feturizer/New_Systems/rnas/4TZY

>  <Rbt.Executable>
rbdock ($Id: //depot/dev/client3/rdock/2013.1/src/exe/rbdock.cxx#4 $)

>  <Rbt.Library>
libRbt.so (2013.1, Build901 2013/11/27)

>  <Rbt.Parameter_File>
/export/apps/rDock/src/rDock_2013.1_src/data/scripts/dock_solv.prm

>  <Rbt.Receptor>
prm/pocket_docking_8.prm

>  <SCORE>
-14.3589

>  <SCORE.INTER>
-14.3595

>  <SCORE.INTER.CONST>
1

>  <SCORE.INTER.POLAR>
0

>  <SCORE.INTER.ROT>
0

>  <SCORE.INTER.SOLV>
7.94757

>  <SCORE.INTER.VDW>
-15.8222

>  <SCORE.INTER.norm>
-1.43595

>  <SCORE.INTRA>
0

>  <SCORE.INTRA.DIHEDRAL>
0

>  <SCORE.INTRA.DIHEDRAL.0>
0

>  <SCORE.INTRA.POLAR>
0

>  <SCORE.INTRA.POLAR.0>
0

>  <SCORE.INTRA.REPUL>
0

>  <SCORE.INTRA.REPUL.0>
0

>  <SCORE.INTRA.SOLV>
0

>  <SCORE.INTRA.SOLV.lig_0>
-23.8941

>  <SCORE.INTRA.VDW>
0

>  <SCORE.INTRA.VDW.0>
0

>  <SCORE.INTRA.norm>
0

>  <SCORE.RESTR>
0.000647365

>  <SCORE.RESTR.CAVITY>
0.000647365

>  <SCORE.RESTR.norm>
6.47365e-05

>  <SCORE.SYSTEM>
0

>  <SCORE.SYSTEM.CONST>
0

>  <SCORE.SYSTEM.DIHEDRAL>
0

>  <SCORE.SYSTEM.SOLV>
0

>  <SCORE.SYSTEM.norm>
0

>  <SCORE.heavy>
10

>  <SCORE.norm>
-1.43589

>  <RMSD>
0.481

$$$$
ligand
 OpenBabel11021811513D
libRbt.so/2013.1/901 2013/11/27
 10 11  0  0  0  0  0  0  0  0999 V2000
  -30.1251   16.6774  -14.6216 N   0  0  0  0  0  0  0  0  0  0  0  0
  -31.0161   17.6136  -14.2724 C   0  0  0  0  0  0  0  0  0  0  0  0
  -31.5501   18.5804  -15.0167 N   0  0  0  0  0  0  0  0  0  0  0  0
  -31.0734   18.5354  -16.2705 C   0  0  0  0  0  0  0  0  0  0  0  0
  -30.1554   17.6364  -16.7771 C   0  0  0  0  0  0  0  0  0  0  0  0
  -29.6649   16.6583  -15.8892 C   0  0  0  0  0  0  0  0  0  0  0  0
  -28.7742   15.7245  -16.2411 N   0  0  0  0  0  0  0  0  0  0  0  0
  -29.9002   17.8948  -18.1133 N   0  0  0  0  0  0  0  0  0  0  0  0
  -30.6581   18.9322  -18.3826 C   0  0  0  0  0  0  0  0  0  0  0  0
  -31.3927   19.3713  -17.3166 N   0  0  0  0  0  0  0  0  0  0  0  0
  1  2  2  0  0  0  0
  1  6  1  0  0  0  0
  2  3  1  0  0  0  0
  3  4  2  0  0  0  0
  4  5  1  0  0  0  0
  4 10  1  0  0  0  0
  5  6  2  0  0  0  0
  5  8  1  0  0  0  0
  6  7  1  0  0  0  0
  8  9  1  0  0  0  0
  9 10  2  0  0  0  0
M  END
>  <CHROM.1>
-30.42469031,17.75377768,-16.28793726,1.15422911,-0.84167560,1.97438114

>  <Name>
ligand

>  <RI>
0

>  <Rbt.Current_Directory>
/home/itssahil/PROJECTS/Mol_Feturizer/New_Systems/rnas/4TZY

>  <Rbt.Executable>
rbdock ($Id: //depot/dev/client3/rdock/2013.1/src/exe/rbdock.cxx#4 $)

>  <Rbt.Library>
libRbt.so (2013.1, Build901 2013/11/27)

>  <Rbt.Parameter_File>
/export/apps/rDock/src/rDock_2013.1_src/data/scripts/dock_solv.prm

>  <Rbt.Receptor>
prm/blind_docking_60.prm

>  <SCORE>
-14.3893

>  <SCORE.INTER>
-14.3893

>  <SCORE.INTER.CONST>
1

>  <SCORE.INTER.POLAR>
0

>  <SCORE.INTER.ROT>
0

>  <SCORE.INTER.SOLV>
8.25972

>  <SCORE.INTER.VDW>
-15.9461

>  <SCORE.INTER.norm>
-1.43893

>  <SCORE.INTRA>
0

>  <SCORE.INTRA.DIHEDRAL>
0

>  <SCORE.INTRA.DIHEDRAL.0>
0

>  <SCORE.INTRA.POLAR>
0

>  <SCORE.INTRA.POLAR.0>
0

>  <SCORE.INTRA.REPUL>
0

>  <SCORE.INTRA.REPUL.0>
0

>  <SCORE.INTRA.SOLV>
0

>  <SCORE.INTRA.SOLV.lig_0>
-23.8941

>  <SCORE.INTRA.VDW>
0

>  <SCORE.INTRA.VDW.0>
0

>  <SCORE.INTRA.norm>
0

>  <SCORE.RESTR>
0

>  <SCORE.RESTR.CAVITY>
0

>  <SCORE.RESTR.norm>
0

>  <SCORE.SYSTEM>
0

>  <SCORE.SYSTEM.CONST>
0

>  <SCORE.SYSTEM.DIHEDRAL>
0

>  <SCORE.SYSTEM.SOLV>
0

>  <SCORE.SYSTEM.norm>
0

>  <SCORE.heavy>
10

>  <SCORE.norm>
-1.43893

>  <RMSD>
0.482

$$$$
ligand
 OpenBabel11021811513D
libRbt.so/2013.1/901 2013/11/27
 10 11  0  0  0  0  0  0  0  0999 V2000
  -30.0900   16.7186  -14.6035 N   0  0  0  0  0  0  0  0  0  0  0  0
  -31.0248   17.6180  -14.2726 C   0  0  0  0  0  0  0  0  0  0  0  0
  -31.5977   18.5488  -15.0337 N   0  0  0  0  0  0  0  0  0  0  0  0
  -31.1120   18.5077  -16.2842 C   0  0  0  0  0  0  0  0  0  0  0  0
  -30.1510   17.6444  -16.7728 C   0  0  0  0  0  0  0  0  0  0  0  0
  -29.6218   16.7025  -15.8681 C   0  0  0  0  0  0  0  0  0  0  0  0
  -28.6874   15.8054  -16.2017 N   0  0  0  0  0  0  0  0  0  0  0  0
  -29.8999   17.8952  -18.1112 N   0  0  0  0  0  0  0  0  0  0  0  0
  -30.7026   18.8930  -18.3995 C   0  0  0  0  0  0  0  0  0  0  0  0
  -31.4628   19.3132  -17.3439 N   0  0  0  0  0  0  0  0  0  0  0  0
  1  2  2  0  0  0  0
  1  6  1  0  0  0  0
  2  3  1  0  0  0  0
  3  4  2  0  0  0  0
  4  5  1  0  0  0  0
  4 10  1  0  0  0  0
  5  6  2  0  0  0  0
  5  8  1  0  0  0  0
  6  7  1  0  0  0  0
  8  9  1  0  0  0  0
  9 10  2  0  0  0  0
M  END
>  <CHROM.1>
-30.42829638,17.75636155,-16.28679354,1.13651857,-0.79734610,1.94706353

>  <Name>
ligand

>  <RI>
0

>  <Rbt.Current_Directory>
/home/itssahil/PROJECTS/Mol_Feturizer/New_Systems/rnas/4TZY

>  <Rbt.Executable>
rbdock ($Id: //depot/dev/client3/rdock/2013.1/src/exe/rbdock.cxx#4 $)

>  <Rbt.Library>
libRbt.so (2013.1, Build901 2013/11/27)

>  <Rbt.Parameter_File>
/export/apps/rDock/src/rDock_2013.1_src/data/scripts/dock_solv.prm

>  <Rbt.Receptor>
prm/blind_docking_60.prm

>  <SCORE>
-14.3914

>  <SCORE.INTER>
-14.3915

>  <SCORE.INTER.CONST>
1

>  <SCORE.INTER.POLAR>
0

>  <SCORE.INTER.ROT>
0

>  <SCORE.INTER.SOLV>
7.87939

>  <SCORE.INTER.VDW>
-15.8208

>  <SCORE.INTER.norm>
-1.43915

>  <SCORE.INTRA>
0

>  <SCORE.INTRA.DIHEDRAL>
0

>  <SCORE.INTRA.DIHEDRAL.0>
0

>  <SCORE.INTRA.POLAR>
0

>  <SCORE.INTRA.POLAR.0>
0

>  <SCORE.INTRA.REPUL>
0

>  <SCORE.INTRA.REPUL.0>
0

>  <SCORE.INTRA.SOLV>
0

>  <SCORE.INTRA.SOLV.lig_0>
-23.8941

>  <SCORE.INTRA.VDW>
0

>  <SCORE.INTRA.VDW.0>
0

>  <SCORE.INTRA.norm>
0

>  <SCORE.RESTR>
0.000135217

>  <SCORE.RESTR.CAVITY>
0.000135217

>  <SCORE.RESTR.norm>
1.35217e-05

>  <SCORE.SYSTEM>
0

>  <SCORE.SYSTEM.CONST>
0

>  <SCORE.SYSTEM.DIHEDRAL>
0

>  <SCORE.SYSTEM.SOLV>
0

>  <SCORE.SYSTEM.norm>
0

>  <SCORE.heavy>
10

>  <SCORE.norm>
-1.43914

>  <RMSD>
0.482

$$$$
ligand
 OpenBabel11021811513D
libRbt.so/2013.1/901 2013/11/27
 10 11  0  0  0  0  0  0  0  0999 V2000
  -30.0864   16.7066  -14.6187 N   0  0  0  0  0  0  0  0  0  0  0  0
  -31.0092   17.6157  -14.2803 C   0  0  0  0  0  0  0  0  0  0  0  0
  -31.5751   18.5554  -15.0357 N   0  0  0  0  0  0  0  0  0  0  0  0
  -31.0960   18.5128  -16.2887 C   0  0  0  0  0  0  0  0  0  0  0  0
  -30.1474   17.6401  -16.7847 C   0  0  0  0  0  0  0  0  0  0  0  0
  -29.6246   16.6892  -15.8857 C   0  0  0  0  0  0  0  0  0  0  0  0
  -28.7023   15.7826  -16.2266 N   0  0  0  0  0  0  0  0  0  0  0  0
  -29.8999   17.8923  -18.1235 N   0  0  0  0  0  0  0  0  0  0  0  0
  -30.6925   18.9002  -18.4048 C   0  0  0  0  0  0  0  0  0  0  0  0
  -31.4427   19.3257  -17.3441 N   0  0  0  0  0  0  0  0  0  0  0  0
  1  2  2  0  0  0  0
  1  6  1  0  0  0  0
  2  3  1  0  0  0  0
  3  4  2  0  0  0  0
  4  5  1  0  0  0  0
  4 10  1  0  0  0  0
  5  6  2  0  0  0  0
  5  8  1  0  0  0  0
  6  7  1  0  0  0  0
  8  9  1  0  0  0  0
  9 10  2  0  0  0  0
M  END
>  <CHROM.1>
-30.42099758,17.75366211,-16.29701294,1.13606819,-0.80982211,1.94993522

>  <Name>
ligand

>  <RI>
0

>  <Rbt.Current_Directory>
/home/itssahil/PROJECTS/Mol_Feturizer/New_Systems/rnas/4TZY

>  <Rbt.Executable>
rbdock ($Id: //depot/dev/client3/rdock/2013.1/src/exe/rbdock.cxx#4 $)

>  <Rbt.Library>
libRbt.so (2013.1, Build901 2013/11/27)

>  <Rbt.Parameter_File>
/export/apps/rDock/src/rDock_2013.1_src/data/scripts/dock_solv.prm

>  <Rbt.Receptor>
prm/blind_docking_80.prm

>  <SCORE>
-14.395

>  <SCORE.INTER>
-14.3951

>  <SCORE.INTER.CONST>
1

>  <SCORE.INTER.POLAR>
0

>  <SCORE.INTER.ROT>
0

>  <SCORE.INTER.SOLV>
7.98329

>  <SCORE.INTER.VDW>
-15.8579

>  <SCORE.INTER.norm>
-1.43951

>  <SCORE.INTRA>
0

>  <SCORE.INTRA.DIHEDRAL>
0

>  <SCORE.INTRA.DIHEDRAL.0>
0

>  <SCORE.INTRA.POLAR>
0

>  <SCORE.INTRA.POLAR.0>
0

>  <SCORE.INTRA.REPUL>
0

>  <SCORE.INTRA.REPUL.0>
0

>  <SCORE.INTRA.SOLV>
0

>  <SCORE.INTRA.SOLV.lig_0>
-23.8941

>  <SCORE.INTRA.VDW>
0

>  <SCORE.INTRA.VDW.0>
0

>  <SCORE.INTRA.norm>
0

>  <SCORE.RESTR>
9.7343e-05

>  <SCORE.RESTR.CAVITY>
9.7343e-05

>  <SCORE.RESTR.norm>
9.7343e-06

>  <SCORE.SYSTEM>
0

>  <SCORE.SYSTEM.CONST>
0

>  <SCORE.SYSTEM.DIHEDRAL>
0

>  <SCORE.SYSTEM.SOLV>
0

>  <SCORE.SYSTEM.norm>
0

>  <SCORE.heavy>
10

>  <SCORE.norm>
-1.4395

>  <RMSD>
0.482

$$$$
ligand
 OpenBabel11021811513D
libRbt.so/2013.1/901 2013/11/27
 10 11  0  0  0  0  0  0  0  0999 V2000
  -30.1185   16.6872  -14.6155 N   0  0  0  0  0  0  0  0  0  0  0  0
  -31.0028   17.6290  -14.2643 C   0  0  0  0  0  0  0  0  0  0  0  0
  -31.5339   18.5978  -15.0082 N   0  0  0  0  0  0  0  0  0  0  0  0
  -31.0622   18.5482  -16.2637 C   0  0  0  0  0  0  0  0  0  0  0  0
  -30.1513   17.6432  -16.7723 C   0  0  0  0  0  0  0  0  0  0  0  0
  -29.6631   16.6636  -15.8847 C   0  0  0  0  0  0  0  0  0  0  0  0
  -28.7791   15.7242  -16.2385 N   0  0  0  0  0  0  0  0  0  0  0  0
  -29.8996   17.8982  -18.1098 N   0  0  0  0  0  0  0  0  0  0  0  0
  -30.6525   18.9396  -18.3779 C   0  0  0  0  0  0  0  0  0  0  0  0
  -31.3806   19.3844  -17.3098 N   0  0  0  0  0  0  0  0  0  0  0  0
  1  2  2  0  0  0  0
  1  6  1  0  0  0  0
  2  3  1  0  0  0  0
  3  4  2  0  0  0  0
  4  5  1  0  0  0  0
  4 10  1  0  0  0  0
  5  6  2  0  0  0  0
  5  8  1  0  0  0  0
  6  7  1  0  0  0  0
  8  9  1  0  0  0  0
  9 10  2  0  0  0  0
M  END
>  <CHROM.1>
-30.41806549,17.76285081,-16.28231384,1.15247521,-0.84843063,1.97159573

>  <Name>
ligand

>  <RI>
0

>  <Rbt.Current_Directory>
/home/itssahil/PROJECTS/Mol_Feturizer/New_Systems/rnas/4TZY

>  <Rbt.Executable>
rbdock ($Id: //depot/dev/client3/rdock/2013.1/src/exe/rbdock.cxx#4 $)

>  <Rbt.Library>
libRbt.so (2013.1, Build901 2013/11/27)

>  <Rbt.Parameter_File>
/export/apps/rDock/src/rDock_2013.1_src/data/scripts/dock_solv.prm

>  <Rbt.Receptor>
prm/pocket_docking_4.prm

>  <SCORE>
-14.3958

>  <SCORE.INTER>
-14.3962

>  <SCORE.INTER.CONST>
1

>  <SCORE.INTER.POLAR>
0

>  <SCORE.INTER.ROT>
0

>  <SCORE.INTER.SOLV>
8.27032

>  <SCORE.INTER.VDW>
-15.9542

>  <SCORE.INTER.norm>
-1.43962

>  <SCORE.INTRA>
0

>  <SCORE.INTRA.DIHEDRAL>
0

>  <SCORE.INTRA.DIHEDRAL.0>
0

>  <SCORE.INTRA.POLAR>
0

>  <SCORE.INTRA.POLAR.0>
0

>  <SCORE.INTRA.REPUL>
0

>  <SCORE.INTRA.REPUL.0>
0

>  <SCORE.INTRA.SOLV>
0

>  <SCORE.INTRA.SOLV.lig_0>
-23.8941

>  <SCORE.INTRA.VDW>
0

>  <SCORE.INTRA.VDW.0>
0

>  <SCORE.INTRA.norm>
0

>  <SCORE.RESTR>
0.000412616

>  <SCORE.RESTR.CAVITY>
0.000412616

>  <SCORE.RESTR.norm>
4.12616e-05

>  <SCORE.SYSTEM>
0

>  <SCORE.SYSTEM.CONST>
0

>  <SCORE.SYSTEM.DIHEDRAL>
0

>  <SCORE.SYSTEM.SOLV>
0

>  <SCORE.SYSTEM.norm>
0

>  <SCORE.heavy>
10

>  <SCORE.norm>
-1.43958

>  <RMSD>
0.482

$$$$
ligand
 OpenBabel11021811513D
libRbt.so/2013.1/901 2013/11/27
 10 11  0  0  0  0  0  0  0  0999 V2000
  -30.1217   16.6808  -14.6209 N   0  0  0  0  0  0  0  0  0  0  0  0
  -31.0035   17.6246  -14.2686 C   0  0  0  0  0  0  0  0  0  0  0  0
  -31.5320   18.5957  -15.0112 N   0  0  0  0  0  0  0  0  0  0  0  0
  -31.0606   18.5462  -16.2669 C   0  0  0  0  0  0  0  0  0  0  0  0
  -30.1521   17.6393  -16.7766 C   0  0  0  0  0  0  0  0  0  0  0  0
  -29.6666   16.6574  -15.8901 C   0  0  0  0  0  0  0  0  0  0  0  0
  -28.7852   15.7160  -16.2451 N   0  0  0  0  0  0  0  0  0  0  0  0
  -29.8999   17.8951  -18.1138 N   0  0  0  0  0  0  0  0  0  0  0  0
  -30.6500   18.9389  -18.3806 C   0  0  0  0  0  0  0  0  0  0  0  0
  -31.3768   19.3845  -17.3120 N   0  0  0  0  0  0  0  0  0  0  0  0
  1  2  2  0  0  0  0
  1  6  1  0  0  0  0
  2  3  1  0  0  0  0
  3  4  2  0  0  0  0
  4  5  1  0  0  0  0
  4 10  1  0  0  0  0
  5  6  2  0  0  0  0
  5  8  1  0  0  0  0
  6  7  1  0  0  0  0
  8  9  1  0  0  0  0
  9 10  2  0  0  0  0
M  END
>  <CHROM.1>
-30.41856922,17.75915897,-16.28642679,1.15395961,-0.85096063,1.97383332

>  <Name>
ligand

>  <RI>
0

>  <Rbt.Current_Directory>
/home/itssahil/PROJECTS/Mol_Feturizer/New_Systems/rnas/4TZY

>  <Rbt.Executable>
rbdock ($Id: //depot/dev/client3/rdock/2013.1/src/exe/rbdock.cxx#4 $)

>  <Rbt.Library>
libRbt.so (2013.1, Build901 2013/11/27)

>  <Rbt.Parameter_File>
/export/apps/rDock/src/rDock_2013.1_src/data/scripts/dock_solv.prm

>  <Rbt.Receptor>
prm/pocket_docking_6.prm

>  <SCORE>
-14.3939

>  <SCORE.INTER>
-14.394

>  <SCORE.INTER.CONST>
1

>  <SCORE.INTER.POLAR>
0

>  <SCORE.INTER.ROT>
0

>  <SCORE.INTER.SOLV>
8.3113

>  <SCORE.INTER.VDW>
-15.9664

>  <SCORE.INTER.norm>
-1.4394

>  <SCORE.INTRA>
0

>  <SCORE.INTRA.DIHEDRAL>
0

>  <SCORE.INTRA.DIHEDRAL.0>
0

>  <SCORE.INTRA.POLAR>
0

>  <SCORE.INTRA.POLAR.0>
0

>  <SCORE.INTRA.REPUL>
0

>  <SCORE.INTRA.REPUL.0>
0

>  <SCORE.INTRA.SOLV>
0

>  <SCORE.INTRA.SOLV.lig_0>
-23.8941

>  <SCORE.INTRA.VDW>
0

>  <SCORE.INTRA.VDW.0>
0

>  <SCORE.INTRA.norm>
0

>  <SCORE.RESTR>
0.000116355

>  <SCORE.RESTR.CAVITY>
0.000116355

>  <SCORE.RESTR.norm>
1.16355e-05

>  <SCORE.SYSTEM>
0

>  <SCORE.SYSTEM.CONST>
0

>  <SCORE.SYSTEM.DIHEDRAL>
0

>  <SCORE.SYSTEM.SOLV>
0

>  <SCORE.SYSTEM.norm>
0

>  <SCORE.heavy>
10

>  <SCORE.norm>
-1.43939

>  <RMSD>
0.482

$$$$
ligand
 OpenBabel11021811513D
libRbt.so/2013.1/901 2013/11/27
 10 11  0  0  0  0  0  0  0  0999 V2000
  -30.1198   16.6830  -14.6211 N   0  0  0  0  0  0  0  0  0  0  0  0
  -31.0065   17.6227  -14.2703 C   0  0  0  0  0  0  0  0  0  0  0  0
  -31.5389   18.5909  -15.0141 N   0  0  0  0  0  0  0  0  0  0  0  0
  -31.0657   18.5430  -16.2692 C   0  0  0  0  0  0  0  0  0  0  0  0
  -30.1524   17.6401  -16.7774 C   0  0  0  0  0  0  0  0  0  0  0  0
  -29.6631   16.6611  -15.8898 C   0  0  0  0  0  0  0  0  0  0  0  0
  -28.7768   15.7237  -16.2433 N   0  0  0  0  0  0  0  0  0  0  0  0
  -29.8998   17.8964  -18.1144 N   0  0  0  0  0  0  0  0  0  0  0  0
  -30.6546   18.9364  -18.3827 C   0  0  0  0  0  0  0  0  0  0  0  0
  -31.3848   19.3791  -17.3151 N   0  0  0  0  0  0  0  0  0  0  0  0
  1  2  2  0  0  0  0
  1  6  1  0  0  0  0
  2  3  1  0  0  0  0
  3  4  2  0  0  0  0
  4  5  1  0  0  0  0
  4 10  1  0  0  0  0
  5  6  2  0  0  0  0
  5  8  1  0  0  0  0
  6  7  1  0  0  0  0
  8  9  1  0  0  0  0
  9 10  2  0  0  0  0
M  END
>  <CHROM.1>
-30.41994526,17.75896923,-16.28757994,1.15270116,-0.84608769,1.97234168

>  <Name>
ligand

>  <RI>
0

>  <Rbt.Current_Directory>
/home/itssahil/PROJECTS/Mol_Feturizer/New_Systems/rnas/4TZY

>  <Rbt.Executable>
rbdock ($Id: //depot/dev/client3/rdock/2013.1/src/exe/rbdock.cxx#4 $)

>  <Rbt.Library>
libRbt.so (2013.1, Build901 2013/11/27)

>  <Rbt.Parameter_File>
/export/apps/rDock/src/rDock_2013.1_src/data/scripts/dock_solv.prm

>  <Rbt.Receptor>
prm/pocket_docking_6.prm

>  <SCORE>
-14.3932

>  <SCORE.INTER>
-14.3933

>  <SCORE.INTER.CONST>
1

>  <SCORE.INTER.POLAR>
0

>  <SCORE.INTER.ROT>
0

>  <SCORE.INTER.SOLV>
8.27216

>  <SCORE.INTER.VDW>
-15.9529

>  <SCORE.INTER.norm>
-1.43933

>  <SCORE.INTRA>
0

>  <SCORE.INTRA.DIHEDRAL>
0

>  <SCORE.INTRA.DIHEDRAL.0>
0

>  <SCORE.INTRA.POLAR>
0

>  <SCORE.INTRA.POLAR.0>
0

>  <SCORE.INTRA.REPUL>
0

>  <SCORE.INTRA.REPUL.0>
0

>  <SCORE.INTRA.SOLV>
0

>  <SCORE.INTRA.SOLV.lig_0>
-23.8941

>  <SCORE.INTRA.VDW>
0

>  <SCORE.INTRA.VDW.0>
0

>  <SCORE.INTRA.norm>
0

>  <SCORE.RESTR>
0.000169925

>  <SCORE.RESTR.CAVITY>
0.000169925

>  <SCORE.RESTR.norm>
1.69925e-05

>  <SCORE.SYSTEM>
0

>  <SCORE.SYSTEM.CONST>
0

>  <SCORE.SYSTEM.DIHEDRAL>
0

>  <SCORE.SYSTEM.SOLV>
0

>  <SCORE.SYSTEM.norm>
0

>  <SCORE.heavy>
10

>  <SCORE.norm>
-1.43932

>  <RMSD>
0.482

$$$$
ligand
 OpenBabel11021811513D
libRbt.so/2013.1/901 2013/11/27
 10 11  0  0  0  0  0  0  0  0999 V2000
  -30.0256   16.7200  -14.6151 N   0  0  0  0  0  0  0  0  0  0  0  0
  -30.9323   17.6394  -14.2612 C   0  0  0  0  0  0  0  0  0  0  0  0
  -31.5042   18.5821  -15.0083 N   0  0  0  0  0  0  0  0  0  0  0  0
  -31.0513   18.5304  -16.2706 C   0  0  0  0  0  0  0  0  0  0  0  0
  -30.1217   17.6465  -16.7828 C   0  0  0  0  0  0  0  0  0  0  0  0
  -29.5901   16.6936  -15.8912 C   0  0  0  0  0  0  0  0  0  0  0  0
  -28.6839   15.7767  -16.2476 N   0  0  0  0  0  0  0  0  0  0  0  0
  -29.8993   17.8916  -18.1273 N   0  0  0  0  0  0  0  0  0  0  0  0
  -30.6875   18.9064  -18.3960 C   0  0  0  0  0  0  0  0  0  0  0  0
  -31.4116   19.3430  -17.3217 N   0  0  0  0  0  0  0  0  0  0  0  0
  1  2  2  0  0  0  0
  1  6  1  0  0  0  0
  2  3  1  0  0  0  0
  3  4  2  0  0  0  0
  4  5  1  0  0  0  0
  4 10  1  0  0  0  0
  5  6  2  0  0  0  0
  5  8  1  0  0  0  0
  6  7  1  0  0  0  0
  8  9  1  0  0  0  0
  9 10  2  0  0  0  0
M  END
>  <CHROM.1>
-30.38418000,17.76450042,-16.29002060,1.11333989,-0.82647300,1.92978301

>  <Name>
ligand

>  <RI>
0

>  <Rbt.Current_Directory>
/home/itssahil/PROJECTS/Mol_Feturizer/New_Systems/rnas/4TZY

>  <Rbt.Executable>
rbdock ($Id: //depot/dev/client3/rdock/2013.1/src/exe/rbdock.cxx#4 $)

>  <Rbt.Library>
libRbt.so (2013.1, Build901 2013/11/27)

>  <Rbt.Parameter_File>
/export/apps/rDock/src/rDock_2013.1_src/data/scripts/dock_solv.prm

>  <Rbt.Receptor>
prm/pocket_docking_7.prm

>  <SCORE>
-14.3048

>  <SCORE.INTER>
-14.3055

>  <SCORE.INTER.CONST>
1

>  <SCORE.INTER.POLAR>
0

>  <SCORE.INTER.ROT>
0

>  <SCORE.INTER.SOLV>
8.00241

>  <SCORE.INTER.VDW>
-15.8045

>  <SCORE.INTER.norm>
-1.43055

>  <SCORE.INTRA>
0

>  <SCORE.INTRA.DIHEDRAL>
0

>  <SCORE.INTRA.DIHEDRAL.0>
0

>  <SCORE.INTRA.POLAR>
0

>  <SCORE.INTRA.POLAR.0>
0

>  <SCORE.INTRA.REPUL>
0

>  <SCORE.INTRA.REPUL.0>
0

>  <SCORE.INTRA.SOLV>
0

>  <SCORE.INTRA.SOLV.lig_0>
-23.8941

>  <SCORE.INTRA.VDW>
0

>  <SCORE.INTRA.VDW.0>
0

>  <SCORE.INTRA.norm>
0

>  <SCORE.RESTR>
0.000684364

>  <SCORE.RESTR.CAVITY>
0.000684364

>  <SCORE.RESTR.norm>
6.84364e-05

>  <SCORE.SYSTEM>
0

>  <SCORE.SYSTEM.CONST>
0

>  <SCORE.SYSTEM.DIHEDRAL>
0

>  <SCORE.SYSTEM.SOLV>
0

>  <SCORE.SYSTEM.norm>
0

>  <SCORE.heavy>
10

>  <SCORE.norm>
-1.43048

>  <RMSD>
0.482

$$$$
ligand
 OpenBabel11021811513D
libRbt.so/2013.1/901 2013/11/27
 10 11  0  0  0  0  0  0  0  0999 V2000
  -30.0842   16.7115  -14.6088 N   0  0  0  0  0  0  0  0  0  0  0  0
  -31.0153   17.6132  -14.2735 C   0  0  0  0  0  0  0  0  0  0  0  0
  -31.5872   18.5475  -15.0311 N   0  0  0  0  0  0  0  0  0  0  0  0
  -31.1048   18.5076  -16.2829 C   0  0  0  0  0  0  0  0  0  0  0  0
  -30.1478   17.6424  -16.7758 C   0  0  0  0  0  0  0  0  0  0  0  0
  -29.6193   16.6967  -15.8746 C   0  0  0  0  0  0  0  0  0  0  0  0
  -28.6886   15.7975  -16.2126 N   0  0  0  0  0  0  0  0  0  0  0  0
  -29.8992   17.8953  -18.1143 N   0  0  0  0  0  0  0  0  0  0  0  0
  -30.6995   18.8963  -18.3984 C   0  0  0  0  0  0  0  0  0  0  0  0
  -31.4557   19.3166  -17.3400 N   0  0  0  0  0  0  0  0  0  0  0  0
  1  2  2  0  0  0  0
  1  6  1  0  0  0  0
  2  3  1  0  0  0  0
  3  4  2  0  0  0  0
  4  5  1  0  0  0  0
  4 10  1  0  0  0  0
  5  6  2  0  0  0  0
  5  8  1  0  0  0  0
  6  7  1  0  0  0  0
  8  9  1  0  0  0  0
  9 10  2  0  0  0  0
M  END
>  <CHROM.1>
-30.42347008,17.75411384,-16.28891229,1.13481615,-0.80122797,1.94807332

>  <Name>
ligand

>  <RI>
0

>  <Rbt.Current_Directory>
/home/itssahil/PROJECTS/Mol_Feturizer/New_Systems/rnas/4TZY

>  <Rbt.Executable>
rbdock ($Id: //depot/dev/client3/rdock/2013.1/src/exe/rbdock.cxx#4 $)

>  <Rbt.Library>
libRbt.so (2013.1, Build901 2013/11/27)

>  <Rbt.Parameter_File>
/export/apps/rDock/src/rDock_2013.1_src/data/scripts/dock_solv.prm

>  <Rbt.Receptor>
prm/pocket_docking_8.prm

>  <SCORE>
-14.3966

>  <SCORE.INTER>
-14.3973

>  <SCORE.INTER.CONST>
1

>  <SCORE.INTER.POLAR>
0

>  <SCORE.INTER.ROT>
0

>  <SCORE.INTER.SOLV>
7.91126

>  <SCORE.INTER.VDW>
-15.8353

>  <SCORE.INTER.norm>
-1.43973

>  <SCORE.INTRA>
0

>  <SCORE.INTRA.DIHEDRAL>
0

>  <SCORE.INTRA.DIHEDRAL.0>
0

>  <SCORE.INTRA.POLAR>
0

>  <SCORE.INTRA.POLAR.0>
0

>  <SCORE.INTRA.REPUL>
0

>  <SCORE.INTRA.REPUL.0>
0

>  <SCORE.INTRA.SOLV>
0

>  <SCORE.INTRA.SOLV.lig_0>
-23.8941

>  <SCORE.INTRA.VDW>
0

>  <SCORE.INTRA.VDW.0>
0

>  <SCORE.INTRA.norm>
0

>  <SCORE.RESTR>
0.000785307

>  <SCORE.RESTR.CAVITY>
0.000785307

>  <SCORE.RESTR.norm>
7.85307e-05

>  <SCORE.SYSTEM>
0

>  <SCORE.SYSTEM.CONST>
0

>  <SCORE.SYSTEM.DIHEDRAL>
0

>  <SCORE.SYSTEM.SOLV>
0

>  <SCORE.SYSTEM.norm>
0

>  <SCORE.heavy>
10

>  <SCORE.norm>
-1.43966

>  <RMSD>
0.482

$$$$
ligand
 OpenBabel11021811513D
libRbt.so/2013.1/901 2013/11/27
 10 11  0  0  0  0  0  0  0  0999 V2000
  -30.0864   16.7074  -14.6152 N   0  0  0  0  0  0  0  0  0  0  0  0
  -31.0146   17.6117  -14.2787 C   0  0  0  0  0  0  0  0  0  0  0  0
  -31.5842   18.5482  -15.0353 N   0  0  0  0  0  0  0  0  0  0  0  0
  -31.1026   18.5079  -16.2874 C   0  0  0  0  0  0  0  0  0  0  0  0
  -30.1485   17.6401  -16.7815 C   0  0  0  0  0  0  0  0  0  0  0  0
  -29.6223   16.6922  -15.8813 C   0  0  0  0  0  0  0  0  0  0  0  0
  -28.6945   15.7904  -16.2205 N   0  0  0  0  0  0  0  0  0  0  0  0
  -29.9000   17.8933  -18.1200 N   0  0  0  0  0  0  0  0  0  0  0  0
  -30.6974   18.8969  -18.4029 C   0  0  0  0  0  0  0  0  0  0  0  0
  -31.4518   19.3187  -17.3436 N   0  0  0  0  0  0  0  0  0  0  0  0
  1  2  2  0  0  0  0
  1  6  1  0  0  0  0
  2  3  1  0  0  0  0
  3  4  2  0  0  0  0
  4  5  1  0  0  0  0
  4 10  1  0  0  0  0
  5  6  2  0  0  0  0
  5  8  1  0  0  0  0
  6  7  1  0  0  0  0
  8  9  1  0  0  0  0
  9 10  2  0  0  0  0
M  END
>  <CHROM.1>
-30.42357411,17.75229564,-16.29435742,1.13560057,-0.80425081,1.94936145

>  <Name>
ligand

>  <RI>
0

>  <Rbt.Current_Directory>
/home/itssahil/PROJECTS/Mol_Feturizer/New_Systems/rnas/4TZY

>  <Rbt.Executable>
rbdock ($Id: //depot/dev/client3/rdock/2013.1/src/exe/rbdock.cxx#4 $)

>  <Rbt.Library>
libRbt.so (2013.1, Build901 2013/11/27)

>  <Rbt.Parameter_File>
/export/apps/rDock/src/rDock_2013.1_src/data/scripts/dock_solv.prm

>  <Rbt.Receptor>
prm/pocket_docking_8.prm

>  <SCORE>
-14.3934

>  <SCORE.INTER>
-14.3934

>  <SCORE.INTER.CONST>
1

>  <SCORE.INTER.POLAR>
0

>  <SCORE.INTER.ROT>
0

>  <SCORE.INTER.SOLV>
7.94589

>  <SCORE.INTER.VDW>
-15.8442

>  <SCORE.INTER.norm>
-1.43934

>  <SCORE.INTRA>
0

>  <SCORE.INTRA.DIHEDRAL>
0

>  <SCORE.INTRA.DIHEDRAL.0>
0

>  <SCORE.INTRA.POLAR>
0

>  <SCORE.INTRA.POLAR.0>
0

>  <SCORE.INTRA.REPUL>
0

>  <SCORE.INTRA.REPUL.0>
0

>  <SCORE.INTRA.SOLV>
0

>  <SCORE.INTRA.SOLV.lig_0>
-23.8941

>  <SCORE.INTRA.VDW>
0

>  <SCORE.INTRA.VDW.0>
0

>  <SCORE.INTRA.norm>
0

>  <SCORE.RESTR>
0

>  <SCORE.RESTR.CAVITY>
0

>  <SCORE.RESTR.norm>
0

>  <SCORE.SYSTEM>
0

>  <SCORE.SYSTEM.CONST>
0

>  <SCORE.SYSTEM.DIHEDRAL>
0

>  <SCORE.SYSTEM.SOLV>
0

>  <SCORE.SYSTEM.norm>
0

>  <SCORE.heavy>
10

>  <SCORE.norm>
-1.43934

>  <RMSD>
0.482

$$$$
ligand
 OpenBabel11021811513D
libRbt.so/2013.1/901 2013/11/27
 10 11  0  0  0  0  0  0  0  0999 V2000
  -30.0892   16.7044  -14.6200 N   0  0  0  0  0  0  0  0  0  0  0  0
  -31.0122   17.6132  -14.2818 C   0  0  0  0  0  0  0  0  0  0  0  0
  -31.5775   18.5535  -15.0370 N   0  0  0  0  0  0  0  0  0  0  0  0
  -31.0974   18.5117  -16.2896 C   0  0  0  0  0  0  0  0  0  0  0  0
  -30.1484   17.6393  -16.7854 C   0  0  0  0  0  0  0  0  0  0  0  0
  -29.6264   16.6878  -15.8866 C   0  0  0  0  0  0  0  0  0  0  0  0
  -28.7038   15.7813  -16.2275 N   0  0  0  0  0  0  0  0  0  0  0  0
  -29.8998   17.8923  -18.1239 N   0  0  0  0  0  0  0  0  0  0  0  0
  -30.6922   18.9004  -18.4052 C   0  0  0  0  0  0  0  0  0  0  0  0
  -31.4432   19.3253  -17.3448 N   0  0  0  0  0  0  0  0  0  0  0  0
  1  2  2  0  0  0  0
  1  6  1  0  0  0  0
  2  3  1  0  0  0  0
  3  4  2  0  0  0  0
  4  5  1  0  0  0  0
  4 10  1  0  0  0  0
  5  6  2  0  0  0  0
  5  8  1  0  0  0  0
  6  7  1  0  0  0  0
  8  9  1  0  0  0  0
  9 10  2  0  0  0  0
M  END
>  <CHROM.1>
-30.42237533,17.75250024,-16.29791106,1.13716515,-0.80956619,1.95138044

>  <Name>
ligand

>  <RI>
0

>  <Rbt.Current_Directory>
/home/itssahil/PROJECTS/Mol_Feturizer/New_Systems/rnas/4TZY

>  <Rbt.Executable>
rbdock ($Id: //depot/dev/client3/rdock/2013.1/src/exe/rbdock.cxx#4 $)

>  <Rbt.Library>
libRbt.so (2013.1, Build901 2013/11/27)

>  <Rbt.Parameter_File>
/export/apps/rDock/src/rDock_2013.1_src/data/scripts/dock_solv.prm

>  <Rbt.Receptor>
prm/pocket_docking_8.prm

>  <SCORE>
-14.3935

>  <SCORE.INTER>
-14.3937

>  <SCORE.INTER.CONST>
1

>  <SCORE.INTER.POLAR>
0

>  <SCORE.INTER.ROT>
0

>  <SCORE.INTER.SOLV>
7.98961

>  <SCORE.INTER.VDW>
-15.859

>  <SCORE.INTER.norm>
-1.43937

>  <SCORE.INTRA>
0

>  <SCORE.INTRA.DIHEDRAL>
0

>  <SCORE.INTRA.DIHEDRAL.0>
0

>  <SCORE.INTRA.POLAR>
0

>  <SCORE.INTRA.POLAR.0>
0

>  <SCORE.INTRA.REPUL>
0

>  <SCORE.INTRA.REPUL.0>
0

>  <SCORE.INTRA.SOLV>
0

>  <SCORE.INTRA.SOLV.lig_0>
-23.8941

>  <SCORE.INTRA.VDW>
0

>  <SCORE.INTRA.VDW.0>
0

>  <SCORE.INTRA.norm>
0

>  <SCORE.RESTR>
0.000182085

>  <SCORE.RESTR.CAVITY>
0.000182085

>  <SCORE.RESTR.norm>
1.82085e-05

>  <SCORE.SYSTEM>
0

>  <SCORE.SYSTEM.CONST>
0

>  <SCORE.SYSTEM.DIHEDRAL>
0

>  <SCORE.SYSTEM.SOLV>
0

>  <SCORE.SYSTEM.norm>
0

>  <SCORE.heavy>
10

>  <SCORE.norm>
-1.43935

>  <RMSD>
0.482

$$$$
ligand
 OpenBabel11021811513D
libRbt.so/2013.1/901 2013/11/27
 10 11  0  0  0  0  0  0  0  0999 V2000
  -30.0865   16.7044  -14.6210 N   0  0  0  0  0  0  0  0  0  0  0  0
  -31.0107   17.6121  -14.2827 C   0  0  0  0  0  0  0  0  0  0  0  0
  -31.5774   18.5515  -15.0380 N   0  0  0  0  0  0  0  0  0  0  0  0
  -31.0977   18.5100  -16.2907 C   0  0  0  0  0  0  0  0  0  0  0  0
  -30.1477   17.6387  -16.7867 C   0  0  0  0  0  0  0  0  0  0  0  0
  -29.6242   16.6881  -15.8878 C   0  0  0  0  0  0  0  0  0  0  0  0
  -28.7005   15.7828  -16.2288 N   0  0  0  0  0  0  0  0  0  0  0  0
  -29.8999   17.8918  -18.1253 N   0  0  0  0  0  0  0  0  0  0  0  0
  -30.6937   18.8988  -18.4065 C   0  0  0  0  0  0  0  0  0  0  0  0
  -31.4449   19.3229  -17.3460 N   0  0  0  0  0  0  0  0  0  0  0  0
  1  2  2  0  0  0  0
  1  6  1  0  0  0  0
  2  3  1  0  0  0  0
  3  4  2  0  0  0  0
  4  5  1  0  0  0  0
  4 10  1  0  0  0  0
  5  6  2  0  0  0  0
  5  8  1  0  0  0  0
  6  7  1  0  0  0  0
  8  9  1  0  0  0  0
  9 10  2  0  0  0  0
M  END
>  <CHROM.1>
-30.42168556,17.75171071,-16.29909411,1.13599669,-0.80848995,1.95030374

>  <Name>
ligand

>  <RI>
0

>  <Rbt.Current_Directory>
/home/itssahil/PROJECTS/Mol_Feturizer/New_Systems/rnas/4TZY

>  <Rbt.Executable>
rbdock ($Id: //depot/dev/client3/rdock/2013.1/src/exe/rbdock.cxx#4 $)

>  <Rbt.Library>
libRbt.so (2013.1, Build901 2013/11/27)

>  <Rbt.Parameter_File>
/export/apps/rDock/src/rDock_2013.1_src/data/scripts/dock_solv.prm

>  <Rbt.Receptor>
prm/pocket_docking_8.prm

>  <SCORE>
-14.3939

>  <SCORE.INTER>
-14.3939

>  <SCORE.INTER.CONST>
1

>  <SCORE.INTER.POLAR>
0

>  <SCORE.INTER.ROT>
0

>  <SCORE.INTER.SOLV>
7.98179

>  <SCORE.INTER.VDW>
-15.8565

>  <SCORE.INTER.norm>
-1.43939

>  <SCORE.INTRA>
0

>  <SCORE.INTRA.DIHEDRAL>
0

>  <SCORE.INTRA.DIHEDRAL.0>
0

>  <SCORE.INTRA.POLAR>
0

>  <SCORE.INTRA.POLAR.0>
0

>  <SCORE.INTRA.REPUL>
0

>  <SCORE.INTRA.REPUL.0>
0

>  <SCORE.INTRA.SOLV>
0

>  <SCORE.INTRA.SOLV.lig_0>
-23.8941

>  <SCORE.INTRA.VDW>
0

>  <SCORE.INTRA.VDW.0>
0

>  <SCORE.INTRA.norm>
0

>  <SCORE.RESTR>
5.16035e-05

>  <SCORE.RESTR.CAVITY>
5.16035e-05

>  <SCORE.RESTR.norm>
5.16035e-06

>  <SCORE.SYSTEM>
0

>  <SCORE.SYSTEM.CONST>
0

>  <SCORE.SYSTEM.DIHEDRAL>
0

>  <SCORE.SYSTEM.SOLV>
0

>  <SCORE.SYSTEM.norm>
0

>  <SCORE.heavy>
10

>  <SCORE.norm>
-1.43939

>  <RMSD>
0.482

$$$$
ligand
 OpenBabel11021811513D
libRbt.so/2013.1/901 2013/11/27
 10 11  0  0  0  0  0  0  0  0999 V2000
  -30.1272   16.6798  -14.6132 N   0  0  0  0  0  0  0  0  0  0  0  0
  -31.0147   17.6189  -14.2627 C   0  0  0  0  0  0  0  0  0  0  0  0
  -31.5455   18.5884  -15.0059 N   0  0  0  0  0  0  0  0  0  0  0  0
  -31.0698   18.5427  -16.2600 C   0  0  0  0  0  0  0  0  0  0  0  0
  -30.1553   17.6408  -16.7679 C   0  0  0  0  0  0  0  0  0  0  0  0
  -29.6679   16.6602  -15.8811 C   0  0  0  0  0  0  0  0  0  0  0  0
  -28.7808   15.7235  -16.2343 N   0  0  0  0  0  0  0  0  0  0  0  0
  -29.9000   17.8994  -18.1040 N   0  0  0  0  0  0  0  0  0  0  0  0
  -30.6543   18.9398  -18.3720 C   0  0  0  0  0  0  0  0  0  0  0  0
  -31.3867   19.3806  -17.3052 N   0  0  0  0  0  0  0  0  0  0  0  0
  1  2  2  0  0  0  0
  1  6  1  0  0  0  0
  2  3  1  0  0  0  0
  3  4  2  0  0  0  0
  4  5  1  0  0  0  0
  4 10  1  0  0  0  0
  5  6  2  0  0  0  0
  5  8  1  0  0  0  0
  6  7  1  0  0  0  0
  8  9  1  0  0  0  0
  9 10  2  0  0  0  0
M  END
>  <CHROM.1>
-30.42389758,17.75874009,-16.27847098,1.15556825,-0.84524101,1.97623692

>  <Name>
ligand

>  <RI>
0

>  <Rbt.Current_Directory>
/home/itssahil/PROJECTS/Mol_Feturizer/New_Systems/rnas/4TZY

>  <Rbt.Executable>
rbdock ($Id: //depot/dev/client3/rdock/2013.1/src/exe/rbdock.cxx#4 $)

>  <Rbt.Library>
libRbt.so (2013.1, Build901 2013/11/27)

>  <Rbt.Parameter_File>
/export/apps/rDock/src/rDock_2013.1_src/data/scripts/dock_solv.prm

>  <Rbt.Receptor>
prm/blind_docking_100.prm

>  <SCORE>
-14.3918

>  <SCORE.INTER>
-14.3918

>  <SCORE.INTER.CONST>
1

>  <SCORE.INTER.POLAR>
0

>  <SCORE.INTER.ROT>
0

>  <SCORE.INTER.SOLV>
8.26772

>  <SCORE.INTER.VDW>
-15.9505

>  <SCORE.INTER.norm>
-1.43918

>  <SCORE.INTRA>
0

>  <SCORE.INTRA.DIHEDRAL>
0

>  <SCORE.INTRA.DIHEDRAL.0>
0

>  <SCORE.INTRA.POLAR>
0

>  <SCORE.INTRA.POLAR.0>
0

>  <SCORE.INTRA.REPUL>
0

>  <SCORE.INTRA.REPUL.0>
0

>  <SCORE.INTRA.SOLV>
0

>  <SCORE.INTRA.SOLV.lig_0>
-23.8941

>  <SCORE.INTRA.VDW>
0

>  <SCORE.INTRA.VDW.0>
0

>  <SCORE.INTRA.norm>
0

>  <SCORE.RESTR>
1.39666e-05

>  <SCORE.RESTR.CAVITY>
1.39666e-05

>  <SCORE.RESTR.norm>
1.39666e-06

>  <SCORE.SYSTEM>
0

>  <SCORE.SYSTEM.CONST>
0

>  <SCORE.SYSTEM.DIHEDRAL>
0

>  <SCORE.SYSTEM.SOLV>
0

>  <SCORE.SYSTEM.norm>
0

>  <SCORE.heavy>
10

>  <SCORE.norm>
-1.43918

>  <RMSD>
0.483

$$$$
ligand
 OpenBabel11021811513D
libRbt.so/2013.1/901 2013/11/27
 10 11  0  0  0  0  0  0  0  0999 V2000
  -30.0857   16.6983  -14.6330 N   0  0  0  0  0  0  0  0  0  0  0  0
  -30.9968   17.6170  -14.2890 C   0  0  0  0  0  0  0  0  0  0  0  0
  -31.5550   18.5648  -15.0401 N   0  0  0  0  0  0  0  0  0  0  0  0
  -31.0815   18.5194  -16.2951 C   0  0  0  0  0  0  0  0  0  0  0  0
  -30.1449   17.6370  -16.7968 C   0  0  0  0  0  0  0  0  0  0  0  0
  -29.6293   16.6783  -15.9019 C   0  0  0  0  0  0  0  0  0  0  0  0
  -28.7187   15.7620  -16.2486 N   0  0  0  0  0  0  0  0  0  0  0  0
  -29.9000   17.8893  -18.1361 N   0  0  0  0  0  0  0  0  0  0  0  0
  -30.6823   18.9067  -18.4120 C   0  0  0  0  0  0  0  0  0  0  0  0
  -31.4233   19.3384  -17.3474 N   0  0  0  0  0  0  0  0  0  0  0  0
  1  2  2  0  0  0  0
  1  6  1  0  0  0  0
  2  3  1  0  0  0  0
  3  4  2  0  0  0  0
  4  5  1  0  0  0  0
  4 10  1  0  0  0  0
  5  6  2  0  0  0  0
  5  8  1  0  0  0  0
  6  7  1  0  0  0  0
  8  9  1  0  0  0  0
  9 10  2  0  0  0  0
M  END
>  <CHROM.1>
-30.41521606,17.75264611,-16.30777920,1.13668422,-0.82188611,1.95252064

>  <Name>
ligand

>  <RI>
0

>  <Rbt.Current_Directory>
/home/itssahil/PROJECTS/Mol_Feturizer/New_Systems/rnas/4TZY

>  <Rbt.Executable>
rbdock ($Id: //depot/dev/client3/rdock/2013.1/src/exe/rbdock.cxx#4 $)

>  <Rbt.Library>
libRbt.so (2013.1, Build901 2013/11/27)

>  <Rbt.Parameter_File>
/export/apps/rDock/src/rDock_2013.1_src/data/scripts/dock_solv.prm

>  <Rbt.Receptor>
prm/blind_docking_60.prm

>  <SCORE>
-14.3984

>  <SCORE.INTER>
-14.3984

>  <SCORE.INTER.CONST>
1

>  <SCORE.INTER.POLAR>
0

>  <SCORE.INTER.ROT>
0

>  <SCORE.INTER.SOLV>
8.07918

>  <SCORE.INTER.VDW>
-15.892

>  <SCORE.INTER.norm>
-1.43984

>  <SCORE.INTRA>
0

>  <SCORE.INTRA.DIHEDRAL>
0

>  <SCORE.INTRA.DIHEDRAL.0>
0

>  <SCORE.INTRA.POLAR>
0

>  <SCORE.INTRA.POLAR.0>
0

>  <SCORE.INTRA.REPUL>
0

>  <SCORE.INTRA.REPUL.0>
0

>  <SCORE.INTRA.SOLV>
0

>  <SCORE.INTRA.SOLV.lig_0>
-23.8941

>  <SCORE.INTRA.VDW>
0

>  <SCORE.INTRA.VDW.0>
0

>  <SCORE.INTRA.norm>
0

>  <SCORE.RESTR>
0

>  <SCORE.RESTR.CAVITY>
0

>  <SCORE.RESTR.norm>
0

>  <SCORE.SYSTEM>
0

>  <SCORE.SYSTEM.CONST>
0

>  <SCORE.SYSTEM.DIHEDRAL>
0

>  <SCORE.SYSTEM.SOLV>
0

>  <SCORE.SYSTEM.norm>
0

>  <SCORE.heavy>
10

>  <SCORE.norm>
-1.43984

>  <RMSD>
0.483

$$$$
ligand
 OpenBabel11021811513D
libRbt.so/2013.1/901 2013/11/27
 10 11  0  0  0  0  0  0  0  0999 V2000
  -30.0860   16.6956  -14.6405 N   0  0  0  0  0  0  0  0  0  0  0  0
  -30.9901   17.6202  -14.2938 C   0  0  0  0  0  0  0  0  0  0  0  0
  -31.5436   18.5722  -15.0430 N   0  0  0  0  0  0  0  0  0  0  0  0
  -31.0733   18.5245  -16.2991 C   0  0  0  0  0  0  0  0  0  0  0  0
  -30.1438   17.6361  -16.8035 C   0  0  0  0  0  0  0  0  0  0  0  0
  -29.6327   16.6734  -15.9104 C   0  0  0  0  0  0  0  0  0  0  0  0
  -28.7290   15.7512  -16.2598 N   0  0  0  0  0  0  0  0  0  0  0  0
  -29.9003   17.8876  -18.1432 N   0  0  0  0  0  0  0  0  0  0  0  0
  -30.6762   18.9104  -18.4167 C   0  0  0  0  0  0  0  0  0  0  0  0
  -31.4119   19.3465  -17.3501 N   0  0  0  0  0  0  0  0  0  0  0  0
  1  2  2  0  0  0  0
  1  6  1  0  0  0  0
  2  3  1  0  0  0  0
  3  4  2  0  0  0  0
  4  5  1  0  0  0  0
  4 10  1  0  0  0  0
  5  6  2  0  0  0  0
  5  8  1  0  0  0  0
  6  7  1  0  0  0  0
  8  9  1  0  0  0  0
  9 10  2  0  0  0  0
M  END
>  <CHROM.1>
-30.41220098,17.75325183,-16.31382022,1.13728420,-0.82898242,1.95359065

>  <Name>
ligand

>  <RI>
0

>  <Rbt.Current_Directory>
/home/itssahil/PROJECTS/Mol_Feturizer/New_Systems/rnas/4TZY

>  <Rbt.Executable>
rbdock ($Id: //depot/dev/client3/rdock/2013.1/src/exe/rbdock.cxx#4 $)

>  <Rbt.Library>
libRbt.so (2013.1, Build901 2013/11/27)

>  <Rbt.Parameter_File>
/export/apps/rDock/src/rDock_2013.1_src/data/scripts/dock_solv.prm

>  <Rbt.Receptor>
prm/blind_docking_60.prm

>  <SCORE>
-14.4004

>  <SCORE.INTER>
-14.4004

>  <SCORE.INTER.CONST>
1

>  <SCORE.INTER.POLAR>
0

>  <SCORE.INTER.ROT>
0

>  <SCORE.INTER.SOLV>
8.13095

>  <SCORE.INTER.VDW>
-15.9106

>  <SCORE.INTER.norm>
-1.44004

>  <SCORE.INTRA>
0

>  <SCORE.INTRA.DIHEDRAL>
0

>  <SCORE.INTRA.DIHEDRAL.0>
0

>  <SCORE.INTRA.POLAR>
0

>  <SCORE.INTRA.POLAR.0>
0

>  <SCORE.INTRA.REPUL>
0

>  <SCORE.INTRA.REPUL.0>
0

>  <SCORE.INTRA.SOLV>
0

>  <SCORE.INTRA.SOLV.lig_0>
-23.8941

>  <SCORE.INTRA.VDW>
0

>  <SCORE.INTRA.VDW.0>
0

>  <SCORE.INTRA.norm>
0

>  <SCORE.RESTR>
0

>  <SCORE.RESTR.CAVITY>
0

>  <SCORE.RESTR.norm>
0

>  <SCORE.SYSTEM>
0

>  <SCORE.SYSTEM.CONST>
0

>  <SCORE.SYSTEM.DIHEDRAL>
0

>  <SCORE.SYSTEM.SOLV>
0

>  <SCORE.SYSTEM.norm>
0

>  <SCORE.heavy>
10

>  <SCORE.norm>
-1.44004

>  <RMSD>
0.483

$$$$
ligand
 OpenBabel11021811513D
libRbt.so/2013.1/901 2013/11/27
 10 11  0  0  0  0  0  0  0  0999 V2000
  -30.0657   16.7284  -14.6053 N   0  0  0  0  0  0  0  0  0  0  0  0
  -31.0011   17.6263  -14.2718 C   0  0  0  0  0  0  0  0  0  0  0  0
  -31.5812   18.5530  -15.0326 N   0  0  0  0  0  0  0  0  0  0  0  0
  -31.1029   18.5091  -16.2858 C   0  0  0  0  0  0  0  0  0  0  0  0
  -30.1423   17.6468  -16.7773 C   0  0  0  0  0  0  0  0  0  0  0  0
  -29.6051   16.7094  -15.8727 C   0  0  0  0  0  0  0  0  0  0  0  0
  -28.6701   15.8139  -16.2089 N   0  0  0  0  0  0  0  0  0  0  0  0
  -29.9000   17.8938  -18.1180 N   0  0  0  0  0  0  0  0  0  0  0  0
  -30.7073   18.8884  -18.4049 C   0  0  0  0  0  0  0  0  0  0  0  0
  -31.4623   19.3100  -17.3461 N   0  0  0  0  0  0  0  0  0  0  0  0
  1  2  2  0  0  0  0
  1  6  1  0  0  0  0
  2  3  1  0  0  0  0
  3  4  2  0  0  0  0
  4  5  1  0  0  0  0
  4 10  1  0  0  0  0
  5  6  2  0  0  0  0
  5  8  1  0  0  0  0
  6  7  1  0  0  0  0
  8  9  1  0  0  0  0
  9 10  2  0  0  0  0
M  END
>  <CHROM.1>
-30.41704413,17.75960939,-16.29002368,1.12703430,-0.79688529,1.93692825

>  <Name>
ligand

>  <RI>
0

>  <Rbt.Current_Directory>
/home/itssahil/PROJECTS/Mol_Feturizer/New_Systems/rnas/4TZY

>  <Rbt.Executable>
rbdock ($Id: //depot/dev/client3/rdock/2013.1/src/exe/rbdock.cxx#4 $)

>  <Rbt.Library>
libRbt.so (2013.1, Build901 2013/11/27)

>  <Rbt.Parameter_File>
/export/apps/rDock/src/rDock_2013.1_src/data/scripts/dock_solv.prm

>  <Rbt.Receptor>
prm/blind_docking_60.prm

>  <SCORE>
-14.3649

>  <SCORE.INTER>
-14.365

>  <SCORE.INTER.CONST>
1

>  <SCORE.INTER.POLAR>
0

>  <SCORE.INTER.ROT>
0

>  <SCORE.INTER.SOLV>
7.84452

>  <SCORE.INTER.VDW>
-15.7915

>  <SCORE.INTER.norm>
-1.4365

>  <SCORE.INTRA>
0

>  <SCORE.INTRA.DIHEDRAL>
0

>  <SCORE.INTRA.DIHEDRAL.0>
0

>  <SCORE.INTRA.POLAR>
0

>  <SCORE.INTRA.POLAR.0>
0

>  <SCORE.INTRA.REPUL>
0

>  <SCORE.INTRA.REPUL.0>
0

>  <SCORE.INTRA.SOLV>
0

>  <SCORE.INTRA.SOLV.lig_0>
-23.8941

>  <SCORE.INTRA.VDW>
0

>  <SCORE.INTRA.VDW.0>
0

>  <SCORE.INTRA.norm>
0

>  <SCORE.RESTR>
2.75775e-05

>  <SCORE.RESTR.CAVITY>
2.75775e-05

>  <SCORE.RESTR.norm>
2.75775e-06

>  <SCORE.SYSTEM>
0

>  <SCORE.SYSTEM.CONST>
0

>  <SCORE.SYSTEM.DIHEDRAL>
0

>  <SCORE.SYSTEM.SOLV>
0

>  <SCORE.SYSTEM.norm>
0

>  <SCORE.heavy>
10

>  <SCORE.norm>
-1.43649

>  <RMSD>
0.483

$$$$
ligand
 OpenBabel11021811513D
libRbt.so/2013.1/901 2013/11/27
 10 11  0  0  0  0  0  0  0  0999 V2000
  -30.0576   16.7412  -14.6011 N   0  0  0  0  0  0  0  0  0  0  0  0
  -30.9975   17.6355  -14.2707 C   0  0  0  0  0  0  0  0  0  0  0  0
  -31.5829   18.5561  -15.0349 N   0  0  0  0  0  0  0  0  0  0  0  0
  -31.1050   18.5096  -16.2882 C   0  0  0  0  0  0  0  0  0  0  0  0
  -30.1403   17.6504  -16.7767 C   0  0  0  0  0  0  0  0  0  0  0  0
  -29.5977   16.7194  -15.8687 C   0  0  0  0  0  0  0  0  0  0  0  0
  -28.6583   15.8275  -16.2019 N   0  0  0  0  0  0  0  0  0  0  0  0
  -29.9000   17.8932  -18.1186 N   0  0  0  0  0  0  0  0  0  0  0  0
  -30.7126   18.8824  -18.4090 C   0  0  0  0  0  0  0  0  0  0  0  0
  -31.4693   19.3044  -17.3515 N   0  0  0  0  0  0  0  0  0  0  0  0
  1  2  2  0  0  0  0
  1  6  1  0  0  0  0
  2  3  1  0  0  0  0
  3  4  2  0  0  0  0
  4  5  1  0  0  0  0
  4 10  1  0  0  0  0
  5  6  2  0  0  0  0
  5  8  1  0  0  0  0
  6  7  1  0  0  0  0
  8  9  1  0  0  0  0
  9 10  2  0  0  0  0
M  END
>  <CHROM.1>
-30.41532893,17.76373103,-16.28978381,1.12360348,-0.79222619,1.93045615

>  <Name>
ligand

>  <RI>
0

>  <Rbt.Current_Directory>
/home/itssahil/PROJECTS/Mol_Feturizer/New_Systems/rnas/4TZY

>  <Rbt.Executable>
rbdock ($Id: //depot/dev/client3/rdock/2013.1/src/exe/rbdock.cxx#4 $)

>  <Rbt.Library>
libRbt.so (2013.1, Build901 2013/11/27)

>  <Rbt.Parameter_File>
/export/apps/rDock/src/rDock_2013.1_src/data/scripts/dock_solv.prm

>  <Rbt.Receptor>
prm/blind_docking_80.prm

>  <SCORE>
-14.3666

>  <SCORE.INTER>
-14.3666

>  <SCORE.INTER.CONST>
1

>  <SCORE.INTER.POLAR>
0

>  <SCORE.INTER.ROT>
0

>  <SCORE.INTER.SOLV>
7.78963

>  <SCORE.INTER.VDW>
-15.7743

>  <SCORE.INTER.norm>
-1.43666

>  <SCORE.INTRA>
0

>  <SCORE.INTRA.DIHEDRAL>
0

>  <SCORE.INTRA.DIHEDRAL.0>
0

>  <SCORE.INTRA.POLAR>
0

>  <SCORE.INTRA.POLAR.0>
0

>  <SCORE.INTRA.REPUL>
0

>  <SCORE.INTRA.REPUL.0>
0

>  <SCORE.INTRA.SOLV>
0

>  <SCORE.INTRA.SOLV.lig_0>
-23.8941

>  <SCORE.INTRA.VDW>
0

>  <SCORE.INTRA.VDW.0>
0

>  <SCORE.INTRA.norm>
0

>  <SCORE.RESTR>
0

>  <SCORE.RESTR.CAVITY>
0

>  <SCORE.RESTR.norm>
0

>  <SCORE.SYSTEM>
0

>  <SCORE.SYSTEM.CONST>
0

>  <SCORE.SYSTEM.DIHEDRAL>
0

>  <SCORE.SYSTEM.SOLV>
0

>  <SCORE.SYSTEM.norm>
0

>  <SCORE.heavy>
10

>  <SCORE.norm>
-1.43666

>  <RMSD>
0.483

$$$$
ligand
 OpenBabel11021811513D
libRbt.so/2013.1/901 2013/11/27
 10 11  0  0  0  0  0  0  0  0999 V2000
  -30.1049   16.7025  -14.6121 N   0  0  0  0  0  0  0  0  0  0  0  0
  -31.0015   17.6344  -14.2655 C   0  0  0  0  0  0  0  0  0  0  0  0
  -31.5447   18.5930  -15.0139 N   0  0  0  0  0  0  0  0  0  0  0  0
  -31.0717   18.5439  -16.2690 C   0  0  0  0  0  0  0  0  0  0  0  0
  -30.1488   17.6484  -16.7731 C   0  0  0  0  0  0  0  0  0  0  0  0
  -29.6486   16.6792  -15.8809 C   0  0  0  0  0  0  0  0  0  0  0  0
  -28.7523   15.7497  -16.2301 N   0  0  0  0  0  0  0  0  0  0  0  0
  -29.8998   17.9007  -18.1116 N   0  0  0  0  0  0  0  0  0  0  0  0
  -30.6659   18.9310  -18.3847 C   0  0  0  0  0  0  0  0  0  0  0  0
  -31.4003   19.3712  -17.3189 N   0  0  0  0  0  0  0  0  0  0  0  0
  1  2  2  0  0  0  0
  1  6  1  0  0  0  0
  2  3  1  0  0  0  0
  3  4  2  0  0  0  0
  4  5  1  0  0  0  0
  4 10  1  0  0  0  0
  5  6  2  0  0  0  0
  5  8  1  0  0  0  0
  6  7  1  0  0  0  0
  8  9  1  0  0  0  0
  9 10  2  0  0  0  0
M  END
>  <CHROM.1>
-30.41743640,17.76681324,-16.28379052,1.14570558,-0.83631495,1.96208173

>  <Name>
ligand

>  <RI>
0

>  <Rbt.Current_Directory>
/home/itssahil/PROJECTS/Mol_Feturizer/New_Systems/rnas/4TZY

>  <Rbt.Executable>
rbdock ($Id: //depot/dev/client3/rdock/2013.1/src/exe/rbdock.cxx#4 $)

>  <Rbt.Library>
libRbt.so (2013.1, Build901 2013/11/27)

>  <Rbt.Parameter_File>
/export/apps/rDock/src/rDock_2013.1_src/data/scripts/dock_solv.prm

>  <Rbt.Receptor>
prm/blind_docking_80.prm

>  <SCORE>
-14.359

>  <SCORE.INTER>
-14.3592

>  <SCORE.INTER.CONST>
1

>  <SCORE.INTER.POLAR>
0

>  <SCORE.INTER.ROT>
0

>  <SCORE.INTER.SOLV>
8.1522

>  <SCORE.INTER.VDW>
-15.8902

>  <SCORE.INTER.norm>
-1.43592

>  <SCORE.INTRA>
0

>  <SCORE.INTRA.DIHEDRAL>
0

>  <SCORE.INTRA.DIHEDRAL.0>
0

>  <SCORE.INTRA.POLAR>
0

>  <SCORE.INTRA.POLAR.0>
0

>  <SCORE.INTRA.REPUL>
0

>  <SCORE.INTRA.REPUL.0>
0

>  <SCORE.INTRA.SOLV>
0

>  <SCORE.INTRA.SOLV.lig_0>
-23.8941

>  <SCORE.INTRA.VDW>
0

>  <SCORE.INTRA.VDW.0>
0

>  <SCORE.INTRA.norm>
0

>  <SCORE.RESTR>
0.000246477

>  <SCORE.RESTR.CAVITY>
0.000246477

>  <SCORE.RESTR.norm>
2.46477e-05

>  <SCORE.SYSTEM>
0

>  <SCORE.SYSTEM.CONST>
0

>  <SCORE.SYSTEM.DIHEDRAL>
0

>  <SCORE.SYSTEM.SOLV>
0

>  <SCORE.SYSTEM.norm>
0

>  <SCORE.heavy>
10

>  <SCORE.norm>
-1.4359

>  <RMSD>
0.483

$$$$
ligand
 OpenBabel11021811513D
libRbt.so/2013.1/901 2013/11/27
 10 11  0  0  0  0  0  0  0  0999 V2000
  -30.0907   16.7163  -14.6025 N   0  0  0  0  0  0  0  0  0  0  0  0
  -31.0262   17.6147  -14.2707 C   0  0  0  0  0  0  0  0  0  0  0  0
  -31.5993   18.5464  -15.0308 N   0  0  0  0  0  0  0  0  0  0  0  0
  -31.1130   18.5074  -16.2811 C   0  0  0  0  0  0  0  0  0  0  0  0
  -30.1513   17.6454  -16.7705 C   0  0  0  0  0  0  0  0  0  0  0  0
  -29.6220   16.7023  -15.8670 C   0  0  0  0  0  0  0  0  0  0  0  0
  -28.6869   15.8063  -16.2015 N   0  0  0  0  0  0  0  0  0  0  0  0
  -29.8997   17.8982  -18.1084 N   0  0  0  0  0  0  0  0  0  0  0  0
  -30.7028   18.8960  -18.3957 C   0  0  0  0  0  0  0  0  0  0  0  0
  -31.4638   19.3143  -17.3398 N   0  0  0  0  0  0  0  0  0  0  0  0
  1  2  2  0  0  0  0
  1  6  1  0  0  0  0
  2  3  1  0  0  0  0
  3  4  2  0  0  0  0
  4  5  1  0  0  0  0
  4 10  1  0  0  0  0
  5  6  2  0  0  0  0
  5  8  1  0  0  0  0
  6  7  1  0  0  0  0
  8  9  1  0  0  0  0
  9 10  2  0  0  0  0
M  END
>  <CHROM.1>
-30.42887194,17.75642239,-16.28446796,1.13683282,-0.79665653,1.94877348

>  <Name>
ligand

>  <RI>
0

>  <Rbt.Current_Directory>
/home/itssahil/PROJECTS/Mol_Feturizer/New_Systems/rnas/4TZY

>  <Rbt.Executable>
rbdock ($Id: //depot/dev/client3/rdock/2013.1/src/exe/rbdock.cxx#4 $)

>  <Rbt.Library>
libRbt.so (2013.1, Build901 2013/11/27)

>  <Rbt.Parameter_File>
/export/apps/rDock/src/rDock_2013.1_src/data/scripts/dock_solv.prm

>  <Rbt.Receptor>
prm/pocket_docking_4.prm

>  <SCORE>
-14.3914

>  <SCORE.INTER>
-14.3917

>  <SCORE.INTER.CONST>
1

>  <SCORE.INTER.POLAR>
0

>  <SCORE.INTER.ROT>
0

>  <SCORE.INTER.SOLV>
7.8771

>  <SCORE.INTER.VDW>
-15.8202

>  <SCORE.INTER.norm>
-1.43917

>  <SCORE.INTRA>
0

>  <SCORE.INTRA.DIHEDRAL>
0

>  <SCORE.INTRA.DIHEDRAL.0>
0

>  <SCORE.INTRA.POLAR>
0

>  <SCORE.INTRA.POLAR.0>
0

>  <SCORE.INTRA.REPUL>
0

>  <SCORE.INTRA.REPUL.0>
0

>  <SCORE.INTRA.SOLV>
0

>  <SCORE.INTRA.SOLV.lig_0>
-23.8941

>  <SCORE.INTRA.VDW>
0

>  <SCORE.INTRA.VDW.0>
0

>  <SCORE.INTRA.norm>
0

>  <SCORE.RESTR>
0.000316704

>  <SCORE.RESTR.CAVITY>
0.000316704

>  <SCORE.RESTR.norm>
3.16704e-05

>  <SCORE.SYSTEM>
0

>  <SCORE.SYSTEM.CONST>
0

>  <SCORE.SYSTEM.DIHEDRAL>
0

>  <SCORE.SYSTEM.SOLV>
0

>  <SCORE.SYSTEM.norm>
0

>  <SCORE.heavy>
10

>  <SCORE.norm>
-1.43914

>  <RMSD>
0.483

$$$$
ligand
 OpenBabel11021811513D
libRbt.so/2013.1/901 2013/11/27
 10 11  0  0  0  0  0  0  0  0999 V2000
  -30.0941   16.6923  -14.6384 N   0  0  0  0  0  0  0  0  0  0  0  0
  -31.0005   17.6151  -14.2932 C   0  0  0  0  0  0  0  0  0  0  0  0
  -31.5532   18.5673  -15.0426 N   0  0  0  0  0  0  0  0  0  0  0  0
  -31.0790   18.5221  -16.2974 C   0  0  0  0  0  0  0  0  0  0  0  0
  -30.1467   17.6358  -16.8003 C   0  0  0  0  0  0  0  0  0  0  0  0
  -29.6369   16.6726  -15.9071 C   0  0  0  0  0  0  0  0  0  0  0  0
  -28.7309   15.7522  -16.2550 N   0  0  0  0  0  0  0  0  0  0  0  0
  -29.8996   17.8895  -18.1389 N   0  0  0  0  0  0  0  0  0  0  0  0
  -30.6762   18.9117  -18.4132 C   0  0  0  0  0  0  0  0  0  0  0  0
  -31.4157   19.3451  -17.3482 N   0  0  0  0  0  0  0  0  0  0  0  0
  1  2  2  0  0  0  0
  1  6  1  0  0  0  0
  2  3  1  0  0  0  0
  3  4  2  0  0  0  0
  4  5  1  0  0  0  0
  4 10  1  0  0  0  0
  5  6  2  0  0  0  0
  5  8  1  0  0  0  0
  6  7  1  0  0  0  0
  8  9  1  0  0  0  0
  9 10  2  0  0  0  0
M  END
>  <CHROM.1>
-30.41677628,17.75183930,-16.31122868,1.14057715,-0.82652560,1.95744629

>  <Name>
ligand

>  <RI>
0

>  <Rbt.Current_Directory>
/home/itssahil/PROJECTS/Mol_Feturizer/New_Systems/rnas/4TZY

>  <Rbt.Executable>
rbdock ($Id: //depot/dev/client3/rdock/2013.1/src/exe/rbdock.cxx#4 $)

>  <Rbt.Library>
libRbt.so (2013.1, Build901 2013/11/27)

>  <Rbt.Parameter_File>
/export/apps/rDock/src/rDock_2013.1_src/data/scripts/dock_solv.prm

>  <Rbt.Receptor>
prm/pocket_docking_4.prm

>  <SCORE>
-14.3979

>  <SCORE.INTER>
-14.3983

>  <SCORE.INTER.CONST>
1

>  <SCORE.INTER.POLAR>
0

>  <SCORE.INTER.ROT>
0

>  <SCORE.INTER.SOLV>
8.12798

>  <SCORE.INTER.VDW>
-15.9082

>  <SCORE.INTER.norm>
-1.43983

>  <SCORE.INTRA>
0

>  <SCORE.INTRA.DIHEDRAL>
0

>  <SCORE.INTRA.DIHEDRAL.0>
0

>  <SCORE.INTRA.POLAR>
0

>  <SCORE.INTRA.POLAR.0>
0

>  <SCORE.INTRA.REPUL>
0

>  <SCORE.INTRA.REPUL.0>
0

>  <SCORE.INTRA.SOLV>
0

>  <SCORE.INTRA.SOLV.lig_0>
-23.8941

>  <SCORE.INTRA.VDW>
0

>  <SCORE.INTRA.VDW.0>
0

>  <SCORE.INTRA.norm>
0

>  <SCORE.RESTR>
0.000439831

>  <SCORE.RESTR.CAVITY>
0.000439831

>  <SCORE.RESTR.norm>
4.39831e-05

>  <SCORE.SYSTEM>
0

>  <SCORE.SYSTEM.CONST>
0

>  <SCORE.SYSTEM.DIHEDRAL>
0

>  <SCORE.SYSTEM.SOLV>
0

>  <SCORE.SYSTEM.norm>
0

>  <SCORE.heavy>
10

>  <SCORE.norm>
-1.43979

>  <RMSD>
0.483

$$$$
ligand
 OpenBabel11021811513D
libRbt.so/2013.1/901 2013/11/27
 10 11  0  0  0  0  0  0  0  0999 V2000
  -30.1513   16.6797  -14.6237 N   0  0  0  0  0  0  0  0  0  0  0  0
  -31.0537   17.6088  -14.2851 C   0  0  0  0  0  0  0  0  0  0  0  0
  -31.5879   18.5702  -15.0363 N   0  0  0  0  0  0  0  0  0  0  0  0
  -31.0977   18.5276  -16.2850 C   0  0  0  0  0  0  0  0  0  0  0  0
  -30.1670   17.6357  -16.7807 C   0  0  0  0  0  0  0  0  0  0  0  0
  -29.6777   16.6629  -15.8863 C   0  0  0  0  0  0  0  0  0  0  0  0
  -28.7755   15.7362  -16.2276 N   0  0  0  0  0  0  0  0  0  0  0  0
  -29.9000   17.8946  -18.1144 N   0  0  0  0  0  0  0  0  0  0  0  0
  -30.6637   18.9253  -18.3931 C   0  0  0  0  0  0  0  0  0  0  0  0
  -31.4131   19.3595  -17.3354 N   0  0  0  0  0  0  0  0  0  0  0  0
  1  2  2  0  0  0  0
  1  6  1  0  0  0  0
  2  3  1  0  0  0  0
  3  4  2  0  0  0  0
  4  5  1  0  0  0  0
  4 10  1  0  0  0  0
  5  6  2  0  0  0  0
  5  8  1  0  0  0  0
  6  7  1  0  0  0  0
  8  9  1  0  0  0  0
  9 10  2  0  0  0  0
M  END
>  <CHROM.1>
-30.44236511,17.75147523,-16.29451220,1.16365546,-0.82983008,1.98008786

>  <Name>
ligand

>  <RI>
0

>  <Rbt.Current_Directory>
/home/itssahil/PROJECTS/Mol_Feturizer/New_Systems/rnas/4TZY

>  <Rbt.Executable>
rbdock ($Id: //depot/dev/client3/rdock/2013.1/src/exe/rbdock.cxx#4 $)

>  <Rbt.Library>
libRbt.so (2013.1, Build901 2013/11/27)

>  <Rbt.Parameter_File>
/export/apps/rDock/src/rDock_2013.1_src/data/scripts/dock_solv.prm

>  <Rbt.Receptor>
prm/pocket_docking_4.prm

>  <SCORE>
-14.3662

>  <SCORE.INTER>
-14.3662

>  <SCORE.INTER.CONST>
1

>  <SCORE.INTER.POLAR>
0

>  <SCORE.INTER.ROT>
0

>  <SCORE.INTER.SOLV>
8.21466

>  <SCORE.INTER.VDW>
-15.9157

>  <SCORE.INTER.norm>
-1.43662

>  <SCORE.INTRA>
0

>  <SCORE.INTRA.DIHEDRAL>
0

>  <SCORE.INTRA.DIHEDRAL.0>
0

>  <SCORE.INTRA.POLAR>
0

>  <SCORE.INTRA.POLAR.0>
0

>  <SCORE.INTRA.REPUL>
0

>  <SCORE.INTRA.REPUL.0>
0

>  <SCORE.INTRA.SOLV>
0

>  <SCORE.INTRA.SOLV.lig_0>
-23.8941

>  <SCORE.INTRA.VDW>
0

>  <SCORE.INTRA.VDW.0>
0

>  <SCORE.INTRA.norm>
0

>  <SCORE.RESTR>
3.06259e-05

>  <SCORE.RESTR.CAVITY>
3.06259e-05

>  <SCORE.RESTR.norm>
3.06259e-06

>  <SCORE.SYSTEM>
0

>  <SCORE.SYSTEM.CONST>
0

>  <SCORE.SYSTEM.DIHEDRAL>
0

>  <SCORE.SYSTEM.SOLV>
0

>  <SCORE.SYSTEM.norm>
0

>  <SCORE.heavy>
10

>  <SCORE.norm>
-1.43662

>  <RMSD>
0.483

$$$$
ligand
 OpenBabel11021811513D
libRbt.so/2013.1/901 2013/11/27
 10 11  0  0  0  0  0  0  0  0999 V2000
  -30.0875   16.6987  -14.6317 N   0  0  0  0  0  0  0  0  0  0  0  0
  -31.0077   17.6095  -14.2913 C   0  0  0  0  0  0  0  0  0  0  0  0
  -31.5717   18.5520  -15.0448 N   0  0  0  0  0  0  0  0  0  0  0  0
  -31.0934   18.5102  -16.2981 C   0  0  0  0  0  0  0  0  0  0  0  0
  -30.1473   17.6359  -16.7961 C   0  0  0  0  0  0  0  0  0  0  0  0
  -29.6265   16.6822  -15.8990 C   0  0  0  0  0  0  0  0  0  0  0  0
  -28.7067   15.7737  -16.2420 N   0  0  0  0  0  0  0  0  0  0  0  0
  -29.9000   17.8896  -18.1347 N   0  0  0  0  0  0  0  0  0  0  0  0
  -30.6902   18.9000  -18.4138 C   0  0  0  0  0  0  0  0  0  0  0  0
  -31.4387   19.3257  -17.3520 N   0  0  0  0  0  0  0  0  0  0  0  0
  1  2  2  0  0  0  0
  1  6  1  0  0  0  0
  2  3  1  0  0  0  0
  3  4  2  0  0  0  0
  4  5  1  0  0  0  0
  4 10  1  0  0  0  0
  5  6  2  0  0  0  0
  5  8  1  0  0  0  0
  6  7  1  0  0  0  0
  8  9  1  0  0  0  0
  9 10  2  0  0  0  0
M  END
>  <CHROM.1>
-30.42035495,17.74934201,-16.30809435,1.13663410,-0.81244132,1.95198901

>  <Name>
ligand

>  <RI>
0

>  <Rbt.Current_Directory>
/home/itssahil/PROJECTS/Mol_Feturizer/New_Systems/rnas/4TZY

>  <Rbt.Executable>
rbdock ($Id: //depot/dev/client3/rdock/2013.1/src/exe/rbdock.cxx#4 $)

>  <Rbt.Library>
libRbt.so (2013.1, Build901 2013/11/27)

>  <Rbt.Parameter_File>
/export/apps/rDock/src/rDock_2013.1_src/data/scripts/dock_solv.prm

>  <Rbt.Receptor>
prm/pocket_docking_5.prm

>  <SCORE>
-14.3926

>  <SCORE.INTER>
-14.3926

>  <SCORE.INTER.CONST>
1

>  <SCORE.INTER.POLAR>
0

>  <SCORE.INTER.ROT>
0

>  <SCORE.INTER.SOLV>
8.02569

>  <SCORE.INTER.VDW>
-15.8703

>  <SCORE.INTER.norm>
-1.43926

>  <SCORE.INTRA>
0

>  <SCORE.INTRA.DIHEDRAL>
0

>  <SCORE.INTRA.DIHEDRAL.0>
0

>  <SCORE.INTRA.POLAR>
0

>  <SCORE.INTRA.POLAR.0>
0

>  <SCORE.INTRA.REPUL>
0

>  <SCORE.INTRA.REPUL.0>
0

>  <SCORE.INTRA.SOLV>
0

>  <SCORE.INTRA.SOLV.lig_0>
-23.8941

>  <SCORE.INTRA.VDW>
0

>  <SCORE.INTRA.VDW.0>
0

>  <SCORE.INTRA.norm>
0

>  <SCORE.RESTR>
0

>  <SCORE.RESTR.CAVITY>
0

>  <SCORE.RESTR.norm>
0

>  <SCORE.SYSTEM>
0

>  <SCORE.SYSTEM.CONST>
0

>  <SCORE.SYSTEM.DIHEDRAL>
0

>  <SCORE.SYSTEM.SOLV>
0

>  <SCORE.SYSTEM.norm>
0

>  <SCORE.heavy>
10

>  <SCORE.norm>
-1.43926

>  <RMSD>
0.483

$$$$
ligand
 OpenBabel11021811513D
libRbt.so/2013.1/901 2013/11/27
 10 11  0  0  0  0  0  0  0  0999 V2000
  -30.1253   16.6725  -14.6301 N   0  0  0  0  0  0  0  0  0  0  0  0
  -31.0034   17.6187  -14.2752 C   0  0  0  0  0  0  0  0  0  0  0  0
  -31.5286   18.5936  -15.0154 N   0  0  0  0  0  0  0  0  0  0  0  0
  -31.0577   18.5453  -16.2713 C   0  0  0  0  0  0  0  0  0  0  0  0
  -30.1529   17.6362  -16.7835 C   0  0  0  0  0  0  0  0  0  0  0  0
  -29.6707   16.6503  -15.8996 C   0  0  0  0  0  0  0  0  0  0  0  0
  -28.7929   15.7065  -16.2571 N   0  0  0  0  0  0  0  0  0  0  0  0
  -29.9002   17.8942  -18.1202 N   0  0  0  0  0  0  0  0  0  0  0  0
  -30.6465   18.9414  -18.3843 C   0  0  0  0  0  0  0  0  0  0  0  0
  -31.3712   19.3872  -17.3143 N   0  0  0  0  0  0  0  0  0  0  0  0
  1  2  2  0  0  0  0
  1  6  1  0  0  0  0
  2  3  1  0  0  0  0
  3  4  2  0  0  0  0
  4  5  1  0  0  0  0
  4 10  1  0  0  0  0
  5  6  2  0  0  0  0
  5  8  1  0  0  0  0
  6  7  1  0  0  0  0
  8  9  1  0  0  0  0
  9 10  2  0  0  0  0
M  END
>  <CHROM.1>
-30.41869850,17.75585363,-16.29294154,1.15566980,-0.85454969,1.97748380

>  <Name>
ligand

>  <RI>
0

>  <Rbt.Current_Directory>
/home/itssahil/PROJECTS/Mol_Feturizer/New_Systems/rnas/4TZY

>  <Rbt.Executable>
rbdock ($Id: //depot/dev/client3/rdock/2013.1/src/exe/rbdock.cxx#4 $)

>  <Rbt.Library>
libRbt.so (2013.1, Build901 2013/11/27)

>  <Rbt.Parameter_File>
/export/apps/rDock/src/rDock_2013.1_src/data/scripts/dock_solv.prm

>  <Rbt.Receptor>
prm/pocket_docking_5.prm

>  <SCORE>
-14.3895

>  <SCORE.INTER>
-14.3895

>  <SCORE.INTER.CONST>
1

>  <SCORE.INTER.POLAR>
0

>  <SCORE.INTER.ROT>
0

>  <SCORE.INTER.SOLV>
8.36892

>  <SCORE.INTER.VDW>
-15.9827

>  <SCORE.INTER.norm>
-1.43895

>  <SCORE.INTRA>
0

>  <SCORE.INTRA.DIHEDRAL>
0

>  <SCORE.INTRA.DIHEDRAL.0>
0

>  <SCORE.INTRA.POLAR>
0

>  <SCORE.INTRA.POLAR.0>
0

>  <SCORE.INTRA.REPUL>
0

>  <SCORE.INTRA.REPUL.0>
0

>  <SCORE.INTRA.SOLV>
0

>  <SCORE.INTRA.SOLV.lig_0>
-23.8941

>  <SCORE.INTRA.VDW>
0

>  <SCORE.INTRA.VDW.0>
0

>  <SCORE.INTRA.norm>
0

>  <SCORE.RESTR>
0

>  <SCORE.RESTR.CAVITY>
0

>  <SCORE.RESTR.norm>
0

>  <SCORE.SYSTEM>
0

>  <SCORE.SYSTEM.CONST>
0

>  <SCORE.SYSTEM.DIHEDRAL>
0

>  <SCORE.SYSTEM.SOLV>
0

>  <SCORE.SYSTEM.norm>
0

>  <SCORE.heavy>
10

>  <SCORE.norm>
-1.43895

>  <RMSD>
0.483

$$$$
ligand
 OpenBabel11021811513D
libRbt.so/2013.1/901 2013/11/27
 10 11  0  0  0  0  0  0  0  0999 V2000
  -30.0932   16.6988  -14.6236 N   0  0  0  0  0  0  0  0  0  0  0  0
  -31.0116   17.6114  -14.2828 C   0  0  0  0  0  0  0  0  0  0  0  0
  -31.5726   18.5561  -15.0357 N   0  0  0  0  0  0  0  0  0  0  0  0
  -31.0934   18.5147  -16.2886 C   0  0  0  0  0  0  0  0  0  0  0  0
  -30.1490   17.6387  -16.7869 C   0  0  0  0  0  0  0  0  0  0  0  0
  -29.6312   16.6827  -15.8905 C   0  0  0  0  0  0  0  0  0  0  0  0
  -28.7132   15.7725  -16.2339 N   0  0  0  0  0  0  0  0  0  0  0  0
  -29.9000   17.8935  -18.1250 N   0  0  0  0  0  0  0  0  0  0  0  0
  -30.6875   18.9061  -18.4036 C   0  0  0  0  0  0  0  0  0  0  0  0
  -31.4359   19.3323  -17.3418 N   0  0  0  0  0  0  0  0  0  0  0  0
  1  2  2  0  0  0  0
  1  6  1  0  0  0  0
  2  3  1  0  0  0  0
  3  4  2  0  0  0  0
  4  5  1  0  0  0  0
  4 10  1  0  0  0  0
  5  6  2  0  0  0  0
  5  8  1  0  0  0  0
  6  7  1  0  0  0  0
  8  9  1  0  0  0  0
  9 10  2  0  0  0  0
M  END
>  <CHROM.1>
-30.42218346,17.75222639,-16.29899432,1.13903892,-0.81433331,1.95492990

>  <Name>
ligand

>  <RI>
0

>  <Rbt.Current_Directory>
/home/itssahil/PROJECTS/Mol_Feturizer/New_Systems/rnas/4TZY

>  <Rbt.Executable>
rbdock ($Id: //depot/dev/client3/rdock/2013.1/src/exe/rbdock.cxx#4 $)

>  <Rbt.Library>
libRbt.so (2013.1, Build901 2013/11/27)

>  <Rbt.Parameter_File>
/export/apps/rDock/src/rDock_2013.1_src/data/scripts/dock_solv.prm

>  <Rbt.Receptor>
prm/pocket_docking_5.prm

>  <SCORE>
-14.3929

>  <SCORE.INTER>
-14.3929

>  <SCORE.INTER.CONST>
1

>  <SCORE.INTER.POLAR>
0

>  <SCORE.INTER.ROT>
0

>  <SCORE.INTER.SOLV>
8.03309

>  <SCORE.INTER.VDW>
-15.8729

>  <SCORE.INTER.norm>
-1.43929

>  <SCORE.INTRA>
0

>  <SCORE.INTRA.DIHEDRAL>
0

>  <SCORE.INTRA.DIHEDRAL.0>
0

>  <SCORE.INTRA.POLAR>
0

>  <SCORE.INTRA.POLAR.0>
0

>  <SCORE.INTRA.REPUL>
0

>  <SCORE.INTRA.REPUL.0>
0

>  <SCORE.INTRA.SOLV>
0

>  <SCORE.INTRA.SOLV.lig_0>
-23.8941

>  <SCORE.INTRA.VDW>
0

>  <SCORE.INTRA.VDW.0>
0

>  <SCORE.INTRA.norm>
0

>  <SCORE.RESTR>
0

>  <SCORE.RESTR.CAVITY>
0

>  <SCORE.RESTR.norm>
0

>  <SCORE.SYSTEM>
0

>  <SCORE.SYSTEM.CONST>
0

>  <SCORE.SYSTEM.DIHEDRAL>
0

>  <SCORE.SYSTEM.SOLV>
0

>  <SCORE.SYSTEM.norm>
0

>  <SCORE.heavy>
10

>  <SCORE.norm>
-1.43929

>  <RMSD>
0.483

$$$$
ligand
 OpenBabel11021811513D
libRbt.so/2013.1/901 2013/11/27
 10 11  0  0  0  0  0  0  0  0999 V2000
  -30.0907   16.7019  -14.6299 N   0  0  0  0  0  0  0  0  0  0  0  0
  -31.0085   17.6155  -14.2901 C   0  0  0  0  0  0  0  0  0  0  0  0
  -31.5699   18.5590  -15.0442 N   0  0  0  0  0  0  0  0  0  0  0  0
  -31.0917   18.5151  -16.2975 C   0  0  0  0  0  0  0  0  0  0  0  0
  -30.1480   17.6379  -16.7950 C   0  0  0  0  0  0  0  0  0  0  0  0
  -29.6298   16.6834  -15.8972 C   0  0  0  0  0  0  0  0  0  0  0  0
  -28.7124   15.7722  -16.2397 N   0  0  0  0  0  0  0  0  0  0  0  0
  -29.9000   17.8902  -18.1337 N   0  0  0  0  0  0  0  0  0  0  0  0
  -30.6874   18.9025  -18.4135 C   0  0  0  0  0  0  0  0  0  0  0  0
  -31.4347   19.3309  -17.3519 N   0  0  0  0  0  0  0  0  0  0  0  0
  1  2  2  0  0  0  0
  1  6  1  0  0  0  0
  2  3  1  0  0  0  0
  3  4  2  0  0  0  0
  4  5  1  0  0  0  0
  4 10  1  0  0  0  0
  5  6  2  0  0  0  0
  5  8  1  0  0  0  0
  6  7  1  0  0  0  0
  8  9  1  0  0  0  0
  9 10  2  0  0  0  0
M  END
>  <CHROM.1>
-30.42071975,17.75242807,-16.30701263,1.13813714,-0.81494891,1.95245766

>  <Name>
ligand

>  <RI>
0

>  <Rbt.Current_Directory>
/home/itssahil/PROJECTS/Mol_Feturizer/New_Systems/rnas/4TZY

>  <Rbt.Executable>
rbdock ($Id: //depot/dev/client3/rdock/2013.1/src/exe/rbdock.cxx#4 $)

>  <Rbt.Library>
libRbt.so (2013.1, Build901 2013/11/27)

>  <Rbt.Parameter_File>
/export/apps/rDock/src/rDock_2013.1_src/data/scripts/dock_solv.prm

>  <Rbt.Receptor>
prm/pocket_docking_6.prm

>  <SCORE>
-14.3926

>  <SCORE.INTER>
-14.3926

>  <SCORE.INTER.CONST>
1

>  <SCORE.INTER.POLAR>
0

>  <SCORE.INTER.ROT>
0

>  <SCORE.INTER.SOLV>
8.03692

>  <SCORE.INTER.VDW>
-15.874

>  <SCORE.INTER.norm>
-1.43926

>  <SCORE.INTRA>
0

>  <SCORE.INTRA.DIHEDRAL>
0

>  <SCORE.INTRA.DIHEDRAL.0>
0

>  <SCORE.INTRA.POLAR>
0

>  <SCORE.INTRA.POLAR.0>
0

>  <SCORE.INTRA.REPUL>
0

>  <SCORE.INTRA.REPUL.0>
0

>  <SCORE.INTRA.SOLV>
0

>  <SCORE.INTRA.SOLV.lig_0>
-23.8941

>  <SCORE.INTRA.VDW>
0

>  <SCORE.INTRA.VDW.0>
0

>  <SCORE.INTRA.norm>
0

>  <SCORE.RESTR>
4.23275e-05

>  <SCORE.RESTR.CAVITY>
4.23275e-05

>  <SCORE.RESTR.norm>
4.23275e-06

>  <SCORE.SYSTEM>
0

>  <SCORE.SYSTEM.CONST>
0

>  <SCORE.SYSTEM.DIHEDRAL>
0

>  <SCORE.SYSTEM.SOLV>
0

>  <SCORE.SYSTEM.norm>
0

>  <SCORE.heavy>
10

>  <SCORE.norm>
-1.43926

>  <RMSD>
0.483

$$$$
ligand
 OpenBabel11021811513D
libRbt.so/2013.1/901 2013/11/27
 10 11  0  0  0  0  0  0  0  0999 V2000
  -30.0853   16.7092  -14.6158 N   0  0  0  0  0  0  0  0  0  0  0  0
  -31.0115   17.6152  -14.2785 C   0  0  0  0  0  0  0  0  0  0  0  0
  -31.5799   18.5528  -15.0346 N   0  0  0  0  0  0  0  0  0  0  0  0
  -31.0996   18.5115  -16.2872 C   0  0  0  0  0  0  0  0  0  0  0  0
  -30.1476   17.6418  -16.7821 C   0  0  0  0  0  0  0  0  0  0  0  0
  -29.6224   16.6930  -15.8824 C   0  0  0  0  0  0  0  0  0  0  0  0
  -28.6967   15.7893  -16.2224 N   0  0  0  0  0  0  0  0  0  0  0  0
  -29.8998   17.8945  -18.1208 N   0  0  0  0  0  0  0  0  0  0  0  0
  -30.6955   18.8996  -18.4030 C   0  0  0  0  0  0  0  0  0  0  0  0
  -31.4481   19.3229  -17.3431 N   0  0  0  0  0  0  0  0  0  0  0  0
  1  2  2  0  0  0  0
  1  6  1  0  0  0  0
  2  3  1  0  0  0  0
  3  4  2  0  0  0  0
  4  5  1  0  0  0  0
  4 10  1  0  0  0  0
  5  6  2  0  0  0  0
  5  8  1  0  0  0  0
  6  7  1  0  0  0  0
  8  9  1  0  0  0  0
  9 10  2  0  0  0  0
M  END
>  <CHROM.1>
-30.42199378,17.75460924,-16.29473408,1.13542925,-0.80637835,1.94920534

>  <Name>
ligand

>  <RI>
0

>  <Rbt.Current_Directory>
/home/itssahil/PROJECTS/Mol_Feturizer/New_Systems/rnas/4TZY

>  <Rbt.Executable>
rbdock ($Id: //depot/dev/client3/rdock/2013.1/src/exe/rbdock.cxx#4 $)

>  <Rbt.Library>
libRbt.so (2013.1, Build901 2013/11/27)

>  <Rbt.Parameter_File>
/export/apps/rDock/src/rDock_2013.1_src/data/scripts/dock_solv.prm

>  <Rbt.Receptor>
prm/pocket_docking_6.prm

>  <SCORE>
-14.3948

>  <SCORE.INTER>
-14.395

>  <SCORE.INTER.CONST>
1

>  <SCORE.INTER.POLAR>
0

>  <SCORE.INTER.ROT>
0

>  <SCORE.INTER.SOLV>
7.9546

>  <SCORE.INTER.VDW>
-15.8482

>  <SCORE.INTER.norm>
-1.4395

>  <SCORE.INTRA>
0

>  <SCORE.INTRA.DIHEDRAL>
0

>  <SCORE.INTRA.DIHEDRAL.0>
0

>  <SCORE.INTRA.POLAR>
0

>  <SCORE.INTRA.POLAR.0>
0

>  <SCORE.INTRA.REPUL>
0

>  <SCORE.INTRA.REPUL.0>
0

>  <SCORE.INTRA.SOLV>
0

>  <SCORE.INTRA.SOLV.lig_0>
-23.8941

>  <SCORE.INTRA.VDW>
0

>  <SCORE.INTRA.VDW.0>
0

>  <SCORE.INTRA.norm>
0

>  <SCORE.RESTR>
0.000209496

>  <SCORE.RESTR.CAVITY>
0.000209496

>  <SCORE.RESTR.norm>
2.09496e-05

>  <SCORE.SYSTEM>
0

>  <SCORE.SYSTEM.CONST>
0

>  <SCORE.SYSTEM.DIHEDRAL>
0

>  <SCORE.SYSTEM.SOLV>
0

>  <SCORE.SYSTEM.norm>
0

>  <SCORE.heavy>
10

>  <SCORE.norm>
-1.43948

>  <RMSD>
0.483

$$$$
ligand
 OpenBabel11021811513D
libRbt.so/2013.1/901 2013/11/27
 10 11  0  0  0  0  0  0  0  0999 V2000
  -30.0868   16.6994  -14.6342 N   0  0  0  0  0  0  0  0  0  0  0  0
  -31.0065   17.6109  -14.2939 C   0  0  0  0  0  0  0  0  0  0  0  0
  -31.5701   18.5534  -15.0476 N   0  0  0  0  0  0  0  0  0  0  0  0
  -31.0923   18.5108  -16.3010 C   0  0  0  0  0  0  0  0  0  0  0  0
  -30.1469   17.6357  -16.7990 C   0  0  0  0  0  0  0  0  0  0  0  0
  -29.6263   16.6821  -15.9017 C   0  0  0  0  0  0  0  0  0  0  0  0
  -28.7071   15.7730  -16.2447 N   0  0  0  0  0  0  0  0  0  0  0  0
  -29.8999   17.8888  -18.1378 N   0  0  0  0  0  0  0  0  0  0  0  0
  -30.6896   18.8995  -18.4170 C   0  0  0  0  0  0  0  0  0  0  0  0
  -31.4375   19.3261  -17.3551 N   0  0  0  0  0  0  0  0  0  0  0  0
  1  2  2  0  0  0  0
  1  6  1  0  0  0  0
  2  3  1  0  0  0  0
  3  4  2  0  0  0  0
  4  5  1  0  0  0  0
  4 10  1  0  0  0  0
  5  6  2  0  0  0  0
  5  8  1  0  0  0  0
  6  7  1  0  0  0  0
  8  9  1  0  0  0  0
  9 10  2  0  0  0  0
M  END
>  <CHROM.1>
-30.41971028,17.74953588,-16.31095887,1.13647334,-0.81307988,1.95147181

>  <Name>
ligand

>  <RI>
0

>  <Rbt.Current_Directory>
/home/itssahil/PROJECTS/Mol_Feturizer/New_Systems/rnas/4TZY

>  <Rbt.Executable>
rbdock ($Id: //depot/dev/client3/rdock/2013.1/src/exe/rbdock.cxx#4 $)

>  <Rbt.Library>
libRbt.so (2013.1, Build901 2013/11/27)

>  <Rbt.Parameter_File>
/export/apps/rDock/src/rDock_2013.1_src/data/scripts/dock_solv.prm

>  <Rbt.Receptor>
prm/pocket_docking_6.prm

>  <SCORE>
-14.3926

>  <SCORE.INTER>
-14.3927

>  <SCORE.INTER.CONST>
1

>  <SCORE.INTER.POLAR>
0

>  <SCORE.INTER.ROT>
0

>  <SCORE.INTER.SOLV>
8.03041

>  <SCORE.INTER.VDW>
-15.872

>  <SCORE.INTER.norm>
-1.43927

>  <SCORE.INTRA>
0

>  <SCORE.INTRA.DIHEDRAL>
0

>  <SCORE.INTRA.DIHEDRAL.0>
0

>  <SCORE.INTRA.POLAR>
0

>  <SCORE.INTRA.POLAR.0>
0

>  <SCORE.INTRA.REPUL>
0

>  <SCORE.INTRA.REPUL.0>
0

>  <SCORE.INTRA.SOLV>
0

>  <SCORE.INTRA.SOLV.lig_0>
-23.8941

>  <SCORE.INTRA.VDW>
0

>  <SCORE.INTRA.VDW.0>
0

>  <SCORE.INTRA.norm>
0

>  <SCORE.RESTR>
8.57922e-05

>  <SCORE.RESTR.CAVITY>
8.57922e-05

>  <SCORE.RESTR.norm>
8.57922e-06

>  <SCORE.SYSTEM>
0

>  <SCORE.SYSTEM.CONST>
0

>  <SCORE.SYSTEM.DIHEDRAL>
0

>  <SCORE.SYSTEM.SOLV>
0

>  <SCORE.SYSTEM.norm>
0

>  <SCORE.heavy>
10

>  <SCORE.norm>
-1.43926

>  <RMSD>
0.483

$$$$
ligand
 OpenBabel11021811513D
libRbt.so/2013.1/901 2013/11/27
 10 11  0  0  0  0  0  0  0  0999 V2000
  -30.0867   16.7024  -14.6282 N   0  0  0  0  0  0  0  0  0  0  0  0
  -31.0092   17.6116  -14.2892 C   0  0  0  0  0  0  0  0  0  0  0  0
  -31.5747   18.5520  -15.0439 N   0  0  0  0  0  0  0  0  0  0  0  0
  -31.0957   18.5100  -16.2970 C   0  0  0  0  0  0  0  0  0  0  0  0
  -30.1475   17.6372  -16.7936 C   0  0  0  0  0  0  0  0  0  0  0  0
  -29.6251   16.6855  -15.8952 C   0  0  0  0  0  0  0  0  0  0  0  0
  -28.7031   15.7787  -16.2368 N   0  0  0  0  0  0  0  0  0  0  0  0
  -29.9000   17.8901  -18.1323 N   0  0  0  0  0  0  0  0  0  0  0  0
  -30.6922   18.8985  -18.4129 C   0  0  0  0  0  0  0  0  0  0  0  0
  -31.4422   19.3236  -17.3519 N   0  0  0  0  0  0  0  0  0  0  0  0
  1  2  2  0  0  0  0
  1  6  1  0  0  0  0
  2  3  1  0  0  0  0
  3  4  2  0  0  0  0
  4  5  1  0  0  0  0
  4 10  1  0  0  0  0
  5  6  2  0  0  0  0
  5  8  1  0  0  0  0
  6  7  1  0  0  0  0
  8  9  1  0  0  0  0
  9 10  2  0  0  0  0
M  END
>  <CHROM.1>
-30.42102695,17.75053622,-16.30582740,1.13617926,-0.81023510,1.95062397

>  <Name>
ligand

>  <RI>
0

>  <Rbt.Current_Directory>
/home/itssahil/PROJECTS/Mol_Feturizer/New_Systems/rnas/4TZY

>  <Rbt.Executable>
rbdock ($Id: //depot/dev/client3/rdock/2013.1/src/exe/rbdock.cxx#4 $)

>  <Rbt.Library>
libRbt.so (2013.1, Build901 2013/11/27)

>  <Rbt.Parameter_File>
/export/apps/rDock/src/rDock_2013.1_src/data/scripts/dock_solv.prm

>  <Rbt.Receptor>
prm/pocket_docking_6.prm

>  <SCORE>
-14.3925

>  <SCORE.INTER>
-14.3925

>  <SCORE.INTER.CONST>
1

>  <SCORE.INTER.POLAR>
0

>  <SCORE.INTER.ROT>
0

>  <SCORE.INTER.SOLV>
8.00316

>  <SCORE.INTER.VDW>
-15.8627

>  <SCORE.INTER.norm>
-1.43925

>  <SCORE.INTRA>
0

>  <SCORE.INTRA.DIHEDRAL>
0

>  <SCORE.INTRA.DIHEDRAL.0>
0

>  <SCORE.INTRA.POLAR>
0

>  <SCORE.INTRA.POLAR.0>
0

>  <SCORE.INTRA.REPUL>
0

>  <SCORE.INTRA.REPUL.0>
0

>  <SCORE.INTRA.SOLV>
0

>  <SCORE.INTRA.SOLV.lig_0>
-23.8941

>  <SCORE.INTRA.VDW>
0

>  <SCORE.INTRA.VDW.0>
0

>  <SCORE.INTRA.norm>
0

>  <SCORE.RESTR>
0

>  <SCORE.RESTR.CAVITY>
0

>  <SCORE.RESTR.norm>
0

>  <SCORE.SYSTEM>
0

>  <SCORE.SYSTEM.CONST>
0

>  <SCORE.SYSTEM.DIHEDRAL>
0

>  <SCORE.SYSTEM.SOLV>
0

>  <SCORE.SYSTEM.norm>
0

>  <SCORE.heavy>
10

>  <SCORE.norm>
-1.43925

>  <RMSD>
0.483

$$$$
ligand
 OpenBabel11021811513D
libRbt.so/2013.1/901 2013/11/27
 10 11  0  0  0  0  0  0  0  0999 V2000
  -30.0878   16.6978  -14.6343 N   0  0  0  0  0  0  0  0  0  0  0  0
  -30.9998   17.6159  -14.2910 C   0  0  0  0  0  0  0  0  0  0  0  0
  -31.5581   18.5632  -15.0425 N   0  0  0  0  0  0  0  0  0  0  0  0
  -31.0835   18.5182  -16.2971 C   0  0  0  0  0  0  0  0  0  0  0  0
  -30.1459   17.6366  -16.7981 C   0  0  0  0  0  0  0  0  0  0  0  0
  -29.6303   16.6782  -15.9028 C   0  0  0  0  0  0  0  0  0  0  0  0
  -28.7188   15.7626  -16.2488 N   0  0  0  0  0  0  0  0  0  0  0  0
  -29.9001   17.8890  -18.1372 N   0  0  0  0  0  0  0  0  0  0  0  0
  -30.6829   18.9058  -18.4137 C   0  0  0  0  0  0  0  0  0  0  0  0
  -31.4250   19.3370  -17.3497 N   0  0  0  0  0  0  0  0  0  0  0  0
  1  2  2  0  0  0  0
  1  6  1  0  0  0  0
  2  3  1  0  0  0  0
  3  4  2  0  0  0  0
  4  5  1  0  0  0  0
  4 10  1  0  0  0  0
  5  6  2  0  0  0  0
  5  8  1  0  0  0  0
  6  7  1  0  0  0  0
  8  9  1  0  0  0  0
  9 10  2  0  0  0  0
M  END
>  <CHROM.1>
-30.41666619,17.75195197,-16.30930049,1.13739419,-0.82090570,1.95304433

>  <Name>
ligand

>  <RI>
0

>  <Rbt.Current_Directory>
/home/itssahil/PROJECTS/Mol_Feturizer/New_Systems/rnas/4TZY

>  <Rbt.Executable>
rbdock ($Id: //depot/dev/client3/rdock/2013.1/src/exe/rbdock.cxx#4 $)

>  <Rbt.Library>
libRbt.so (2013.1, Build901 2013/11/27)

>  <Rbt.Parameter_File>
/export/apps/rDock/src/rDock_2013.1_src/data/scripts/dock_solv.prm

>  <Rbt.Receptor>
prm/pocket_docking_7.prm

>  <SCORE>
-14.3964

>  <SCORE.INTER>
-14.3964

>  <SCORE.INTER.CONST>
1

>  <SCORE.INTER.POLAR>
0

>  <SCORE.INTER.ROT>
0

>  <SCORE.INTER.SOLV>
8.07811

>  <SCORE.INTER.VDW>
-15.8903

>  <SCORE.INTER.norm>
-1.43964

>  <SCORE.INTRA>
0

>  <SCORE.INTRA.DIHEDRAL>
0

>  <SCORE.INTRA.DIHEDRAL.0>
0

>  <SCORE.INTRA.POLAR>
0

>  <SCORE.INTRA.POLAR.0>
0

>  <SCORE.INTRA.REPUL>
0

>  <SCORE.INTRA.REPUL.0>
0

>  <SCORE.INTRA.SOLV>
0

>  <SCORE.INTRA.SOLV.lig_0>
-23.8941

>  <SCORE.INTRA.VDW>
0

>  <SCORE.INTRA.VDW.0>
0

>  <SCORE.INTRA.norm>
0

>  <SCORE.RESTR>
0

>  <SCORE.RESTR.CAVITY>
0

>  <SCORE.RESTR.norm>
0

>  <SCORE.SYSTEM>
0

>  <SCORE.SYSTEM.CONST>
0

>  <SCORE.SYSTEM.DIHEDRAL>
0

>  <SCORE.SYSTEM.SOLV>
0

>  <SCORE.SYSTEM.norm>
0

>  <SCORE.heavy>
10

>  <SCORE.norm>
-1.43964

>  <RMSD>
0.483

$$$$
ligand
 OpenBabel11021811513D
libRbt.so/2013.1/901 2013/11/27
 10 11  0  0  0  0  0  0  0  0999 V2000
  -30.0714   16.7261  -14.6074 N   0  0  0  0  0  0  0  0  0  0  0  0
  -31.0065   17.6245  -14.2747 C   0  0  0  0  0  0  0  0  0  0  0  0
  -31.5849   18.5520  -15.0357 N   0  0  0  0  0  0  0  0  0  0  0  0
  -31.1050   18.5084  -16.2884 C   0  0  0  0  0  0  0  0  0  0  0  0
  -30.1445   17.6457  -16.7790 C   0  0  0  0  0  0  0  0  0  0  0  0
  -29.6091   16.7074  -15.8742 C   0  0  0  0  0  0  0  0  0  0  0  0
  -28.6745   15.8113  -16.2097 N   0  0  0  0  0  0  0  0  0  0  0  0
  -29.9001   17.8932  -18.1193 N   0  0  0  0  0  0  0  0  0  0  0  0
  -30.7063   18.8886  -18.4067 C   0  0  0  0  0  0  0  0  0  0  0  0
  -31.4624   19.3102  -17.3487 N   0  0  0  0  0  0  0  0  0  0  0  0
  1  2  2  0  0  0  0
  1  6  1  0  0  0  0
  2  3  1  0  0  0  0
  3  4  2  0  0  0  0
  4  5  1  0  0  0  0
  4 10  1  0  0  0  0
  5  6  2  0  0  0  0
  5  8  1  0  0  0  0
  6  7  1  0  0  0  0
  8  9  1  0  0  0  0
  9 10  2  0  0  0  0
M  END
>  <CHROM.1>
-30.41972058,17.75844057,-16.29206408,1.12919459,-0.79715331,1.93901350

>  <Name>
ligand

>  <RI>
0

>  <Rbt.Current_Directory>
/home/itssahil/PROJECTS/Mol_Feturizer/New_Systems/rnas/4TZY

>  <Rbt.Executable>
rbdock ($Id: //depot/dev/client3/rdock/2013.1/src/exe/rbdock.cxx#4 $)

>  <Rbt.Library>
libRbt.so (2013.1, Build901 2013/11/27)

>  <Rbt.Parameter_File>
/export/apps/rDock/src/rDock_2013.1_src/data/scripts/dock_solv.prm

>  <Rbt.Receptor>
prm/pocket_docking_7.prm

>  <SCORE>
-14.3618

>  <SCORE.INTER>
-14.3618

>  <SCORE.INTER.CONST>
1

>  <SCORE.INTER.POLAR>
0

>  <SCORE.INTER.ROT>
0

>  <SCORE.INTER.SOLV>
7.85657

>  <SCORE.INTER.VDW>
-15.7934

>  <SCORE.INTER.norm>
-1.43618

>  <SCORE.INTRA>
0

>  <SCORE.INTRA.DIHEDRAL>
0

>  <SCORE.INTRA.DIHEDRAL.0>
0

>  <SCORE.INTRA.POLAR>
0

>  <SCORE.INTRA.POLAR.0>
0

>  <SCORE.INTRA.REPUL>
0

>  <SCORE.INTRA.REPUL.0>
0

>  <SCORE.INTRA.SOLV>
0

>  <SCORE.INTRA.SOLV.lig_0>
-23.8941

>  <SCORE.INTRA.VDW>
0

>  <SCORE.INTRA.VDW.0>
0

>  <SCORE.INTRA.norm>
0

>  <SCORE.RESTR>
0

>  <SCORE.RESTR.CAVITY>
0

>  <SCORE.RESTR.norm>
0

>  <SCORE.SYSTEM>
0

>  <SCORE.SYSTEM.CONST>
0

>  <SCORE.SYSTEM.DIHEDRAL>
0

>  <SCORE.SYSTEM.SOLV>
0

>  <SCORE.SYSTEM.norm>
0

>  <SCORE.heavy>
10

>  <SCORE.norm>
-1.43618

>  <RMSD>
0.483

$$$$
ligand
 OpenBabel11021811513D
libRbt.so/2013.1/901 2013/11/27
 10 11  0  0  0  0  0  0  0  0999 V2000
  -30.0986   16.6893  -14.6391 N   0  0  0  0  0  0  0  0  0  0  0  0
  -31.0050   17.6122  -14.2940 C   0  0  0  0  0  0  0  0  0  0  0  0
  -31.5565   18.5652  -15.0433 N   0  0  0  0  0  0  0  0  0  0  0  0
  -31.0810   18.5208  -16.2976 C   0  0  0  0  0  0  0  0  0  0  0  0
  -30.1484   17.6346  -16.8002 C   0  0  0  0  0  0  0  0  0  0  0  0
  -29.6400   16.6705  -15.9072 C   0  0  0  0  0  0  0  0  0  0  0  0
  -28.7339   15.7500  -16.2549 N   0  0  0  0  0  0  0  0  0  0  0  0
  -29.8997   17.8894  -18.1383 N   0  0  0  0  0  0  0  0  0  0  0  0
  -30.6757   18.9120  -18.4127 C   0  0  0  0  0  0  0  0  0  0  0  0
  -31.4162   19.3448  -17.3481 N   0  0  0  0  0  0  0  0  0  0  0  0
  1  2  2  0  0  0  0
  1  6  1  0  0  0  0
  2  3  1  0  0  0  0
  3  4  2  0  0  0  0
  4  5  1  0  0  0  0
  4 10  1  0  0  0  0
  5  6  2  0  0  0  0
  5  8  1  0  0  0  0
  6  7  1  0  0  0  0
  8  9  1  0  0  0  0
  9 10  2  0  0  0  0
M  END
>  <CHROM.1>
-30.41901147,17.75036213,-16.31133419,1.14230097,-0.82644555,1.95953522

>  <Name>
ligand

>  <RI>
0

>  <Rbt.Current_Directory>
/home/itssahil/PROJECTS/Mol_Feturizer/New_Systems/rnas/4TZY

>  <Rbt.Executable>
rbdock ($Id: //depot/dev/client3/rdock/2013.1/src/exe/rbdock.cxx#4 $)

>  <Rbt.Library>
libRbt.so (2013.1, Build901 2013/11/27)

>  <Rbt.Parameter_File>
/export/apps/rDock/src/rDock_2013.1_src/data/scripts/dock_solv.prm

>  <Rbt.Receptor>
prm/pocket_docking_8.prm

>  <SCORE>
-14.3958

>  <SCORE.INTER>
-14.396

>  <SCORE.INTER.CONST>
1

>  <SCORE.INTER.POLAR>
0

>  <SCORE.INTER.ROT>
0

>  <SCORE.INTER.SOLV>
8.13763

>  <SCORE.INTER.VDW>
-15.9099

>  <SCORE.INTER.norm>
-1.4396

>  <SCORE.INTRA>
0

>  <SCORE.INTRA.DIHEDRAL>
0

>  <SCORE.INTRA.DIHEDRAL.0>
0

>  <SCORE.INTRA.POLAR>
0

>  <SCORE.INTRA.POLAR.0>
0

>  <SCORE.INTRA.REPUL>
0

>  <SCORE.INTRA.REPUL.0>
0

>  <SCORE.INTRA.SOLV>
0

>  <SCORE.INTRA.SOLV.lig_0>
-23.8941

>  <SCORE.INTRA.VDW>
0

>  <SCORE.INTRA.VDW.0>
0

>  <SCORE.INTRA.norm>
0

>  <SCORE.RESTR>
0.000286377

>  <SCORE.RESTR.CAVITY>
0.000286377

>  <SCORE.RESTR.norm>
2.86377e-05

>  <SCORE.SYSTEM>
0

>  <SCORE.SYSTEM.CONST>
0

>  <SCORE.SYSTEM.DIHEDRAL>
0

>  <SCORE.SYSTEM.SOLV>
0

>  <SCORE.SYSTEM.norm>
0

>  <SCORE.heavy>
10

>  <SCORE.norm>
-1.43958

>  <RMSD>
0.483

$$$$
ligand
 OpenBabel11021811513D
libRbt.so/2013.1/901 2013/11/27
 10 11  0  0  0  0  0  0  0  0999 V2000
  -30.0989   16.6875  -14.6405 N   0  0  0  0  0  0  0  0  0  0  0  0
  -31.0066   17.6092  -14.2955 C   0  0  0  0  0  0  0  0  0  0  0  0
  -31.5590   18.5618  -15.0448 N   0  0  0  0  0  0  0  0  0  0  0  0
  -31.0830   18.5183  -16.2989 C   0  0  0  0  0  0  0  0  0  0  0  0
  -30.1492   17.6334  -16.8014 C   0  0  0  0  0  0  0  0  0  0  0  0
  -29.6399   16.6696  -15.9085 C   0  0  0  0  0  0  0  0  0  0  0  0
  -28.7326   15.7503  -16.2561 N   0  0  0  0  0  0  0  0  0  0  0  0
  -29.9003   17.8887  -18.1394 N   0  0  0  0  0  0  0  0  0  0  0  0
  -30.6774   18.9105  -18.4138 C   0  0  0  0  0  0  0  0  0  0  0  0
  -31.4188   19.3421  -17.3494 N   0  0  0  0  0  0  0  0  0  0  0  0
  1  2  2  0  0  0  0
  1  6  1  0  0  0  0
  2  3  1  0  0  0  0
  3  4  2  0  0  0  0
  4  5  1  0  0  0  0
  4 10  1  0  0  0  0
  5  6  2  0  0  0  0
  5  8  1  0  0  0  0
  6  7  1  0  0  0  0
  8  9  1  0  0  0  0
  9 10  2  0  0  0  0
M  END
>  <CHROM.1>
-30.42006953,17.74862249,-16.31261006,1.14209787,-0.82520334,1.95963406

>  <Name>
ligand

>  <RI>
0

>  <Rbt.Current_Directory>
/home/itssahil/PROJECTS/Mol_Feturizer/New_Systems/rnas/4TZY

>  <Rbt.Executable>
rbdock ($Id: //depot/dev/client3/rdock/2013.1/src/exe/rbdock.cxx#4 $)

>  <Rbt.Library>
libRbt.so (2013.1, Build901 2013/11/27)

>  <Rbt.Parameter_File>
/export/apps/rDock/src/rDock_2013.1_src/data/scripts/dock_solv.prm

>  <Rbt.Receptor>
prm/blind_docking_100.prm

>  <SCORE>
-14.3931

>  <SCORE.INTER>
-14.3931

>  <SCORE.INTER.CONST>
1

>  <SCORE.INTER.POLAR>
0

>  <SCORE.INTER.ROT>
0

>  <SCORE.INTER.SOLV>
8.13584

>  <SCORE.INTER.VDW>
-15.9073

>  <SCORE.INTER.norm>
-1.43931

>  <SCORE.INTRA>
0

>  <SCORE.INTRA.DIHEDRAL>
0

>  <SCORE.INTRA.DIHEDRAL.0>
0

>  <SCORE.INTRA.POLAR>
0

>  <SCORE.INTRA.POLAR.0>
0

>  <SCORE.INTRA.REPUL>
0

>  <SCORE.INTRA.REPUL.0>
0

>  <SCORE.INTRA.SOLV>
0

>  <SCORE.INTRA.SOLV.lig_0>
-23.8941

>  <SCORE.INTRA.VDW>
0

>  <SCORE.INTRA.VDW.0>
0

>  <SCORE.INTRA.norm>
0

>  <SCORE.RESTR>
0

>  <SCORE.RESTR.CAVITY>
0

>  <SCORE.RESTR.norm>
0

>  <SCORE.SYSTEM>
0

>  <SCORE.SYSTEM.CONST>
0

>  <SCORE.SYSTEM.DIHEDRAL>
0

>  <SCORE.SYSTEM.SOLV>
0

>  <SCORE.SYSTEM.norm>
0

>  <SCORE.heavy>
10

>  <SCORE.norm>
-1.43931

>  <RMSD>
0.484

$$$$
ligand
 OpenBabel11021811513D
libRbt.so/2013.1/901 2013/11/27
 10 11  0  0  0  0  0  0  0  0999 V2000
  -30.1168   16.6843  -14.6290 N   0  0  0  0  0  0  0  0  0  0  0  0
  -31.0307   17.6013  -14.2879 C   0  0  0  0  0  0  0  0  0  0  0  0
  -31.5820   18.5535  -15.0384 N   0  0  0  0  0  0  0  0  0  0  0  0
  -31.0972   18.5152  -16.2894 C   0  0  0  0  0  0  0  0  0  0  0  0
  -30.1563   17.6356  -16.7878 C   0  0  0  0  0  0  0  0  0  0  0  0
  -29.6490   16.6716  -15.8938 C   0  0  0  0  0  0  0  0  0  0  0  0
  -28.7355   15.7571  -16.2376 N   0  0  0  0  0  0  0  0  0  0  0  0
  -29.8994   17.8954  -18.1233 N   0  0  0  0  0  0  0  0  0  0  0  0
  -30.6790   18.9147  -18.4004 C   0  0  0  0  0  0  0  0  0  0  0  0
  -31.4294   19.3404  -17.3399 N   0  0  0  0  0  0  0  0  0  0  0  0
  1  2  2  0  0  0  0
  1  6  1  0  0  0  0
  2  3  1  0  0  0  0
  3  4  2  0  0  0  0
  4  5  1  0  0  0  0
  4 10  1  0  0  0  0
  5  6  2  0  0  0  0
  5  8  1  0  0  0  0
  6  7  1  0  0  0  0
  8  9  1  0  0  0  0
  9 10  2  0  0  0  0
M  END
>  <CHROM.1>
-30.43101039,17.74841061,-16.30051647,1.14897457,-0.81870236,1.96726912

>  <Name>
ligand

>  <RI>
0

>  <Rbt.Current_Directory>
/home/itssahil/PROJECTS/Mol_Feturizer/New_Systems/rnas/4TZY

>  <Rbt.Executable>
rbdock ($Id: //depot/dev/client3/rdock/2013.1/src/exe/rbdock.cxx#4 $)

>  <Rbt.Library>
libRbt.so (2013.1, Build901 2013/11/27)

>  <Rbt.Parameter_File>
/export/apps/rDock/src/rDock_2013.1_src/data/scripts/dock_solv.prm

>  <Rbt.Receptor>
prm/blind_docking_60.prm

>  <SCORE>
-14.3465

>  <SCORE.INTER>
-14.3471

>  <SCORE.INTER.CONST>
1

>  <SCORE.INTER.POLAR>
0

>  <SCORE.INTER.ROT>
0

>  <SCORE.INTER.SOLV>
8.11002

>  <SCORE.INTER.VDW>
-15.8681

>  <SCORE.INTER.norm>
-1.43471

>  <SCORE.INTRA>
0

>  <SCORE.INTRA.DIHEDRAL>
0

>  <SCORE.INTRA.DIHEDRAL.0>
0

>  <SCORE.INTRA.POLAR>
0

>  <SCORE.INTRA.POLAR.0>
0

>  <SCORE.INTRA.REPUL>
0

>  <SCORE.INTRA.REPUL.0>
0

>  <SCORE.INTRA.SOLV>
0

>  <SCORE.INTRA.SOLV.lig_0>
-23.8941

>  <SCORE.INTRA.VDW>
0

>  <SCORE.INTRA.VDW.0>
0

>  <SCORE.INTRA.norm>
0

>  <SCORE.RESTR>
0.000574249

>  <SCORE.RESTR.CAVITY>
0.000574249

>  <SCORE.RESTR.norm>
5.74249e-05

>  <SCORE.SYSTEM>
0

>  <SCORE.SYSTEM.CONST>
0

>  <SCORE.SYSTEM.DIHEDRAL>
0

>  <SCORE.SYSTEM.SOLV>
0

>  <SCORE.SYSTEM.norm>
0

>  <SCORE.heavy>
10

>  <SCORE.norm>
-1.43465

>  <RMSD>
0.484

$$$$
ligand
 OpenBabel11021811513D
libRbt.so/2013.1/901 2013/11/27
 10 11  0  0  0  0  0  0  0  0999 V2000
  -30.0946   16.6693  -14.6380 N   0  0  0  0  0  0  0  0  0  0  0  0
  -31.0031   17.5879  -14.2870 C   0  0  0  0  0  0  0  0  0  0  0  0
  -31.5572   18.5443  -15.0303 N   0  0  0  0  0  0  0  0  0  0  0  0
  -31.0820   18.5087  -16.2850 C   0  0  0  0  0  0  0  0  0  0  0  0
  -30.1475   17.6278  -16.7933 C   0  0  0  0  0  0  0  0  0  0  0  0
  -29.6364   16.6594  -15.9064 C   0  0  0  0  0  0  0  0  0  0  0  0
  -28.7283   15.7432  -16.2600 N   0  0  0  0  0  0  0  0  0  0  0  0
  -29.8998   17.8913  -18.1299 N   0  0  0  0  0  0  0  0  0  0  0  0
  -30.6783   18.9138  -18.3977 C   0  0  0  0  0  0  0  0  0  0  0  0
  -31.4194   19.3383  -17.3303 N   0  0  0  0  0  0  0  0  0  0  0  0
  1  2  2  0  0  0  0
  1  6  1  0  0  0  0
  2  3  1  0  0  0  0
  3  4  2  0  0  0  0
  4  5  1  0  0  0  0
  4 10  1  0  0  0  0
  5  6  2  0  0  0  0
  5  8  1  0  0  0  0
  6  7  1  0  0  0  0
  8  9  1  0  0  0  0
  9 10  2  0  0  0  0
M  END
>  <CHROM.1>
-30.41816000,17.73987928,-16.30364554,1.14050827,-0.82438416,1.96436526

>  <Name>
ligand

>  <RI>
0

>  <Rbt.Current_Directory>
/home/itssahil/PROJECTS/Mol_Feturizer/New_Systems/rnas/4TZY

>  <Rbt.Executable>
rbdock ($Id: //depot/dev/client3/rdock/2013.1/src/exe/rbdock.cxx#4 $)

>  <Rbt.Library>
libRbt.so (2013.1, Build901 2013/11/27)

>  <Rbt.Parameter_File>
/export/apps/rDock/src/rDock_2013.1_src/data/scripts/dock_solv.prm

>  <Rbt.Receptor>
prm/blind_docking_60.prm

>  <SCORE>
-14.3579

>  <SCORE.INTER>
-14.3581

>  <SCORE.INTER.CONST>
1

>  <SCORE.INTER.POLAR>
0

>  <SCORE.INTER.ROT>
0

>  <SCORE.INTER.SOLV>
8.14872

>  <SCORE.INTER.VDW>
-15.8883

>  <SCORE.INTER.norm>
-1.43581

>  <SCORE.INTRA>
0

>  <SCORE.INTRA.DIHEDRAL>
0

>  <SCORE.INTRA.DIHEDRAL.0>
0

>  <SCORE.INTRA.POLAR>
0

>  <SCORE.INTRA.POLAR.0>
0

>  <SCORE.INTRA.REPUL>
0

>  <SCORE.INTRA.REPUL.0>
0

>  <SCORE.INTRA.SOLV>
0

>  <SCORE.INTRA.SOLV.lig_0>
-23.8941

>  <SCORE.INTRA.VDW>
0

>  <SCORE.INTRA.VDW.0>
0

>  <SCORE.INTRA.norm>
0

>  <SCORE.RESTR>
0.000176103

>  <SCORE.RESTR.CAVITY>
0.000176103

>  <SCORE.RESTR.norm>
1.76103e-05

>  <SCORE.SYSTEM>
0

>  <SCORE.SYSTEM.CONST>
0

>  <SCORE.SYSTEM.DIHEDRAL>
0

>  <SCORE.SYSTEM.SOLV>
0

>  <SCORE.SYSTEM.norm>
0

>  <SCORE.heavy>
10

>  <SCORE.norm>
-1.43579

>  <RMSD>
0.484

$$$$
ligand
 OpenBabel11021811513D
libRbt.so/2013.1/901 2013/11/27
 10 11  0  0  0  0  0  0  0  0999 V2000
  -30.0889   16.6911  -14.6453 N   0  0  0  0  0  0  0  0  0  0  0  0
  -30.9941   17.6147  -14.2988 C   0  0  0  0  0  0  0  0  0  0  0  0
  -31.5476   18.5669  -15.0477 N   0  0  0  0  0  0  0  0  0  0  0  0
  -31.0757   18.5208  -16.3033 C   0  0  0  0  0  0  0  0  0  0  0  0
  -30.1449   17.6337  -16.8075 C   0  0  0  0  0  0  0  0  0  0  0  0
  -29.6340   16.6706  -15.9148 C   0  0  0  0  0  0  0  0  0  0  0  0
  -28.7292   15.7494  -16.2639 N   0  0  0  0  0  0  0  0  0  0  0  0
  -29.9000   17.8867  -18.1466 N   0  0  0  0  0  0  0  0  0  0  0  0
  -30.6765   18.9092  -18.4200 C   0  0  0  0  0  0  0  0  0  0  0  0
  -31.4137   19.3436  -17.3539 N   0  0  0  0  0  0  0  0  0  0  0  0
  1  2  2  0  0  0  0
  1  6  1  0  0  0  0
  2  3  1  0  0  0  0
  3  4  2  0  0  0  0
  4  5  1  0  0  0  0
  4 10  1  0  0  0  0
  5  6  2  0  0  0  0
  5  8  1  0  0  0  0
  6  7  1  0  0  0  0
  8  9  1  0  0  0  0
  9 10  2  0  0  0  0
M  END
>  <CHROM.1>
-30.41396316,17.75014544,-16.31799444,1.13845676,-0.82779437,1.95544405

>  <Name>
ligand

>  <RI>
0

>  <Rbt.Current_Directory>
/home/itssahil/PROJECTS/Mol_Feturizer/New_Systems/rnas/4TZY

>  <Rbt.Executable>
rbdock ($Id: //depot/dev/client3/rdock/2013.1/src/exe/rbdock.cxx#4 $)

>  <Rbt.Library>
libRbt.so (2013.1, Build901 2013/11/27)

>  <Rbt.Parameter_File>
/export/apps/rDock/src/rDock_2013.1_src/data/scripts/dock_solv.prm

>  <Rbt.Receptor>
prm/blind_docking_60.prm

>  <SCORE>
-14.3986

>  <SCORE.INTER>
-14.3987

>  <SCORE.INTER.CONST>
1

>  <SCORE.INTER.POLAR>
0

>  <SCORE.INTER.ROT>
0

>  <SCORE.INTER.SOLV>
8.13886

>  <SCORE.INTER.VDW>
-15.9121

>  <SCORE.INTER.norm>
-1.43987

>  <SCORE.INTRA>
0

>  <SCORE.INTRA.DIHEDRAL>
0

>  <SCORE.INTRA.DIHEDRAL.0>
0

>  <SCORE.INTRA.POLAR>
0

>  <SCORE.INTRA.POLAR.0>
0

>  <SCORE.INTRA.REPUL>
0

>  <SCORE.INTRA.REPUL.0>
0

>  <SCORE.INTRA.SOLV>
0

>  <SCORE.INTRA.SOLV.lig_0>
-23.8941

>  <SCORE.INTRA.VDW>
0

>  <SCORE.INTRA.VDW.0>
0

>  <SCORE.INTRA.norm>
0

>  <SCORE.RESTR>
3.61307e-05

>  <SCORE.RESTR.CAVITY>
3.61307e-05

>  <SCORE.RESTR.norm>
3.61307e-06

>  <SCORE.SYSTEM>
0

>  <SCORE.SYSTEM.CONST>
0

>  <SCORE.SYSTEM.DIHEDRAL>
0

>  <SCORE.SYSTEM.SOLV>
0

>  <SCORE.SYSTEM.norm>
0

>  <SCORE.heavy>
10

>  <SCORE.norm>
-1.43986

>  <RMSD>
0.484

$$$$
ligand
 OpenBabel11021811513D
libRbt.so/2013.1/901 2013/11/27
 10 11  0  0  0  0  0  0  0  0999 V2000
  -30.0871   16.7014  -14.6283 N   0  0  0  0  0  0  0  0  0  0  0  0
  -31.0070   17.6125  -14.2873 C   0  0  0  0  0  0  0  0  0  0  0  0
  -31.5708   18.5554  -15.0404 N   0  0  0  0  0  0  0  0  0  0  0  0
  -31.0928   18.5139  -16.2938 C   0  0  0  0  0  0  0  0  0  0  0  0
  -30.1472   17.6394  -16.7924 C   0  0  0  0  0  0  0  0  0  0  0  0
  -29.6265   16.6852  -15.8957 C   0  0  0  0  0  0  0  0  0  0  0  0
  -28.7070   15.7765  -16.2393 N   0  0  0  0  0  0  0  0  0  0  0  0
  -29.9001   17.8935  -18.1309 N   0  0  0  0  0  0  0  0  0  0  0  0
  -30.6900   18.9042  -18.4095 C   0  0  0  0  0  0  0  0  0  0  0  0
  -31.4380   19.3298  -17.3473 N   0  0  0  0  0  0  0  0  0  0  0  0
  1  2  2  0  0  0  0
  1  6  1  0  0  0  0
  2  3  1  0  0  0  0
  3  4  2  0  0  0  0
  4  5  1  0  0  0  0
  4 10  1  0  0  0  0
  5  6  2  0  0  0  0
  5  8  1  0  0  0  0
  6  7  1  0  0  0  0
  8  9  1  0  0  0  0
  9 10  2  0  0  0  0
M  END
>  <CHROM.1>
-30.42003927,17.75275098,-16.30423304,1.13649441,-0.81285716,1.95223013

>  <Name>
ligand

>  <RI>
0

>  <Rbt.Current_Directory>
/home/itssahil/PROJECTS/Mol_Feturizer/New_Systems/rnas/4TZY

>  <Rbt.Executable>
rbdock ($Id: //depot/dev/client3/rdock/2013.1/src/exe/rbdock.cxx#4 $)

>  <Rbt.Library>
libRbt.so (2013.1, Build901 2013/11/27)

>  <Rbt.Parameter_File>
/export/apps/rDock/src/rDock_2013.1_src/data/scripts/dock_solv.prm

>  <Rbt.Receptor>
prm/blind_docking_60.prm

>  <SCORE>
-14.3933

>  <SCORE.INTER>
-14.3933

>  <SCORE.INTER.CONST>
1

>  <SCORE.INTER.POLAR>
0

>  <SCORE.INTER.ROT>
0

>  <SCORE.INTER.SOLV>
8.01903

>  <SCORE.INTER.VDW>
-15.8685

>  <SCORE.INTER.norm>
-1.43933

>  <SCORE.INTRA>
0

>  <SCORE.INTRA.DIHEDRAL>
0

>  <SCORE.INTRA.DIHEDRAL.0>
0

>  <SCORE.INTRA.POLAR>
0

>  <SCORE.INTRA.POLAR.0>
0

>  <SCORE.INTRA.REPUL>
0

>  <SCORE.INTRA.REPUL.0>
0

>  <SCORE.INTRA.SOLV>
0

>  <SCORE.INTRA.SOLV.lig_0>
-23.8941

>  <SCORE.INTRA.VDW>
0

>  <SCORE.INTRA.VDW.0>
0

>  <SCORE.INTRA.norm>
0

>  <SCORE.RESTR>
0

>  <SCORE.RESTR.CAVITY>
0

>  <SCORE.RESTR.norm>
0

>  <SCORE.SYSTEM>
0

>  <SCORE.SYSTEM.CONST>
0

>  <SCORE.SYSTEM.DIHEDRAL>
0

>  <SCORE.SYSTEM.SOLV>
0

>  <SCORE.SYSTEM.norm>
0

>  <SCORE.heavy>
10

>  <SCORE.norm>
-1.43933

>  <RMSD>
0.484

$$$$
ligand
 OpenBabel11021811513D
libRbt.so/2013.1/901 2013/11/27
 10 11  0  0  0  0  0  0  0  0999 V2000
  -30.0907   16.6925  -14.6423 N   0  0  0  0  0  0  0  0  0  0  0  0
  -30.9959   17.6161  -14.2962 C   0  0  0  0  0  0  0  0  0  0  0  0
  -31.5490   18.5684  -15.0454 N   0  0  0  0  0  0  0  0  0  0  0  0
  -31.0766   18.5222  -16.3008 C   0  0  0  0  0  0  0  0  0  0  0  0
  -30.1456   17.6351  -16.8046 C   0  0  0  0  0  0  0  0  0  0  0  0
  -29.6352   16.6719  -15.9115 C   0  0  0  0  0  0  0  0  0  0  0  0
  -28.7304   15.7506  -16.2603 N   0  0  0  0  0  0  0  0  0  0  0  0
  -29.9001   17.8879  -18.1436 N   0  0  0  0  0  0  0  0  0  0  0  0
  -30.6764   18.9105  -18.4174 C   0  0  0  0  0  0  0  0  0  0  0  0
  -31.4141   19.3450  -17.3516 N   0  0  0  0  0  0  0  0  0  0  0  0
  1  2  2  0  0  0  0
  1  6  1  0  0  0  0
  2  3  1  0  0  0  0
  3  4  2  0  0  0  0
  4  5  1  0  0  0  0
  4 10  1  0  0  0  0
  5  6  2  0  0  0  0
  5  8  1  0  0  0  0
  6  7  1  0  0  0  0
  8  9  1  0  0  0  0
  9 10  2  0  0  0  0
M  END
>  <CHROM.1>
-30.41491106,17.75150709,-16.31516158,1.13909453,-0.82771070,1.95587446

>  <Name>
ligand

>  <RI>
0

>  <Rbt.Current_Directory>
/home/itssahil/PROJECTS/Mol_Feturizer/New_Systems/rnas/4TZY

>  <Rbt.Executable>
rbdock ($Id: //depot/dev/client3/rdock/2013.1/src/exe/rbdock.cxx#4 $)

>  <Rbt.Library>
libRbt.so (2013.1, Build901 2013/11/27)

>  <Rbt.Parameter_File>
/export/apps/rDock/src/rDock_2013.1_src/data/scripts/dock_solv.prm

>  <Rbt.Receptor>
prm/blind_docking_80.prm

>  <SCORE>
-14.398

>  <SCORE.INTER>
-14.398

>  <SCORE.INTER.CONST>
1

>  <SCORE.INTER.POLAR>
0

>  <SCORE.INTER.ROT>
0

>  <SCORE.INTER.SOLV>
8.13518

>  <SCORE.INTER.VDW>
-15.9104

>  <SCORE.INTER.norm>
-1.4398

>  <SCORE.INTRA>
0

>  <SCORE.INTRA.DIHEDRAL>
0

>  <SCORE.INTRA.DIHEDRAL.0>
0

>  <SCORE.INTRA.POLAR>
0

>  <SCORE.INTRA.POLAR.0>
0

>  <SCORE.INTRA.REPUL>
0

>  <SCORE.INTRA.REPUL.0>
0

>  <SCORE.INTRA.SOLV>
0

>  <SCORE.INTRA.SOLV.lig_0>
-23.8941

>  <SCORE.INTRA.VDW>
0

>  <SCORE.INTRA.VDW.0>
0

>  <SCORE.INTRA.norm>
0

>  <SCORE.RESTR>
0

>  <SCORE.RESTR.CAVITY>
0

>  <SCORE.RESTR.norm>
0

>  <SCORE.SYSTEM>
0

>  <SCORE.SYSTEM.CONST>
0

>  <SCORE.SYSTEM.DIHEDRAL>
0

>  <SCORE.SYSTEM.SOLV>
0

>  <SCORE.SYSTEM.norm>
0

>  <SCORE.heavy>
10

>  <SCORE.norm>
-1.4398

>  <RMSD>
0.484

$$$$
ligand
 OpenBabel11021811513D
libRbt.so/2013.1/901 2013/11/27
 10 11  0  0  0  0  0  0  0  0999 V2000
  -30.0889   16.7032  -14.6308 N   0  0  0  0  0  0  0  0  0  0  0  0
  -30.9891   17.6314  -14.2838 C   0  0  0  0  0  0  0  0  0  0  0  0
  -31.5391   18.5857  -15.0327 N   0  0  0  0  0  0  0  0  0  0  0  0
  -31.0693   18.5363  -16.2889 C   0  0  0  0  0  0  0  0  0  0  0  0
  -30.1434   17.6443  -16.7937 C   0  0  0  0  0  0  0  0  0  0  0  0
  -29.6360   16.6794  -15.9009 C   0  0  0  0  0  0  0  0  0  0  0  0
  -28.7361   15.7537  -16.2506 N   0  0  0  0  0  0  0  0  0  0  0  0
  -29.8993   17.8950  -18.1334 N   0  0  0  0  0  0  0  0  0  0  0  0
  -30.6712   18.9210  -18.4066 C   0  0  0  0  0  0  0  0  0  0  0  0
  -31.4048   19.3598  -17.3397 N   0  0  0  0  0  0  0  0  0  0  0  0
  1  2  2  0  0  0  0
  1  6  1  0  0  0  0
  2  3  1  0  0  0  0
  3  4  2  0  0  0  0
  4  5  1  0  0  0  0
  4 10  1  0  0  0  0
  5  6  2  0  0  0  0
  5  8  1  0  0  0  0
  6  7  1  0  0  0  0
  8  9  1  0  0  0  0
  9 10  2  0  0  0  0
M  END
>  <CHROM.1>
-30.41128488,17.76243923,-16.30391304,1.13914749,-0.83280885,1.95511564

>  <Name>
ligand

>  <RI>
0

>  <Rbt.Current_Directory>
/home/itssahil/PROJECTS/Mol_Feturizer/New_Systems/rnas/4TZY

>  <Rbt.Executable>
rbdock ($Id: //depot/dev/client3/rdock/2013.1/src/exe/rbdock.cxx#4 $)

>  <Rbt.Library>
libRbt.so (2013.1, Build901 2013/11/27)

>  <Rbt.Parameter_File>
/export/apps/rDock/src/rDock_2013.1_src/data/scripts/dock_solv.prm

>  <Rbt.Receptor>
prm/blind_docking_80.prm

>  <SCORE>
-14.3636

>  <SCORE.INTER>
-14.3643

>  <SCORE.INTER.CONST>
1

>  <SCORE.INTER.POLAR>
0

>  <SCORE.INTER.ROT>
0

>  <SCORE.INTER.SOLV>
8.13214

>  <SCORE.INTER.VDW>
-15.8869

>  <SCORE.INTER.norm>
-1.43643

>  <SCORE.INTRA>
0

>  <SCORE.INTRA.DIHEDRAL>
0

>  <SCORE.INTRA.DIHEDRAL.0>
0

>  <SCORE.INTRA.POLAR>
0

>  <SCORE.INTRA.POLAR.0>
0

>  <SCORE.INTRA.REPUL>
0

>  <SCORE.INTRA.REPUL.0>
0

>  <SCORE.INTRA.SOLV>
0

>  <SCORE.INTRA.SOLV.lig_0>
-23.8941

>  <SCORE.INTRA.VDW>
0

>  <SCORE.INTRA.VDW.0>
0

>  <SCORE.INTRA.norm>
0

>  <SCORE.RESTR>
0.000713298

>  <SCORE.RESTR.CAVITY>
0.000713298

>  <SCORE.RESTR.norm>
7.13298e-05

>  <SCORE.SYSTEM>
0

>  <SCORE.SYSTEM.CONST>
0

>  <SCORE.SYSTEM.DIHEDRAL>
0

>  <SCORE.SYSTEM.SOLV>
0

>  <SCORE.SYSTEM.norm>
0

>  <SCORE.heavy>
10

>  <SCORE.norm>
-1.43636

>  <RMSD>
0.484

$$$$
ligand
 OpenBabel11021811513D
libRbt.so/2013.1/901 2013/11/27
 10 11  0  0  0  0  0  0  0  0999 V2000
  -30.0918   16.6744  -14.6395 N   0  0  0  0  0  0  0  0  0  0  0  0
  -31.0002   17.5935  -14.2894 C   0  0  0  0  0  0  0  0  0  0  0  0
  -31.5550   18.5484  -15.0339 N   0  0  0  0  0  0  0  0  0  0  0  0
  -31.0808   18.5106  -16.2889 C   0  0  0  0  0  0  0  0  0  0  0  0
  -30.1465   17.6290  -16.7964 C   0  0  0  0  0  0  0  0  0  0  0  0
  -29.6346   16.6622  -15.9082 C   0  0  0  0  0  0  0  0  0  0  0  0
  -28.7267   15.7456  -16.2609 N   0  0  0  0  0  0  0  0  0  0  0  0
  -29.9000   17.8901  -18.1337 N   0  0  0  0  0  0  0  0  0  0  0  0
  -30.6788   18.9120  -18.4027 C   0  0  0  0  0  0  0  0  0  0  0  0
  -31.4192   19.3383  -17.3355 N   0  0  0  0  0  0  0  0  0  0  0  0
  1  2  2  0  0  0  0
  1  6  1  0  0  0  0
  2  3  1  0  0  0  0
  3  4  2  0  0  0  0
  4  5  1  0  0  0  0
  4 10  1  0  0  0  0
  5  6  2  0  0  0  0
  5  8  1  0  0  0  0
  6  7  1  0  0  0  0
  8  9  1  0  0  0  0
  9 10  2  0  0  0  0
M  END
>  <CHROM.1>
-30.41685075,17.74188625,-16.30674092,1.13934144,-0.82454855,1.96170420

>  <Name>
ligand

>  <RI>
0

>  <Rbt.Current_Directory>
/home/itssahil/PROJECTS/Mol_Feturizer/New_Systems/rnas/4TZY

>  <Rbt.Executable>
rbdock ($Id: //depot/dev/client3/rdock/2013.1/src/exe/rbdock.cxx#4 $)

>  <Rbt.Library>
libRbt.so (2013.1, Build901 2013/11/27)

>  <Rbt.Parameter_File>
/export/apps/rDock/src/rDock_2013.1_src/data/scripts/dock_solv.prm

>  <Rbt.Receptor>
prm/pocket_docking_4.prm

>  <SCORE>
-14.3584

>  <SCORE.INTER>
-14.3584

>  <SCORE.INTER.CONST>
1

>  <SCORE.INTER.POLAR>
0

>  <SCORE.INTER.ROT>
0

>  <SCORE.INTER.SOLV>
8.14085

>  <SCORE.INTER.VDW>
-15.8859

>  <SCORE.INTER.norm>
-1.43584

>  <SCORE.INTRA>
0

>  <SCORE.INTRA.DIHEDRAL>
0

>  <SCORE.INTRA.DIHEDRAL.0>
0

>  <SCORE.INTRA.POLAR>
0

>  <SCORE.INTRA.POLAR.0>
0

>  <SCORE.INTRA.REPUL>
0

>  <SCORE.INTRA.REPUL.0>
0

>  <SCORE.INTRA.SOLV>
0

>  <SCORE.INTRA.SOLV.lig_0>
-23.8941

>  <SCORE.INTRA.VDW>
0

>  <SCORE.INTRA.VDW.0>
0

>  <SCORE.INTRA.norm>
0

>  <SCORE.RESTR>
1.07773e-05

>  <SCORE.RESTR.CAVITY>
1.07773e-05

>  <SCORE.RESTR.norm>
1.07773e-06

>  <SCORE.SYSTEM>
0

>  <SCORE.SYSTEM.CONST>
0

>  <SCORE.SYSTEM.DIHEDRAL>
0

>  <SCORE.SYSTEM.SOLV>
0

>  <SCORE.SYSTEM.norm>
0

>  <SCORE.heavy>
10

>  <SCORE.norm>
-1.43584

>  <RMSD>
0.484

$$$$
ligand
 OpenBabel11021811513D
libRbt.so/2013.1/901 2013/11/27
 10 11  0  0  0  0  0  0  0  0999 V2000
  -30.0915   16.6928  -14.6428 N   0  0  0  0  0  0  0  0  0  0  0  0
  -30.9969   17.6164  -14.2970 C   0  0  0  0  0  0  0  0  0  0  0  0
  -31.5497   18.5688  -15.0463 N   0  0  0  0  0  0  0  0  0  0  0  0
  -31.0769   18.5226  -16.3016 C   0  0  0  0  0  0  0  0  0  0  0  0
  -30.1458   17.6354  -16.8051 C   0  0  0  0  0  0  0  0  0  0  0  0
  -29.6357   16.6721  -15.9119 C   0  0  0  0  0  0  0  0  0  0  0  0
  -28.7308   15.7509  -16.2604 N   0  0  0  0  0  0  0  0  0  0  0  0
  -29.8999   17.8883  -18.1440 N   0  0  0  0  0  0  0  0  0  0  0  0
  -30.6761   18.9109  -18.4180 C   0  0  0  0  0  0  0  0  0  0  0  0
  -31.4140   19.3454  -17.3524 N   0  0  0  0  0  0  0  0  0  0  0  0
  1  2  2  0  0  0  0
  1  6  1  0  0  0  0
  2  3  1  0  0  0  0
  3  4  2  0  0  0  0
  4  5  1  0  0  0  0
  4 10  1  0  0  0  0
  5  6  2  0  0  0  0
  5  8  1  0  0  0  0
  6  7  1  0  0  0  0
  8  9  1  0  0  0  0
  9 10  2  0  0  0  0
M  END
>  <CHROM.1>
-30.41524679,17.75183716,-16.31574554,1.13952902,-0.82763822,1.95623137

>  <Name>
ligand

>  <RI>
0

>  <Rbt.Current_Directory>
/home/itssahil/PROJECTS/Mol_Feturizer/New_Systems/rnas/4TZY

>  <Rbt.Executable>
rbdock ($Id: //depot/dev/client3/rdock/2013.1/src/exe/rbdock.cxx#4 $)

>  <Rbt.Library>
libRbt.so (2013.1, Build901 2013/11/27)

>  <Rbt.Parameter_File>
/export/apps/rDock/src/rDock_2013.1_src/data/scripts/dock_solv.prm

>  <Rbt.Receptor>
prm/pocket_docking_4.prm

>  <SCORE>
-14.3979

>  <SCORE.INTER>
-14.398

>  <SCORE.INTER.CONST>
1

>  <SCORE.INTER.POLAR>
0

>  <SCORE.INTER.ROT>
0

>  <SCORE.INTER.SOLV>
8.13564

>  <SCORE.INTER.VDW>
-15.9105

>  <SCORE.INTER.norm>
-1.4398

>  <SCORE.INTRA>
0

>  <SCORE.INTRA.DIHEDRAL>
0

>  <SCORE.INTRA.DIHEDRAL.0>
0

>  <SCORE.INTRA.POLAR>
0

>  <SCORE.INTRA.POLAR.0>
0

>  <SCORE.INTRA.REPUL>
0

>  <SCORE.INTRA.REPUL.0>
0

>  <SCORE.INTRA.SOLV>
0

>  <SCORE.INTRA.SOLV.lig_0>
-23.8941

>  <SCORE.INTRA.VDW>
0

>  <SCORE.INTRA.VDW.0>
0

>  <SCORE.INTRA.norm>
0

>  <SCORE.RESTR>
0.000106518

>  <SCORE.RESTR.CAVITY>
0.000106518

>  <SCORE.RESTR.norm>
1.06518e-05

>  <SCORE.SYSTEM>
0

>  <SCORE.SYSTEM.CONST>
0

>  <SCORE.SYSTEM.DIHEDRAL>
0

>  <SCORE.SYSTEM.SOLV>
0

>  <SCORE.SYSTEM.norm>
0

>  <SCORE.heavy>
10

>  <SCORE.norm>
-1.43979

>  <RMSD>
0.484

$$$$
ligand
 OpenBabel11021811513D
libRbt.so/2013.1/901 2013/11/27
 10 11  0  0  0  0  0  0  0  0999 V2000
  -30.0611   16.7289  -14.6247 N   0  0  0  0  0  0  0  0  0  0  0  0
  -30.9878   17.6346  -14.2881 C   0  0  0  0  0  0  0  0  0  0  0  0
  -31.5635   18.5654  -15.0472 N   0  0  0  0  0  0  0  0  0  0  0  0
  -31.0906   18.5167  -16.3023 C   0  0  0  0  0  0  0  0  0  0  0  0
  -30.1391   17.6463  -16.7970 C   0  0  0  0  0  0  0  0  0  0  0  0
  -29.6058   16.7052  -15.8939 C   0  0  0  0  0  0  0  0  0  0  0  0
  -28.6795   15.8019  -16.2332 N   0  0  0  0  0  0  0  0  0  0  0  0
  -29.9002   17.8904  -18.1389 N   0  0  0  0  0  0  0  0  0  0  0  0
  -30.7006   18.8913  -18.4232 C   0  0  0  0  0  0  0  0  0  0  0  0
  -31.4479   19.3198  -17.3617 N   0  0  0  0  0  0  0  0  0  0  0  0
  1  2  2  0  0  0  0
  1  6  1  0  0  0  0
  2  3  1  0  0  0  0
  3  4  2  0  0  0  0
  4  5  1  0  0  0  0
  4 10  1  0  0  0  0
  5  6  2  0  0  0  0
  5  8  1  0  0  0  0
  6  7  1  0  0  0  0
  8  9  1  0  0  0  0
  9 10  2  0  0  0  0
M  END
>  <CHROM.1>
-30.41091634,17.76169063,-16.30872750,1.12573407,-0.80591187,1.93527128

>  <Name>
ligand

>  <RI>
0

>  <Rbt.Current_Directory>
/home/itssahil/PROJECTS/Mol_Feturizer/New_Systems/rnas/4TZY

>  <Rbt.Executable>
rbdock ($Id: //depot/dev/client3/rdock/2013.1/src/exe/rbdock.cxx#4 $)

>  <Rbt.Library>
libRbt.so (2013.1, Build901 2013/11/27)

>  <Rbt.Parameter_File>
/export/apps/rDock/src/rDock_2013.1_src/data/scripts/dock_solv.prm

>  <Rbt.Receptor>
prm/pocket_docking_4.prm

>  <SCORE>
-14.3589

>  <SCORE.INTER>
-14.3589

>  <SCORE.INTER.CONST>
1

>  <SCORE.INTER.POLAR>
0

>  <SCORE.INTER.ROT>
0

>  <SCORE.INTER.SOLV>
7.92093

>  <SCORE.INTER.VDW>
-15.8129

>  <SCORE.INTER.norm>
-1.43589

>  <SCORE.INTRA>
0

>  <SCORE.INTRA.DIHEDRAL>
0

>  <SCORE.INTRA.DIHEDRAL.0>
0

>  <SCORE.INTRA.POLAR>
0

>  <SCORE.INTRA.POLAR.0>
0

>  <SCORE.INTRA.REPUL>
0

>  <SCORE.INTRA.REPUL.0>
0

>  <SCORE.INTRA.SOLV>
0

>  <SCORE.INTRA.SOLV.lig_0>
-23.8941

>  <SCORE.INTRA.VDW>
0

>  <SCORE.INTRA.VDW.0>
0

>  <SCORE.INTRA.norm>
0

>  <SCORE.RESTR>
0

>  <SCORE.RESTR.CAVITY>
0

>  <SCORE.RESTR.norm>
0

>  <SCORE.SYSTEM>
0

>  <SCORE.SYSTEM.CONST>
0

>  <SCORE.SYSTEM.DIHEDRAL>
0

>  <SCORE.SYSTEM.SOLV>
0

>  <SCORE.SYSTEM.norm>
0

>  <SCORE.heavy>
10

>  <SCORE.norm>
-1.43589

>  <RMSD>
0.484

$$$$
ligand
 OpenBabel11021811513D
libRbt.so/2013.1/901 2013/11/27
 10 11  0  0  0  0  0  0  0  0999 V2000
  -30.1054   16.6831  -14.6397 N   0  0  0  0  0  0  0  0  0  0  0  0
  -31.0107   17.6068  -14.2938 C   0  0  0  0  0  0  0  0  0  0  0  0
  -31.5596   18.5625  -15.0417 N   0  0  0  0  0  0  0  0  0  0  0  0
  -31.0826   18.5200  -16.2955 C   0  0  0  0  0  0  0  0  0  0  0  0
  -30.1509   17.6333  -16.7988 C   0  0  0  0  0  0  0  0  0  0  0  0
  -29.6452   16.6663  -15.9073 C   0  0  0  0  0  0  0  0  0  0  0  0
  -28.7403   15.7451  -16.2558 N   0  0  0  0  0  0  0  0  0  0  0  0
  -29.9000   17.8906  -18.1360 N   0  0  0  0  0  0  0  0  0  0  0  0
  -30.6739   18.9151  -18.4091 C   0  0  0  0  0  0  0  0  0  0  0  0
  -31.4150   19.3469  -17.3446 N   0  0  0  0  0  0  0  0  0  0  0  0
  1  2  2  0  0  0  0
  1  6  1  0  0  0  0
  2  3  1  0  0  0  0
  3  4  2  0  0  0  0
  4  5  1  0  0  0  0
  4 10  1  0  0  0  0
  5  6  2  0  0  0  0
  5  8  1  0  0  0  0
  6  7  1  0  0  0  0
  8  9  1  0  0  0  0
  9 10  2  0  0  0  0
M  END
>  <CHROM.1>
-30.42189488,17.74843291,-16.31002611,1.14500596,-0.82755017,1.96372819

>  <Name>
ligand

>  <RI>
0

>  <Rbt.Current_Directory>
/home/itssahil/PROJECTS/Mol_Feturizer/New_Systems/rnas/4TZY

>  <Rbt.Executable>
rbdock ($Id: //depot/dev/client3/rdock/2013.1/src/exe/rbdock.cxx#4 $)

>  <Rbt.Library>
libRbt.so (2013.1, Build901 2013/11/27)

>  <Rbt.Parameter_File>
/export/apps/rDock/src/rDock_2013.1_src/data/scripts/dock_solv.prm

>  <Rbt.Receptor>
prm/pocket_docking_5.prm

>  <SCORE>
-14.3933

>  <SCORE.INTER>
-14.3933

>  <SCORE.INTER.CONST>
1

>  <SCORE.INTER.POLAR>
0

>  <SCORE.INTER.ROT>
0

>  <SCORE.INTER.SOLV>
8.16071

>  <SCORE.INTER.VDW>
-15.9158

>  <SCORE.INTER.norm>
-1.43933

>  <SCORE.INTRA>
0

>  <SCORE.INTRA.DIHEDRAL>
0

>  <SCORE.INTRA.DIHEDRAL.0>
0

>  <SCORE.INTRA.POLAR>
0

>  <SCORE.INTRA.POLAR.0>
0

>  <SCORE.INTRA.REPUL>
0

>  <SCORE.INTRA.REPUL.0>
0

>  <SCORE.INTRA.SOLV>
0

>  <SCORE.INTRA.SOLV.lig_0>
-23.8941

>  <SCORE.INTRA.VDW>
0

>  <SCORE.INTRA.VDW.0>
0

>  <SCORE.INTRA.norm>
0

>  <SCORE.RESTR>
0

>  <SCORE.RESTR.CAVITY>
0

>  <SCORE.RESTR.norm>
0

>  <SCORE.SYSTEM>
0

>  <SCORE.SYSTEM.CONST>
0

>  <SCORE.SYSTEM.DIHEDRAL>
0

>  <SCORE.SYSTEM.SOLV>
0

>  <SCORE.SYSTEM.norm>
0

>  <SCORE.heavy>
10

>  <SCORE.norm>
-1.43933

>  <RMSD>
0.484

$$$$
ligand
 OpenBabel11021811513D
libRbt.so/2013.1/901 2013/11/27
 10 11  0  0  0  0  0  0  0  0999 V2000
  -30.0884   16.7115  -14.6070 N   0  0  0  0  0  0  0  0  0  0  0  0
  -31.0222   17.6108  -14.2727 C   0  0  0  0  0  0  0  0  0  0  0  0
  -31.5949   18.5443  -15.0306 N   0  0  0  0  0  0  0  0  0  0  0  0
  -31.1102   18.5065  -16.2816 C   0  0  0  0  0  0  0  0  0  0  0  0
  -30.1504   17.6437  -16.7735 C   0  0  0  0  0  0  0  0  0  0  0  0
  -29.6213   16.6987  -15.8720 C   0  0  0  0  0  0  0  0  0  0  0  0
  -28.6879   15.8018  -16.2090 N   0  0  0  0  0  0  0  0  0  0  0  0
  -29.9001   17.8982  -18.1114 N   0  0  0  0  0  0  0  0  0  0  0  0
  -30.7022   18.8975  -18.3962 C   0  0  0  0  0  0  0  0  0  0  0  0
  -31.4612   19.3153  -17.3387 N   0  0  0  0  0  0  0  0  0  0  0  0
  1  2  2  0  0  0  0
  1  6  1  0  0  0  0
  2  3  1  0  0  0  0
  3  4  2  0  0  0  0
  4  5  1  0  0  0  0
  4 10  1  0  0  0  0
  5  6  2  0  0  0  0
  5  8  1  0  0  0  0
  6  7  1  0  0  0  0
  8  9  1  0  0  0  0
  9 10  2  0  0  0  0
M  END
>  <CHROM.1>
-30.42717463,17.75450300,-16.28696949,1.13589578,-0.79844904,1.94953480

>  <Name>
ligand

>  <RI>
0

>  <Rbt.Current_Directory>
/home/itssahil/PROJECTS/Mol_Feturizer/New_Systems/rnas/4TZY

>  <Rbt.Executable>
rbdock ($Id: //depot/dev/client3/rdock/2013.1/src/exe/rbdock.cxx#4 $)

>  <Rbt.Library>
libRbt.so (2013.1, Build901 2013/11/27)

>  <Rbt.Parameter_File>
/export/apps/rDock/src/rDock_2013.1_src/data/scripts/dock_solv.prm

>  <Rbt.Receptor>
prm/pocket_docking_5.prm

>  <SCORE>
-14.3916

>  <SCORE.INTER>
-14.3916

>  <SCORE.INTER.CONST>
1

>  <SCORE.INTER.POLAR>
0

>  <SCORE.INTER.ROT>
0

>  <SCORE.INTER.SOLV>
7.89759

>  <SCORE.INTER.VDW>
-15.827

>  <SCORE.INTER.norm>
-1.43916

>  <SCORE.INTRA>
0

>  <SCORE.INTRA.DIHEDRAL>
0

>  <SCORE.INTRA.DIHEDRAL.0>
0

>  <SCORE.INTRA.POLAR>
0

>  <SCORE.INTRA.POLAR.0>
0

>  <SCORE.INTRA.REPUL>
0

>  <SCORE.INTRA.REPUL.0>
0

>  <SCORE.INTRA.SOLV>
0

>  <SCORE.INTRA.SOLV.lig_0>
-23.8941

>  <SCORE.INTRA.VDW>
0

>  <SCORE.INTRA.VDW.0>
0

>  <SCORE.INTRA.norm>
0

>  <SCORE.RESTR>
0

>  <SCORE.RESTR.CAVITY>
0

>  <SCORE.RESTR.norm>
0

>  <SCORE.SYSTEM>
0

>  <SCORE.SYSTEM.CONST>
0

>  <SCORE.SYSTEM.DIHEDRAL>
0

>  <SCORE.SYSTEM.SOLV>
0

>  <SCORE.SYSTEM.norm>
0

>  <SCORE.heavy>
10

>  <SCORE.norm>
-1.43916

>  <RMSD>
0.484

$$$$
ligand
 OpenBabel11021811513D
libRbt.so/2013.1/901 2013/11/27
 10 11  0  0  0  0  0  0  0  0999 V2000
  -30.0900   16.6909  -14.6464 N   0  0  0  0  0  0  0  0  0  0  0  0
  -30.9923   17.6168  -14.2988 C   0  0  0  0  0  0  0  0  0  0  0  0
  -31.5436   18.5710  -15.0468 N   0  0  0  0  0  0  0  0  0  0  0  0
  -31.0727   18.5242  -16.3028 C   0  0  0  0  0  0  0  0  0  0  0  0
  -30.1447   17.6348  -16.8080 C   0  0  0  0  0  0  0  0  0  0  0  0
  -29.6360   16.6697  -15.9161 C   0  0  0  0  0  0  0  0  0  0  0  0
  -28.7340   15.7462  -16.2664 N   0  0  0  0  0  0  0  0  0  0  0  0
  -29.9000   17.8878  -18.1472 N   0  0  0  0  0  0  0  0  0  0  0  0
  -30.6738   18.9126  -18.4196 C   0  0  0  0  0  0  0  0  0  0  0  0
  -31.4091   19.3485  -17.3527 N   0  0  0  0  0  0  0  0  0  0  0  0
  1  2  2  0  0  0  0
  1  6  1  0  0  0  0
  2  3  1  0  0  0  0
  3  4  2  0  0  0  0
  4  5  1  0  0  0  0
  4 10  1  0  0  0  0
  5  6  2  0  0  0  0
  5  8  1  0  0  0  0
  6  7  1  0  0  0  0
  8  9  1  0  0  0  0
  9 10  2  0  0  0  0
M  END
>  <CHROM.1>
-30.41317714,17.75170823,-16.31828212,1.13909068,-0.83065584,1.95642373

>  <Name>
ligand

>  <RI>
0

>  <Rbt.Current_Directory>
/home/itssahil/PROJECTS/Mol_Feturizer/New_Systems/rnas/4TZY

>  <Rbt.Executable>
rbdock ($Id: //depot/dev/client3/rdock/2013.1/src/exe/rbdock.cxx#4 $)

>  <Rbt.Library>
libRbt.so (2013.1, Build901 2013/11/27)

>  <Rbt.Parameter_File>
/export/apps/rDock/src/rDock_2013.1_src/data/scripts/dock_solv.prm

>  <Rbt.Receptor>
prm/pocket_docking_5.prm

>  <SCORE>
-14.3977

>  <SCORE.INTER>
-14.3977

>  <SCORE.INTER.CONST>
1

>  <SCORE.INTER.POLAR>
0

>  <SCORE.INTER.ROT>
0

>  <SCORE.INTER.SOLV>
8.16084

>  <SCORE.INTER.VDW>
-15.9187

>  <SCORE.INTER.norm>
-1.43977

>  <SCORE.INTRA>
0

>  <SCORE.INTRA.DIHEDRAL>
0

>  <SCORE.INTRA.DIHEDRAL.0>
0

>  <SCORE.INTRA.POLAR>
0

>  <SCORE.INTRA.POLAR.0>
0

>  <SCORE.INTRA.REPUL>
0

>  <SCORE.INTRA.REPUL.0>
0

>  <SCORE.INTRA.SOLV>
0

>  <SCORE.INTRA.SOLV.lig_0>
-23.8941

>  <SCORE.INTRA.VDW>
0

>  <SCORE.INTRA.VDW.0>
0

>  <SCORE.INTRA.norm>
0

>  <SCORE.RESTR>
0

>  <SCORE.RESTR.CAVITY>
0

>  <SCORE.RESTR.norm>
0

>  <SCORE.SYSTEM>
0

>  <SCORE.SYSTEM.CONST>
0

>  <SCORE.SYSTEM.DIHEDRAL>
0

>  <SCORE.SYSTEM.SOLV>
0

>  <SCORE.SYSTEM.norm>
0

>  <SCORE.heavy>
10

>  <SCORE.norm>
-1.43977

>  <RMSD>
0.484

$$$$
ligand
 OpenBabel11021811513D
libRbt.so/2013.1/901 2013/11/27
 10 11  0  0  0  0  0  0  0  0999 V2000
  -30.0909   16.7035  -14.6316 N   0  0  0  0  0  0  0  0  0  0  0  0
  -31.0060   17.6193  -14.2909 C   0  0  0  0  0  0  0  0  0  0  0  0
  -31.5656   18.5644  -15.0443 N   0  0  0  0  0  0  0  0  0  0  0  0
  -31.0885   18.5196  -16.2980 C   0  0  0  0  0  0  0  0  0  0  0  0
  -30.1475   17.6401  -16.7964 C   0  0  0  0  0  0  0  0  0  0  0  0
  -29.6310   16.6840  -15.8993 C   0  0  0  0  0  0  0  0  0  0  0  0
  -28.7163   15.7705  -16.2427 N   0  0  0  0  0  0  0  0  0  0  0  0
  -29.8999   17.8919  -18.1353 N   0  0  0  0  0  0  0  0  0  0  0  0
  -30.6849   18.9064  -18.4142 C   0  0  0  0  0  0  0  0  0  0  0  0
  -31.4303   19.3365  -17.3520 N   0  0  0  0  0  0  0  0  0  0  0  0
  1  2  2  0  0  0  0
  1  6  1  0  0  0  0
  2  3  1  0  0  0  0
  3  4  2  0  0  0  0
  4  5  1  0  0  0  0
  4 10  1  0  0  0  0
  5  6  2  0  0  0  0
  5  8  1  0  0  0  0
  6  7  1  0  0  0  0
  8  9  1  0  0  0  0
  9 10  2  0  0  0  0
M  END
>  <CHROM.1>
-30.41952618,17.75515442,-16.30823259,1.13845041,-0.81764364,1.95290014

>  <Name>
ligand

>  <RI>
0

>  <Rbt.Current_Directory>
/home/itssahil/PROJECTS/Mol_Feturizer/New_Systems/rnas/4TZY

>  <Rbt.Executable>
rbdock ($Id: //depot/dev/client3/rdock/2013.1/src/exe/rbdock.cxx#4 $)

>  <Rbt.Library>
libRbt.so (2013.1, Build901 2013/11/27)

>  <Rbt.Parameter_File>
/export/apps/rDock/src/rDock_2013.1_src/data/scripts/dock_solv.prm

>  <Rbt.Receptor>
prm/pocket_docking_6.prm

>  <SCORE>
-14.3932

>  <SCORE.INTER>
-14.3933

>  <SCORE.INTER.CONST>
1

>  <SCORE.INTER.POLAR>
0

>  <SCORE.INTER.ROT>
0

>  <SCORE.INTER.SOLV>
8.05132

>  <SCORE.INTER.VDW>
-15.8793

>  <SCORE.INTER.norm>
-1.43933

>  <SCORE.INTRA>
0

>  <SCORE.INTRA.DIHEDRAL>
0

>  <SCORE.INTRA.DIHEDRAL.0>
0

>  <SCORE.INTRA.POLAR>
0

>  <SCORE.INTRA.POLAR.0>
0

>  <SCORE.INTRA.REPUL>
0

>  <SCORE.INTRA.REPUL.0>
0

>  <SCORE.INTRA.SOLV>
0

>  <SCORE.INTRA.SOLV.lig_0>
-23.8941

>  <SCORE.INTRA.VDW>
0

>  <SCORE.INTRA.VDW.0>
0

>  <SCORE.INTRA.norm>
0

>  <SCORE.RESTR>
0.000119242

>  <SCORE.RESTR.CAVITY>
0.000119242

>  <SCORE.RESTR.norm>
1.19242e-05

>  <SCORE.SYSTEM>
0

>  <SCORE.SYSTEM.CONST>
0

>  <SCORE.SYSTEM.DIHEDRAL>
0

>  <SCORE.SYSTEM.SOLV>
0

>  <SCORE.SYSTEM.norm>
0

>  <SCORE.heavy>
10

>  <SCORE.norm>
-1.43932

>  <RMSD>
0.484

$$$$
ligand
 OpenBabel11021811513D
libRbt.so/2013.1/901 2013/11/27
 10 11  0  0  0  0  0  0  0  0999 V2000
  -30.1047   16.7028  -14.6230 N   0  0  0  0  0  0  0  0  0  0  0  0
  -31.0071   17.6300  -14.2792 C   0  0  0  0  0  0  0  0  0  0  0  0
  -31.5543   18.5847  -15.0297 N   0  0  0  0  0  0  0  0  0  0  0  0
  -31.0787   18.5367  -16.2839 C   0  0  0  0  0  0  0  0  0  0  0  0
  -30.1500   17.6459  -16.7853 C   0  0  0  0  0  0  0  0  0  0  0  0
  -29.6460   16.6804  -15.8910 C   0  0  0  0  0  0  0  0  0  0  0  0
  -28.7439   15.7556  -16.2375 N   0  0  0  0  0  0  0  0  0  0  0  0
  -29.8999   17.8979  -18.1236 N   0  0  0  0  0  0  0  0  0  0  0  0
  -30.6712   18.9237  -18.3993 C   0  0  0  0  0  0  0  0  0  0  0  0
  -31.4100   19.3610  -17.3354 N   0  0  0  0  0  0  0  0  0  0  0  0
  1  2  2  0  0  0  0
  1  6  1  0  0  0  0
  2  3  1  0  0  0  0
  3  4  2  0  0  0  0
  4  5  1  0  0  0  0
  4 10  1  0  0  0  0
  5  6  2  0  0  0  0
  5  8  1  0  0  0  0
  6  7  1  0  0  0  0
  8  9  1  0  0  0  0
  9 10  2  0  0  0  0
M  END
>  <CHROM.1>
-30.42014033,17.76332690,-16.29657838,1.14506812,-0.83047972,1.96044180

>  <Name>
ligand

>  <RI>
0

>  <Rbt.Current_Directory>
/home/itssahil/PROJECTS/Mol_Feturizer/New_Systems/rnas/4TZY

>  <Rbt.Executable>
rbdock ($Id: //depot/dev/client3/rdock/2013.1/src/exe/rbdock.cxx#4 $)

>  <Rbt.Library>
libRbt.so (2013.1, Build901 2013/11/27)

>  <Rbt.Parameter_File>
/export/apps/rDock/src/rDock_2013.1_src/data/scripts/dock_solv.prm

>  <Rbt.Receptor>
prm/pocket_docking_6.prm

>  <SCORE>
-14.3542

>  <SCORE.INTER>
-14.3543

>  <SCORE.INTER.CONST>
1

>  <SCORE.INTER.POLAR>
0

>  <SCORE.INTER.ROT>
0

>  <SCORE.INTER.SOLV>
8.13044

>  <SCORE.INTER.VDW>
-15.8797

>  <SCORE.INTER.norm>
-1.43543

>  <SCORE.INTRA>
0

>  <SCORE.INTRA.DIHEDRAL>
0

>  <SCORE.INTRA.DIHEDRAL.0>
0

>  <SCORE.INTRA.POLAR>
0

>  <SCORE.INTRA.POLAR.0>
0

>  <SCORE.INTRA.REPUL>
0

>  <SCORE.INTRA.REPUL.0>
0

>  <SCORE.INTRA.SOLV>
0

>  <SCORE.INTRA.SOLV.lig_0>
-23.8941

>  <SCORE.INTRA.VDW>
0

>  <SCORE.INTRA.VDW.0>
0

>  <SCORE.INTRA.norm>
0

>  <SCORE.RESTR>
0.000130666

>  <SCORE.RESTR.CAVITY>
0.000130666

>  <SCORE.RESTR.norm>
1.30666e-05

>  <SCORE.SYSTEM>
0

>  <SCORE.SYSTEM.CONST>
0

>  <SCORE.SYSTEM.DIHEDRAL>
0

>  <SCORE.SYSTEM.SOLV>
0

>  <SCORE.SYSTEM.norm>
0

>  <SCORE.heavy>
10

>  <SCORE.norm>
-1.43542

>  <RMSD>
0.484

$$$$
ligand
 OpenBabel11021811513D
libRbt.so/2013.1/901 2013/11/27
 10 11  0  0  0  0  0  0  0  0999 V2000
  -30.0878   16.7026  -14.6253 N   0  0  0  0  0  0  0  0  0  0  0  0
  -31.0110   17.6108  -14.2859 C   0  0  0  0  0  0  0  0  0  0  0  0
  -31.5767   18.5517  -15.0400 N   0  0  0  0  0  0  0  0  0  0  0  0
  -31.0969   18.5113  -16.2928 C   0  0  0  0  0  0  0  0  0  0  0  0
  -30.1478   17.6397  -16.7897 C   0  0  0  0  0  0  0  0  0  0  0  0
  -29.6254   16.6874  -15.8920 C   0  0  0  0  0  0  0  0  0  0  0  0
  -28.7026   15.7815  -16.2340 N   0  0  0  0  0  0  0  0  0  0  0  0
  -29.8997   17.8942  -18.1280 N   0  0  0  0  0  0  0  0  0  0  0  0
  -30.6924   18.9023  -18.4080 C   0  0  0  0  0  0  0  0  0  0  0  0
  -31.4433   19.3259  -17.3470 N   0  0  0  0  0  0  0  0  0  0  0  0
  1  2  2  0  0  0  0
  1  6  1  0  0  0  0
  2  3  1  0  0  0  0
  3  4  2  0  0  0  0
  4  5  1  0  0  0  0
  4 10  1  0  0  0  0
  5  6  2  0  0  0  0
  5  8  1  0  0  0  0
  6  7  1  0  0  0  0
  8  9  1  0  0  0  0
  9 10  2  0  0  0  0
M  END
>  <CHROM.1>
-30.42175053,17.75233216,-16.30200816,1.13667480,-0.80941350,1.95206235

>  <Name>
ligand

>  <RI>
0

>  <Rbt.Current_Directory>
/home/itssahil/PROJECTS/Mol_Feturizer/New_Systems/rnas/4TZY

>  <Rbt.Executable>
rbdock ($Id: //depot/dev/client3/rdock/2013.1/src/exe/rbdock.cxx#4 $)

>  <Rbt.Library>
libRbt.so (2013.1, Build901 2013/11/27)

>  <Rbt.Parameter_File>
/export/apps/rDock/src/rDock_2013.1_src/data/scripts/dock_solv.prm

>  <Rbt.Receptor>
prm/pocket_docking_6.prm

>  <SCORE>
-14.3928

>  <SCORE.INTER>
-14.3931

>  <SCORE.INTER.CONST>
1

>  <SCORE.INTER.POLAR>
0

>  <SCORE.INTER.ROT>
0

>  <SCORE.INTER.SOLV>
7.99479

>  <SCORE.INTER.VDW>
-15.8603

>  <SCORE.INTER.norm>
-1.43931

>  <SCORE.INTRA>
0

>  <SCORE.INTRA.DIHEDRAL>
0

>  <SCORE.INTRA.DIHEDRAL.0>
0

>  <SCORE.INTRA.POLAR>
0

>  <SCORE.INTRA.POLAR.0>
0

>  <SCORE.INTRA.REPUL>
0

>  <SCORE.INTRA.REPUL.0>
0

>  <SCORE.INTRA.SOLV>
0

>  <SCORE.INTRA.SOLV.lig_0>
-23.8941

>  <SCORE.INTRA.VDW>
0

>  <SCORE.INTRA.VDW.0>
0

>  <SCORE.INTRA.norm>
0

>  <SCORE.RESTR>
0.00029947

>  <SCORE.RESTR.CAVITY>
0.00029947

>  <SCORE.RESTR.norm>
2.9947e-05

>  <SCORE.SYSTEM>
0

>  <SCORE.SYSTEM.CONST>
0

>  <SCORE.SYSTEM.DIHEDRAL>
0

>  <SCORE.SYSTEM.SOLV>
0

>  <SCORE.SYSTEM.norm>
0

>  <SCORE.heavy>
10

>  <SCORE.norm>
-1.43928

>  <RMSD>
0.484

$$$$
ligand
 OpenBabel11021811513D
libRbt.so/2013.1/901 2013/11/27
 10 11  0  0  0  0  0  0  0  0999 V2000
  -30.0888   16.7142  -14.6006 N   0  0  0  0  0  0  0  0  0  0  0  0
  -31.0275   17.6092  -14.2687 C   0  0  0  0  0  0  0  0  0  0  0  0
  -31.6036   18.5392  -15.0285 N   0  0  0  0  0  0  0  0  0  0  0  0
  -31.1166   18.5025  -16.2786 C   0  0  0  0  0  0  0  0  0  0  0  0
  -30.1517   17.6440  -16.7681 C   0  0  0  0  0  0  0  0  0  0  0  0
  -29.6195   16.7024  -15.8648 C   0  0  0  0  0  0  0  0  0  0  0  0
  -28.6812   15.8098  -16.1994 N   0  0  0  0  0  0  0  0  0  0  0  0
  -29.9005   17.8984  -18.1058 N   0  0  0  0  0  0  0  0  0  0  0  0
  -30.7070   18.8935  -18.3929 C   0  0  0  0  0  0  0  0  0  0  0  0
  -31.4698   19.3086  -17.3371 N   0  0  0  0  0  0  0  0  0  0  0  0
  1  2  2  0  0  0  0
  1  6  1  0  0  0  0
  2  3  1  0  0  0  0
  3  4  2  0  0  0  0
  4  5  1  0  0  0  0
  4 10  1  0  0  0  0
  5  6  2  0  0  0  0
  5  8  1  0  0  0  0
  6  7  1  0  0  0  0
  8  9  1  0  0  0  0
  9 10  2  0  0  0  0
M  END
>  <CHROM.1>
-30.42990605,17.75385995,-16.28213565,1.13550953,-0.79328955,1.94829372

>  <Name>
ligand

>  <RI>
0

>  <Rbt.Current_Directory>
/home/itssahil/PROJECTS/Mol_Feturizer/New_Systems/rnas/4TZY

>  <Rbt.Executable>
rbdock ($Id: //depot/dev/client3/rdock/2013.1/src/exe/rbdock.cxx#4 $)

>  <Rbt.Library>
libRbt.so (2013.1, Build901 2013/11/27)

>  <Rbt.Parameter_File>
/export/apps/rDock/src/rDock_2013.1_src/data/scripts/dock_solv.prm

>  <Rbt.Receptor>
prm/pocket_docking_6.prm

>  <SCORE>
-14.3545

>  <SCORE.INTER>
-14.3545

>  <SCORE.INTER.CONST>
1

>  <SCORE.INTER.POLAR>
0

>  <SCORE.INTER.ROT>
0

>  <SCORE.INTER.SOLV>
7.85666

>  <SCORE.INTER.VDW>
-15.7885

>  <SCORE.INTER.norm>
-1.43545

>  <SCORE.INTRA>
0

>  <SCORE.INTRA.DIHEDRAL>
0

>  <SCORE.INTRA.DIHEDRAL.0>
0

>  <SCORE.INTRA.POLAR>
0

>  <SCORE.INTRA.POLAR.0>
0

>  <SCORE.INTRA.REPUL>
0

>  <SCORE.INTRA.REPUL.0>
0

>  <SCORE.INTRA.SOLV>
0

>  <SCORE.INTRA.SOLV.lig_0>
-23.8941

>  <SCORE.INTRA.VDW>
0

>  <SCORE.INTRA.VDW.0>
0

>  <SCORE.INTRA.norm>
0

>  <SCORE.RESTR>
0

>  <SCORE.RESTR.CAVITY>
0

>  <SCORE.RESTR.norm>
0

>  <SCORE.SYSTEM>
0

>  <SCORE.SYSTEM.CONST>
0

>  <SCORE.SYSTEM.DIHEDRAL>
0

>  <SCORE.SYSTEM.SOLV>
0

>  <SCORE.SYSTEM.norm>
0

>  <SCORE.heavy>
10

>  <SCORE.norm>
-1.43545

>  <RMSD>
0.484

$$$$
ligand
 OpenBabel11021811513D
libRbt.so/2013.1/901 2013/11/27
 10 11  0  0  0  0  0  0  0  0999 V2000
  -30.0862   16.6938  -14.6448 N   0  0  0  0  0  0  0  0  0  0  0  0
  -30.9889   17.6194  -14.2973 C   0  0  0  0  0  0  0  0  0  0  0  0
  -31.5416   18.5724  -15.0459 N   0  0  0  0  0  0  0  0  0  0  0  0
  -31.0720   18.5246  -16.3023 C   0  0  0  0  0  0  0  0  0  0  0  0
  -30.1438   17.6352  -16.8075 C   0  0  0  0  0  0  0  0  0  0  0  0
  -29.6335   16.6715  -15.9150 C   0  0  0  0  0  0  0  0  0  0  0  0
  -28.7312   15.7483  -16.2651 N   0  0  0  0  0  0  0  0  0  0  0  0
  -29.9007   17.8869  -18.1472 N   0  0  0  0  0  0  0  0  0  0  0  0
  -30.6755   18.9108  -18.4199 C   0  0  0  0  0  0  0  0  0  0  0  0
  -31.4100   19.3474  -17.3528 N   0  0  0  0  0  0  0  0  0  0  0  0
  1  2  2  0  0  0  0
  1  6  1  0  0  0  0
  2  3  1  0  0  0  0
  3  4  2  0  0  0  0
  4  5  1  0  0  0  0
  4 10  1  0  0  0  0
  5  6  2  0  0  0  0
  5  8  1  0  0  0  0
  6  7  1  0  0  0  0
  8  9  1  0  0  0  0
  9 10  2  0  0  0  0
M  END
>  <CHROM.1>
-30.41184087,17.75250907,-16.31758088,1.13728795,-0.83035058,1.95397209

>  <Name>
ligand

>  <RI>
0

>  <Rbt.Current_Directory>
/home/itssahil/PROJECTS/Mol_Feturizer/New_Systems/rnas/4TZY

>  <Rbt.Executable>
rbdock ($Id: //depot/dev/client3/rdock/2013.1/src/exe/rbdock.cxx#4 $)

>  <Rbt.Library>
libRbt.so (2013.1, Build901 2013/11/27)

>  <Rbt.Parameter_File>
/export/apps/rDock/src/rDock_2013.1_src/data/scripts/dock_solv.prm

>  <Rbt.Receptor>
prm/pocket_docking_6.prm

>  <SCORE>
-14.3984

>  <SCORE.INTER>
-14.3984

>  <SCORE.INTER.CONST>
1

>  <SCORE.INTER.POLAR>
0

>  <SCORE.INTER.ROT>
0

>  <SCORE.INTER.SOLV>
8.14768

>  <SCORE.INTER.VDW>
-15.9148

>  <SCORE.INTER.norm>
-1.43984

>  <SCORE.INTRA>
0

>  <SCORE.INTRA.DIHEDRAL>
0

>  <SCORE.INTRA.DIHEDRAL.0>
0

>  <SCORE.INTRA.POLAR>
0

>  <SCORE.INTRA.POLAR.0>
0

>  <SCORE.INTRA.REPUL>
0

>  <SCORE.INTRA.REPUL.0>
0

>  <SCORE.INTRA.SOLV>
0

>  <SCORE.INTRA.SOLV.lig_0>
-23.8941

>  <SCORE.INTRA.VDW>
0

>  <SCORE.INTRA.VDW.0>
0

>  <SCORE.INTRA.norm>
0

>  <SCORE.RESTR>
0

>  <SCORE.RESTR.CAVITY>
0

>  <SCORE.RESTR.norm>
0

>  <SCORE.SYSTEM>
0

>  <SCORE.SYSTEM.CONST>
0

>  <SCORE.SYSTEM.DIHEDRAL>
0

>  <SCORE.SYSTEM.SOLV>
0

>  <SCORE.SYSTEM.norm>
0

>  <SCORE.heavy>
10

>  <SCORE.norm>
-1.43984

>  <RMSD>
0.484

$$$$
ligand
 OpenBabel11021811513D
libRbt.so/2013.1/901 2013/11/27
 10 11  0  0  0  0  0  0  0  0999 V2000
  -30.0875   16.6951  -14.6429 N   0  0  0  0  0  0  0  0  0  0  0  0
  -30.9903   17.6208  -14.2961 C   0  0  0  0  0  0  0  0  0  0  0  0
  -31.5423   18.5740  -15.0450 N   0  0  0  0  0  0  0  0  0  0  0  0
  -31.0717   18.5261  -16.3010 C   0  0  0  0  0  0  0  0  0  0  0  0
  -30.1433   17.6367  -16.8056 C   0  0  0  0  0  0  0  0  0  0  0  0
  -29.6338   16.6728  -15.9128 C   0  0  0  0  0  0  0  0  0  0  0  0
  -28.7314   15.7494  -16.2622 N   0  0  0  0  0  0  0  0  0  0  0  0
  -29.8991   17.8883  -18.1451 N   0  0  0  0  0  0  0  0  0  0  0  0
  -30.6735   18.9124  -18.4183 C   0  0  0  0  0  0  0  0  0  0  0  0
  -31.4088   19.3490  -17.3518 N   0  0  0  0  0  0  0  0  0  0  0  0
  1  2  2  0  0  0  0
  1  6  1  0  0  0  0
  2  3  1  0  0  0  0
  3  4  2  0  0  0  0
  4  5  1  0  0  0  0
  4 10  1  0  0  0  0
  5  6  2  0  0  0  0
  5  8  1  0  0  0  0
  6  7  1  0  0  0  0
  8  9  1  0  0  0  0
  9 10  2  0  0  0  0
M  END
>  <CHROM.1>
-30.41170845,17.75392528,-16.31588259,1.13846229,-0.83021625,1.95490418

>  <Name>
ligand

>  <RI>
0

>  <Rbt.Current_Directory>
/home/itssahil/PROJECTS/Mol_Feturizer/New_Systems/rnas/4TZY

>  <Rbt.Executable>
rbdock ($Id: //depot/dev/client3/rdock/2013.1/src/exe/rbdock.cxx#4 $)

>  <Rbt.Library>
libRbt.so (2013.1, Build901 2013/11/27)

>  <Rbt.Parameter_File>
/export/apps/rDock/src/rDock_2013.1_src/data/scripts/dock_solv.prm

>  <Rbt.Receptor>
prm/pocket_docking_6.prm

>  <SCORE>
-14.4026

>  <SCORE.INTER>
-14.4036

>  <SCORE.INTER.CONST>
1

>  <SCORE.INTER.POLAR>
0

>  <SCORE.INTER.ROT>
0

>  <SCORE.INTER.SOLV>
8.14133

>  <SCORE.INTER.VDW>
-15.9162

>  <SCORE.INTER.norm>
-1.44036

>  <SCORE.INTRA>
0

>  <SCORE.INTRA.DIHEDRAL>
0

>  <SCORE.INTRA.DIHEDRAL.0>
0

>  <SCORE.INTRA.POLAR>
0

>  <SCORE.INTRA.POLAR.0>
0

>  <SCORE.INTRA.REPUL>
0

>  <SCORE.INTRA.REPUL.0>
0

>  <SCORE.INTRA.SOLV>
0

>  <SCORE.INTRA.SOLV.lig_0>
-23.8941

>  <SCORE.INTRA.VDW>
0

>  <SCORE.INTRA.VDW.0>
0

>  <SCORE.INTRA.norm>
0

>  <SCORE.RESTR>
0.000940571

>  <SCORE.RESTR.CAVITY>
0.000940571

>  <SCORE.RESTR.norm>
9.40571e-05

>  <SCORE.SYSTEM>
0

>  <SCORE.SYSTEM.CONST>
0

>  <SCORE.SYSTEM.DIHEDRAL>
0

>  <SCORE.SYSTEM.SOLV>
0

>  <SCORE.SYSTEM.norm>
0

>  <SCORE.heavy>
10

>  <SCORE.norm>
-1.44026

>  <RMSD>
0.484

$$$$
ligand
 OpenBabel11021811513D
libRbt.so/2013.1/901 2013/11/27
 10 11  0  0  0  0  0  0  0  0999 V2000
  -30.0909   16.6895  -14.6466 N   0  0  0  0  0  0  0  0  0  0  0  0
  -30.9987   17.6108  -14.3012 C   0  0  0  0  0  0  0  0  0  0  0  0
  -31.5532   18.5621  -15.0506 N   0  0  0  0  0  0  0  0  0  0  0  0
  -31.0794   18.5175  -16.3055 C   0  0  0  0  0  0  0  0  0  0  0  0
  -30.1458   17.6328  -16.8086 C   0  0  0  0  0  0  0  0  0  0  0  0
  -29.6341   16.6704  -15.9154 C   0  0  0  0  0  0  0  0  0  0  0  0
  -28.7267   15.7515  -16.2635 N   0  0  0  0  0  0  0  0  0  0  0  0
  -29.8995   17.8867  -18.1473 N   0  0  0  0  0  0  0  0  0  0  0  0
  -30.6779   18.9076  -18.4215 C   0  0  0  0  0  0  0  0  0  0  0  0
  -31.4177   19.3399  -17.3563 N   0  0  0  0  0  0  0  0  0  0  0  0
  1  2  2  0  0  0  0
  1  6  1  0  0  0  0
  2  3  1  0  0  0  0
  3  4  2  0  0  0  0
  4  5  1  0  0  0  0
  4 10  1  0  0  0  0
  5  6  2  0  0  0  0
  5  8  1  0  0  0  0
  6  7  1  0  0  0  0
  8  9  1  0  0  0  0
  9 10  2  0  0  0  0
M  END
>  <CHROM.1>
-30.41588930,17.74837370,-16.31943158,1.13922813,-0.82511894,1.95636037

>  <Name>
ligand

>  <RI>
0

>  <Rbt.Current_Directory>
/home/itssahil/PROJECTS/Mol_Feturizer/New_Systems/rnas/4TZY

>  <Rbt.Executable>
rbdock ($Id: //depot/dev/client3/rdock/2013.1/src/exe/rbdock.cxx#4 $)

>  <Rbt.Library>
libRbt.so (2013.1, Build901 2013/11/27)

>  <Rbt.Parameter_File>
/export/apps/rDock/src/rDock_2013.1_src/data/scripts/dock_solv.prm

>  <Rbt.Receptor>
prm/pocket_docking_7.prm

>  <SCORE>
-14.3966

>  <SCORE.INTER>
-14.3972

>  <SCORE.INTER.CONST>
1

>  <SCORE.INTER.POLAR>
0

>  <SCORE.INTER.ROT>
0

>  <SCORE.INTER.SOLV>
8.12949

>  <SCORE.INTER.VDW>
-15.9079

>  <SCORE.INTER.norm>
-1.43972

>  <SCORE.INTRA>
0

>  <SCORE.INTRA.DIHEDRAL>
0

>  <SCORE.INTRA.DIHEDRAL.0>
0

>  <SCORE.INTRA.POLAR>
0

>  <SCORE.INTRA.POLAR.0>
0

>  <SCORE.INTRA.REPUL>
0

>  <SCORE.INTRA.REPUL.0>
0

>  <SCORE.INTRA.SOLV>
0

>  <SCORE.INTRA.SOLV.lig_0>
-23.8941

>  <SCORE.INTRA.VDW>
0

>  <SCORE.INTRA.VDW.0>
0

>  <SCORE.INTRA.norm>
0

>  <SCORE.RESTR>
0.00051906

>  <SCORE.RESTR.CAVITY>
0.00051906

>  <SCORE.RESTR.norm>
5.1906e-05

>  <SCORE.SYSTEM>
0

>  <SCORE.SYSTEM.CONST>
0

>  <SCORE.SYSTEM.DIHEDRAL>
0

>  <SCORE.SYSTEM.SOLV>
0

>  <SCORE.SYSTEM.norm>
0

>  <SCORE.heavy>
10

>  <SCORE.norm>
-1.43966

>  <RMSD>
0.484

$$$$
ligand
 OpenBabel11021811513D
libRbt.so/2013.1/901 2013/11/27
 10 11  0  0  0  0  0  0  0  0999 V2000
  -30.1105   16.6937  -14.6191 N   0  0  0  0  0  0  0  0  0  0  0  0
  -31.0099   17.6228  -14.2725 C   0  0  0  0  0  0  0  0  0  0  0  0
  -31.5534   18.5819  -15.0200 N   0  0  0  0  0  0  0  0  0  0  0  0
  -31.0774   18.5366  -16.2741 C   0  0  0  0  0  0  0  0  0  0  0  0
  -30.1515   17.6443  -16.7781 C   0  0  0  0  0  0  0  0  0  0  0  0
  -29.6512   16.6741  -15.8870 C   0  0  0  0  0  0  0  0  0  0  0  0
  -28.7522   15.7473  -16.2362 N   0  0  0  0  0  0  0  0  0  0  0  0
  -29.8999   17.9000  -18.1155 N   0  0  0  0  0  0  0  0  0  0  0  0
  -30.6677   18.9294  -18.3880 C   0  0  0  0  0  0  0  0  0  0  0  0
  -31.4054   19.3656  -17.3230 N   0  0  0  0  0  0  0  0  0  0  0  0
  1  2  2  0  0  0  0
  1  6  1  0  0  0  0
  2  3  1  0  0  0  0
  3  4  2  0  0  0  0
  4  5  1  0  0  0  0
  4 10  1  0  0  0  0
  5  6  2  0  0  0  0
  5  8  1  0  0  0  0
  6  7  1  0  0  0  0
  8  9  1  0  0  0  0
  9 10  2  0  0  0  0
M  END
>  <CHROM.1>
-30.42149722,17.76099533,-16.28915770,1.14763238,-0.83346506,1.96573929

>  <Name>
ligand

>  <RI>
0

>  <Rbt.Current_Directory>
/home/itssahil/PROJECTS/Mol_Feturizer/New_Systems/rnas/4TZY

>  <Rbt.Executable>
rbdock ($Id: //depot/dev/client3/rdock/2013.1/src/exe/rbdock.cxx#4 $)

>  <Rbt.Library>
libRbt.so (2013.1, Build901 2013/11/27)

>  <Rbt.Parameter_File>
/export/apps/rDock/src/rDock_2013.1_src/data/scripts/dock_solv.prm

>  <Rbt.Receptor>
prm/pocket_docking_7.prm

>  <SCORE>
-14.3554

>  <SCORE.INTER>
-14.3554

>  <SCORE.INTER.CONST>
1

>  <SCORE.INTER.POLAR>
0

>  <SCORE.INTER.ROT>
0

>  <SCORE.INTER.SOLV>
8.16272

>  <SCORE.INTER.VDW>
-15.8912

>  <SCORE.INTER.norm>
-1.43554

>  <SCORE.INTRA>
0

>  <SCORE.INTRA.DIHEDRAL>
0

>  <SCORE.INTRA.DIHEDRAL.0>
0

>  <SCORE.INTRA.POLAR>
0

>  <SCORE.INTRA.POLAR.0>
0

>  <SCORE.INTRA.REPUL>
0

>  <SCORE.INTRA.REPUL.0>
0

>  <SCORE.INTRA.SOLV>
0

>  <SCORE.INTRA.SOLV.lig_0>
-23.8941

>  <SCORE.INTRA.VDW>
0

>  <SCORE.INTRA.VDW.0>
0

>  <SCORE.INTRA.norm>
0

>  <SCORE.RESTR>
7.14756e-05

>  <SCORE.RESTR.CAVITY>
7.14756e-05

>  <SCORE.RESTR.norm>
7.14756e-06

>  <SCORE.SYSTEM>
0

>  <SCORE.SYSTEM.CONST>
0

>  <SCORE.SYSTEM.DIHEDRAL>
0

>  <SCORE.SYSTEM.SOLV>
0

>  <SCORE.SYSTEM.norm>
0

>  <SCORE.heavy>
10

>  <SCORE.norm>
-1.43554

>  <RMSD>
0.484

$$$$
ligand
 OpenBabel11021811513D
libRbt.so/2013.1/901 2013/11/27
 10 11  0  0  0  0  0  0  0  0999 V2000
  -30.0975   16.6838  -14.6495 N   0  0  0  0  0  0  0  0  0  0  0  0
  -31.0019   17.6080  -14.3028 C   0  0  0  0  0  0  0  0  0  0  0  0
  -31.5518   18.5632  -15.0506 N   0  0  0  0  0  0  0  0  0  0  0  0
  -31.0769   18.5196  -16.3051 C   0  0  0  0  0  0  0  0  0  0  0  0
  -30.1464   17.6322  -16.8093 C   0  0  0  0  0  0  0  0  0  0  0  0
  -29.6395   16.6657  -15.9178 C   0  0  0  0  0  0  0  0  0  0  0  0
  -28.7354   15.7439  -16.2672 N   0  0  0  0  0  0  0  0  0  0  0  0
  -29.8977   17.8882  -18.1472 N   0  0  0  0  0  0  0  0  0  0  0  0
  -30.6717   18.9128  -18.4198 C   0  0  0  0  0  0  0  0  0  0  0  0
  -31.4108   19.3457  -17.3544 N   0  0  0  0  0  0  0  0  0  0  0  0
  1  2  2  0  0  0  0
  1  6  1  0  0  0  0
  2  3  1  0  0  0  0
  3  4  2  0  0  0  0
  4  5  1  0  0  0  0
  4 10  1  0  0  0  0
  5  6  2  0  0  0  0
  5  8  1  0  0  0  0
  6  7  1  0  0  0  0
  8  9  1  0  0  0  0
  9 10  2  0  0  0  0
M  END
>  <CHROM.1>
-30.41647121,17.74776047,-16.32018498,1.14285875,-0.82850253,1.96131063

>  <Name>
ligand

>  <RI>
0

>  <Rbt.Current_Directory>
/home/itssahil/PROJECTS/Mol_Feturizer/New_Systems/rnas/4TZY

>  <Rbt.Executable>
rbdock ($Id: //depot/dev/client3/rdock/2013.1/src/exe/rbdock.cxx#4 $)

>  <Rbt.Library>
libRbt.so (2013.1, Build901 2013/11/27)

>  <Rbt.Parameter_File>
/export/apps/rDock/src/rDock_2013.1_src/data/scripts/dock_solv.prm

>  <Rbt.Receptor>
prm/pocket_docking_7.prm

>  <SCORE>
-14.3971

>  <SCORE.INTER>
-14.3995

>  <SCORE.INTER.CONST>
1

>  <SCORE.INTER.POLAR>
0

>  <SCORE.INTER.ROT>
0

>  <SCORE.INTER.SOLV>
8.16982

>  <SCORE.INTER.VDW>
-15.9229

>  <SCORE.INTER.norm>
-1.43995

>  <SCORE.INTRA>
0

>  <SCORE.INTRA.DIHEDRAL>
0

>  <SCORE.INTRA.DIHEDRAL.0>
0

>  <SCORE.INTRA.POLAR>
0

>  <SCORE.INTRA.POLAR.0>
0

>  <SCORE.INTRA.REPUL>
0

>  <SCORE.INTRA.REPUL.0>
0

>  <SCORE.INTRA.SOLV>
0

>  <SCORE.INTRA.SOLV.lig_0>
-23.8941

>  <SCORE.INTRA.VDW>
0

>  <SCORE.INTRA.VDW.0>
0

>  <SCORE.INTRA.norm>
0

>  <SCORE.RESTR>
0.002323

>  <SCORE.RESTR.CAVITY>
0.002323

>  <SCORE.RESTR.norm>
0.0002323

>  <SCORE.SYSTEM>
0

>  <SCORE.SYSTEM.CONST>
0

>  <SCORE.SYSTEM.DIHEDRAL>
0

>  <SCORE.SYSTEM.SOLV>
0

>  <SCORE.SYSTEM.norm>
0

>  <SCORE.heavy>
10

>  <SCORE.norm>
-1.43971

>  <RMSD>
0.484

$$$$
ligand
 OpenBabel11021811513D
libRbt.so/2013.1/901 2013/11/27
 10 11  0  0  0  0  0  0  0  0999 V2000
  -30.0846   16.7345  -14.5613 N   0  0  0  0  0  0  0  0  0  0  0  0
  -31.0313   17.6228  -14.2342 C   0  0  0  0  0  0  0  0  0  0  0  0
  -31.6137   18.5454  -14.9983 N   0  0  0  0  0  0  0  0  0  0  0  0
  -31.1242   18.5084  -16.2474 C   0  0  0  0  0  0  0  0  0  0  0  0
  -30.1513   17.6562  -16.7321 C   0  0  0  0  0  0  0  0  0  0  0  0
  -29.6130   16.7222  -15.8247 C   0  0  0  0  0  0  0  0  0  0  0  0
  -28.6668   15.8362  -16.1544 N   0  0  0  0  0  0  0  0  0  0  0  0
  -29.8998   17.9080  -18.0703 N   0  0  0  0  0  0  0  0  0  0  0  0
  -30.7140   18.8954  -18.3623 C   0  0  0  0  0  0  0  0  0  0  0  0
  -31.4821   19.3079  -17.3093 N   0  0  0  0  0  0  0  0  0  0  0  0
  1  2  2  0  0  0  0
  1  6  1  0  0  0  0
  2  3  1  0  0  0  0
  3  4  2  0  0  0  0
  4  5  1  0  0  0  0
  4 10  1  0  0  0  0
  5  6  2  0  0  0  0
  5  8  1  0  0  0  0
  6  7  1  0  0  0  0
  8  9  1  0  0  0  0
  9 10  2  0  0  0  0
M  END
>  <CHROM.1>
-30.43127575,17.76545061,-16.24705991,1.13358934,-0.78494233,1.94344644

>  <Name>
ligand

>  <RI>
0

>  <Rbt.Current_Directory>
/home/itssahil/PROJECTS/Mol_Feturizer/New_Systems/rnas/4TZY

>  <Rbt.Executable>
rbdock ($Id: //depot/dev/client3/rdock/2013.1/src/exe/rbdock.cxx#4 $)

>  <Rbt.Library>
libRbt.so (2013.1, Build901 2013/11/27)

>  <Rbt.Parameter_File>
/export/apps/rDock/src/rDock_2013.1_src/data/scripts/dock_solv.prm

>  <Rbt.Receptor>
prm/pocket_docking_7.prm

>  <SCORE>
-14.3279

>  <SCORE.INTER>
-14.3281

>  <SCORE.INTER.CONST>
1

>  <SCORE.INTER.POLAR>
0

>  <SCORE.INTER.ROT>
0

>  <SCORE.INTER.SOLV>
7.71932

>  <SCORE.INTER.VDW>
-15.7252

>  <SCORE.INTER.norm>
-1.43281

>  <SCORE.INTRA>
0

>  <SCORE.INTRA.DIHEDRAL>
0

>  <SCORE.INTRA.DIHEDRAL.0>
0

>  <SCORE.INTRA.POLAR>
0

>  <SCORE.INTRA.POLAR.0>
0

>  <SCORE.INTRA.REPUL>
0

>  <SCORE.INTRA.REPUL.0>
0

>  <SCORE.INTRA.SOLV>
0

>  <SCORE.INTRA.SOLV.lig_0>
-23.8941

>  <SCORE.INTRA.VDW>
0

>  <SCORE.INTRA.VDW.0>
0

>  <SCORE.INTRA.norm>
0

>  <SCORE.RESTR>
0.000204748

>  <SCORE.RESTR.CAVITY>
0.000204748

>  <SCORE.RESTR.norm>
2.04748e-05

>  <SCORE.SYSTEM>
0

>  <SCORE.SYSTEM.CONST>
0

>  <SCORE.SYSTEM.DIHEDRAL>
0

>  <SCORE.SYSTEM.SOLV>
0

>  <SCORE.SYSTEM.norm>
0

>  <SCORE.heavy>
10

>  <SCORE.norm>
-1.43279

>  <RMSD>
0.484

$$$$
ligand
 OpenBabel11021811513D
libRbt.so/2013.1/901 2013/11/27
 10 11  0  0  0  0  0  0  0  0999 V2000
  -30.0963   16.6742  -14.6340 N   0  0  0  0  0  0  0  0  0  0  0  0
  -31.0093   17.5893  -14.2855 C   0  0  0  0  0  0  0  0  0  0  0  0
  -31.5659   18.5427  -15.0306 N   0  0  0  0  0  0  0  0  0  0  0  0
  -31.0883   18.5080  -16.2844 C   0  0  0  0  0  0  0  0  0  0  0  0
  -30.1492   17.6306  -16.7902 C   0  0  0  0  0  0  0  0  0  0  0  0
  -29.6357   16.6651  -15.9015 C   0  0  0  0  0  0  0  0  0  0  0  0
  -28.7231   15.7524  -16.2527 N   0  0  0  0  0  0  0  0  0  0  0  0
  -29.9001   17.8940  -18.1266 N   0  0  0  0  0  0  0  0  0  0  0  0
  -30.6824   18.9130  -18.3967 C   0  0  0  0  0  0  0  0  0  0  0  0
  -31.4272   19.3353  -17.3310 N   0  0  0  0  0  0  0  0  0  0  0  0
  1  2  2  0  0  0  0
  1  6  1  0  0  0  0
  2  3  1  0  0  0  0
  3  4  2  0  0  0  0
  4  5  1  0  0  0  0
  4 10  1  0  0  0  0
  5  6  2  0  0  0  0
  5  8  1  0  0  0  0
  6  7  1  0  0  0  0
  8  9  1  0  0  0  0
  9 10  2  0  0  0  0
M  END
>  <CHROM.1>
-30.42122039,17.74196493,-16.30114347,1.14069251,-0.81981580,1.96364347

>  <Name>
ligand

>  <RI>
0

>  <Rbt.Current_Directory>
/home/itssahil/PROJECTS/Mol_Feturizer/New_Systems/rnas/4TZY

>  <Rbt.Executable>
rbdock ($Id: //depot/dev/client3/rdock/2013.1/src/exe/rbdock.cxx#4 $)

>  <Rbt.Library>
libRbt.so (2013.1, Build901 2013/11/27)

>  <Rbt.Parameter_File>
/export/apps/rDock/src/rDock_2013.1_src/data/scripts/dock_solv.prm

>  <Rbt.Receptor>
prm/pocket_docking_7.prm

>  <SCORE>
-14.3537

>  <SCORE.INTER>
-14.3537

>  <SCORE.INTER.CONST>
1

>  <SCORE.INTER.POLAR>
0

>  <SCORE.INTER.ROT>
0

>  <SCORE.INTER.SOLV>
8.11369

>  <SCORE.INTER.VDW>
-15.8737

>  <SCORE.INTER.norm>
-1.43537

>  <SCORE.INTRA>
0

>  <SCORE.INTRA.DIHEDRAL>
0

>  <SCORE.INTRA.DIHEDRAL.0>
0

>  <SCORE.INTRA.POLAR>
0

>  <SCORE.INTRA.POLAR.0>
0

>  <SCORE.INTRA.REPUL>
0

>  <SCORE.INTRA.REPUL.0>
0

>  <SCORE.INTRA.SOLV>
0

>  <SCORE.INTRA.SOLV.lig_0>
-23.8941

>  <SCORE.INTRA.VDW>
0

>  <SCORE.INTRA.VDW.0>
0

>  <SCORE.INTRA.norm>
0

>  <SCORE.RESTR>
0

>  <SCORE.RESTR.CAVITY>
0

>  <SCORE.RESTR.norm>
0

>  <SCORE.SYSTEM>
0

>  <SCORE.SYSTEM.CONST>
0

>  <SCORE.SYSTEM.DIHEDRAL>
0

>  <SCORE.SYSTEM.SOLV>
0

>  <SCORE.SYSTEM.norm>
0

>  <SCORE.heavy>
10

>  <SCORE.norm>
-1.43537

>  <RMSD>
0.484

$$$$
ligand
 OpenBabel11021811513D
libRbt.so/2013.1/901 2013/11/27
 10 11  0  0  0  0  0  0  0  0999 V2000
  -30.1561   16.6775  -14.6325 N   0  0  0  0  0  0  0  0  0  0  0  0
  -31.0617   17.6046  -14.2963 C   0  0  0  0  0  0  0  0  0  0  0  0
  -31.5962   18.5646  -15.0491 N   0  0  0  0  0  0  0  0  0  0  0  0
  -31.1029   18.5228  -16.2965 C   0  0  0  0  0  0  0  0  0  0  0  0
  -30.1687   17.6330  -16.7897 C   0  0  0  0  0  0  0  0  0  0  0  0
  -29.6794   16.6616  -15.8939 C   0  0  0  0  0  0  0  0  0  0  0  0
  -28.7742   15.7369  -16.2328 N   0  0  0  0  0  0  0  0  0  0  0  0
  -29.8990   17.8923  -18.1229 N   0  0  0  0  0  0  0  0  0  0  0  0
  -30.6645   18.9211  -18.4037 C   0  0  0  0  0  0  0  0  0  0  0  0
  -31.4176   19.3538  -17.3479 N   0  0  0  0  0  0  0  0  0  0  0  0
  1  2  2  0  0  0  0
  1  6  1  0  0  0  0
  2  3  1  0  0  0  0
  3  4  2  0  0  0  0
  4  5  1  0  0  0  0
  4 10  1  0  0  0  0
  5  6  2  0  0  0  0
  5  8  1  0  0  0  0
  6  7  1  0  0  0  0
  8  9  1  0  0  0  0
  9 10  2  0  0  0  0
M  END
>  <CHROM.1>
-30.44562501,17.74823433,-16.30426070,1.16563635,-0.82665797,1.98131531

>  <Name>
ligand

>  <RI>
0

>  <Rbt.Current_Directory>
/home/itssahil/PROJECTS/Mol_Feturizer/New_Systems/rnas/4TZY

>  <Rbt.Executable>
rbdock ($Id: //depot/dev/client3/rdock/2013.1/src/exe/rbdock.cxx#4 $)

>  <Rbt.Library>
libRbt.so (2013.1, Build901 2013/11/27)

>  <Rbt.Parameter_File>
/export/apps/rDock/src/rDock_2013.1_src/data/scripts/dock_solv.prm

>  <Rbt.Receptor>
prm/pocket_docking_7.prm

>  <SCORE>
-14.4011

>  <SCORE.INTER>
-14.402

>  <SCORE.INTER.CONST>
1

>  <SCORE.INTER.POLAR>
0

>  <SCORE.INTER.ROT>
0

>  <SCORE.INTER.SOLV>
8.21453

>  <SCORE.INTER.VDW>
-15.9395

>  <SCORE.INTER.norm>
-1.4402

>  <SCORE.INTRA>
0

>  <SCORE.INTRA.DIHEDRAL>
0

>  <SCORE.INTRA.DIHEDRAL.0>
0

>  <SCORE.INTRA.POLAR>
0

>  <SCORE.INTRA.POLAR.0>
0

>  <SCORE.INTRA.REPUL>
0

>  <SCORE.INTRA.REPUL.0>
0

>  <SCORE.INTRA.SOLV>
0

>  <SCORE.INTRA.SOLV.lig_0>
-23.8941

>  <SCORE.INTRA.VDW>
0

>  <SCORE.INTRA.VDW.0>
0

>  <SCORE.INTRA.norm>
0

>  <SCORE.RESTR>
0.000964349

>  <SCORE.RESTR.CAVITY>
0.000964349

>  <SCORE.RESTR.norm>
9.64349e-05

>  <SCORE.SYSTEM>
0

>  <SCORE.SYSTEM.CONST>
0

>  <SCORE.SYSTEM.DIHEDRAL>
0

>  <SCORE.SYSTEM.SOLV>
0

>  <SCORE.SYSTEM.norm>
0

>  <SCORE.heavy>
10

>  <SCORE.norm>
-1.44011

>  <RMSD>
0.484

$$$$
ligand
 OpenBabel11021811513D
libRbt.so/2013.1/901 2013/11/27
 10 11  0  0  0  0  0  0  0  0999 V2000
  -30.1002   16.6677  -14.6505 N   0  0  0  0  0  0  0  0  0  0  0  0
  -30.9993   17.5952  -14.2985 C   0  0  0  0  0  0  0  0  0  0  0  0
  -31.5447   18.5569  -15.0412 N   0  0  0  0  0  0  0  0  0  0  0  0
  -31.0714   18.5165  -16.2964 C   0  0  0  0  0  0  0  0  0  0  0  0
  -30.1462   17.6265  -16.8058 C   0  0  0  0  0  0  0  0  0  0  0  0
  -29.6437   16.6531  -15.9194 C   0  0  0  0  0  0  0  0  0  0  0  0
  -28.7450   15.7281  -16.2740 N   0  0  0  0  0  0  0  0  0  0  0  0
  -29.8976   17.8874  -18.1427 N   0  0  0  0  0  0  0  0  0  0  0  0
  -30.6663   18.9174  -18.4097 C   0  0  0  0  0  0  0  0  0  0  0  0
  -31.4020   19.3493  -17.3415 N   0  0  0  0  0  0  0  0  0  0  0  0
  1  2  2  0  0  0  0
  1  6  1  0  0  0  0
  2  3  1  0  0  0  0
  3  4  2  0  0  0  0
  4  5  1  0  0  0  0
  4 10  1  0  0  0  0
  5  6  2  0  0  0  0
  5  8  1  0  0  0  0
  6  7  1  0  0  0  0
  8  9  1  0  0  0  0
  9 10  2  0  0  0  0
M  END
>  <CHROM.1>
-30.41521485,17.74122491,-16.31581334,1.14448727,-0.83391161,1.96718106

>  <Name>
ligand

>  <RI>
0

>  <Rbt.Current_Directory>
/home/itssahil/PROJECTS/Mol_Feturizer/New_Systems/rnas/4TZY

>  <Rbt.Executable>
rbdock ($Id: //depot/dev/client3/rdock/2013.1/src/exe/rbdock.cxx#4 $)

>  <Rbt.Library>
libRbt.so (2013.1, Build901 2013/11/27)

>  <Rbt.Parameter_File>
/export/apps/rDock/src/rDock_2013.1_src/data/scripts/dock_solv.prm

>  <Rbt.Receptor>
prm/pocket_docking_7.prm

>  <SCORE>
-14.357

>  <SCORE.INTER>
-14.3594

>  <SCORE.INTER.CONST>
1

>  <SCORE.INTER.POLAR>
0

>  <SCORE.INTER.ROT>
0

>  <SCORE.INTER.SOLV>
8.2368

>  <SCORE.INTER.VDW>
-15.9185

>  <SCORE.INTER.norm>
-1.43594

>  <SCORE.INTRA>
0

>  <SCORE.INTRA.DIHEDRAL>
0

>  <SCORE.INTRA.DIHEDRAL.0>
0

>  <SCORE.INTRA.POLAR>
0

>  <SCORE.INTRA.POLAR.0>
0

>  <SCORE.INTRA.REPUL>
0

>  <SCORE.INTRA.REPUL.0>
0

>  <SCORE.INTRA.SOLV>
0

>  <SCORE.INTRA.SOLV.lig_0>
-23.8941

>  <SCORE.INTRA.VDW>
0

>  <SCORE.INTRA.VDW.0>
0

>  <SCORE.INTRA.norm>
0

>  <SCORE.RESTR>
0.00241896

>  <SCORE.RESTR.CAVITY>
0.00241896

>  <SCORE.RESTR.norm>
0.000241896

>  <SCORE.SYSTEM>
0

>  <SCORE.SYSTEM.CONST>
0

>  <SCORE.SYSTEM.DIHEDRAL>
0

>  <SCORE.SYSTEM.SOLV>
0

>  <SCORE.SYSTEM.norm>
0

>  <SCORE.heavy>
10

>  <SCORE.norm>
-1.4357

>  <RMSD>
0.484

$$$$
ligand
 OpenBabel11021811513D
libRbt.so/2013.1/901 2013/11/27
 10 11  0  0  0  0  0  0  0  0999 V2000
  -30.0949   16.7037  -14.6133 N   0  0  0  0  0  0  0  0  0  0  0  0
  -31.0251   17.6060  -14.2776 C   0  0  0  0  0  0  0  0  0  0  0  0
  -31.5937   18.5435  -15.0338 N   0  0  0  0  0  0  0  0  0  0  0  0
  -31.1085   18.5064  -16.2846 C   0  0  0  0  0  0  0  0  0  0  0  0
  -30.1519   17.6408  -16.7779 C   0  0  0  0  0  0  0  0  0  0  0  0
  -29.6272   16.6917  -15.8782 C   0  0  0  0  0  0  0  0  0  0  0  0
  -28.6973   15.7917  -16.2166 N   0  0  0  0  0  0  0  0  0  0  0  0
  -29.9000   17.8971  -18.1150 N   0  0  0  0  0  0  0  0  0  0  0  0
  -30.6978   18.9004  -18.3981 C   0  0  0  0  0  0  0  0  0  0  0  0
  -31.4556   19.3190  -17.3401 N   0  0  0  0  0  0  0  0  0  0  0  0
  1  2  2  0  0  0  0
  1  6  1  0  0  0  0
  2  3  1  0  0  0  0
  3  4  2  0  0  0  0
  4  5  1  0  0  0  0
  4 10  1  0  0  0  0
  5  6  2  0  0  0  0
  5  8  1  0  0  0  0
  6  7  1  0  0  0  0
  8  9  1  0  0  0  0
  9 10  2  0  0  0  0
M  END
>  <CHROM.1>
-30.42853736,17.75166780,-16.29124302,1.13874259,-0.80206543,1.95374107

>  <Name>
ligand

>  <RI>
0

>  <Rbt.Current_Directory>
/home/itssahil/PROJECTS/Mol_Feturizer/New_Systems/rnas/4TZY

>  <Rbt.Executable>
rbdock ($Id: //depot/dev/client3/rdock/2013.1/src/exe/rbdock.cxx#4 $)

>  <Rbt.Library>
libRbt.so (2013.1, Build901 2013/11/27)

>  <Rbt.Parameter_File>
/export/apps/rDock/src/rDock_2013.1_src/data/scripts/dock_solv.prm

>  <Rbt.Receptor>
prm/pocket_docking_7.prm

>  <SCORE>
-14.3883

>  <SCORE.INTER>
-14.3883

>  <SCORE.INTER.CONST>
1

>  <SCORE.INTER.POLAR>
0

>  <SCORE.INTER.ROT>
0

>  <SCORE.INTER.SOLV>
7.94505

>  <SCORE.INTER.VDW>
-15.8405

>  <SCORE.INTER.norm>
-1.43883

>  <SCORE.INTRA>
0

>  <SCORE.INTRA.DIHEDRAL>
0

>  <SCORE.INTRA.DIHEDRAL.0>
0

>  <SCORE.INTRA.POLAR>
0

>  <SCORE.INTRA.POLAR.0>
0

>  <SCORE.INTRA.REPUL>
0

>  <SCORE.INTRA.REPUL.0>
0

>  <SCORE.INTRA.SOLV>
0

>  <SCORE.INTRA.SOLV.lig_0>
-23.8941

>  <SCORE.INTRA.VDW>
0

>  <SCORE.INTRA.VDW.0>
0

>  <SCORE.INTRA.norm>
0

>  <SCORE.RESTR>
3.49867e-05

>  <SCORE.RESTR.CAVITY>
3.49867e-05

>  <SCORE.RESTR.norm>
3.49867e-06

>  <SCORE.SYSTEM>
0

>  <SCORE.SYSTEM.CONST>
0

>  <SCORE.SYSTEM.DIHEDRAL>
0

>  <SCORE.SYSTEM.SOLV>
0

>  <SCORE.SYSTEM.norm>
0

>  <SCORE.heavy>
10

>  <SCORE.norm>
-1.43883

>  <RMSD>
0.484

$$$$
ligand
 OpenBabel11021811513D
libRbt.so/2013.1/901 2013/11/27
 10 11  0  0  0  0  0  0  0  0999 V2000
  -30.0927   16.6920  -14.6397 N   0  0  0  0  0  0  0  0  0  0  0  0
  -31.0069   17.6081  -14.2970 C   0  0  0  0  0  0  0  0  0  0  0  0
  -31.5652   18.5556  -15.0484 N   0  0  0  0  0  0  0  0  0  0  0  0
  -31.0880   18.5131  -16.3021 C   0  0  0  0  0  0  0  0  0  0  0  0
  -30.1478   17.6337  -16.8023 C   0  0  0  0  0  0  0  0  0  0  0  0
  -29.6326   16.6750  -15.9073 C   0  0  0  0  0  0  0  0  0  0  0  0
  -28.7188   15.7613  -16.2526 N   0  0  0  0  0  0  0  0  0  0  0  0
  -29.8997   17.8884  -18.1405 N   0  0  0  0  0  0  0  0  0  0  0  0
  -30.6835   18.9044  -18.4173 C   0  0  0  0  0  0  0  0  0  0  0  0
  -31.4286   19.3328  -17.3542 N   0  0  0  0  0  0  0  0  0  0  0  0
  1  2  2  0  0  0  0
  1  6  1  0  0  0  0
  2  3  1  0  0  0  0
  3  4  2  0  0  0  0
  4  5  1  0  0  0  0
  4 10  1  0  0  0  0
  5  6  2  0  0  0  0
  5  8  1  0  0  0  0
  6  7  1  0  0  0  0
  8  9  1  0  0  0  0
  9 10  2  0  0  0  0
M  END
>  <CHROM.1>
-30.41984790,17.74798268,-16.31391375,1.13932425,-0.81860742,1.95585479

>  <Name>
ligand

>  <RI>
0

>  <Rbt.Current_Directory>
/home/itssahil/PROJECTS/Mol_Feturizer/New_Systems/rnas/4TZY

>  <Rbt.Executable>
rbdock ($Id: //depot/dev/client3/rdock/2013.1/src/exe/rbdock.cxx#4 $)

>  <Rbt.Library>
libRbt.so (2013.1, Build901 2013/11/27)

>  <Rbt.Parameter_File>
/export/apps/rDock/src/rDock_2013.1_src/data/scripts/dock_solv.prm

>  <Rbt.Receptor>
prm/pocket_docking_8.prm

>  <SCORE>
-14.3926

>  <SCORE.INTER>
-14.393

>  <SCORE.INTER.CONST>
1

>  <SCORE.INTER.POLAR>
0

>  <SCORE.INTER.ROT>
0

>  <SCORE.INTER.SOLV>
8.08441

>  <SCORE.INTER.VDW>
-15.8901

>  <SCORE.INTER.norm>
-1.4393

>  <SCORE.INTRA>
0

>  <SCORE.INTRA.DIHEDRAL>
0

>  <SCORE.INTRA.DIHEDRAL.0>
0

>  <SCORE.INTRA.POLAR>
0

>  <SCORE.INTRA.POLAR.0>
0

>  <SCORE.INTRA.REPUL>
0

>  <SCORE.INTRA.REPUL.0>
0

>  <SCORE.INTRA.SOLV>
0

>  <SCORE.INTRA.SOLV.lig_0>
-23.8941

>  <SCORE.INTRA.VDW>
0

>  <SCORE.INTRA.VDW.0>
0

>  <SCORE.INTRA.norm>
0

>  <SCORE.RESTR>
0.000305424

>  <SCORE.RESTR.CAVITY>
0.000305424

>  <SCORE.RESTR.norm>
3.05424e-05

>  <SCORE.SYSTEM>
0

>  <SCORE.SYSTEM.CONST>
0

>  <SCORE.SYSTEM.DIHEDRAL>
0

>  <SCORE.SYSTEM.SOLV>
0

>  <SCORE.SYSTEM.norm>
0

>  <SCORE.heavy>
10

>  <SCORE.norm>
-1.43926

>  <RMSD>
0.484

$$$$
ligand
 OpenBabel11021811513D
libRbt.so/2013.1/901 2013/11/27
 10 11  0  0  0  0  0  0  0  0999 V2000
  -30.0628   16.7422  -14.6377 N   0  0  0  0  0  0  0  0  0  0  0  0
  -30.9693   17.6678  -14.2999 C   0  0  0  0  0  0  0  0  0  0  0  0
  -31.5307   18.6064  -15.0601 N   0  0  0  0  0  0  0  0  0  0  0  0
  -31.0663   18.5426  -16.3177 C   0  0  0  0  0  0  0  0  0  0  0  0
  -30.1353   17.6511  -16.8138 C   0  0  0  0  0  0  0  0  0  0  0  0
  -29.6156   16.7037  -15.9094 C   0  0  0  0  0  0  0  0  0  0  0  0
  -28.7096   15.7805  -16.2499 N   0  0  0  0  0  0  0  0  0  0  0  0
  -29.8995   17.8842  -18.1582 N   0  0  0  0  0  0  0  0  0  0  0  0
  -30.6814   18.8996  -18.4425 C   0  0  0  0  0  0  0  0  0  0  0  0
  -31.4137   19.3478  -17.3787 N   0  0  0  0  0  0  0  0  0  0  0  0
  1  2  2  0  0  0  0
  1  6  1  0  0  0  0
  2  3  1  0  0  0  0
  3  4  2  0  0  0  0
  4  5  1  0  0  0  0
  4 10  1  0  0  0  0
  5  6  2  0  0  0  0
  5  8  1  0  0  0  0
  6  7  1  0  0  0  0
  8  9  1  0  0  0  0
  9 10  2  0  0  0  0
M  END
>  <CHROM.1>
-30.40189588,17.77410891,-16.32449935,1.12811428,-0.82666592,1.93238153

>  <Name>
ligand

>  <RI>
0

>  <Rbt.Current_Directory>
/home/itssahil/PROJECTS/Mol_Feturizer/New_Systems/rnas/4TZY

>  <Rbt.Executable>
rbdock ($Id: //depot/dev/client3/rdock/2013.1/src/exe/rbdock.cxx#4 $)

>  <Rbt.Library>
libRbt.so (2013.1, Build901 2013/11/27)

>  <Rbt.Parameter_File>
/export/apps/rDock/src/rDock_2013.1_src/data/scripts/dock_solv.prm

>  <Rbt.Receptor>
prm/pocket_docking_8.prm

>  <SCORE>
-14.3363

>  <SCORE.INTER>
-14.3367

>  <SCORE.INTER.CONST>
1

>  <SCORE.INTER.POLAR>
0

>  <SCORE.INTER.ROT>
0

>  <SCORE.INTER.SOLV>
8.0277

>  <SCORE.INTER.VDW>
-15.8337

>  <SCORE.INTER.norm>
-1.43367

>  <SCORE.INTRA>
0

>  <SCORE.INTRA.DIHEDRAL>
0

>  <SCORE.INTRA.DIHEDRAL.0>
0

>  <SCORE.INTRA.POLAR>
0

>  <SCORE.INTRA.POLAR.0>
0

>  <SCORE.INTRA.REPUL>
0

>  <SCORE.INTRA.REPUL.0>
0

>  <SCORE.INTRA.SOLV>
0

>  <SCORE.INTRA.SOLV.lig_0>
-23.8941

>  <SCORE.INTRA.VDW>
0

>  <SCORE.INTRA.VDW.0>
0

>  <SCORE.INTRA.norm>
0

>  <SCORE.RESTR>
0.000474073

>  <SCORE.RESTR.CAVITY>
0.000474073

>  <SCORE.RESTR.norm>
4.74073e-05

>  <SCORE.SYSTEM>
0

>  <SCORE.SYSTEM.CONST>
0

>  <SCORE.SYSTEM.DIHEDRAL>
0

>  <SCORE.SYSTEM.SOLV>
0

>  <SCORE.SYSTEM.norm>
0

>  <SCORE.heavy>
10

>  <SCORE.norm>
-1.43363

>  <RMSD>
0.484

$$$$
ligand
 OpenBabel11021811513D
libRbt.so/2013.1/901 2013/11/27
 10 11  0  0  0  0  0  0  0  0999 V2000
  -30.0927   16.6902  -14.6418 N   0  0  0  0  0  0  0  0  0  0  0  0
  -30.9975   17.6140  -14.2951 C   0  0  0  0  0  0  0  0  0  0  0  0
  -31.5494   18.5678  -15.0433 N   0  0  0  0  0  0  0  0  0  0  0  0
  -31.0761   18.5230  -16.2984 C   0  0  0  0  0  0  0  0  0  0  0  0
  -30.1454   17.6359  -16.8028 C   0  0  0  0  0  0  0  0  0  0  0  0
  -29.6363   16.6711  -15.9108 C   0  0  0  0  0  0  0  0  0  0  0  0
  -28.7319   15.7497  -16.2601 N   0  0  0  0  0  0  0  0  0  0  0  0
  -29.8987   17.8905  -18.1413 N   0  0  0  0  0  0  0  0  0  0  0  0
  -30.6741   18.9140  -18.4141 C   0  0  0  0  0  0  0  0  0  0  0  0
  -31.4123   19.3475  -17.3483 N   0  0  0  0  0  0  0  0  0  0  0  0
  1  2  2  0  0  0  0
  1  6  1  0  0  0  0
  2  3  1  0  0  0  0
  3  4  2  0  0  0  0
  4  5  1  0  0  0  0
  4 10  1  0  0  0  0
  5  6  2  0  0  0  0
  5  8  1  0  0  0  0
  6  7  1  0  0  0  0
  8  9  1  0  0  0  0
  9 10  2  0  0  0  0
M  END
>  <CHROM.1>
-30.41495803,17.75183719,-16.31339635,1.14048438,-0.82809008,1.95832305

>  <Name>
ligand

>  <RI>
0

>  <Rbt.Current_Directory>
/home/itssahil/PROJECTS/Mol_Feturizer/New_Systems/rnas/4TZY

>  <Rbt.Executable>
rbdock ($Id: //depot/dev/client3/rdock/2013.1/src/exe/rbdock.cxx#4 $)

>  <Rbt.Library>
libRbt.so (2013.1, Build901 2013/11/27)

>  <Rbt.Parameter_File>
/export/apps/rDock/src/rDock_2013.1_src/data/scripts/dock_solv.prm

>  <Rbt.Receptor>
prm/pocket_docking_8.prm

>  <SCORE>
-14.4005

>  <SCORE.INTER>
-14.4018

>  <SCORE.INTER.CONST>
1

>  <SCORE.INTER.POLAR>
0

>  <SCORE.INTER.ROT>
0

>  <SCORE.INTER.SOLV>
8.14029

>  <SCORE.INTER.VDW>
-15.9146

>  <SCORE.INTER.norm>
-1.44018

>  <SCORE.INTRA>
0

>  <SCORE.INTRA.DIHEDRAL>
0

>  <SCORE.INTRA.DIHEDRAL.0>
0

>  <SCORE.INTRA.POLAR>
0

>  <SCORE.INTRA.POLAR.0>
0

>  <SCORE.INTRA.REPUL>
0

>  <SCORE.INTRA.REPUL.0>
0

>  <SCORE.INTRA.SOLV>
0

>  <SCORE.INTRA.SOLV.lig_0>
-23.8941

>  <SCORE.INTRA.VDW>
0

>  <SCORE.INTRA.VDW.0>
0

>  <SCORE.INTRA.norm>
0

>  <SCORE.RESTR>
0.00126927

>  <SCORE.RESTR.CAVITY>
0.00126927

>  <SCORE.RESTR.norm>
0.000126927

>  <SCORE.SYSTEM>
0

>  <SCORE.SYSTEM.CONST>
0

>  <SCORE.SYSTEM.DIHEDRAL>
0

>  <SCORE.SYSTEM.SOLV>
0

>  <SCORE.SYSTEM.norm>
0

>  <SCORE.heavy>
10

>  <SCORE.norm>
-1.44005

>  <RMSD>
0.484

$$$$
ligand
 OpenBabel11021811513D
libRbt.so/2013.1/901 2013/11/27
 10 11  0  0  0  0  0  0  0  0999 V2000
  -30.0990   16.6883  -14.6422 N   0  0  0  0  0  0  0  0  0  0  0  0
  -31.0028   17.6131  -14.2954 C   0  0  0  0  0  0  0  0  0  0  0  0
  -31.5526   18.5683  -15.0432 N   0  0  0  0  0  0  0  0  0  0  0  0
  -31.0783   18.5239  -16.2980 C   0  0  0  0  0  0  0  0  0  0  0  0
  -30.1485   17.6359  -16.8023 C   0  0  0  0  0  0  0  0  0  0  0  0
  -29.6416   16.6696  -15.9107 C   0  0  0  0  0  0  0  0  0  0  0  0
  -28.7382   15.7472  -16.2602 N   0  0  0  0  0  0  0  0  0  0  0  0
  -29.9003   17.8914  -18.1404 N   0  0  0  0  0  0  0  0  0  0  0  0
  -30.6739   18.9162  -18.4130 C   0  0  0  0  0  0  0  0  0  0  0  0
  -31.4124   19.3498  -17.3474 N   0  0  0  0  0  0  0  0  0  0  0  0
  1  2  2  0  0  0  0
  1  6  1  0  0  0  0
  2  3  1  0  0  0  0
  3  4  2  0  0  0  0
  4  5  1  0  0  0  0
  4 10  1  0  0  0  0
  5  6  2  0  0  0  0
  5  8  1  0  0  0  0
  6  7  1  0  0  0  0
  8  9  1  0  0  0  0
  9 10  2  0  0  0  0
M  END
>  <CHROM.1>
-30.41828612,17.75182828,-16.31308956,1.14247194,-0.82912198,1.96066674

>  <Name>
ligand

>  <RI>
0

>  <Rbt.Current_Directory>
/home/itssahil/PROJECTS/Mol_Feturizer/New_Systems/rnas/4TZY

>  <Rbt.Executable>
rbdock ($Id: //depot/dev/client3/rdock/2013.1/src/exe/rbdock.cxx#4 $)

>  <Rbt.Library>
libRbt.so (2013.1, Build901 2013/11/27)

>  <Rbt.Parameter_File>
/export/apps/rDock/src/rDock_2013.1_src/data/scripts/dock_solv.prm

>  <Rbt.Receptor>
prm/blind_docking_60.prm

>  <SCORE>
-14.3943

>  <SCORE.INTER>
-14.3943

>  <SCORE.INTER.CONST>
1

>  <SCORE.INTER.POLAR>
0

>  <SCORE.INTER.ROT>
0

>  <SCORE.INTER.SOLV>
8.15898

>  <SCORE.INTER.VDW>
-15.9158

>  <SCORE.INTER.norm>
-1.43943

>  <SCORE.INTRA>
0

>  <SCORE.INTRA.DIHEDRAL>
0

>  <SCORE.INTRA.DIHEDRAL.0>
0

>  <SCORE.INTRA.POLAR>
0

>  <SCORE.INTRA.POLAR.0>
0

>  <SCORE.INTRA.REPUL>
0

>  <SCORE.INTRA.REPUL.0>
0

>  <SCORE.INTRA.SOLV>
0

>  <SCORE.INTRA.SOLV.lig_0>
-23.8941

>  <SCORE.INTRA.VDW>
0

>  <SCORE.INTRA.VDW.0>
0

>  <SCORE.INTRA.norm>
0

>  <SCORE.RESTR>
0

>  <SCORE.RESTR.CAVITY>
0

>  <SCORE.RESTR.norm>
0

>  <SCORE.SYSTEM>
0

>  <SCORE.SYSTEM.CONST>
0

>  <SCORE.SYSTEM.DIHEDRAL>
0

>  <SCORE.SYSTEM.SOLV>
0

>  <SCORE.SYSTEM.norm>
0

>  <SCORE.heavy>
10

>  <SCORE.norm>
-1.43943

>  <RMSD>
0.485

$$$$
ligand
 OpenBabel11021811513D
libRbt.so/2013.1/901 2013/11/27
 10 11  0  0  0  0  0  0  0  0999 V2000
  -30.1548   16.6712  -14.6405 N   0  0  0  0  0  0  0  0  0  0  0  0
  -31.0598   17.5981  -14.3023 C   0  0  0  0  0  0  0  0  0  0  0  0
  -31.5944   18.5595  -15.0533 N   0  0  0  0  0  0  0  0  0  0  0  0
  -31.1018   18.5194  -16.3012 C   0  0  0  0  0  0  0  0  0  0  0  0
  -30.1683   17.6300  -16.7962 C   0  0  0  0  0  0  0  0  0  0  0  0
  -29.6788   16.6569  -15.9022 C   0  0  0  0  0  0  0  0  0  0  0  0
  -28.7743   15.7324  -16.2430 N   0  0  0  0  0  0  0  0  0  0  0  0
  -29.8993   17.8911  -18.1292 N   0  0  0  0  0  0  0  0  0  0  0  0
  -30.6645   18.9206  -18.4080 C   0  0  0  0  0  0  0  0  0  0  0  0
  -31.4168   19.3521  -17.3511 N   0  0  0  0  0  0  0  0  0  0  0  0
  1  2  2  0  0  0  0
  1  6  1  0  0  0  0
  2  3  1  0  0  0  0
  3  4  2  0  0  0  0
  4  5  1  0  0  0  0
  4 10  1  0  0  0  0
  5  6  2  0  0  0  0
  5  8  1  0  0  0  0
  6  7  1  0  0  0  0
  8  9  1  0  0  0  0
  9 10  2  0  0  0  0
M  END
>  <CHROM.1>
-30.44488449,17.74455652,-16.31045154,1.16506199,-0.82729650,1.98239117

>  <Name>
ligand

>  <RI>
0

>  <Rbt.Current_Directory>
/home/itssahil/PROJECTS/Mol_Feturizer/New_Systems/rnas/4TZY

>  <Rbt.Executable>
rbdock ($Id: //depot/dev/client3/rdock/2013.1/src/exe/rbdock.cxx#4 $)

>  <Rbt.Library>
libRbt.so (2013.1, Build901 2013/11/27)

>  <Rbt.Parameter_File>
/export/apps/rDock/src/rDock_2013.1_src/data/scripts/dock_solv.prm

>  <Rbt.Receptor>
prm/blind_docking_80.prm

>  <SCORE>
-14.3983

>  <SCORE.INTER>
-14.399

>  <SCORE.INTER.CONST>
1

>  <SCORE.INTER.POLAR>
0

>  <SCORE.INTER.ROT>
0

>  <SCORE.INTER.SOLV>
8.24077

>  <SCORE.INTER.VDW>
-15.9463

>  <SCORE.INTER.norm>
-1.4399

>  <SCORE.INTRA>
0

>  <SCORE.INTRA.DIHEDRAL>
0

>  <SCORE.INTRA.DIHEDRAL.0>
0

>  <SCORE.INTRA.POLAR>
0

>  <SCORE.INTRA.POLAR.0>
0

>  <SCORE.INTRA.REPUL>
0

>  <SCORE.INTRA.REPUL.0>
0

>  <SCORE.INTRA.SOLV>
0

>  <SCORE.INTRA.SOLV.lig_0>
-23.8941

>  <SCORE.INTRA.VDW>
0

>  <SCORE.INTRA.VDW.0>
0

>  <SCORE.INTRA.norm>
0

>  <SCORE.RESTR>
0.000654948

>  <SCORE.RESTR.CAVITY>
0.000654948

>  <SCORE.RESTR.norm>
6.54948e-05

>  <SCORE.SYSTEM>
0

>  <SCORE.SYSTEM.CONST>
0

>  <SCORE.SYSTEM.DIHEDRAL>
0

>  <SCORE.SYSTEM.SOLV>
0

>  <SCORE.SYSTEM.norm>
0

>  <SCORE.heavy>
10

>  <SCORE.norm>
-1.43983

>  <RMSD>
0.485

$$$$
ligand
 OpenBabel11021811513D
libRbt.so/2013.1/901 2013/11/27
 10 11  0  0  0  0  0  0  0  0999 V2000
  -30.0875   16.6915  -14.6545 N   0  0  0  0  0  0  0  0  0  0  0  0
  -30.9929   17.6151  -14.3086 C   0  0  0  0  0  0  0  0  0  0  0  0
  -31.5467   18.5666  -15.0582 N   0  0  0  0  0  0  0  0  0  0  0  0
  -31.0750   18.5196  -16.3138 C   0  0  0  0  0  0  0  0  0  0  0  0
  -30.1441   17.6323  -16.8174 C   0  0  0  0  0  0  0  0  0  0  0  0
  -29.6329   16.6700  -15.9240 C   0  0  0  0  0  0  0  0  0  0  0  0
  -28.7279   15.7488  -16.2725 N   0  0  0  0  0  0  0  0  0  0  0  0
  -29.8995   17.8842  -18.1568 N   0  0  0  0  0  0  0  0  0  0  0  0
  -30.6763   18.9063  -18.4309 C   0  0  0  0  0  0  0  0  0  0  0  0
  -31.4134   19.3414  -17.3650 N   0  0  0  0  0  0  0  0  0  0  0  0
  1  2  2  0  0  0  0
  1  6  1  0  0  0  0
  2  3  1  0  0  0  0
  3  4  2  0  0  0  0
  4  5  1  0  0  0  0
  4 10  1  0  0  0  0
  5  6  2  0  0  0  0
  5  8  1  0  0  0  0
  6  7  1  0  0  0  0
  8  9  1  0  0  0  0
  9 10  2  0  0  0  0
M  END
>  <CHROM.1>
-30.41311634,17.74904357,-16.32796198,1.13807218,-0.82763911,1.95431613

>  <Name>
ligand

>  <RI>
0

>  <Rbt.Current_Directory>
/home/itssahil/PROJECTS/Mol_Feturizer/New_Systems/rnas/4TZY

>  <Rbt.Executable>
rbdock ($Id: //depot/dev/client3/rdock/2013.1/src/exe/rbdock.cxx#4 $)

>  <Rbt.Library>
libRbt.so (2013.1, Build901 2013/11/27)

>  <Rbt.Parameter_File>
/export/apps/rDock/src/rDock_2013.1_src/data/scripts/dock_solv.prm

>  <Rbt.Receptor>
prm/pocket_docking_4.prm

>  <SCORE>
-14.3947

>  <SCORE.INTER>
-14.3952

>  <SCORE.INTER.CONST>
1

>  <SCORE.INTER.POLAR>
0

>  <SCORE.INTER.ROT>
0

>  <SCORE.INTER.SOLV>
8.15006

>  <SCORE.INTER.VDW>
-15.9135

>  <SCORE.INTER.norm>
-1.43952

>  <SCORE.INTRA>
0

>  <SCORE.INTRA.DIHEDRAL>
0

>  <SCORE.INTRA.DIHEDRAL.0>
0

>  <SCORE.INTRA.POLAR>
0

>  <SCORE.INTRA.POLAR.0>
0

>  <SCORE.INTRA.REPUL>
0

>  <SCORE.INTRA.REPUL.0>
0

>  <SCORE.INTRA.SOLV>
0

>  <SCORE.INTRA.SOLV.lig_0>
-23.8941

>  <SCORE.INTRA.VDW>
0

>  <SCORE.INTRA.VDW.0>
0

>  <SCORE.INTRA.norm>
0

>  <SCORE.RESTR>
0.00051539

>  <SCORE.RESTR.CAVITY>
0.00051539

>  <SCORE.RESTR.norm>
5.1539e-05

>  <SCORE.SYSTEM>
0

>  <SCORE.SYSTEM.CONST>
0

>  <SCORE.SYSTEM.DIHEDRAL>
0

>  <SCORE.SYSTEM.SOLV>
0

>  <SCORE.SYSTEM.norm>
0

>  <SCORE.heavy>
10

>  <SCORE.norm>
-1.43947

>  <RMSD>
0.485

$$$$
ligand
 OpenBabel11021811513D
libRbt.so/2013.1/901 2013/11/27
 10 11  0  0  0  0  0  0  0  0999 V2000
  -30.0813   16.6836  -14.6238 N   0  0  0  0  0  0  0  0  0  0  0  0
  -31.0061   17.5875  -14.2777 C   0  0  0  0  0  0  0  0  0  0  0  0
  -31.5746   18.5322  -15.0251 N   0  0  0  0  0  0  0  0  0  0  0  0
  -31.0958   18.5010  -16.2785 C   0  0  0  0  0  0  0  0  0  0  0  0
  -30.1452   17.6348  -16.7820 C   0  0  0  0  0  0  0  0  0  0  0  0
  -29.6199   16.6777  -15.8911 C   0  0  0  0  0  0  0  0  0  0  0  0
  -28.6954   15.7762  -16.2399 N   0  0  0  0  0  0  0  0  0  0  0  0
  -29.8989   17.8986  -18.1188 N   0  0  0  0  0  0  0  0  0  0  0  0
  -30.6940   18.9069  -18.3915 C   0  0  0  0  0  0  0  0  0  0  0  0
  -31.4448   19.3218  -17.3271 N   0  0  0  0  0  0  0  0  0  0  0  0
  1  2  2  0  0  0  0
  1  6  1  0  0  0  0
  2  3  1  0  0  0  0
  3  4  2  0  0  0  0
  4  5  1  0  0  0  0
  4 10  1  0  0  0  0
  5  6  2  0  0  0  0
  5  8  1  0  0  0  0
  6  7  1  0  0  0  0
  8  9  1  0  0  0  0
  9 10  2  0  0  0  0
M  END
>  <CHROM.1>
-30.41896334,17.74361645,-16.29334949,1.13428979,-0.80771486,1.95691309

>  <Name>
ligand

>  <RI>
0

>  <Rbt.Current_Directory>
/home/itssahil/PROJECTS/Mol_Feturizer/New_Systems/rnas/4TZY

>  <Rbt.Executable>
rbdock ($Id: //depot/dev/client3/rdock/2013.1/src/exe/rbdock.cxx#4 $)

>  <Rbt.Library>
libRbt.so (2013.1, Build901 2013/11/27)

>  <Rbt.Parameter_File>
/export/apps/rDock/src/rDock_2013.1_src/data/scripts/dock_solv.prm

>  <Rbt.Receptor>
prm/pocket_docking_4.prm

>  <SCORE>
-14.3568

>  <SCORE.INTER>
-14.3579

>  <SCORE.INTER.CONST>
1

>  <SCORE.INTER.POLAR>
0

>  <SCORE.INTER.ROT>
0

>  <SCORE.INTER.SOLV>
8.00427

>  <SCORE.INTER.VDW>
-15.84

>  <SCORE.INTER.norm>
-1.43579

>  <SCORE.INTRA>
0

>  <SCORE.INTRA.DIHEDRAL>
0

>  <SCORE.INTRA.DIHEDRAL.0>
0

>  <SCORE.INTRA.POLAR>
0

>  <SCORE.INTRA.POLAR.0>
0

>  <SCORE.INTRA.REPUL>
0

>  <SCORE.INTRA.REPUL.0>
0

>  <SCORE.INTRA.SOLV>
0

>  <SCORE.INTRA.SOLV.lig_0>
-23.8941

>  <SCORE.INTRA.VDW>
0

>  <SCORE.INTRA.VDW.0>
0

>  <SCORE.INTRA.norm>
0

>  <SCORE.RESTR>
0.00113414

>  <SCORE.RESTR.CAVITY>
0.00113414

>  <SCORE.RESTR.norm>
0.000113414

>  <SCORE.SYSTEM>
0

>  <SCORE.SYSTEM.CONST>
0

>  <SCORE.SYSTEM.DIHEDRAL>
0

>  <SCORE.SYSTEM.SOLV>
0

>  <SCORE.SYSTEM.norm>
0

>  <SCORE.heavy>
10

>  <SCORE.norm>
-1.43568

>  <RMSD>
0.485

$$$$
ligand
 OpenBabel11021811513D
libRbt.so/2013.1/901 2013/11/27
 10 11  0  0  0  0  0  0  0  0999 V2000
  -30.0852   16.6944  -14.6454 N   0  0  0  0  0  0  0  0  0  0  0  0
  -30.9915   17.6167  -14.2986 C   0  0  0  0  0  0  0  0  0  0  0  0
  -31.5469   18.5678  -15.0475 N   0  0  0  0  0  0  0  0  0  0  0  0
  -31.0759   18.5219  -16.3035 C   0  0  0  0  0  0  0  0  0  0  0  0
  -30.1441   17.6360  -16.8079 C   0  0  0  0  0  0  0  0  0  0  0  0
  -29.6312   16.6739  -15.9151 C   0  0  0  0  0  0  0  0  0  0  0  0
  -28.7253   15.7540  -16.2646 N   0  0  0  0  0  0  0  0  0  0  0  0
  -29.9006   17.8887  -18.1474 N   0  0  0  0  0  0  0  0  0  0  0  0
  -30.6788   18.9100  -18.4206 C   0  0  0  0  0  0  0  0  0  0  0  0
  -31.4159   19.3437  -17.3542 N   0  0  0  0  0  0  0  0  0  0  0  0
  1  2  2  0  0  0  0
  1  6  1  0  0  0  0
  2  3  1  0  0  0  0
  3  4  2  0  0  0  0
  4  5  1  0  0  0  0
  4 10  1  0  0  0  0
  5  6  2  0  0  0  0
  5  8  1  0  0  0  0
  6  7  1  0  0  0  0
  8  9  1  0  0  0  0
  9 10  2  0  0  0  0
M  END
>  <CHROM.1>
-30.41304174,17.75219523,-16.31828570,1.13665899,-0.82668934,1.95369424

>  <Name>
ligand

>  <RI>
0

>  <Rbt.Current_Directory>
/home/itssahil/PROJECTS/Mol_Feturizer/New_Systems/rnas/4TZY

>  <Rbt.Executable>
rbdock ($Id: //depot/dev/client3/rdock/2013.1/src/exe/rbdock.cxx#4 $)

>  <Rbt.Library>
libRbt.so (2013.1, Build901 2013/11/27)

>  <Rbt.Parameter_File>
/export/apps/rDock/src/rDock_2013.1_src/data/scripts/dock_solv.prm

>  <Rbt.Receptor>
prm/pocket_docking_4.prm

>  <SCORE>
-14.397

>  <SCORE.INTER>
-14.397

>  <SCORE.INTER.CONST>
1

>  <SCORE.INTER.POLAR>
0

>  <SCORE.INTER.ROT>
0

>  <SCORE.INTER.SOLV>
8.12398

>  <SCORE.INTER.VDW>
-15.906

>  <SCORE.INTER.norm>
-1.4397

>  <SCORE.INTRA>
0

>  <SCORE.INTRA.DIHEDRAL>
0

>  <SCORE.INTRA.DIHEDRAL.0>
0

>  <SCORE.INTRA.POLAR>
0

>  <SCORE.INTRA.POLAR.0>
0

>  <SCORE.INTRA.REPUL>
0

>  <SCORE.INTRA.REPUL.0>
0

>  <SCORE.INTRA.SOLV>
0

>  <SCORE.INTRA.SOLV.lig_0>
-23.8941

>  <SCORE.INTRA.VDW>
0

>  <SCORE.INTRA.VDW.0>
0

>  <SCORE.INTRA.norm>
0

>  <SCORE.RESTR>
0

>  <SCORE.RESTR.CAVITY>
0

>  <SCORE.RESTR.norm>
0

>  <SCORE.SYSTEM>
0

>  <SCORE.SYSTEM.CONST>
0

>  <SCORE.SYSTEM.DIHEDRAL>
0

>  <SCORE.SYSTEM.SOLV>
0

>  <SCORE.SYSTEM.norm>
0

>  <SCORE.heavy>
10

>  <SCORE.norm>
-1.4397

>  <RMSD>
0.485

$$$$
ligand
 OpenBabel11021811513D
libRbt.so/2013.1/901 2013/11/27
 10 11  0  0  0  0  0  0  0  0999 V2000
  -30.0911   16.6653  -14.6412 N   0  0  0  0  0  0  0  0  0  0  0  0
  -31.0008   17.5820  -14.2883 C   0  0  0  0  0  0  0  0  0  0  0  0
  -31.5566   18.5387  -15.0298 N   0  0  0  0  0  0  0  0  0  0  0  0
  -31.0820   18.5057  -16.2848 C   0  0  0  0  0  0  0  0  0  0  0  0
  -30.1466   17.6269  -16.7950 C   0  0  0  0  0  0  0  0  0  0  0  0
  -29.6336   16.6579  -15.9098 C   0  0  0  0  0  0  0  0  0  0  0  0
  -28.7244   15.7436  -16.2654 N   0  0  0  0  0  0  0  0  0  0  0  0
  -29.9001   17.8928  -18.1314 N   0  0  0  0  0  0  0  0  0  0  0  0
  -30.6802   18.9145  -18.3972 C   0  0  0  0  0  0  0  0  0  0  0  0
  -31.4213   19.3364  -17.3288 N   0  0  0  0  0  0  0  0  0  0  0  0
  1  2  2  0  0  0  0
  1  6  1  0  0  0  0
  2  3  1  0  0  0  0
  3  4  2  0  0  0  0
  4  5  1  0  0  0  0
  4 10  1  0  0  0  0
  5  6  2  0  0  0  0
  5  8  1  0  0  0  0
  6  7  1  0  0  0  0
  8  9  1  0  0  0  0
  9 10  2  0  0  0  0
M  END
>  <CHROM.1>
-30.41714966,17.73784485,-16.30503740,1.13893027,-0.82327421,1.96469320

>  <Name>
ligand

>  <RI>
0

>  <Rbt.Current_Directory>
/home/itssahil/PROJECTS/Mol_Feturizer/New_Systems/rnas/4TZY

>  <Rbt.Executable>
rbdock ($Id: //depot/dev/client3/rdock/2013.1/src/exe/rbdock.cxx#4 $)

>  <Rbt.Library>
libRbt.so (2013.1, Build901 2013/11/27)

>  <Rbt.Parameter_File>
/export/apps/rDock/src/rDock_2013.1_src/data/scripts/dock_solv.prm

>  <Rbt.Receptor>
prm/pocket_docking_4.prm

>  <SCORE>
-14.3573

>  <SCORE.INTER>
-14.3573

>  <SCORE.INTER.CONST>
1

>  <SCORE.INTER.POLAR>
0

>  <SCORE.INTER.ROT>
0

>  <SCORE.INTER.SOLV>
8.14706

>  <SCORE.INTER.VDW>
-15.8872

>  <SCORE.INTER.norm>
-1.43573

>  <SCORE.INTRA>
0

>  <SCORE.INTRA.DIHEDRAL>
0

>  <SCORE.INTRA.DIHEDRAL.0>
0

>  <SCORE.INTRA.POLAR>
0

>  <SCORE.INTRA.POLAR.0>
0

>  <SCORE.INTRA.REPUL>
0

>  <SCORE.INTRA.REPUL.0>
0

>  <SCORE.INTRA.SOLV>
0

>  <SCORE.INTRA.SOLV.lig_0>
-23.8941

>  <SCORE.INTRA.VDW>
0

>  <SCORE.INTRA.VDW.0>
0

>  <SCORE.INTRA.norm>
0

>  <SCORE.RESTR>
0

>  <SCORE.RESTR.CAVITY>
0

>  <SCORE.RESTR.norm>
0

>  <SCORE.SYSTEM>
0

>  <SCORE.SYSTEM.CONST>
0

>  <SCORE.SYSTEM.DIHEDRAL>
0

>  <SCORE.SYSTEM.SOLV>
0

>  <SCORE.SYSTEM.norm>
0

>  <SCORE.heavy>
10

>  <SCORE.norm>
-1.43573

>  <RMSD>
0.485

$$$$
ligand
 OpenBabel11021811513D
libRbt.so/2013.1/901 2013/11/27
 10 11  0  0  0  0  0  0  0  0999 V2000
  -30.1372   16.6736  -14.6539 N   0  0  0  0  0  0  0  0  0  0  0  0
  -31.0306   17.6094  -14.3096 C   0  0  0  0  0  0  0  0  0  0  0  0
  -31.5623   18.5748  -15.0575 N   0  0  0  0  0  0  0  0  0  0  0  0
  -31.0804   18.5286  -16.3092 C   0  0  0  0  0  0  0  0  0  0  0  0
  -30.1594   17.6298  -16.8108 C   0  0  0  0  0  0  0  0  0  0  0  0
  -29.6717   16.6533  -15.9195 C   0  0  0  0  0  0  0  0  0  0  0  0
  -28.7787   15.7199  -16.2664 N   0  0  0  0  0  0  0  0  0  0  0  0
  -29.8989   17.8867  -18.1462 N   0  0  0  0  0  0  0  0  0  0  0  0
  -30.6567   18.9230  -18.4201 C   0  0  0  0  0  0  0  0  0  0  0  0
  -31.3962   19.3628  -17.3577 N   0  0  0  0  0  0  0  0  0  0  0  0
  1  2  2  0  0  0  0
  1  6  1  0  0  0  0
  2  3  1  0  0  0  0
  3  4  2  0  0  0  0
  4  5  1  0  0  0  0
  4 10  1  0  0  0  0
  5  6  2  0  0  0  0
  5  8  1  0  0  0  0
  6  7  1  0  0  0  0
  8  9  1  0  0  0  0
  9 10  2  0  0  0  0
M  END
>  <CHROM.1>
-30.43087554,17.74754801,-16.32288953,1.15941043,-0.83916696,1.97691951

>  <Name>
ligand

>  <RI>
0

>  <Rbt.Current_Directory>
/home/itssahil/PROJECTS/Mol_Feturizer/New_Systems/rnas/4TZY

>  <Rbt.Executable>
rbdock ($Id: //depot/dev/client3/rdock/2013.1/src/exe/rbdock.cxx#4 $)

>  <Rbt.Library>
libRbt.so (2013.1, Build901 2013/11/27)

>  <Rbt.Parameter_File>
/export/apps/rDock/src/rDock_2013.1_src/data/scripts/dock_solv.prm

>  <Rbt.Receptor>
prm/pocket_docking_5.prm

>  <SCORE>
-14.3732

>  <SCORE.INTER>
-14.3743

>  <SCORE.INTER.CONST>
1

>  <SCORE.INTER.POLAR>
0

>  <SCORE.INTER.ROT>
0

>  <SCORE.INTER.SOLV>
8.31457

>  <SCORE.INTER.VDW>
-15.9544

>  <SCORE.INTER.norm>
-1.43743

>  <SCORE.INTRA>
0

>  <SCORE.INTRA.DIHEDRAL>
0

>  <SCORE.INTRA.DIHEDRAL.0>
0

>  <SCORE.INTRA.POLAR>
0

>  <SCORE.INTRA.POLAR.0>
0

>  <SCORE.INTRA.REPUL>
0

>  <SCORE.INTRA.REPUL.0>
0

>  <SCORE.INTRA.SOLV>
0

>  <SCORE.INTRA.SOLV.lig_0>
-23.8941

>  <SCORE.INTRA.VDW>
0

>  <SCORE.INTRA.VDW.0>
0

>  <SCORE.INTRA.norm>
0

>  <SCORE.RESTR>
0.00105911

>  <SCORE.RESTR.CAVITY>
0.00105911

>  <SCORE.RESTR.norm>
0.000105911

>  <SCORE.SYSTEM>
0

>  <SCORE.SYSTEM.CONST>
0

>  <SCORE.SYSTEM.DIHEDRAL>
0

>  <SCORE.SYSTEM.SOLV>
0

>  <SCORE.SYSTEM.norm>
0

>  <SCORE.heavy>
10

>  <SCORE.norm>
-1.43732

>  <RMSD>
0.485

$$$$
ligand
 OpenBabel11021811513D
libRbt.so/2013.1/901 2013/11/27
 10 11  0  0  0  0  0  0  0  0999 V2000
  -30.0815   16.6880  -14.6352 N   0  0  0  0  0  0  0  0  0  0  0  0
  -30.9951   17.6028  -14.2875 C   0  0  0  0  0  0  0  0  0  0  0  0
  -31.5564   18.5516  -15.0349 N   0  0  0  0  0  0  0  0  0  0  0  0
  -31.0832   18.5123  -16.2902 C   0  0  0  0  0  0  0  0  0  0  0  0
  -30.1442   17.6345  -16.7955 C   0  0  0  0  0  0  0  0  0  0  0  0
  -29.6255   16.6740  -15.9043 C   0  0  0  0  0  0  0  0  0  0  0  0
  -28.7123   15.7617  -16.2546 N   0  0  0  0  0  0  0  0  0  0  0  0
  -29.9005   17.8924  -18.1339 N   0  0  0  0  0  0  0  0  0  0  0  0
  -30.6858   18.9085  -18.4058 C   0  0  0  0  0  0  0  0  0  0  0  0
  -31.4277   19.3341  -17.3394 N   0  0  0  0  0  0  0  0  0  0  0  0
  1  2  2  0  0  0  0
  1  6  1  0  0  0  0
  2  3  1  0  0  0  0
  3  4  2  0  0  0  0
  4  5  1  0  0  0  0
  4 10  1  0  0  0  0
  5  6  2  0  0  0  0
  5  8  1  0  0  0  0
  6  7  1  0  0  0  0
  8  9  1  0  0  0  0
  9 10  2  0  0  0  0
M  END
>  <CHROM.1>
-30.41466203,17.74751942,-16.30595085,1.13463082,-0.81929801,1.95467694

>  <Name>
ligand

>  <RI>
0

>  <Rbt.Current_Directory>
/home/itssahil/PROJECTS/Mol_Feturizer/New_Systems/rnas/4TZY

>  <Rbt.Executable>
rbdock ($Id: //depot/dev/client3/rdock/2013.1/src/exe/rbdock.cxx#4 $)

>  <Rbt.Library>
libRbt.so (2013.1, Build901 2013/11/27)

>  <Rbt.Parameter_File>
/export/apps/rDock/src/rDock_2013.1_src/data/scripts/dock_solv.prm

>  <Rbt.Receptor>
prm/pocket_docking_5.prm

>  <SCORE>
-14.3577

>  <SCORE.INTER>
-14.3577

>  <SCORE.INTER.CONST>
1

>  <SCORE.INTER.POLAR>
0

>  <SCORE.INTER.ROT>
0

>  <SCORE.INTER.SOLV>
8.07619

>  <SCORE.INTER.VDW>
-15.8639

>  <SCORE.INTER.norm>
-1.43577

>  <SCORE.INTRA>
0

>  <SCORE.INTRA.DIHEDRAL>
0

>  <SCORE.INTRA.DIHEDRAL.0>
0

>  <SCORE.INTRA.POLAR>
0

>  <SCORE.INTRA.POLAR.0>
0

>  <SCORE.INTRA.REPUL>
0

>  <SCORE.INTRA.REPUL.0>
0

>  <SCORE.INTRA.SOLV>
0

>  <SCORE.INTRA.SOLV.lig_0>
-23.8941

>  <SCORE.INTRA.VDW>
0

>  <SCORE.INTRA.VDW.0>
0

>  <SCORE.INTRA.norm>
0

>  <SCORE.RESTR>
0

>  <SCORE.RESTR.CAVITY>
0

>  <SCORE.RESTR.norm>
0

>  <SCORE.SYSTEM>
0

>  <SCORE.SYSTEM.CONST>
0

>  <SCORE.SYSTEM.DIHEDRAL>
0

>  <SCORE.SYSTEM.SOLV>
0

>  <SCORE.SYSTEM.norm>
0

>  <SCORE.heavy>
10

>  <SCORE.norm>
-1.43577

>  <RMSD>
0.485

$$$$
ligand
 OpenBabel11021811513D
libRbt.so/2013.1/901 2013/11/27
 10 11  0  0  0  0  0  0  0  0999 V2000
  -30.0929   16.6880  -14.6527 N   0  0  0  0  0  0  0  0  0  0  0  0
  -30.9876   17.6205  -14.3030 C   0  0  0  0  0  0  0  0  0  0  0  0
  -31.5330   18.5793  -15.0495 N   0  0  0  0  0  0  0  0  0  0  0  0
  -31.0646   18.5297  -16.3063 C   0  0  0  0  0  0  0  0  0  0  0  0
  -30.1443   17.6335  -16.8137 C   0  0  0  0  0  0  0  0  0  0  0  0
  -29.6413   16.6641  -15.9232 C   0  0  0  0  0  0  0  0  0  0  0  0
  -28.7470   15.7340  -16.2755 N   0  0  0  0  0  0  0  0  0  0  0  0
  -29.9000   17.8854  -18.1532 N   0  0  0  0  0  0  0  0  0  0  0  0
  -30.6665   18.9162  -18.4236 C   0  0  0  0  0  0  0  0  0  0  0  0
  -31.3966   19.3570  -17.3552 N   0  0  0  0  0  0  0  0  0  0  0  0
  1  2  2  0  0  0  0
  1  6  1  0  0  0  0
  2  3  1  0  0  0  0
  3  4  2  0  0  0  0
  4  5  1  0  0  0  0
  4 10  1  0  0  0  0
  5  6  2  0  0  0  0
  5  8  1  0  0  0  0
  6  7  1  0  0  0  0
  8  9  1  0  0  0  0
  9 10  2  0  0  0  0
M  END
>  <CHROM.1>
-30.41097132,17.75218143,-16.32341879,1.14095834,-0.83831456,1.95837686

>  <Name>
ligand

>  <RI>
0

>  <Rbt.Current_Directory>
/home/itssahil/PROJECTS/Mol_Feturizer/New_Systems/rnas/4TZY

>  <Rbt.Executable>
rbdock ($Id: //depot/dev/client3/rdock/2013.1/src/exe/rbdock.cxx#4 $)

>  <Rbt.Library>
libRbt.so (2013.1, Build901 2013/11/27)

>  <Rbt.Parameter_File>
/export/apps/rDock/src/rDock_2013.1_src/data/scripts/dock_solv.prm

>  <Rbt.Receptor>
prm/pocket_docking_5.prm

>  <SCORE>
-14.3949

>  <SCORE.INTER>
-14.3949

>  <SCORE.INTER.CONST>
1

>  <SCORE.INTER.POLAR>
0

>  <SCORE.INTER.ROT>
0

>  <SCORE.INTER.SOLV>
8.22974

>  <SCORE.INTER.VDW>
-15.9399

>  <SCORE.INTER.norm>
-1.43949

>  <SCORE.INTRA>
0

>  <SCORE.INTRA.DIHEDRAL>
0

>  <SCORE.INTRA.DIHEDRAL.0>
0

>  <SCORE.INTRA.POLAR>
0

>  <SCORE.INTRA.POLAR.0>
0

>  <SCORE.INTRA.REPUL>
0

>  <SCORE.INTRA.REPUL.0>
0

>  <SCORE.INTRA.SOLV>
0

>  <SCORE.INTRA.SOLV.lig_0>
-23.8941

>  <SCORE.INTRA.VDW>
0

>  <SCORE.INTRA.VDW.0>
0

>  <SCORE.INTRA.norm>
0

>  <SCORE.RESTR>
3.2254e-05

>  <SCORE.RESTR.CAVITY>
3.2254e-05

>  <SCORE.RESTR.norm>
3.2254e-06

>  <SCORE.SYSTEM>
0

>  <SCORE.SYSTEM.CONST>
0

>  <SCORE.SYSTEM.DIHEDRAL>
0

>  <SCORE.SYSTEM.SOLV>
0

>  <SCORE.SYSTEM.norm>
0

>  <SCORE.heavy>
10

>  <SCORE.norm>
-1.43949

>  <RMSD>
0.485

$$$$
ligand
 OpenBabel11021811513D
libRbt.so/2013.1/901 2013/11/27
 10 11  0  0  0  0  0  0  0  0999 V2000
  -30.1500   16.6617  -14.6426 N   0  0  0  0  0  0  0  0  0  0  0  0
  -31.0515   17.5901  -14.2995 C   0  0  0  0  0  0  0  0  0  0  0  0
  -31.5854   18.5551  -15.0464 N   0  0  0  0  0  0  0  0  0  0  0  0
  -31.0961   18.5173  -16.2955 C   0  0  0  0  0  0  0  0  0  0  0  0
  -30.1663   17.6268  -16.7955 C   0  0  0  0  0  0  0  0  0  0  0  0
  -29.6772   16.6498  -15.9055 C   0  0  0  0  0  0  0  0  0  0  0  0
  -28.7760   15.7239  -16.2512 N   0  0  0  0  0  0  0  0  0  0  0  0
  -29.8999   17.8910  -18.1283 N   0  0  0  0  0  0  0  0  0  0  0  0
  -30.6629   18.9234  -18.4022 C   0  0  0  0  0  0  0  0  0  0  0  0
  -31.4114   19.3538  -17.3423 N   0  0  0  0  0  0  0  0  0  0  0  0
  1  2  2  0  0  0  0
  1  6  1  0  0  0  0
  2  3  1  0  0  0  0
  3  4  2  0  0  0  0
  4  5  1  0  0  0  0
  4 10  1  0  0  0  0
  5  6  2  0  0  0  0
  5  8  1  0  0  0  0
  6  7  1  0  0  0  0
  8  9  1  0  0  0  0
  9 10  2  0  0  0  0
M  END
>  <CHROM.1>
-30.44128335,17.74069595,-16.30870208,1.16328480,-0.83078245,1.98397945

>  <Name>
ligand

>  <RI>
0

>  <Rbt.Current_Directory>
/home/itssahil/PROJECTS/Mol_Feturizer/New_Systems/rnas/4TZY

>  <Rbt.Executable>
rbdock ($Id: //depot/dev/client3/rdock/2013.1/src/exe/rbdock.cxx#4 $)

>  <Rbt.Library>
libRbt.so (2013.1, Build901 2013/11/27)

>  <Rbt.Parameter_File>
/export/apps/rDock/src/rDock_2013.1_src/data/scripts/dock_solv.prm

>  <Rbt.Receptor>
prm/pocket_docking_5.prm

>  <SCORE>
-14.4014

>  <SCORE.INTER>
-14.4016

>  <SCORE.INTER.CONST>
1

>  <SCORE.INTER.POLAR>
0

>  <SCORE.INTER.ROT>
0

>  <SCORE.INTER.SOLV>
8.27792

>  <SCORE.INTER.VDW>
-15.9603

>  <SCORE.INTER.norm>
-1.44016

>  <SCORE.INTRA>
0

>  <SCORE.INTRA.DIHEDRAL>
0

>  <SCORE.INTRA.DIHEDRAL.0>
0

>  <SCORE.INTRA.POLAR>
0

>  <SCORE.INTRA.POLAR.0>
0

>  <SCORE.INTRA.REPUL>
0

>  <SCORE.INTRA.REPUL.0>
0

>  <SCORE.INTRA.SOLV>
0

>  <SCORE.INTRA.SOLV.lig_0>
-23.8941

>  <SCORE.INTRA.VDW>
0

>  <SCORE.INTRA.VDW.0>
0

>  <SCORE.INTRA.norm>
0

>  <SCORE.RESTR>
0.000115893

>  <SCORE.RESTR.CAVITY>
0.000115893

>  <SCORE.RESTR.norm>
1.15893e-05

>  <SCORE.SYSTEM>
0

>  <SCORE.SYSTEM.CONST>
0

>  <SCORE.SYSTEM.DIHEDRAL>
0

>  <SCORE.SYSTEM.SOLV>
0

>  <SCORE.SYSTEM.norm>
0

>  <SCORE.heavy>
10

>  <SCORE.norm>
-1.44014

>  <RMSD>
0.485

$$$$
ligand
 OpenBabel11021811513D
libRbt.so/2013.1/901 2013/11/27
 10 11  0  0  0  0  0  0  0  0999 V2000
  -30.1286   16.6640  -14.6510 N   0  0  0  0  0  0  0  0  0  0  0  0
  -31.0064   17.6105  -14.2961 C   0  0  0  0  0  0  0  0  0  0  0  0
  -31.5304   18.5862  -15.0360 N   0  0  0  0  0  0  0  0  0  0  0  0
  -31.0586   18.5386  -16.2916 C   0  0  0  0  0  0  0  0  0  0  0  0
  -30.1539   17.6293  -16.8038 C   0  0  0  0  0  0  0  0  0  0  0  0
  -29.6730   16.6425  -15.9202 C   0  0  0  0  0  0  0  0  0  0  0  0
  -28.7956   15.6984  -16.2777 N   0  0  0  0  0  0  0  0  0  0  0  0
  -29.9000   17.8881  -18.1401 N   0  0  0  0  0  0  0  0  0  0  0  0
  -30.6454   18.9360  -18.4040 C   0  0  0  0  0  0  0  0  0  0  0  0
  -31.3708   19.3814  -17.3342 N   0  0  0  0  0  0  0  0  0  0  0  0
  1  2  2  0  0  0  0
  1  6  1  0  0  0  0
  2  3  1  0  0  0  0
  3  4  2  0  0  0  0
  4  5  1  0  0  0  0
  4 10  1  0  0  0  0
  5  6  2  0  0  0  0
  5  8  1  0  0  0  0
  6  7  1  0  0  0  0
  8  9  1  0  0  0  0
  9 10  2  0  0  0  0
M  END
>  <CHROM.1>
-30.42003560,17.74877518,-16.31335637,1.15714633,-0.85480644,1.97933145

>  <Name>
ligand

>  <RI>
0

>  <Rbt.Current_Directory>
/home/itssahil/PROJECTS/Mol_Feturizer/New_Systems/rnas/4TZY

>  <Rbt.Executable>
rbdock ($Id: //depot/dev/client3/rdock/2013.1/src/exe/rbdock.cxx#4 $)

>  <Rbt.Library>
libRbt.so (2013.1, Build901 2013/11/27)

>  <Rbt.Parameter_File>
/export/apps/rDock/src/rDock_2013.1_src/data/scripts/dock_solv.prm

>  <Rbt.Receptor>
prm/pocket_docking_5.prm

>  <SCORE>
-14.3815

>  <SCORE.INTER>
-14.3815

>  <SCORE.INTER.CONST>
1

>  <SCORE.INTER.POLAR>
0

>  <SCORE.INTER.ROT>
0

>  <SCORE.INTER.SOLV>
8.42105

>  <SCORE.INTER.VDW>
-15.9947

>  <SCORE.INTER.norm>
-1.43815

>  <SCORE.INTRA>
0

>  <SCORE.INTRA.DIHEDRAL>
0

>  <SCORE.INTRA.DIHEDRAL.0>
0

>  <SCORE.INTRA.POLAR>
0

>  <SCORE.INTRA.POLAR.0>
0

>  <SCORE.INTRA.REPUL>
0

>  <SCORE.INTRA.REPUL.0>
0

>  <SCORE.INTRA.SOLV>
0

>  <SCORE.INTRA.SOLV.lig_0>
-23.8941

>  <SCORE.INTRA.VDW>
0

>  <SCORE.INTRA.VDW.0>
0

>  <SCORE.INTRA.norm>
0

>  <SCORE.RESTR>
0

>  <SCORE.RESTR.CAVITY>
0

>  <SCORE.RESTR.norm>
0

>  <SCORE.SYSTEM>
0

>  <SCORE.SYSTEM.CONST>
0

>  <SCORE.SYSTEM.DIHEDRAL>
0

>  <SCORE.SYSTEM.SOLV>
0

>  <SCORE.SYSTEM.norm>
0

>  <SCORE.heavy>
10

>  <SCORE.norm>
-1.43815

>  <RMSD>
0.485

$$$$
ligand
 OpenBabel11021811513D
libRbt.so/2013.1/901 2013/11/27
 10 11  0  0  0  0  0  0  0  0999 V2000
  -30.1323   16.6658  -14.6529 N   0  0  0  0  0  0  0  0  0  0  0  0
  -31.0239   17.6018  -14.3042 C   0  0  0  0  0  0  0  0  0  0  0  0
  -31.5559   18.5698  -15.0484 N   0  0  0  0  0  0  0  0  0  0  0  0
  -31.0765   18.5264  -16.3012 C   0  0  0  0  0  0  0  0  0  0  0  0
  -30.1576   17.6279  -16.8070 C   0  0  0  0  0  0  0  0  0  0  0  0
  -29.6694   16.6484  -15.9194 C   0  0  0  0  0  0  0  0  0  0  0  0
  -28.7781   15.7149  -16.2707 N   0  0  0  0  0  0  0  0  0  0  0  0
  -29.8994   17.8881  -18.1423 N   0  0  0  0  0  0  0  0  0  0  0  0
  -30.6564   18.9262  -18.4118 C   0  0  0  0  0  0  0  0  0  0  0  0
  -31.3933   19.3639  -17.3468 N   0  0  0  0  0  0  0  0  0  0  0  0
  1  2  2  0  0  0  0
  1  6  1  0  0  0  0
  2  3  1  0  0  0  0
  3  4  2  0  0  0  0
  4  5  1  0  0  0  0
  4 10  1  0  0  0  0
  5  6  2  0  0  0  0
  5  8  1  0  0  0  0
  6  7  1  0  0  0  0
  8  9  1  0  0  0  0
  9 10  2  0  0  0  0
M  END
>  <CHROM.1>
-30.42794413,17.74467240,-16.31830370,1.15743436,-0.84107672,1.97819257

>  <Name>
ligand

>  <RI>
0

>  <Rbt.Current_Directory>
/home/itssahil/PROJECTS/Mol_Feturizer/New_Systems/rnas/4TZY

>  <Rbt.Executable>
rbdock ($Id: //depot/dev/client3/rdock/2013.1/src/exe/rbdock.cxx#4 $)

>  <Rbt.Library>
libRbt.so (2013.1, Build901 2013/11/27)

>  <Rbt.Parameter_File>
/export/apps/rDock/src/rDock_2013.1_src/data/scripts/dock_solv.prm

>  <Rbt.Receptor>
prm/pocket_docking_6.prm

>  <SCORE>
-14.3765

>  <SCORE.INTER>
-14.3771

>  <SCORE.INTER.CONST>
1

>  <SCORE.INTER.POLAR>
0

>  <SCORE.INTER.ROT>
0

>  <SCORE.INTER.SOLV>
8.33267

>  <SCORE.INTER.VDW>
-15.9623

>  <SCORE.INTER.norm>
-1.43771

>  <SCORE.INTRA>
0

>  <SCORE.INTRA.DIHEDRAL>
0

>  <SCORE.INTRA.DIHEDRAL.0>
0

>  <SCORE.INTRA.POLAR>
0

>  <SCORE.INTRA.POLAR.0>
0

>  <SCORE.INTRA.REPUL>
0

>  <SCORE.INTRA.REPUL.0>
0

>  <SCORE.INTRA.SOLV>
0

>  <SCORE.INTRA.SOLV.lig_0>
-23.8941

>  <SCORE.INTRA.VDW>
0

>  <SCORE.INTRA.VDW.0>
0

>  <SCORE.INTRA.norm>
0

>  <SCORE.RESTR>
0.000577968

>  <SCORE.RESTR.CAVITY>
0.000577968

>  <SCORE.RESTR.norm>
5.77968e-05

>  <SCORE.SYSTEM>
0

>  <SCORE.SYSTEM.CONST>
0

>  <SCORE.SYSTEM.DIHEDRAL>
0

>  <SCORE.SYSTEM.SOLV>
0

>  <SCORE.SYSTEM.norm>
0

>  <SCORE.heavy>
10

>  <SCORE.norm>
-1.43765

>  <RMSD>
0.485

$$$$
ligand
 OpenBabel11021811513D
libRbt.so/2013.1/901 2013/11/27
 10 11  0  0  0  0  0  0  0  0999 V2000
  -30.1226   16.6809  -14.6596 N   0  0  0  0  0  0  0  0  0  0  0  0
  -31.0071   17.6239  -14.3121 C   0  0  0  0  0  0  0  0  0  0  0  0
  -31.5364   18.5913  -15.0590 N   0  0  0  0  0  0  0  0  0  0  0  0
  -31.0625   18.5386  -16.3136 C   0  0  0  0  0  0  0  0  0  0  0  0
  -30.1511   17.6320  -16.8186 C   0  0  0  0  0  0  0  0  0  0  0  0
  -29.6650   16.6542  -15.9279 C   0  0  0  0  0  0  0  0  0  0  0  0
  -28.7809   15.7136  -16.2781 N   0  0  0  0  0  0  0  0  0  0  0  0
  -29.8970   17.8839  -18.1562 N   0  0  0  0  0  0  0  0  0  0  0  0
  -30.6489   18.9250  -18.4279 C   0  0  0  0  0  0  0  0  0  0  0  0
  -31.3787   19.3726  -17.3621 N   0  0  0  0  0  0  0  0  0  0  0  0
  1  2  2  0  0  0  0
  1  6  1  0  0  0  0
  2  3  1  0  0  0  0
  3  4  2  0  0  0  0
  4  5  1  0  0  0  0
  4 10  1  0  0  0  0
  5  6  2  0  0  0  0
  5  8  1  0  0  0  0
  6  7  1  0  0  0  0
  8  9  1  0  0  0  0
  9 10  2  0  0  0  0
M  END
>  <CHROM.1>
-30.41872434,17.75291380,-16.32933183,1.15520065,-0.84820061,1.97138056

>  <Name>
ligand

>  <RI>
0

>  <Rbt.Current_Directory>
/home/itssahil/PROJECTS/Mol_Feturizer/New_Systems/rnas/4TZY

>  <Rbt.Executable>
rbdock ($Id: //depot/dev/client3/rdock/2013.1/src/exe/rbdock.cxx#4 $)

>  <Rbt.Library>
libRbt.so (2013.1, Build901 2013/11/27)

>  <Rbt.Parameter_File>
/export/apps/rDock/src/rDock_2013.1_src/data/scripts/dock_solv.prm

>  <Rbt.Receptor>
prm/pocket_docking_6.prm

>  <SCORE>
-14.3846

>  <SCORE.INTER>
-14.3876

>  <SCORE.INTER.CONST>
1

>  <SCORE.INTER.POLAR>
0

>  <SCORE.INTER.ROT>
0

>  <SCORE.INTER.SOLV>
8.35263

>  <SCORE.INTER.VDW>
-15.976

>  <SCORE.INTER.norm>
-1.43876

>  <SCORE.INTRA>
0

>  <SCORE.INTRA.DIHEDRAL>
0

>  <SCORE.INTRA.DIHEDRAL.0>
0

>  <SCORE.INTRA.POLAR>
0

>  <SCORE.INTRA.POLAR.0>
0

>  <SCORE.INTRA.REPUL>
0

>  <SCORE.INTRA.REPUL.0>
0

>  <SCORE.INTRA.SOLV>
0

>  <SCORE.INTRA.SOLV.lig_0>
-23.8941

>  <SCORE.INTRA.VDW>
0

>  <SCORE.INTRA.VDW.0>
0

>  <SCORE.INTRA.norm>
0

>  <SCORE.RESTR>
0.00301518

>  <SCORE.RESTR.CAVITY>
0.00301518

>  <SCORE.RESTR.norm>
0.000301518

>  <SCORE.SYSTEM>
0

>  <SCORE.SYSTEM.CONST>
0

>  <SCORE.SYSTEM.DIHEDRAL>
0

>  <SCORE.SYSTEM.SOLV>
0

>  <SCORE.SYSTEM.norm>
0

>  <SCORE.heavy>
10

>  <SCORE.norm>
-1.43846

>  <RMSD>
0.485

$$$$
ligand
 OpenBabel11021811513D
libRbt.so/2013.1/901 2013/11/27
 10 11  0  0  0  0  0  0  0  0999 V2000
  -30.1548   16.6661  -14.6425 N   0  0  0  0  0  0  0  0  0  0  0  0
  -31.0544   17.5970  -14.3011 C   0  0  0  0  0  0  0  0  0  0  0  0
  -31.5856   18.5622  -15.0494 N   0  0  0  0  0  0  0  0  0  0  0  0
  -31.0956   18.5219  -16.2982 C   0  0  0  0  0  0  0  0  0  0  0  0
  -30.1676   17.6286  -16.7966 C   0  0  0  0  0  0  0  0  0  0  0  0
  -29.6812   16.6516  -15.9052 C   0  0  0  0  0  0  0  0  0  0  0  0
  -28.7819   15.7232  -16.2492 N   0  0  0  0  0  0  0  0  0  0  0  0
  -29.8998   17.8906  -18.1296 N   0  0  0  0  0  0  0  0  0  0  0  0
  -30.6603   18.9245  -18.4052 C   0  0  0  0  0  0  0  0  0  0  0  0
  -31.4084   19.3578  -17.3462 N   0  0  0  0  0  0  0  0  0  0  0  0
  1  2  2  0  0  0  0
  1  6  1  0  0  0  0
  2  3  1  0  0  0  0
  3  4  2  0  0  0  0
  4  5  1  0  0  0  0
  4 10  1  0  0  0  0
  5  6  2  0  0  0  0
  5  8  1  0  0  0  0
  6  7  1  0  0  0  0
  8  9  1  0  0  0  0
  9 10  2  0  0  0  0
M  END
>  <CHROM.1>
-30.44260024,17.74372116,-16.31008695,1.16546300,-0.83264491,1.98439353

>  <Name>
ligand

>  <RI>
0

>  <Rbt.Current_Directory>
/home/itssahil/PROJECTS/Mol_Feturizer/New_Systems/rnas/4TZY

>  <Rbt.Executable>
rbdock ($Id: //depot/dev/client3/rdock/2013.1/src/exe/rbdock.cxx#4 $)

>  <Rbt.Library>
libRbt.so (2013.1, Build901 2013/11/27)

>  <Rbt.Parameter_File>
/export/apps/rDock/src/rDock_2013.1_src/data/scripts/dock_solv.prm

>  <Rbt.Receptor>
prm/pocket_docking_7.prm

>  <SCORE>
-14.3996

>  <SCORE.INTER>
-14.3998

>  <SCORE.INTER.CONST>
1

>  <SCORE.INTER.POLAR>
0

>  <SCORE.INTER.ROT>
0

>  <SCORE.INTER.SOLV>
8.28878

>  <SCORE.INTER.VDW>
-15.9628

>  <SCORE.INTER.norm>
-1.43998

>  <SCORE.INTRA>
0

>  <SCORE.INTRA.DIHEDRAL>
0

>  <SCORE.INTRA.DIHEDRAL.0>
0

>  <SCORE.INTRA.POLAR>
0

>  <SCORE.INTRA.POLAR.0>
0

>  <SCORE.INTRA.REPUL>
0

>  <SCORE.INTRA.REPUL.0>
0

>  <SCORE.INTRA.SOLV>
0

>  <SCORE.INTRA.SOLV.lig_0>
-23.8941

>  <SCORE.INTRA.VDW>
0

>  <SCORE.INTRA.VDW.0>
0

>  <SCORE.INTRA.norm>
0

>  <SCORE.RESTR>
0.000223582

>  <SCORE.RESTR.CAVITY>
0.000223582

>  <SCORE.RESTR.norm>
2.23582e-05

>  <SCORE.SYSTEM>
0

>  <SCORE.SYSTEM.CONST>
0

>  <SCORE.SYSTEM.DIHEDRAL>
0

>  <SCORE.SYSTEM.SOLV>
0

>  <SCORE.SYSTEM.norm>
0

>  <SCORE.heavy>
10

>  <SCORE.norm>
-1.43996

>  <RMSD>
0.485

$$$$
ligand
 OpenBabel11021811513D
libRbt.so/2013.1/901 2013/11/27
 10 11  0  0  0  0  0  0  0  0999 V2000
  -30.0896   16.7001  -14.6317 N   0  0  0  0  0  0  0  0  0  0  0  0
  -31.0037   17.6162  -14.2889 C   0  0  0  0  0  0  0  0  0  0  0  0
  -31.5630   18.5629  -15.0406 N   0  0  0  0  0  0  0  0  0  0  0  0
  -31.0869   18.5195  -16.2947 C   0  0  0  0  0  0  0  0  0  0  0  0
  -30.1470   17.6398  -16.7951 C   0  0  0  0  0  0  0  0  0  0  0  0
  -29.6307   16.6820  -15.8997 C   0  0  0  0  0  0  0  0  0  0  0  0
  -28.7170   15.7683  -16.2451 N   0  0  0  0  0  0  0  0  0  0  0  0
  -29.9003   17.8934  -18.1337 N   0  0  0  0  0  0  0  0  0  0  0  0
  -30.6846   18.9089  -18.4106 C   0  0  0  0  0  0  0  0  0  0  0  0
  -31.4288   19.3382  -17.3472 N   0  0  0  0  0  0  0  0  0  0  0  0
  1  2  2  0  0  0  0
  1  6  1  0  0  0  0
  2  3  1  0  0  0  0
  3  4  2  0  0  0  0
  4  5  1  0  0  0  0
  4 10  1  0  0  0  0
  5  6  2  0  0  0  0
  5  8  1  0  0  0  0
  6  7  1  0  0  0  0
  8  9  1  0  0  0  0
  9 10  2  0  0  0  0
M  END
>  <CHROM.1>
-30.41861156,17.75446918,-16.30649702,1.13786966,-0.81875420,1.95390523

>  <Name>
ligand

>  <RI>
0

>  <Rbt.Current_Directory>
/home/itssahil/PROJECTS/Mol_Feturizer/New_Systems/rnas/4TZY

>  <Rbt.Executable>
rbdock ($Id: //depot/dev/client3/rdock/2013.1/src/exe/rbdock.cxx#4 $)

>  <Rbt.Library>
libRbt.so (2013.1, Build901 2013/11/27)

>  <Rbt.Parameter_File>
/export/apps/rDock/src/rDock_2013.1_src/data/scripts/dock_solv.prm

>  <Rbt.Receptor>
prm/pocket_docking_8.prm

>  <SCORE>
-14.3938

>  <SCORE.INTER>
-14.3938

>  <SCORE.INTER.CONST>
1

>  <SCORE.INTER.POLAR>
0

>  <SCORE.INTER.ROT>
0

>  <SCORE.INTER.SOLV>
8.06094

>  <SCORE.INTER.VDW>
-15.8828

>  <SCORE.INTER.norm>
-1.43938

>  <SCORE.INTRA>
0

>  <SCORE.INTRA.DIHEDRAL>
0

>  <SCORE.INTRA.DIHEDRAL.0>
0

>  <SCORE.INTRA.POLAR>
0

>  <SCORE.INTRA.POLAR.0>
0

>  <SCORE.INTRA.REPUL>
0

>  <SCORE.INTRA.REPUL.0>
0

>  <SCORE.INTRA.SOLV>
0

>  <SCORE.INTRA.SOLV.lig_0>
-23.8941

>  <SCORE.INTRA.VDW>
0

>  <SCORE.INTRA.VDW.0>
0

>  <SCORE.INTRA.norm>
0

>  <SCORE.RESTR>
0

>  <SCORE.RESTR.CAVITY>
0

>  <SCORE.RESTR.norm>
0

>  <SCORE.SYSTEM>
0

>  <SCORE.SYSTEM.CONST>
0

>  <SCORE.SYSTEM.DIHEDRAL>
0

>  <SCORE.SYSTEM.SOLV>
0

>  <SCORE.SYSTEM.norm>
0

>  <SCORE.heavy>
10

>  <SCORE.norm>
-1.43938

>  <RMSD>
0.485

$$$$
ligand
 OpenBabel11021811513D
libRbt.so/2013.1/901 2013/11/27
 10 11  0  0  0  0  0  0  0  0999 V2000
  -30.1383   16.6667  -14.6505 N   0  0  0  0  0  0  0  0  0  0  0  0
  -31.0326   17.6007  -14.3037 C   0  0  0  0  0  0  0  0  0  0  0  0
  -31.5648   18.5679  -15.0488 N   0  0  0  0  0  0  0  0  0  0  0  0
  -31.0824   18.5259  -16.3005 C   0  0  0  0  0  0  0  0  0  0  0  0
  -30.1604   17.6294  -16.8044 C   0  0  0  0  0  0  0  0  0  0  0  0
  -29.6723   16.6506  -15.9159 C   0  0  0  0  0  0  0  0  0  0  0  0
  -28.7783   15.7191  -16.2654 N   0  0  0  0  0  0  0  0  0  0  0  0
  -29.8997   17.8906  -18.1389 N   0  0  0  0  0  0  0  0  0  0  0  0
  -30.6582   18.9271  -18.4100 C   0  0  0  0  0  0  0  0  0  0  0  0
  -31.3985   19.3630  -17.3465 N   0  0  0  0  0  0  0  0  0  0  0  0
  1  2  2  0  0  0  0
  1  6  1  0  0  0  0
  2  3  1  0  0  0  0
  3  4  2  0  0  0  0
  4  5  1  0  0  0  0
  4 10  1  0  0  0  0
  5  6  2  0  0  0  0
  5  8  1  0  0  0  0
  6  7  1  0  0  0  0
  8  9  1  0  0  0  0
  9 10  2  0  0  0  0
M  END
>  <CHROM.1>
-30.43220061,17.74547055,-16.31626957,1.15944446,-0.83821870,1.97999529

>  <Name>
ligand

>  <RI>
0

>  <Rbt.Current_Directory>
/home/itssahil/PROJECTS/Mol_Feturizer/New_Systems/rnas/4TZY

>  <Rbt.Executable>
rbdock ($Id: //depot/dev/client3/rdock/2013.1/src/exe/rbdock.cxx#4 $)

>  <Rbt.Library>
libRbt.so (2013.1, Build901 2013/11/27)

>  <Rbt.Parameter_File>
/export/apps/rDock/src/rDock_2013.1_src/data/scripts/dock_solv.prm

>  <Rbt.Receptor>
prm/blind_docking_60.prm

>  <SCORE>
-14.3721

>  <SCORE.INTER>
-14.3725

>  <SCORE.INTER.CONST>
1

>  <SCORE.INTER.POLAR>
0

>  <SCORE.INTER.ROT>
0

>  <SCORE.INTER.SOLV>
8.31611

>  <SCORE.INTER.VDW>
-15.9537

>  <SCORE.INTER.norm>
-1.43725

>  <SCORE.INTRA>
0

>  <SCORE.INTRA.DIHEDRAL>
0

>  <SCORE.INTRA.DIHEDRAL.0>
0

>  <SCORE.INTRA.POLAR>
0

>  <SCORE.INTRA.POLAR.0>
0

>  <SCORE.INTRA.REPUL>
0

>  <SCORE.INTRA.REPUL.0>
0

>  <SCORE.INTRA.SOLV>
0

>  <SCORE.INTRA.SOLV.lig_0>
-23.8941

>  <SCORE.INTRA.VDW>
0

>  <SCORE.INTRA.VDW.0>
0

>  <SCORE.INTRA.norm>
0

>  <SCORE.RESTR>
0.00033503

>  <SCORE.RESTR.CAVITY>
0.00033503

>  <SCORE.RESTR.norm>
3.3503e-05

>  <SCORE.SYSTEM>
0

>  <SCORE.SYSTEM.CONST>
0

>  <SCORE.SYSTEM.DIHEDRAL>
0

>  <SCORE.SYSTEM.SOLV>
0

>  <SCORE.SYSTEM.norm>
0

>  <SCORE.heavy>
10

>  <SCORE.norm>
-1.43721

>  <RMSD>
0.486

$$$$
ligand
 OpenBabel11021811513D
libRbt.so/2013.1/901 2013/11/27
 10 11  0  0  0  0  0  0  0  0999 V2000
  -30.1263   16.6662  -14.6578 N   0  0  0  0  0  0  0  0  0  0  0  0
  -31.0142   17.6049  -14.3073 C   0  0  0  0  0  0  0  0  0  0  0  0
  -31.5453   18.5741  -15.0505 N   0  0  0  0  0  0  0  0  0  0  0  0
  -31.0694   18.5288  -16.3046 C   0  0  0  0  0  0  0  0  0  0  0  0
  -30.1545   17.6273  -16.8124 C   0  0  0  0  0  0  0  0  0  0  0  0
  -29.6667   16.6468  -15.9256 C   0  0  0  0  0  0  0  0  0  0  0  0
  -28.7792   15.7105  -16.2788 N   0  0  0  0  0  0  0  0  0  0  0  0
  -29.8991   17.8862  -18.1484 N   0  0  0  0  0  0  0  0  0  0  0  0
  -30.6538   18.9263  -18.4165 C   0  0  0  0  0  0  0  0  0  0  0  0
  -31.3865   19.3667  -17.3497 N   0  0  0  0  0  0  0  0  0  0  0  0
  1  2  2  0  0  0  0
  1  6  1  0  0  0  0
  2  3  1  0  0  0  0
  3  4  2  0  0  0  0
  4  5  1  0  0  0  0
  4 10  1  0  0  0  0
  5  6  2  0  0  0  0
  5  8  1  0  0  0  0
  6  7  1  0  0  0  0
  8  9  1  0  0  0  0
  9 10  2  0  0  0  0
M  END
>  <CHROM.1>
-30.42319431,17.74509496,-16.32299580,1.15549153,-0.84479100,1.97626673

>  <Name>
ligand

>  <RI>
0

>  <Rbt.Current_Directory>
/home/itssahil/PROJECTS/Mol_Feturizer/New_Systems/rnas/4TZY

>  <Rbt.Executable>
rbdock ($Id: //depot/dev/client3/rdock/2013.1/src/exe/rbdock.cxx#4 $)

>  <Rbt.Library>
libRbt.so (2013.1, Build901 2013/11/27)

>  <Rbt.Parameter_File>
/export/apps/rDock/src/rDock_2013.1_src/data/scripts/dock_solv.prm

>  <Rbt.Receptor>
prm/blind_docking_60.prm

>  <SCORE>
-14.3793

>  <SCORE.INTER>
-14.3802

>  <SCORE.INTER.CONST>
1

>  <SCORE.INTER.POLAR>
0

>  <SCORE.INTER.ROT>
0

>  <SCORE.INTER.SOLV>
8.35712

>  <SCORE.INTER.VDW>
-15.9725

>  <SCORE.INTER.norm>
-1.43802

>  <SCORE.INTRA>
0

>  <SCORE.INTRA.DIHEDRAL>
0

>  <SCORE.INTRA.DIHEDRAL.0>
0

>  <SCORE.INTRA.POLAR>
0

>  <SCORE.INTRA.POLAR.0>
0

>  <SCORE.INTRA.REPUL>
0

>  <SCORE.INTRA.REPUL.0>
0

>  <SCORE.INTRA.SOLV>
0

>  <SCORE.INTRA.SOLV.lig_0>
-23.8941

>  <SCORE.INTRA.VDW>
0

>  <SCORE.INTRA.VDW.0>
0

>  <SCORE.INTRA.norm>
0

>  <SCORE.RESTR>
0.000894743

>  <SCORE.RESTR.CAVITY>
0.000894743

>  <SCORE.RESTR.norm>
8.94743e-05

>  <SCORE.SYSTEM>
0

>  <SCORE.SYSTEM.CONST>
0

>  <SCORE.SYSTEM.DIHEDRAL>
0

>  <SCORE.SYSTEM.SOLV>
0

>  <SCORE.SYSTEM.norm>
0

>  <SCORE.heavy>
10

>  <SCORE.norm>
-1.43793

>  <RMSD>
0.486

$$$$
ligand
 OpenBabel11021811513D
libRbt.so/2013.1/901 2013/11/27
 10 11  0  0  0  0  0  0  0  0999 V2000
  -30.1309   16.6696  -14.6570 N   0  0  0  0  0  0  0  0  0  0  0  0
  -31.0199   17.6081  -14.3086 C   0  0  0  0  0  0  0  0  0  0  0  0
  -31.5507   18.5762  -15.0536 N   0  0  0  0  0  0  0  0  0  0  0  0
  -31.0730   18.5299  -16.3070 C   0  0  0  0  0  0  0  0  0  0  0  0
  -30.1568   17.6285  -16.8126 C   0  0  0  0  0  0  0  0  0  0  0  0
  -29.6696   16.6493  -15.9241 C   0  0  0  0  0  0  0  0  0  0  0  0
  -28.7810   15.7132  -16.2752 N   0  0  0  0  0  0  0  0  0  0  0  0
  -29.8998   17.8862  -18.1486 N   0  0  0  0  0  0  0  0  0  0  0  0
  -30.6549   18.9255  -18.4187 C   0  0  0  0  0  0  0  0  0  0  0  0
  -31.3893   19.3665  -17.3534 N   0  0  0  0  0  0  0  0  0  0  0  0
  1  2  2  0  0  0  0
  1  6  1  0  0  0  0
  2  3  1  0  0  0  0
  3  4  2  0  0  0  0
  4  5  1  0  0  0  0
  4 10  1  0  0  0  0
  5  6  2  0  0  0  0
  5  8  1  0  0  0  0
  6  7  1  0  0  0  0
  8  9  1  0  0  0  0
  9 10  2  0  0  0  0
M  END
>  <CHROM.1>
-30.42628104,17.74664358,-16.32370470,1.15695866,-0.84364462,1.97632992

>  <Name>
ligand

>  <RI>
0

>  <Rbt.Current_Directory>
/home/itssahil/PROJECTS/Mol_Feturizer/New_Systems/rnas/4TZY

>  <Rbt.Executable>
rbdock ($Id: //depot/dev/client3/rdock/2013.1/src/exe/rbdock.cxx#4 $)

>  <Rbt.Library>
libRbt.so (2013.1, Build901 2013/11/27)

>  <Rbt.Parameter_File>
/export/apps/rDock/src/rDock_2013.1_src/data/scripts/dock_solv.prm

>  <Rbt.Receptor>
prm/blind_docking_60.prm

>  <SCORE>
-14.3754

>  <SCORE.INTER>
-14.3756

>  <SCORE.INTER.CONST>
1

>  <SCORE.INTER.POLAR>
0

>  <SCORE.INTER.ROT>
0

>  <SCORE.INTER.SOLV>
8.3488

>  <SCORE.INTER.VDW>
-15.9666

>  <SCORE.INTER.norm>
-1.43756

>  <SCORE.INTRA>
0

>  <SCORE.INTRA.DIHEDRAL>
0

>  <SCORE.INTRA.DIHEDRAL.0>
0

>  <SCORE.INTRA.POLAR>
0

>  <SCORE.INTRA.POLAR.0>
0

>  <SCORE.INTRA.REPUL>
0

>  <SCORE.INTRA.REPUL.0>
0

>  <SCORE.INTRA.SOLV>
0

>  <SCORE.INTRA.SOLV.lig_0>
-23.8941

>  <SCORE.INTRA.VDW>
0

>  <SCORE.INTRA.VDW.0>
0

>  <SCORE.INTRA.norm>
0

>  <SCORE.RESTR>
0.000174157

>  <SCORE.RESTR.CAVITY>
0.000174157

>  <SCORE.RESTR.norm>
1.74157e-05

>  <SCORE.SYSTEM>
0

>  <SCORE.SYSTEM.CONST>
0

>  <SCORE.SYSTEM.DIHEDRAL>
0

>  <SCORE.SYSTEM.SOLV>
0

>  <SCORE.SYSTEM.norm>
0

>  <SCORE.heavy>
10

>  <SCORE.norm>
-1.43754

>  <RMSD>
0.486

$$$$
ligand
 OpenBabel11021811513D
libRbt.so/2013.1/901 2013/11/27
 10 11  0  0  0  0  0  0  0  0999 V2000
  -30.1021   16.7102  -14.5899 N   0  0  0  0  0  0  0  0  0  0  0  0
  -31.0145   17.6281  -14.2473 C   0  0  0  0  0  0  0  0  0  0  0  0
  -31.5690   18.5783  -14.9980 N   0  0  0  0  0  0  0  0  0  0  0  0
  -31.0897   18.5368  -16.2509 C   0  0  0  0  0  0  0  0  0  0  0  0
  -30.1509   17.6557  -16.7510 C   0  0  0  0  0  0  0  0  0  0  0  0
  -29.6398   16.6941  -15.8567 C   0  0  0  0  0  0  0  0  0  0  0  0
  -28.7278   15.7787  -16.2020 N   0  0  0  0  0  0  0  0  0  0  0  0
  -29.8997   17.9121  -18.0883 N   0  0  0  0  0  0  0  0  0  0  0  0
  -30.6804   18.9306  -18.3647 C   0  0  0  0  0  0  0  0  0  0  0  0
  -31.4263   19.3592  -17.3022 N   0  0  0  0  0  0  0  0  0  0  0  0
  1  2  2  0  0  0  0
  1  6  1  0  0  0  0
  2  3  1  0  0  0  0
  3  4  2  0  0  0  0
  4  5  1  0  0  0  0
  4 10  1  0  0  0  0
  5  6  2  0  0  0  0
  5  8  1  0  0  0  0
  6  7  1  0  0  0  0
  8  9  1  0  0  0  0
  9 10  2  0  0  0  0
M  END
>  <CHROM.1>
-30.42349267,17.76987840,-16.26285450,1.14320543,-0.82035309,1.96042189

>  <Name>
ligand

>  <RI>
0

>  <Rbt.Current_Directory>
/home/itssahil/PROJECTS/Mol_Feturizer/New_Systems/rnas/4TZY

>  <Rbt.Executable>
rbdock ($Id: //depot/dev/client3/rdock/2013.1/src/exe/rbdock.cxx#4 $)

>  <Rbt.Library>
libRbt.so (2013.1, Build901 2013/11/27)

>  <Rbt.Parameter_File>
/export/apps/rDock/src/rDock_2013.1_src/data/scripts/dock_solv.prm

>  <Rbt.Receptor>
prm/pocket_docking_6.prm

>  <SCORE>
-14.3513

>  <SCORE.INTER>
-14.3517

>  <SCORE.INTER.CONST>
1

>  <SCORE.INTER.POLAR>
0

>  <SCORE.INTER.ROT>
0

>  <SCORE.INTER.SOLV>
8.02113

>  <SCORE.INTER.VDW>
-15.8415

>  <SCORE.INTER.norm>
-1.43517

>  <SCORE.INTRA>
0

>  <SCORE.INTRA.DIHEDRAL>
0

>  <SCORE.INTRA.DIHEDRAL.0>
0

>  <SCORE.INTRA.POLAR>
0

>  <SCORE.INTRA.POLAR.0>
0

>  <SCORE.INTRA.REPUL>
0

>  <SCORE.INTRA.REPUL.0>
0

>  <SCORE.INTRA.SOLV>
0

>  <SCORE.INTRA.SOLV.lig_0>
-23.8941

>  <SCORE.INTRA.VDW>
0

>  <SCORE.INTRA.VDW.0>
0

>  <SCORE.INTRA.norm>
0

>  <SCORE.RESTR>
0.000305747

>  <SCORE.RESTR.CAVITY>
0.000305747

>  <SCORE.RESTR.norm>
3.05747e-05

>  <SCORE.SYSTEM>
0

>  <SCORE.SYSTEM.CONST>
0

>  <SCORE.SYSTEM.DIHEDRAL>
0

>  <SCORE.SYSTEM.SOLV>
0

>  <SCORE.SYSTEM.norm>
0

>  <SCORE.heavy>
10

>  <SCORE.norm>
-1.43513

>  <RMSD>
0.486

$$$$
ligand
 OpenBabel11021811513D
libRbt.so/2013.1/901 2013/11/27
 10 11  0  0  0  0  0  0  0  0999 V2000
  -30.0973   16.7011  -14.6109 N   0  0  0  0  0  0  0  0  0  0  0  0
  -31.0065   17.6210  -14.2652 C   0  0  0  0  0  0  0  0  0  0  0  0
  -31.5604   18.5734  -15.0136 N   0  0  0  0  0  0  0  0  0  0  0  0
  -31.0842   18.5318  -16.2678 C   0  0  0  0  0  0  0  0  0  0  0  0
  -30.1490   17.6488  -16.7710 C   0  0  0  0  0  0  0  0  0  0  0  0
  -29.6382   16.6850  -15.8788 C   0  0  0  0  0  0  0  0  0  0  0  0
  -28.7294   15.7675  -16.2272 N   0  0  0  0  0  0  0  0  0  0  0  0
  -29.9004   17.9057  -18.1087 N   0  0  0  0  0  0  0  0  0  0  0  0
  -30.6791   18.9265  -18.3822 C   0  0  0  0  0  0  0  0  0  0  0  0
  -31.4212   19.3561  -17.3175 N   0  0  0  0  0  0  0  0  0  0  0  0
  1  2  2  0  0  0  0
  1  6  1  0  0  0  0
  2  3  1  0  0  0  0
  3  4  2  0  0  0  0
  4  5  1  0  0  0  0
  4 10  1  0  0  0  0
  5  6  2  0  0  0  0
  5  8  1  0  0  0  0
  6  7  1  0  0  0  0
  8  9  1  0  0  0  0
  9 10  2  0  0  0  0
M  END
>  <CHROM.1>
-30.42005583,17.76318941,-16.28207378,1.14131818,-0.82369372,1.95996177

>  <Name>
ligand

>  <RI>
0

>  <Rbt.Current_Directory>
/home/itssahil/PROJECTS/Mol_Feturizer/New_Systems/rnas/4TZY

>  <Rbt.Executable>
rbdock ($Id: //depot/dev/client3/rdock/2013.1/src/exe/rbdock.cxx#4 $)

>  <Rbt.Library>
libRbt.so (2013.1, Build901 2013/11/27)

>  <Rbt.Parameter_File>
/export/apps/rDock/src/rDock_2013.1_src/data/scripts/dock_solv.prm

>  <Rbt.Receptor>
prm/pocket_docking_8.prm

>  <SCORE>
-14.3542

>  <SCORE.INTER>
-14.3542

>  <SCORE.INTER.CONST>
1

>  <SCORE.INTER.POLAR>
0

>  <SCORE.INTER.ROT>
0

>  <SCORE.INTER.SOLV>
8.07251

>  <SCORE.INTER.VDW>
-15.8603

>  <SCORE.INTER.norm>
-1.43542

>  <SCORE.INTRA>
0

>  <SCORE.INTRA.DIHEDRAL>
0

>  <SCORE.INTRA.DIHEDRAL.0>
0

>  <SCORE.INTRA.POLAR>
0

>  <SCORE.INTRA.POLAR.0>
0

>  <SCORE.INTRA.REPUL>
0

>  <SCORE.INTRA.REPUL.0>
0

>  <SCORE.INTRA.SOLV>
0

>  <SCORE.INTRA.SOLV.lig_0>
-23.8941

>  <SCORE.INTRA.VDW>
0

>  <SCORE.INTRA.VDW.0>
0

>  <SCORE.INTRA.norm>
0

>  <SCORE.RESTR>
0

>  <SCORE.RESTR.CAVITY>
0

>  <SCORE.RESTR.norm>
0

>  <SCORE.SYSTEM>
0

>  <SCORE.SYSTEM.CONST>
0

>  <SCORE.SYSTEM.DIHEDRAL>
0

>  <SCORE.SYSTEM.SOLV>
0

>  <SCORE.SYSTEM.norm>
0

>  <SCORE.heavy>
10

>  <SCORE.norm>
-1.43542

>  <RMSD>
0.486

$$$$
ligand
 OpenBabel11021811513D
libRbt.so/2013.1/901 2013/11/27
 10 11  0  0  0  0  0  0  0  0999 V2000
  -30.1551   16.6702  -14.6423 N   0  0  0  0  0  0  0  0  0  0  0  0
  -31.0576   17.5986  -14.3018 C   0  0  0  0  0  0  0  0  0  0  0  0
  -31.5907   18.5624  -15.0508 N   0  0  0  0  0  0  0  0  0  0  0  0
  -31.0994   18.5231  -16.2992 C   0  0  0  0  0  0  0  0  0  0  0  0
  -30.1685   17.6323  -16.7965 C   0  0  0  0  0  0  0  0  0  0  0  0
  -29.6804   16.6568  -15.9045 C   0  0  0  0  0  0  0  0  0  0  0  0
  -28.7782   15.7307  -16.2476 N   0  0  0  0  0  0  0  0  0  0  0  0
  -29.9002   17.8949  -18.1293 N   0  0  0  0  0  0  0  0  0  0  0  0
  -30.6632   18.9266  -18.4058 C   0  0  0  0  0  0  0  0  0  0  0  0
  -31.4135   19.3581  -17.3476 N   0  0  0  0  0  0  0  0  0  0  0  0
  1  2  2  0  0  0  0
  1  6  1  0  0  0  0
  2  3  1  0  0  0  0
  3  4  2  0  0  0  0
  4  5  1  0  0  0  0
  4 10  1  0  0  0  0
  5  6  2  0  0  0  0
  5  8  1  0  0  0  0
  6  7  1  0  0  0  0
  8  9  1  0  0  0  0
  9 10  2  0  0  0  0
M  END
>  <CHROM.1>
-30.44431174,17.74677284,-16.31031572,1.16513524,-0.82976907,1.98400326

>  <Name>
ligand

>  <RI>
0

>  <Rbt.Current_Directory>
/home/itssahil/PROJECTS/Mol_Feturizer/New_Systems/rnas/4TZY

>  <Rbt.Executable>
rbdock ($Id: //depot/dev/client3/rdock/2013.1/src/exe/rbdock.cxx#4 $)

>  <Rbt.Library>
libRbt.so (2013.1, Build901 2013/11/27)

>  <Rbt.Parameter_File>
/export/apps/rDock/src/rDock_2013.1_src/data/scripts/dock_solv.prm

>  <Rbt.Receptor>
prm/blind_docking_100.prm

>  <SCORE>
-14.3952

>  <SCORE.INTER>
-14.3952

>  <SCORE.INTER.CONST>
1

>  <SCORE.INTER.POLAR>
0

>  <SCORE.INTER.ROT>
0

>  <SCORE.INTER.SOLV>
8.26315

>  <SCORE.INTER.VDW>
-15.9512

>  <SCORE.INTER.norm>
-1.43952

>  <SCORE.INTRA>
0

>  <SCORE.INTRA.DIHEDRAL>
0

>  <SCORE.INTRA.DIHEDRAL.0>
0

>  <SCORE.INTRA.POLAR>
0

>  <SCORE.INTRA.POLAR.0>
0

>  <SCORE.INTRA.REPUL>
0

>  <SCORE.INTRA.REPUL.0>
0

>  <SCORE.INTRA.SOLV>
0

>  <SCORE.INTRA.SOLV.lig_0>
-23.8941

>  <SCORE.INTRA.VDW>
0

>  <SCORE.INTRA.VDW.0>
0

>  <SCORE.INTRA.norm>
0

>  <SCORE.RESTR>
0

>  <SCORE.RESTR.CAVITY>
0

>  <SCORE.RESTR.norm>
0

>  <SCORE.SYSTEM>
0

>  <SCORE.SYSTEM.CONST>
0

>  <SCORE.SYSTEM.DIHEDRAL>
0

>  <SCORE.SYSTEM.SOLV>
0

>  <SCORE.SYSTEM.norm>
0

>  <SCORE.heavy>
10

>  <SCORE.norm>
-1.43952

>  <RMSD>
0.487

$$$$
ligand
 OpenBabel11021811513D
libRbt.so/2013.1/901 2013/11/27
 10 11  0  0  0  0  0  0  0  0999 V2000
  -30.0345   16.7031  -14.5230 N   0  0  0  0  0  0  0  0  0  0  0  0
  -30.9577   17.6043  -14.1654 C   0  0  0  0  0  0  0  0  0  0  0  0
  -31.5385   18.5470  -14.9057 N   0  0  0  0  0  0  0  0  0  0  0  0
  -31.0754   18.5170  -16.1651 C   0  0  0  0  0  0  0  0  0  0  0  0
  -30.1286   17.6536  -16.6804 C   0  0  0  0  0  0  0  0  0  0  0  0
  -29.5891   16.6984  -15.7960 C   0  0  0  0  0  0  0  0  0  0  0  0
  -28.6664   15.7996  -16.1562 N   0  0  0  0  0  0  0  0  0  0  0  0
  -29.9000   17.9178  -18.0202 N   0  0  0  0  0  0  0  0  0  0  0  0
  -30.7016   18.9236  -18.2831 C   0  0  0  0  0  0  0  0  0  0  0  0
  -31.4402   19.3364  -17.2094 N   0  0  0  0  0  0  0  0  0  0  0  0
  1  2  2  0  0  0  0
  1  6  1  0  0  0  0
  2  3  1  0  0  0  0
  3  4  2  0  0  0  0
  4  5  1  0  0  0  0
  4 10  1  0  0  0  0
  5  6  2  0  0  0  0
  5  8  1  0  0  0  0
  6  7  1  0  0  0  0
  8  9  1  0  0  0  0
  9 10  2  0  0  0  0
M  END
>  <CHROM.1>
-30.39650717,17.76168853,-16.18834042,1.11566199,-0.80952407,1.94321232

>  <Name>
ligand

>  <RI>
0

>  <Rbt.Current_Directory>
/home/itssahil/PROJECTS/Mol_Feturizer/New_Systems/rnas/4TZY

>  <Rbt.Executable>
rbdock ($Id: //depot/dev/client3/rdock/2013.1/src/exe/rbdock.cxx#4 $)

>  <Rbt.Library>
libRbt.so (2013.1, Build901 2013/11/27)

>  <Rbt.Parameter_File>
/export/apps/rDock/src/rDock_2013.1_src/data/scripts/dock_solv.prm

>  <Rbt.Receptor>
prm/blind_docking_100.prm

>  <SCORE>
-14.2756

>  <SCORE.INTER>
-14.2756

>  <SCORE.INTER.CONST>
1

>  <SCORE.INTER.POLAR>
0

>  <SCORE.INTER.ROT>
0

>  <SCORE.INTER.SOLV>
7.81734

>  <SCORE.INTER.VDW>
-15.7229

>  <SCORE.INTER.norm>
-1.42756

>  <SCORE.INTRA>
0

>  <SCORE.INTRA.DIHEDRAL>
0

>  <SCORE.INTRA.DIHEDRAL.0>
0

>  <SCORE.INTRA.POLAR>
0

>  <SCORE.INTRA.POLAR.0>
0

>  <SCORE.INTRA.REPUL>
0

>  <SCORE.INTRA.REPUL.0>
0

>  <SCORE.INTRA.SOLV>
0

>  <SCORE.INTRA.SOLV.lig_0>
-23.8941

>  <SCORE.INTRA.VDW>
0

>  <SCORE.INTRA.VDW.0>
0

>  <SCORE.INTRA.norm>
0

>  <SCORE.RESTR>
3.60895e-05

>  <SCORE.RESTR.CAVITY>
3.60895e-05

>  <SCORE.RESTR.norm>
3.60895e-06

>  <SCORE.SYSTEM>
0

>  <SCORE.SYSTEM.CONST>
0

>  <SCORE.SYSTEM.DIHEDRAL>
0

>  <SCORE.SYSTEM.SOLV>
0

>  <SCORE.SYSTEM.norm>
0

>  <SCORE.heavy>
10

>  <SCORE.norm>
-1.42756

>  <RMSD>
0.487

$$$$
ligand
 OpenBabel11021811513D
libRbt.so/2013.1/901 2013/11/27
 10 11  0  0  0  0  0  0  0  0999 V2000
  -30.0941   16.7019  -14.6236 N   0  0  0  0  0  0  0  0  0  0  0  0
  -31.0024   17.6227  -14.2780 C   0  0  0  0  0  0  0  0  0  0  0  0
  -31.5566   18.5744  -15.0271 N   0  0  0  0  0  0  0  0  0  0  0  0
  -31.0819   18.5309  -16.2817 C   0  0  0  0  0  0  0  0  0  0  0  0
  -30.1477   17.6468  -16.7848 C   0  0  0  0  0  0  0  0  0  0  0  0
  -29.6364   16.6839  -15.8920 C   0  0  0  0  0  0  0  0  0  0  0  0
  -28.7284   15.7655  -16.2402 N   0  0  0  0  0  0  0  0  0  0  0  0
  -29.9005   17.9018  -18.1231 N   0  0  0  0  0  0  0  0  0  0  0  0
  -30.6790   18.9227  -18.3971 C   0  0  0  0  0  0  0  0  0  0  0  0
  -31.4197   19.3540  -17.3321 N   0  0  0  0  0  0  0  0  0  0  0  0
  1  2  2  0  0  0  0
  1  6  1  0  0  0  0
  2  3  1  0  0  0  0
  3  4  2  0  0  0  0
  4  5  1  0  0  0  0
  4 10  1  0  0  0  0
  5  6  2  0  0  0  0
  5  8  1  0  0  0  0
  6  7  1  0  0  0  0
  8  9  1  0  0  0  0
  9 10  2  0  0  0  0
M  END
>  <CHROM.1>
-30.41815447,17.76192778,-16.29577982,1.14004266,-0.82460152,1.95772339

>  <Name>
ligand

>  <RI>
0

>  <Rbt.Current_Directory>
/home/itssahil/PROJECTS/Mol_Feturizer/New_Systems/rnas/4TZY

>  <Rbt.Executable>
rbdock ($Id: //depot/dev/client3/rdock/2013.1/src/exe/rbdock.cxx#4 $)

>  <Rbt.Library>
libRbt.so (2013.1, Build901 2013/11/27)

>  <Rbt.Parameter_File>
/export/apps/rDock/src/rDock_2013.1_src/data/scripts/dock_solv.prm

>  <Rbt.Receptor>
prm/blind_docking_100.prm

>  <SCORE>
-14.3542

>  <SCORE.INTER>
-14.3542

>  <SCORE.INTER.CONST>
1

>  <SCORE.INTER.POLAR>
0

>  <SCORE.INTER.ROT>
0

>  <SCORE.INTER.SOLV>
8.0864

>  <SCORE.INTER.VDW>
-15.8649

>  <SCORE.INTER.norm>
-1.43542

>  <SCORE.INTRA>
0

>  <SCORE.INTRA.DIHEDRAL>
0

>  <SCORE.INTRA.DIHEDRAL.0>
0

>  <SCORE.INTRA.POLAR>
0

>  <SCORE.INTRA.POLAR.0>
0

>  <SCORE.INTRA.REPUL>
0

>  <SCORE.INTRA.REPUL.0>
0

>  <SCORE.INTRA.SOLV>
0

>  <SCORE.INTRA.SOLV.lig_0>
-23.8941

>  <SCORE.INTRA.VDW>
0

>  <SCORE.INTRA.VDW.0>
0

>  <SCORE.INTRA.norm>
0

>  <SCORE.RESTR>
0

>  <SCORE.RESTR.CAVITY>
0

>  <SCORE.RESTR.norm>
0

>  <SCORE.SYSTEM>
0

>  <SCORE.SYSTEM.CONST>
0

>  <SCORE.SYSTEM.DIHEDRAL>
0

>  <SCORE.SYSTEM.SOLV>
0

>  <SCORE.SYSTEM.norm>
0

>  <SCORE.heavy>
10

>  <SCORE.norm>
-1.43542

>  <RMSD>
0.487

$$$$
ligand
 OpenBabel11021811513D
libRbt.so/2013.1/901 2013/11/27
 10 11  0  0  0  0  0  0  0  0999 V2000
  -30.1173   16.6843  -14.6657 N   0  0  0  0  0  0  0  0  0  0  0  0
  -30.9969   17.6312  -14.3162 C   0  0  0  0  0  0  0  0  0  0  0  0
  -31.5250   18.5999  -15.0625 N   0  0  0  0  0  0  0  0  0  0  0  0
  -31.0557   18.5438  -16.3186 C   0  0  0  0  0  0  0  0  0  0  0  0
  -30.1497   17.6331  -16.8257 C   0  0  0  0  0  0  0  0  0  0  0  0
  -29.6643   16.6544  -15.9356 C   0  0  0  0  0  0  0  0  0  0  0  0
  -28.7851   15.7099  -16.2877 N   0  0  0  0  0  0  0  0  0  0  0  0
  -29.8992   17.8824  -18.1645 N   0  0  0  0  0  0  0  0  0  0  0  0
  -30.6480   18.9261  -18.4348 C   0  0  0  0  0  0  0  0  0  0  0  0
  -31.3723   19.3779  -17.3670 N   0  0  0  0  0  0  0  0  0  0  0  0
  1  2  2  0  0  0  0
  1  6  1  0  0  0  0
  2  3  1  0  0  0  0
  3  4  2  0  0  0  0
  4  5  1  0  0  0  0
  4 10  1  0  0  0  0
  5  6  2  0  0  0  0
  5  8  1  0  0  0  0
  6  7  1  0  0  0  0
  8  9  1  0  0  0  0
  9 10  2  0  0  0  0
M  END
>  <CHROM.1>
-30.41508786,17.75559319,-16.33563526,1.15266664,-0.85316243,1.96830257

>  <Name>
ligand

>  <RI>
0

>  <Rbt.Current_Directory>
/home/itssahil/PROJECTS/Mol_Feturizer/New_Systems/rnas/4TZY

>  <Rbt.Executable>
rbdock ($Id: //depot/dev/client3/rdock/2013.1/src/exe/rbdock.cxx#4 $)

>  <Rbt.Library>
libRbt.so (2013.1, Build901 2013/11/27)

>  <Rbt.Parameter_File>
/export/apps/rDock/src/rDock_2013.1_src/data/scripts/dock_solv.prm

>  <Rbt.Receptor>
prm/blind_docking_80.prm

>  <SCORE>
-14.3796

>  <SCORE.INTER>
-14.3804

>  <SCORE.INTER.CONST>
1

>  <SCORE.INTER.POLAR>
0

>  <SCORE.INTER.ROT>
0

>  <SCORE.INTER.SOLV>
8.38657

>  <SCORE.INTER.VDW>
-15.9825

>  <SCORE.INTER.norm>
-1.43804

>  <SCORE.INTRA>
0

>  <SCORE.INTRA.DIHEDRAL>
0

>  <SCORE.INTRA.DIHEDRAL.0>
0

>  <SCORE.INTRA.POLAR>
0

>  <SCORE.INTRA.POLAR.0>
0

>  <SCORE.INTRA.REPUL>
0

>  <SCORE.INTRA.REPUL.0>
0

>  <SCORE.INTRA.SOLV>
0

>  <SCORE.INTRA.SOLV.lig_0>
-23.8941

>  <SCORE.INTRA.VDW>
0

>  <SCORE.INTRA.VDW.0>
0

>  <SCORE.INTRA.norm>
0

>  <SCORE.RESTR>
0.000818755

>  <SCORE.RESTR.CAVITY>
0.000818755

>  <SCORE.RESTR.norm>
8.18755e-05

>  <SCORE.SYSTEM>
0

>  <SCORE.SYSTEM.CONST>
0

>  <SCORE.SYSTEM.DIHEDRAL>
0

>  <SCORE.SYSTEM.SOLV>
0

>  <SCORE.SYSTEM.norm>
0

>  <SCORE.heavy>
10

>  <SCORE.norm>
-1.43796

>  <RMSD>
0.487

$$$$
ligand
 OpenBabel11021811513D
libRbt.so/2013.1/901 2013/11/27
 10 11  0  0  0  0  0  0  0  0999 V2000
  -30.1576   16.6624  -14.6534 N   0  0  0  0  0  0  0  0  0  0  0  0
  -31.0577   17.5930  -14.3125 C   0  0  0  0  0  0  0  0  0  0  0  0
  -31.5882   18.5585  -15.0610 N   0  0  0  0  0  0  0  0  0  0  0  0
  -31.0970   18.5186  -16.3094 C   0  0  0  0  0  0  0  0  0  0  0  0
  -30.1684   17.6256  -16.8072 C   0  0  0  0  0  0  0  0  0  0  0  0
  -29.6828   16.6483  -15.9156 C   0  0  0  0  0  0  0  0  0  0  0  0
  -28.7831   15.7201  -16.2591 N   0  0  0  0  0  0  0  0  0  0  0  0
  -29.8993   17.8882  -18.1398 N   0  0  0  0  0  0  0  0  0  0  0  0
  -30.6596   18.9221  -18.4157 C   0  0  0  0  0  0  0  0  0  0  0  0
  -31.4088   19.3550  -17.3574 N   0  0  0  0  0  0  0  0  0  0  0  0
  1  2  2  0  0  0  0
  1  6  1  0  0  0  0
  2  3  1  0  0  0  0
  3  4  2  0  0  0  0
  4  5  1  0  0  0  0
  4 10  1  0  0  0  0
  5  6  2  0  0  0  0
  5  8  1  0  0  0  0
  6  7  1  0  0  0  0
  8  9  1  0  0  0  0
  9 10  2  0  0  0  0
M  END
>  <CHROM.1>
-30.44389679,17.74056412,-16.32088498,1.16677168,-0.83216600,1.98572576

>  <Name>
ligand

>  <RI>
0

>  <Rbt.Current_Directory>
/home/itssahil/PROJECTS/Mol_Feturizer/New_Systems/rnas/4TZY

>  <Rbt.Executable>
rbdock ($Id: //depot/dev/client3/rdock/2013.1/src/exe/rbdock.cxx#4 $)

>  <Rbt.Library>
libRbt.so (2013.1, Build901 2013/11/27)

>  <Rbt.Parameter_File>
/export/apps/rDock/src/rDock_2013.1_src/data/scripts/dock_solv.prm

>  <Rbt.Receptor>
prm/pocket_docking_4.prm

>  <SCORE>
-14.393

>  <SCORE.INTER>
-14.3937

>  <SCORE.INTER.CONST>
1

>  <SCORE.INTER.POLAR>
0

>  <SCORE.INTER.ROT>
0

>  <SCORE.INTER.SOLV>
8.31302

>  <SCORE.INTER.VDW>
-15.9668

>  <SCORE.INTER.norm>
-1.43937

>  <SCORE.INTRA>
0

>  <SCORE.INTRA.DIHEDRAL>
0

>  <SCORE.INTRA.DIHEDRAL.0>
0

>  <SCORE.INTRA.POLAR>
0

>  <SCORE.INTRA.POLAR.0>
0

>  <SCORE.INTRA.REPUL>
0

>  <SCORE.INTRA.REPUL.0>
0

>  <SCORE.INTRA.SOLV>
0

>  <SCORE.INTRA.SOLV.lig_0>
-23.8941

>  <SCORE.INTRA.VDW>
0

>  <SCORE.INTRA.VDW.0>
0

>  <SCORE.INTRA.norm>
0

>  <SCORE.RESTR>
0.000732299

>  <SCORE.RESTR.CAVITY>
0.000732299

>  <SCORE.RESTR.norm>
7.32299e-05

>  <SCORE.SYSTEM>
0

>  <SCORE.SYSTEM.CONST>
0

>  <SCORE.SYSTEM.DIHEDRAL>
0

>  <SCORE.SYSTEM.SOLV>
0

>  <SCORE.SYSTEM.norm>
0

>  <SCORE.heavy>
10

>  <SCORE.norm>
-1.4393

>  <RMSD>
0.487

$$$$
ligand
 OpenBabel11021811513D
libRbt.so/2013.1/901 2013/11/27
 10 11  0  0  0  0  0  0  0  0999 V2000
  -30.0211   16.7534  -14.6059 N   0  0  0  0  0  0  0  0  0  0  0  0
  -30.9627   17.6441  -14.2705 C   0  0  0  0  0  0  0  0  0  0  0  0
  -31.5594   18.5589  -15.0327 N   0  0  0  0  0  0  0  0  0  0  0  0
  -31.0921   18.5106  -16.2899 C   0  0  0  0  0  0  0  0  0  0  0  0
  -30.1272   17.6546  -16.7838 C   0  0  0  0  0  0  0  0  0  0  0  0
  -29.5720   16.7296  -15.8773 C   0  0  0  0  0  0  0  0  0  0  0  0
  -28.6309   15.8413  -16.2154 N   0  0  0  0  0  0  0  0  0  0  0  0
  -29.8997   17.8940  -18.1285 N   0  0  0  0  0  0  0  0  0  0  0  0
  -30.7198   18.8780  -18.4153 C   0  0  0  0  0  0  0  0  0  0  0  0
  -31.4695   19.2998  -17.3528 N   0  0  0  0  0  0  0  0  0  0  0  0
  1  2  2  0  0  0  0
  1  6  1  0  0  0  0
  2  3  1  0  0  0  0
  3  4  2  0  0  0  0
  4  5  1  0  0  0  0
  4 10  1  0  0  0  0
  5  6  2  0  0  0  0
  5  8  1  0  0  0  0
  6  7  1  0  0  0  0
  8  9  1  0  0  0  0
  9 10  2  0  0  0  0
M  END
>  <CHROM.1>
-30.39858050,17.76822058,-16.29489734,1.10962737,-0.79038841,1.91706231

>  <Name>
ligand

>  <RI>
0

>  <Rbt.Current_Directory>
/home/itssahil/PROJECTS/Mol_Feturizer/New_Systems/rnas/4TZY

>  <Rbt.Executable>
rbdock ($Id: //depot/dev/client3/rdock/2013.1/src/exe/rbdock.cxx#4 $)

>  <Rbt.Library>
libRbt.so (2013.1, Build901 2013/11/27)

>  <Rbt.Parameter_File>
/export/apps/rDock/src/rDock_2013.1_src/data/scripts/dock_solv.prm

>  <Rbt.Receptor>
prm/pocket_docking_5.prm

>  <SCORE>
-14.3365

>  <SCORE.INTER>
-14.3368

>  <SCORE.INTER.CONST>
1

>  <SCORE.INTER.POLAR>
0

>  <SCORE.INTER.ROT>
0

>  <SCORE.INTER.SOLV>
7.74979

>  <SCORE.INTER.VDW>
-15.7411

>  <SCORE.INTER.norm>
-1.43368

>  <SCORE.INTRA>
0

>  <SCORE.INTRA.DIHEDRAL>
0

>  <SCORE.INTRA.DIHEDRAL.0>
0

>  <SCORE.INTRA.POLAR>
0

>  <SCORE.INTRA.POLAR.0>
0

>  <SCORE.INTRA.REPUL>
0

>  <SCORE.INTRA.REPUL.0>
0

>  <SCORE.INTRA.SOLV>
0

>  <SCORE.INTRA.SOLV.lig_0>
-23.8941

>  <SCORE.INTRA.VDW>
0

>  <SCORE.INTRA.VDW.0>
0

>  <SCORE.INTRA.norm>
0

>  <SCORE.RESTR>
0.000348772

>  <SCORE.RESTR.CAVITY>
0.000348772

>  <SCORE.RESTR.norm>
3.48772e-05

>  <SCORE.SYSTEM>
0

>  <SCORE.SYSTEM.CONST>
0

>  <SCORE.SYSTEM.DIHEDRAL>
0

>  <SCORE.SYSTEM.SOLV>
0

>  <SCORE.SYSTEM.norm>
0

>  <SCORE.heavy>
10

>  <SCORE.norm>
-1.43365

>  <RMSD>
0.487

$$$$
ligand
 OpenBabel11021811513D
libRbt.so/2013.1/901 2013/11/27
 10 11  0  0  0  0  0  0  0  0999 V2000
  -30.0620   16.7180  -14.6596 N   0  0  0  0  0  0  0  0  0  0  0  0
  -30.9744   17.6365  -14.3184 C   0  0  0  0  0  0  0  0  0  0  0  0
  -31.5399   18.5761  -15.0744 N   0  0  0  0  0  0  0  0  0  0  0  0
  -31.0729   18.5218  -16.3314 C   0  0  0  0  0  0  0  0  0  0  0  0
  -30.1359   17.6385  -16.8308 C   0  0  0  0  0  0  0  0  0  0  0  0
  -29.6123   16.6891  -15.9307 C   0  0  0  0  0  0  0  0  0  0  0  0
  -28.7004   15.7730  -16.2746 N   0  0  0  0  0  0  0  0  0  0  0  0
  -29.8990   17.8804  -18.1734 N   0  0  0  0  0  0  0  0  0  0  0  0
  -30.6862   18.8928  -18.4536 C   0  0  0  0  0  0  0  0  0  0  0  0
  -31.4230   19.3309  -17.3887 N   0  0  0  0  0  0  0  0  0  0  0  0
  1  2  2  0  0  0  0
  1  6  1  0  0  0  0
  2  3  1  0  0  0  0
  3  4  2  0  0  0  0
  4  5  1  0  0  0  0
  4 10  1  0  0  0  0
  5  6  2  0  0  0  0
  5  8  1  0  0  0  0
  6  7  1  0  0  0  0
  8  9  1  0  0  0  0
  9 10  2  0  0  0  0
M  END
>  <CHROM.1>
-30.40403753,17.75726760,-16.34131416,1.12758011,-0.82064327,1.93751376

>  <Name>
ligand

>  <RI>
0

>  <Rbt.Current_Directory>
/home/itssahil/PROJECTS/Mol_Feturizer/New_Systems/rnas/4TZY

>  <Rbt.Executable>
rbdock ($Id: //depot/dev/client3/rdock/2013.1/src/exe/rbdock.cxx#4 $)

>  <Rbt.Library>
libRbt.so (2013.1, Build901 2013/11/27)

>  <Rbt.Parameter_File>
/export/apps/rDock/src/rDock_2013.1_src/data/scripts/dock_solv.prm

>  <Rbt.Receptor>
prm/pocket_docking_6.prm

>  <SCORE>
-14.352

>  <SCORE.INTER>
-14.353

>  <SCORE.INTER.CONST>
1

>  <SCORE.INTER.POLAR>
0

>  <SCORE.INTER.ROT>
0

>  <SCORE.INTER.SOLV>
8.06678

>  <SCORE.INTER.VDW>
-15.8576

>  <SCORE.INTER.norm>
-1.4353

>  <SCORE.INTRA>
0

>  <SCORE.INTRA.DIHEDRAL>
0

>  <SCORE.INTRA.DIHEDRAL.0>
0

>  <SCORE.INTRA.POLAR>
0

>  <SCORE.INTRA.POLAR.0>
0

>  <SCORE.INTRA.REPUL>
0

>  <SCORE.INTRA.REPUL.0>
0

>  <SCORE.INTRA.SOLV>
0

>  <SCORE.INTRA.SOLV.lig_0>
-23.8941

>  <SCORE.INTRA.VDW>
0

>  <SCORE.INTRA.VDW.0>
0

>  <SCORE.INTRA.norm>
0

>  <SCORE.RESTR>
0.000971008

>  <SCORE.RESTR.CAVITY>
0.000971008

>  <SCORE.RESTR.norm>
9.71008e-05

>  <SCORE.SYSTEM>
0

>  <SCORE.SYSTEM.CONST>
0

>  <SCORE.SYSTEM.DIHEDRAL>
0

>  <SCORE.SYSTEM.SOLV>
0

>  <SCORE.SYSTEM.norm>
0

>  <SCORE.heavy>
10

>  <SCORE.norm>
-1.4352

>  <RMSD>
0.487

$$$$
ligand
 OpenBabel11021811513D
libRbt.so/2013.1/901 2013/11/27
 10 11  0  0  0  0  0  0  0  0999 V2000
  -30.1326   16.6725  -14.6624 N   0  0  0  0  0  0  0  0  0  0  0  0
  -31.0179   17.6145  -14.3142 C   0  0  0  0  0  0  0  0  0  0  0  0
  -31.5457   18.5839  -15.0596 N   0  0  0  0  0  0  0  0  0  0  0  0
  -31.0692   18.5347  -16.3133 C   0  0  0  0  0  0  0  0  0  0  0  0
  -30.1567   17.6295  -16.8188 C   0  0  0  0  0  0  0  0  0  0  0  0
  -29.6724   16.6493  -15.9299 C   0  0  0  0  0  0  0  0  0  0  0  0
  -28.7875   15.7097  -16.2807 N   0  0  0  0  0  0  0  0  0  0  0  0
  -29.8998   17.8850  -18.1552 N   0  0  0  0  0  0  0  0  0  0  0  0
  -30.6512   18.9269  -18.4257 C   0  0  0  0  0  0  0  0  0  0  0  0
  -31.3832   19.3715  -17.3602 N   0  0  0  0  0  0  0  0  0  0  0  0
  1  2  2  0  0  0  0
  1  6  1  0  0  0  0
  2  3  1  0  0  0  0
  3  4  2  0  0  0  0
  4  5  1  0  0  0  0
  4 10  1  0  0  0  0
  5  6  2  0  0  0  0
  5  8  1  0  0  0  0
  6  7  1  0  0  0  0
  8  9  1  0  0  0  0
  9 10  2  0  0  0  0
M  END
>  <CHROM.1>
-30.42535528,17.74906404,-16.32981103,1.15807388,-0.84732547,1.97627420

>  <Name>
ligand

>  <RI>
0

>  <Rbt.Current_Directory>
/home/itssahil/PROJECTS/Mol_Feturizer/New_Systems/rnas/4TZY

>  <Rbt.Executable>
rbdock ($Id: //depot/dev/client3/rdock/2013.1/src/exe/rbdock.cxx#4 $)

>  <Rbt.Library>
libRbt.so (2013.1, Build901 2013/11/27)

>  <Rbt.Parameter_File>
/export/apps/rDock/src/rDock_2013.1_src/data/scripts/dock_solv.prm

>  <Rbt.Receptor>
prm/pocket_docking_8.prm

>  <SCORE>
-14.3729

>  <SCORE.INTER>
-14.3731

>  <SCORE.INTER.CONST>
1

>  <SCORE.INTER.POLAR>
0

>  <SCORE.INTER.ROT>
0

>  <SCORE.INTER.SOLV>
8.37973

>  <SCORE.INTER.VDW>
-15.9753

>  <SCORE.INTER.norm>
-1.43731

>  <SCORE.INTRA>
0

>  <SCORE.INTRA.DIHEDRAL>
0

>  <SCORE.INTRA.DIHEDRAL.0>
0

>  <SCORE.INTRA.POLAR>
0

>  <SCORE.INTRA.POLAR.0>
0

>  <SCORE.INTRA.REPUL>
0

>  <SCORE.INTRA.REPUL.0>
0

>  <SCORE.INTRA.SOLV>
0

>  <SCORE.INTRA.SOLV.lig_0>
-23.8941

>  <SCORE.INTRA.VDW>
0

>  <SCORE.INTRA.VDW.0>
0

>  <SCORE.INTRA.norm>
0

>  <SCORE.RESTR>
0.000196651

>  <SCORE.RESTR.CAVITY>
0.000196651

>  <SCORE.RESTR.norm>
1.96651e-05

>  <SCORE.SYSTEM>
0

>  <SCORE.SYSTEM.CONST>
0

>  <SCORE.SYSTEM.DIHEDRAL>
0

>  <SCORE.SYSTEM.SOLV>
0

>  <SCORE.SYSTEM.norm>
0

>  <SCORE.heavy>
10

>  <SCORE.norm>
-1.43729

>  <RMSD>
0.487

$$$$
ligand
 OpenBabel11021811513D
libRbt.so/2013.1/901 2013/11/27
 10 11  0  0  0  0  0  0  0  0999 V2000
  -29.8599   16.8352  -14.5171 N   0  0  0  0  0  0  0  0  0  0  0  0
  -30.8470   17.6779  -14.1886 C   0  0  0  0  0  0  0  0  0  0  0  0
  -31.5192   18.5241  -14.9670 N   0  0  0  0  0  0  0  0  0  0  0  0
  -31.0817   18.4569  -16.2340 C   0  0  0  0  0  0  0  0  0  0  0  0
  -30.0775   17.6442  -16.7227 C   0  0  0  0  0  0  0  0  0  0  0  0
  -29.4423   16.7908  -15.7986 C   0  0  0  0  0  0  0  0  0  0  0  0
  -28.4560   15.9503  -16.1299 N   0  0  0  0  0  0  0  0  0  0  0  0
  -29.8995   17.8457  -18.0810 N   0  0  0  0  0  0  0  0  0  0  0  0
  -30.7871   18.7653  -18.3808 C   0  0  0  0  0  0  0  0  0  0  0  0
  -31.5349   19.1799  -17.3142 N   0  0  0  0  0  0  0  0  0  0  0  0
  1  2  2  0  0  0  0
  1  6  1  0  0  0  0
  2  3  1  0  0  0  0
  3  4  2  0  0  0  0
  4  5  1  0  0  0  0
  4 10  1  0  0  0  0
  5  6  2  0  0  0  0
  5  8  1  0  0  0  0
  6  7  1  0  0  0  0
  8  9  1  0  0  0  0
  9 10  2  0  0  0  0
M  END
>  <CHROM.1>
-30.34309911,17.75936904,-16.23096710,1.04852998,-0.73861099,1.83732074

>  <Name>
ligand

>  <RI>
0

>  <Rbt.Current_Directory>
/home/itssahil/PROJECTS/Mol_Feturizer/New_Systems/rnas/4TZY

>  <Rbt.Executable>
rbdock ($Id: //depot/dev/client3/rdock/2013.1/src/exe/rbdock.cxx#4 $)

>  <Rbt.Library>
libRbt.so (2013.1, Build901 2013/11/27)

>  <Rbt.Parameter_File>
/export/apps/rDock/src/rDock_2013.1_src/data/scripts/dock_solv.prm

>  <Rbt.Receptor>
prm/pocket_docking_8.prm

>  <SCORE>
-14.3326

>  <SCORE.INTER>
-14.333

>  <SCORE.INTER.CONST>
1

>  <SCORE.INTER.POLAR>
0

>  <SCORE.INTER.ROT>
0

>  <SCORE.INTER.SOLV>
7.12455

>  <SCORE.INTER.VDW>
-15.5302

>  <SCORE.INTER.norm>
-1.4333

>  <SCORE.INTRA>
0

>  <SCORE.INTRA.DIHEDRAL>
0

>  <SCORE.INTRA.DIHEDRAL.0>
0

>  <SCORE.INTRA.POLAR>
0

>  <SCORE.INTRA.POLAR.0>
0

>  <SCORE.INTRA.REPUL>
0

>  <SCORE.INTRA.REPUL.0>
0

>  <SCORE.INTRA.SOLV>
0

>  <SCORE.INTRA.SOLV.lig_0>
-23.8941

>  <SCORE.INTRA.VDW>
0

>  <SCORE.INTRA.VDW.0>
0

>  <SCORE.INTRA.norm>
0

>  <SCORE.RESTR>
0.0004704

>  <SCORE.RESTR.CAVITY>
0.0004704

>  <SCORE.RESTR.norm>
4.704e-05

>  <SCORE.SYSTEM>
0

>  <SCORE.SYSTEM.CONST>
0

>  <SCORE.SYSTEM.DIHEDRAL>
0

>  <SCORE.SYSTEM.SOLV>
0

>  <SCORE.SYSTEM.norm>
0

>  <SCORE.heavy>
10

>  <SCORE.norm>
-1.43326

>  <RMSD>
0.487

$$$$
ligand
 OpenBabel11021811513D
libRbt.so/2013.1/901 2013/11/27
 10 11  0  0  0  0  0  0  0  0999 V2000
  -29.9117   16.8555  -14.5311 N   0  0  0  0  0  0  0  0  0  0  0  0
  -30.8934   17.7090  -14.2148 C   0  0  0  0  0  0  0  0  0  0  0  0
  -31.5480   18.5611  -15.0019 N   0  0  0  0  0  0  0  0  0  0  0  0
  -31.0970   18.4873  -16.2639 C   0  0  0  0  0  0  0  0  0  0  0  0
  -30.0961   17.6634  -16.7401 C   0  0  0  0  0  0  0  0  0  0  0  0
  -29.4803   16.8047  -15.8078 C   0  0  0  0  0  0  0  0  0  0  0  0
  -28.4992   15.9534  -16.1268 N   0  0  0  0  0  0  0  0  0  0  0  0
  -29.9008   17.8609  -18.0966 N   0  0  0  0  0  0  0  0  0  0  0  0
  -30.7752   18.7893  -18.4077 C   0  0  0  0  0  0  0  0  0  0  0  0
  -31.5304   19.2134  -17.3501 N   0  0  0  0  0  0  0  0  0  0  0  0
  1  2  2  0  0  0  0
  1  6  1  0  0  0  0
  2  3  1  0  0  0  0
  3  4  2  0  0  0  0
  4  5  1  0  0  0  0
  4 10  1  0  0  0  0
  5  6  2  0  0  0  0
  5  8  1  0  0  0  0
  6  7  1  0  0  0  0
  8  9  1  0  0  0  0
  9 10  2  0  0  0  0
M  END
>  <CHROM.1>
-30.36590428,17.78206134,-16.25157729,1.06698826,-0.74574671,1.84831620

>  <Name>
ligand

>  <RI>
0

>  <Rbt.Current_Directory>
/home/itssahil/PROJECTS/Mol_Feturizer/New_Systems/rnas/4TZY

>  <Rbt.Executable>
rbdock ($Id: //depot/dev/client3/rdock/2013.1/src/exe/rbdock.cxx#4 $)

>  <Rbt.Library>
libRbt.so (2013.1, Build901 2013/11/27)

>  <Rbt.Parameter_File>
/export/apps/rDock/src/rDock_2013.1_src/data/scripts/dock_solv.prm

>  <Rbt.Receptor>
prm/blind_docking_80.prm

>  <SCORE>
-14.3224

>  <SCORE.INTER>
-14.3224

>  <SCORE.INTER.CONST>
1

>  <SCORE.INTER.POLAR>
0

>  <SCORE.INTER.ROT>
0

>  <SCORE.INTER.SOLV>
7.1849

>  <SCORE.INTER.VDW>
-15.5432

>  <SCORE.INTER.norm>
-1.43224

>  <SCORE.INTRA>
0

>  <SCORE.INTRA.DIHEDRAL>
0

>  <SCORE.INTRA.DIHEDRAL.0>
0

>  <SCORE.INTRA.POLAR>
0

>  <SCORE.INTRA.POLAR.0>
0

>  <SCORE.INTRA.REPUL>
0

>  <SCORE.INTRA.REPUL.0>
0

>  <SCORE.INTRA.SOLV>
0

>  <SCORE.INTRA.SOLV.lig_0>
-23.8941

>  <SCORE.INTRA.VDW>
0

>  <SCORE.INTRA.VDW.0>
0

>  <SCORE.INTRA.norm>
0

>  <SCORE.RESTR>
0

>  <SCORE.RESTR.CAVITY>
0

>  <SCORE.RESTR.norm>
0

>  <SCORE.SYSTEM>
0

>  <SCORE.SYSTEM.CONST>
0

>  <SCORE.SYSTEM.DIHEDRAL>
0

>  <SCORE.SYSTEM.SOLV>
0

>  <SCORE.SYSTEM.norm>
0

>  <SCORE.heavy>
10

>  <SCORE.norm>
-1.43224

>  <RMSD>
0.488

$$$$
ligand
 OpenBabel11021811513D
libRbt.so/2013.1/901 2013/11/27
 10 11  0  0  0  0  0  0  0  0999 V2000
  -29.8751   16.8108  -14.5020 N   0  0  0  0  0  0  0  0  0  0  0  0
  -30.8751   17.6385  -14.1742 C   0  0  0  0  0  0  0  0  0  0  0  0
  -31.5519   18.4827  -14.9509 N   0  0  0  0  0  0  0  0  0  0  0  0
  -31.1040   18.4312  -16.2151 C   0  0  0  0  0  0  0  0  0  0  0  0
  -30.0861   17.6351  -16.7026 C   0  0  0  0  0  0  0  0  0  0  0  0
  -29.4473   16.7821  -15.7806 C   0  0  0  0  0  0  0  0  0  0  0  0
  -28.4481   15.9566  -16.1111 N   0  0  0  0  0  0  0  0  0  0  0  0
  -29.9004   17.8499  -18.0578 N   0  0  0  0  0  0  0  0  0  0  0  0
  -30.7970   18.7608  -18.3570 C   0  0  0  0  0  0  0  0  0  0  0  0
  -31.5579   19.1574  -17.2928 N   0  0  0  0  0  0  0  0  0  0  0  0
  1  2  2  0  0  0  0
  1  6  1  0  0  0  0
  2  3  1  0  0  0  0
  3  4  2  0  0  0  0
  4  5  1  0  0  0  0
  4 10  1  0  0  0  0
  5  6  2  0  0  0  0
  5  8  1  0  0  0  0
  6  7  1  0  0  0  0
  8  9  1  0  0  0  0
  9 10  2  0  0  0  0
M  END
>  <CHROM.1>
-30.35679408,17.74290896,-16.21198759,1.05388713,-0.72460002,1.84903644

>  <Name>
ligand

>  <RI>
0

>  <Rbt.Current_Directory>
/home/itssahil/PROJECTS/Mol_Feturizer/New_Systems/rnas/4TZY

>  <Rbt.Executable>
rbdock ($Id: //depot/dev/client3/rdock/2013.1/src/exe/rbdock.cxx#4 $)

>  <Rbt.Library>
libRbt.so (2013.1, Build901 2013/11/27)

>  <Rbt.Parameter_File>
/export/apps/rDock/src/rDock_2013.1_src/data/scripts/dock_solv.prm

>  <Rbt.Receptor>
prm/pocket_docking_5.prm

>  <SCORE>
-14.2931

>  <SCORE.INTER>
-14.2931

>  <SCORE.INTER.CONST>
1

>  <SCORE.INTER.POLAR>
0

>  <SCORE.INTER.ROT>
0

>  <SCORE.INTER.SOLV>
7.07947

>  <SCORE.INTER.VDW>
-15.4885

>  <SCORE.INTER.norm>
-1.42931

>  <SCORE.INTRA>
0

>  <SCORE.INTRA.DIHEDRAL>
0

>  <SCORE.INTRA.DIHEDRAL.0>
0

>  <SCORE.INTRA.POLAR>
0

>  <SCORE.INTRA.POLAR.0>
0

>  <SCORE.INTRA.REPUL>
0

>  <SCORE.INTRA.REPUL.0>
0

>  <SCORE.INTRA.SOLV>
0

>  <SCORE.INTRA.SOLV.lig_0>
-23.8941

>  <SCORE.INTRA.VDW>
0

>  <SCORE.INTRA.VDW.0>
0

>  <SCORE.INTRA.norm>
0

>  <SCORE.RESTR>
0

>  <SCORE.RESTR.CAVITY>
0

>  <SCORE.RESTR.norm>
0

>  <SCORE.SYSTEM>
0

>  <SCORE.SYSTEM.CONST>
0

>  <SCORE.SYSTEM.DIHEDRAL>
0

>  <SCORE.SYSTEM.SOLV>
0

>  <SCORE.SYSTEM.norm>
0

>  <SCORE.heavy>
10

>  <SCORE.norm>
-1.42931

>  <RMSD>
0.488

$$$$
ligand
 OpenBabel11021811513D
libRbt.so/2013.1/901 2013/11/27
 10 11  0  0  0  0  0  0  0  0999 V2000
  -30.1224   16.6634  -14.6584 N   0  0  0  0  0  0  0  0  0  0  0  0
  -30.9862   17.6205  -14.2974 C   0  0  0  0  0  0  0  0  0  0  0  0
  -31.5027   18.6031  -15.0334 N   0  0  0  0  0  0  0  0  0  0  0  0
  -31.0394   18.5506  -16.2919 C   0  0  0  0  0  0  0  0  0  0  0  0
  -30.1493   17.6305  -16.8103 C   0  0  0  0  0  0  0  0  0  0  0  0
  -29.6751   16.6373  -15.9304 C   0  0  0  0  0  0  0  0  0  0  0  0
  -28.8116   15.6826  -16.2940 N   0  0  0  0  0  0  0  0  0  0  0  0
  -29.9005   17.8872  -18.1480 N   0  0  0  0  0  0  0  0  0  0  0  0
  -30.6346   18.9443  -18.4066 C   0  0  0  0  0  0  0  0  0  0  0  0
  -31.3476   19.3980  -17.3320 N   0  0  0  0  0  0  0  0  0  0  0  0
  1  2  2  0  0  0  0
  1  6  1  0  0  0  0
  2  3  1  0  0  0  0
  3  4  2  0  0  0  0
  4  5  1  0  0  0  0
  4 10  1  0  0  0  0
  5  6  2  0  0  0  0
  5  8  1  0  0  0  0
  6  7  1  0  0  0  0
  8  9  1  0  0  0  0
  9 10  2  0  0  0  0
M  END
>  <CHROM.1>
-30.41080744,17.75294366,-16.31816462,1.15587471,-0.86863287,1.97905788

>  <Name>
ligand

>  <RI>
0

>  <Rbt.Current_Directory>
/home/itssahil/PROJECTS/Mol_Feturizer/New_Systems/rnas/4TZY

>  <Rbt.Executable>
rbdock ($Id: //depot/dev/client3/rdock/2013.1/src/exe/rbdock.cxx#4 $)

>  <Rbt.Library>
libRbt.so (2013.1, Build901 2013/11/27)

>  <Rbt.Parameter_File>
/export/apps/rDock/src/rDock_2013.1_src/data/scripts/dock_solv.prm

>  <Rbt.Receptor>
prm/pocket_docking_7.prm

>  <SCORE>
-14.3846

>  <SCORE.INTER>
-14.3846

>  <SCORE.INTER.CONST>
1

>  <SCORE.INTER.POLAR>
0

>  <SCORE.INTER.ROT>
0

>  <SCORE.INTER.SOLV>
8.5193

>  <SCORE.INTER.VDW>
-16.0295

>  <SCORE.INTER.norm>
-1.43846

>  <SCORE.INTRA>
0

>  <SCORE.INTRA.DIHEDRAL>
0

>  <SCORE.INTRA.DIHEDRAL.0>
0

>  <SCORE.INTRA.POLAR>
0

>  <SCORE.INTRA.POLAR.0>
0

>  <SCORE.INTRA.REPUL>
0

>  <SCORE.INTRA.REPUL.0>
0

>  <SCORE.INTRA.SOLV>
0

>  <SCORE.INTRA.SOLV.lig_0>
-23.8941

>  <SCORE.INTRA.VDW>
0

>  <SCORE.INTRA.VDW.0>
0

>  <SCORE.INTRA.norm>
0

>  <SCORE.RESTR>
0

>  <SCORE.RESTR.CAVITY>
0

>  <SCORE.RESTR.norm>
0

>  <SCORE.SYSTEM>
0

>  <SCORE.SYSTEM.CONST>
0

>  <SCORE.SYSTEM.DIHEDRAL>
0

>  <SCORE.SYSTEM.SOLV>
0

>  <SCORE.SYSTEM.norm>
0

>  <SCORE.heavy>
10

>  <SCORE.norm>
-1.43846

>  <RMSD>
0.488

$$$$
ligand
 OpenBabel11021811513D
libRbt.so/2013.1/901 2013/11/27
 10 11  0  0  0  0  0  0  0  0999 V2000
  -29.9096   16.8634  -14.5228 N   0  0  0  0  0  0  0  0  0  0  0  0
  -30.8962   17.7125  -14.2096 C   0  0  0  0  0  0  0  0  0  0  0  0
  -31.5542   18.5594  -14.9994 N   0  0  0  0  0  0  0  0  0  0  0  0
  -31.1013   18.4853  -16.2606 C   0  0  0  0  0  0  0  0  0  0  0  0
  -30.0954   17.6656  -16.7338 C   0  0  0  0  0  0  0  0  0  0  0  0
  -29.4763   16.8122  -15.7989 C   0  0  0  0  0  0  0  0  0  0  0  0
  -28.4903   15.9654  -16.1149 N   0  0  0  0  0  0  0  0  0  0  0  0
  -29.8995   17.8613  -18.0905 N   0  0  0  0  0  0  0  0  0  0  0  0
  -30.7784   18.7844  -18.4047 C   0  0  0  0  0  0  0  0  0  0  0  0
  -31.5371   19.2068  -17.3489 N   0  0  0  0  0  0  0  0  0  0  0  0
  1  2  2  0  0  0  0
  1  6  1  0  0  0  0
  2  3  1  0  0  0  0
  3  4  2  0  0  0  0
  4  5  1  0  0  0  0
  4 10  1  0  0  0  0
  5  6  2  0  0  0  0
  5  8  1  0  0  0  0
  6  7  1  0  0  0  0
  8  9  1  0  0  0  0
  9 10  2  0  0  0  0
M  END
>  <CHROM.1>
-30.36648425,17.78394002,-16.24587876,1.06668555,-0.74036069,1.84598676

>  <Name>
ligand

>  <RI>
0

>  <Rbt.Current_Directory>
/home/itssahil/PROJECTS/Mol_Feturizer/New_Systems/rnas/4TZY

>  <Rbt.Executable>
rbdock ($Id: //depot/dev/client3/rdock/2013.1/src/exe/rbdock.cxx#4 $)

>  <Rbt.Library>
libRbt.so (2013.1, Build901 2013/11/27)

>  <Rbt.Parameter_File>
/export/apps/rDock/src/rDock_2013.1_src/data/scripts/dock_solv.prm

>  <Rbt.Receptor>
prm/blind_docking_80.prm

>  <SCORE>
-14.3322

>  <SCORE.INTER>
-14.3327

>  <SCORE.INTER.CONST>
1

>  <SCORE.INTER.POLAR>
0

>  <SCORE.INTER.ROT>
0

>  <SCORE.INTER.SOLV>
7.13345

>  <SCORE.INTER.VDW>
-15.533

>  <SCORE.INTER.norm>
-1.43327

>  <SCORE.INTRA>
0

>  <SCORE.INTRA.DIHEDRAL>
0

>  <SCORE.INTRA.DIHEDRAL.0>
0

>  <SCORE.INTRA.POLAR>
0

>  <SCORE.INTRA.POLAR.0>
0

>  <SCORE.INTRA.REPUL>
0

>  <SCORE.INTRA.REPUL.0>
0

>  <SCORE.INTRA.SOLV>
0

>  <SCORE.INTRA.SOLV.lig_0>
-23.8941

>  <SCORE.INTRA.VDW>
0

>  <SCORE.INTRA.VDW.0>
0

>  <SCORE.INTRA.norm>
0

>  <SCORE.RESTR>
0.000528639

>  <SCORE.RESTR.CAVITY>
0.000528639

>  <SCORE.RESTR.norm>
5.28639e-05

>  <SCORE.SYSTEM>
0

>  <SCORE.SYSTEM.CONST>
0

>  <SCORE.SYSTEM.DIHEDRAL>
0

>  <SCORE.SYSTEM.SOLV>
0

>  <SCORE.SYSTEM.norm>
0

>  <SCORE.heavy>
10

>  <SCORE.norm>
-1.43322

>  <RMSD>
0.489

$$$$
ligand
 OpenBabel11021811513D
libRbt.so/2013.1/901 2013/11/27
 10 11  0  0  0  0  0  0  0  0999 V2000
  -30.0413   16.7004  -14.5468 N   0  0  0  0  0  0  0  0  0  0  0  0
  -30.9739   17.5934  -14.1926 C   0  0  0  0  0  0  0  0  0  0  0  0
  -31.5589   18.5321  -14.9347 N   0  0  0  0  0  0  0  0  0  0  0  0
  -31.0895   18.5076  -16.1918 C   0  0  0  0  0  0  0  0  0  0  0  0
  -30.1329   17.6528  -16.7035 C   0  0  0  0  0  0  0  0  0  0  0  0
  -29.5897   16.7011  -15.8175 C   0  0  0  0  0  0  0  0  0  0  0  0
  -28.6577   15.8105  -16.1743 N   0  0  0  0  0  0  0  0  0  0  0  0
  -29.8999   17.9207  -18.0418 N   0  0  0  0  0  0  0  0  0  0  0  0
  -30.7086   18.9200  -18.3074 C   0  0  0  0  0  0  0  0  0  0  0  0
  -31.4560   19.3252  -17.2368 N   0  0  0  0  0  0  0  0  0  0  0  0
  1  2  2  0  0  0  0
  1  6  1  0  0  0  0
  2  3  1  0  0  0  0
  3  4  2  0  0  0  0
  4  5  1  0  0  0  0
  4 10  1  0  0  0  0
  5  6  2  0  0  0  0
  5  8  1  0  0  0  0
  6  7  1  0  0  0  0
  8  9  1  0  0  0  0
  9 10  2  0  0  0  0
M  END
>  <CHROM.1>
-30.40407791,17.75805196,-16.21256815,1.11783201,-0.79988520,1.94602383

>  <Name>
ligand

>  <RI>
0

>  <Rbt.Current_Directory>
/home/itssahil/PROJECTS/Mol_Feturizer/New_Systems/rnas/4TZY

>  <Rbt.Executable>
rbdock ($Id: //depot/dev/client3/rdock/2013.1/src/exe/rbdock.cxx#4 $)

>  <Rbt.Library>
libRbt.so (2013.1, Build901 2013/11/27)

>  <Rbt.Parameter_File>
/export/apps/rDock/src/rDock_2013.1_src/data/scripts/dock_solv.prm

>  <Rbt.Receptor>
prm/pocket_docking_4.prm

>  <SCORE>
-14.2742

>  <SCORE.INTER>
-14.2744

>  <SCORE.INTER.CONST>
1

>  <SCORE.INTER.POLAR>
0

>  <SCORE.INTER.ROT>
0

>  <SCORE.INTER.SOLV>
7.79554

>  <SCORE.INTER.VDW>
-15.7148

>  <SCORE.INTER.norm>
-1.42744

>  <SCORE.INTRA>
0

>  <SCORE.INTRA.DIHEDRAL>
0

>  <SCORE.INTRA.DIHEDRAL.0>
0

>  <SCORE.INTRA.POLAR>
0

>  <SCORE.INTRA.POLAR.0>
0

>  <SCORE.INTRA.REPUL>
0

>  <SCORE.INTRA.REPUL.0>
0

>  <SCORE.INTRA.SOLV>
0

>  <SCORE.INTRA.SOLV.lig_0>
-23.8941

>  <SCORE.INTRA.VDW>
0

>  <SCORE.INTRA.VDW.0>
0

>  <SCORE.INTRA.norm>
0

>  <SCORE.RESTR>
0.000130291

>  <SCORE.RESTR.CAVITY>
0.000130291

>  <SCORE.RESTR.norm>
1.30291e-05

>  <SCORE.SYSTEM>
0

>  <SCORE.SYSTEM.CONST>
0

>  <SCORE.SYSTEM.DIHEDRAL>
0

>  <SCORE.SYSTEM.SOLV>
0

>  <SCORE.SYSTEM.norm>
0

>  <SCORE.heavy>
10

>  <SCORE.norm>
-1.42742

>  <RMSD>
0.489

$$$$
ligand
 OpenBabel11021811513D
libRbt.so/2013.1/901 2013/11/27
 10 11  0  0  0  0  0  0  0  0999 V2000
  -30.1863   16.6940  -14.6520 N   0  0  0  0  0  0  0  0  0  0  0  0
  -31.0782   17.6367  -14.3230 C   0  0  0  0  0  0  0  0  0  0  0  0
  -31.5918   18.6042  -15.0807 N   0  0  0  0  0  0  0  0  0  0  0  0
  -31.0915   18.5521  -16.3249 C   0  0  0  0  0  0  0  0  0  0  0  0
  -30.1694   17.6459  -16.8108 C   0  0  0  0  0  0  0  0  0  0  0  0
  -29.7020   16.6679  -15.9104 C   0  0  0  0  0  0  0  0  0  0  0  0
  -28.8104   15.7276  -16.2421 N   0  0  0  0  0  0  0  0  0  0  0  0
  -29.8871   17.8982  -18.1427 N   0  0  0  0  0  0  0  0  0  0  0  0
  -30.6334   18.9392  -18.4299 C   0  0  0  0  0  0  0  0  0  0  0  0
  -31.3857   19.3863  -17.3797 N   0  0  0  0  0  0  0  0  0  0  0  0
  1  2  2  0  0  0  0
  1  6  1  0  0  0  0
  2  3  1  0  0  0  0
  3  4  2  0  0  0  0
  4  5  1  0  0  0  0
  4 10  1  0  0  0  0
  5  6  2  0  0  0  0
  5  8  1  0  0  0  0
  6  7  1  0  0  0  0
  8  9  1  0  0  0  0
  9 10  2  0  0  0  0
M  END
>  <CHROM.1>
-30.44733756,17.76653061,-16.32731690,1.18419921,-0.83949136,1.99337132

>  <Name>
ligand

>  <RI>
0

>  <Rbt.Current_Directory>
/home/itssahil/PROJECTS/Mol_Feturizer/New_Systems/rnas/4TZY

>  <Rbt.Executable>
rbdock ($Id: //depot/dev/client3/rdock/2013.1/src/exe/rbdock.cxx#4 $)

>  <Rbt.Library>
libRbt.so (2013.1, Build901 2013/11/27)

>  <Rbt.Parameter_File>
/export/apps/rDock/src/rDock_2013.1_src/data/scripts/dock_solv.prm

>  <Rbt.Receptor>
prm/pocket_docking_5.prm

>  <SCORE>
-14.3603

>  <SCORE.INTER>
-14.3732

>  <SCORE.INTER.CONST>
1

>  <SCORE.INTER.POLAR>
0

>  <SCORE.INTER.ROT>
0

>  <SCORE.INTER.SOLV>
8.33743

>  <SCORE.INTER.VDW>
-15.9613

>  <SCORE.INTER.norm>
-1.43732

>  <SCORE.INTRA>
0

>  <SCORE.INTRA.DIHEDRAL>
0

>  <SCORE.INTRA.DIHEDRAL.0>
0

>  <SCORE.INTRA.POLAR>
0

>  <SCORE.INTRA.POLAR.0>
0

>  <SCORE.INTRA.REPUL>
0

>  <SCORE.INTRA.REPUL.0>
0

>  <SCORE.INTRA.SOLV>
0

>  <SCORE.INTRA.SOLV.lig_0>
-23.8941

>  <SCORE.INTRA.VDW>
0

>  <SCORE.INTRA.VDW.0>
0

>  <SCORE.INTRA.norm>
0

>  <SCORE.RESTR>
0.0128782

>  <SCORE.RESTR.CAVITY>
0.0128782

>  <SCORE.RESTR.norm>
0.00128782

>  <SCORE.SYSTEM>
0

>  <SCORE.SYSTEM.CONST>
0

>  <SCORE.SYSTEM.DIHEDRAL>
0

>  <SCORE.SYSTEM.SOLV>
0

>  <SCORE.SYSTEM.norm>
0

>  <SCORE.heavy>
10

>  <SCORE.norm>
-1.43603

>  <RMSD>
0.489

$$$$
ligand
 OpenBabel11021811513D
libRbt.so/2013.1/901 2013/11/27
 10 11  0  0  0  0  0  0  0  0999 V2000
  -30.1508   16.6603  -14.6453 N   0  0  0  0  0  0  0  0  0  0  0  0
  -31.0414   17.5965  -14.2947 C   0  0  0  0  0  0  0  0  0  0  0  0
  -31.5675   18.5706  -15.0352 N   0  0  0  0  0  0  0  0  0  0  0  0
  -31.0828   18.5335  -16.2862 C   0  0  0  0  0  0  0  0  0  0  0  0
  -30.1642   17.6356  -16.7936 C   0  0  0  0  0  0  0  0  0  0  0  0
  -29.6824   16.6493  -15.9099 C   0  0  0  0  0  0  0  0  0  0  0  0
  -28.7922   15.7156  -16.2630 N   0  0  0  0  0  0  0  0  0  0  0  0
  -29.8995   17.9033  -18.1261 N   0  0  0  0  0  0  0  0  0  0  0  0
  -30.6525   18.9450  -18.3925 C   0  0  0  0  0  0  0  0  0  0  0  0
  -31.3928   19.3783  -17.3280 N   0  0  0  0  0  0  0  0  0  0  0  0
  1  2  2  0  0  0  0
  1  6  1  0  0  0  0
  2  3  1  0  0  0  0
  3  4  2  0  0  0  0
  4  5  1  0  0  0  0
  4 10  1  0  0  0  0
  5  6  2  0  0  0  0
  5  8  1  0  0  0  0
  6  7  1  0  0  0  0
  8  9  1  0  0  0  0
  9 10  2  0  0  0  0
M  END
>  <CHROM.1>
-30.43632435,17.75010129,-16.30530419,1.16502339,-0.84182663,1.98998314

>  <Name>
ligand

>  <RI>
0

>  <Rbt.Current_Directory>
/home/itssahil/PROJECTS/Mol_Feturizer/New_Systems/rnas/4TZY

>  <Rbt.Executable>
rbdock ($Id: //depot/dev/client3/rdock/2013.1/src/exe/rbdock.cxx#4 $)

>  <Rbt.Library>
libRbt.so (2013.1, Build901 2013/11/27)

>  <Rbt.Parameter_File>
/export/apps/rDock/src/rDock_2013.1_src/data/scripts/dock_solv.prm

>  <Rbt.Receptor>
prm/pocket_docking_7.prm

>  <SCORE>
-14.3618

>  <SCORE.INTER>
-14.3623

>  <SCORE.INTER.CONST>
1

>  <SCORE.INTER.POLAR>
0

>  <SCORE.INTER.ROT>
0

>  <SCORE.INTER.SOLV>
8.35847

>  <SCORE.INTER.VDW>
-15.961

>  <SCORE.INTER.norm>
-1.43623

>  <SCORE.INTRA>
0

>  <SCORE.INTRA.DIHEDRAL>
0

>  <SCORE.INTRA.DIHEDRAL.0>
0

>  <SCORE.INTRA.POLAR>
0

>  <SCORE.INTRA.POLAR.0>
0

>  <SCORE.INTRA.REPUL>
0

>  <SCORE.INTRA.REPUL.0>
0

>  <SCORE.INTRA.SOLV>
0

>  <SCORE.INTRA.SOLV.lig_0>
-23.8941

>  <SCORE.INTRA.VDW>
0

>  <SCORE.INTRA.VDW.0>
0

>  <SCORE.INTRA.norm>
0

>  <SCORE.RESTR>
0.000492184

>  <SCORE.RESTR.CAVITY>
0.000492184

>  <SCORE.RESTR.norm>
4.92184e-05

>  <SCORE.SYSTEM>
0

>  <SCORE.SYSTEM.CONST>
0

>  <SCORE.SYSTEM.DIHEDRAL>
0

>  <SCORE.SYSTEM.SOLV>
0

>  <SCORE.SYSTEM.norm>
0

>  <SCORE.heavy>
10

>  <SCORE.norm>
-1.43618

>  <RMSD>
0.491

$$$$
ligand
 OpenBabel11021811513D
libRbt.so/2013.1/901 2013/11/27
 10 11  0  0  0  0  0  0  0  0999 V2000
  -30.0711   16.7146  -14.6534 N   0  0  0  0  0  0  0  0  0  0  0  0
  -30.9747   17.6396  -14.3064 C   0  0  0  0  0  0  0  0  0  0  0  0
  -31.5317   18.5888  -15.0565 N   0  0  0  0  0  0  0  0  0  0  0  0
  -31.0660   18.5374  -16.3142 C   0  0  0  0  0  0  0  0  0  0  0  0
  -30.1376   17.6483  -16.8192 C   0  0  0  0  0  0  0  0  0  0  0  0
  -29.6225   16.6888  -15.9250 C   0  0  0  0  0  0  0  0  0  0  0  0
  -28.7194   15.7662  -16.2747 N   0  0  0  0  0  0  0  0  0  0  0  0
  -29.8992   17.8956  -18.1606 N   0  0  0  0  0  0  0  0  0  0  0  0
  -30.6770   18.9170  -18.4344 C   0  0  0  0  0  0  0  0  0  0  0  0
  -31.4091   19.3558  -17.3666 N   0  0  0  0  0  0  0  0  0  0  0  0
  1  2  2  0  0  0  0
  1  6  1  0  0  0  0
  2  3  1  0  0  0  0
  3  4  2  0  0  0  0
  4  5  1  0  0  0  0
  4 10  1  0  0  0  0
  5  6  2  0  0  0  0
  5  8  1  0  0  0  0
  6  7  1  0  0  0  0
  8  9  1  0  0  0  0
  9 10  2  0  0  0  0
M  END
>  <CHROM.1>
-30.40432922,17.76671007,-16.32888916,1.13178520,-0.82960957,1.94636012

>  <Name>
ligand

>  <RI>
0

>  <Rbt.Current_Directory>
/home/itssahil/PROJECTS/Mol_Feturizer/New_Systems/rnas/4TZY

>  <Rbt.Executable>
rbdock ($Id: //depot/dev/client3/rdock/2013.1/src/exe/rbdock.cxx#4 $)

>  <Rbt.Library>
libRbt.so (2013.1, Build901 2013/11/27)

>  <Rbt.Parameter_File>
/export/apps/rDock/src/rDock_2013.1_src/data/scripts/dock_solv.prm

>  <Rbt.Receptor>
prm/pocket_docking_7.prm

>  <SCORE>
-14.3601

>  <SCORE.INTER>
-14.3609

>  <SCORE.INTER.CONST>
1

>  <SCORE.INTER.POLAR>
0

>  <SCORE.INTER.ROT>
0

>  <SCORE.INTER.SOLV>
8.10921

>  <SCORE.INTER.VDW>
-15.877

>  <SCORE.INTER.norm>
-1.43609

>  <SCORE.INTRA>
0

>  <SCORE.INTRA.DIHEDRAL>
0

>  <SCORE.INTRA.DIHEDRAL.0>
0

>  <SCORE.INTRA.POLAR>
0

>  <SCORE.INTRA.POLAR.0>
0

>  <SCORE.INTRA.REPUL>
0

>  <SCORE.INTRA.REPUL.0>
0

>  <SCORE.INTRA.SOLV>
0

>  <SCORE.INTRA.SOLV.lig_0>
-23.8941

>  <SCORE.INTRA.VDW>
0

>  <SCORE.INTRA.VDW.0>
0

>  <SCORE.INTRA.norm>
0

>  <SCORE.RESTR>
0.000776171

>  <SCORE.RESTR.CAVITY>
0.000776171

>  <SCORE.RESTR.norm>
7.76171e-05

>  <SCORE.SYSTEM>
0

>  <SCORE.SYSTEM.CONST>
0

>  <SCORE.SYSTEM.DIHEDRAL>
0

>  <SCORE.SYSTEM.SOLV>
0

>  <SCORE.SYSTEM.norm>
0

>  <SCORE.heavy>
10

>  <SCORE.norm>
-1.43601

>  <RMSD>
0.491

$$$$
ligand
 OpenBabel11021811513D
libRbt.so/2013.1/901 2013/11/27
 10 11  0  0  0  0  0  0  0  0999 V2000
  -29.9098   16.8693  -14.5234 N   0  0  0  0  0  0  0  0  0  0  0  0
  -30.9017   17.7133  -14.2129 C   0  0  0  0  0  0  0  0  0  0  0  0
  -31.5632   18.5554  -15.0049 N   0  0  0  0  0  0  0  0  0  0  0  0
  -31.1079   18.4820  -16.2653 C   0  0  0  0  0  0  0  0  0  0  0  0
  -30.0968   17.6673  -16.7358 C   0  0  0  0  0  0  0  0  0  0  0  0
  -29.4744   16.8187  -15.7987 C   0  0  0  0  0  0  0  0  0  0  0  0
  -28.4832   15.9769  -16.1120 N   0  0  0  0  0  0  0  0  0  0  0  0
  -29.8999   17.8621  -18.0925 N   0  0  0  0  0  0  0  0  0  0  0  0
  -30.7834   18.7798  -18.4093 C   0  0  0  0  0  0  0  0  0  0  0  0
  -31.5462   19.1995  -17.3553 N   0  0  0  0  0  0  0  0  0  0  0  0
  1  2  2  0  0  0  0
  1  6  1  0  0  0  0
  2  3  1  0  0  0  0
  3  4  2  0  0  0  0
  4  5  1  0  0  0  0
  4 10  1  0  0  0  0
  5  6  2  0  0  0  0
  5  8  1  0  0  0  0
  6  7  1  0  0  0  0
  8  9  1  0  0  0  0
  9 10  2  0  0  0  0
M  END
>  <CHROM.1>
-30.36925618,17.78477587,-16.24843825,1.06661929,-0.73456283,1.84449788

>  <Name>
ligand

>  <RI>
0

>  <Rbt.Current_Directory>
/home/itssahil/PROJECTS/Mol_Feturizer/New_Systems/rnas/4TZY

>  <Rbt.Executable>
rbdock ($Id: //depot/dev/client3/rdock/2013.1/src/exe/rbdock.cxx#4 $)

>  <Rbt.Library>
libRbt.so (2013.1, Build901 2013/11/27)

>  <Rbt.Parameter_File>
/export/apps/rDock/src/rDock_2013.1_src/data/scripts/dock_solv.prm

>  <Rbt.Receptor>
prm/pocket_docking_4.prm

>  <SCORE>
-14.331

>  <SCORE.INTER>
-14.3311

>  <SCORE.INTER.CONST>
1

>  <SCORE.INTER.POLAR>
0

>  <SCORE.INTER.ROT>
0

>  <SCORE.INTER.SOLV>
7.10427

>  <SCORE.INTER.VDW>
-15.5222

>  <SCORE.INTER.norm>
-1.43311

>  <SCORE.INTRA>
0

>  <SCORE.INTRA.DIHEDRAL>
0

>  <SCORE.INTRA.DIHEDRAL.0>
0

>  <SCORE.INTRA.POLAR>
0

>  <SCORE.INTRA.POLAR.0>
0

>  <SCORE.INTRA.REPUL>
0

>  <SCORE.INTRA.REPUL.0>
0

>  <SCORE.INTRA.SOLV>
0

>  <SCORE.INTRA.SOLV.lig_0>
-23.8941

>  <SCORE.INTRA.VDW>
0

>  <SCORE.INTRA.VDW.0>
0

>  <SCORE.INTRA.norm>
0

>  <SCORE.RESTR>
0.000134937

>  <SCORE.RESTR.CAVITY>
0.000134937

>  <SCORE.RESTR.norm>
1.34937e-05

>  <SCORE.SYSTEM>
0

>  <SCORE.SYSTEM.CONST>
0

>  <SCORE.SYSTEM.DIHEDRAL>
0

>  <SCORE.SYSTEM.SOLV>
0

>  <SCORE.SYSTEM.norm>
0

>  <SCORE.heavy>
10

>  <SCORE.norm>
-1.4331

>  <RMSD>
0.492

$$$$
ligand
 OpenBabel11021811513D
libRbt.so/2013.1/901 2013/11/27
 10 11  0  0  0  0  0  0  0  0999 V2000
  -30.0269   16.6895  -14.5345 N   0  0  0  0  0  0  0  0  0  0  0  0
  -30.9545   17.5837  -14.1708 C   0  0  0  0  0  0  0  0  0  0  0  0
  -31.5402   18.5282  -14.9049 N   0  0  0  0  0  0  0  0  0  0  0  0
  -31.0774   18.5089  -16.1645 C   0  0  0  0  0  0  0  0  0  0  0  0
  -30.1263   17.6536  -16.6857 C   0  0  0  0  0  0  0  0  0  0  0  0
  -29.5818   16.6954  -15.8076 C   0  0  0  0  0  0  0  0  0  0  0  0
  -28.6546   15.8037  -16.1739 N   0  0  0  0  0  0  0  0  0  0  0  0
  -29.8994   17.9278  -18.0238 N   0  0  0  0  0  0  0  0  0  0  0  0
  -30.7061   18.9312  -18.2799 C   0  0  0  0  0  0  0  0  0  0  0  0
  -31.4466   19.3332  -17.2033 N   0  0  0  0  0  0  0  0  0  0  0  0
  1  2  2  0  0  0  0
  1  6  1  0  0  0  0
  2  3  1  0  0  0  0
  3  4  2  0  0  0  0
  4  5  1  0  0  0  0
  4 10  1  0  0  0  0
  5  6  2  0  0  0  0
  5  8  1  0  0  0  0
  6  7  1  0  0  0  0
  8  9  1  0  0  0  0
  9 10  2  0  0  0  0
M  END
>  <CHROM.1>
-30.39464516,17.75716407,-16.19283416,1.11266393,-0.80488602,1.94759150

>  <Name>
ligand

>  <RI>
0

>  <Rbt.Current_Directory>
/home/itssahil/PROJECTS/Mol_Feturizer/New_Systems/rnas/4TZY

>  <Rbt.Executable>
rbdock ($Id: //depot/dev/client3/rdock/2013.1/src/exe/rbdock.cxx#4 $)

>  <Rbt.Library>
libRbt.so (2013.1, Build901 2013/11/27)

>  <Rbt.Parameter_File>
/export/apps/rDock/src/rDock_2013.1_src/data/scripts/dock_solv.prm

>  <Rbt.Receptor>
prm/pocket_docking_8.prm

>  <SCORE>
-14.2761

>  <SCORE.INTER>
-14.2768

>  <SCORE.INTER.CONST>
1

>  <SCORE.INTER.POLAR>
0

>  <SCORE.INTER.ROT>
0

>  <SCORE.INTER.SOLV>
7.81116

>  <SCORE.INTER.VDW>
-15.7216

>  <SCORE.INTER.norm>
-1.42768

>  <SCORE.INTRA>
0

>  <SCORE.INTRA.DIHEDRAL>
0

>  <SCORE.INTRA.DIHEDRAL.0>
0

>  <SCORE.INTRA.POLAR>
0

>  <SCORE.INTRA.POLAR.0>
0

>  <SCORE.INTRA.REPUL>
0

>  <SCORE.INTRA.REPUL.0>
0

>  <SCORE.INTRA.SOLV>
0

>  <SCORE.INTRA.SOLV.lig_0>
-23.8941

>  <SCORE.INTRA.VDW>
0

>  <SCORE.INTRA.VDW.0>
0

>  <SCORE.INTRA.norm>
0

>  <SCORE.RESTR>
0.000643427

>  <SCORE.RESTR.CAVITY>
0.000643427

>  <SCORE.RESTR.norm>
6.43427e-05

>  <SCORE.SYSTEM>
0

>  <SCORE.SYSTEM.CONST>
0

>  <SCORE.SYSTEM.DIHEDRAL>
0

>  <SCORE.SYSTEM.SOLV>
0

>  <SCORE.SYSTEM.norm>
0

>  <SCORE.heavy>
10

>  <SCORE.norm>
-1.42761

>  <RMSD>
0.494

$$$$
ligand
 OpenBabel11021811513D
libRbt.so/2013.1/901 2013/11/27
 10 11  0  0  0  0  0  0  0  0999 V2000
  -29.9509   16.7908  -14.6355 N   0  0  0  0  0  0  0  0  0  0  0  0
  -30.8825   17.6893  -14.2934 C   0  0  0  0  0  0  0  0  0  0  0  0
  -31.4923   18.5951  -15.0562 N   0  0  0  0  0  0  0  0  0  0  0  0
  -31.0516   18.5270  -16.3221 C   0  0  0  0  0  0  0  0  0  0  0  0
  -30.0999   17.6608  -16.8235 C   0  0  0  0  0  0  0  0  0  0  0  0
  -29.5286   16.7471  -15.9155 C   0  0  0  0  0  0  0  0  0  0  0  0
  -28.5975   15.8509  -16.2603 N   0  0  0  0  0  0  0  0  0  0  0  0
  -29.8999   17.8800  -18.1760 N   0  0  0  0  0  0  0  0  0  0  0  0
  -30.7229   18.8624  -18.4599 C   0  0  0  0  0  0  0  0  0  0  0  0
  -31.4489   19.3020  -17.3881 N   0  0  0  0  0  0  0  0  0  0  0  0
  1  2  2  0  0  0  0
  1  6  1  0  0  0  0
  2  3  1  0  0  0  0
  3  4  2  0  0  0  0
  4  5  1  0  0  0  0
  4 10  1  0  0  0  0
  5  6  2  0  0  0  0
  5  8  1  0  0  0  0
  6  7  1  0  0  0  0
  8  9  1  0  0  0  0
  9 10  2  0  0  0  0
M  END
>  <CHROM.1>
-30.36061695,17.78234159,-16.33076151,1.08276613,-0.80015292,1.88339400

>  <Name>
ligand

>  <RI>
0

>  <Rbt.Current_Directory>
/home/itssahil/PROJECTS/Mol_Feturizer/New_Systems/rnas/4TZY

>  <Rbt.Executable>
rbdock ($Id: //depot/dev/client3/rdock/2013.1/src/exe/rbdock.cxx#4 $)

>  <Rbt.Library>
libRbt.so (2013.1, Build901 2013/11/27)

>  <Rbt.Parameter_File>
/export/apps/rDock/src/rDock_2013.1_src/data/scripts/dock_solv.prm

>  <Rbt.Receptor>
prm/blind_docking_60.prm

>  <SCORE>
-14.3175

>  <SCORE.INTER>
-14.3177

>  <SCORE.INTER.CONST>
1

>  <SCORE.INTER.POLAR>
0

>  <SCORE.INTER.ROT>
0

>  <SCORE.INTER.SOLV>
7.76869

>  <SCORE.INTER.VDW>
-15.7347

>  <SCORE.INTER.norm>
-1.43177

>  <SCORE.INTRA>
0

>  <SCORE.INTRA.DIHEDRAL>
0

>  <SCORE.INTRA.DIHEDRAL.0>
0

>  <SCORE.INTRA.POLAR>
0

>  <SCORE.INTRA.POLAR.0>
0

>  <SCORE.INTRA.REPUL>
0

>  <SCORE.INTRA.REPUL.0>
0

>  <SCORE.INTRA.SOLV>
0

>  <SCORE.INTRA.SOLV.lig_0>
-23.8941

>  <SCORE.INTRA.VDW>
0

>  <SCORE.INTRA.VDW.0>
0

>  <SCORE.INTRA.norm>
0

>  <SCORE.RESTR>
0.000121606

>  <SCORE.RESTR.CAVITY>
0.000121606

>  <SCORE.RESTR.norm>
1.21606e-05

>  <SCORE.SYSTEM>
0

>  <SCORE.SYSTEM.CONST>
0

>  <SCORE.SYSTEM.DIHEDRAL>
0

>  <SCORE.SYSTEM.SOLV>
0

>  <SCORE.SYSTEM.norm>
0

>  <SCORE.heavy>
10

>  <SCORE.norm>
-1.43175

>  <RMSD>
0.495

$$$$
ligand
 OpenBabel11021811513D
libRbt.so/2013.1/901 2013/11/27
 10 11  0  0  0  0  0  0  0  0999 V2000
  -30.0285   16.7779  -14.5580 N   0  0  0  0  0  0  0  0  0  0  0  0
  -31.0175   17.6239  -14.2441 C   0  0  0  0  0  0  0  0  0  0  0  0
  -31.6437   18.5053  -15.0219 N   0  0  0  0  0  0  0  0  0  0  0  0
  -31.1526   18.4733  -16.2705 C   0  0  0  0  0  0  0  0  0  0  0  0
  -30.1392   17.6622  -16.7426 C   0  0  0  0  0  0  0  0  0  0  0  0
  -29.5564   16.7694  -15.8213 C   0  0  0  0  0  0  0  0  0  0  0  0
  -28.5680   15.9257  -16.1379 N   0  0  0  0  0  0  0  0  0  0  0  0
  -29.8997   17.9057  -18.0845 N   0  0  0  0  0  0  0  0  0  0  0  0
  -30.7609   18.8477  -18.3912 C   0  0  0  0  0  0  0  0  0  0  0  0
  -31.5486   19.2382  -17.3443 N   0  0  0  0  0  0  0  0  0  0  0  0
  1  2  2  0  0  0  0
  1  6  1  0  0  0  0
  2  3  1  0  0  0  0
  3  4  2  0  0  0  0
  4  5  1  0  0  0  0
  4 10  1  0  0  0  0
  5  6  2  0  0  0  0
  5  8  1  0  0  0  0
  6  7  1  0  0  0  0
  8  9  1  0  0  0  0
  9 10  2  0  0  0  0
M  END
>  <CHROM.1>
-30.42431549,17.76506628,-16.25915224,1.11005413,-0.73928089,1.91201849

>  <Name>
ligand

>  <RI>
0

>  <Rbt.Current_Directory>
/home/itssahil/PROJECTS/Mol_Feturizer/New_Systems/rnas/4TZY

>  <Rbt.Executable>
rbdock ($Id: //depot/dev/client3/rdock/2013.1/src/exe/rbdock.cxx#4 $)

>  <Rbt.Library>
libRbt.so (2013.1, Build901 2013/11/27)

>  <Rbt.Parameter_File>
/export/apps/rDock/src/rDock_2013.1_src/data/scripts/dock_solv.prm

>  <Rbt.Receptor>
prm/pocket_docking_4.prm

>  <SCORE>
-14.2936

>  <SCORE.INTER>
-14.2939

>  <SCORE.INTER.CONST>
1

>  <SCORE.INTER.POLAR>
0

>  <SCORE.INTER.ROT>
0

>  <SCORE.INTER.SOLV>
7.36126

>  <SCORE.INTER.VDW>
-15.583

>  <SCORE.INTER.norm>
-1.42939

>  <SCORE.INTRA>
0

>  <SCORE.INTRA.DIHEDRAL>
0

>  <SCORE.INTRA.DIHEDRAL.0>
0

>  <SCORE.INTRA.POLAR>
0

>  <SCORE.INTRA.POLAR.0>
0

>  <SCORE.INTRA.REPUL>
0

>  <SCORE.INTRA.REPUL.0>
0

>  <SCORE.INTRA.SOLV>
0

>  <SCORE.INTRA.SOLV.lig_0>
-23.8941

>  <SCORE.INTRA.VDW>
0

>  <SCORE.INTRA.VDW.0>
0

>  <SCORE.INTRA.norm>
0

>  <SCORE.RESTR>
0.000265929

>  <SCORE.RESTR.CAVITY>
0.000265929

>  <SCORE.RESTR.norm>
2.65929e-05

>  <SCORE.SYSTEM>
0

>  <SCORE.SYSTEM.CONST>
0

>  <SCORE.SYSTEM.DIHEDRAL>
0

>  <SCORE.SYSTEM.SOLV>
0

>  <SCORE.SYSTEM.norm>
0

>  <SCORE.heavy>
10

>  <SCORE.norm>
-1.42936

>  <RMSD>
0.496

$$$$
ligand
 OpenBabel11021811513D
libRbt.so/2013.1/901 2013/11/27
 10 11  0  0  0  0  0  0  0  0999 V2000
  -29.9814   16.7410  -14.5378 N   0  0  0  0  0  0  0  0  0  0  0  0
  -30.9588   17.5903  -14.1972 C   0  0  0  0  0  0  0  0  0  0  0  0
  -31.5905   18.4864  -14.9534 N   0  0  0  0  0  0  0  0  0  0  0  0
  -31.1194   18.4671  -16.2100 C   0  0  0  0  0  0  0  0  0  0  0  0
  -30.1199   17.6547  -16.7086 C   0  0  0  0  0  0  0  0  0  0  0  0
  -29.5294   16.7456  -15.8084 C   0  0  0  0  0  0  0  0  0  0  0  0
  -28.5526   15.8987  -16.1516 N   0  0  0  0  0  0  0  0  0  0  0  0
  -29.8998   17.9139  -18.0509 N   0  0  0  0  0  0  0  0  0  0  0  0
  -30.7584   18.8664  -18.3315 C   0  0  0  0  0  0  0  0  0  0  0  0
  -31.5265   19.2489  -17.2673 N   0  0  0  0  0  0  0  0  0  0  0  0
  1  2  2  0  0  0  0
  1  6  1  0  0  0  0
  2  3  1  0  0  0  0
  3  4  2  0  0  0  0
  4  5  1  0  0  0  0
  4 10  1  0  0  0  0
  5  6  2  0  0  0  0
  5  8  1  0  0  0  0
  6  7  1  0  0  0  0
  8  9  1  0  0  0  0
  9 10  2  0  0  0  0
M  END
>  <CHROM.1>
-30.39648166,17.75336435,-16.21938805,1.09317124,-0.75174244,1.91361607

>  <Name>
ligand

>  <RI>
0

>  <Rbt.Current_Directory>
/home/itssahil/PROJECTS/Mol_Feturizer/New_Systems/rnas/4TZY

>  <Rbt.Executable>
rbdock ($Id: //depot/dev/client3/rdock/2013.1/src/exe/rbdock.cxx#4 $)

>  <Rbt.Library>
libRbt.so (2013.1, Build901 2013/11/27)

>  <Rbt.Parameter_File>
/export/apps/rDock/src/rDock_2013.1_src/data/scripts/dock_solv.prm

>  <Rbt.Receptor>
prm/pocket_docking_6.prm

>  <SCORE>
-14.2775

>  <SCORE.INTER>
-14.2777

>  <SCORE.INTER.CONST>
1

>  <SCORE.INTER.POLAR>
0

>  <SCORE.INTER.ROT>
0

>  <SCORE.INTER.SOLV>
7.40273

>  <SCORE.INTER.VDW>
-15.5861

>  <SCORE.INTER.norm>
-1.42777

>  <SCORE.INTRA>
0

>  <SCORE.INTRA.DIHEDRAL>
0

>  <SCORE.INTRA.DIHEDRAL.0>
0

>  <SCORE.INTRA.POLAR>
0

>  <SCORE.INTRA.POLAR.0>
0

>  <SCORE.INTRA.REPUL>
0

>  <SCORE.INTRA.REPUL.0>
0

>  <SCORE.INTRA.SOLV>
0

>  <SCORE.INTRA.SOLV.lig_0>
-23.8941

>  <SCORE.INTRA.VDW>
0

>  <SCORE.INTRA.VDW.0>
0

>  <SCORE.INTRA.norm>
0

>  <SCORE.RESTR>
0.000231183

>  <SCORE.RESTR.CAVITY>
0.000231183

>  <SCORE.RESTR.norm>
2.31183e-05

>  <SCORE.SYSTEM>
0

>  <SCORE.SYSTEM.CONST>
0

>  <SCORE.SYSTEM.DIHEDRAL>
0

>  <SCORE.SYSTEM.SOLV>
0

>  <SCORE.SYSTEM.norm>
0

>  <SCORE.heavy>
10

>  <SCORE.norm>
-1.42775

>  <RMSD>
0.497

$$$$
ligand
 OpenBabel11021811513D
libRbt.so/2013.1/901 2013/11/27
 10 11  0  0  0  0  0  0  0  0999 V2000
  -30.0892   16.7074  -14.6244 N   0  0  0  0  0  0  0  0  0  0  0  0
  -31.0052   17.6197  -14.2767 C   0  0  0  0  0  0  0  0  0  0  0  0
  -31.5659   18.5699  -15.0230 N   0  0  0  0  0  0  0  0  0  0  0  0
  -31.0891   18.5348  -16.2771 C   0  0  0  0  0  0  0  0  0  0  0  0
  -30.1473   17.6599  -16.7822 C   0  0  0  0  0  0  0  0  0  0  0  0
  -29.6296   16.6977  -15.8923 C   0  0  0  0  0  0  0  0  0  0  0  0
  -28.7140   15.7878  -16.2426 N   0  0  0  0  0  0  0  0  0  0  0  0
  -29.9003   17.9219  -18.1192 N   0  0  0  0  0  0  0  0  0  0  0  0
  -30.6864   18.9376  -18.3904 C   0  0  0  0  0  0  0  0  0  0  0  0
  -31.4319   19.3591  -17.3249 N   0  0  0  0  0  0  0  0  0  0  0  0
  1  2  2  0  0  0  0
  1  6  1  0  0  0  0
  2  3  1  0  0  0  0
  3  4  2  0  0  0  0
  4  5  1  0  0  0  0
  4 10  1  0  0  0  0
  5  6  2  0  0  0  0
  5  8  1  0  0  0  0
  6  7  1  0  0  0  0
  8  9  1  0  0  0  0
  9 10  2  0  0  0  0
M  END
>  <CHROM.1>
-30.41932318,17.77111165,-16.29307405,1.13757352,-0.81679483,1.95965929

>  <Name>
ligand

>  <RI>
0

>  <Rbt.Current_Directory>
/home/itssahil/PROJECTS/Mol_Feturizer/New_Systems/rnas/4TZY

>  <Rbt.Executable>
rbdock ($Id: //depot/dev/client3/rdock/2013.1/src/exe/rbdock.cxx#4 $)

>  <Rbt.Library>
libRbt.so (2013.1, Build901 2013/11/27)

>  <Rbt.Parameter_File>
/export/apps/rDock/src/rDock_2013.1_src/data/scripts/dock_solv.prm

>  <Rbt.Receptor>
prm/pocket_docking_7.prm

>  <SCORE>
-14.3463

>  <SCORE.INTER>
-14.3463

>  <SCORE.INTER.CONST>
1

>  <SCORE.INTER.POLAR>
0

>  <SCORE.INTER.ROT>
0

>  <SCORE.INTER.SOLV>
8.02415

>  <SCORE.INTER.VDW>
-15.8389

>  <SCORE.INTER.norm>
-1.43463

>  <SCORE.INTRA>
0

>  <SCORE.INTRA.DIHEDRAL>
0

>  <SCORE.INTRA.DIHEDRAL.0>
0

>  <SCORE.INTRA.POLAR>
0

>  <SCORE.INTRA.POLAR.0>
0

>  <SCORE.INTRA.REPUL>
0

>  <SCORE.INTRA.REPUL.0>
0

>  <SCORE.INTRA.SOLV>
0

>  <SCORE.INTRA.SOLV.lig_0>
-23.8941

>  <SCORE.INTRA.VDW>
0

>  <SCORE.INTRA.VDW.0>
0

>  <SCORE.INTRA.norm>
0

>  <SCORE.RESTR>
0

>  <SCORE.RESTR.CAVITY>
0

>  <SCORE.RESTR.norm>
0

>  <SCORE.SYSTEM>
0

>  <SCORE.SYSTEM.CONST>
0

>  <SCORE.SYSTEM.DIHEDRAL>
0

>  <SCORE.SYSTEM.SOLV>
0

>  <SCORE.SYSTEM.norm>
0

>  <SCORE.heavy>
10

>  <SCORE.norm>
-1.43463

>  <RMSD>
0.497

$$$$
ligand
 OpenBabel11021811513D
libRbt.so/2013.1/901 2013/11/27
 10 11  0  0  0  0  0  0  0  0999 V2000
  -29.9088   16.8377  -14.5219 N   0  0  0  0  0  0  0  0  0  0  0  0
  -30.9062   17.6713  -14.2014 C   0  0  0  0  0  0  0  0  0  0  0  0
  -31.5718   18.5201  -14.9827 N   0  0  0  0  0  0  0  0  0  0  0  0
  -31.1145   18.4667  -16.2434 C   0  0  0  0  0  0  0  0  0  0  0  0
  -30.0978   17.6646  -16.7236 C   0  0  0  0  0  0  0  0  0  0  0  0
  -29.4714   16.8071  -15.7973 C   0  0  0  0  0  0  0  0  0  0  0  0
  -28.4747   15.9757  -16.1206 N   0  0  0  0  0  0  0  0  0  0  0  0
  -29.9003   17.8790  -18.0772 N   0  0  0  0  0  0  0  0  0  0  0  0
  -30.7890   18.7956  -18.3827 C   0  0  0  0  0  0  0  0  0  0  0  0
  -31.5556   19.1963  -17.3241 N   0  0  0  0  0  0  0  0  0  0  0  0
  1  2  2  0  0  0  0
  1  6  1  0  0  0  0
  2  3  1  0  0  0  0
  3  4  2  0  0  0  0
  4  5  1  0  0  0  0
  4 10  1  0  0  0  0
  5  6  2  0  0  0  0
  5  8  1  0  0  0  0
  6  7  1  0  0  0  0
  8  9  1  0  0  0  0
  9 10  2  0  0  0  0
M  END
>  <CHROM.1>
-30.37157992,17.77376877,-16.23500041,1.06609007,-0.72836825,1.85776086

>  <Name>
ligand

>  <RI>
0

>  <Rbt.Current_Directory>
/home/itssahil/PROJECTS/Mol_Feturizer/New_Systems/rnas/4TZY

>  <Rbt.Executable>
rbdock ($Id: //depot/dev/client3/rdock/2013.1/src/exe/rbdock.cxx#4 $)

>  <Rbt.Library>
libRbt.so (2013.1, Build901 2013/11/27)

>  <Rbt.Parameter_File>
/export/apps/rDock/src/rDock_2013.1_src/data/scripts/dock_solv.prm

>  <Rbt.Receptor>
prm/blind_docking_100.prm

>  <SCORE>
-14.3207

>  <SCORE.INTER>
-14.3207

>  <SCORE.INTER.CONST>
1

>  <SCORE.INTER.POLAR>
0

>  <SCORE.INTER.ROT>
0

>  <SCORE.INTER.SOLV>
7.11398

>  <SCORE.INTER.VDW>
-15.5185

>  <SCORE.INTER.norm>
-1.43207

>  <SCORE.INTRA>
0

>  <SCORE.INTRA.DIHEDRAL>
0

>  <SCORE.INTRA.DIHEDRAL.0>
0

>  <SCORE.INTRA.POLAR>
0

>  <SCORE.INTRA.POLAR.0>
0

>  <SCORE.INTRA.REPUL>
0

>  <SCORE.INTRA.REPUL.0>
0

>  <SCORE.INTRA.SOLV>
0

>  <SCORE.INTRA.SOLV.lig_0>
-23.8941

>  <SCORE.INTRA.VDW>
0

>  <SCORE.INTRA.VDW.0>
0

>  <SCORE.INTRA.norm>
0

>  <SCORE.RESTR>
0

>  <SCORE.RESTR.CAVITY>
0

>  <SCORE.RESTR.norm>
0

>  <SCORE.SYSTEM>
0

>  <SCORE.SYSTEM.CONST>
0

>  <SCORE.SYSTEM.DIHEDRAL>
0

>  <SCORE.SYSTEM.SOLV>
0

>  <SCORE.SYSTEM.norm>
0

>  <SCORE.heavy>
10

>  <SCORE.norm>
-1.43207

>  <RMSD>
0.498

$$$$
ligand
 OpenBabel11021811513D
libRbt.so/2013.1/901 2013/11/27
 10 11  0  0  0  0  0  0  0  0999 V2000
  -30.1354   16.6849  -14.6116 N   0  0  0  0  0  0  0  0  0  0  0  0
  -31.0298   17.6164  -14.2583 C   0  0  0  0  0  0  0  0  0  0  0  0
  -31.5629   18.5881  -14.9970 N   0  0  0  0  0  0  0  0  0  0  0  0
  -31.0812   18.5541  -16.2493 C   0  0  0  0  0  0  0  0  0  0  0  0
  -30.1594   17.6611  -16.7594 C   0  0  0  0  0  0  0  0  0  0  0  0
  -29.6703   16.6769  -15.8774 C   0  0  0  0  0  0  0  0  0  0  0  0
  -28.7762   15.7479  -16.2333 N   0  0  0  0  0  0  0  0  0  0  0  0
  -29.8995   17.9308  -18.0925 N   0  0  0  0  0  0  0  0  0  0  0  0
  -30.6586   18.9687  -18.3564 C   0  0  0  0  0  0  0  0  0  0  0  0
  -31.3983   19.3977  -17.2898 N   0  0  0  0  0  0  0  0  0  0  0  0
  1  2  2  0  0  0  0
  1  6  1  0  0  0  0
  2  3  1  0  0  0  0
  3  4  2  0  0  0  0
  4  5  1  0  0  0  0
  4 10  1  0  0  0  0
  5  6  2  0  0  0  0
  5  8  1  0  0  0  0
  6  7  1  0  0  0  0
  8  9  1  0  0  0  0
  9 10  2  0  0  0  0
M  END
>  <CHROM.1>
-30.43082468,17.77400051,-16.27038238,1.15834179,-0.83818830,1.98546495

>  <Name>
ligand

>  <RI>
0

>  <Rbt.Current_Directory>
/home/itssahil/PROJECTS/Mol_Feturizer/New_Systems/rnas/4TZY

>  <Rbt.Executable>
rbdock ($Id: //depot/dev/client3/rdock/2013.1/src/exe/rbdock.cxx#4 $)

>  <Rbt.Library>
libRbt.so (2013.1, Build901 2013/11/27)

>  <Rbt.Parameter_File>
/export/apps/rDock/src/rDock_2013.1_src/data/scripts/dock_solv.prm

>  <Rbt.Receptor>
prm/blind_docking_60.prm

>  <SCORE>
-14.3321

>  <SCORE.INTER>
-14.3325

>  <SCORE.INTER.CONST>
1

>  <SCORE.INTER.POLAR>
0

>  <SCORE.INTER.ROT>
0

>  <SCORE.INTER.SOLV>
8.21752

>  <SCORE.INTER.VDW>
-15.8942

>  <SCORE.INTER.norm>
-1.43325

>  <SCORE.INTRA>
0

>  <SCORE.INTRA.DIHEDRAL>
0

>  <SCORE.INTRA.DIHEDRAL.0>
0

>  <SCORE.INTRA.POLAR>
0

>  <SCORE.INTRA.POLAR.0>
0

>  <SCORE.INTRA.REPUL>
0

>  <SCORE.INTRA.REPUL.0>
0

>  <SCORE.INTRA.SOLV>
0

>  <SCORE.INTRA.SOLV.lig_0>
-23.8941

>  <SCORE.INTRA.VDW>
0

>  <SCORE.INTRA.VDW.0>
0

>  <SCORE.INTRA.norm>
0

>  <SCORE.RESTR>
0.000452842

>  <SCORE.RESTR.CAVITY>
0.000452842

>  <SCORE.RESTR.norm>
4.52842e-05

>  <SCORE.SYSTEM>
0

>  <SCORE.SYSTEM.CONST>
0

>  <SCORE.SYSTEM.DIHEDRAL>
0

>  <SCORE.SYSTEM.SOLV>
0

>  <SCORE.SYSTEM.norm>
0

>  <SCORE.heavy>
10

>  <SCORE.norm>
-1.43321

>  <RMSD>
0.498

$$$$
ligand
 OpenBabel11021811513D
libRbt.so/2013.1/901 2013/11/27
 10 11  0  0  0  0  0  0  0  0999 V2000
  -30.0639   16.6540  -14.6588 N   0  0  0  0  0  0  0  0  0  0  0  0
  -30.9742   17.5649  -14.2926 C   0  0  0  0  0  0  0  0  0  0  0  0
  -31.5381   18.5255  -15.0228 N   0  0  0  0  0  0  0  0  0  0  0  0
  -31.0718   18.5040  -16.2811 C   0  0  0  0  0  0  0  0  0  0  0  0
  -30.1368   17.6325  -16.8045 C   0  0  0  0  0  0  0  0  0  0  0  0
  -29.6148   16.6582  -15.9304 C   0  0  0  0  0  0  0  0  0  0  0  0
  -28.7049   15.7498  -16.2992 N   0  0  0  0  0  0  0  0  0  0  0  0
  -29.9001   17.9098  -18.1402 N   0  0  0  0  0  0  0  0  0  0  0  0
  -30.6853   18.9310  -18.3928 C   0  0  0  0  0  0  0  0  0  0  0  0
  -31.4207   19.3419  -17.3161 N   0  0  0  0  0  0  0  0  0  0  0  0
  1  2  2  0  0  0  0
  1  6  1  0  0  0  0
  2  3  1  0  0  0  0
  3  4  2  0  0  0  0
  4  5  1  0  0  0  0
  4 10  1  0  0  0  0
  5  6  2  0  0  0  0
  5  8  1  0  0  0  0
  6  7  1  0  0  0  0
  8  9  1  0  0  0  0
  9 10  2  0  0  0  0
M  END
>  <CHROM.1>
-30.40450493,17.73866184,-16.31183371,1.12804117,-0.82272578,1.96466419

>  <Name>
ligand

>  <RI>
0

>  <Rbt.Current_Directory>
/home/itssahil/PROJECTS/Mol_Feturizer/New_Systems/rnas/4TZY

>  <Rbt.Executable>
rbdock ($Id: //depot/dev/client3/rdock/2013.1/src/exe/rbdock.cxx#4 $)

>  <Rbt.Library>
libRbt.so (2013.1, Build901 2013/11/27)

>  <Rbt.Parameter_File>
/export/apps/rDock/src/rDock_2013.1_src/data/scripts/dock_solv.prm

>  <Rbt.Receptor>
prm/pocket_docking_6.prm

>  <SCORE>
-14.3417

>  <SCORE.INTER>
-14.3417

>  <SCORE.INTER.CONST>
1

>  <SCORE.INTER.POLAR>
0

>  <SCORE.INTER.ROT>
0

>  <SCORE.INTER.SOLV>
8.17882

>  <SCORE.INTER.VDW>
-15.8874

>  <SCORE.INTER.norm>
-1.43417

>  <SCORE.INTRA>
0

>  <SCORE.INTRA.DIHEDRAL>
0

>  <SCORE.INTRA.DIHEDRAL.0>
0

>  <SCORE.INTRA.POLAR>
0

>  <SCORE.INTRA.POLAR.0>
0

>  <SCORE.INTRA.REPUL>
0

>  <SCORE.INTRA.REPUL.0>
0

>  <SCORE.INTRA.SOLV>
0

>  <SCORE.INTRA.SOLV.lig_0>
-23.8941

>  <SCORE.INTRA.VDW>
0

>  <SCORE.INTRA.VDW.0>
0

>  <SCORE.INTRA.norm>
0

>  <SCORE.RESTR>
0

>  <SCORE.RESTR.CAVITY>
0

>  <SCORE.RESTR.norm>
0

>  <SCORE.SYSTEM>
0

>  <SCORE.SYSTEM.CONST>
0

>  <SCORE.SYSTEM.DIHEDRAL>
0

>  <SCORE.SYSTEM.SOLV>
0

>  <SCORE.SYSTEM.norm>
0

>  <SCORE.heavy>
10

>  <SCORE.norm>
-1.43417

>  <RMSD>
0.498

$$$$
ligand
 OpenBabel11021811513D
libRbt.so/2013.1/901 2013/11/27
 10 11  0  0  0  0  0  0  0  0999 V2000
  -30.1387   16.6632  -14.6174 N   0  0  0  0  0  0  0  0  0  0  0  0
  -31.0228   17.6006  -14.2540 C   0  0  0  0  0  0  0  0  0  0  0  0
  -31.5480   18.5838  -14.9831 N   0  0  0  0  0  0  0  0  0  0  0  0
  -31.0700   18.5555  -16.2369 C   0  0  0  0  0  0  0  0  0  0  0  0
  -30.1584   17.6576  -16.7569 C   0  0  0  0  0  0  0  0  0  0  0  0
  -29.6770   16.6612  -15.8845 C   0  0  0  0  0  0  0  0  0  0  0  0
  -28.7932   15.7263  -16.2505 N   0  0  0  0  0  0  0  0  0  0  0  0
  -29.8994   17.9358  -18.0884 N   0  0  0  0  0  0  0  0  0  0  0  0
  -30.6486   18.9835  -18.3416 C   0  0  0  0  0  0  0  0  0  0  0  0
  -31.3812   19.4109  -17.2695 N   0  0  0  0  0  0  0  0  0  0  0  0
  1  2  2  0  0  0  0
  1  6  1  0  0  0  0
  2  3  1  0  0  0  0
  3  4  2  0  0  0  0
  4  5  1  0  0  0  0
  4 10  1  0  0  0  0
  5  6  2  0  0  0  0
  5  8  1  0  0  0  0
  6  7  1  0  0  0  0
  8  9  1  0  0  0  0
  9 10  2  0  0  0  0
M  END
>  <CHROM.1>
-30.42747440,17.76910047,-16.26623858,1.16087180,-0.84841885,1.99571425

>  <Name>
ligand

>  <RI>
0

>  <Rbt.Current_Directory>
/home/itssahil/PROJECTS/Mol_Feturizer/New_Systems/rnas/4TZY

>  <Rbt.Executable>
rbdock ($Id: //depot/dev/client3/rdock/2013.1/src/exe/rbdock.cxx#4 $)

>  <Rbt.Library>
libRbt.so (2013.1, Build901 2013/11/27)

>  <Rbt.Parameter_File>
/export/apps/rDock/src/rDock_2013.1_src/data/scripts/dock_solv.prm

>  <Rbt.Receptor>
prm/pocket_docking_7.prm

>  <SCORE>
-14.3283

>  <SCORE.INTER>
-14.3289

>  <SCORE.INTER.CONST>
1

>  <SCORE.INTER.POLAR>
0

>  <SCORE.INTER.ROT>
0

>  <SCORE.INTER.SOLV>
8.33531

>  <SCORE.INTER.VDW>
-15.931

>  <SCORE.INTER.norm>
-1.43289

>  <SCORE.INTRA>
0

>  <SCORE.INTRA.DIHEDRAL>
0

>  <SCORE.INTRA.DIHEDRAL.0>
0

>  <SCORE.INTRA.POLAR>
0

>  <SCORE.INTRA.POLAR.0>
0

>  <SCORE.INTRA.REPUL>
0

>  <SCORE.INTRA.REPUL.0>
0

>  <SCORE.INTRA.SOLV>
0

>  <SCORE.INTRA.SOLV.lig_0>
-23.8941

>  <SCORE.INTRA.VDW>
0

>  <SCORE.INTRA.VDW.0>
0

>  <SCORE.INTRA.norm>
0

>  <SCORE.RESTR>
0.000626746

>  <SCORE.RESTR.CAVITY>
0.000626746

>  <SCORE.RESTR.norm>
6.26746e-05

>  <SCORE.SYSTEM>
0

>  <SCORE.SYSTEM.CONST>
0

>  <SCORE.SYSTEM.DIHEDRAL>
0

>  <SCORE.SYSTEM.SOLV>
0

>  <SCORE.SYSTEM.norm>
0

>  <SCORE.heavy>
10

>  <SCORE.norm>
-1.43283

>  <RMSD>
0.502

$$$$
ligand
 OpenBabel11021811513D
libRbt.so/2013.1/901 2013/11/27
 10 11  0  0  0  0  0  0  0  0999 V2000
  -30.1645   16.6466  -14.6821 N   0  0  0  0  0  0  0  0  0  0  0  0
  -31.0466   17.5889  -14.3267 C   0  0  0  0  0  0  0  0  0  0  0  0
  -31.5635   18.5719  -15.0619 N   0  0  0  0  0  0  0  0  0  0  0  0
  -31.0786   18.5375  -16.3129 C   0  0  0  0  0  0  0  0  0  0  0  0
  -30.1679   17.6341  -16.8249 C   0  0  0  0  0  0  0  0  0  0  0  0
  -29.6956   16.6386  -15.9465 C   0  0  0  0  0  0  0  0  0  0  0  0
  -28.8138   15.6988  -16.3045 N   0  0  0  0  0  0  0  0  0  0  0  0
  -29.9002   17.9069  -18.1557 N   0  0  0  0  0  0  0  0  0  0  0  0
  -30.6436   18.9570  -18.4166 C   0  0  0  0  0  0  0  0  0  0  0  0
  -31.3804   19.3909  -17.3500 N   0  0  0  0  0  0  0  0  0  0  0  0
  1  2  2  0  0  0  0
  1  6  1  0  0  0  0
  2  3  1  0  0  0  0
  3  4  2  0  0  0  0
  4  5  1  0  0  0  0
  4 10  1  0  0  0  0
  5  6  2  0  0  0  0
  5  8  1  0  0  0  0
  6  7  1  0  0  0  0
  8  9  1  0  0  0  0
  9 10  2  0  0  0  0
M  END
>  <CHROM.1>
-30.43925191,17.74836742,-16.33606607,1.17129947,-0.84992139,2.00032106

>  <Name>
ligand

>  <RI>
0

>  <Rbt.Current_Directory>
/home/itssahil/PROJECTS/Mol_Feturizer/New_Systems/rnas/4TZY

>  <Rbt.Executable>
rbdock ($Id: //depot/dev/client3/rdock/2013.1/src/exe/rbdock.cxx#4 $)

>  <Rbt.Library>
libRbt.so (2013.1, Build901 2013/11/27)

>  <Rbt.Parameter_File>
/export/apps/rDock/src/rDock_2013.1_src/data/scripts/dock_solv.prm

>  <Rbt.Receptor>
prm/pocket_docking_5.prm

>  <SCORE>
-14.3374

>  <SCORE.INTER>
-14.3374

>  <SCORE.INTER.CONST>
1

>  <SCORE.INTER.POLAR>
0

>  <SCORE.INTER.ROT>
0

>  <SCORE.INTER.SOLV>
8.51539

>  <SCORE.INTER.VDW>
-15.9967

>  <SCORE.INTER.norm>
-1.43374

>  <SCORE.INTRA>
0

>  <SCORE.INTRA.DIHEDRAL>
0

>  <SCORE.INTRA.DIHEDRAL.0>
0

>  <SCORE.INTRA.POLAR>
0

>  <SCORE.INTRA.POLAR.0>
0

>  <SCORE.INTRA.REPUL>
0

>  <SCORE.INTRA.REPUL.0>
0

>  <SCORE.INTRA.SOLV>
0

>  <SCORE.INTRA.SOLV.lig_0>
-23.8941

>  <SCORE.INTRA.VDW>
0

>  <SCORE.INTRA.VDW.0>
0

>  <SCORE.INTRA.norm>
0

>  <SCORE.RESTR>
0

>  <SCORE.RESTR.CAVITY>
0

>  <SCORE.RESTR.norm>
0

>  <SCORE.SYSTEM>
0

>  <SCORE.SYSTEM.CONST>
0

>  <SCORE.SYSTEM.DIHEDRAL>
0

>  <SCORE.SYSTEM.SOLV>
0

>  <SCORE.SYSTEM.norm>
0

>  <SCORE.heavy>
10

>  <SCORE.norm>
-1.43374

>  <RMSD>
0.503

$$$$
ligand
 OpenBabel11021811513D
libRbt.so/2013.1/901 2013/11/27
 10 11  0  0  0  0  0  0  0  0999 V2000
  -29.8516   16.8309  -14.5325 N   0  0  0  0  0  0  0  0  0  0  0  0
  -30.8535   17.6542  -14.1998 C   0  0  0  0  0  0  0  0  0  0  0  0
  -31.5381   18.4951  -14.9732 N   0  0  0  0  0  0  0  0  0  0  0  0
  -31.0966   18.4452  -16.2396 C   0  0  0  0  0  0  0  0  0  0  0  0
  -30.0778   17.6535  -16.7322 C   0  0  0  0  0  0  0  0  0  0  0  0
  -29.4304   16.8036  -15.8134 C   0  0  0  0  0  0  0  0  0  0  0  0
  -28.4293   15.9825  -16.1489 N   0  0  0  0  0  0  0  0  0  0  0  0
  -29.9001   17.8687  -18.0885 N   0  0  0  0  0  0  0  0  0  0  0  0
  -30.8024   18.7755  -18.3832 C   0  0  0  0  0  0  0  0  0  0  0  0
  -31.5595   19.1691  -17.3151 N   0  0  0  0  0  0  0  0  0  0  0  0
  1  2  2  0  0  0  0
  1  6  1  0  0  0  0
  2  3  1  0  0  0  0
  3  4  2  0  0  0  0
  4  5  1  0  0  0  0
  4 10  1  0  0  0  0
  5  6  2  0  0  0  0
  5  8  1  0  0  0  0
  6  7  1  0  0  0  0
  8  9  1  0  0  0  0
  9 10  2  0  0  0  0
M  END
>  <CHROM.1>
-30.34638977,17.76025934,-16.24026976,1.04553064,-0.72176223,1.84319781

>  <Name>
ligand

>  <RI>
0

>  <Rbt.Current_Directory>
/home/itssahil/PROJECTS/Mol_Feturizer/New_Systems/rnas/4TZY

>  <Rbt.Executable>
rbdock ($Id: //depot/dev/client3/rdock/2013.1/src/exe/rbdock.cxx#4 $)

>  <Rbt.Library>
libRbt.so (2013.1, Build901 2013/11/27)

>  <Rbt.Parameter_File>
/export/apps/rDock/src/rDock_2013.1_src/data/scripts/dock_solv.prm

>  <Rbt.Receptor>
prm/pocket_docking_5.prm

>  <SCORE>
-14.3478

>  <SCORE.INTER>
-14.3478

>  <SCORE.INTER.CONST>
1

>  <SCORE.INTER.POLAR>
0

>  <SCORE.INTER.ROT>
0

>  <SCORE.INTER.SOLV>
7.11381

>  <SCORE.INTER.VDW>
-15.5365

>  <SCORE.INTER.norm>
-1.43478

>  <SCORE.INTRA>
0

>  <SCORE.INTRA.DIHEDRAL>
0

>  <SCORE.INTRA.DIHEDRAL.0>
0

>  <SCORE.INTRA.POLAR>
0

>  <SCORE.INTRA.POLAR.0>
0

>  <SCORE.INTRA.REPUL>
0

>  <SCORE.INTRA.REPUL.0>
0

>  <SCORE.INTRA.SOLV>
0

>  <SCORE.INTRA.SOLV.lig_0>
-23.8941

>  <SCORE.INTRA.VDW>
0

>  <SCORE.INTRA.VDW.0>
0

>  <SCORE.INTRA.norm>
0

>  <SCORE.RESTR>
0

>  <SCORE.RESTR.CAVITY>
0

>  <SCORE.RESTR.norm>
0

>  <SCORE.SYSTEM>
0

>  <SCORE.SYSTEM.CONST>
0

>  <SCORE.SYSTEM.DIHEDRAL>
0

>  <SCORE.SYSTEM.SOLV>
0

>  <SCORE.SYSTEM.norm>
0

>  <SCORE.heavy>
10

>  <SCORE.norm>
-1.43478

>  <RMSD>
0.505

$$$$
ligand
 OpenBabel11021811513D
libRbt.so/2013.1/901 2013/11/27
 10 11  0  0  0  0  0  0  0  0999 V2000
  -29.8447   16.8315  -14.5318 N   0  0  0  0  0  0  0  0  0  0  0  0
  -30.8438   17.6572  -14.1964 C   0  0  0  0  0  0  0  0  0  0  0  0
  -31.5284   18.4998  -14.9680 N   0  0  0  0  0  0  0  0  0  0  0  0
  -31.0903   18.4488  -16.2356 C   0  0  0  0  0  0  0  0  0  0  0  0
  -30.0746   17.6547  -16.7309 C   0  0  0  0  0  0  0  0  0  0  0  0
  -29.4269   16.8032  -15.8137 C   0  0  0  0  0  0  0  0  0  0  0  0
  -28.4286   15.9798  -16.1518 N   0  0  0  0  0  0  0  0  0  0  0  0
  -29.9000   17.8695  -18.0876 N   0  0  0  0  0  0  0  0  0  0  0  0
  -30.8008   18.7784  -18.3800 C   0  0  0  0  0  0  0  0  0  0  0  0
  -31.5542   19.1738  -17.3100 N   0  0  0  0  0  0  0  0  0  0  0  0
  1  2  2  0  0  0  0
  1  6  1  0  0  0  0
  2  3  1  0  0  0  0
  3  4  2  0  0  0  0
  4  5  1  0  0  0  0
  4 10  1  0  0  0  0
  5  6  2  0  0  0  0
  5  8  1  0  0  0  0
  6  7  1  0  0  0  0
  8  9  1  0  0  0  0
  9 10  2  0  0  0  0
M  END
>  <CHROM.1>
-30.34172379,17.76209537,-16.23822740,1.04306366,-0.72474432,1.84156357

>  <Name>
ligand

>  <RI>
0

>  <Rbt.Current_Directory>
/home/itssahil/PROJECTS/Mol_Feturizer/New_Systems/rnas/4TZY

>  <Rbt.Executable>
rbdock ($Id: //depot/dev/client3/rdock/2013.1/src/exe/rbdock.cxx#4 $)

>  <Rbt.Library>
libRbt.so (2013.1, Build901 2013/11/27)

>  <Rbt.Parameter_File>
/export/apps/rDock/src/rDock_2013.1_src/data/scripts/dock_solv.prm

>  <Rbt.Receptor>
prm/pocket_docking_5.prm

>  <SCORE>
-14.3502

>  <SCORE.INTER>
-14.3502

>  <SCORE.INTER.CONST>
1

>  <SCORE.INTER.POLAR>
0

>  <SCORE.INTER.ROT>
0

>  <SCORE.INTER.SOLV>
7.11902

>  <SCORE.INTER.VDW>
-15.5398

>  <SCORE.INTER.norm>
-1.43502

>  <SCORE.INTRA>
0

>  <SCORE.INTRA.DIHEDRAL>
0

>  <SCORE.INTRA.DIHEDRAL.0>
0

>  <SCORE.INTRA.POLAR>
0

>  <SCORE.INTRA.POLAR.0>
0

>  <SCORE.INTRA.REPUL>
0

>  <SCORE.INTRA.REPUL.0>
0

>  <SCORE.INTRA.SOLV>
0

>  <SCORE.INTRA.SOLV.lig_0>
-23.8941

>  <SCORE.INTRA.VDW>
0

>  <SCORE.INTRA.VDW.0>
0

>  <SCORE.INTRA.norm>
0

>  <SCORE.RESTR>
5.74436e-07

>  <SCORE.RESTR.CAVITY>
5.74436e-07

>  <SCORE.RESTR.norm>
5.74436e-08

>  <SCORE.SYSTEM>
0

>  <SCORE.SYSTEM.CONST>
0

>  <SCORE.SYSTEM.DIHEDRAL>
0

>  <SCORE.SYSTEM.SOLV>
0

>  <SCORE.SYSTEM.norm>
0

>  <SCORE.heavy>
10

>  <SCORE.norm>
-1.43502

>  <RMSD>
0.505

$$$$
ligand
 OpenBabel11021811513D
libRbt.so/2013.1/901 2013/11/27
 10 11  0  0  0  0  0  0  0  0999 V2000
  -29.8479   16.8355  -14.5349 N   0  0  0  0  0  0  0  0  0  0  0  0
  -30.8444   17.6643  -14.1994 C   0  0  0  0  0  0  0  0  0  0  0  0
  -31.5263   18.5092  -14.9709 N   0  0  0  0  0  0  0  0  0  0  0  0
  -31.0883   18.4571  -16.2385 C   0  0  0  0  0  0  0  0  0  0  0  0
  -30.0752   17.6599  -16.7339 C   0  0  0  0  0  0  0  0  0  0  0  0
  -29.4302   16.8062  -15.8168 C   0  0  0  0  0  0  0  0  0  0  0  0
  -28.4345   15.9796  -16.1551 N   0  0  0  0  0  0  0  0  0  0  0  0
  -29.8998   17.8743  -18.0905 N   0  0  0  0  0  0  0  0  0  0  0  0
  -30.7977   18.7862  -18.3828 C   0  0  0  0  0  0  0  0  0  0  0  0
  -31.5499   19.1838  -17.3127 N   0  0  0  0  0  0  0  0  0  0  0  0
  1  2  2  0  0  0  0
  1  6  1  0  0  0  0
  2  3  1  0  0  0  0
  3  4  2  0  0  0  0
  4  5  1  0  0  0  0
  4 10  1  0  0  0  0
  5  6  2  0  0  0  0
  5  8  1  0  0  0  0
  6  7  1  0  0  0  0
  8  9  1  0  0  0  0
  9 10  2  0  0  0  0
M  END
>  <CHROM.1>
-30.34192055,17.76800501,-16.24118526,1.04424883,-0.72779977,1.84254971

>  <Name>
ligand

>  <RI>
0

>  <Rbt.Current_Directory>
/home/itssahil/PROJECTS/Mol_Feturizer/New_Systems/rnas/4TZY

>  <Rbt.Executable>
rbdock ($Id: //depot/dev/client3/rdock/2013.1/src/exe/rbdock.cxx#4 $)

>  <Rbt.Library>
libRbt.so (2013.1, Build901 2013/11/27)

>  <Rbt.Parameter_File>
/export/apps/rDock/src/rDock_2013.1_src/data/scripts/dock_solv.prm

>  <Rbt.Receptor>
prm/pocket_docking_4.prm

>  <SCORE>
-14.3509

>  <SCORE.INTER>
-14.3511

>  <SCORE.INTER.CONST>
1

>  <SCORE.INTER.POLAR>
0

>  <SCORE.INTER.ROT>
0

>  <SCORE.INTER.SOLV>
7.13475

>  <SCORE.INTER.VDW>
-15.5456

>  <SCORE.INTER.norm>
-1.43511

>  <SCORE.INTRA>
0

>  <SCORE.INTRA.DIHEDRAL>
0

>  <SCORE.INTRA.DIHEDRAL.0>
0

>  <SCORE.INTRA.POLAR>
0

>  <SCORE.INTRA.POLAR.0>
0

>  <SCORE.INTRA.REPUL>
0

>  <SCORE.INTRA.REPUL.0>
0

>  <SCORE.INTRA.SOLV>
0

>  <SCORE.INTRA.SOLV.lig_0>
-23.8941

>  <SCORE.INTRA.VDW>
0

>  <SCORE.INTRA.VDW.0>
0

>  <SCORE.INTRA.norm>
0

>  <SCORE.RESTR>
0.000208453

>  <SCORE.RESTR.CAVITY>
0.000208453

>  <SCORE.RESTR.norm>
2.08453e-05

>  <SCORE.SYSTEM>
0

>  <SCORE.SYSTEM.CONST>
0

>  <SCORE.SYSTEM.DIHEDRAL>
0

>  <SCORE.SYSTEM.SOLV>
0

>  <SCORE.SYSTEM.norm>
0

>  <SCORE.heavy>
10

>  <SCORE.norm>
-1.43509

>  <RMSD>
0.506

$$$$
ligand
 OpenBabel11021811513D
libRbt.so/2013.1/901 2013/11/27
 10 11  0  0  0  0  0  0  0  0999 V2000
  -30.1950   16.6548  -14.6533 N   0  0  0  0  0  0  0  0  0  0  0  0
  -31.1136   17.5684  -14.3158 C   0  0  0  0  0  0  0  0  0  0  0  0
  -31.6458   18.5355  -15.0611 N   0  0  0  0  0  0  0  0  0  0  0  0
  -31.1340   18.5179  -16.3017 C   0  0  0  0  0  0  0  0  0  0  0  0
  -30.1849   17.6443  -16.7951 C   0  0  0  0  0  0  0  0  0  0  0  0
  -29.6999   16.6630  -15.9077 C   0  0  0  0  0  0  0  0  0  0  0  0
  -28.7816   15.7518  -16.2477 N   0  0  0  0  0  0  0  0  0  0  0  0
  -29.8982   17.9270  -18.1200 N   0  0  0  0  0  0  0  0  0  0  0  0
  -30.6687   18.9534  -18.3957 C   0  0  0  0  0  0  0  0  0  0  0  0
  -31.4409   19.3627  -17.3444 N   0  0  0  0  0  0  0  0  0  0  0  0
  1  2  2  0  0  0  0
  1  6  1  0  0  0  0
  2  3  1  0  0  0  0
  3  4  2  0  0  0  0
  4  5  1  0  0  0  0
  4 10  1  0  0  0  0
  5  6  2  0  0  0  0
  5  8  1  0  0  0  0
  6  7  1  0  0  0  0
  8  9  1  0  0  0  0
  9 10  2  0  0  0  0
M  END
>  <CHROM.1>
-30.46980703,17.74932516,-16.31204536,1.17977866,-0.81259165,2.00746597

>  <Name>
ligand

>  <RI>
0

>  <Rbt.Current_Directory>
/home/itssahil/PROJECTS/Mol_Feturizer/New_Systems/rnas/4TZY

>  <Rbt.Executable>
rbdock ($Id: //depot/dev/client3/rdock/2013.1/src/exe/rbdock.cxx#4 $)

>  <Rbt.Library>
libRbt.so (2013.1, Build901 2013/11/27)

>  <Rbt.Parameter_File>
/export/apps/rDock/src/rDock_2013.1_src/data/scripts/dock_solv.prm

>  <Rbt.Receptor>
prm/pocket_docking_7.prm

>  <SCORE>
-14.3366

>  <SCORE.INTER>
-14.3384

>  <SCORE.INTER.CONST>
1

>  <SCORE.INTER.POLAR>
0

>  <SCORE.INTER.ROT>
0

>  <SCORE.INTER.SOLV>
8.24143

>  <SCORE.INTER.VDW>
-15.906

>  <SCORE.INTER.norm>
-1.43384

>  <SCORE.INTRA>
0

>  <SCORE.INTRA.DIHEDRAL>
0

>  <SCORE.INTRA.DIHEDRAL.0>
0

>  <SCORE.INTRA.POLAR>
0

>  <SCORE.INTRA.POLAR.0>
0

>  <SCORE.INTRA.REPUL>
0

>  <SCORE.INTRA.REPUL.0>
0

>  <SCORE.INTRA.SOLV>
0

>  <SCORE.INTRA.SOLV.lig_0>
-23.8941

>  <SCORE.INTRA.VDW>
0

>  <SCORE.INTRA.VDW.0>
0

>  <SCORE.INTRA.norm>
0

>  <SCORE.RESTR>
0.00179796

>  <SCORE.RESTR.CAVITY>
0.00179796

>  <SCORE.RESTR.norm>
0.000179796

>  <SCORE.SYSTEM>
0

>  <SCORE.SYSTEM.CONST>
0

>  <SCORE.SYSTEM.DIHEDRAL>
0

>  <SCORE.SYSTEM.SOLV>
0

>  <SCORE.SYSTEM.norm>
0

>  <SCORE.heavy>
10

>  <SCORE.norm>
-1.43366

>  <RMSD>
0.508

$$$$
ligand
 OpenBabel11021811513D
libRbt.so/2013.1/901 2013/11/27
 10 11  0  0  0  0  0  0  0  0999 V2000
  -29.8836   16.8372  -14.5726 N   0  0  0  0  0  0  0  0  0  0  0  0
  -30.8696   17.6792  -14.2390 C   0  0  0  0  0  0  0  0  0  0  0  0
  -31.5346   18.5375  -15.0105 N   0  0  0  0  0  0  0  0  0  0  0  0
  -31.0904   18.4844  -16.2758 C   0  0  0  0  0  0  0  0  0  0  0  0
  -30.0864   17.6743  -16.7692 C   0  0  0  0  0  0  0  0  0  0  0  0
  -29.4593   16.8072  -15.8524 C   0  0  0  0  0  0  0  0  0  0  0  0
  -28.4740   15.9674  -16.1888 N   0  0  0  0  0  0  0  0  0  0  0  0
  -29.9004   17.8920  -18.1239 N   0  0  0  0  0  0  0  0  0  0  0  0
  -30.7831   18.8184  -18.4170 C   0  0  0  0  0  0  0  0  0  0  0  0
  -31.5352   19.2224  -17.3494 N   0  0  0  0  0  0  0  0  0  0  0  0
  1  2  2  0  0  0  0
  1  6  1  0  0  0  0
  2  3  1  0  0  0  0
  3  4  2  0  0  0  0
  4  5  1  0  0  0  0
  4 10  1  0  0  0  0
  5  6  2  0  0  0  0
  5  8  1  0  0  0  0
  6  7  1  0  0  0  0
  8  9  1  0  0  0  0
  9 10  2  0  0  0  0
M  END
>  <CHROM.1>
-30.35428056,17.78427704,-16.27748476,1.05687506,-0.74052057,1.85537404

>  <Name>
ligand

>  <RI>
0

>  <Rbt.Current_Directory>
/home/itssahil/PROJECTS/Mol_Feturizer/New_Systems/rnas/4TZY

>  <Rbt.Executable>
rbdock ($Id: //depot/dev/client3/rdock/2013.1/src/exe/rbdock.cxx#4 $)

>  <Rbt.Library>
libRbt.so (2013.1, Build901 2013/11/27)

>  <Rbt.Parameter_File>
/export/apps/rDock/src/rDock_2013.1_src/data/scripts/dock_solv.prm

>  <Rbt.Receptor>
prm/blind_docking_80.prm

>  <SCORE>
-14.3292

>  <SCORE.INTER>
-14.3292

>  <SCORE.INTER.CONST>
1

>  <SCORE.INTER.POLAR>
0

>  <SCORE.INTER.ROT>
0

>  <SCORE.INTER.SOLV>
7.28681

>  <SCORE.INTER.VDW>
-15.5818

>  <SCORE.INTER.norm>
-1.43292

>  <SCORE.INTRA>
0

>  <SCORE.INTRA.DIHEDRAL>
0

>  <SCORE.INTRA.DIHEDRAL.0>
0

>  <SCORE.INTRA.POLAR>
0

>  <SCORE.INTRA.POLAR.0>
0

>  <SCORE.INTRA.REPUL>
0

>  <SCORE.INTRA.REPUL.0>
0

>  <SCORE.INTRA.SOLV>
0

>  <SCORE.INTRA.SOLV.lig_0>
-23.8941

>  <SCORE.INTRA.VDW>
0

>  <SCORE.INTRA.VDW.0>
0

>  <SCORE.INTRA.norm>
0

>  <SCORE.RESTR>
0

>  <SCORE.RESTR.CAVITY>
0

>  <SCORE.RESTR.norm>
0

>  <SCORE.SYSTEM>
0

>  <SCORE.SYSTEM.CONST>
0

>  <SCORE.SYSTEM.DIHEDRAL>
0

>  <SCORE.SYSTEM.SOLV>
0

>  <SCORE.SYSTEM.norm>
0

>  <SCORE.heavy>
10

>  <SCORE.norm>
-1.43292

>  <RMSD>
0.511

$$$$
ligand
 OpenBabel11021811513D
libRbt.so/2013.1/901 2013/11/27
 10 11  0  0  0  0  0  0  0  0999 V2000
  -30.0564   16.7222  -14.6627 N   0  0  0  0  0  0  0  0  0  0  0  0
  -30.9769   17.6285  -14.3111 C   0  0  0  0  0  0  0  0  0  0  0  0
  -31.5499   18.5724  -15.0560 N   0  0  0  0  0  0  0  0  0  0  0  0
  -31.0813   18.5376  -16.3132 C   0  0  0  0  0  0  0  0  0  0  0  0
  -30.1363   17.6686  -16.8225 C   0  0  0  0  0  0  0  0  0  0  0  0
  -29.6053   16.7128  -15.9336 C   0  0  0  0  0  0  0  0  0  0  0  0
  -28.6852   15.8089  -16.2878 N   0  0  0  0  0  0  0  0  0  0  0  0
  -29.9003   17.9290  -18.1618 N   0  0  0  0  0  0  0  0  0  0  0  0
  -30.6960   18.9379  -18.4303 C   0  0  0  0  0  0  0  0  0  0  0  0
  -31.4375   19.3565  -17.3608 N   0  0  0  0  0  0  0  0  0  0  0  0
  1  2  2  0  0  0  0
  1  6  1  0  0  0  0
  2  3  1  0  0  0  0
  3  4  2  0  0  0  0
  4  5  1  0  0  0  0
  4 10  1  0  0  0  0
  5  6  2  0  0  0  0
  5  8  1  0  0  0  0
  6  7  1  0  0  0  0
  8  9  1  0  0  0  0
  9 10  2  0  0  0  0
M  END
>  <CHROM.1>
-30.40587153,17.77902869,-16.33182161,1.12425538,-0.81225318,1.94735373

>  <Name>
ligand

>  <RI>
0

>  <Rbt.Current_Directory>
/home/itssahil/PROJECTS/Mol_Feturizer/New_Systems/rnas/4TZY

>  <Rbt.Executable>
rbdock ($Id: //depot/dev/client3/rdock/2013.1/src/exe/rbdock.cxx#4 $)

>  <Rbt.Library>
libRbt.so (2013.1, Build901 2013/11/27)

>  <Rbt.Parameter_File>
/export/apps/rDock/src/rDock_2013.1_src/data/scripts/dock_solv.prm

>  <Rbt.Receptor>
prm/pocket_docking_5.prm

>  <SCORE>
-14.3616

>  <SCORE.INTER>
-14.3616

>  <SCORE.INTER.CONST>
1

>  <SCORE.INTER.POLAR>
0

>  <SCORE.INTER.ROT>
0

>  <SCORE.INTER.SOLV>
8.02065

>  <SCORE.INTER.VDW>
-15.8479

>  <SCORE.INTER.norm>
-1.43616

>  <SCORE.INTRA>
0

>  <SCORE.INTRA.DIHEDRAL>
0

>  <SCORE.INTRA.DIHEDRAL.0>
0

>  <SCORE.INTRA.POLAR>
0

>  <SCORE.INTRA.POLAR.0>
0

>  <SCORE.INTRA.REPUL>
0

>  <SCORE.INTRA.REPUL.0>
0

>  <SCORE.INTRA.SOLV>
0

>  <SCORE.INTRA.SOLV.lig_0>
-23.8941

>  <SCORE.INTRA.VDW>
0

>  <SCORE.INTRA.VDW.0>
0

>  <SCORE.INTRA.norm>
0

>  <SCORE.RESTR>
0

>  <SCORE.RESTR.CAVITY>
0

>  <SCORE.RESTR.norm>
0

>  <SCORE.SYSTEM>
0

>  <SCORE.SYSTEM.CONST>
0

>  <SCORE.SYSTEM.DIHEDRAL>
0

>  <SCORE.SYSTEM.SOLV>
0

>  <SCORE.SYSTEM.norm>
0

>  <SCORE.heavy>
10

>  <SCORE.norm>
-1.43616

>  <RMSD>
0.511

$$$$
ligand
 OpenBabel11021811513D
libRbt.so/2013.1/901 2013/11/27
 10 11  0  0  0  0  0  0  0  0999 V2000
  -30.0971   16.6890  -14.6720 N   0  0  0  0  0  0  0  0  0  0  0  0
  -31.0158   17.5968  -14.3196 C   0  0  0  0  0  0  0  0  0  0  0  0
  -31.5759   18.5520  -15.0598 N   0  0  0  0  0  0  0  0  0  0  0  0
  -31.0953   18.5281  -16.3127 C   0  0  0  0  0  0  0  0  0  0  0  0
  -30.1504   17.6591  -16.8221 C   0  0  0  0  0  0  0  0  0  0  0  0
  -29.6336   16.6906  -15.9385 C   0  0  0  0  0  0  0  0  0  0  0  0
  -28.7153   15.7852  -16.2936 N   0  0  0  0  0  0  0  0  0  0  0  0
  -29.8998   17.9325  -18.1562 N   0  0  0  0  0  0  0  0  0  0  0  0
  -30.6870   18.9490  -18.4215 C   0  0  0  0  0  0  0  0  0  0  0  0
  -31.4365   19.3603  -17.3547 N   0  0  0  0  0  0  0  0  0  0  0  0
  1  2  2  0  0  0  0
  1  6  1  0  0  0  0
  2  3  1  0  0  0  0
  3  4  2  0  0  0  0
  4  5  1  0  0  0  0
  4 10  1  0  0  0  0
  5  6  2  0  0  0  0
  5  8  1  0  0  0  0
  6  7  1  0  0  0  0
  8  9  1  0  0  0  0
  9 10  2  0  0  0  0
M  END
>  <CHROM.1>
-30.42409853,17.76579450,-16.33294081,1.14060442,-0.81396765,1.97005910

>  <Name>
ligand

>  <RI>
0

>  <Rbt.Current_Directory>
/home/itssahil/PROJECTS/Mol_Feturizer/New_Systems/rnas/4TZY

>  <Rbt.Executable>
rbdock ($Id: //depot/dev/client3/rdock/2013.1/src/exe/rbdock.cxx#4 $)

>  <Rbt.Library>
libRbt.so (2013.1, Build901 2013/11/27)

>  <Rbt.Parameter_File>
/export/apps/rDock/src/rDock_2013.1_src/data/scripts/dock_solv.prm

>  <Rbt.Receptor>
prm/pocket_docking_6.prm

>  <SCORE>
-14.3473

>  <SCORE.INTER>
-14.3475

>  <SCORE.INTER.CONST>
1

>  <SCORE.INTER.POLAR>
0

>  <SCORE.INTER.ROT>
0

>  <SCORE.INTER.SOLV>
8.12315

>  <SCORE.INTER.VDW>
-15.8727

>  <SCORE.INTER.norm>
-1.43475

>  <SCORE.INTRA>
0

>  <SCORE.INTRA.DIHEDRAL>
0

>  <SCORE.INTRA.DIHEDRAL.0>
0

>  <SCORE.INTRA.POLAR>
0

>  <SCORE.INTRA.POLAR.0>
0

>  <SCORE.INTRA.REPUL>
0

>  <SCORE.INTRA.REPUL.0>
0

>  <SCORE.INTRA.SOLV>
0

>  <SCORE.INTRA.SOLV.lig_0>
-23.8941

>  <SCORE.INTRA.VDW>
0

>  <SCORE.INTRA.VDW.0>
0

>  <SCORE.INTRA.norm>
0

>  <SCORE.RESTR>
0.000162645

>  <SCORE.RESTR.CAVITY>
0.000162645

>  <SCORE.RESTR.norm>
1.62645e-05

>  <SCORE.SYSTEM>
0

>  <SCORE.SYSTEM.CONST>
0

>  <SCORE.SYSTEM.DIHEDRAL>
0

>  <SCORE.SYSTEM.SOLV>
0

>  <SCORE.SYSTEM.norm>
0

>  <SCORE.heavy>
10

>  <SCORE.norm>
-1.43473

>  <RMSD>
0.513

$$$$
ligand
 OpenBabel11021811513D
libRbt.so/2013.1/901 2013/11/27
 10 11  0  0  0  0  0  0  0  0999 V2000
  -30.0394   16.7484  -14.6485 N   0  0  0  0  0  0  0  0  0  0  0  0
  -30.9773   17.6398  -14.3050 C   0  0  0  0  0  0  0  0  0  0  0  0
  -31.5666   18.5673  -15.0576 N   0  0  0  0  0  0  0  0  0  0  0  0
  -31.0954   18.5322  -16.3138 C   0  0  0  0  0  0  0  0  0  0  0  0
  -30.1334   17.6774  -16.8153 C   0  0  0  0  0  0  0  0  0  0  0  0
  -29.5861   16.7381  -15.9186 C   0  0  0  0  0  0  0  0  0  0  0  0
  -28.6487   15.8491  -16.2648 N   0  0  0  0  0  0  0  0  0  0  0  0
  -29.9002   17.9324  -18.1561 N   0  0  0  0  0  0  0  0  0  0  0  0
  -30.7142   18.9243  -18.4332 C   0  0  0  0  0  0  0  0  0  0  0  0
  -31.4651   19.3367  -17.3679 N   0  0  0  0  0  0  0  0  0  0  0  0
  1  2  2  0  0  0  0
  1  6  1  0  0  0  0
  2  3  1  0  0  0  0
  3  4  2  0  0  0  0
  4  5  1  0  0  0  0
  4 10  1  0  0  0  0
  5  6  2  0  0  0  0
  5  8  1  0  0  0  0
  6  7  1  0  0  0  0
  8  9  1  0  0  0  0
  9 10  2  0  0  0  0
M  END
>  <CHROM.1>
-30.40584136,17.78629623,-16.32584093,1.11662561,-0.79422625,1.93458689

>  <Name>
ligand

>  <RI>
0

>  <Rbt.Current_Directory>
/home/itssahil/PROJECTS/Mol_Feturizer/New_Systems/rnas/4TZY

>  <Rbt.Executable>
rbdock ($Id: //depot/dev/client3/rdock/2013.1/src/exe/rbdock.cxx#4 $)

>  <Rbt.Library>
libRbt.so (2013.1, Build901 2013/11/27)

>  <Rbt.Parameter_File>
/export/apps/rDock/src/rDock_2013.1_src/data/scripts/dock_solv.prm

>  <Rbt.Receptor>
prm/pocket_docking_7.prm

>  <SCORE>
-14.3614

>  <SCORE.INTER>
-14.3614

>  <SCORE.INTER.CONST>
1

>  <SCORE.INTER.POLAR>
0

>  <SCORE.INTER.ROT>
0

>  <SCORE.INTER.SOLV>
7.85714

>  <SCORE.INTER.VDW>
-15.7933

>  <SCORE.INTER.norm>
-1.43614

>  <SCORE.INTRA>
0

>  <SCORE.INTRA.DIHEDRAL>
0

>  <SCORE.INTRA.DIHEDRAL.0>
0

>  <SCORE.INTRA.POLAR>
0

>  <SCORE.INTRA.POLAR.0>
0

>  <SCORE.INTRA.REPUL>
0

>  <SCORE.INTRA.REPUL.0>
0

>  <SCORE.INTRA.SOLV>
0

>  <SCORE.INTRA.SOLV.lig_0>
-23.8941

>  <SCORE.INTRA.VDW>
0

>  <SCORE.INTRA.VDW.0>
0

>  <SCORE.INTRA.norm>
0

>  <SCORE.RESTR>
0

>  <SCORE.RESTR.CAVITY>
0

>  <SCORE.RESTR.norm>
0

>  <SCORE.SYSTEM>
0

>  <SCORE.SYSTEM.CONST>
0

>  <SCORE.SYSTEM.DIHEDRAL>
0

>  <SCORE.SYSTEM.SOLV>
0

>  <SCORE.SYSTEM.norm>
0

>  <SCORE.heavy>
10

>  <SCORE.norm>
-1.43614

>  <RMSD>
0.513

$$$$
ligand
 OpenBabel11021811513D
libRbt.so/2013.1/901 2013/11/27
 10 11  0  0  0  0  0  0  0  0999 V2000
  -29.8700   16.8013  -14.5339 N   0  0  0  0  0  0  0  0  0  0  0  0
  -30.8773   17.6155  -14.1950 C   0  0  0  0  0  0  0  0  0  0  0  0
  -31.5604   18.4654  -14.9599 N   0  0  0  0  0  0  0  0  0  0  0  0
  -31.1108   18.4365  -16.2241 C   0  0  0  0  0  0  0  0  0  0  0  0
  -30.0857   17.6564  -16.7223 C   0  0  0  0  0  0  0  0  0  0  0  0
  -29.4407   16.7952  -15.8124 C   0  0  0  0  0  0  0  0  0  0  0  0
  -28.4341   15.9833  -16.1540 N   0  0  0  0  0  0  0  0  0  0  0  0
  -29.9005   17.8930  -18.0739 N   0  0  0  0  0  0  0  0  0  0  0  0
  -30.8045   18.8006  -18.3606 C   0  0  0  0  0  0  0  0  0  0  0  0
  -31.5698   19.1748  -17.2914 N   0  0  0  0  0  0  0  0  0  0  0  0
  1  2  2  0  0  0  0
  1  6  1  0  0  0  0
  2  3  1  0  0  0  0
  3  4  2  0  0  0  0
  4  5  1  0  0  0  0
  4 10  1  0  0  0  0
  5  6  2  0  0  0  0
  5  8  1  0  0  0  0
  6  7  1  0  0  0  0
  8  9  1  0  0  0  0
  9 10  2  0  0  0  0
M  END
>  <CHROM.1>
-30.35782882,17.75462233,-16.23043419,1.05208506,-0.71615914,1.86273745

>  <Name>
ligand

>  <RI>
0

>  <Rbt.Current_Directory>
/home/itssahil/PROJECTS/Mol_Feturizer/New_Systems/rnas/4TZY

>  <Rbt.Executable>
rbdock ($Id: //depot/dev/client3/rdock/2013.1/src/exe/rbdock.cxx#4 $)

>  <Rbt.Library>
libRbt.so (2013.1, Build901 2013/11/27)

>  <Rbt.Parameter_File>
/export/apps/rDock/src/rDock_2013.1_src/data/scripts/dock_solv.prm

>  <Rbt.Receptor>
prm/pocket_docking_7.prm

>  <SCORE>
-14.3462

>  <SCORE.INTER>
-14.3462

>  <SCORE.INTER.CONST>
1

>  <SCORE.INTER.POLAR>
0

>  <SCORE.INTER.ROT>
0

>  <SCORE.INTER.SOLV>
7.12833

>  <SCORE.INTER.VDW>
-15.5402

>  <SCORE.INTER.norm>
-1.43462

>  <SCORE.INTRA>
0

>  <SCORE.INTRA.DIHEDRAL>
0

>  <SCORE.INTRA.DIHEDRAL.0>
0

>  <SCORE.INTRA.POLAR>
0

>  <SCORE.INTRA.POLAR.0>
0

>  <SCORE.INTRA.REPUL>
0

>  <SCORE.INTRA.REPUL.0>
0

>  <SCORE.INTRA.SOLV>
0

>  <SCORE.INTRA.SOLV.lig_0>
-23.8941

>  <SCORE.INTRA.VDW>
0

>  <SCORE.INTRA.VDW.0>
0

>  <SCORE.INTRA.norm>
0

>  <SCORE.RESTR>
0

>  <SCORE.RESTR.CAVITY>
0

>  <SCORE.RESTR.norm>
0

>  <SCORE.SYSTEM>
0

>  <SCORE.SYSTEM.CONST>
0

>  <SCORE.SYSTEM.DIHEDRAL>
0

>  <SCORE.SYSTEM.SOLV>
0

>  <SCORE.SYSTEM.norm>
0

>  <SCORE.heavy>
10

>  <SCORE.norm>
-1.43462

>  <RMSD>
0.513

$$$$
ligand
 OpenBabel11021811513D
libRbt.so/2013.1/901 2013/11/27
 10 11  0  0  0  0  0  0  0  0999 V2000
  -29.8766   16.8287  -14.5085 N   0  0  0  0  0  0  0  0  0  0  0  0
  -30.8660   17.6640  -14.1680 C   0  0  0  0  0  0  0  0  0  0  0  0
  -31.5351   18.5251  -14.9327 N   0  0  0  0  0  0  0  0  0  0  0  0
  -31.0915   18.4834  -16.1986 C   0  0  0  0  0  0  0  0  0  0  0  0
  -30.0843   17.6813  -16.6986 C   0  0  0  0  0  0  0  0  0  0  0  0
  -29.4529   16.8101  -15.7887 C   0  0  0  0  0  0  0  0  0  0  0  0
  -28.4643   15.9771  -16.1319 N   0  0  0  0  0  0  0  0  0  0  0  0
  -29.9000   17.9100  -18.0517 N   0  0  0  0  0  0  0  0  0  0  0  0
  -30.7869   18.8347  -18.3375 C   0  0  0  0  0  0  0  0  0  0  0  0
  -31.5400   19.2275  -17.2664 N   0  0  0  0  0  0  0  0  0  0  0  0
  1  2  2  0  0  0  0
  1  6  1  0  0  0  0
  2  3  1  0  0  0  0
  3  4  2  0  0  0  0
  4  5  1  0  0  0  0
  4 10  1  0  0  0  0
  5  6  2  0  0  0  0
  5  8  1  0  0  0  0
  6  7  1  0  0  0  0
  8  9  1  0  0  0  0
  9 10  2  0  0  0  0
M  END
>  <CHROM.1>
-30.35236703,17.78646128,-16.20594767,1.05447919,-0.73658335,1.86123956

>  <Name>
ligand

>  <RI>
0

>  <Rbt.Current_Directory>
/home/itssahil/PROJECTS/Mol_Feturizer/New_Systems/rnas/4TZY

>  <Rbt.Executable>
rbdock ($Id: //depot/dev/client3/rdock/2013.1/src/exe/rbdock.cxx#4 $)

>  <Rbt.Library>
libRbt.so (2013.1, Build901 2013/11/27)

>  <Rbt.Parameter_File>
/export/apps/rDock/src/rDock_2013.1_src/data/scripts/dock_solv.prm

>  <Rbt.Receptor>
prm/pocket_docking_4.prm

>  <SCORE>
-14.3505

>  <SCORE.INTER>
-14.3505

>  <SCORE.INTER.CONST>
1

>  <SCORE.INTER.POLAR>
0

>  <SCORE.INTER.ROT>
0

>  <SCORE.INTER.SOLV>
7.1342

>  <SCORE.INTER.VDW>
-15.5451

>  <SCORE.INTER.norm>
-1.43505

>  <SCORE.INTRA>
0

>  <SCORE.INTRA.DIHEDRAL>
0

>  <SCORE.INTRA.DIHEDRAL.0>
0

>  <SCORE.INTRA.POLAR>
0

>  <SCORE.INTRA.POLAR.0>
0

>  <SCORE.INTRA.REPUL>
0

>  <SCORE.INTRA.REPUL.0>
0

>  <SCORE.INTRA.SOLV>
0

>  <SCORE.INTRA.SOLV.lig_0>
-23.8941

>  <SCORE.INTRA.VDW>
0

>  <SCORE.INTRA.VDW.0>
0

>  <SCORE.INTRA.norm>
0

>  <SCORE.RESTR>
0

>  <SCORE.RESTR.CAVITY>
0

>  <SCORE.RESTR.norm>
0

>  <SCORE.SYSTEM>
0

>  <SCORE.SYSTEM.CONST>
0

>  <SCORE.SYSTEM.DIHEDRAL>
0

>  <SCORE.SYSTEM.SOLV>
0

>  <SCORE.SYSTEM.norm>
0

>  <SCORE.heavy>
10

>  <SCORE.norm>
-1.43505

>  <RMSD>
0.514

$$$$
ligand
 OpenBabel11021811513D
libRbt.so/2013.1/901 2013/11/27
 10 11  0  0  0  0  0  0  0  0999 V2000
  -30.1082   16.7044  -14.6679 N   0  0  0  0  0  0  0  0  0  0  0  0
  -31.0297   17.6122  -14.3226 C   0  0  0  0  0  0  0  0  0  0  0  0
  -31.5885   18.5636  -15.0688 N   0  0  0  0  0  0  0  0  0  0  0  0
  -31.1031   18.5353  -16.3197 C   0  0  0  0  0  0  0  0  0  0  0  0
  -30.1549   17.6657  -16.8220 C   0  0  0  0  0  0  0  0  0  0  0  0
  -29.6400   16.7016  -15.9326 C   0  0  0  0  0  0  0  0  0  0  0  0
  -28.7190   15.7962  -16.2805 N   0  0  0  0  0  0  0  0  0  0  0  0
  -29.8997   17.9342  -18.1562 N   0  0  0  0  0  0  0  0  0  0  0  0
  -30.6874   18.9483  -18.4286 C   0  0  0  0  0  0  0  0  0  0  0  0
  -31.4416   19.3628  -17.3664 N   0  0  0  0  0  0  0  0  0  0  0  0
  1  2  2  0  0  0  0
  1  6  1  0  0  0  0
  2  3  1  0  0  0  0
  3  4  2  0  0  0  0
  4  5  1  0  0  0  0
  4 10  1  0  0  0  0
  5  6  2  0  0  0  0
  5  8  1  0  0  0  0
  6  7  1  0  0  0  0
  8  9  1  0  0  0  0
  9 10  2  0  0  0  0
M  END
>  <CHROM.1>
-30.43062604,17.77399389,-16.33435481,1.14482177,-0.81106505,1.96908740

>  <Name>
ligand

>  <RI>
0

>  <Rbt.Current_Directory>
/home/itssahil/PROJECTS/Mol_Feturizer/New_Systems/rnas/4TZY

>  <Rbt.Executable>
rbdock ($Id: //depot/dev/client3/rdock/2013.1/src/exe/rbdock.cxx#4 $)

>  <Rbt.Library>
libRbt.so (2013.1, Build901 2013/11/27)

>  <Rbt.Parameter_File>
/export/apps/rDock/src/rDock_2013.1_src/data/scripts/dock_solv.prm

>  <Rbt.Receptor>
prm/pocket_docking_4.prm

>  <SCORE>
-14.3424

>  <SCORE.INTER>
-14.3427

>  <SCORE.INTER.CONST>
1

>  <SCORE.INTER.POLAR>
0

>  <SCORE.INTER.ROT>
0

>  <SCORE.INTER.SOLV>
8.07906

>  <SCORE.INTER.VDW>
-15.8548

>  <SCORE.INTER.norm>
-1.43427

>  <SCORE.INTRA>
0

>  <SCORE.INTRA.DIHEDRAL>
0

>  <SCORE.INTRA.DIHEDRAL.0>
0

>  <SCORE.INTRA.POLAR>
0

>  <SCORE.INTRA.POLAR.0>
0

>  <SCORE.INTRA.REPUL>
0

>  <SCORE.INTRA.REPUL.0>
0

>  <SCORE.INTRA.SOLV>
0

>  <SCORE.INTRA.SOLV.lig_0>
-23.8941

>  <SCORE.INTRA.VDW>
0

>  <SCORE.INTRA.VDW.0>
0

>  <SCORE.INTRA.norm>
0

>  <SCORE.RESTR>
0.000307114

>  <SCORE.RESTR.CAVITY>
0.000307114

>  <SCORE.RESTR.norm>
3.07114e-05

>  <SCORE.SYSTEM>
0

>  <SCORE.SYSTEM.CONST>
0

>  <SCORE.SYSTEM.DIHEDRAL>
0

>  <SCORE.SYSTEM.SOLV>
0

>  <SCORE.SYSTEM.norm>
0

>  <SCORE.heavy>
10

>  <SCORE.norm>
-1.43424

>  <RMSD>
0.514

$$$$
ligand
 OpenBabel11021811513D
libRbt.so/2013.1/901 2013/11/27
 10 11  0  0  0  0  0  0  0  0999 V2000
  -29.8843   16.8461  -14.5416 N   0  0  0  0  0  0  0  0  0  0  0  0
  -30.8845   17.6733  -14.2131 C   0  0  0  0  0  0  0  0  0  0  0  0
  -31.5585   18.5212  -14.9882 N   0  0  0  0  0  0  0  0  0  0  0  0
  -31.1074   18.4744  -16.2513 C   0  0  0  0  0  0  0  0  0  0  0  0
  -30.0890   17.6794  -16.7394 C   0  0  0  0  0  0  0  0  0  0  0  0
  -29.4533   16.8221  -15.8192 C   0  0  0  0  0  0  0  0  0  0  0  0
  -28.4539   15.9972  -16.1505 N   0  0  0  0  0  0  0  0  0  0  0  0
  -29.8996   17.8994  -18.0933 N   0  0  0  0  0  0  0  0  0  0  0  0
  -30.7947   18.8123  -18.3911 C   0  0  0  0  0  0  0  0  0  0  0  0
  -31.5580   19.2053  -17.3273 N   0  0  0  0  0  0  0  0  0  0  0  0
  1  2  2  0  0  0  0
  1  6  1  0  0  0  0
  2  3  1  0  0  0  0
  3  4  2  0  0  0  0
  4  5  1  0  0  0  0
  4 10  1  0  0  0  0
  5  6  2  0  0  0  0
  5  8  1  0  0  0  0
  6  7  1  0  0  0  0
  8  9  1  0  0  0  0
  9 10  2  0  0  0  0
M  END
>  <CHROM.1>
-30.36084781,17.78544754,-16.24909375,1.05750095,-0.72469730,1.85542725

>  <Name>
ligand

>  <RI>
0

>  <Rbt.Current_Directory>
/home/itssahil/PROJECTS/Mol_Feturizer/New_Systems/rnas/4TZY

>  <Rbt.Executable>
rbdock ($Id: //depot/dev/client3/rdock/2013.1/src/exe/rbdock.cxx#4 $)

>  <Rbt.Library>
libRbt.so (2013.1, Build901 2013/11/27)

>  <Rbt.Parameter_File>
/export/apps/rDock/src/rDock_2013.1_src/data/scripts/dock_solv.prm

>  <Rbt.Receptor>
prm/pocket_docking_5.prm

>  <SCORE>
-14.3623

>  <SCORE.INTER>
-14.3627

>  <SCORE.INTER.CONST>
1

>  <SCORE.INTER.POLAR>
0

>  <SCORE.INTER.ROT>
0

>  <SCORE.INTER.SOLV>
7.14267

>  <SCORE.INTER.VDW>
-15.556

>  <SCORE.INTER.norm>
-1.43627

>  <SCORE.INTRA>
0

>  <SCORE.INTRA.DIHEDRAL>
0

>  <SCORE.INTRA.DIHEDRAL.0>
0

>  <SCORE.INTRA.POLAR>
0

>  <SCORE.INTRA.POLAR.0>
0

>  <SCORE.INTRA.REPUL>
0

>  <SCORE.INTRA.REPUL.0>
0

>  <SCORE.INTRA.SOLV>
0

>  <SCORE.INTRA.SOLV.lig_0>
-23.8941

>  <SCORE.INTRA.VDW>
0

>  <SCORE.INTRA.VDW.0>
0

>  <SCORE.INTRA.norm>
0

>  <SCORE.RESTR>
0.000420528

>  <SCORE.RESTR.CAVITY>
0.000420528

>  <SCORE.RESTR.norm>
4.20528e-05

>  <SCORE.SYSTEM>
0

>  <SCORE.SYSTEM.CONST>
0

>  <SCORE.SYSTEM.DIHEDRAL>
0

>  <SCORE.SYSTEM.SOLV>
0

>  <SCORE.SYSTEM.norm>
0

>  <SCORE.heavy>
10

>  <SCORE.norm>
-1.43623

>  <RMSD>
0.514

$$$$
ligand
 OpenBabel11021811513D
libRbt.so/2013.1/901 2013/11/27
 10 11  0  0  0  0  0  0  0  0999 V2000
  -29.8909   16.8264  -14.5496 N   0  0  0  0  0  0  0  0  0  0  0  0
  -30.8968   17.6462  -14.2202 C   0  0  0  0  0  0  0  0  0  0  0  0
  -31.5728   18.4946  -14.9931 N   0  0  0  0  0  0  0  0  0  0  0  0
  -31.1170   18.4572  -16.2549 C   0  0  0  0  0  0  0  0  0  0  0  0
  -30.0924   17.6705  -16.7436 C   0  0  0  0  0  0  0  0  0  0  0  0
  -29.4552   16.8118  -15.8259 C   0  0  0  0  0  0  0  0  0  0  0  0
  -28.4501   15.9942  -16.1580 N   0  0  0  0  0  0  0  0  0  0  0  0
  -29.8994   17.8990  -18.0956 N   0  0  0  0  0  0  0  0  0  0  0  0
  -30.7986   18.8085  -18.3917 C   0  0  0  0  0  0  0  0  0  0  0  0
  -31.5678   19.1914  -17.3284 N   0  0  0  0  0  0  0  0  0  0  0  0
  1  2  2  0  0  0  0
  1  6  1  0  0  0  0
  2  3  1  0  0  0  0
  3  4  2  0  0  0  0
  4  5  1  0  0  0  0
  4 10  1  0  0  0  0
  5  6  2  0  0  0  0
  5  8  1  0  0  0  0
  6  7  1  0  0  0  0
  8  9  1  0  0  0  0
  9 10  2  0  0  0  0
M  END
>  <CHROM.1>
-30.36659859,17.77240173,-16.25370513,1.05993676,-0.71835550,1.86249068

>  <Name>
ligand

>  <RI>
0

>  <Rbt.Current_Directory>
/home/itssahil/PROJECTS/Mol_Feturizer/New_Systems/rnas/4TZY

>  <Rbt.Executable>
rbdock ($Id: //depot/dev/client3/rdock/2013.1/src/exe/rbdock.cxx#4 $)

>  <Rbt.Library>
libRbt.so (2013.1, Build901 2013/11/27)

>  <Rbt.Parameter_File>
/export/apps/rDock/src/rDock_2013.1_src/data/scripts/dock_solv.prm

>  <Rbt.Receptor>
prm/pocket_docking_5.prm

>  <SCORE>
-14.3536

>  <SCORE.INTER>
-14.3541

>  <SCORE.INTER.CONST>
1

>  <SCORE.INTER.POLAR>
0

>  <SCORE.INTER.ROT>
0

>  <SCORE.INTER.SOLV>
7.15561

>  <SCORE.INTER.VDW>
-15.5546

>  <SCORE.INTER.norm>
-1.43541

>  <SCORE.INTRA>
0

>  <SCORE.INTRA.DIHEDRAL>
0

>  <SCORE.INTRA.DIHEDRAL.0>
0

>  <SCORE.INTRA.POLAR>
0

>  <SCORE.INTRA.POLAR.0>
0

>  <SCORE.INTRA.REPUL>
0

>  <SCORE.INTRA.REPUL.0>
0

>  <SCORE.INTRA.SOLV>
0

>  <SCORE.INTRA.SOLV.lig_0>
-23.8941

>  <SCORE.INTRA.VDW>
0

>  <SCORE.INTRA.VDW.0>
0

>  <SCORE.INTRA.norm>
0

>  <SCORE.RESTR>
0.000554153

>  <SCORE.RESTR.CAVITY>
0.000554153

>  <SCORE.RESTR.norm>
5.54153e-05

>  <SCORE.SYSTEM>
0

>  <SCORE.SYSTEM.CONST>
0

>  <SCORE.SYSTEM.DIHEDRAL>
0

>  <SCORE.SYSTEM.SOLV>
0

>  <SCORE.SYSTEM.norm>
0

>  <SCORE.heavy>
10

>  <SCORE.norm>
-1.43536

>  <RMSD>
0.514

$$$$
ligand
 OpenBabel11021811513D
libRbt.so/2013.1/901 2013/11/27
 10 11  0  0  0  0  0  0  0  0999 V2000
  -29.9836   16.7566  -14.6709 N   0  0  0  0  0  0  0  0  0  0  0  0
  -30.9020   17.6634  -14.3149 C   0  0  0  0  0  0  0  0  0  0  0  0
  -31.4928   18.5945  -15.0618 N   0  0  0  0  0  0  0  0  0  0  0  0
  -31.0470   18.5450  -16.3267 C   0  0  0  0  0  0  0  0  0  0  0  0
  -30.1072   17.6735  -16.8414 C   0  0  0  0  0  0  0  0  0  0  0  0
  -29.5556   16.7321  -15.9496 C   0  0  0  0  0  0  0  0  0  0  0  0
  -28.6378   15.8277  -16.3084 N   0  0  0  0  0  0  0  0  0  0  0  0
  -29.8968   17.9169  -18.1881 N   0  0  0  0  0  0  0  0  0  0  0  0
  -30.7020   18.9185  -18.4556 C   0  0  0  0  0  0  0  0  0  0  0  0
  -31.4260   19.3481  -17.3785 N   0  0  0  0  0  0  0  0  0  0  0  0
  1  2  2  0  0  0  0
  1  6  1  0  0  0  0
  2  3  1  0  0  0  0
  3  4  2  0  0  0  0
  4  5  1  0  0  0  0
  4 10  1  0  0  0  0
  5  6  2  0  0  0  0
  5  8  1  0  0  0  0
  6  7  1  0  0  0  0
  8  9  1  0  0  0  0
  9 10  2  0  0  0  0
M  END
>  <CHROM.1>
-30.36835581,17.78927612,-16.34744218,1.09717261,-0.81429163,1.91427929

>  <Name>
ligand

>  <RI>
0

>  <Rbt.Current_Directory>
/home/itssahil/PROJECTS/Mol_Feturizer/New_Systems/rnas/4TZY

>  <Rbt.Executable>
rbdock ($Id: //depot/dev/client3/rdock/2013.1/src/exe/rbdock.cxx#4 $)

>  <Rbt.Library>
libRbt.so (2013.1, Build901 2013/11/27)

>  <Rbt.Parameter_File>
/export/apps/rDock/src/rDock_2013.1_src/data/scripts/dock_solv.prm

>  <Rbt.Receptor>
prm/pocket_docking_8.prm

>  <SCORE>
-14.3895

>  <SCORE.INTER>
-14.3927

>  <SCORE.INTER.CONST>
1

>  <SCORE.INTER.POLAR>
0

>  <SCORE.INTER.ROT>
0

>  <SCORE.INTER.SOLV>
7.97862

>  <SCORE.INTER.VDW>
-15.8547

>  <SCORE.INTER.norm>
-1.43927

>  <SCORE.INTRA>
0

>  <SCORE.INTRA.DIHEDRAL>
0

>  <SCORE.INTRA.DIHEDRAL.0>
0

>  <SCORE.INTRA.POLAR>
0

>  <SCORE.INTRA.POLAR.0>
0

>  <SCORE.INTRA.REPUL>
0

>  <SCORE.INTRA.REPUL.0>
0

>  <SCORE.INTRA.SOLV>
0

>  <SCORE.INTRA.SOLV.lig_0>
-23.8941

>  <SCORE.INTRA.VDW>
0

>  <SCORE.INTRA.VDW.0>
0

>  <SCORE.INTRA.norm>
0

>  <SCORE.RESTR>
0.00323834

>  <SCORE.RESTR.CAVITY>
0.00323834

>  <SCORE.RESTR.norm>
0.000323834

>  <SCORE.SYSTEM>
0

>  <SCORE.SYSTEM.CONST>
0

>  <SCORE.SYSTEM.DIHEDRAL>
0

>  <SCORE.SYSTEM.SOLV>
0

>  <SCORE.SYSTEM.norm>
0

>  <SCORE.heavy>
10

>  <SCORE.norm>
-1.43895

>  <RMSD>
0.514

$$$$
ligand
 OpenBabel11021811513D
libRbt.so/2013.1/901 2013/11/27
 10 11  0  0  0  0  0  0  0  0999 V2000
  -30.0538   16.7312  -14.6443 N   0  0  0  0  0  0  0  0  0  0  0  0
  -30.9955   17.6180  -14.2990 C   0  0  0  0  0  0  0  0  0  0  0  0
  -31.5832   18.5496  -15.0478 N   0  0  0  0  0  0  0  0  0  0  0  0
  -31.1059   18.5247  -16.3019 C   0  0  0  0  0  0  0  0  0  0  0  0
  -30.1394   17.6757  -16.8048 C   0  0  0  0  0  0  0  0  0  0  0  0
  -29.5943   16.7312  -15.9123 C   0  0  0  0  0  0  0  0  0  0  0  0
  -28.6531   15.8469  -16.2603 N   0  0  0  0  0  0  0  0  0  0  0  0
  -29.9002   17.9410  -18.1425 N   0  0  0  0  0  0  0  0  0  0  0  0
  -30.7152   18.9330  -18.4164 C   0  0  0  0  0  0  0  0  0  0  0  0
  -31.4723   19.3359  -17.3519 N   0  0  0  0  0  0  0  0  0  0  0  0
  1  2  2  0  0  0  0
  1  6  1  0  0  0  0
  2  3  1  0  0  0  0
  3  4  2  0  0  0  0
  4  5  1  0  0  0  0
  4 10  1  0  0  0  0
  5  6  2  0  0  0  0
  5  8  1  0  0  0  0
  6  7  1  0  0  0  0
  8  9  1  0  0  0  0
  9 10  2  0  0  0  0
M  END
>  <CHROM.1>
-30.41448113,17.78044326,-16.31590447,1.12193655,-0.79029424,1.94561517

>  <Name>
ligand

>  <RI>
0

>  <Rbt.Current_Directory>
/home/itssahil/PROJECTS/Mol_Feturizer/New_Systems/rnas/4TZY

>  <Rbt.Executable>
rbdock ($Id: //depot/dev/client3/rdock/2013.1/src/exe/rbdock.cxx#4 $)

>  <Rbt.Library>
libRbt.so (2013.1, Build901 2013/11/27)

>  <Rbt.Parameter_File>
/export/apps/rDock/src/rDock_2013.1_src/data/scripts/dock_solv.prm

>  <Rbt.Receptor>
prm/pocket_docking_5.prm

>  <SCORE>
-14.3586

>  <SCORE.INTER>
-14.3586

>  <SCORE.INTER.CONST>
1

>  <SCORE.INTER.POLAR>
0

>  <SCORE.INTER.ROT>
0

>  <SCORE.INTER.SOLV>
7.8625

>  <SCORE.INTER.VDW>
-15.7932

>  <SCORE.INTER.norm>
-1.43586

>  <SCORE.INTRA>
0

>  <SCORE.INTRA.DIHEDRAL>
0

>  <SCORE.INTRA.DIHEDRAL.0>
0

>  <SCORE.INTRA.POLAR>
0

>  <SCORE.INTRA.POLAR.0>
0

>  <SCORE.INTRA.REPUL>
0

>  <SCORE.INTRA.REPUL.0>
0

>  <SCORE.INTRA.SOLV>
0

>  <SCORE.INTRA.SOLV.lig_0>
-23.8941

>  <SCORE.INTRA.VDW>
0

>  <SCORE.INTRA.VDW.0>
0

>  <SCORE.INTRA.norm>
0

>  <SCORE.RESTR>
0

>  <SCORE.RESTR.CAVITY>
0

>  <SCORE.RESTR.norm>
0

>  <SCORE.SYSTEM>
0

>  <SCORE.SYSTEM.CONST>
0

>  <SCORE.SYSTEM.DIHEDRAL>
0

>  <SCORE.SYSTEM.SOLV>
0

>  <SCORE.SYSTEM.norm>
0

>  <SCORE.heavy>
10

>  <SCORE.norm>
-1.43586

>  <RMSD>
0.515

$$$$
ligand
 OpenBabel11021811513D
libRbt.so/2013.1/901 2013/11/27
 10 11  0  0  0  0  0  0  0  0999 V2000
  -29.9158   16.8341  -14.5511 N   0  0  0  0  0  0  0  0  0  0  0  0
  -30.9257   17.6522  -14.2298 C   0  0  0  0  0  0  0  0  0  0  0  0
  -31.5975   18.4987  -15.0083 N   0  0  0  0  0  0  0  0  0  0  0  0
  -31.1322   18.4613  -16.2666 C   0  0  0  0  0  0  0  0  0  0  0  0
  -30.1024   17.6762  -16.7471 C   0  0  0  0  0  0  0  0  0  0  0  0
  -29.4705   16.8194  -15.8240 C   0  0  0  0  0  0  0  0  0  0  0  0
  -28.4613   16.0035  -16.1479 N   0  0  0  0  0  0  0  0  0  0  0  0
  -29.8998   17.9041  -18.0978 N   0  0  0  0  0  0  0  0  0  0  0  0
  -30.7984   18.8116  -18.4013 C   0  0  0  0  0  0  0  0  0  0  0  0
  -31.5763   19.1939  -17.3441 N   0  0  0  0  0  0  0  0  0  0  0  0
  1  2  2  0  0  0  0
  1  6  1  0  0  0  0
  2  3  1  0  0  0  0
  3  4  2  0  0  0  0
  4  5  1  0  0  0  0
  4 10  1  0  0  0  0
  5  6  2  0  0  0  0
  5  8  1  0  0  0  0
  6  7  1  0  0  0  0
  8  9  1  0  0  0  0
  9 10  2  0  0  0  0
M  END
>  <CHROM.1>
-30.38047717,17.77792440,-16.25935908,1.06872534,-0.71434591,1.86752542

>  <Name>
ligand

>  <RI>
0

>  <Rbt.Current_Directory>
/home/itssahil/PROJECTS/Mol_Feturizer/New_Systems/rnas/4TZY

>  <Rbt.Executable>
rbdock ($Id: //depot/dev/client3/rdock/2013.1/src/exe/rbdock.cxx#4 $)

>  <Rbt.Library>
libRbt.so (2013.1, Build901 2013/11/27)

>  <Rbt.Parameter_File>
/export/apps/rDock/src/rDock_2013.1_src/data/scripts/dock_solv.prm

>  <Rbt.Receptor>
prm/pocket_docking_7.prm

>  <SCORE>
-14.3487

>  <SCORE.INTER>
-14.3489

>  <SCORE.INTER.CONST>
1

>  <SCORE.INTER.POLAR>
0

>  <SCORE.INTER.ROT>
0

>  <SCORE.INTER.SOLV>
7.14298

>  <SCORE.INTER.VDW>
-15.5469

>  <SCORE.INTER.norm>
-1.43489

>  <SCORE.INTRA>
0

>  <SCORE.INTRA.DIHEDRAL>
0

>  <SCORE.INTRA.DIHEDRAL.0>
0

>  <SCORE.INTRA.POLAR>
0

>  <SCORE.INTRA.POLAR.0>
0

>  <SCORE.INTRA.REPUL>
0

>  <SCORE.INTRA.REPUL.0>
0

>  <SCORE.INTRA.SOLV>
0

>  <SCORE.INTRA.SOLV.lig_0>
-23.8941

>  <SCORE.INTRA.VDW>
0

>  <SCORE.INTRA.VDW.0>
0

>  <SCORE.INTRA.norm>
0

>  <SCORE.RESTR>
0.000246358

>  <SCORE.RESTR.CAVITY>
0.000246358

>  <SCORE.RESTR.norm>
2.46358e-05

>  <SCORE.SYSTEM>
0

>  <SCORE.SYSTEM.CONST>
0

>  <SCORE.SYSTEM.DIHEDRAL>
0

>  <SCORE.SYSTEM.SOLV>
0

>  <SCORE.SYSTEM.norm>
0

>  <SCORE.heavy>
10

>  <SCORE.norm>
-1.43487

>  <RMSD>
0.515

$$$$
ligand
 OpenBabel11021811513D
libRbt.so/2013.1/901 2013/11/27
 10 11  0  0  0  0  0  0  0  0999 V2000
  -29.8909   16.8289  -14.5405 N   0  0  0  0  0  0  0  0  0  0  0  0
  -30.8962   17.6492  -14.2106 C   0  0  0  0  0  0  0  0  0  0  0  0
  -31.5720   18.4981  -14.9831 N   0  0  0  0  0  0  0  0  0  0  0  0
  -31.1165   18.4607  -16.2450 C   0  0  0  0  0  0  0  0  0  0  0  0
  -30.0925   17.6735  -16.7343 C   0  0  0  0  0  0  0  0  0  0  0  0
  -29.4556   16.8142  -15.8169 C   0  0  0  0  0  0  0  0  0  0  0  0
  -28.4510   15.9962  -16.1495 N   0  0  0  0  0  0  0  0  0  0  0  0
  -29.8998   17.9022  -18.0862 N   0  0  0  0  0  0  0  0  0  0  0  0
  -30.7985   18.8123  -18.3818 C   0  0  0  0  0  0  0  0  0  0  0  0
  -31.5672   19.1954  -17.3183 N   0  0  0  0  0  0  0  0  0  0  0  0
  1  2  2  0  0  0  0
  1  6  1  0  0  0  0
  2  3  1  0  0  0  0
  3  4  2  0  0  0  0
  4  5  1  0  0  0  0
  4 10  1  0  0  0  0
  5  6  2  0  0  0  0
  5  8  1  0  0  0  0
  6  7  1  0  0  0  0
  8  9  1  0  0  0  0
  9 10  2  0  0  0  0
M  END
>  <CHROM.1>
-30.36653385,17.77548737,-16.24423169,1.05978784,-0.71899490,1.86260215

>  <Name>
ligand

>  <RI>
0

>  <Rbt.Current_Directory>
/home/itssahil/PROJECTS/Mol_Feturizer/New_Systems/rnas/4TZY

>  <Rbt.Executable>
rbdock ($Id: //depot/dev/client3/rdock/2013.1/src/exe/rbdock.cxx#4 $)

>  <Rbt.Library>
libRbt.so (2013.1, Build901 2013/11/27)

>  <Rbt.Parameter_File>
/export/apps/rDock/src/rDock_2013.1_src/data/scripts/dock_solv.prm

>  <Rbt.Receptor>
prm/pocket_docking_7.prm

>  <SCORE>
-14.3614

>  <SCORE.INTER>
-14.3616

>  <SCORE.INTER.CONST>
1

>  <SCORE.INTER.POLAR>
0

>  <SCORE.INTER.ROT>
0

>  <SCORE.INTER.SOLV>
7.13719

>  <SCORE.INTER.VDW>
-15.5535

>  <SCORE.INTER.norm>
-1.43616

>  <SCORE.INTRA>
0

>  <SCORE.INTRA.DIHEDRAL>
0

>  <SCORE.INTRA.DIHEDRAL.0>
0

>  <SCORE.INTRA.POLAR>
0

>  <SCORE.INTRA.POLAR.0>
0

>  <SCORE.INTRA.REPUL>
0

>  <SCORE.INTRA.REPUL.0>
0

>  <SCORE.INTRA.SOLV>
0

>  <SCORE.INTRA.SOLV.lig_0>
-23.8941

>  <SCORE.INTRA.VDW>
0

>  <SCORE.INTRA.VDW.0>
0

>  <SCORE.INTRA.norm>
0

>  <SCORE.RESTR>
0.000155882

>  <SCORE.RESTR.CAVITY>
0.000155882

>  <SCORE.RESTR.norm>
1.55882e-05

>  <SCORE.SYSTEM>
0

>  <SCORE.SYSTEM.CONST>
0

>  <SCORE.SYSTEM.DIHEDRAL>
0

>  <SCORE.SYSTEM.SOLV>
0

>  <SCORE.SYSTEM.norm>
0

>  <SCORE.heavy>
10

>  <SCORE.norm>
-1.43614

>  <RMSD>
0.515

$$$$
ligand
 OpenBabel11021811513D
libRbt.so/2013.1/901 2013/11/27
 10 11  0  0  0  0  0  0  0  0999 V2000
  -29.8981   16.8625  -14.5609 N   0  0  0  0  0  0  0  0  0  0  0  0
  -30.8895   17.7017  -14.2366 C   0  0  0  0  0  0  0  0  0  0  0  0
  -31.5538   18.5537  -15.0157 N   0  0  0  0  0  0  0  0  0  0  0  0
  -31.1022   18.4968  -16.2783 C   0  0  0  0  0  0  0  0  0  0  0  0
  -30.0920   17.6889  -16.7623 C   0  0  0  0  0  0  0  0  0  0  0  0
  -29.4663   16.8286  -15.8381 C   0  0  0  0  0  0  0  0  0  0  0  0
  -28.4756   15.9916  -16.1651 N   0  0  0  0  0  0  0  0  0  0  0  0
  -29.8992   17.9014  -18.1169 N   0  0  0  0  0  0  0  0  0  0  0  0
  -30.7841   18.8226  -18.4192 C   0  0  0  0  0  0  0  0  0  0  0  0
  -31.5440   19.2281  -17.3576 N   0  0  0  0  0  0  0  0  0  0  0  0
  1  2  2  0  0  0  0
  1  6  1  0  0  0  0
  2  3  1  0  0  0  0
  3  4  2  0  0  0  0
  4  5  1  0  0  0  0
  4 10  1  0  0  0  0
  5  6  2  0  0  0  0
  5  8  1  0  0  0  0
  6  7  1  0  0  0  0
  8  9  1  0  0  0  0
  9 10  2  0  0  0  0
M  END
>  <CHROM.1>
-30.36307613,17.79989791,-16.27264839,1.06260279,-0.73481944,1.85474255

>  <Name>
ligand

>  <RI>
0

>  <Rbt.Current_Directory>
/home/itssahil/PROJECTS/Mol_Feturizer/New_Systems/rnas/4TZY

>  <Rbt.Executable>
rbdock ($Id: //depot/dev/client3/rdock/2013.1/src/exe/rbdock.cxx#4 $)

>  <Rbt.Library>
libRbt.so (2013.1, Build901 2013/11/27)

>  <Rbt.Parameter_File>
/export/apps/rDock/src/rDock_2013.1_src/data/scripts/dock_solv.prm

>  <Rbt.Receptor>
prm/pocket_docking_8.prm

>  <SCORE>
-14.352

>  <SCORE.INTER>
-14.3529

>  <SCORE.INTER.CONST>
1

>  <SCORE.INTER.POLAR>
0

>  <SCORE.INTER.ROT>
0

>  <SCORE.INTER.SOLV>
7.2161

>  <SCORE.INTER.VDW>
-15.5739

>  <SCORE.INTER.norm>
-1.43529

>  <SCORE.INTRA>
0

>  <SCORE.INTRA.DIHEDRAL>
0

>  <SCORE.INTRA.DIHEDRAL.0>
0

>  <SCORE.INTRA.POLAR>
0

>  <SCORE.INTRA.POLAR.0>
0

>  <SCORE.INTRA.REPUL>
0

>  <SCORE.INTRA.REPUL.0>
0

>  <SCORE.INTRA.SOLV>
0

>  <SCORE.INTRA.SOLV.lig_0>
-23.8941

>  <SCORE.INTRA.VDW>
0

>  <SCORE.INTRA.VDW.0>
0

>  <SCORE.INTRA.norm>
0

>  <SCORE.RESTR>
0.000849328

>  <SCORE.RESTR.CAVITY>
0.000849328

>  <SCORE.RESTR.norm>
8.49328e-05

>  <SCORE.SYSTEM>
0

>  <SCORE.SYSTEM.CONST>
0

>  <SCORE.SYSTEM.DIHEDRAL>
0

>  <SCORE.SYSTEM.SOLV>
0

>  <SCORE.SYSTEM.norm>
0

>  <SCORE.heavy>
10

>  <SCORE.norm>
-1.4352

>  <RMSD>
0.515

$$$$
ligand
 OpenBabel11021811513D
libRbt.so/2013.1/901 2013/11/27
 10 11  0  0  0  0  0  0  0  0999 V2000
  -29.8723   16.8406  -14.5489 N   0  0  0  0  0  0  0  0  0  0  0  0
  -30.8681   17.6708  -14.2149 C   0  0  0  0  0  0  0  0  0  0  0  0
  -31.5428   18.5219  -14.9859 N   0  0  0  0  0  0  0  0  0  0  0  0
  -31.0976   18.4751  -16.2511 C   0  0  0  0  0  0  0  0  0  0  0  0
  -30.0840   17.6772  -16.7448 C   0  0  0  0  0  0  0  0  0  0  0  0
  -29.4471   16.8166  -15.8285 C   0  0  0  0  0  0  0  0  0  0  0  0
  -28.4521   15.9887  -16.1652 N   0  0  0  0  0  0  0  0  0  0  0  0
  -29.9000   17.8982  -18.0992 N   0  0  0  0  0  0  0  0  0  0  0  0
  -30.7933   18.8145  -18.3919 C   0  0  0  0  0  0  0  0  0  0  0  0
  -31.5505   19.2088  -17.3242 N   0  0  0  0  0  0  0  0  0  0  0  0
  1  2  2  0  0  0  0
  1  6  1  0  0  0  0
  2  3  1  0  0  0  0
  3  4  2  0  0  0  0
  4  5  1  0  0  0  0
  4 10  1  0  0  0  0
  5  6  2  0  0  0  0
  5  8  1  0  0  0  0
  6  7  1  0  0  0  0
  8  9  1  0  0  0  0
  9 10  2  0  0  0  0
M  END
>  <CHROM.1>
-30.35332388,17.78359038,-16.25310732,1.05297530,-0.72923374,1.85362341

>  <Name>
ligand

>  <RI>
0

>  <Rbt.Current_Directory>
/home/itssahil/PROJECTS/Mol_Feturizer/New_Systems/rnas/4TZY

>  <Rbt.Executable>
rbdock ($Id: //depot/dev/client3/rdock/2013.1/src/exe/rbdock.cxx#4 $)

>  <Rbt.Library>
libRbt.so (2013.1, Build901 2013/11/27)

>  <Rbt.Parameter_File>
/export/apps/rDock/src/rDock_2013.1_src/data/scripts/dock_solv.prm

>  <Rbt.Receptor>
prm/pocket_docking_8.prm

>  <SCORE>
-14.3535

>  <SCORE.INTER>
-14.3535

>  <SCORE.INTER.CONST>
1

>  <SCORE.INTER.POLAR>
0

>  <SCORE.INTER.ROT>
0

>  <SCORE.INTER.SOLV>
7.18286

>  <SCORE.INTER.VDW>
-15.5633

>  <SCORE.INTER.norm>
-1.43535

>  <SCORE.INTRA>
0

>  <SCORE.INTRA.DIHEDRAL>
0

>  <SCORE.INTRA.DIHEDRAL.0>
0

>  <SCORE.INTRA.POLAR>
0

>  <SCORE.INTRA.POLAR.0>
0

>  <SCORE.INTRA.REPUL>
0

>  <SCORE.INTRA.REPUL.0>
0

>  <SCORE.INTRA.SOLV>
0

>  <SCORE.INTRA.SOLV.lig_0>
-23.8941

>  <SCORE.INTRA.VDW>
0

>  <SCORE.INTRA.VDW.0>
0

>  <SCORE.INTRA.norm>
0

>  <SCORE.RESTR>
8.42105e-07

>  <SCORE.RESTR.CAVITY>
8.42105e-07

>  <SCORE.RESTR.norm>
8.42105e-08

>  <SCORE.SYSTEM>
0

>  <SCORE.SYSTEM.CONST>
0

>  <SCORE.SYSTEM.DIHEDRAL>
0

>  <SCORE.SYSTEM.SOLV>
0

>  <SCORE.SYSTEM.norm>
0

>  <SCORE.heavy>
10

>  <SCORE.norm>
-1.43535

>  <RMSD>
0.515

$$$$
ligand
 OpenBabel11021811513D
libRbt.so/2013.1/901 2013/11/27
 10 11  0  0  0  0  0  0  0  0999 V2000
  -29.8856   16.8385  -14.5391 N   0  0  0  0  0  0  0  0  0  0  0  0
  -30.8873   17.6631  -14.2091 C   0  0  0  0  0  0  0  0  0  0  0  0
  -31.5622   18.5120  -14.9823 N   0  0  0  0  0  0  0  0  0  0  0  0
  -31.1101   18.4695  -16.2452 C   0  0  0  0  0  0  0  0  0  0  0  0
  -30.0900   17.6776  -16.7348 C   0  0  0  0  0  0  0  0  0  0  0  0
  -29.4536   16.8188  -15.8165 C   0  0  0  0  0  0  0  0  0  0  0  0
  -28.4525   15.9964  -16.1493 N   0  0  0  0  0  0  0  0  0  0  0  0
  -29.8999   17.9017  -18.0879 N   0  0  0  0  0  0  0  0  0  0  0  0
  -30.7964   18.8139  -18.3839 C   0  0  0  0  0  0  0  0  0  0  0  0
  -31.5611   19.2027  -17.3195 N   0  0  0  0  0  0  0  0  0  0  0  0
  1  2  2  0  0  0  0
  1  6  1  0  0  0  0
  2  3  1  0  0  0  0
  3  4  2  0  0  0  0
  4  5  1  0  0  0  0
  4 10  1  0  0  0  0
  5  6  2  0  0  0  0
  5  8  1  0  0  0  0
  6  7  1  0  0  0  0
  8  9  1  0  0  0  0
  9 10  2  0  0  0  0
M  END
>  <CHROM.1>
-30.36238296,17.78182043,-16.24436092,1.05782844,-0.72288241,1.85844278

>  <Name>
ligand

>  <RI>
0

>  <Rbt.Current_Directory>
/home/itssahil/PROJECTS/Mol_Feturizer/New_Systems/rnas/4TZY

>  <Rbt.Executable>
rbdock ($Id: //depot/dev/client3/rdock/2013.1/src/exe/rbdock.cxx#4 $)

>  <Rbt.Library>
libRbt.so (2013.1, Build901 2013/11/27)

>  <Rbt.Parameter_File>
/export/apps/rDock/src/rDock_2013.1_src/data/scripts/dock_solv.prm

>  <Rbt.Receptor>
prm/pocket_docking_8.prm

>  <SCORE>
-14.3636

>  <SCORE.INTER>
-14.3637

>  <SCORE.INTER.CONST>
1

>  <SCORE.INTER.POLAR>
0

>  <SCORE.INTER.ROT>
0

>  <SCORE.INTER.SOLV>
7.13907

>  <SCORE.INTER.VDW>
-15.5555

>  <SCORE.INTER.norm>
-1.43637

>  <SCORE.INTRA>
0

>  <SCORE.INTRA.DIHEDRAL>
0

>  <SCORE.INTRA.DIHEDRAL.0>
0

>  <SCORE.INTRA.POLAR>
0

>  <SCORE.INTRA.POLAR.0>
0

>  <SCORE.INTRA.REPUL>
0

>  <SCORE.INTRA.REPUL.0>
0

>  <SCORE.INTRA.SOLV>
0

>  <SCORE.INTRA.SOLV.lig_0>
-23.8941

>  <SCORE.INTRA.VDW>
0

>  <SCORE.INTRA.VDW.0>
0

>  <SCORE.INTRA.norm>
0

>  <SCORE.RESTR>
6.8456e-05

>  <SCORE.RESTR.CAVITY>
6.8456e-05

>  <SCORE.RESTR.norm>
6.8456e-06

>  <SCORE.SYSTEM>
0

>  <SCORE.SYSTEM.CONST>
0

>  <SCORE.SYSTEM.DIHEDRAL>
0

>  <SCORE.SYSTEM.SOLV>
0

>  <SCORE.SYSTEM.norm>
0

>  <SCORE.heavy>
10

>  <SCORE.norm>
-1.43636

>  <RMSD>
0.515

$$$$
ligand
 OpenBabel11021811513D
libRbt.so/2013.1/901 2013/11/27
 10 11  0  0  0  0  0  0  0  0999 V2000
  -29.8821   16.8234  -14.4964 N   0  0  0  0  0  0  0  0  0  0  0  0
  -30.8746   17.6548  -14.1560 C   0  0  0  0  0  0  0  0  0  0  0  0
  -31.5444   18.5162  -14.9198 N   0  0  0  0  0  0  0  0  0  0  0  0
  -31.0976   18.4793  -16.1848 C   0  0  0  0  0  0  0  0  0  0  0  0
  -30.0869   17.6815  -16.6846 C   0  0  0  0  0  0  0  0  0  0  0  0
  -29.4552   16.8096  -15.7756 C   0  0  0  0  0  0  0  0  0  0  0  0
  -28.4634   15.9804  -16.1187 N   0  0  0  0  0  0  0  0  0  0  0  0
  -29.9000   17.9145  -18.0366 N   0  0  0  0  0  0  0  0  0  0  0  0
  -30.7888   18.8374  -18.3219 C   0  0  0  0  0  0  0  0  0  0  0  0
  -31.5457   19.2251  -17.2516 N   0  0  0  0  0  0  0  0  0  0  0  0
  1  2  2  0  0  0  0
  1  6  1  0  0  0  0
  2  3  1  0  0  0  0
  3  4  2  0  0  0  0
  4  5  1  0  0  0  0
  4 10  1  0  0  0  0
  5  6  2  0  0  0  0
  5  8  1  0  0  0  0
  6  7  1  0  0  0  0
  8  9  1  0  0  0  0
  9 10  2  0  0  0  0
M  END
>  <CHROM.1>
-30.35646341,17.78450556,-16.19229969,1.05647542,-0.73312015,1.86537304

>  <Name>
ligand

>  <RI>
0

>  <Rbt.Current_Directory>
/home/itssahil/PROJECTS/Mol_Feturizer/New_Systems/rnas/4TZY

>  <Rbt.Executable>
rbdock ($Id: //depot/dev/client3/rdock/2013.1/src/exe/rbdock.cxx#4 $)

>  <Rbt.Library>
libRbt.so (2013.1, Build901 2013/11/27)

>  <Rbt.Parameter_File>
/export/apps/rDock/src/rDock_2013.1_src/data/scripts/dock_solv.prm

>  <Rbt.Receptor>
prm/pocket_docking_8.prm

>  <SCORE>
-14.3572

>  <SCORE.INTER>
-14.3572

>  <SCORE.INTER.CONST>
1

>  <SCORE.INTER.POLAR>
0

>  <SCORE.INTER.ROT>
0

>  <SCORE.INTER.SOLV>
7.1058

>  <SCORE.INTER.VDW>
-15.5401

>  <SCORE.INTER.norm>
-1.43572

>  <SCORE.INTRA>
0

>  <SCORE.INTRA.DIHEDRAL>
0

>  <SCORE.INTRA.DIHEDRAL.0>
0

>  <SCORE.INTRA.POLAR>
0

>  <SCORE.INTRA.POLAR.0>
0

>  <SCORE.INTRA.REPUL>
0

>  <SCORE.INTRA.REPUL.0>
0

>  <SCORE.INTRA.SOLV>
0

>  <SCORE.INTRA.SOLV.lig_0>
-23.8941

>  <SCORE.INTRA.VDW>
0

>  <SCORE.INTRA.VDW.0>
0

>  <SCORE.INTRA.norm>
0

>  <SCORE.RESTR>
0

>  <SCORE.RESTR.CAVITY>
0

>  <SCORE.RESTR.norm>
0

>  <SCORE.SYSTEM>
0

>  <SCORE.SYSTEM.CONST>
0

>  <SCORE.SYSTEM.DIHEDRAL>
0

>  <SCORE.SYSTEM.SOLV>
0

>  <SCORE.SYSTEM.norm>
0

>  <SCORE.heavy>
10

>  <SCORE.norm>
-1.43572

>  <RMSD>
0.515

$$$$
ligand
 OpenBabel11021811513D
libRbt.so/2013.1/901 2013/11/27
 10 11  0  0  0  0  0  0  0  0999 V2000
  -29.8889   16.8372  -14.5398 N   0  0  0  0  0  0  0  0  0  0  0  0
  -30.8919   17.6605  -14.2102 C   0  0  0  0  0  0  0  0  0  0  0  0
  -31.5667   18.5096  -14.9834 N   0  0  0  0  0  0  0  0  0  0  0  0
  -31.1129   18.4688  -16.2458 C   0  0  0  0  0  0  0  0  0  0  0  0
  -30.0913   17.6784  -16.7349 C   0  0  0  0  0  0  0  0  0  0  0  0
  -29.4553   16.8193  -15.8167 C   0  0  0  0  0  0  0  0  0  0  0  0
  -28.4530   15.9982  -16.1490 N   0  0  0  0  0  0  0  0  0  0  0  0
  -29.8998   17.9041  -18.0875 N   0  0  0  0  0  0  0  0  0  0  0  0
  -30.7967   18.8158  -18.3836 C   0  0  0  0  0  0  0  0  0  0  0  0
  -31.5632   19.2027  -17.3199 N   0  0  0  0  0  0  0  0  0  0  0  0
  1  2  2  0  0  0  0
  1  6  1  0  0  0  0
  2  3  1  0  0  0  0
  3  4  2  0  0  0  0
  4  5  1  0  0  0  0
  4 10  1  0  0  0  0
  5  6  2  0  0  0  0
  5  8  1  0  0  0  0
  6  7  1  0  0  0  0
  8  9  1  0  0  0  0
  9 10  2  0  0  0  0
M  END
>  <CHROM.1>
-30.36448206,17.78186736,-16.24467737,1.05909305,-0.72160114,1.86031863

>  <Name>
ligand

>  <RI>
0

>  <Rbt.Current_Directory>
/home/itssahil/PROJECTS/Mol_Feturizer/New_Systems/rnas/4TZY

>  <Rbt.Executable>
rbdock ($Id: //depot/dev/client3/rdock/2013.1/src/exe/rbdock.cxx#4 $)

>  <Rbt.Library>
libRbt.so (2013.1, Build901 2013/11/27)

>  <Rbt.Parameter_File>
/export/apps/rDock/src/rDock_2013.1_src/data/scripts/dock_solv.prm

>  <Rbt.Receptor>
prm/blind_docking_80.prm

>  <SCORE>
-14.3622

>  <SCORE.INTER>
-14.3624

>  <SCORE.INTER.CONST>
1

>  <SCORE.INTER.POLAR>
0

>  <SCORE.INTER.ROT>
0

>  <SCORE.INTER.SOLV>
7.13953

>  <SCORE.INTER.VDW>
-15.5548

>  <SCORE.INTER.norm>
-1.43624

>  <SCORE.INTRA>
0

>  <SCORE.INTRA.DIHEDRAL>
0

>  <SCORE.INTRA.DIHEDRAL.0>
0

>  <SCORE.INTRA.POLAR>
0

>  <SCORE.INTRA.POLAR.0>
0

>  <SCORE.INTRA.REPUL>
0

>  <SCORE.INTRA.REPUL.0>
0

>  <SCORE.INTRA.SOLV>
0

>  <SCORE.INTRA.SOLV.lig_0>
-23.8941

>  <SCORE.INTRA.VDW>
0

>  <SCORE.INTRA.VDW.0>
0

>  <SCORE.INTRA.norm>
0

>  <SCORE.RESTR>
0.000202011

>  <SCORE.RESTR.CAVITY>
0.000202011

>  <SCORE.RESTR.norm>
2.02011e-05

>  <SCORE.SYSTEM>
0

>  <SCORE.SYSTEM.CONST>
0

>  <SCORE.SYSTEM.DIHEDRAL>
0

>  <SCORE.SYSTEM.SOLV>
0

>  <SCORE.SYSTEM.norm>
0

>  <SCORE.heavy>
10

>  <SCORE.norm>
-1.43622

>  <RMSD>
0.516

$$$$
ligand
 OpenBabel11021811513D
libRbt.so/2013.1/901 2013/11/27
 10 11  0  0  0  0  0  0  0  0999 V2000
  -29.8545   16.8313  -14.5294 N   0  0  0  0  0  0  0  0  0  0  0  0
  -30.8471   17.6618  -14.1867 C   0  0  0  0  0  0  0  0  0  0  0  0
  -31.5244   18.5173  -14.9505 N   0  0  0  0  0  0  0  0  0  0  0  0
  -31.0860   18.4750  -16.2183 C   0  0  0  0  0  0  0  0  0  0  0  0
  -30.0765   17.6775  -16.7206 C   0  0  0  0  0  0  0  0  0  0  0  0
  -29.4362   16.8120  -15.8114 C   0  0  0  0  0  0  0  0  0  0  0  0
  -28.4444   15.9838  -16.1569 N   0  0  0  0  0  0  0  0  0  0  0  0
  -29.8993   17.9039  -18.0751 N   0  0  0  0  0  0  0  0  0  0  0  0
  -30.7925   18.8229  -18.3592 C   0  0  0  0  0  0  0  0  0  0  0  0
  -31.5433   19.2141  -17.2858 N   0  0  0  0  0  0  0  0  0  0  0  0
  1  2  2  0  0  0  0
  1  6  1  0  0  0  0
  2  3  1  0  0  0  0
  3  4  2  0  0  0  0
  4  5  1  0  0  0  0
  4 10  1  0  0  0  0
  5  6  2  0  0  0  0
  5  8  1  0  0  0  0
  6  7  1  0  0  0  0
  8  9  1  0  0  0  0
  9 10  2  0  0  0  0
M  END
>  <CHROM.1>
-30.34295863,17.78229576,-16.22709206,1.04675381,-0.73239206,1.85367121

>  <Name>
ligand

>  <RI>
0

>  <Rbt.Current_Directory>
/home/itssahil/PROJECTS/Mol_Feturizer/New_Systems/rnas/4TZY

>  <Rbt.Executable>
rbdock ($Id: //depot/dev/client3/rdock/2013.1/src/exe/rbdock.cxx#4 $)

>  <Rbt.Library>
libRbt.so (2013.1, Build901 2013/11/27)

>  <Rbt.Parameter_File>
/export/apps/rDock/src/rDock_2013.1_src/data/scripts/dock_solv.prm

>  <Rbt.Receptor>
prm/pocket_docking_7.prm

>  <SCORE>
-14.3662

>  <SCORE.INTER>
-14.3669

>  <SCORE.INTER.CONST>
1

>  <SCORE.INTER.POLAR>
0

>  <SCORE.INTER.ROT>
0

>  <SCORE.INTER.SOLV>
7.1568

>  <SCORE.INTER.VDW>
-15.5635

>  <SCORE.INTER.norm>
-1.43669

>  <SCORE.INTRA>
0

>  <SCORE.INTRA.DIHEDRAL>
0

>  <SCORE.INTRA.DIHEDRAL.0>
0

>  <SCORE.INTRA.POLAR>
0

>  <SCORE.INTRA.POLAR.0>
0

>  <SCORE.INTRA.REPUL>
0

>  <SCORE.INTRA.REPUL.0>
0

>  <SCORE.INTRA.SOLV>
0

>  <SCORE.INTRA.SOLV.lig_0>
-23.8941

>  <SCORE.INTRA.VDW>
0

>  <SCORE.INTRA.VDW.0>
0

>  <SCORE.INTRA.norm>
0

>  <SCORE.RESTR>
0.00072651

>  <SCORE.RESTR.CAVITY>
0.00072651

>  <SCORE.RESTR.norm>
7.2651e-05

>  <SCORE.SYSTEM>
0

>  <SCORE.SYSTEM.CONST>
0

>  <SCORE.SYSTEM.DIHEDRAL>
0

>  <SCORE.SYSTEM.SOLV>
0

>  <SCORE.SYSTEM.norm>
0

>  <SCORE.heavy>
10

>  <SCORE.norm>
-1.43662

>  <RMSD>
0.516

$$$$
ligand
 OpenBabel11021811513D
libRbt.so/2013.1/901 2013/11/27
 10 11  0  0  0  0  0  0  0  0999 V2000
  -29.8684   16.8343  -14.4800 N   0  0  0  0  0  0  0  0  0  0  0  0
  -30.8464   17.6802  -14.1333 C   0  0  0  0  0  0  0  0  0  0  0  0
  -31.5104   18.5493  -14.8935 N   0  0  0  0  0  0  0  0  0  0  0  0
  -31.0745   18.5036  -16.1620 C   0  0  0  0  0  0  0  0  0  0  0  0
  -30.0793   17.6908  -16.6683 C   0  0  0  0  0  0  0  0  0  0  0  0
  -29.4523   16.8119  -15.7627 C   0  0  0  0  0  0  0  0  0  0  0  0
  -28.4750   15.9683  -16.1122 N   0  0  0  0  0  0  0  0  0  0  0  0
  -29.9002   17.9184  -18.0224 N   0  0  0  0  0  0  0  0  0  0  0  0
  -30.7784   18.8531  -18.3023 C   0  0  0  0  0  0  0  0  0  0  0  0
  -31.5210   19.2535  -17.2266 N   0  0  0  0  0  0  0  0  0  0  0  0
  1  2  2  0  0  0  0
  1  6  1  0  0  0  0
  2  3  1  0  0  0  0
  3  4  2  0  0  0  0
  4  5  1  0  0  0  0
  4 10  1  0  0  0  0
  5  6  2  0  0  0  0
  5  8  1  0  0  0  0
  6  7  1  0  0  0  0
  8  9  1  0  0  0  0
  9 10  2  0  0  0  0
M  END
>  <CHROM.1>
-30.34326067,17.79856714,-16.17406948,1.05127053,-0.74888350,1.85978761

>  <Name>
ligand

>  <RI>
0

>  <Rbt.Current_Directory>
/home/itssahil/PROJECTS/Mol_Feturizer/New_Systems/rnas/4TZY

>  <Rbt.Executable>
rbdock ($Id: //depot/dev/client3/rdock/2013.1/src/exe/rbdock.cxx#4 $)

>  <Rbt.Library>
libRbt.so (2013.1, Build901 2013/11/27)

>  <Rbt.Parameter_File>
/export/apps/rDock/src/rDock_2013.1_src/data/scripts/dock_solv.prm

>  <Rbt.Receptor>
prm/pocket_docking_4.prm

>  <SCORE>
-14.3248

>  <SCORE.INTER>
-14.3248

>  <SCORE.INTER.CONST>
1

>  <SCORE.INTER.POLAR>
0

>  <SCORE.INTER.ROT>
0

>  <SCORE.INTER.SOLV>
7.12929

>  <SCORE.INTER.VDW>
-15.5263

>  <SCORE.INTER.norm>
-1.43248

>  <SCORE.INTRA>
0

>  <SCORE.INTRA.DIHEDRAL>
0

>  <SCORE.INTRA.DIHEDRAL.0>
0

>  <SCORE.INTRA.POLAR>
0

>  <SCORE.INTRA.POLAR.0>
0

>  <SCORE.INTRA.REPUL>
0

>  <SCORE.INTRA.REPUL.0>
0

>  <SCORE.INTRA.SOLV>
0

>  <SCORE.INTRA.SOLV.lig_0>
-23.8941

>  <SCORE.INTRA.VDW>
0

>  <SCORE.INTRA.VDW.0>
0

>  <SCORE.INTRA.norm>
0

>  <SCORE.RESTR>
0

>  <SCORE.RESTR.CAVITY>
0

>  <SCORE.RESTR.norm>
0

>  <SCORE.SYSTEM>
0

>  <SCORE.SYSTEM.CONST>
0

>  <SCORE.SYSTEM.DIHEDRAL>
0

>  <SCORE.SYSTEM.SOLV>
0

>  <SCORE.SYSTEM.norm>
0

>  <SCORE.heavy>
10

>  <SCORE.norm>
-1.43248

>  <RMSD>
0.517

$$$$
ligand
 OpenBabel11021811513D
libRbt.so/2013.1/901 2013/11/27
 10 11  0  0  0  0  0  0  0  0999 V2000
  -29.8684   16.8399  -14.4742 N   0  0  0  0  0  0  0  0  0  0  0  0
  -30.8461   17.6868  -14.1288 C   0  0  0  0  0  0  0  0  0  0  0  0
  -31.5097   18.5549  -14.8904 N   0  0  0  0  0  0  0  0  0  0  0  0
  -31.0739   18.5069  -16.1589 C   0  0  0  0  0  0  0  0  0  0  0  0
  -30.0789   17.6930  -16.6639 C   0  0  0  0  0  0  0  0  0  0  0  0
  -29.4523   16.8153  -15.7568 C   0  0  0  0  0  0  0  0  0  0  0  0
  -28.4753   15.9707  -16.1048 N   0  0  0  0  0  0  0  0  0  0  0  0
  -29.8997   17.9183  -18.0183 N   0  0  0  0  0  0  0  0  0  0  0  0
  -30.7775   18.8528  -18.2998 C   0  0  0  0  0  0  0  0  0  0  0  0
  -31.5200   19.2552  -17.2247 N   0  0  0  0  0  0  0  0  0  0  0  0
  1  2  2  0  0  0  0
  1  6  1  0  0  0  0
  2  3  1  0  0  0  0
  3  4  2  0  0  0  0
  4  5  1  0  0  0  0
  4 10  1  0  0  0  0
  5  6  2  0  0  0  0
  5  8  1  0  0  0  0
  6  7  1  0  0  0  0
  8  9  1  0  0  0  0
  9 10  2  0  0  0  0
M  END
>  <CHROM.1>
-30.34283666,17.80159242,-16.16978558,1.05143588,-0.74921893,1.85825788

>  <Name>
ligand

>  <RI>
0

>  <Rbt.Current_Directory>
/home/itssahil/PROJECTS/Mol_Feturizer/New_Systems/rnas/4TZY

>  <Rbt.Executable>
rbdock ($Id: //depot/dev/client3/rdock/2013.1/src/exe/rbdock.cxx#4 $)

>  <Rbt.Library>
libRbt.so (2013.1, Build901 2013/11/27)

>  <Rbt.Parameter_File>
/export/apps/rDock/src/rDock_2013.1_src/data/scripts/dock_solv.prm

>  <Rbt.Receptor>
prm/pocket_docking_6.prm

>  <SCORE>
-14.3225

>  <SCORE.INTER>
-14.3228

>  <SCORE.INTER.CONST>
1

>  <SCORE.INTER.POLAR>
0

>  <SCORE.INTER.ROT>
0

>  <SCORE.INTER.SOLV>
7.12477

>  <SCORE.INTER.VDW>
-15.5234

>  <SCORE.INTER.norm>
-1.43228

>  <SCORE.INTRA>
0

>  <SCORE.INTRA.DIHEDRAL>
0

>  <SCORE.INTRA.DIHEDRAL.0>
0

>  <SCORE.INTRA.POLAR>
0

>  <SCORE.INTRA.POLAR.0>
0

>  <SCORE.INTRA.REPUL>
0

>  <SCORE.INTRA.REPUL.0>
0

>  <SCORE.INTRA.SOLV>
0

>  <SCORE.INTRA.SOLV.lig_0>
-23.8941

>  <SCORE.INTRA.VDW>
0

>  <SCORE.INTRA.VDW.0>
0

>  <SCORE.INTRA.norm>
0

>  <SCORE.RESTR>
0.000266979

>  <SCORE.RESTR.CAVITY>
0.000266979

>  <SCORE.RESTR.norm>
2.66979e-05

>  <SCORE.SYSTEM>
0

>  <SCORE.SYSTEM.CONST>
0

>  <SCORE.SYSTEM.DIHEDRAL>
0

>  <SCORE.SYSTEM.SOLV>
0

>  <SCORE.SYSTEM.norm>
0

>  <SCORE.heavy>
10

>  <SCORE.norm>
-1.43225

>  <RMSD>
0.517

$$$$
ligand
 OpenBabel11021811513D
libRbt.so/2013.1/901 2013/11/27
 10 11  0  0  0  0  0  0  0  0999 V2000
  -29.8772   16.8156  -14.4970 N   0  0  0  0  0  0  0  0  0  0  0  0
  -30.8725   17.6427  -14.1540 C   0  0  0  0  0  0  0  0  0  0  0  0
  -31.5455   18.5038  -14.9154 N   0  0  0  0  0  0  0  0  0  0  0  0
  -31.0989   18.4719  -16.1806 C   0  0  0  0  0  0  0  0  0  0  0  0
  -30.0857   17.6790  -16.6828 C   0  0  0  0  0  0  0  0  0  0  0  0
  -29.4507   16.8067  -15.7764 C   0  0  0  0  0  0  0  0  0  0  0  0
  -28.4561   15.9819  -16.1221 N   0  0  0  0  0  0  0  0  0  0  0  0
  -29.9000   17.9162  -18.0343 N   0  0  0  0  0  0  0  0  0  0  0  0
  -30.7921   18.8369  -18.3168 C   0  0  0  0  0  0  0  0  0  0  0  0
  -31.5500   19.2191  -17.2452 N   0  0  0  0  0  0  0  0  0  0  0  0
  1  2  2  0  0  0  0
  1  6  1  0  0  0  0
  2  3  1  0  0  0  0
  3  4  2  0  0  0  0
  4  5  1  0  0  0  0
  4 10  1  0  0  0  0
  5  6  2  0  0  0  0
  5  8  1  0  0  0  0
  6  7  1  0  0  0  0
  8  9  1  0  0  0  0
  9 10  2  0  0  0  0
M  END
>  <CHROM.1>
-30.35542394,17.77970119,-16.19020169,1.05472324,-0.72994688,1.86691129

>  <Name>
ligand

>  <RI>
0

>  <Rbt.Current_Directory>
/home/itssahil/PROJECTS/Mol_Feturizer/New_Systems/rnas/4TZY

>  <Rbt.Executable>
rbdock ($Id: //depot/dev/client3/rdock/2013.1/src/exe/rbdock.cxx#4 $)

>  <Rbt.Library>
libRbt.so (2013.1, Build901 2013/11/27)

>  <Rbt.Parameter_File>
/export/apps/rDock/src/rDock_2013.1_src/data/scripts/dock_solv.prm

>  <Rbt.Receptor>
prm/pocket_docking_8.prm

>  <SCORE>
-14.3548

>  <SCORE.INTER>
-14.3548

>  <SCORE.INTER.CONST>
1

>  <SCORE.INTER.POLAR>
0

>  <SCORE.INTER.ROT>
0

>  <SCORE.INTER.SOLV>
7.103

>  <SCORE.INTER.VDW>
-15.5375

>  <SCORE.INTER.norm>
-1.43548

>  <SCORE.INTRA>
0

>  <SCORE.INTRA.DIHEDRAL>
0

>  <SCORE.INTRA.DIHEDRAL.0>
0

>  <SCORE.INTRA.POLAR>
0

>  <SCORE.INTRA.POLAR.0>
0

>  <SCORE.INTRA.REPUL>
0

>  <SCORE.INTRA.REPUL.0>
0

>  <SCORE.INTRA.SOLV>
0

>  <SCORE.INTRA.SOLV.lig_0>
-23.8941

>  <SCORE.INTRA.VDW>
0

>  <SCORE.INTRA.VDW.0>
0

>  <SCORE.INTRA.norm>
0

>  <SCORE.RESTR>
0

>  <SCORE.RESTR.CAVITY>
0

>  <SCORE.RESTR.norm>
0

>  <SCORE.SYSTEM>
0

>  <SCORE.SYSTEM.CONST>
0

>  <SCORE.SYSTEM.DIHEDRAL>
0

>  <SCORE.SYSTEM.SOLV>
0

>  <SCORE.SYSTEM.norm>
0

>  <SCORE.heavy>
10

>  <SCORE.norm>
-1.43548

>  <RMSD>
0.517

$$$$
ligand
 OpenBabel11021811513D
libRbt.so/2013.1/901 2013/11/27
 10 11  0  0  0  0  0  0  0  0999 V2000
  -29.9191   16.8350  -14.4769 N   0  0  0  0  0  0  0  0  0  0  0  0
  -30.9034   17.6782  -14.1413 C   0  0  0  0  0  0  0  0  0  0  0  0
  -31.5572   18.5494  -14.9077 N   0  0  0  0  0  0  0  0  0  0  0  0
  -31.1025   18.5095  -16.1699 C   0  0  0  0  0  0  0  0  0  0  0  0
  -30.0987   17.7001  -16.6646 C   0  0  0  0  0  0  0  0  0  0  0  0
  -29.4840   16.8184  -15.7532 C   0  0  0  0  0  0  0  0  0  0  0  0
  -28.5004   15.9775  -16.0915 N   0  0  0  0  0  0  0  0  0  0  0  0
  -29.8999   17.9334  -18.0149 N   0  0  0  0  0  0  0  0  0  0  0  0
  -30.7751   18.8680  -18.3041 C   0  0  0  0  0  0  0  0  0  0  0  0
  -31.5342   19.2630  -17.2380 N   0  0  0  0  0  0  0  0  0  0  0  0
  1  2  2  0  0  0  0
  1  6  1  0  0  0  0
  2  3  1  0  0  0  0
  3  4  2  0  0  0  0
  4  5  1  0  0  0  0
  4 10  1  0  0  0  0
  5  6  2  0  0  0  0
  5  8  1  0  0  0  0
  6  7  1  0  0  0  0
  8  9  1  0  0  0  0
  9 10  2  0  0  0  0
M  END
>  <CHROM.1>
-30.37013081,17.80545986,-16.17387473,1.07004363,-0.74316595,1.87654071

>  <Name>
ligand

>  <RI>
0

>  <Rbt.Current_Directory>
/home/itssahil/PROJECTS/Mol_Feturizer/New_Systems/rnas/4TZY

>  <Rbt.Executable>
rbdock ($Id: //depot/dev/client3/rdock/2013.1/src/exe/rbdock.cxx#4 $)

>  <Rbt.Library>
libRbt.so (2013.1, Build901 2013/11/27)

>  <Rbt.Parameter_File>
/export/apps/rDock/src/rDock_2013.1_src/data/scripts/dock_solv.prm

>  <Rbt.Receptor>
prm/blind_docking_80.prm

>  <SCORE>
-14.2857

>  <SCORE.INTER>
-14.2858

>  <SCORE.INTER.CONST>
1

>  <SCORE.INTER.POLAR>
0

>  <SCORE.INTER.ROT>
0

>  <SCORE.INTER.SOLV>
7.12688

>  <SCORE.INTER.VDW>
-15.4995

>  <SCORE.INTER.norm>
-1.42858

>  <SCORE.INTRA>
0

>  <SCORE.INTRA.DIHEDRAL>
0

>  <SCORE.INTRA.DIHEDRAL.0>
0

>  <SCORE.INTRA.POLAR>
0

>  <SCORE.INTRA.POLAR.0>
0

>  <SCORE.INTRA.REPUL>
0

>  <SCORE.INTRA.REPUL.0>
0

>  <SCORE.INTRA.SOLV>
0

>  <SCORE.INTRA.SOLV.lig_0>
-23.8941

>  <SCORE.INTRA.VDW>
0

>  <SCORE.INTRA.VDW.0>
0

>  <SCORE.INTRA.norm>
0

>  <SCORE.RESTR>
0.000121915

>  <SCORE.RESTR.CAVITY>
0.000121915

>  <SCORE.RESTR.norm>
1.21915e-05

>  <SCORE.SYSTEM>
0

>  <SCORE.SYSTEM.CONST>
0

>  <SCORE.SYSTEM.DIHEDRAL>
0

>  <SCORE.SYSTEM.SOLV>
0

>  <SCORE.SYSTEM.norm>
0

>  <SCORE.heavy>
10

>  <SCORE.norm>
-1.42857

>  <RMSD>
0.518

$$$$
ligand
 OpenBabel11021811513D
libRbt.so/2013.1/901 2013/11/27
 10 11  0  0  0  0  0  0  0  0999 V2000
  -29.8811   16.8164  -14.5330 N   0  0  0  0  0  0  0  0  0  0  0  0
  -30.8938   17.6262  -14.1997 C   0  0  0  0  0  0  0  0  0  0  0  0
  -31.5771   18.4724  -14.9685 N   0  0  0  0  0  0  0  0  0  0  0  0
  -31.1213   18.4447  -16.2305 C   0  0  0  0  0  0  0  0  0  0  0  0
  -30.0902   17.6689  -16.7231 C   0  0  0  0  0  0  0  0  0  0  0  0
  -29.4456   16.8113  -15.8094 C   0  0  0  0  0  0  0  0  0  0  0  0
  -28.4337   16.0038  -16.1455 N   0  0  0  0  0  0  0  0  0  0  0  0
  -29.8994   17.9053  -18.0740 N   0  0  0  0  0  0  0  0  0  0  0  0
  -30.8062   18.8085  -18.3657 C   0  0  0  0  0  0  0  0  0  0  0  0
  -31.5785   19.1800  -17.3006 N   0  0  0  0  0  0  0  0  0  0  0  0
  1  2  2  0  0  0  0
  1  6  1  0  0  0  0
  2  3  1  0  0  0  0
  3  4  2  0  0  0  0
  4  5  1  0  0  0  0
  4 10  1  0  0  0  0
  5  6  2  0  0  0  0
  5  8  1  0  0  0  0
  6  7  1  0  0  0  0
  8  9  1  0  0  0  0
  9 10  2  0  0  0  0
M  END
>  <CHROM.1>
-30.36511454,17.76621657,-16.23264577,1.05648330,-0.71036081,1.86484699

>  <Name>
ligand

>  <RI>
0

>  <Rbt.Current_Directory>
/home/itssahil/PROJECTS/Mol_Feturizer/New_Systems/rnas/4TZY

>  <Rbt.Executable>
rbdock ($Id: //depot/dev/client3/rdock/2013.1/src/exe/rbdock.cxx#4 $)

>  <Rbt.Library>
libRbt.so (2013.1, Build901 2013/11/27)

>  <Rbt.Parameter_File>
/export/apps/rDock/src/rDock_2013.1_src/data/scripts/dock_solv.prm

>  <Rbt.Receptor>
prm/pocket_docking_5.prm

>  <SCORE>
-14.3519

>  <SCORE.INTER>
-14.3525

>  <SCORE.INTER.CONST>
1

>  <SCORE.INTER.POLAR>
0

>  <SCORE.INTER.ROT>
0

>  <SCORE.INTER.SOLV>
7.1227

>  <SCORE.INTER.VDW>
-15.5425

>  <SCORE.INTER.norm>
-1.43525

>  <SCORE.INTRA>
0

>  <SCORE.INTRA.DIHEDRAL>
0

>  <SCORE.INTRA.DIHEDRAL.0>
0

>  <SCORE.INTRA.POLAR>
0

>  <SCORE.INTRA.POLAR.0>
0

>  <SCORE.INTRA.REPUL>
0

>  <SCORE.INTRA.REPUL.0>
0

>  <SCORE.INTRA.SOLV>
0

>  <SCORE.INTRA.SOLV.lig_0>
-23.8941

>  <SCORE.INTRA.VDW>
0

>  <SCORE.INTRA.VDW.0>
0

>  <SCORE.INTRA.norm>
0

>  <SCORE.RESTR>
0.00057162

>  <SCORE.RESTR.CAVITY>
0.00057162

>  <SCORE.RESTR.norm>
5.7162e-05

>  <SCORE.SYSTEM>
0

>  <SCORE.SYSTEM.CONST>
0

>  <SCORE.SYSTEM.DIHEDRAL>
0

>  <SCORE.SYSTEM.SOLV>
0

>  <SCORE.SYSTEM.norm>
0

>  <SCORE.heavy>
10

>  <SCORE.norm>
-1.43519

>  <RMSD>
0.518

$$$$
ligand
 OpenBabel11021811513D
libRbt.so/2013.1/901 2013/11/27
 10 11  0  0  0  0  0  0  0  0999 V2000
  -29.9632   16.8412  -14.6370 N   0  0  0  0  0  0  0  0  0  0  0  0
  -30.9481   17.6924  -14.3241 C   0  0  0  0  0  0  0  0  0  0  0  0
  -31.5877   18.5578  -15.1090 N   0  0  0  0  0  0  0  0  0  0  0  0
  -31.1162   18.5017  -16.3644 C   0  0  0  0  0  0  0  0  0  0  0  0
  -30.1095   17.6825  -16.8364 C   0  0  0  0  0  0  0  0  0  0  0  0
  -29.5111   16.8085  -15.9071 C   0  0  0  0  0  0  0  0  0  0  0  0
  -28.5268   15.9595  -16.2227 N   0  0  0  0  0  0  0  0  0  0  0  0
  -29.8915   17.8998  -18.1864 N   0  0  0  0  0  0  0  0  0  0  0  0
  -30.7585   18.8349  -18.4979 C   0  0  0  0  0  0  0  0  0  0  0  0
  -31.5301   19.2451  -17.4465 N   0  0  0  0  0  0  0  0  0  0  0  0
  1  2  2  0  0  0  0
  1  6  1  0  0  0  0
  2  3  1  0  0  0  0
  3  4  2  0  0  0  0
  4  5  1  0  0  0  0
  4 10  1  0  0  0  0
  5  6  2  0  0  0  0
  5  8  1  0  0  0  0
  6  7  1  0  0  0  0
  8  9  1  0  0  0  0
  9 10  2  0  0  0  0
M  END
>  <CHROM.1>
-30.38702078,17.79455824,-16.35063860,1.08930413,-0.74332606,1.87840685

>  <Name>
ligand

>  <RI>
0

>  <Rbt.Current_Directory>
/home/itssahil/PROJECTS/Mol_Feturizer/New_Systems/rnas/4TZY

>  <Rbt.Executable>
rbdock ($Id: //depot/dev/client3/rdock/2013.1/src/exe/rbdock.cxx#4 $)

>  <Rbt.Library>
libRbt.so (2013.1, Build901 2013/11/27)

>  <Rbt.Parameter_File>
/export/apps/rDock/src/rDock_2013.1_src/data/scripts/dock_solv.prm

>  <Rbt.Receptor>
prm/pocket_docking_6.prm

>  <SCORE>
-14.3519

>  <SCORE.INTER>
-14.3604

>  <SCORE.INTER.CONST>
1

>  <SCORE.INTER.POLAR>
0

>  <SCORE.INTER.ROT>
0

>  <SCORE.INTER.SOLV>
7.4525

>  <SCORE.INTER.VDW>
-15.6578

>  <SCORE.INTER.norm>
-1.43604

>  <SCORE.INTRA>
0

>  <SCORE.INTRA.DIHEDRAL>
0

>  <SCORE.INTRA.DIHEDRAL.0>
0

>  <SCORE.INTRA.POLAR>
0

>  <SCORE.INTRA.POLAR.0>
0

>  <SCORE.INTRA.REPUL>
0

>  <SCORE.INTRA.REPUL.0>
0

>  <SCORE.INTRA.SOLV>
0

>  <SCORE.INTRA.SOLV.lig_0>
-23.8941

>  <SCORE.INTRA.VDW>
0

>  <SCORE.INTRA.VDW.0>
0

>  <SCORE.INTRA.norm>
0

>  <SCORE.RESTR>
0.00851474

>  <SCORE.RESTR.CAVITY>
0.00851474

>  <SCORE.RESTR.norm>
0.000851474

>  <SCORE.SYSTEM>
0

>  <SCORE.SYSTEM.CONST>
0

>  <SCORE.SYSTEM.DIHEDRAL>
0

>  <SCORE.SYSTEM.SOLV>
0

>  <SCORE.SYSTEM.norm>
0

>  <SCORE.heavy>
10

>  <SCORE.norm>
-1.43519

>  <RMSD>
0.518

$$$$
ligand
 OpenBabel11021811513D
libRbt.so/2013.1/901 2013/11/27
 10 11  0  0  0  0  0  0  0  0999 V2000
  -29.9017   16.8218  -14.4777 N   0  0  0  0  0  0  0  0  0  0  0  0
  -30.8912   17.6569  -14.1375 C   0  0  0  0  0  0  0  0  0  0  0  0
  -31.5535   18.5250  -14.9003 N   0  0  0  0  0  0  0  0  0  0  0  0
  -31.1020   18.4913  -16.1637 C   0  0  0  0  0  0  0  0  0  0  0  0
  -30.0935   17.6905  -16.6630 C   0  0  0  0  0  0  0  0  0  0  0  0
  -29.4699   16.8113  -15.7553 C   0  0  0  0  0  0  0  0  0  0  0  0
  -28.4810   15.9785  -16.0982 N   0  0  0  0  0  0  0  0  0  0  0  0
  -29.9001   17.9283  -18.0132 N   0  0  0  0  0  0  0  0  0  0  0  0
  -30.7830   18.8571  -18.2980 C   0  0  0  0  0  0  0  0  0  0  0  0
  -31.5421   19.2441  -17.2289 N   0  0  0  0  0  0  0  0  0  0  0  0
  1  2  2  0  0  0  0
  1  6  1  0  0  0  0
  2  3  1  0  0  0  0
  3  4  2  0  0  0  0
  4  5  1  0  0  0  0
  4 10  1  0  0  0  0
  5  6  2  0  0  0  0
  5  8  1  0  0  0  0
  6  7  1  0  0  0  0
  8  9  1  0  0  0  0
  9 10  2  0  0  0  0
M  END
>  <CHROM.1>
-30.36443769,17.79273843,-16.17127943,1.06356818,-0.73694371,1.87447275

>  <Name>
ligand

>  <RI>
0

>  <Rbt.Current_Directory>
/home/itssahil/PROJECTS/Mol_Feturizer/New_Systems/rnas/4TZY

>  <Rbt.Executable>
rbdock ($Id: //depot/dev/client3/rdock/2013.1/src/exe/rbdock.cxx#4 $)

>  <Rbt.Library>
libRbt.so (2013.1, Build901 2013/11/27)

>  <Rbt.Parameter_File>
/export/apps/rDock/src/rDock_2013.1_src/data/scripts/dock_solv.prm

>  <Rbt.Receptor>
prm/pocket_docking_8.prm

>  <SCORE>
-14.3331

>  <SCORE.INTER>
-14.3331

>  <SCORE.INTER.CONST>
1

>  <SCORE.INTER.POLAR>
0

>  <SCORE.INTER.ROT>
0

>  <SCORE.INTER.SOLV>
7.10633

>  <SCORE.INTER.VDW>
-15.5242

>  <SCORE.INTER.norm>
-1.43331

>  <SCORE.INTRA>
0

>  <SCORE.INTRA.DIHEDRAL>
0

>  <SCORE.INTRA.DIHEDRAL.0>
0

>  <SCORE.INTRA.POLAR>
0

>  <SCORE.INTRA.POLAR.0>
0

>  <SCORE.INTRA.REPUL>
0

>  <SCORE.INTRA.REPUL.0>
0

>  <SCORE.INTRA.SOLV>
0

>  <SCORE.INTRA.SOLV.lig_0>
-23.8941

>  <SCORE.INTRA.VDW>
0

>  <SCORE.INTRA.VDW.0>
0

>  <SCORE.INTRA.norm>
0

>  <SCORE.RESTR>
0

>  <SCORE.RESTR.CAVITY>
0

>  <SCORE.RESTR.norm>
0

>  <SCORE.SYSTEM>
0

>  <SCORE.SYSTEM.CONST>
0

>  <SCORE.SYSTEM.DIHEDRAL>
0

>  <SCORE.SYSTEM.SOLV>
0

>  <SCORE.SYSTEM.norm>
0

>  <SCORE.heavy>
10

>  <SCORE.norm>
-1.43331

>  <RMSD>
0.518

$$$$
ligand
 OpenBabel11021811513D
libRbt.so/2013.1/901 2013/11/27
 10 11  0  0  0  0  0  0  0  0999 V2000
  -29.8629   16.8078  -14.5383 N   0  0  0  0  0  0  0  0  0  0  0  0
  -30.8734   17.6174  -14.1979 C   0  0  0  0  0  0  0  0  0  0  0  0
  -31.5605   18.4653  -14.9615 N   0  0  0  0  0  0  0  0  0  0  0  0
  -31.1115   18.4397  -16.2260 C   0  0  0  0  0  0  0  0  0  0  0  0
  -30.0834   17.6645  -16.7256 C   0  0  0  0  0  0  0  0  0  0  0  0
  -29.4342   16.8050  -15.8170 C   0  0  0  0  0  0  0  0  0  0  0  0
  -28.4245   15.9976  -16.1600 N   0  0  0  0  0  0  0  0  0  0  0  0
  -29.8998   17.9033  -18.0770 N   0  0  0  0  0  0  0  0  0  0  0  0
  -30.8078   18.8074  -18.3622 C   0  0  0  0  0  0  0  0  0  0  0  0
  -31.5741   19.1773  -17.2922 N   0  0  0  0  0  0  0  0  0  0  0  0
  1  2  2  0  0  0  0
  1  6  1  0  0  0  0
  2  3  1  0  0  0  0
  3  4  2  0  0  0  0
  4  5  1  0  0  0  0
  4 10  1  0  0  0  0
  5  6  2  0  0  0  0
  5  8  1  0  0  0  0
  6  7  1  0  0  0  0
  8  9  1  0  0  0  0
  9 10  2  0  0  0  0
M  END
>  <CHROM.1>
-30.35561796,17.76099795,-16.23346215,1.04981790,-0.71230147,1.86236396

>  <Name>
ligand

>  <RI>
0

>  <Rbt.Current_Directory>
/home/itssahil/PROJECTS/Mol_Feturizer/New_Systems/rnas/4TZY

>  <Rbt.Executable>
rbdock ($Id: //depot/dev/client3/rdock/2013.1/src/exe/rbdock.cxx#4 $)

>  <Rbt.Library>
libRbt.so (2013.1, Build901 2013/11/27)

>  <Rbt.Parameter_File>
/export/apps/rDock/src/rDock_2013.1_src/data/scripts/dock_solv.prm

>  <Rbt.Receptor>
prm/blind_docking_80.prm

>  <SCORE>
-14.3596

>  <SCORE.INTER>
-14.3597

>  <SCORE.INTER.CONST>
1

>  <SCORE.INTER.POLAR>
0

>  <SCORE.INTER.ROT>
0

>  <SCORE.INTER.SOLV>
7.14128

>  <SCORE.INTER.VDW>
-15.5536

>  <SCORE.INTER.norm>
-1.43597

>  <SCORE.INTRA>
0

>  <SCORE.INTRA.DIHEDRAL>
0

>  <SCORE.INTRA.DIHEDRAL.0>
0

>  <SCORE.INTRA.POLAR>
0

>  <SCORE.INTRA.POLAR.0>
0

>  <SCORE.INTRA.REPUL>
0

>  <SCORE.INTRA.REPUL.0>
0

>  <SCORE.INTRA.SOLV>
0

>  <SCORE.INTRA.SOLV.lig_0>
-23.8941

>  <SCORE.INTRA.VDW>
0

>  <SCORE.INTRA.VDW.0>
0

>  <SCORE.INTRA.norm>
0

>  <SCORE.RESTR>
0.000185768

>  <SCORE.RESTR.CAVITY>
0.000185768

>  <SCORE.RESTR.norm>
1.85768e-05

>  <SCORE.SYSTEM>
0

>  <SCORE.SYSTEM.CONST>
0

>  <SCORE.SYSTEM.DIHEDRAL>
0

>  <SCORE.SYSTEM.SOLV>
0

>  <SCORE.SYSTEM.norm>
0

>  <SCORE.heavy>
10

>  <SCORE.norm>
-1.43596

>  <RMSD>
0.520

$$$$
ligand
 OpenBabel11021811513D
libRbt.so/2013.1/901 2013/11/27
 10 11  0  0  0  0  0  0  0  0999 V2000
  -29.9120   16.8791  -14.4978 N   0  0  0  0  0  0  0  0  0  0  0  0
  -30.8939   17.7285  -14.1708 C   0  0  0  0  0  0  0  0  0  0  0  0
  -31.5483   18.5905  -14.9471 N   0  0  0  0  0  0  0  0  0  0  0  0
  -31.0971   18.5329  -16.2098 C   0  0  0  0  0  0  0  0  0  0  0  0
  -30.0960   17.7152  -16.6964 C   0  0  0  0  0  0  0  0  0  0  0  0
  -29.4804   16.8447  -15.7750 C   0  0  0  0  0  0  0  0  0  0  0  0
  -28.4992   15.9976  -16.1047 N   0  0  0  0  0  0  0  0  0  0  0  0
  -29.9006   17.9300  -18.0503 N   0  0  0  0  0  0  0  0  0  0  0  0
  -30.7750   18.8622  -18.3496 C   0  0  0  0  0  0  0  0  0  0  0  0
  -31.5304   19.2728  -17.2867 N   0  0  0  0  0  0  0  0  0  0  0  0
  1  2  2  0  0  0  0
  1  6  1  0  0  0  0
  2  3  1  0  0  0  0
  3  4  2  0  0  0  0
  4  5  1  0  0  0  0
  4 10  1  0  0  0  0
  5  6  2  0  0  0  0
  5  8  1  0  0  0  0
  6  7  1  0  0  0  0
  8  9  1  0  0  0  0
  9 10  2  0  0  0  0
M  END
>  <CHROM.1>
-30.36597005,17.82756457,-16.20642187,1.06719456,-0.74565878,1.86123555

>  <Name>
ligand

>  <RI>
0

>  <Rbt.Current_Directory>
/home/itssahil/PROJECTS/Mol_Feturizer/New_Systems/rnas/4TZY

>  <Rbt.Executable>
rbdock ($Id: //depot/dev/client3/rdock/2013.1/src/exe/rbdock.cxx#4 $)

>  <Rbt.Library>
libRbt.so (2013.1, Build901 2013/11/27)

>  <Rbt.Parameter_File>
/export/apps/rDock/src/rDock_2013.1_src/data/scripts/dock_solv.prm

>  <Rbt.Receptor>
prm/pocket_docking_7.prm

>  <SCORE>
-14.3034

>  <SCORE.INTER>
-14.3034

>  <SCORE.INTER.CONST>
1

>  <SCORE.INTER.POLAR>
0

>  <SCORE.INTER.ROT>
0

>  <SCORE.INTER.SOLV>
7.11959

>  <SCORE.INTER.VDW>
-15.5088

>  <SCORE.INTER.norm>
-1.43034

>  <SCORE.INTRA>
0

>  <SCORE.INTRA.DIHEDRAL>
0

>  <SCORE.INTRA.DIHEDRAL.0>
0

>  <SCORE.INTRA.POLAR>
0

>  <SCORE.INTRA.POLAR.0>
0

>  <SCORE.INTRA.REPUL>
0

>  <SCORE.INTRA.REPUL.0>
0

>  <SCORE.INTRA.SOLV>
0

>  <SCORE.INTRA.SOLV.lig_0>
-23.8941

>  <SCORE.INTRA.VDW>
0

>  <SCORE.INTRA.VDW.0>
0

>  <SCORE.INTRA.norm>
0

>  <SCORE.RESTR>
0

>  <SCORE.RESTR.CAVITY>
0

>  <SCORE.RESTR.norm>
0

>  <SCORE.SYSTEM>
0

>  <SCORE.SYSTEM.CONST>
0

>  <SCORE.SYSTEM.DIHEDRAL>
0

>  <SCORE.SYSTEM.SOLV>
0

>  <SCORE.SYSTEM.norm>
0

>  <SCORE.heavy>
10

>  <SCORE.norm>
-1.43034

>  <RMSD>
0.521

$$$$
ligand
 OpenBabel11021811513D
libRbt.so/2013.1/901 2013/11/27
 10 11  0  0  0  0  0  0  0  0999 V2000
  -29.8607   16.8246  -14.5219 N   0  0  0  0  0  0  0  0  0  0  0  0
  -30.8572   17.6495  -14.1772 C   0  0  0  0  0  0  0  0  0  0  0  0
  -31.5355   18.5069  -14.9380 N   0  0  0  0  0  0  0  0  0  0  0  0
  -31.0934   18.4735  -16.2048 C   0  0  0  0  0  0  0  0  0  0  0  0
  -30.0796   17.6824  -16.7089 C   0  0  0  0  0  0  0  0  0  0  0  0
  -29.4388   16.8141  -15.8028 C   0  0  0  0  0  0  0  0  0  0  0  0
  -28.4430   15.9914  -16.1502 N   0  0  0  0  0  0  0  0  0  0  0  0
  -29.8995   17.9172  -18.0615 N   0  0  0  0  0  0  0  0  0  0  0  0
  -30.7953   18.8346  -18.3429 C   0  0  0  0  0  0  0  0  0  0  0  0
  -31.5505   19.2169  -17.2694 N   0  0  0  0  0  0  0  0  0  0  0  0
  1  2  2  0  0  0  0
  1  6  1  0  0  0  0
  2  3  1  0  0  0  0
  3  4  2  0  0  0  0
  4  5  1  0  0  0  0
  4 10  1  0  0  0  0
  5  6  2  0  0  0  0
  5  8  1  0  0  0  0
  6  7  1  0  0  0  0
  8  9  1  0  0  0  0
  9 10  2  0  0  0  0
M  END
>  <CHROM.1>
-30.34787856,17.78347563,-16.21549659,1.04897092,-0.72814242,1.86084740

>  <Name>
ligand

>  <RI>
0

>  <Rbt.Current_Directory>
/home/itssahil/PROJECTS/Mol_Feturizer/New_Systems/rnas/4TZY

>  <Rbt.Executable>
rbdock ($Id: //depot/dev/client3/rdock/2013.1/src/exe/rbdock.cxx#4 $)

>  <Rbt.Library>
libRbt.so (2013.1, Build901 2013/11/27)

>  <Rbt.Parameter_File>
/export/apps/rDock/src/rDock_2013.1_src/data/scripts/dock_solv.prm

>  <Rbt.Receptor>
prm/pocket_docking_4.prm

>  <SCORE>
-14.3715

>  <SCORE.INTER>
-14.372

>  <SCORE.INTER.CONST>
1

>  <SCORE.INTER.POLAR>
0

>  <SCORE.INTER.ROT>
0

>  <SCORE.INTER.SOLV>
7.13737

>  <SCORE.INTER.VDW>
-15.5604

>  <SCORE.INTER.norm>
-1.4372

>  <SCORE.INTRA>
0

>  <SCORE.INTRA.DIHEDRAL>
0

>  <SCORE.INTRA.DIHEDRAL.0>
0

>  <SCORE.INTRA.POLAR>
0

>  <SCORE.INTRA.POLAR.0>
0

>  <SCORE.INTRA.REPUL>
0

>  <SCORE.INTRA.REPUL.0>
0

>  <SCORE.INTRA.SOLV>
0

>  <SCORE.INTRA.SOLV.lig_0>
-23.8941

>  <SCORE.INTRA.VDW>
0

>  <SCORE.INTRA.VDW.0>
0

>  <SCORE.INTRA.norm>
0

>  <SCORE.RESTR>
0.000490067

>  <SCORE.RESTR.CAVITY>
0.000490067

>  <SCORE.RESTR.norm>
4.90067e-05

>  <SCORE.SYSTEM>
0

>  <SCORE.SYSTEM.CONST>
0

>  <SCORE.SYSTEM.DIHEDRAL>
0

>  <SCORE.SYSTEM.SOLV>
0

>  <SCORE.SYSTEM.norm>
0

>  <SCORE.heavy>
10

>  <SCORE.norm>
-1.43715

>  <RMSD>
0.522

$$$$
ligand
 OpenBabel11021811513D
libRbt.so/2013.1/901 2013/11/27
 10 11  0  0  0  0  0  0  0  0999 V2000
  -30.0661   16.6712  -14.6346 N   0  0  0  0  0  0  0  0  0  0  0  0
  -30.9636   17.5887  -14.2537 C   0  0  0  0  0  0  0  0  0  0  0  0
  -31.5183   18.5652  -14.9698 N   0  0  0  0  0  0  0  0  0  0  0  0
  -31.0570   18.5534  -16.2301 C   0  0  0  0  0  0  0  0  0  0  0  0
  -30.1350   17.6768  -16.7678 C   0  0  0  0  0  0  0  0  0  0  0  0
  -29.6219   16.6854  -15.9078 C   0  0  0  0  0  0  0  0  0  0  0  0
  -28.7248   15.7704  -16.2913 N   0  0  0  0  0  0  0  0  0  0  0  0
  -29.8998   17.9676  -18.1010 N   0  0  0  0  0  0  0  0  0  0  0  0
  -30.6732   19.0015  -18.3379 C   0  0  0  0  0  0  0  0  0  0  0  0
  -31.3994   19.4082  -17.2534 N   0  0  0  0  0  0  0  0  0  0  0  0
  1  2  2  0  0  0  0
  1  6  1  0  0  0  0
  2  3  1  0  0  0  0
  3  4  2  0  0  0  0
  4  5  1  0  0  0  0
  4 10  1  0  0  0  0
  5  6  2  0  0  0  0
  5  8  1  0  0  0  0
  6  7  1  0  0  0  0
  8  9  1  0  0  0  0
  9 10  2  0  0  0  0
M  END
>  <CHROM.1>
-30.39945284,17.78020890,-16.27283804,1.12998115,-0.83569551,1.97838359

>  <Name>
ligand

>  <RI>
0

>  <Rbt.Current_Directory>
/home/itssahil/PROJECTS/Mol_Feturizer/New_Systems/rnas/4TZY

>  <Rbt.Executable>
rbdock ($Id: //depot/dev/client3/rdock/2013.1/src/exe/rbdock.cxx#4 $)

>  <Rbt.Library>
libRbt.so (2013.1, Build901 2013/11/27)

>  <Rbt.Parameter_File>
/export/apps/rDock/src/rDock_2013.1_src/data/scripts/dock_solv.prm

>  <Rbt.Receptor>
prm/pocket_docking_5.prm

>  <SCORE>
-14.2926

>  <SCORE.INTER>
-14.2927

>  <SCORE.INTER.CONST>
1

>  <SCORE.INTER.POLAR>
0

>  <SCORE.INTER.ROT>
0

>  <SCORE.INTER.SOLV>
8.19012

>  <SCORE.INTER.VDW>
-15.8585

>  <SCORE.INTER.norm>
-1.42927

>  <SCORE.INTRA>
0

>  <SCORE.INTRA.DIHEDRAL>
0

>  <SCORE.INTRA.DIHEDRAL.0>
0

>  <SCORE.INTRA.POLAR>
0

>  <SCORE.INTRA.POLAR.0>
0

>  <SCORE.INTRA.REPUL>
0

>  <SCORE.INTRA.REPUL.0>
0

>  <SCORE.INTRA.SOLV>
0

>  <SCORE.INTRA.SOLV.lig_0>
-23.8941

>  <SCORE.INTRA.VDW>
0

>  <SCORE.INTRA.VDW.0>
0

>  <SCORE.INTRA.norm>
0

>  <SCORE.RESTR>
0.000164542

>  <SCORE.RESTR.CAVITY>
0.000164542

>  <SCORE.RESTR.norm>
1.64542e-05

>  <SCORE.SYSTEM>
0

>  <SCORE.SYSTEM.CONST>
0

>  <SCORE.SYSTEM.DIHEDRAL>
0

>  <SCORE.SYSTEM.SOLV>
0

>  <SCORE.SYSTEM.norm>
0

>  <SCORE.heavy>
10

>  <SCORE.norm>
-1.42926

>  <RMSD>
0.522

$$$$
ligand
 OpenBabel11021811513D
libRbt.so/2013.1/901 2013/11/27
 10 11  0  0  0  0  0  0  0  0999 V2000
  -29.8828   16.8388  -14.4863 N   0  0  0  0  0  0  0  0  0  0  0  0
  -30.8697   17.6761  -14.1438 C   0  0  0  0  0  0  0  0  0  0  0  0
  -31.5355   18.5419  -14.9061 N   0  0  0  0  0  0  0  0  0  0  0  0
  -31.0909   18.5030  -16.1718 C   0  0  0  0  0  0  0  0  0  0  0  0
  -30.0860   17.6994  -16.6737 C   0  0  0  0  0  0  0  0  0  0  0  0
  -29.4581   16.8231  -15.7662 C   0  0  0  0  0  0  0  0  0  0  0  0
  -28.4719   15.9881  -16.1114 N   0  0  0  0  0  0  0  0  0  0  0  0
  -29.8998   17.9320  -18.0259 N   0  0  0  0  0  0  0  0  0  0  0  0
  -30.7835   18.8605  -18.3092 C   0  0  0  0  0  0  0  0  0  0  0  0
  -31.5362   19.2521  -17.2374 N   0  0  0  0  0  0  0  0  0  0  0  0
  1  2  2  0  0  0  0
  1  6  1  0  0  0  0
  2  3  1  0  0  0  0
  3  4  2  0  0  0  0
  4  5  1  0  0  0  0
  4 10  1  0  0  0  0
  5  6  2  0  0  0  0
  5  8  1  0  0  0  0
  6  7  1  0  0  0  0
  8  9  1  0  0  0  0
  9 10  2  0  0  0  0
M  END
>  <CHROM.1>
-30.35405090,17.80376265,-16.18089152,1.05677746,-0.73941696,1.86614235

>  <Name>
ligand

>  <RI>
0

>  <Rbt.Current_Directory>
/home/itssahil/PROJECTS/Mol_Feturizer/New_Systems/rnas/4TZY

>  <Rbt.Executable>
rbdock ($Id: //depot/dev/client3/rdock/2013.1/src/exe/rbdock.cxx#4 $)

>  <Rbt.Library>
libRbt.so (2013.1, Build901 2013/11/27)

>  <Rbt.Parameter_File>
/export/apps/rDock/src/rDock_2013.1_src/data/scripts/dock_solv.prm

>  <Rbt.Receptor>
prm/pocket_docking_4.prm

>  <SCORE>
-14.3563

>  <SCORE.INTER>
-14.3565

>  <SCORE.INTER.CONST>
1

>  <SCORE.INTER.POLAR>
0

>  <SCORE.INTER.ROT>
0

>  <SCORE.INTER.SOLV>
7.10671

>  <SCORE.INTER.VDW>
-15.5399

>  <SCORE.INTER.norm>
-1.43565

>  <SCORE.INTRA>
0

>  <SCORE.INTRA.DIHEDRAL>
0

>  <SCORE.INTRA.DIHEDRAL.0>
0

>  <SCORE.INTRA.POLAR>
0

>  <SCORE.INTRA.POLAR.0>
0

>  <SCORE.INTRA.REPUL>
0

>  <SCORE.INTRA.REPUL.0>
0

>  <SCORE.INTRA.SOLV>
0

>  <SCORE.INTRA.SOLV.lig_0>
-23.8941

>  <SCORE.INTRA.VDW>
0

>  <SCORE.INTRA.VDW.0>
0

>  <SCORE.INTRA.norm>
0

>  <SCORE.RESTR>
0.000191884

>  <SCORE.RESTR.CAVITY>
0.000191884

>  <SCORE.RESTR.norm>
1.91884e-05

>  <SCORE.SYSTEM>
0

>  <SCORE.SYSTEM.CONST>
0

>  <SCORE.SYSTEM.DIHEDRAL>
0

>  <SCORE.SYSTEM.SOLV>
0

>  <SCORE.SYSTEM.norm>
0

>  <SCORE.heavy>
10

>  <SCORE.norm>
-1.43563

>  <RMSD>
0.523

$$$$
ligand
 OpenBabel11021811513D
libRbt.so/2013.1/901 2013/11/27
 10 11  0  0  0  0  0  0  0  0999 V2000
  -29.9021   16.8228  -14.4815 N   0  0  0  0  0  0  0  0  0  0  0  0
  -30.8844   17.6646  -14.1366 C   0  0  0  0  0  0  0  0  0  0  0  0
  -31.5416   18.5401  -14.8952 N   0  0  0  0  0  0  0  0  0  0  0  0
  -31.0931   18.5067  -16.1597 C   0  0  0  0  0  0  0  0  0  0  0  0
  -30.0920   17.6996  -16.6637 C   0  0  0  0  0  0  0  0  0  0  0  0
  -29.4733   16.8128  -15.7601 C   0  0  0  0  0  0  0  0  0  0  0  0
  -28.4917   15.9733  -16.1077 N   0  0  0  0  0  0  0  0  0  0  0  0
  -29.8998   17.9400  -18.0137 N   0  0  0  0  0  0  0  0  0  0  0  0
  -30.7760   18.8765  -18.2936 C   0  0  0  0  0  0  0  0  0  0  0  0
  -31.5297   19.2661  -17.2216 N   0  0  0  0  0  0  0  0  0  0  0  0
  1  2  2  0  0  0  0
  1  6  1  0  0  0  0
  2  3  1  0  0  0  0
  3  4  2  0  0  0  0
  4  5  1  0  0  0  0
  4 10  1  0  0  0  0
  5  6  2  0  0  0  0
  5  8  1  0  0  0  0
  6  7  1  0  0  0  0
  8  9  1  0  0  0  0
  9 10  2  0  0  0  0
M  END
>  <CHROM.1>
-30.36104130,17.80244523,-16.17110558,1.06385278,-0.74505660,1.87770149

>  <Name>
ligand

>  <RI>
0

>  <Rbt.Current_Directory>
/home/itssahil/PROJECTS/Mol_Feturizer/New_Systems/rnas/4TZY

>  <Rbt.Executable>
rbdock ($Id: //depot/dev/client3/rdock/2013.1/src/exe/rbdock.cxx#4 $)

>  <Rbt.Library>
libRbt.so (2013.1, Build901 2013/11/27)

>  <Rbt.Parameter_File>
/export/apps/rDock/src/rDock_2013.1_src/data/scripts/dock_solv.prm

>  <Rbt.Receptor>
prm/pocket_docking_6.prm

>  <SCORE>
-14.3332

>  <SCORE.INTER>
-14.3334

>  <SCORE.INTER.CONST>
1

>  <SCORE.INTER.POLAR>
0

>  <SCORE.INTER.ROT>
0

>  <SCORE.INTER.SOLV>
7.13448

>  <SCORE.INTER.VDW>
-15.5337

>  <SCORE.INTER.norm>
-1.43334

>  <SCORE.INTRA>
0

>  <SCORE.INTRA.DIHEDRAL>
0

>  <SCORE.INTRA.DIHEDRAL.0>
0

>  <SCORE.INTRA.POLAR>
0

>  <SCORE.INTRA.POLAR.0>
0

>  <SCORE.INTRA.REPUL>
0

>  <SCORE.INTRA.REPUL.0>
0

>  <SCORE.INTRA.SOLV>
0

>  <SCORE.INTRA.SOLV.lig_0>
-23.8941

>  <SCORE.INTRA.VDW>
0

>  <SCORE.INTRA.VDW.0>
0

>  <SCORE.INTRA.norm>
0

>  <SCORE.RESTR>
0.000220211

>  <SCORE.RESTR.CAVITY>
0.000220211

>  <SCORE.RESTR.norm>
2.20211e-05

>  <SCORE.SYSTEM>
0

>  <SCORE.SYSTEM.CONST>
0

>  <SCORE.SYSTEM.DIHEDRAL>
0

>  <SCORE.SYSTEM.SOLV>
0

>  <SCORE.SYSTEM.norm>
0

>  <SCORE.heavy>
10

>  <SCORE.norm>
-1.43332

>  <RMSD>
0.523

$$$$
ligand
 OpenBabel11021811513D
libRbt.so/2013.1/901 2013/11/27
 10 11  0  0  0  0  0  0  0  0999 V2000
  -29.8654   16.8115  -14.5202 N   0  0  0  0  0  0  0  0  0  0  0  0
  -30.8646   17.6323  -14.1732 C   0  0  0  0  0  0  0  0  0  0  0  0
  -31.5434   18.4919  -14.9310 N   0  0  0  0  0  0  0  0  0  0  0  0
  -31.0989   18.4659  -16.1970 C   0  0  0  0  0  0  0  0  0  0  0  0
  -30.0822   17.6799  -16.7032 C   0  0  0  0  0  0  0  0  0  0  0  0
  -29.4411   16.8085  -15.8003 C   0  0  0  0  0  0  0  0  0  0  0  0
  -28.4427   15.9900  -16.1500 N   0  0  0  0  0  0  0  0  0  0  0  0
  -29.9001   17.9220  -18.0543 N   0  0  0  0  0  0  0  0  0  0  0  0
  -30.7976   18.8386  -18.3327 C   0  0  0  0  0  0  0  0  0  0  0  0
  -31.5557   19.2137  -17.2587 N   0  0  0  0  0  0  0  0  0  0  0  0
  1  2  2  0  0  0  0
  1  6  1  0  0  0  0
  2  3  1  0  0  0  0
  3  4  2  0  0  0  0
  4  5  1  0  0  0  0
  4 10  1  0  0  0  0
  5  6  2  0  0  0  0
  5  8  1  0  0  0  0
  6  7  1  0  0  0  0
  8  9  1  0  0  0  0
  9 10  2  0  0  0  0
M  END
>  <CHROM.1>
-30.35166740,17.77778744,-16.20982618,1.05048716,-0.72530155,1.86693295

>  <Name>
ligand

>  <RI>
0

>  <Rbt.Current_Directory>
/home/itssahil/PROJECTS/Mol_Feturizer/New_Systems/rnas/4TZY

>  <Rbt.Executable>
rbdock ($Id: //depot/dev/client3/rdock/2013.1/src/exe/rbdock.cxx#4 $)

>  <Rbt.Library>
libRbt.so (2013.1, Build901 2013/11/27)

>  <Rbt.Parameter_File>
/export/apps/rDock/src/rDock_2013.1_src/data/scripts/dock_solv.prm

>  <Rbt.Receptor>
prm/blind_docking_100.prm

>  <SCORE>
-14.3708

>  <SCORE.INTER>
-14.3708

>  <SCORE.INTER.CONST>
1

>  <SCORE.INTER.POLAR>
0

>  <SCORE.INTER.ROT>
0

>  <SCORE.INTER.SOLV>
7.13638

>  <SCORE.INTER.VDW>
-15.5593

>  <SCORE.INTER.norm>
-1.43708

>  <SCORE.INTRA>
0

>  <SCORE.INTRA.DIHEDRAL>
0

>  <SCORE.INTRA.DIHEDRAL.0>
0

>  <SCORE.INTRA.POLAR>
0

>  <SCORE.INTRA.POLAR.0>
0

>  <SCORE.INTRA.REPUL>
0

>  <SCORE.INTRA.REPUL.0>
0

>  <SCORE.INTRA.SOLV>
0

>  <SCORE.INTRA.SOLV.lig_0>
-23.8941

>  <SCORE.INTRA.VDW>
0

>  <SCORE.INTRA.VDW.0>
0

>  <SCORE.INTRA.norm>
0

>  <SCORE.RESTR>
0

>  <SCORE.RESTR.CAVITY>
0

>  <SCORE.RESTR.norm>
0

>  <SCORE.SYSTEM>
0

>  <SCORE.SYSTEM.CONST>
0

>  <SCORE.SYSTEM.DIHEDRAL>
0

>  <SCORE.SYSTEM.SOLV>
0

>  <SCORE.SYSTEM.norm>
0

>  <SCORE.heavy>
10

>  <SCORE.norm>
-1.43708

>  <RMSD>
0.524

$$$$
ligand
 OpenBabel11021811513D
libRbt.so/2013.1/901 2013/11/27
 10 11  0  0  0  0  0  0  0  0999 V2000
  -29.9280   16.7723  -14.6493 N   0  0  0  0  0  0  0  0  0  0  0  0
  -30.8829   17.6404  -14.2932 C   0  0  0  0  0  0  0  0  0  0  0  0
  -31.5108   18.5472  -15.0398 N   0  0  0  0  0  0  0  0  0  0  0  0
  -31.0624   18.5170  -16.3045 C   0  0  0  0  0  0  0  0  0  0  0  0
  -30.0874   17.6851  -16.8191 C   0  0  0  0  0  0  0  0  0  0  0  0
  -29.4984   16.7664  -15.9277 C   0  0  0  0  0  0  0  0  0  0  0  0
  -28.5440   15.9006  -16.2865 N   0  0  0  0  0  0  0  0  0  0  0  0
  -29.8861   17.9381  -18.1655 N   0  0  0  0  0  0  0  0  0  0  0  0
  -30.7314   18.9062  -18.4328 C   0  0  0  0  0  0  0  0  0  0  0  0
  -31.4732   19.3048  -17.3559 N   0  0  0  0  0  0  0  0  0  0  0  0
  1  2  2  0  0  0  0
  1  6  1  0  0  0  0
  2  3  1  0  0  0  0
  3  4  2  0  0  0  0
  4  5  1  0  0  0  0
  4 10  1  0  0  0  0
  5  6  2  0  0  0  0
  5  8  1  0  0  0  0
  6  7  1  0  0  0  0
  8  9  1  0  0  0  0
  9 10  2  0  0  0  0
M  END
>  <CHROM.1>
-30.35341526,17.78972794,-16.32527653,1.07882612,-0.77541312,1.90201043

>  <Name>
ligand

>  <RI>
0

>  <Rbt.Current_Directory>
/home/itssahil/PROJECTS/Mol_Feturizer/New_Systems/rnas/4TZY

>  <Rbt.Executable>
rbdock ($Id: //depot/dev/client3/rdock/2013.1/src/exe/rbdock.cxx#4 $)

>  <Rbt.Library>
libRbt.so (2013.1, Build901 2013/11/27)

>  <Rbt.Parameter_File>
/export/apps/rDock/src/rDock_2013.1_src/data/scripts/dock_solv.prm

>  <Rbt.Receptor>
prm/blind_docking_100.prm

>  <SCORE>
-14.3883

>  <SCORE.INTER>
-14.4022

>  <SCORE.INTER.CONST>
1

>  <SCORE.INTER.POLAR>
0

>  <SCORE.INTER.ROT>
0

>  <SCORE.INTER.SOLV>
7.73869

>  <SCORE.INTER.VDW>
-15.781

>  <SCORE.INTER.norm>
-1.44022

>  <SCORE.INTRA>
0

>  <SCORE.INTRA.DIHEDRAL>
0

>  <SCORE.INTRA.DIHEDRAL.0>
0

>  <SCORE.INTRA.POLAR>
0

>  <SCORE.INTRA.POLAR.0>
0

>  <SCORE.INTRA.REPUL>
0

>  <SCORE.INTRA.REPUL.0>
0

>  <SCORE.INTRA.SOLV>
0

>  <SCORE.INTRA.SOLV.lig_0>
-23.8941

>  <SCORE.INTRA.VDW>
0

>  <SCORE.INTRA.VDW.0>
0

>  <SCORE.INTRA.norm>
0

>  <SCORE.RESTR>
0.0138939

>  <SCORE.RESTR.CAVITY>
0.0138939

>  <SCORE.RESTR.norm>
0.00138939

>  <SCORE.SYSTEM>
0

>  <SCORE.SYSTEM.CONST>
0

>  <SCORE.SYSTEM.DIHEDRAL>
0

>  <SCORE.SYSTEM.SOLV>
0

>  <SCORE.SYSTEM.norm>
0

>  <SCORE.heavy>
10

>  <SCORE.norm>
-1.43883

>  <RMSD>
0.524

$$$$
ligand
 OpenBabel11021811513D
libRbt.so/2013.1/901 2013/11/27
 10 11  0  0  0  0  0  0  0  0999 V2000
  -29.9031   16.7514  -14.5740 N   0  0  0  0  0  0  0  0  0  0  0  0
  -30.8888   17.5826  -14.2135 C   0  0  0  0  0  0  0  0  0  0  0  0
  -31.5480   18.4711  -14.9551 N   0  0  0  0  0  0  0  0  0  0  0  0
  -31.0977   18.4649  -16.2194 C   0  0  0  0  0  0  0  0  0  0  0  0
  -30.0931   17.6717  -16.7382 C   0  0  0  0  0  0  0  0  0  0  0  0
  -29.4724   16.7690  -15.8519 C   0  0  0  0  0  0  0  0  0  0  0  0
  -28.4874   15.9401  -16.2150 N   0  0  0  0  0  0  0  0  0  0  0  0
  -29.8998   17.9402  -18.0827 N   0  0  0  0  0  0  0  0  0  0  0  0
  -30.7790   18.8791  -18.3449 C   0  0  0  0  0  0  0  0  0  0  0  0
  -31.5355   19.2442  -17.2663 N   0  0  0  0  0  0  0  0  0  0  0  0
  1  2  2  0  0  0  0
  1  6  1  0  0  0  0
  2  3  1  0  0  0  0
  3  4  2  0  0  0  0
  4  5  1  0  0  0  0
  4 10  1  0  0  0  0
  5  6  2  0  0  0  0
  5  8  1  0  0  0  0
  6  7  1  0  0  0  0
  8  9  1  0  0  0  0
  9 10  2  0  0  0  0
M  END
>  <CHROM.1>
-30.36313803,17.76360460,-16.24397818,1.06419866,-0.74126308,1.89823924

>  <Name>
ligand

>  <RI>
0

>  <Rbt.Current_Directory>
/home/itssahil/PROJECTS/Mol_Feturizer/New_Systems/rnas/4TZY

>  <Rbt.Executable>
rbdock ($Id: //depot/dev/client3/rdock/2013.1/src/exe/rbdock.cxx#4 $)

>  <Rbt.Library>
libRbt.so (2013.1, Build901 2013/11/27)

>  <Rbt.Parameter_File>
/export/apps/rDock/src/rDock_2013.1_src/data/scripts/dock_solv.prm

>  <Rbt.Receptor>
prm/pocket_docking_4.prm

>  <SCORE>
-14.3094

>  <SCORE.INTER>
-14.3096

>  <SCORE.INTER.CONST>
1

>  <SCORE.INTER.POLAR>
0

>  <SCORE.INTER.ROT>
0

>  <SCORE.INTER.SOLV>
7.40791

>  <SCORE.INTER.VDW>
-15.609

>  <SCORE.INTER.norm>
-1.43096

>  <SCORE.INTRA>
0

>  <SCORE.INTRA.DIHEDRAL>
0

>  <SCORE.INTRA.DIHEDRAL.0>
0

>  <SCORE.INTRA.POLAR>
0

>  <SCORE.INTRA.POLAR.0>
0

>  <SCORE.INTRA.REPUL>
0

>  <SCORE.INTRA.REPUL.0>
0

>  <SCORE.INTRA.SOLV>
0

>  <SCORE.INTRA.SOLV.lig_0>
-23.8941

>  <SCORE.INTRA.VDW>
0

>  <SCORE.INTRA.VDW.0>
0

>  <SCORE.INTRA.norm>
0

>  <SCORE.RESTR>
0.000193083

>  <SCORE.RESTR.CAVITY>
0.000193083

>  <SCORE.RESTR.norm>
1.93083e-05

>  <SCORE.SYSTEM>
0

>  <SCORE.SYSTEM.CONST>
0

>  <SCORE.SYSTEM.DIHEDRAL>
0

>  <SCORE.SYSTEM.SOLV>
0

>  <SCORE.SYSTEM.norm>
0

>  <SCORE.heavy>
10

>  <SCORE.norm>
-1.43094

>  <RMSD>
0.524

$$$$
ligand
 OpenBabel11021811513D
libRbt.so/2013.1/901 2013/11/27
 10 11  0  0  0  0  0  0  0  0999 V2000
  -29.8621   16.8115  -14.5204 N   0  0  0  0  0  0  0  0  0  0  0  0
  -30.8602   17.6330  -14.1720 C   0  0  0  0  0  0  0  0  0  0  0  0
  -31.5392   18.4935  -14.9287 N   0  0  0  0  0  0  0  0  0  0  0  0
  -31.0961   18.4676  -16.1953 C   0  0  0  0  0  0  0  0  0  0  0  0
  -30.0807   17.6809  -16.7028 C   0  0  0  0  0  0  0  0  0  0  0  0
  -29.4392   16.8087  -15.8010 C   0  0  0  0  0  0  0  0  0  0  0  0
  -28.4418   15.9894  -16.1521 N   0  0  0  0  0  0  0  0  0  0  0  0
  -29.8998   17.9233  -18.0541 N   0  0  0  0  0  0  0  0  0  0  0  0
  -30.7968   18.8408  -18.3312 C   0  0  0  0  0  0  0  0  0  0  0  0
  -31.5535   19.2161  -17.2562 N   0  0  0  0  0  0  0  0  0  0  0  0
  1  2  2  0  0  0  0
  1  6  1  0  0  0  0
  2  3  1  0  0  0  0
  3  4  2  0  0  0  0
  4  5  1  0  0  0  0
  4 10  1  0  0  0  0
  5  6  2  0  0  0  0
  5  8  1  0  0  0  0
  6  7  1  0  0  0  0
  8  9  1  0  0  0  0
  9 10  2  0  0  0  0
M  END
>  <CHROM.1>
-30.34946118,17.77884042,-16.20913593,1.04939300,-0.72640467,1.86656766

>  <Name>
ligand

>  <RI>
0

>  <Rbt.Current_Directory>
/home/itssahil/PROJECTS/Mol_Feturizer/New_Systems/rnas/4TZY

>  <Rbt.Executable>
rbdock ($Id: //depot/dev/client3/rdock/2013.1/src/exe/rbdock.cxx#4 $)

>  <Rbt.Library>
libRbt.so (2013.1, Build901 2013/11/27)

>  <Rbt.Parameter_File>
/export/apps/rDock/src/rDock_2013.1_src/data/scripts/dock_solv.prm

>  <Rbt.Receptor>
prm/pocket_docking_5.prm

>  <SCORE>
-14.3713

>  <SCORE.INTER>
-14.3715

>  <SCORE.INTER.CONST>
1

>  <SCORE.INTER.POLAR>
0

>  <SCORE.INTER.ROT>
0

>  <SCORE.INTER.SOLV>
7.14016

>  <SCORE.INTER.VDW>
-15.5611

>  <SCORE.INTER.norm>
-1.43715

>  <SCORE.INTRA>
0

>  <SCORE.INTRA.DIHEDRAL>
0

>  <SCORE.INTRA.DIHEDRAL.0>
0

>  <SCORE.INTRA.POLAR>
0

>  <SCORE.INTRA.POLAR.0>
0

>  <SCORE.INTRA.REPUL>
0

>  <SCORE.INTRA.REPUL.0>
0

>  <SCORE.INTRA.SOLV>
0

>  <SCORE.INTRA.SOLV.lig_0>
-23.8941

>  <SCORE.INTRA.VDW>
0

>  <SCORE.INTRA.VDW.0>
0

>  <SCORE.INTRA.norm>
0

>  <SCORE.RESTR>
0.000171716

>  <SCORE.RESTR.CAVITY>
0.000171716

>  <SCORE.RESTR.norm>
1.71716e-05

>  <SCORE.SYSTEM>
0

>  <SCORE.SYSTEM.CONST>
0

>  <SCORE.SYSTEM.DIHEDRAL>
0

>  <SCORE.SYSTEM.SOLV>
0

>  <SCORE.SYSTEM.norm>
0

>  <SCORE.heavy>
10

>  <SCORE.norm>
-1.43713

>  <RMSD>
0.524

$$$$
ligand
 OpenBabel11021811513D
libRbt.so/2013.1/901 2013/11/27
 10 11  0  0  0  0  0  0  0  0999 V2000
  -29.9373   16.8149  -14.6425 N   0  0  0  0  0  0  0  0  0  0  0  0
  -30.9019   17.6793  -14.3036 C   0  0  0  0  0  0  0  0  0  0  0  0
  -31.5375   18.5662  -15.0674 N   0  0  0  0  0  0  0  0  0  0  0  0
  -31.0860   18.5184  -16.3304 C   0  0  0  0  0  0  0  0  0  0  0  0
  -30.1013   17.6877  -16.8283 C   0  0  0  0  0  0  0  0  0  0  0  0
  -29.5049   16.7909  -15.9197 C   0  0  0  0  0  0  0  0  0  0  0  0
  -28.5409   15.9288  -16.2612 N   0  0  0  0  0  0  0  0  0  0  0  0
  -29.8998   17.9189  -18.1786 N   0  0  0  0  0  0  0  0  0  0  0  0
  -30.7544   18.8733  -18.4646 C   0  0  0  0  0  0  0  0  0  0  0  0
  -31.5026   19.2833  -17.3964 N   0  0  0  0  0  0  0  0  0  0  0  0
  1  2  2  0  0  0  0
  1  6  1  0  0  0  0
  2  3  1  0  0  0  0
  3  4  2  0  0  0  0
  4  5  1  0  0  0  0
  4 10  1  0  0  0  0
  5  6  2  0  0  0  0
  5  8  1  0  0  0  0
  6  7  1  0  0  0  0
  8  9  1  0  0  0  0
  9 10  2  0  0  0  0
M  END
>  <CHROM.1>
-30.36951992,17.79819398,-16.33696306,1.07704269,-0.76500293,1.88310818

>  <Name>
ligand

>  <RI>
0

>  <Rbt.Current_Directory>
/home/itssahil/PROJECTS/Mol_Feturizer/New_Systems/rnas/4TZY

>  <Rbt.Executable>
rbdock ($Id: //depot/dev/client3/rdock/2013.1/src/exe/rbdock.cxx#4 $)

>  <Rbt.Library>
libRbt.so (2013.1, Build901 2013/11/27)

>  <Rbt.Parameter_File>
/export/apps/rDock/src/rDock_2013.1_src/data/scripts/dock_solv.prm

>  <Rbt.Receptor>
prm/pocket_docking_5.prm

>  <SCORE>
-14.3604

>  <SCORE.INTER>
-14.3607

>  <SCORE.INTER.CONST>
1

>  <SCORE.INTER.POLAR>
0

>  <SCORE.INTER.ROT>
0

>  <SCORE.INTER.SOLV>
7.61166

>  <SCORE.INTER.VDW>
-15.711

>  <SCORE.INTER.norm>
-1.43607

>  <SCORE.INTRA>
0

>  <SCORE.INTRA.DIHEDRAL>
0

>  <SCORE.INTRA.DIHEDRAL.0>
0

>  <SCORE.INTRA.POLAR>
0

>  <SCORE.INTRA.POLAR.0>
0

>  <SCORE.INTRA.REPUL>
0

>  <SCORE.INTRA.REPUL.0>
0

>  <SCORE.INTRA.SOLV>
0

>  <SCORE.INTRA.SOLV.lig_0>
-23.8941

>  <SCORE.INTRA.VDW>
0

>  <SCORE.INTRA.VDW.0>
0

>  <SCORE.INTRA.norm>
0

>  <SCORE.RESTR>
0.000231313

>  <SCORE.RESTR.CAVITY>
0.000231313

>  <SCORE.RESTR.norm>
2.31313e-05

>  <SCORE.SYSTEM>
0

>  <SCORE.SYSTEM.CONST>
0

>  <SCORE.SYSTEM.DIHEDRAL>
0

>  <SCORE.SYSTEM.SOLV>
0

>  <SCORE.SYSTEM.norm>
0

>  <SCORE.heavy>
10

>  <SCORE.norm>
-1.43604

>  <RMSD>
0.524

$$$$
ligand
 OpenBabel11021811513D
libRbt.so/2013.1/901 2013/11/27
 10 11  0  0  0  0  0  0  0  0999 V2000
  -29.8997   16.7498  -14.5725 N   0  0  0  0  0  0  0  0  0  0  0  0
  -30.8976   17.5683  -14.2166 C   0  0  0  0  0  0  0  0  0  0  0  0
  -31.5662   18.4467  -14.9618 N   0  0  0  0  0  0  0  0  0  0  0  0
  -31.1116   18.4446  -16.2246 C   0  0  0  0  0  0  0  0  0  0  0  0
  -30.0948   17.6641  -16.7388 C   0  0  0  0  0  0  0  0  0  0  0  0
  -29.4651   16.7711  -15.8490 C   0  0  0  0  0  0  0  0  0  0  0  0
  -28.4679   15.9549  -16.2075 N   0  0  0  0  0  0  0  0  0  0  0  0
  -29.9006   17.9330  -18.0831 N   0  0  0  0  0  0  0  0  0  0  0  0
  -30.7914   18.8597  -18.3497 C   0  0  0  0  0  0  0  0  0  0  0  0
  -31.5563   19.2163  -17.2742 N   0  0  0  0  0  0  0  0  0  0  0  0
  1  2  2  0  0  0  0
  1  6  1  0  0  0  0
  2  3  1  0  0  0  0
  3  4  2  0  0  0  0
  4  5  1  0  0  0  0
  4 10  1  0  0  0  0
  5  6  2  0  0  0  0
  5  8  1  0  0  0  0
  6  7  1  0  0  0  0
  8  9  1  0  0  0  0
  9 10  2  0  0  0  0
M  END
>  <CHROM.1>
-30.36768730,17.75310046,-16.24563531,1.06268166,-0.72754491,1.89563948

>  <Name>
ligand

>  <RI>
0

>  <Rbt.Current_Directory>
/home/itssahil/PROJECTS/Mol_Feturizer/New_Systems/rnas/4TZY

>  <Rbt.Executable>
rbdock ($Id: //depot/dev/client3/rdock/2013.1/src/exe/rbdock.cxx#4 $)

>  <Rbt.Library>
libRbt.so (2013.1, Build901 2013/11/27)

>  <Rbt.Parameter_File>
/export/apps/rDock/src/rDock_2013.1_src/data/scripts/dock_solv.prm

>  <Rbt.Receptor>
prm/pocket_docking_6.prm

>  <SCORE>
-14.3416

>  <SCORE.INTER>
-14.3416

>  <SCORE.INTER.CONST>
1

>  <SCORE.INTER.POLAR>
0

>  <SCORE.INTER.ROT>
0

>  <SCORE.INTER.SOLV>
7.35166

>  <SCORE.INTER.VDW>
-15.6116

>  <SCORE.INTER.norm>
-1.43416

>  <SCORE.INTRA>
0

>  <SCORE.INTRA.DIHEDRAL>
0

>  <SCORE.INTRA.DIHEDRAL.0>
0

>  <SCORE.INTRA.POLAR>
0

>  <SCORE.INTRA.POLAR.0>
0

>  <SCORE.INTRA.REPUL>
0

>  <SCORE.INTRA.REPUL.0>
0

>  <SCORE.INTRA.SOLV>
0

>  <SCORE.INTRA.SOLV.lig_0>
-23.8941

>  <SCORE.INTRA.VDW>
0

>  <SCORE.INTRA.VDW.0>
0

>  <SCORE.INTRA.norm>
0

>  <SCORE.RESTR>
0

>  <SCORE.RESTR.CAVITY>
0

>  <SCORE.RESTR.norm>
0

>  <SCORE.SYSTEM>
0

>  <SCORE.SYSTEM.CONST>
0

>  <SCORE.SYSTEM.DIHEDRAL>
0

>  <SCORE.SYSTEM.SOLV>
0

>  <SCORE.SYSTEM.norm>
0

>  <SCORE.heavy>
10

>  <SCORE.norm>
-1.43416

>  <RMSD>
0.525

$$$$
ligand
 OpenBabel11021811513D
libRbt.so/2013.1/901 2013/11/27
 10 11  0  0  0  0  0  0  0  0999 V2000
  -29.9299   16.8213  -14.6406 N   0  0  0  0  0  0  0  0  0  0  0  0
  -30.9000   17.6800  -14.3034 C   0  0  0  0  0  0  0  0  0  0  0  0
  -31.5415   18.5613  -15.0689 N   0  0  0  0  0  0  0  0  0  0  0  0
  -31.0898   18.5138  -16.3318 C   0  0  0  0  0  0  0  0  0  0  0  0
  -30.0999   17.6886  -16.8283 C   0  0  0  0  0  0  0  0  0  0  0  0
  -29.4975   16.7975  -15.9179 C   0  0  0  0  0  0  0  0  0  0  0  0
  -28.5279   15.9410  -16.2578 N   0  0  0  0  0  0  0  0  0  0  0  0
  -29.9000   17.9184  -18.1790 N   0  0  0  0  0  0  0  0  0  0  0  0
  -30.7608   18.8667  -18.4668 C   0  0  0  0  0  0  0  0  0  0  0  0
  -31.5115   19.2739  -17.3993 N   0  0  0  0  0  0  0  0  0  0  0  0
  1  2  2  0  0  0  0
  1  6  1  0  0  0  0
  2  3  1  0  0  0  0
  3  4  2  0  0  0  0
  4  5  1  0  0  0  0
  4 10  1  0  0  0  0
  5  6  2  0  0  0  0
  5  8  1  0  0  0  0
  6  7  1  0  0  0  0
  8  9  1  0  0  0  0
  9 10  2  0  0  0  0
M  END
>  <CHROM.1>
-30.36869067,17.79832877,-16.33706058,1.07412442,-0.75883455,1.87909116

>  <Name>
ligand

>  <RI>
0

>  <Rbt.Current_Directory>
/home/itssahil/PROJECTS/Mol_Feturizer/New_Systems/rnas/4TZY

>  <Rbt.Executable>
rbdock ($Id: //depot/dev/client3/rdock/2013.1/src/exe/rbdock.cxx#4 $)

>  <Rbt.Library>
libRbt.so (2013.1, Build901 2013/11/27)

>  <Rbt.Parameter_File>
/export/apps/rDock/src/rDock_2013.1_src/data/scripts/dock_solv.prm

>  <Rbt.Receptor>
prm/blind_docking_100.prm

>  <SCORE>
-14.3247

>  <SCORE.INTER>
-14.3248

>  <SCORE.INTER.CONST>
1

>  <SCORE.INTER.POLAR>
0

>  <SCORE.INTER.ROT>
0

>  <SCORE.INTER.SOLV>
7.5737

>  <SCORE.INTER.VDW>
-15.6744

>  <SCORE.INTER.norm>
-1.43248

>  <SCORE.INTRA>
0

>  <SCORE.INTRA.DIHEDRAL>
0

>  <SCORE.INTRA.DIHEDRAL.0>
0

>  <SCORE.INTRA.POLAR>
0

>  <SCORE.INTRA.POLAR.0>
0

>  <SCORE.INTRA.REPUL>
0

>  <SCORE.INTRA.REPUL.0>
0

>  <SCORE.INTRA.SOLV>
0

>  <SCORE.INTRA.SOLV.lig_0>
-23.8941

>  <SCORE.INTRA.VDW>
0

>  <SCORE.INTRA.VDW.0>
0

>  <SCORE.INTRA.norm>
0

>  <SCORE.RESTR>
4.19678e-05

>  <SCORE.RESTR.CAVITY>
4.19678e-05

>  <SCORE.RESTR.norm>
4.19678e-06

>  <SCORE.SYSTEM>
0

>  <SCORE.SYSTEM.CONST>
0

>  <SCORE.SYSTEM.DIHEDRAL>
0

>  <SCORE.SYSTEM.SOLV>
0

>  <SCORE.SYSTEM.norm>
0

>  <SCORE.heavy>
10

>  <SCORE.norm>
-1.43247

>  <RMSD>
0.526

$$$$
ligand
 OpenBabel11021811513D
libRbt.so/2013.1/901 2013/11/27
 10 11  0  0  0  0  0  0  0  0999 V2000
  -29.9796   16.7925  -14.6663 N   0  0  0  0  0  0  0  0  0  0  0  0
  -30.9511   17.6520  -14.3347 C   0  0  0  0  0  0  0  0  0  0  0  0
  -31.5794   18.5419  -15.1011 N   0  0  0  0  0  0  0  0  0  0  0  0
  -31.1114   18.5032  -16.3584 C   0  0  0  0  0  0  0  0  0  0  0  0
  -30.1179   17.6785  -16.8487 C   0  0  0  0  0  0  0  0  0  0  0  0
  -29.5306   16.7777  -15.9379 C   0  0  0  0  0  0  0  0  0  0  0  0
  -28.5597   15.9206  -16.2722 N   0  0  0  0  0  0  0  0  0  0  0  0
  -29.8995   17.9187  -18.1947 N   0  0  0  0  0  0  0  0  0  0  0  0
  -30.7532   18.8724  -18.4859 C   0  0  0  0  0  0  0  0  0  0  0  0
  -31.5164   19.2735  -17.4250 N   0  0  0  0  0  0  0  0  0  0  0  0
  1  2  2  0  0  0  0
  1  6  1  0  0  0  0
  2  3  1  0  0  0  0
  3  4  2  0  0  0  0
  4  5  1  0  0  0  0
  4 10  1  0  0  0  0
  5  6  2  0  0  0  0
  5  8  1  0  0  0  0
  6  7  1  0  0  0  0
  8  9  1  0  0  0  0
  9 10  2  0  0  0  0
M  END
>  <CHROM.1>
-30.39274664,17.78516110,-16.36015727,1.09280222,-0.75811454,1.90021442

>  <Name>
ligand

>  <RI>
0

>  <Rbt.Current_Directory>
/home/itssahil/PROJECTS/Mol_Feturizer/New_Systems/rnas/4TZY

>  <Rbt.Executable>
rbdock ($Id: //depot/dev/client3/rdock/2013.1/src/exe/rbdock.cxx#4 $)

>  <Rbt.Library>
libRbt.so (2013.1, Build901 2013/11/27)

>  <Rbt.Parameter_File>
/export/apps/rDock/src/rDock_2013.1_src/data/scripts/dock_solv.prm

>  <Rbt.Receptor>
prm/blind_docking_60.prm

>  <SCORE>
-14.3637

>  <SCORE.INTER>
-14.3642

>  <SCORE.INTER.CONST>
1

>  <SCORE.INTER.POLAR>
0

>  <SCORE.INTER.ROT>
0

>  <SCORE.INTER.SOLV>
7.67319

>  <SCORE.INTER.VDW>
-15.7339

>  <SCORE.INTER.norm>
-1.43642

>  <SCORE.INTRA>
0

>  <SCORE.INTRA.DIHEDRAL>
0

>  <SCORE.INTRA.DIHEDRAL.0>
0

>  <SCORE.INTRA.POLAR>
0

>  <SCORE.INTRA.POLAR.0>
0

>  <SCORE.INTRA.REPUL>
0

>  <SCORE.INTRA.REPUL.0>
0

>  <SCORE.INTRA.SOLV>
0

>  <SCORE.INTRA.SOLV.lig_0>
-23.8941

>  <SCORE.INTRA.VDW>
0

>  <SCORE.INTRA.VDW.0>
0

>  <SCORE.INTRA.norm>
0

>  <SCORE.RESTR>
0.000520203

>  <SCORE.RESTR.CAVITY>
0.000520203

>  <SCORE.RESTR.norm>
5.20203e-05

>  <SCORE.SYSTEM>
0

>  <SCORE.SYSTEM.CONST>
0

>  <SCORE.SYSTEM.DIHEDRAL>
0

>  <SCORE.SYSTEM.SOLV>
0

>  <SCORE.SYSTEM.norm>
0

>  <SCORE.heavy>
10

>  <SCORE.norm>
-1.43637

>  <RMSD>
0.526

$$$$
ligand
 OpenBabel11021811513D
libRbt.so/2013.1/901 2013/11/27
 10 11  0  0  0  0  0  0  0  0999 V2000
  -29.9389   16.8025  -14.6466 N   0  0  0  0  0  0  0  0  0  0  0  0
  -30.8951   17.6732  -14.3000 C   0  0  0  0  0  0  0  0  0  0  0  0
  -31.5246   18.5704  -15.0568 N   0  0  0  0  0  0  0  0  0  0  0  0
  -31.0766   18.5264  -16.3211 C   0  0  0  0  0  0  0  0  0  0  0  0
  -30.1005   17.6902  -16.8266 C   0  0  0  0  0  0  0  0  0  0  0  0
  -29.5098   16.7826  -15.9249 C   0  0  0  0  0  0  0  0  0  0  0  0
  -28.5542   15.9143  -16.2741 N   0  0  0  0  0  0  0  0  0  0  0  0
  -29.9001   17.9280  -18.1759 N   0  0  0  0  0  0  0  0  0  0  0  0
  -30.7470   18.8917  -18.4539 C   0  0  0  0  0  0  0  0  0  0  0  0
  -31.4890   19.3015  -17.3814 N   0  0  0  0  0  0  0  0  0  0  0  0
  1  2  2  0  0  0  0
  1  6  1  0  0  0  0
  2  3  1  0  0  0  0
  3  4  2  0  0  0  0
  4  5  1  0  0  0  0
  4 10  1  0  0  0  0
  5  6  2  0  0  0  0
  5  8  1  0  0  0  0
  6  7  1  0  0  0  0
  8  9  1  0  0  0  0
  9 10  2  0  0  0  0
M  END
>  <CHROM.1>
-30.36649530,17.80007194,-16.33389578,1.07764624,-0.77407102,1.88971856

>  <Name>
ligand

>  <RI>
0

>  <Rbt.Current_Directory>
/home/itssahil/PROJECTS/Mol_Feturizer/New_Systems/rnas/4TZY

>  <Rbt.Executable>
rbdock ($Id: //depot/dev/client3/rdock/2013.1/src/exe/rbdock.cxx#4 $)

>  <Rbt.Library>
libRbt.so (2013.1, Build901 2013/11/27)

>  <Rbt.Parameter_File>
/export/apps/rDock/src/rDock_2013.1_src/data/scripts/dock_solv.prm

>  <Rbt.Receptor>
prm/pocket_docking_8.prm

>  <SCORE>
-14.3838

>  <SCORE.INTER>
-14.3838

>  <SCORE.INTER.CONST>
1

>  <SCORE.INTER.POLAR>
0

>  <SCORE.INTER.ROT>
0

>  <SCORE.INTER.SOLV>
7.68958

>  <SCORE.INTER.VDW>
-15.7524

>  <SCORE.INTER.norm>
-1.43838

>  <SCORE.INTRA>
0

>  <SCORE.INTRA.DIHEDRAL>
0

>  <SCORE.INTRA.DIHEDRAL.0>
0

>  <SCORE.INTRA.POLAR>
0

>  <SCORE.INTRA.POLAR.0>
0

>  <SCORE.INTRA.REPUL>
0

>  <SCORE.INTRA.REPUL.0>
0

>  <SCORE.INTRA.SOLV>
0

>  <SCORE.INTRA.SOLV.lig_0>
-23.8941

>  <SCORE.INTRA.VDW>
0

>  <SCORE.INTRA.VDW.0>
0

>  <SCORE.INTRA.norm>
0

>  <SCORE.RESTR>
0

>  <SCORE.RESTR.CAVITY>
0

>  <SCORE.RESTR.norm>
0

>  <SCORE.SYSTEM>
0

>  <SCORE.SYSTEM.CONST>
0

>  <SCORE.SYSTEM.DIHEDRAL>
0

>  <SCORE.SYSTEM.SOLV>
0

>  <SCORE.SYSTEM.norm>
0

>  <SCORE.heavy>
10

>  <SCORE.norm>
-1.43838

>  <RMSD>
0.526

$$$$
ligand
 OpenBabel11021811513D
libRbt.so/2013.1/901 2013/11/27
 10 11  0  0  0  0  0  0  0  0999 V2000
  -29.8666   16.8287  -14.5223 N   0  0  0  0  0  0  0  0  0  0  0  0
  -30.8608   17.6558  -14.1760 C   0  0  0  0  0  0  0  0  0  0  0  0
  -31.5358   18.5175  -14.9348 N   0  0  0  0  0  0  0  0  0  0  0  0
  -31.0929   18.4863  -16.2013 C   0  0  0  0  0  0  0  0  0  0  0  0
  -30.0812   17.6936  -16.7070 C   0  0  0  0  0  0  0  0  0  0  0  0
  -29.4438   16.8206  -15.8029 C   0  0  0  0  0  0  0  0  0  0  0  0
  -28.4503   15.9958  -16.1520 N   0  0  0  0  0  0  0  0  0  0  0  0
  -29.8993   17.9317  -18.0588 N   0  0  0  0  0  0  0  0  0  0  0  0
  -30.7921   18.8527  -18.3382 C   0  0  0  0  0  0  0  0  0  0  0  0
  -31.5468   19.2343  -17.2641 N   0  0  0  0  0  0  0  0  0  0  0  0
  1  2  2  0  0  0  0
  1  6  1  0  0  0  0
  2  3  1  0  0  0  0
  3  4  2  0  0  0  0
  4  5  1  0  0  0  0
  4 10  1  0  0  0  0
  5  6  2  0  0  0  0
  5  8  1  0  0  0  0
  6  7  1  0  0  0  0
  8  9  1  0  0  0  0
  9 10  2  0  0  0  0
M  END
>  <CHROM.1>
-30.34950102,17.79404245,-16.21348281,1.05112979,-0.73092674,1.86518279

>  <Name>
ligand

>  <RI>
0

>  <Rbt.Current_Directory>
/home/itssahil/PROJECTS/Mol_Feturizer/New_Systems/rnas/4TZY

>  <Rbt.Executable>
rbdock ($Id: //depot/dev/client3/rdock/2013.1/src/exe/rbdock.cxx#4 $)

>  <Rbt.Library>
libRbt.so (2013.1, Build901 2013/11/27)

>  <Rbt.Parameter_File>
/export/apps/rDock/src/rDock_2013.1_src/data/scripts/dock_solv.prm

>  <Rbt.Receptor>
prm/blind_docking_100.prm

>  <SCORE>
-14.37

>  <SCORE.INTER>
-14.3707

>  <SCORE.INTER.CONST>
1

>  <SCORE.INTER.POLAR>
0

>  <SCORE.INTER.ROT>
0

>  <SCORE.INTER.SOLV>
7.15137

>  <SCORE.INTER.VDW>
-15.5642

>  <SCORE.INTER.norm>
-1.43707

>  <SCORE.INTRA>
0

>  <SCORE.INTRA.DIHEDRAL>
0

>  <SCORE.INTRA.DIHEDRAL.0>
0

>  <SCORE.INTRA.POLAR>
0

>  <SCORE.INTRA.POLAR.0>
0

>  <SCORE.INTRA.REPUL>
0

>  <SCORE.INTRA.REPUL.0>
0

>  <SCORE.INTRA.SOLV>
0

>  <SCORE.INTRA.SOLV.lig_0>
-23.8941

>  <SCORE.INTRA.VDW>
0

>  <SCORE.INTRA.VDW.0>
0

>  <SCORE.INTRA.norm>
0

>  <SCORE.RESTR>
0.000656529

>  <SCORE.RESTR.CAVITY>
0.000656529

>  <SCORE.RESTR.norm>
6.56529e-05

>  <SCORE.SYSTEM>
0

>  <SCORE.SYSTEM.CONST>
0

>  <SCORE.SYSTEM.DIHEDRAL>
0

>  <SCORE.SYSTEM.SOLV>
0

>  <SCORE.SYSTEM.norm>
0

>  <SCORE.heavy>
10

>  <SCORE.norm>
-1.437

>  <RMSD>
0.527

$$$$
ligand
 OpenBabel11021811513D
libRbt.so/2013.1/901 2013/11/27
 10 11  0  0  0  0  0  0  0  0999 V2000
  -29.9533   16.7952  -14.6518 N   0  0  0  0  0  0  0  0  0  0  0  0
  -30.9160   17.6598  -14.3083 C   0  0  0  0  0  0  0  0  0  0  0  0
  -31.5457   18.5561  -15.0659 N   0  0  0  0  0  0  0  0  0  0  0  0
  -31.0900   18.5184  -16.3278 C   0  0  0  0  0  0  0  0  0  0  0  0
  -30.1066   17.6888  -16.8300 C   0  0  0  0  0  0  0  0  0  0  0  0
  -29.5165   16.7815  -15.9277 C   0  0  0  0  0  0  0  0  0  0  0  0
  -28.5544   15.9192  -16.2739 N   0  0  0  0  0  0  0  0  0  0  0  0
  -29.8995   17.9319  -18.1774 N   0  0  0  0  0  0  0  0  0  0  0  0
  -30.7497   18.8920  -18.4574 C   0  0  0  0  0  0  0  0  0  0  0  0
  -31.5001   19.2947  -17.3880 N   0  0  0  0  0  0  0  0  0  0  0  0
  1  2  2  0  0  0  0
  1  6  1  0  0  0  0
  2  3  1  0  0  0  0
  3  4  2  0  0  0  0
  4  5  1  0  0  0  0
  4 10  1  0  0  0  0
  5  6  2  0  0  0  0
  5  8  1  0  0  0  0
  6  7  1  0  0  0  0
  8  9  1  0  0  0  0
  9 10  2  0  0  0  0
M  END
>  <CHROM.1>
-30.37608196,17.79574703,-16.33856402,1.08317487,-0.76730874,1.89666844

>  <Name>
ligand

>  <RI>
0

>  <Rbt.Current_Directory>
/home/itssahil/PROJECTS/Mol_Feturizer/New_Systems/rnas/4TZY

>  <Rbt.Executable>
rbdock ($Id: //depot/dev/client3/rdock/2013.1/src/exe/rbdock.cxx#4 $)

>  <Rbt.Library>
libRbt.so (2013.1, Build901 2013/11/27)

>  <Rbt.Parameter_File>
/export/apps/rDock/src/rDock_2013.1_src/data/scripts/dock_solv.prm

>  <Rbt.Receptor>
prm/blind_docking_100.prm

>  <SCORE>
-14.4052

>  <SCORE.INTER>
-14.4057

>  <SCORE.INTER.CONST>
1

>  <SCORE.INTER.POLAR>
0

>  <SCORE.INTER.ROT>
0

>  <SCORE.INTER.SOLV>
7.68234

>  <SCORE.INTER.VDW>
-15.7646

>  <SCORE.INTER.norm>
-1.44057

>  <SCORE.INTRA>
0

>  <SCORE.INTRA.DIHEDRAL>
0

>  <SCORE.INTRA.DIHEDRAL.0>
0

>  <SCORE.INTRA.POLAR>
0

>  <SCORE.INTRA.POLAR.0>
0

>  <SCORE.INTRA.REPUL>
0

>  <SCORE.INTRA.REPUL.0>
0

>  <SCORE.INTRA.SOLV>
0

>  <SCORE.INTRA.SOLV.lig_0>
-23.8941

>  <SCORE.INTRA.VDW>
0

>  <SCORE.INTRA.VDW.0>
0

>  <SCORE.INTRA.norm>
0

>  <SCORE.RESTR>
0.000518275

>  <SCORE.RESTR.CAVITY>
0.000518275

>  <SCORE.RESTR.norm>
5.18275e-05

>  <SCORE.SYSTEM>
0

>  <SCORE.SYSTEM.CONST>
0

>  <SCORE.SYSTEM.DIHEDRAL>
0

>  <SCORE.SYSTEM.SOLV>
0

>  <SCORE.SYSTEM.norm>
0

>  <SCORE.heavy>
10

>  <SCORE.norm>
-1.44052

>  <RMSD>
0.527

$$$$
ligand
 OpenBabel11021811513D
libRbt.so/2013.1/901 2013/11/27
 10 11  0  0  0  0  0  0  0  0999 V2000
  -29.8691   16.8131  -14.5206 N   0  0  0  0  0  0  0  0  0  0  0  0
  -30.8669   17.6348  -14.1723 C   0  0  0  0  0  0  0  0  0  0  0  0
  -31.5441   18.4971  -14.9286 N   0  0  0  0  0  0  0  0  0  0  0  0
  -31.0992   18.4729  -16.1946 C   0  0  0  0  0  0  0  0  0  0  0  0
  -30.0838   17.6862  -16.7020 C   0  0  0  0  0  0  0  0  0  0  0  0
  -29.4443   16.8119  -15.8006 C   0  0  0  0  0  0  0  0  0  0  0  0
  -28.4472   15.9924  -16.1516 N   0  0  0  0  0  0  0  0  0  0  0  0
  -29.9008   17.9306  -18.0525 N   0  0  0  0  0  0  0  0  0  0  0  0
  -30.7967   18.8493  -18.3294 C   0  0  0  0  0  0  0  0  0  0  0  0
  -31.5545   19.2235  -17.2549 N   0  0  0  0  0  0  0  0  0  0  0  0
  1  2  2  0  0  0  0
  1  6  1  0  0  0  0
  2  3  1  0  0  0  0
  3  4  2  0  0  0  0
  4  5  1  0  0  0  0
  4 10  1  0  0  0  0
  5  6  2  0  0  0  0
  5  8  1  0  0  0  0
  6  7  1  0  0  0  0
  8  9  1  0  0  0  0
  9 10  2  0  0  0  0
M  END
>  <CHROM.1>
-30.35316995,17.78350780,-16.20846663,1.05153426,-0.72679907,1.86958975

>  <Name>
ligand

>  <RI>
0

>  <Rbt.Current_Directory>
/home/itssahil/PROJECTS/Mol_Feturizer/New_Systems/rnas/4TZY

>  <Rbt.Executable>
rbdock ($Id: //depot/dev/client3/rdock/2013.1/src/exe/rbdock.cxx#4 $)

>  <Rbt.Library>
libRbt.so (2013.1, Build901 2013/11/27)

>  <Rbt.Parameter_File>
/export/apps/rDock/src/rDock_2013.1_src/data/scripts/dock_solv.prm

>  <Rbt.Receptor>
prm/pocket_docking_4.prm

>  <SCORE>
-14.3686

>  <SCORE.INTER>
-14.3686

>  <SCORE.INTER.CONST>
1

>  <SCORE.INTER.POLAR>
0

>  <SCORE.INTER.ROT>
0

>  <SCORE.INTER.SOLV>
7.14605

>  <SCORE.INTER.VDW>
-15.5611

>  <SCORE.INTER.norm>
-1.43686

>  <SCORE.INTRA>
0

>  <SCORE.INTRA.DIHEDRAL>
0

>  <SCORE.INTRA.DIHEDRAL.0>
0

>  <SCORE.INTRA.POLAR>
0

>  <SCORE.INTRA.POLAR.0>
0

>  <SCORE.INTRA.REPUL>
0

>  <SCORE.INTRA.REPUL.0>
0

>  <SCORE.INTRA.SOLV>
0

>  <SCORE.INTRA.SOLV.lig_0>
-23.8941

>  <SCORE.INTRA.VDW>
0

>  <SCORE.INTRA.VDW.0>
0

>  <SCORE.INTRA.norm>
0

>  <SCORE.RESTR>
0

>  <SCORE.RESTR.CAVITY>
0

>  <SCORE.RESTR.norm>
0

>  <SCORE.SYSTEM>
0

>  <SCORE.SYSTEM.CONST>
0

>  <SCORE.SYSTEM.DIHEDRAL>
0

>  <SCORE.SYSTEM.SOLV>
0

>  <SCORE.SYSTEM.norm>
0

>  <SCORE.heavy>
10

>  <SCORE.norm>
-1.43686

>  <RMSD>
0.527

$$$$
ligand
 OpenBabel11021811513D
libRbt.so/2013.1/901 2013/11/27
 10 11  0  0  0  0  0  0  0  0999 V2000
  -29.8645   16.8204  -14.5163 N   0  0  0  0  0  0  0  0  0  0  0  0
  -30.8606   17.6445  -14.1681 C   0  0  0  0  0  0  0  0  0  0  0  0
  -31.5376   18.5062  -14.9251 N   0  0  0  0  0  0  0  0  0  0  0  0
  -31.0948   18.4787  -16.1917 C   0  0  0  0  0  0  0  0  0  0  0  0
  -30.0813   17.6894  -16.6991 C   0  0  0  0  0  0  0  0  0  0  0  0
  -29.4418   16.8160  -15.7970 C   0  0  0  0  0  0  0  0  0  0  0  0
  -28.4465   15.9942  -16.1479 N   0  0  0  0  0  0  0  0  0  0  0  0
  -29.9001   17.9308  -18.0505 N   0  0  0  0  0  0  0  0  0  0  0  0
  -30.7950   18.8503  -18.3278 C   0  0  0  0  0  0  0  0  0  0  0  0
  -31.5505   19.2279  -17.2529 N   0  0  0  0  0  0  0  0  0  0  0  0
  1  2  2  0  0  0  0
  1  6  1  0  0  0  0
  2  3  1  0  0  0  0
  3  4  2  0  0  0  0
  4  5  1  0  0  0  0
  4 10  1  0  0  0  0
  5  6  2  0  0  0  0
  5  8  1  0  0  0  0
  6  7  1  0  0  0  0
  8  9  1  0  0  0  0
  9 10  2  0  0  0  0
M  END
>  <CHROM.1>
-30.34979626,17.78817666,-16.20539768,1.05011048,-0.72876677,1.86659923

>  <Name>
ligand

>  <RI>
0

>  <Rbt.Current_Directory>
/home/itssahil/PROJECTS/Mol_Feturizer/New_Systems/rnas/4TZY

>  <Rbt.Executable>
rbdock ($Id: //depot/dev/client3/rdock/2013.1/src/exe/rbdock.cxx#4 $)

>  <Rbt.Library>
libRbt.so (2013.1, Build901 2013/11/27)

>  <Rbt.Parameter_File>
/export/apps/rDock/src/rDock_2013.1_src/data/scripts/dock_solv.prm

>  <Rbt.Receptor>
prm/pocket_docking_5.prm

>  <SCORE>
-14.3719

>  <SCORE.INTER>
-14.3719

>  <SCORE.INTER.CONST>
1

>  <SCORE.INTER.POLAR>
0

>  <SCORE.INTER.ROT>
0

>  <SCORE.INTER.SOLV>
7.14085

>  <SCORE.INTER.VDW>
-15.5615

>  <SCORE.INTER.norm>
-1.43719

>  <SCORE.INTRA>
0

>  <SCORE.INTRA.DIHEDRAL>
0

>  <SCORE.INTRA.DIHEDRAL.0>
0

>  <SCORE.INTRA.POLAR>
0

>  <SCORE.INTRA.POLAR.0>
0

>  <SCORE.INTRA.REPUL>
0

>  <SCORE.INTRA.REPUL.0>
0

>  <SCORE.INTRA.SOLV>
0

>  <SCORE.INTRA.SOLV.lig_0>
-23.8941

>  <SCORE.INTRA.VDW>
0

>  <SCORE.INTRA.VDW.0>
0

>  <SCORE.INTRA.norm>
0

>  <SCORE.RESTR>
0

>  <SCORE.RESTR.CAVITY>
0

>  <SCORE.RESTR.norm>
0

>  <SCORE.SYSTEM>
0

>  <SCORE.SYSTEM.CONST>
0

>  <SCORE.SYSTEM.DIHEDRAL>
0

>  <SCORE.SYSTEM.SOLV>
0

>  <SCORE.SYSTEM.norm>
0

>  <SCORE.heavy>
10

>  <SCORE.norm>
-1.43719

>  <RMSD>
0.527

$$$$
ligand
 OpenBabel11021811513D
libRbt.so/2013.1/901 2013/11/27
 10 11  0  0  0  0  0  0  0  0999 V2000
  -29.8645   16.8185  -14.5157 N   0  0  0  0  0  0  0  0  0  0  0  0
  -30.8611   17.6417  -14.1673 C   0  0  0  0  0  0  0  0  0  0  0  0
  -31.5384   18.5036  -14.9238 N   0  0  0  0  0  0  0  0  0  0  0  0
  -31.0952   18.4771  -16.1904 C   0  0  0  0  0  0  0  0  0  0  0  0
  -30.0812   17.6887  -16.6980 C   0  0  0  0  0  0  0  0  0  0  0  0
  -29.4414   16.8151  -15.7963 C   0  0  0  0  0  0  0  0  0  0  0  0
  -28.4455   15.9941  -16.1474 N   0  0  0  0  0  0  0  0  0  0  0  0
  -29.8998   17.9311  -18.0492 N   0  0  0  0  0  0  0  0  0  0  0  0
  -30.7951   18.8502  -18.3262 C   0  0  0  0  0  0  0  0  0  0  0  0
  -31.5511   19.2267  -17.2512 N   0  0  0  0  0  0  0  0  0  0  0  0
  1  2  2  0  0  0  0
  1  6  1  0  0  0  0
  2  3  1  0  0  0  0
  3  4  2  0  0  0  0
  4  5  1  0  0  0  0
  4 10  1  0  0  0  0
  5  6  2  0  0  0  0
  5  8  1  0  0  0  0
  6  7  1  0  0  0  0
  8  9  1  0  0  0  0
  9 10  2  0  0  0  0
M  END
>  <CHROM.1>
-30.34985462,17.78701946,-16.20431744,1.05021673,-0.72813019,1.86731398

>  <Name>
ligand

>  <RI>
0

>  <Rbt.Current_Directory>
/home/itssahil/PROJECTS/Mol_Feturizer/New_Systems/rnas/4TZY

>  <Rbt.Executable>
rbdock ($Id: //depot/dev/client3/rdock/2013.1/src/exe/rbdock.cxx#4 $)

>  <Rbt.Library>
libRbt.so (2013.1, Build901 2013/11/27)

>  <Rbt.Parameter_File>
/export/apps/rDock/src/rDock_2013.1_src/data/scripts/dock_solv.prm

>  <Rbt.Receptor>
prm/pocket_docking_6.prm

>  <SCORE>
-14.3724

>  <SCORE.INTER>
-14.3726

>  <SCORE.INTER.CONST>
1

>  <SCORE.INTER.POLAR>
0

>  <SCORE.INTER.ROT>
0

>  <SCORE.INTER.SOLV>
7.13932

>  <SCORE.INTER.VDW>
-15.5615

>  <SCORE.INTER.norm>
-1.43726

>  <SCORE.INTRA>
0

>  <SCORE.INTRA.DIHEDRAL>
0

>  <SCORE.INTRA.DIHEDRAL.0>
0

>  <SCORE.INTRA.POLAR>
0

>  <SCORE.INTRA.POLAR.0>
0

>  <SCORE.INTRA.REPUL>
0

>  <SCORE.INTRA.REPUL.0>
0

>  <SCORE.INTRA.SOLV>
0

>  <SCORE.INTRA.SOLV.lig_0>
-23.8941

>  <SCORE.INTRA.VDW>
0

>  <SCORE.INTRA.VDW.0>
0

>  <SCORE.INTRA.norm>
0

>  <SCORE.RESTR>
0.000199055

>  <SCORE.RESTR.CAVITY>
0.000199055

>  <SCORE.RESTR.norm>
1.99055e-05

>  <SCORE.SYSTEM>
0

>  <SCORE.SYSTEM.CONST>
0

>  <SCORE.SYSTEM.DIHEDRAL>
0

>  <SCORE.SYSTEM.SOLV>
0

>  <SCORE.SYSTEM.norm>
0

>  <SCORE.heavy>
10

>  <SCORE.norm>
-1.43724

>  <RMSD>
0.527

$$$$
ligand
 OpenBabel11021811513D
libRbt.so/2013.1/901 2013/11/27
 10 11  0  0  0  0  0  0  0  0999 V2000
  -29.9493   16.8022  -14.6491 N   0  0  0  0  0  0  0  0  0  0  0  0
  -30.9088   17.6704  -14.3057 C   0  0  0  0  0  0  0  0  0  0  0  0
  -31.5377   18.5666  -15.0643 N   0  0  0  0  0  0  0  0  0  0  0  0
  -31.0847   18.5244  -16.3269 C   0  0  0  0  0  0  0  0  0  0  0  0
  -30.1047   17.6908  -16.8292 C   0  0  0  0  0  0  0  0  0  0  0  0
  -29.5153   16.7841  -15.9258 C   0  0  0  0  0  0  0  0  0  0  0  0
  -28.5563   15.9182  -16.2719 N   0  0  0  0  0  0  0  0  0  0  0  0
  -29.8998   17.9299  -18.1775 N   0  0  0  0  0  0  0  0  0  0  0  0
  -30.7479   18.8917  -18.4582 C   0  0  0  0  0  0  0  0  0  0  0  0
  -31.4949   19.2992  -17.3883 N   0  0  0  0  0  0  0  0  0  0  0  0
  1  2  2  0  0  0  0
  1  6  1  0  0  0  0
  2  3  1  0  0  0  0
  3  4  2  0  0  0  0
  4  5  1  0  0  0  0
  4 10  1  0  0  0  0
  5  6  2  0  0  0  0
  5  8  1  0  0  0  0
  6  7  1  0  0  0  0
  8  9  1  0  0  0  0
  9 10  2  0  0  0  0
M  END
>  <CHROM.1>
-30.37285924,17.79975012,-16.33742275,1.08163900,-0.77063118,1.89309229

>  <Name>
ligand

>  <RI>
0

>  <Rbt.Current_Directory>
/home/itssahil/PROJECTS/Mol_Feturizer/New_Systems/rnas/4TZY

>  <Rbt.Executable>
rbdock ($Id: //depot/dev/client3/rdock/2013.1/src/exe/rbdock.cxx#4 $)

>  <Rbt.Library>
libRbt.so (2013.1, Build901 2013/11/27)

>  <Rbt.Parameter_File>
/export/apps/rDock/src/rDock_2013.1_src/data/scripts/dock_solv.prm

>  <Rbt.Receptor>
prm/pocket_docking_8.prm

>  <SCORE>
-14.3819

>  <SCORE.INTER>
-14.3821

>  <SCORE.INTER.CONST>
1

>  <SCORE.INTER.POLAR>
0

>  <SCORE.INTER.ROT>
0

>  <SCORE.INTER.SOLV>
7.67887

>  <SCORE.INTER.VDW>
-15.7477

>  <SCORE.INTER.norm>
-1.43821

>  <SCORE.INTRA>
0

>  <SCORE.INTRA.DIHEDRAL>
0

>  <SCORE.INTRA.DIHEDRAL.0>
0

>  <SCORE.INTRA.POLAR>
0

>  <SCORE.INTRA.POLAR.0>
0

>  <SCORE.INTRA.REPUL>
0

>  <SCORE.INTRA.REPUL.0>
0

>  <SCORE.INTRA.SOLV>
0

>  <SCORE.INTRA.SOLV.lig_0>
-23.8941

>  <SCORE.INTRA.VDW>
0

>  <SCORE.INTRA.VDW.0>
0

>  <SCORE.INTRA.norm>
0

>  <SCORE.RESTR>
0.000242813

>  <SCORE.RESTR.CAVITY>
0.000242813

>  <SCORE.RESTR.norm>
2.42813e-05

>  <SCORE.SYSTEM>
0

>  <SCORE.SYSTEM.CONST>
0

>  <SCORE.SYSTEM.DIHEDRAL>
0

>  <SCORE.SYSTEM.SOLV>
0

>  <SCORE.SYSTEM.norm>
0

>  <SCORE.heavy>
10

>  <SCORE.norm>
-1.43819

>  <RMSD>
0.527

$$$$
ligand
 OpenBabel11021811513D
libRbt.so/2013.1/901 2013/11/27
 10 11  0  0  0  0  0  0  0  0999 V2000
  -29.9601   16.7773  -14.4562 N   0  0  0  0  0  0  0  0  0  0  0  0
  -30.9216   17.6386  -14.1010 C   0  0  0  0  0  0  0  0  0  0  0  0
  -31.5463   18.5495  -14.8452 N   0  0  0  0  0  0  0  0  0  0  0  0
  -31.0866   18.5321  -16.1060 C   0  0  0  0  0  0  0  0  0  0  0  0
  -30.1037   17.7086  -16.6192 C   0  0  0  0  0  0  0  0  0  0  0  0
  -29.5192   16.7842  -15.7306 C   0  0  0  0  0  0  0  0  0  0  0  0
  -28.5583   15.9253  -16.0885 N   0  0  0  0  0  0  0  0  0  0  0  0
  -29.8915   17.9741  -17.9615 N   0  0  0  0  0  0  0  0  0  0  0  0
  -30.7382   18.9413  -18.2278 C   0  0  0  0  0  0  0  0  0  0  0  0
  -31.4911   19.3276  -17.1541 N   0  0  0  0  0  0  0  0  0  0  0  0
  1  2  2  0  0  0  0
  1  6  1  0  0  0  0
  2  3  1  0  0  0  0
  3  4  2  0  0  0  0
  4  5  1  0  0  0  0
  4 10  1  0  0  0  0
  5  6  2  0  0  0  0
  5  8  1  0  0  0  0
  6  7  1  0  0  0  0
  8  9  1  0  0  0  0
  9 10  2  0  0  0  0
M  END
>  <CHROM.1>
-30.37457669,17.80778650,-16.12687082,1.08876177,-0.76881650,1.91771119

>  <Name>
ligand

>  <RI>
0

>  <Rbt.Current_Directory>
/home/itssahil/PROJECTS/Mol_Feturizer/New_Systems/rnas/4TZY

>  <Rbt.Executable>
rbdock ($Id: //depot/dev/client3/rdock/2013.1/src/exe/rbdock.cxx#4 $)

>  <Rbt.Library>
libRbt.so (2013.1, Build901 2013/11/27)

>  <Rbt.Parameter_File>
/export/apps/rDock/src/rDock_2013.1_src/data/scripts/dock_solv.prm

>  <Rbt.Receptor>
prm/pocket_docking_4.prm

>  <SCORE>
-14.2707

>  <SCORE.INTER>
-14.2708

>  <SCORE.INTER.CONST>
1

>  <SCORE.INTER.POLAR>
0

>  <SCORE.INTER.ROT>
0

>  <SCORE.INTER.SOLV>
7.29875

>  <SCORE.INTER.VDW>
-15.5468

>  <SCORE.INTER.norm>
-1.42708

>  <SCORE.INTRA>
0

>  <SCORE.INTRA.DIHEDRAL>
0

>  <SCORE.INTRA.DIHEDRAL.0>
0

>  <SCORE.INTRA.POLAR>
0

>  <SCORE.INTRA.POLAR.0>
0

>  <SCORE.INTRA.REPUL>
0

>  <SCORE.INTRA.REPUL.0>
0

>  <SCORE.INTRA.SOLV>
0

>  <SCORE.INTRA.SOLV.lig_0>
-23.8941

>  <SCORE.INTRA.VDW>
0

>  <SCORE.INTRA.VDW.0>
0

>  <SCORE.INTRA.norm>
0

>  <SCORE.RESTR>
0.000134837

>  <SCORE.RESTR.CAVITY>
0.000134837

>  <SCORE.RESTR.norm>
1.34837e-05

>  <SCORE.SYSTEM>
0

>  <SCORE.SYSTEM.CONST>
0

>  <SCORE.SYSTEM.DIHEDRAL>
0

>  <SCORE.SYSTEM.SOLV>
0

>  <SCORE.SYSTEM.norm>
0

>  <SCORE.heavy>
10

>  <SCORE.norm>
-1.42707

>  <RMSD>
0.528

$$$$
ligand
 OpenBabel11021811513D
libRbt.so/2013.1/901 2013/11/27
 10 11  0  0  0  0  0  0  0  0999 V2000
  -29.9274   16.8244  -14.6351 N   0  0  0  0  0  0  0  0  0  0  0  0
  -30.9043   17.6759  -14.2990 C   0  0  0  0  0  0  0  0  0  0  0  0
  -31.5509   18.5528  -15.0651 N   0  0  0  0  0  0  0  0  0  0  0  0
  -31.0971   18.5091  -16.3274 C   0  0  0  0  0  0  0  0  0  0  0  0
  -30.1004   17.6913  -16.8226 C   0  0  0  0  0  0  0  0  0  0  0  0
  -29.4929   16.8042  -15.9117 C   0  0  0  0  0  0  0  0  0  0  0  0
  -28.5167   15.9550  -16.2505 N   0  0  0  0  0  0  0  0  0  0  0  0
  -29.9001   17.9230  -18.1730 N   0  0  0  0  0  0  0  0  0  0  0  0
  -30.7674   18.8652  -18.4618 C   0  0  0  0  0  0  0  0  0  0  0  0
  -31.5226   19.2665  -17.3953 N   0  0  0  0  0  0  0  0  0  0  0  0
  1  2  2  0  0  0  0
  1  6  1  0  0  0  0
  2  3  1  0  0  0  0
  3  4  2  0  0  0  0
  4  5  1  0  0  0  0
  4 10  1  0  0  0  0
  5  6  2  0  0  0  0
  5  8  1  0  0  0  0
  6  7  1  0  0  0  0
  8  9  1  0  0  0  0
  9 10  2  0  0  0  0
M  END
>  <CHROM.1>
-30.37074072,17.79888977,-16.33182572,1.07309328,-0.75146019,1.87876566

>  <Name>
ligand

>  <RI>
0

>  <Rbt.Current_Directory>
/home/itssahil/PROJECTS/Mol_Feturizer/New_Systems/rnas/4TZY

>  <Rbt.Executable>
rbdock ($Id: //depot/dev/client3/rdock/2013.1/src/exe/rbdock.cxx#4 $)

>  <Rbt.Library>
libRbt.so (2013.1, Build901 2013/11/27)

>  <Rbt.Parameter_File>
/export/apps/rDock/src/rDock_2013.1_src/data/scripts/dock_solv.prm

>  <Rbt.Receptor>
prm/pocket_docking_4.prm

>  <SCORE>
-14.3258

>  <SCORE.INTER>
-14.3258

>  <SCORE.INTER.CONST>
1

>  <SCORE.INTER.POLAR>
0

>  <SCORE.INTER.ROT>
0

>  <SCORE.INTER.SOLV>
7.53365

>  <SCORE.INTER.VDW>
-15.6617

>  <SCORE.INTER.norm>
-1.43258

>  <SCORE.INTRA>
0

>  <SCORE.INTRA.DIHEDRAL>
0

>  <SCORE.INTRA.DIHEDRAL.0>
0

>  <SCORE.INTRA.POLAR>
0

>  <SCORE.INTRA.POLAR.0>
0

>  <SCORE.INTRA.REPUL>
0

>  <SCORE.INTRA.REPUL.0>
0

>  <SCORE.INTRA.SOLV>
0

>  <SCORE.INTRA.SOLV.lig_0>
-23.8941

>  <SCORE.INTRA.VDW>
0

>  <SCORE.INTRA.VDW.0>
0

>  <SCORE.INTRA.norm>
0

>  <SCORE.RESTR>
0

>  <SCORE.RESTR.CAVITY>
0

>  <SCORE.RESTR.norm>
0

>  <SCORE.SYSTEM>
0

>  <SCORE.SYSTEM.CONST>
0

>  <SCORE.SYSTEM.DIHEDRAL>
0

>  <SCORE.SYSTEM.SOLV>
0

>  <SCORE.SYSTEM.norm>
0

>  <SCORE.heavy>
10

>  <SCORE.norm>
-1.43258

>  <RMSD>
0.528

$$$$
ligand
 OpenBabel11021811513D
libRbt.so/2013.1/901 2013/11/27
 10 11  0  0  0  0  0  0  0  0999 V2000
  -29.8657   16.8277  -14.5194 N   0  0  0  0  0  0  0  0  0  0  0  0
  -30.8591   17.6552  -14.1719 C   0  0  0  0  0  0  0  0  0  0  0  0
  -31.5341   18.5177  -14.9299 N   0  0  0  0  0  0  0  0  0  0  0  0
  -31.0920   18.4869  -16.1967 C   0  0  0  0  0  0  0  0  0  0  0  0
  -30.0812   17.6938  -16.7034 C   0  0  0  0  0  0  0  0  0  0  0  0
  -29.4437   16.8199  -15.8002 C   0  0  0  0  0  0  0  0  0  0  0  0
  -28.4510   15.9947  -16.1504 N   0  0  0  0  0  0  0  0  0  0  0  0
  -29.9001   17.9324  -18.0553 N   0  0  0  0  0  0  0  0  0  0  0  0
  -30.7924   18.8541  -18.3336 C   0  0  0  0  0  0  0  0  0  0  0  0
  -31.5462   19.2357  -17.2588 N   0  0  0  0  0  0  0  0  0  0  0  0
  1  2  2  0  0  0  0
  1  6  1  0  0  0  0
  2  3  1  0  0  0  0
  3  4  2  0  0  0  0
  4  5  1  0  0  0  0
  4 10  1  0  0  0  0
  5  6  2  0  0  0  0
  5  8  1  0  0  0  0
  6  7  1  0  0  0  0
  8  9  1  0  0  0  0
  9 10  2  0  0  0  0
M  END
>  <CHROM.1>
-30.34909724,17.79412297,-16.20971281,1.05052036,-0.73173720,1.86526995

>  <Name>
ligand

>  <RI>
0

>  <Rbt.Current_Directory>
/home/itssahil/PROJECTS/Mol_Feturizer/New_Systems/rnas/4TZY

>  <Rbt.Executable>
rbdock ($Id: //depot/dev/client3/rdock/2013.1/src/exe/rbdock.cxx#4 $)

>  <Rbt.Library>
libRbt.so (2013.1, Build901 2013/11/27)

>  <Rbt.Parameter_File>
/export/apps/rDock/src/rDock_2013.1_src/data/scripts/dock_solv.prm

>  <Rbt.Receptor>
prm/pocket_docking_8.prm

>  <SCORE>
-14.3708

>  <SCORE.INTER>
-14.3708

>  <SCORE.INTER.CONST>
1

>  <SCORE.INTER.POLAR>
0

>  <SCORE.INTER.ROT>
0

>  <SCORE.INTER.SOLV>
7.1503

>  <SCORE.INTER.VDW>
-15.564

>  <SCORE.INTER.norm>
-1.43708

>  <SCORE.INTRA>
0

>  <SCORE.INTRA.DIHEDRAL>
0

>  <SCORE.INTRA.DIHEDRAL.0>
0

>  <SCORE.INTRA.POLAR>
0

>  <SCORE.INTRA.POLAR.0>
0

>  <SCORE.INTRA.REPUL>
0

>  <SCORE.INTRA.REPUL.0>
0

>  <SCORE.INTRA.SOLV>
0

>  <SCORE.INTRA.SOLV.lig_0>
-23.8941

>  <SCORE.INTRA.VDW>
0

>  <SCORE.INTRA.VDW.0>
0

>  <SCORE.INTRA.norm>
0

>  <SCORE.RESTR>
0

>  <SCORE.RESTR.CAVITY>
0

>  <SCORE.RESTR.norm>
0

>  <SCORE.SYSTEM>
0

>  <SCORE.SYSTEM.CONST>
0

>  <SCORE.SYSTEM.DIHEDRAL>
0

>  <SCORE.SYSTEM.SOLV>
0

>  <SCORE.SYSTEM.norm>
0

>  <SCORE.heavy>
10

>  <SCORE.norm>
-1.43708

>  <RMSD>
0.528

$$$$
ligand
 OpenBabel11021811513D
libRbt.so/2013.1/901 2013/11/27
 10 11  0  0  0  0  0  0  0  0999 V2000
  -29.9417   16.8065  -14.6435 N   0  0  0  0  0  0  0  0  0  0  0  0
  -30.8975   17.6773  -14.2966 C   0  0  0  0  0  0  0  0  0  0  0  0
  -31.5260   18.5759  -15.0526 N   0  0  0  0  0  0  0  0  0  0  0  0
  -31.0773   18.5331  -16.3167 C   0  0  0  0  0  0  0  0  0  0  0  0
  -30.1013   17.6969  -16.8226 C   0  0  0  0  0  0  0  0  0  0  0  0
  -29.5118   16.7878  -15.9216 C   0  0  0  0  0  0  0  0  0  0  0  0
  -28.5566   15.9193  -16.2713 N   0  0  0  0  0  0  0  0  0  0  0  0
  -29.9000   17.9362  -18.1715 N   0  0  0  0  0  0  0  0  0  0  0  0
  -30.7461   18.9007  -18.4489 C   0  0  0  0  0  0  0  0  0  0  0  0
  -31.4885   19.3097  -17.3763 N   0  0  0  0  0  0  0  0  0  0  0  0
  1  2  2  0  0  0  0
  1  6  1  0  0  0  0
  2  3  1  0  0  0  0
  3  4  2  0  0  0  0
  4  5  1  0  0  0  0
  4 10  1  0  0  0  0
  5  6  2  0  0  0  0
  5  8  1  0  0  0  0
  6  7  1  0  0  0  0
  8  9  1  0  0  0  0
  9 10  2  0  0  0  0
M  END
>  <CHROM.1>
-30.36761073,17.80630000,-16.32992119,1.07875553,-0.77448766,1.89168416

>  <Name>
ligand

>  <RI>
0

>  <Rbt.Current_Directory>
/home/itssahil/PROJECTS/Mol_Feturizer/New_Systems/rnas/4TZY

>  <Rbt.Executable>
rbdock ($Id: //depot/dev/client3/rdock/2013.1/src/exe/rbdock.cxx#4 $)

>  <Rbt.Library>
libRbt.so (2013.1, Build901 2013/11/27)

>  <Rbt.Parameter_File>
/export/apps/rDock/src/rDock_2013.1_src/data/scripts/dock_solv.prm

>  <Rbt.Receptor>
prm/pocket_docking_8.prm

>  <SCORE>
-14.384

>  <SCORE.INTER>
-14.384

>  <SCORE.INTER.CONST>
1

>  <SCORE.INTER.POLAR>
0

>  <SCORE.INTER.ROT>
0

>  <SCORE.INTER.SOLV>
7.67899

>  <SCORE.INTER.VDW>
-15.749

>  <SCORE.INTER.norm>
-1.4384

>  <SCORE.INTRA>
0

>  <SCORE.INTRA.DIHEDRAL>
0

>  <SCORE.INTRA.DIHEDRAL.0>
0

>  <SCORE.INTRA.POLAR>
0

>  <SCORE.INTRA.POLAR.0>
0

>  <SCORE.INTRA.REPUL>
0

>  <SCORE.INTRA.REPUL.0>
0

>  <SCORE.INTRA.SOLV>
0

>  <SCORE.INTRA.SOLV.lig_0>
-23.8941

>  <SCORE.INTRA.VDW>
0

>  <SCORE.INTRA.VDW.0>
0

>  <SCORE.INTRA.norm>
0

>  <SCORE.RESTR>
3.19689e-05

>  <SCORE.RESTR.CAVITY>
3.19689e-05

>  <SCORE.RESTR.norm>
3.19689e-06

>  <SCORE.SYSTEM>
0

>  <SCORE.SYSTEM.CONST>
0

>  <SCORE.SYSTEM.DIHEDRAL>
0

>  <SCORE.SYSTEM.SOLV>
0

>  <SCORE.SYSTEM.norm>
0

>  <SCORE.heavy>
10

>  <SCORE.norm>
-1.4384

>  <RMSD>
0.528

$$$$
ligand
 OpenBabel11021811513D
libRbt.so/2013.1/901 2013/11/27
 10 11  0  0  0  0  0  0  0  0999 V2000
  -29.8841   16.8276  -14.4954 N   0  0  0  0  0  0  0  0  0  0  0  0
  -30.8735   17.6601  -14.1482 C   0  0  0  0  0  0  0  0  0  0  0  0
  -31.5415   18.5284  -14.9056 N   0  0  0  0  0  0  0  0  0  0  0  0
  -31.0966   18.4982  -16.1715 C   0  0  0  0  0  0  0  0  0  0  0  0
  -30.0893   17.7004  -16.6778 C   0  0  0  0  0  0  0  0  0  0  0  0
  -29.4591   16.8206  -15.7753 C   0  0  0  0  0  0  0  0  0  0  0  0
  -28.4704   15.9904  -16.1251 N   0  0  0  0  0  0  0  0  0  0  0  0
  -29.9035   17.9414  -18.0286 N   0  0  0  0  0  0  0  0  0  0  0  0
  -30.7897   18.8690  -18.3067 C   0  0  0  0  0  0  0  0  0  0  0  0
  -31.5438   19.2523  -17.2328 N   0  0  0  0  0  0  0  0  0  0  0  0
  1  2  2  0  0  0  0
  1  6  1  0  0  0  0
  2  3  1  0  0  0  0
  3  4  2  0  0  0  0
  4  5  1  0  0  0  0
  4 10  1  0  0  0  0
  5  6  2  0  0  0  0
  5  8  1  0  0  0  0
  6  7  1  0  0  0  0
  8  9  1  0  0  0  0
  9 10  2  0  0  0  0
M  END
>  <CHROM.1>
-30.35777024,17.80109652,-16.18446286,1.05593160,-0.73664600,1.87140408

>  <Name>
ligand

>  <RI>
0

>  <Rbt.Current_Directory>
/home/itssahil/PROJECTS/Mol_Feturizer/New_Systems/rnas/4TZY

>  <Rbt.Executable>
rbdock ($Id: //depot/dev/client3/rdock/2013.1/src/exe/rbdock.cxx#4 $)

>  <Rbt.Library>
libRbt.so (2013.1, Build901 2013/11/27)

>  <Rbt.Parameter_File>
/export/apps/rDock/src/rDock_2013.1_src/data/scripts/dock_solv.prm

>  <Rbt.Receptor>
prm/pocket_docking_4.prm

>  <SCORE>
-14.3404

>  <SCORE.INTER>
-14.3404

>  <SCORE.INTER.CONST>
1

>  <SCORE.INTER.POLAR>
0

>  <SCORE.INTER.ROT>
0

>  <SCORE.INTER.SOLV>
7.13098

>  <SCORE.INTER.VDW>
-15.5372

>  <SCORE.INTER.norm>
-1.43404

>  <SCORE.INTRA>
0

>  <SCORE.INTRA.DIHEDRAL>
0

>  <SCORE.INTRA.DIHEDRAL.0>
0

>  <SCORE.INTRA.POLAR>
0

>  <SCORE.INTRA.POLAR.0>
0

>  <SCORE.INTRA.REPUL>
0

>  <SCORE.INTRA.REPUL.0>
0

>  <SCORE.INTRA.SOLV>
0

>  <SCORE.INTRA.SOLV.lig_0>
-23.8941

>  <SCORE.INTRA.VDW>
0

>  <SCORE.INTRA.VDW.0>
0

>  <SCORE.INTRA.norm>
0

>  <SCORE.RESTR>
0

>  <SCORE.RESTR.CAVITY>
0

>  <SCORE.RESTR.norm>
0

>  <SCORE.SYSTEM>
0

>  <SCORE.SYSTEM.CONST>
0

>  <SCORE.SYSTEM.DIHEDRAL>
0

>  <SCORE.SYSTEM.SOLV>
0

>  <SCORE.SYSTEM.norm>
0

>  <SCORE.heavy>
10

>  <SCORE.norm>
-1.43404

>  <RMSD>
0.529

$$$$
ligand
 OpenBabel11021811513D
libRbt.so/2013.1/901 2013/11/27
 10 11  0  0  0  0  0  0  0  0999 V2000
  -29.9104   16.8137  -14.6321 N   0  0  0  0  0  0  0  0  0  0  0  0
  -30.8737   17.6752  -14.2828 C   0  0  0  0  0  0  0  0  0  0  0  0
  -31.5157   18.5647  -15.0383 N   0  0  0  0  0  0  0  0  0  0  0  0
  -31.0729   18.5230  -16.3046 C   0  0  0  0  0  0  0  0  0  0  0  0
  -30.0906   17.6958  -16.8129 C   0  0  0  0  0  0  0  0  0  0  0  0
  -29.4867   16.7958  -15.9123 C   0  0  0  0  0  0  0  0  0  0  0  0
  -28.5240   15.9365  -16.2643 N   0  0  0  0  0  0  0  0  0  0  0  0
  -29.8986   17.9332  -18.1635 N   0  0  0  0  0  0  0  0  0  0  0  0
  -30.7565   18.8877  -18.4394 C   0  0  0  0  0  0  0  0  0  0  0  0
  -31.4978   19.2920  -17.3643 N   0  0  0  0  0  0  0  0  0  0  0  0
  1  2  2  0  0  0  0
  1  6  1  0  0  0  0
  2  3  1  0  0  0  0
  3  4  2  0  0  0  0
  4  5  1  0  0  0  0
  4 10  1  0  0  0  0
  5  6  2  0  0  0  0
  5  8  1  0  0  0  0
  6  7  1  0  0  0  0
  8  9  1  0  0  0  0
  9 10  2  0  0  0  0
M  END
>  <CHROM.1>
-30.35553114,17.80378980,-16.31920987,1.06738570,-0.76585064,1.88080614

>  <Name>
ligand

>  <RI>
0

>  <Rbt.Current_Directory>
/home/itssahil/PROJECTS/Mol_Feturizer/New_Systems/rnas/4TZY

>  <Rbt.Executable>
rbdock ($Id: //depot/dev/client3/rdock/2013.1/src/exe/rbdock.cxx#4 $)

>  <Rbt.Library>
libRbt.so (2013.1, Build901 2013/11/27)

>  <Rbt.Parameter_File>
/export/apps/rDock/src/rDock_2013.1_src/data/scripts/dock_solv.prm

>  <Rbt.Receptor>
prm/pocket_docking_8.prm

>  <SCORE>
-14.3164

>  <SCORE.INTER>
-14.3177

>  <SCORE.INTER.CONST>
1

>  <SCORE.INTER.POLAR>
0

>  <SCORE.INTER.ROT>
0

>  <SCORE.INTER.SOLV>
7.60098

>  <SCORE.INTER.VDW>
-15.6788

>  <SCORE.INTER.norm>
-1.43177

>  <SCORE.INTRA>
0

>  <SCORE.INTRA.DIHEDRAL>
0

>  <SCORE.INTRA.DIHEDRAL.0>
0

>  <SCORE.INTRA.POLAR>
0

>  <SCORE.INTRA.POLAR.0>
0

>  <SCORE.INTRA.REPUL>
0

>  <SCORE.INTRA.REPUL.0>
0

>  <SCORE.INTRA.SOLV>
0

>  <SCORE.INTRA.SOLV.lig_0>
-23.8941

>  <SCORE.INTRA.VDW>
0

>  <SCORE.INTRA.VDW.0>
0

>  <SCORE.INTRA.norm>
0

>  <SCORE.RESTR>
0.00135893

>  <SCORE.RESTR.CAVITY>
0.00135893

>  <SCORE.RESTR.norm>
0.000135893

>  <SCORE.SYSTEM>
0

>  <SCORE.SYSTEM.CONST>
0

>  <SCORE.SYSTEM.DIHEDRAL>
0

>  <SCORE.SYSTEM.SOLV>
0

>  <SCORE.SYSTEM.norm>
0

>  <SCORE.heavy>
10

>  <SCORE.norm>
-1.43164

>  <RMSD>
0.529

$$$$
ligand
 OpenBabel11021811513D
libRbt.so/2013.1/901 2013/11/27
 10 11  0  0  0  0  0  0  0  0999 V2000
  -29.9489   16.7594  -14.6609 N   0  0  0  0  0  0  0  0  0  0  0  0
  -30.9030   17.6276  -14.3025 C   0  0  0  0  0  0  0  0  0  0  0  0
  -31.5260   18.5408  -15.0454 N   0  0  0  0  0  0  0  0  0  0  0  0
  -31.0731   18.5178  -16.3086 C   0  0  0  0  0  0  0  0  0  0  0  0
  -30.0983   17.6869  -16.8252 C   0  0  0  0  0  0  0  0  0  0  0  0
  -29.5148   16.7608  -15.9378 C   0  0  0  0  0  0  0  0  0  0  0  0
  -28.5613   15.8950  -16.2988 N   0  0  0  0  0  0  0  0  0  0  0  0
  -29.8916   17.9481  -18.1692 N   0  0  0  0  0  0  0  0  0  0  0  0
  -30.7336   18.9200  -18.4332 C   0  0  0  0  0  0  0  0  0  0  0  0
  -31.4782   19.3135  -17.3563 N   0  0  0  0  0  0  0  0  0  0  0  0
  1  2  2  0  0  0  0
  1  6  1  0  0  0  0
  2  3  1  0  0  0  0
  3  4  2  0  0  0  0
  4  5  1  0  0  0  0
  4 10  1  0  0  0  0
  5  6  2  0  0  0  0
  5  8  1  0  0  0  0
  6  7  1  0  0  0  0
  8  9  1  0  0  0  0
  9 10  2  0  0  0  0
M  END
>  <CHROM.1>
-30.36587546,17.78888207,-16.33167346,1.08468851,-0.77658533,1.91265684

>  <Name>
ligand

>  <RI>
0

>  <Rbt.Current_Directory>
/home/itssahil/PROJECTS/Mol_Feturizer/New_Systems/rnas/4TZY

>  <Rbt.Executable>
rbdock ($Id: //depot/dev/client3/rdock/2013.1/src/exe/rbdock.cxx#4 $)

>  <Rbt.Library>
libRbt.so (2013.1, Build901 2013/11/27)

>  <Rbt.Parameter_File>
/export/apps/rDock/src/rDock_2013.1_src/data/scripts/dock_solv.prm

>  <Rbt.Receptor>
prm/pocket_docking_5.prm

>  <SCORE>
-14.3602

>  <SCORE.INTER>
-14.3686

>  <SCORE.INTER.CONST>
1

>  <SCORE.INTER.POLAR>
0

>  <SCORE.INTER.ROT>
0

>  <SCORE.INTER.SOLV>
7.80478

>  <SCORE.INTER.VDW>
-15.7807

>  <SCORE.INTER.norm>
-1.43686

>  <SCORE.INTRA>
0

>  <SCORE.INTRA.DIHEDRAL>
0

>  <SCORE.INTRA.DIHEDRAL.0>
0

>  <SCORE.INTRA.POLAR>
0

>  <SCORE.INTRA.POLAR.0>
0

>  <SCORE.INTRA.REPUL>
0

>  <SCORE.INTRA.REPUL.0>
0

>  <SCORE.INTRA.SOLV>
0

>  <SCORE.INTRA.SOLV.lig_0>
-23.8941

>  <SCORE.INTRA.VDW>
0

>  <SCORE.INTRA.VDW.0>
0

>  <SCORE.INTRA.norm>
0

>  <SCORE.RESTR>
0.0083671

>  <SCORE.RESTR.CAVITY>
0.0083671

>  <SCORE.RESTR.norm>
0.00083671

>  <SCORE.SYSTEM>
0

>  <SCORE.SYSTEM.CONST>
0

>  <SCORE.SYSTEM.DIHEDRAL>
0

>  <SCORE.SYSTEM.SOLV>
0

>  <SCORE.SYSTEM.norm>
0

>  <SCORE.heavy>
10

>  <SCORE.norm>
-1.43602

>  <RMSD>
0.530

$$$$
ligand
 OpenBabel11021811513D
libRbt.so/2013.1/901 2013/11/27
 10 11  0  0  0  0  0  0  0  0999 V2000
  -30.0157   16.6606  -14.5313 N   0  0  0  0  0  0  0  0  0  0  0  0
  -30.9539   17.5350  -14.1471 C   0  0  0  0  0  0  0  0  0  0  0  0
  -31.5494   18.4906  -14.8585 N   0  0  0  0  0  0  0  0  0  0  0  0
  -31.0848   18.5077  -16.1175 C   0  0  0  0  0  0  0  0  0  0  0  0
  -30.1235   17.6764  -16.6582 C   0  0  0  0  0  0  0  0  0  0  0  0
  -29.5692   16.7030  -15.8032 C   0  0  0  0  0  0  0  0  0  0  0  0
  -28.6314   15.8312  -16.1900 N   0  0  0  0  0  0  0  0  0  0  0  0
  -29.8980   17.9861  -17.9888 N   0  0  0  0  0  0  0  0  0  0  0  0
  -30.7158   18.9863  -18.2212 C   0  0  0  0  0  0  0  0  0  0  0  0
  -31.4621   19.3532  -17.1362 N   0  0  0  0  0  0  0  0  0  0  0  0
  1  2  2  0  0  0  0
  1  6  1  0  0  0  0
  2  3  1  0  0  0  0
  3  4  2  0  0  0  0
  4  5  1  0  0  0  0
  4 10  1  0  0  0  0
  5  6  2  0  0  0  0
  5  8  1  0  0  0  0
  6  7  1  0  0  0  0
  8  9  1  0  0  0  0
  9 10  2  0  0  0  0
M  END
>  <CHROM.1>
-30.39354643,17.76466563,-16.16331828,1.10832935,-0.79385249,1.96918792

>  <Name>
ligand

>  <RI>
0

>  <Rbt.Current_Directory>
/home/itssahil/PROJECTS/Mol_Feturizer/New_Systems/rnas/4TZY

>  <Rbt.Executable>
rbdock ($Id: //depot/dev/client3/rdock/2013.1/src/exe/rbdock.cxx#4 $)

>  <Rbt.Library>
libRbt.so (2013.1, Build901 2013/11/27)

>  <Rbt.Parameter_File>
/export/apps/rDock/src/rDock_2013.1_src/data/scripts/dock_solv.prm

>  <Rbt.Receptor>
prm/pocket_docking_5.prm

>  <SCORE>
-14.287

>  <SCORE.INTER>
-14.287

>  <SCORE.INTER.CONST>
1

>  <SCORE.INTER.POLAR>
0

>  <SCORE.INTER.ROT>
0

>  <SCORE.INTER.SOLV>
7.76903

>  <SCORE.INTER.VDW>
-15.7143

>  <SCORE.INTER.norm>
-1.4287

>  <SCORE.INTRA>
0

>  <SCORE.INTRA.DIHEDRAL>
0

>  <SCORE.INTRA.DIHEDRAL.0>
0

>  <SCORE.INTRA.POLAR>
0

>  <SCORE.INTRA.POLAR.0>
0

>  <SCORE.INTRA.REPUL>
0

>  <SCORE.INTRA.REPUL.0>
0

>  <SCORE.INTRA.SOLV>
0

>  <SCORE.INTRA.SOLV.lig_0>
-23.8941

>  <SCORE.INTRA.VDW>
0

>  <SCORE.INTRA.VDW.0>
0

>  <SCORE.INTRA.norm>
0

>  <SCORE.RESTR>
0

>  <SCORE.RESTR.CAVITY>
0

>  <SCORE.RESTR.norm>
0

>  <SCORE.SYSTEM>
0

>  <SCORE.SYSTEM.CONST>
0

>  <SCORE.SYSTEM.DIHEDRAL>
0

>  <SCORE.SYSTEM.SOLV>
0

>  <SCORE.SYSTEM.norm>
0

>  <SCORE.heavy>
10

>  <SCORE.norm>
-1.4287

>  <RMSD>
0.530

$$$$
ligand
 OpenBabel11021811513D
libRbt.so/2013.1/901 2013/11/27
 10 11  0  0  0  0  0  0  0  0999 V2000
  -30.0207   16.6643  -14.5276 N   0  0  0  0  0  0  0  0  0  0  0  0
  -30.9574   17.5406  -14.1442 C   0  0  0  0  0  0  0  0  0  0  0  0
  -31.5502   18.4976  -14.8562 N   0  0  0  0  0  0  0  0  0  0  0  0
  -31.0844   18.5135  -16.1148 C   0  0  0  0  0  0  0  0  0  0  0  0
  -30.1244   17.6801  -16.6546 C   0  0  0  0  0  0  0  0  0  0  0  0
  -29.5730   16.7056  -15.7991 C   0  0  0  0  0  0  0  0  0  0  0  0
  -28.6368   15.8317  -16.1850 N   0  0  0  0  0  0  0  0  0  0  0  0
  -29.8971   17.9892  -17.9850 N   0  0  0  0  0  0  0  0  0  0  0  0
  -30.7125   18.9912  -18.2182 C   0  0  0  0  0  0  0  0  0  0  0  0
  -31.4589   19.3598  -17.1339 N   0  0  0  0  0  0  0  0  0  0  0  0
  1  2  2  0  0  0  0
  1  6  1  0  0  0  0
  2  3  1  0  0  0  0
  3  4  2  0  0  0  0
  4  5  1  0  0  0  0
  4 10  1  0  0  0  0
  5  6  2  0  0  0  0
  5  8  1  0  0  0  0
  6  7  1  0  0  0  0
  8  9  1  0  0  0  0
  9 10  2  0  0  0  0
M  END
>  <CHROM.1>
-30.39471953,17.76901064,-16.15997737,1.11070208,-0.79551533,1.97082218

>  <Name>
ligand

>  <RI>
0

>  <Rbt.Current_Directory>
/home/itssahil/PROJECTS/Mol_Feturizer/New_Systems/rnas/4TZY

>  <Rbt.Executable>
rbdock ($Id: //depot/dev/client3/rdock/2013.1/src/exe/rbdock.cxx#4 $)

>  <Rbt.Library>
libRbt.so (2013.1, Build901 2013/11/27)

>  <Rbt.Parameter_File>
/export/apps/rDock/src/rDock_2013.1_src/data/scripts/dock_solv.prm

>  <Rbt.Receptor>
prm/pocket_docking_5.prm

>  <SCORE>
-14.2882

>  <SCORE.INTER>
-14.2882

>  <SCORE.INTER.CONST>
1

>  <SCORE.INTER.POLAR>
0

>  <SCORE.INTER.ROT>
0

>  <SCORE.INTER.SOLV>
7.76811

>  <SCORE.INTER.VDW>
-15.7148

>  <SCORE.INTER.norm>
-1.42882

>  <SCORE.INTRA>
0

>  <SCORE.INTRA.DIHEDRAL>
0

>  <SCORE.INTRA.DIHEDRAL.0>
0

>  <SCORE.INTRA.POLAR>
0

>  <SCORE.INTRA.POLAR.0>
0

>  <SCORE.INTRA.REPUL>
0

>  <SCORE.INTRA.REPUL.0>
0

>  <SCORE.INTRA.SOLV>
0

>  <SCORE.INTRA.SOLV.lig_0>
-23.8941

>  <SCORE.INTRA.VDW>
0

>  <SCORE.INTRA.VDW.0>
0

>  <SCORE.INTRA.norm>
0

>  <SCORE.RESTR>
0

>  <SCORE.RESTR.CAVITY>
0

>  <SCORE.RESTR.norm>
0

>  <SCORE.SYSTEM>
0

>  <SCORE.SYSTEM.CONST>
0

>  <SCORE.SYSTEM.DIHEDRAL>
0

>  <SCORE.SYSTEM.SOLV>
0

>  <SCORE.SYSTEM.norm>
0

>  <SCORE.heavy>
10

>  <SCORE.norm>
-1.42882

>  <RMSD>
0.531

$$$$
ligand
 OpenBabel11021811513D
libRbt.so/2013.1/901 2013/11/27
 10 11  0  0  0  0  0  0  0  0999 V2000
  -29.8441   16.8153  -14.5073 N   0  0  0  0  0  0  0  0  0  0  0  0
  -30.8344   17.6425  -14.1501 C   0  0  0  0  0  0  0  0  0  0  0  0
  -31.5133   18.5088  -14.9002 N   0  0  0  0  0  0  0  0  0  0  0  0
  -31.0795   18.4826  -16.1700 C   0  0  0  0  0  0  0  0  0  0  0  0
  -30.0729   17.6904  -16.6864 C   0  0  0  0  0  0  0  0  0  0  0  0
  -29.4305   16.8123  -15.7909 C   0  0  0  0  0  0  0  0  0  0  0  0
  -28.4410   15.9874  -16.1508 N   0  0  0  0  0  0  0  0  0  0  0  0
  -29.9003   17.9344  -18.0385 N   0  0  0  0  0  0  0  0  0  0  0  0
  -30.7934   18.8581  -18.3073 C   0  0  0  0  0  0  0  0  0  0  0  0
  -31.5398   19.2361  -17.2261 N   0  0  0  0  0  0  0  0  0  0  0  0
  1  2  2  0  0  0  0
  1  6  1  0  0  0  0
  2  3  1  0  0  0  0
  3  4  2  0  0  0  0
  4  5  1  0  0  0  0
  4 10  1  0  0  0  0
  5  6  2  0  0  0  0
  5  8  1  0  0  0  0
  6  7  1  0  0  0  0
  8  9  1  0  0  0  0
  9 10  2  0  0  0  0
M  END
>  <CHROM.1>
-30.33746616,17.78910048,-16.19060949,1.04256126,-0.73463565,1.86395832

>  <Name>
ligand

>  <RI>
0

>  <Rbt.Current_Directory>
/home/itssahil/PROJECTS/Mol_Feturizer/New_Systems/rnas/4TZY

>  <Rbt.Executable>
rbdock ($Id: //depot/dev/client3/rdock/2013.1/src/exe/rbdock.cxx#4 $)

>  <Rbt.Library>
libRbt.so (2013.1, Build901 2013/11/27)

>  <Rbt.Parameter_File>
/export/apps/rDock/src/rDock_2013.1_src/data/scripts/dock_solv.prm

>  <Rbt.Receptor>
prm/pocket_docking_7.prm

>  <SCORE>
-14.3376

>  <SCORE.INTER>
-14.3376

>  <SCORE.INTER.CONST>
1

>  <SCORE.INTER.POLAR>
0

>  <SCORE.INTER.ROT>
0

>  <SCORE.INTER.SOLV>
7.15012

>  <SCORE.INTER.VDW>
-15.5417

>  <SCORE.INTER.norm>
-1.43376

>  <SCORE.INTRA>
0

>  <SCORE.INTRA.DIHEDRAL>
0

>  <SCORE.INTRA.DIHEDRAL.0>
0

>  <SCORE.INTRA.POLAR>
0

>  <SCORE.INTRA.POLAR.0>
0

>  <SCORE.INTRA.REPUL>
0

>  <SCORE.INTRA.REPUL.0>
0

>  <SCORE.INTRA.SOLV>
0

>  <SCORE.INTRA.SOLV.lig_0>
-23.8941

>  <SCORE.INTRA.VDW>
0

>  <SCORE.INTRA.VDW.0>
0

>  <SCORE.INTRA.norm>
0

>  <SCORE.RESTR>
0

>  <SCORE.RESTR.CAVITY>
0

>  <SCORE.RESTR.norm>
0

>  <SCORE.SYSTEM>
0

>  <SCORE.SYSTEM.CONST>
0

>  <SCORE.SYSTEM.DIHEDRAL>
0

>  <SCORE.SYSTEM.SOLV>
0

>  <SCORE.SYSTEM.norm>
0

>  <SCORE.heavy>
10

>  <SCORE.norm>
-1.43376

>  <RMSD>
0.531

$$$$
ligand
 OpenBabel11021811513D
libRbt.so/2013.1/901 2013/11/27
 10 11  0  0  0  0  0  0  0  0999 V2000
  -29.9859   16.8078  -14.6586 N   0  0  0  0  0  0  0  0  0  0  0  0
  -30.9569   17.6684  -14.3286 C   0  0  0  0  0  0  0  0  0  0  0  0
  -31.5831   18.5587  -15.0962 N   0  0  0  0  0  0  0  0  0  0  0  0
  -31.1134   18.5192  -16.3528 C   0  0  0  0  0  0  0  0  0  0  0  0
  -30.1201   17.6932  -16.8414 C   0  0  0  0  0  0  0  0  0  0  0  0
  -29.5351   16.7921  -15.9296 C   0  0  0  0  0  0  0  0  0  0  0  0
  -28.5647   15.9338  -16.2623 N   0  0  0  0  0  0  0  0  0  0  0  0
  -29.8996   17.9328  -18.1872 N   0  0  0  0  0  0  0  0  0  0  0  0
  -30.7519   18.8873  -18.4799 C   0  0  0  0  0  0  0  0  0  0  0  0
  -31.5161   19.2896  -17.4202 N   0  0  0  0  0  0  0  0  0  0  0  0
  1  2  2  0  0  0  0
  1  6  1  0  0  0  0
  2  3  1  0  0  0  0
  3  4  2  0  0  0  0
  4  5  1  0  0  0  0
  4 10  1  0  0  0  0
  5  6  2  0  0  0  0
  5  8  1  0  0  0  0
  6  7  1  0  0  0  0
  8  9  1  0  0  0  0
  9 10  2  0  0  0  0
M  END
>  <CHROM.1>
-30.39557167,17.80033100,-16.35331040,1.09510526,-0.75869790,1.90148768

>  <Name>
ligand

>  <RI>
0

>  <Rbt.Current_Directory>
/home/itssahil/PROJECTS/Mol_Feturizer/New_Systems/rnas/4TZY

>  <Rbt.Executable>
rbdock ($Id: //depot/dev/client3/rdock/2013.1/src/exe/rbdock.cxx#4 $)

>  <Rbt.Library>
libRbt.so (2013.1, Build901 2013/11/27)

>  <Rbt.Parameter_File>
/export/apps/rDock/src/rDock_2013.1_src/data/scripts/dock_solv.prm

>  <Rbt.Receptor>
prm/pocket_docking_7.prm

>  <SCORE>
-14.3682

>  <SCORE.INTER>
-14.3686

>  <SCORE.INTER.CONST>
1

>  <SCORE.INTER.POLAR>
0

>  <SCORE.INTER.ROT>
0

>  <SCORE.INTER.SOLV>
7.63372

>  <SCORE.INTER.VDW>
-15.7236

>  <SCORE.INTER.norm>
-1.43686

>  <SCORE.INTRA>
0

>  <SCORE.INTRA.DIHEDRAL>
0

>  <SCORE.INTRA.DIHEDRAL.0>
0

>  <SCORE.INTRA.POLAR>
0

>  <SCORE.INTRA.POLAR.0>
0

>  <SCORE.INTRA.REPUL>
0

>  <SCORE.INTRA.REPUL.0>
0

>  <SCORE.INTRA.SOLV>
0

>  <SCORE.INTRA.SOLV.lig_0>
-23.8941

>  <SCORE.INTRA.VDW>
0

>  <SCORE.INTRA.VDW.0>
0

>  <SCORE.INTRA.norm>
0

>  <SCORE.RESTR>
0.000394913

>  <SCORE.RESTR.CAVITY>
0.000394913

>  <SCORE.RESTR.norm>
3.94913e-05

>  <SCORE.SYSTEM>
0

>  <SCORE.SYSTEM.CONST>
0

>  <SCORE.SYSTEM.DIHEDRAL>
0

>  <SCORE.SYSTEM.SOLV>
0

>  <SCORE.SYSTEM.norm>
0

>  <SCORE.heavy>
10

>  <SCORE.norm>
-1.43682

>  <RMSD>
0.531

$$$$
ligand
 OpenBabel11021811513D
libRbt.so/2013.1/901 2013/11/27
 10 11  0  0  0  0  0  0  0  0999 V2000
  -29.8747   16.8164  -14.5176 N   0  0  0  0  0  0  0  0  0  0  0  0
  -30.8716   17.6390  -14.1684 C   0  0  0  0  0  0  0  0  0  0  0  0
  -31.5464   18.5043  -14.9233 N   0  0  0  0  0  0  0  0  0  0  0  0
  -31.1001   18.4825  -16.1889 C   0  0  0  0  0  0  0  0  0  0  0  0
  -30.0854   17.6953  -16.6970 C   0  0  0  0  0  0  0  0  0  0  0  0
  -29.4485   16.8177  -15.7971 C   0  0  0  0  0  0  0  0  0  0  0  0
  -28.4523   15.9974  -16.1490 N   0  0  0  0  0  0  0  0  0  0  0  0
  -29.9004   17.9429  -18.0468 N   0  0  0  0  0  0  0  0  0  0  0  0
  -30.7943   18.8638  -18.3224 C   0  0  0  0  0  0  0  0  0  0  0  0
  -31.5528   19.2366  -17.2478 N   0  0  0  0  0  0  0  0  0  0  0  0
  1  2  2  0  0  0  0
  1  6  1  0  0  0  0
  2  3  1  0  0  0  0
  3  4  2  0  0  0  0
  4  5  1  0  0  0  0
  4 10  1  0  0  0  0
  5  6  2  0  0  0  0
  5  8  1  0  0  0  0
  6  7  1  0  0  0  0
  8  9  1  0  0  0  0
  9 10  2  0  0  0  0
M  END
>  <CHROM.1>
-30.35519278,17.79191406,-16.20362714,1.05372132,-0.72808924,1.87356830

>  <Name>
ligand

>  <RI>
0

>  <Rbt.Current_Directory>
/home/itssahil/PROJECTS/Mol_Feturizer/New_Systems/rnas/4TZY

>  <Rbt.Executable>
rbdock ($Id: //depot/dev/client3/rdock/2013.1/src/exe/rbdock.cxx#4 $)

>  <Rbt.Library>
libRbt.so (2013.1, Build901 2013/11/27)

>  <Rbt.Parameter_File>
/export/apps/rDock/src/rDock_2013.1_src/data/scripts/dock_solv.prm

>  <Rbt.Receptor>
prm/pocket_docking_6.prm

>  <SCORE>
-14.3686

>  <SCORE.INTER>
-14.3686

>  <SCORE.INTER.CONST>
1

>  <SCORE.INTER.POLAR>
0

>  <SCORE.INTER.ROT>
0

>  <SCORE.INTER.SOLV>
7.14934

>  <SCORE.INTER.VDW>
-15.5622

>  <SCORE.INTER.norm>
-1.43686

>  <SCORE.INTRA>
0

>  <SCORE.INTRA.DIHEDRAL>
0

>  <SCORE.INTRA.DIHEDRAL.0>
0

>  <SCORE.INTRA.POLAR>
0

>  <SCORE.INTRA.POLAR.0>
0

>  <SCORE.INTRA.REPUL>
0

>  <SCORE.INTRA.REPUL.0>
0

>  <SCORE.INTRA.SOLV>
0

>  <SCORE.INTRA.SOLV.lig_0>
-23.8941

>  <SCORE.INTRA.VDW>
0

>  <SCORE.INTRA.VDW.0>
0

>  <SCORE.INTRA.norm>
0

>  <SCORE.RESTR>
0

>  <SCORE.RESTR.CAVITY>
0

>  <SCORE.RESTR.norm>
0

>  <SCORE.SYSTEM>
0

>  <SCORE.SYSTEM.CONST>
0

>  <SCORE.SYSTEM.DIHEDRAL>
0

>  <SCORE.SYSTEM.SOLV>
0

>  <SCORE.SYSTEM.norm>
0

>  <SCORE.heavy>
10

>  <SCORE.norm>
-1.43686

>  <RMSD>
0.532

$$$$
ligand
 OpenBabel11021811513D
libRbt.so/2013.1/901 2013/11/27
 10 11  0  0  0  0  0  0  0  0999 V2000
  -29.9131   16.8013  -14.6408 N   0  0  0  0  0  0  0  0  0  0  0  0
  -30.8849   17.6534  -14.2914 C   0  0  0  0  0  0  0  0  0  0  0  0
  -31.5318   18.5404  -15.0456 N   0  0  0  0  0  0  0  0  0  0  0  0
  -31.0844   18.5074  -16.3105 C   0  0  0  0  0  0  0  0  0  0  0  0
  -30.0935   17.6904  -16.8188 C   0  0  0  0  0  0  0  0  0  0  0  0
  -29.4852   16.7920  -15.9197 C   0  0  0  0  0  0  0  0  0  0  0  0
  -28.5141   15.9423  -16.2718 N   0  0  0  0  0  0  0  0  0  0  0  0
  -29.8991   17.9347  -18.1678 N   0  0  0  0  0  0  0  0  0  0  0  0
  -30.7640   18.8831  -18.4429 C   0  0  0  0  0  0  0  0  0  0  0  0
  -31.5123   19.2769  -17.3686 N   0  0  0  0  0  0  0  0  0  0  0  0
  1  2  2  0  0  0  0
  1  6  1  0  0  0  0
  2  3  1  0  0  0  0
  3  4  2  0  0  0  0
  4  5  1  0  0  0  0
  4 10  1  0  0  0  0
  5  6  2  0  0  0  0
  5  8  1  0  0  0  0
  6  7  1  0  0  0  0
  8  9  1  0  0  0  0
  9 10  2  0  0  0  0
M  END
>  <CHROM.1>
-30.36101531,17.79430730,-16.32556175,1.06820542,-0.75684376,1.88528118

>  <Name>
ligand

>  <RI>
0

>  <Rbt.Current_Directory>
/home/itssahil/PROJECTS/Mol_Feturizer/New_Systems/rnas/4TZY

>  <Rbt.Executable>
rbdock ($Id: //depot/dev/client3/rdock/2013.1/src/exe/rbdock.cxx#4 $)

>  <Rbt.Library>
libRbt.so (2013.1, Build901 2013/11/27)

>  <Rbt.Parameter_File>
/export/apps/rDock/src/rDock_2013.1_src/data/scripts/dock_solv.prm

>  <Rbt.Receptor>
prm/pocket_docking_8.prm

>  <SCORE>
-14.3039

>  <SCORE.INTER>
-14.3048

>  <SCORE.INTER.CONST>
1

>  <SCORE.INTER.POLAR>
0

>  <SCORE.INTER.ROT>
0

>  <SCORE.INTER.SOLV>
7.60675

>  <SCORE.INTER.VDW>
-15.6721

>  <SCORE.INTER.norm>
-1.43048

>  <SCORE.INTRA>
0

>  <SCORE.INTRA.DIHEDRAL>
0

>  <SCORE.INTRA.DIHEDRAL.0>
0

>  <SCORE.INTRA.POLAR>
0

>  <SCORE.INTRA.POLAR.0>
0

>  <SCORE.INTRA.REPUL>
0

>  <SCORE.INTRA.REPUL.0>
0

>  <SCORE.INTRA.SOLV>
0

>  <SCORE.INTRA.SOLV.lig_0>
-23.8941

>  <SCORE.INTRA.VDW>
0

>  <SCORE.INTRA.VDW.0>
0

>  <SCORE.INTRA.norm>
0

>  <SCORE.RESTR>
0.000884018

>  <SCORE.RESTR.CAVITY>
0.000884018

>  <SCORE.RESTR.norm>
8.84018e-05

>  <SCORE.SYSTEM>
0

>  <SCORE.SYSTEM.CONST>
0

>  <SCORE.SYSTEM.DIHEDRAL>
0

>  <SCORE.SYSTEM.SOLV>
0

>  <SCORE.SYSTEM.norm>
0

>  <SCORE.heavy>
10

>  <SCORE.norm>
-1.43039

>  <RMSD>
0.532

$$$$
ligand
 OpenBabel11021811513D
libRbt.so/2013.1/901 2013/11/27
 10 11  0  0  0  0  0  0  0  0999 V2000
  -29.8722   16.8065  -14.5142 N   0  0  0  0  0  0  0  0  0  0  0  0
  -30.8699   17.6267  -14.1616 C   0  0  0  0  0  0  0  0  0  0  0  0
  -31.5460   18.4940  -14.9130 N   0  0  0  0  0  0  0  0  0  0  0  0
  -31.1001   18.4773  -16.1788 C   0  0  0  0  0  0  0  0  0  0  0  0
  -30.0847   17.6931  -16.6903 C   0  0  0  0  0  0  0  0  0  0  0  0
  -29.4465   16.8129  -15.7938 C   0  0  0  0  0  0  0  0  0  0  0  0
  -28.4496   15.9950  -16.1491 N   0  0  0  0  0  0  0  0  0  0  0  0
  -29.9006   17.9457  -18.0392 N   0  0  0  0  0  0  0  0  0  0  0  0
  -30.7957   18.8667  -18.3111 C   0  0  0  0  0  0  0  0  0  0  0  0
  -31.5541   19.2347  -17.2349 N   0  0  0  0  0  0  0  0  0  0  0  0
  1  2  2  0  0  0  0
  1  6  1  0  0  0  0
  2  3  1  0  0  0  0
  3  4  2  0  0  0  0
  4  5  1  0  0  0  0
  4 10  1  0  0  0  0
  5  6  2  0  0  0  0
  5  8  1  0  0  0  0
  6  7  1  0  0  0  0
  8  9  1  0  0  0  0
  9 10  2  0  0  0  0
M  END
>  <CHROM.1>
-30.35446557,17.78758006,-16.19639598,1.05275583,-0.72715863,1.87656649

>  <Name>
ligand

>  <RI>
0

>  <Rbt.Current_Directory>
/home/itssahil/PROJECTS/Mol_Feturizer/New_Systems/rnas/4TZY

>  <Rbt.Executable>
rbdock ($Id: //depot/dev/client3/rdock/2013.1/src/exe/rbdock.cxx#4 $)

>  <Rbt.Library>
libRbt.so (2013.1, Build901 2013/11/27)

>  <Rbt.Parameter_File>
/export/apps/rDock/src/rDock_2013.1_src/data/scripts/dock_solv.prm

>  <Rbt.Receptor>
prm/blind_docking_100.prm

>  <SCORE>
-14.3695

>  <SCORE.INTER>
-14.3695

>  <SCORE.INTER.CONST>
1

>  <SCORE.INTER.POLAR>
0

>  <SCORE.INTER.ROT>
0

>  <SCORE.INTER.SOLV>
7.14708

>  <SCORE.INTER.VDW>
-15.562

>  <SCORE.INTER.norm>
-1.43695

>  <SCORE.INTRA>
0

>  <SCORE.INTRA.DIHEDRAL>
0

>  <SCORE.INTRA.DIHEDRAL.0>
0

>  <SCORE.INTRA.POLAR>
0

>  <SCORE.INTRA.POLAR.0>
0

>  <SCORE.INTRA.REPUL>
0

>  <SCORE.INTRA.REPUL.0>
0

>  <SCORE.INTRA.SOLV>
0

>  <SCORE.INTRA.SOLV.lig_0>
-23.8941

>  <SCORE.INTRA.VDW>
0

>  <SCORE.INTRA.VDW.0>
0

>  <SCORE.INTRA.norm>
0

>  <SCORE.RESTR>
0

>  <SCORE.RESTR.CAVITY>
0

>  <SCORE.RESTR.norm>
0

>  <SCORE.SYSTEM>
0

>  <SCORE.SYSTEM.CONST>
0

>  <SCORE.SYSTEM.DIHEDRAL>
0

>  <SCORE.SYSTEM.SOLV>
0

>  <SCORE.SYSTEM.norm>
0

>  <SCORE.heavy>
10

>  <SCORE.norm>
-1.43695

>  <RMSD>
0.533

$$$$
ligand
 OpenBabel11021811513D
libRbt.so/2013.1/901 2013/11/27
 10 11  0  0  0  0  0  0  0  0999 V2000
  -29.8727   16.8230  -14.5166 N   0  0  0  0  0  0  0  0  0  0  0  0
  -30.8656   17.6498  -14.1661 C   0  0  0  0  0  0  0  0  0  0  0  0
  -31.5383   18.5174  -14.9203 N   0  0  0  0  0  0  0  0  0  0  0  0
  -31.0943   18.4931  -16.1866 C   0  0  0  0  0  0  0  0  0  0  0  0
  -30.0837   17.7016  -16.6961 C   0  0  0  0  0  0  0  0  0  0  0  0
  -29.4487   16.8220  -15.7969 C   0  0  0  0  0  0  0  0  0  0  0  0
  -28.4564   15.9975  -16.1501 N   0  0  0  0  0  0  0  0  0  0  0  0
  -29.9001   17.9476  -18.0463 N   0  0  0  0  0  0  0  0  0  0  0  0
  -30.7909   18.8719  -18.3209 C   0  0  0  0  0  0  0  0  0  0  0  0
  -31.5459   19.2484  -17.2452 N   0  0  0  0  0  0  0  0  0  0  0  0
  1  2  2  0  0  0  0
  1  6  1  0  0  0  0
  2  3  1  0  0  0  0
  3  4  2  0  0  0  0
  4  5  1  0  0  0  0
  4 10  1  0  0  0  0
  5  6  2  0  0  0  0
  5  8  1  0  0  0  0
  6  7  1  0  0  0  0
  8  9  1  0  0  0  0
  9 10  2  0  0  0  0
M  END
>  <CHROM.1>
-30.35221819,17.79952248,-16.20230516,1.05302954,-0.73242997,1.87254016

>  <Name>
ligand

>  <RI>
0

>  <Rbt.Current_Directory>
/home/itssahil/PROJECTS/Mol_Feturizer/New_Systems/rnas/4TZY

>  <Rbt.Executable>
rbdock ($Id: //depot/dev/client3/rdock/2013.1/src/exe/rbdock.cxx#4 $)

>  <Rbt.Library>
libRbt.so (2013.1, Build901 2013/11/27)

>  <Rbt.Parameter_File>
/export/apps/rDock/src/rDock_2013.1_src/data/scripts/dock_solv.prm

>  <Rbt.Receptor>
prm/blind_docking_60.prm

>  <SCORE>
-14.3682

>  <SCORE.INTER>
-14.3682

>  <SCORE.INTER.CONST>
1

>  <SCORE.INTER.POLAR>
0

>  <SCORE.INTER.ROT>
0

>  <SCORE.INTER.SOLV>
7.15927

>  <SCORE.INTER.VDW>
-15.5652

>  <SCORE.INTER.norm>
-1.43682

>  <SCORE.INTRA>
0

>  <SCORE.INTRA.DIHEDRAL>
0

>  <SCORE.INTRA.DIHEDRAL.0>
0

>  <SCORE.INTRA.POLAR>
0

>  <SCORE.INTRA.POLAR.0>
0

>  <SCORE.INTRA.REPUL>
0

>  <SCORE.INTRA.REPUL.0>
0

>  <SCORE.INTRA.SOLV>
0

>  <SCORE.INTRA.SOLV.lig_0>
-23.8941

>  <SCORE.INTRA.VDW>
0

>  <SCORE.INTRA.VDW.0>
0

>  <SCORE.INTRA.norm>
0

>  <SCORE.RESTR>
0

>  <SCORE.RESTR.CAVITY>
0

>  <SCORE.RESTR.norm>
0

>  <SCORE.SYSTEM>
0

>  <SCORE.SYSTEM.CONST>
0

>  <SCORE.SYSTEM.DIHEDRAL>
0

>  <SCORE.SYSTEM.SOLV>
0

>  <SCORE.SYSTEM.norm>
0

>  <SCORE.heavy>
10

>  <SCORE.norm>
-1.43682

>  <RMSD>
0.534

$$$$
ligand
 OpenBabel11021811513D
libRbt.so/2013.1/901 2013/11/27
 10 11  0  0  0  0  0  0  0  0999 V2000
  -29.9550   16.8079  -14.6327 N   0  0  0  0  0  0  0  0  0  0  0  0
  -30.8973   17.6907  -14.2789 C   0  0  0  0  0  0  0  0  0  0  0  0
  -31.5129   18.6037  -15.0282 N   0  0  0  0  0  0  0  0  0  0  0  0
  -31.0660   18.5628  -16.2931 C   0  0  0  0  0  0  0  0  0  0  0  0
  -30.1032   17.7154  -16.8056 C   0  0  0  0  0  0  0  0  0  0  0  0
  -29.5266   16.7915  -15.9114 C   0  0  0  0  0  0  0  0  0  0  0  0
  -28.5849   15.9110  -16.2679 N   0  0  0  0  0  0  0  0  0  0  0  0
  -29.8995   17.9607  -18.1530 N   0  0  0  0  0  0  0  0  0  0  0  0
  -30.7313   18.9397  -18.4231 C   0  0  0  0  0  0  0  0  0  0  0  0
  -31.4664   19.3527  -17.3470 N   0  0  0  0  0  0  0  0  0  0  0  0
  1  2  2  0  0  0  0
  1  6  1  0  0  0  0
  2  3  1  0  0  0  0
  3  4  2  0  0  0  0
  4  5  1  0  0  0  0
  4 10  1  0  0  0  0
  5  6  2  0  0  0  0
  5  8  1  0  0  0  0
  6  7  1  0  0  0  0
  8  9  1  0  0  0  0
  9 10  2  0  0  0  0
M  END
>  <CHROM.1>
-30.36737027,17.82545340,-16.31192396,1.08425231,-0.78908575,1.90231733

>  <Name>
ligand

>  <RI>
0

>  <Rbt.Current_Directory>
/home/itssahil/PROJECTS/Mol_Feturizer/New_Systems/rnas/4TZY

>  <Rbt.Executable>
rbdock ($Id: //depot/dev/client3/rdock/2013.1/src/exe/rbdock.cxx#4 $)

>  <Rbt.Library>
libRbt.so (2013.1, Build901 2013/11/27)

>  <Rbt.Parameter_File>
/export/apps/rDock/src/rDock_2013.1_src/data/scripts/dock_solv.prm

>  <Rbt.Receptor>
prm/pocket_docking_7.prm

>  <SCORE>
-14.3432

>  <SCORE.INTER>
-14.3437

>  <SCORE.INTER.CONST>
1

>  <SCORE.INTER.POLAR>
0

>  <SCORE.INTER.ROT>
0

>  <SCORE.INTER.SOLV>
7.71433

>  <SCORE.INTER.VDW>
-15.7339

>  <SCORE.INTER.norm>
-1.43437

>  <SCORE.INTRA>
0

>  <SCORE.INTRA.DIHEDRAL>
0

>  <SCORE.INTRA.DIHEDRAL.0>
0

>  <SCORE.INTRA.POLAR>
0

>  <SCORE.INTRA.POLAR.0>
0

>  <SCORE.INTRA.REPUL>
0

>  <SCORE.INTRA.REPUL.0>
0

>  <SCORE.INTRA.SOLV>
0

>  <SCORE.INTRA.SOLV.lig_0>
-23.8941

>  <SCORE.INTRA.VDW>
0

>  <SCORE.INTRA.VDW.0>
0

>  <SCORE.INTRA.norm>
0

>  <SCORE.RESTR>
0.000461647

>  <SCORE.RESTR.CAVITY>
0.000461647

>  <SCORE.RESTR.norm>
4.61647e-05

>  <SCORE.SYSTEM>
0

>  <SCORE.SYSTEM.CONST>
0

>  <SCORE.SYSTEM.DIHEDRAL>
0

>  <SCORE.SYSTEM.SOLV>
0

>  <SCORE.SYSTEM.norm>
0

>  <SCORE.heavy>
10

>  <SCORE.norm>
-1.43432

>  <RMSD>
0.534

$$$$
ligand
 OpenBabel11021811513D
libRbt.so/2013.1/901 2013/11/27
 10 11  0  0  0  0  0  0  0  0999 V2000
  -29.9038   16.8038  -14.6759 N   0  0  0  0  0  0  0  0  0  0  0  0
  -30.8591   17.6724  -14.3219 C   0  0  0  0  0  0  0  0  0  0  0  0
  -31.4974   18.5674  -15.0739 N   0  0  0  0  0  0  0  0  0  0  0  0
  -31.0602   18.5234  -16.3420 C   0  0  0  0  0  0  0  0  0  0  0  0
  -30.0863   17.6892  -16.8552 C   0  0  0  0  0  0  0  0  0  0  0  0
  -29.4856   16.7839  -15.9579 C   0  0  0  0  0  0  0  0  0  0  0  0
  -28.5309   15.9176  -16.3146 N   0  0  0  0  0  0  0  0  0  0  0  0
  -29.8982   17.9264  -18.2063 N   0  0  0  0  0  0  0  0  0  0  0  0
  -30.7499   18.8877  -18.4779 C   0  0  0  0  0  0  0  0  0  0  0  0
  -31.4836   19.2966  -17.3993 N   0  0  0  0  0  0  0  0  0  0  0  0
  1  2  2  0  0  0  0
  1  6  1  0  0  0  0
  2  3  1  0  0  0  0
  3  4  2  0  0  0  0
  4  5  1  0  0  0  0
  4 10  1  0  0  0  0
  5  6  2  0  0  0  0
  5  8  1  0  0  0  0
  6  7  1  0  0  0  0
  8  9  1  0  0  0  0
  9 10  2  0  0  0  0
M  END
>  <CHROM.1>
-30.34838202,17.79881025,-16.36029970,1.06510877,-0.77437540,1.88010531

>  <Name>
ligand

>  <RI>
0

>  <Rbt.Current_Directory>
/home/itssahil/PROJECTS/Mol_Feturizer/New_Systems/rnas/4TZY

>  <Rbt.Executable>
rbdock ($Id: //depot/dev/client3/rdock/2013.1/src/exe/rbdock.cxx#4 $)

>  <Rbt.Library>
libRbt.so (2013.1, Build901 2013/11/27)

>  <Rbt.Parameter_File>
/export/apps/rDock/src/rDock_2013.1_src/data/scripts/dock_solv.prm

>  <Rbt.Receptor>
prm/pocket_docking_6.prm

>  <SCORE>
-14.3163

>  <SCORE.INTER>
-14.3181

>  <SCORE.INTER.CONST>
1

>  <SCORE.INTER.POLAR>
0

>  <SCORE.INTER.ROT>
0

>  <SCORE.INTER.SOLV>
7.79173

>  <SCORE.INTER.VDW>
-15.7426

>  <SCORE.INTER.norm>
-1.43181

>  <SCORE.INTRA>
0

>  <SCORE.INTRA.DIHEDRAL>
0

>  <SCORE.INTRA.DIHEDRAL.0>
0

>  <SCORE.INTRA.POLAR>
0

>  <SCORE.INTRA.POLAR.0>
0

>  <SCORE.INTRA.REPUL>
0

>  <SCORE.INTRA.REPUL.0>
0

>  <SCORE.INTRA.SOLV>
0

>  <SCORE.INTRA.SOLV.lig_0>
-23.8941

>  <SCORE.INTRA.VDW>
0

>  <SCORE.INTRA.VDW.0>
0

>  <SCORE.INTRA.norm>
0

>  <SCORE.RESTR>
0.00182135

>  <SCORE.RESTR.CAVITY>
0.00182135

>  <SCORE.RESTR.norm>
0.000182135

>  <SCORE.SYSTEM>
0

>  <SCORE.SYSTEM.CONST>
0

>  <SCORE.SYSTEM.DIHEDRAL>
0

>  <SCORE.SYSTEM.SOLV>
0

>  <SCORE.SYSTEM.norm>
0

>  <SCORE.heavy>
10

>  <SCORE.norm>
-1.43163

>  <RMSD>
0.537

$$$$
ligand
 OpenBabel11021811513D
libRbt.so/2013.1/901 2013/11/27
 10 11  0  0  0  0  0  0  0  0999 V2000
  -29.9403   16.8148  -14.6306 N   0  0  0  0  0  0  0  0  0  0  0  0
  -30.8912   17.6885  -14.2772 C   0  0  0  0  0  0  0  0  0  0  0  0
  -31.5166   18.5942  -15.0272 N   0  0  0  0  0  0  0  0  0  0  0  0
  -31.0704   18.5559  -16.2924 C   0  0  0  0  0  0  0  0  0  0  0  0
  -30.0996   17.7176  -16.8046 C   0  0  0  0  0  0  0  0  0  0  0  0
  -29.5129   16.8008  -15.9096 C   0  0  0  0  0  0  0  0  0  0  0  0
  -28.5626   15.9294  -16.2656 N   0  0  0  0  0  0  0  0  0  0  0  0
  -29.8995   17.9630  -18.1525 N   0  0  0  0  0  0  0  0  0  0  0  0
  -30.7414   18.9332  -18.4232 C   0  0  0  0  0  0  0  0  0  0  0  0
  -31.4797   19.3402  -17.3471 N   0  0  0  0  0  0  0  0  0  0  0  0
  1  2  2  0  0  0  0
  1  6  1  0  0  0  0
  2  3  1  0  0  0  0
  3  4  2  0  0  0  0
  4  5  1  0  0  0  0
  4 10  1  0  0  0  0
  5  6  2  0  0  0  0
  5  8  1  0  0  0  0
  6  7  1  0  0  0  0
  8  9  1  0  0  0  0
  9 10  2  0  0  0  0
M  END
>  <CHROM.1>
-30.36438198,17.82567761,-16.31081418,1.07848387,-0.77980054,1.89682510

>  <Name>
ligand

>  <RI>
0

>  <Rbt.Current_Directory>
/home/itssahil/PROJECTS/Mol_Feturizer/New_Systems/rnas/4TZY

>  <Rbt.Executable>
rbdock ($Id: //depot/dev/client3/rdock/2013.1/src/exe/rbdock.cxx#4 $)

>  <Rbt.Library>
libRbt.so (2013.1, Build901 2013/11/27)

>  <Rbt.Parameter_File>
/export/apps/rDock/src/rDock_2013.1_src/data/scripts/dock_solv.prm

>  <Rbt.Receptor>
prm/pocket_docking_8.prm

>  <SCORE>
-14.3763

>  <SCORE.INTER>
-14.3767

>  <SCORE.INTER.CONST>
1

>  <SCORE.INTER.POLAR>
0

>  <SCORE.INTER.ROT>
0

>  <SCORE.INTER.SOLV>
7.66297

>  <SCORE.INTER.VDW>
-15.7388

>  <SCORE.INTER.norm>
-1.43767

>  <SCORE.INTRA>
0

>  <SCORE.INTRA.DIHEDRAL>
0

>  <SCORE.INTRA.DIHEDRAL.0>
0

>  <SCORE.INTRA.POLAR>
0

>  <SCORE.INTRA.POLAR.0>
0

>  <SCORE.INTRA.REPUL>
0

>  <SCORE.INTRA.REPUL.0>
0

>  <SCORE.INTRA.SOLV>
0

>  <SCORE.INTRA.SOLV.lig_0>
-23.8941

>  <SCORE.INTRA.VDW>
0

>  <SCORE.INTRA.VDW.0>
0

>  <SCORE.INTRA.norm>
0

>  <SCORE.RESTR>
0.000477472

>  <SCORE.RESTR.CAVITY>
0.000477472

>  <SCORE.RESTR.norm>
4.77472e-05

>  <SCORE.SYSTEM>
0

>  <SCORE.SYSTEM.CONST>
0

>  <SCORE.SYSTEM.DIHEDRAL>
0

>  <SCORE.SYSTEM.SOLV>
0

>  <SCORE.SYSTEM.norm>
0

>  <SCORE.heavy>
10

>  <SCORE.norm>
-1.43763

>  <RMSD>
0.538

$$$$
ligand
 OpenBabel11021811513D
libRbt.so/2013.1/901 2013/11/27
 10 11  0  0  0  0  0  0  0  0999 V2000
  -29.8769   16.8147  -14.5149 N   0  0  0  0  0  0  0  0  0  0  0  0
  -30.8704   17.6390  -14.1601 C   0  0  0  0  0  0  0  0  0  0  0  0
  -31.5421   18.5117  -14.9092 N   0  0  0  0  0  0  0  0  0  0  0  0
  -31.0964   18.4962  -16.1751 C   0  0  0  0  0  0  0  0  0  0  0  0
  -30.0849   17.7082  -16.6886 C   0  0  0  0  0  0  0  0  0  0  0  0
  -29.4512   16.8224  -15.7945 C   0  0  0  0  0  0  0  0  0  0  0  0
  -28.4584   16.0004  -16.1520 N   0  0  0  0  0  0  0  0  0  0  0  0
  -29.8995   17.9635  -18.0369 N   0  0  0  0  0  0  0  0  0  0  0  0
  -30.7899   18.8897  -18.3063 C   0  0  0  0  0  0  0  0  0  0  0  0
  -31.5465   19.2587  -17.2291 N   0  0  0  0  0  0  0  0  0  0  0  0
  1  2  2  0  0  0  0
  1  6  1  0  0  0  0
  2  3  1  0  0  0  0
  3  4  2  0  0  0  0
  4  5  1  0  0  0  0
  4 10  1  0  0  0  0
  5  6  2  0  0  0  0
  5  8  1  0  0  0  0
  6  7  1  0  0  0  0
  8  9  1  0  0  0  0
  9 10  2  0  0  0  0
M  END
>  <CHROM.1>
-30.35419807,17.80272848,-16.19450579,1.05480067,-0.73197387,1.88059837

>  <Name>
ligand

>  <RI>
0

>  <Rbt.Current_Directory>
/home/itssahil/PROJECTS/Mol_Feturizer/New_Systems/rnas/4TZY

>  <Rbt.Executable>
rbdock ($Id: //depot/dev/client3/rdock/2013.1/src/exe/rbdock.cxx#4 $)

>  <Rbt.Library>
libRbt.so (2013.1, Build901 2013/11/27)

>  <Rbt.Parameter_File>
/export/apps/rDock/src/rDock_2013.1_src/data/scripts/dock_solv.prm

>  <Rbt.Receptor>
prm/pocket_docking_4.prm

>  <SCORE>
-14.364

>  <SCORE.INTER>
-14.3645

>  <SCORE.INTER.CONST>
1

>  <SCORE.INTER.POLAR>
0

>  <SCORE.INTER.ROT>
0

>  <SCORE.INTER.SOLV>
7.16805

>  <SCORE.INTER.VDW>
-15.5657

>  <SCORE.INTER.norm>
-1.43645

>  <SCORE.INTRA>
0

>  <SCORE.INTRA.DIHEDRAL>
0

>  <SCORE.INTRA.DIHEDRAL.0>
0

>  <SCORE.INTRA.POLAR>
0

>  <SCORE.INTRA.POLAR.0>
0

>  <SCORE.INTRA.REPUL>
0

>  <SCORE.INTRA.REPUL.0>
0

>  <SCORE.INTRA.SOLV>
0

>  <SCORE.INTRA.SOLV.lig_0>
-23.8941

>  <SCORE.INTRA.VDW>
0

>  <SCORE.INTRA.VDW.0>
0

>  <SCORE.INTRA.norm>
0

>  <SCORE.RESTR>
0.00046468

>  <SCORE.RESTR.CAVITY>
0.00046468

>  <SCORE.RESTR.norm>
4.6468e-05

>  <SCORE.SYSTEM>
0

>  <SCORE.SYSTEM.CONST>
0

>  <SCORE.SYSTEM.DIHEDRAL>
0

>  <SCORE.SYSTEM.SOLV>
0

>  <SCORE.SYSTEM.norm>
0

>  <SCORE.heavy>
10

>  <SCORE.norm>
-1.4364

>  <RMSD>
0.540

$$$$
ligand
 OpenBabel11021811513D
libRbt.so/2013.1/901 2013/11/27
 10 11  0  0  0  0  0  0  0  0999 V2000
  -30.0412   16.6634  -14.5851 N   0  0  0  0  0  0  0  0  0  0  0  0
  -30.9681   17.5474  -14.1957 C   0  0  0  0  0  0  0  0  0  0  0  0
  -31.5495   18.5165  -14.9007 N   0  0  0  0  0  0  0  0  0  0  0  0
  -31.0827   18.5367  -16.1589 C   0  0  0  0  0  0  0  0  0  0  0  0
  -30.1318   17.6966  -16.7044 C   0  0  0  0  0  0  0  0  0  0  0  0
  -29.5921   16.7093  -15.8560 C   0  0  0  0  0  0  0  0  0  0  0  0
  -28.6656   15.8278  -16.2480 N   0  0  0  0  0  0  0  0  0  0  0  0
  -29.9000   18.0132  -18.0322 N   0  0  0  0  0  0  0  0  0  0  0  0
  -30.7038   19.0261  -18.2583 C   0  0  0  0  0  0  0  0  0  0  0  0
  -31.4468   19.3950  -17.1716 N   0  0  0  0  0  0  0  0  0  0  0  0
  1  2  2  0  0  0  0
  1  6  1  0  0  0  0
  2  3  1  0  0  0  0
  3  4  2  0  0  0  0
  4  5  1  0  0  0  0
  4 10  1  0  0  0  0
  5  6  2  0  0  0  0
  5  8  1  0  0  0  0
  6  7  1  0  0  0  0
  8  9  1  0  0  0  0
  9 10  2  0  0  0  0
M  END
>  <CHROM.1>
-30.40143735,17.78475187,-16.20927611,1.11808024,-0.80570015,1.98376238

>  <Name>
ligand

>  <RI>
0

>  <Rbt.Current_Directory>
/home/itssahil/PROJECTS/Mol_Feturizer/New_Systems/rnas/4TZY

>  <Rbt.Executable>
rbdock ($Id: //depot/dev/client3/rdock/2013.1/src/exe/rbdock.cxx#4 $)

>  <Rbt.Library>
libRbt.so (2013.1, Build901 2013/11/27)

>  <Rbt.Parameter_File>
/export/apps/rDock/src/rDock_2013.1_src/data/scripts/dock_solv.prm

>  <Rbt.Receptor>
prm/pocket_docking_7.prm

>  <SCORE>
-14.2756

>  <SCORE.INTER>
-14.2756

>  <SCORE.INTER.CONST>
1

>  <SCORE.INTER.POLAR>
0

>  <SCORE.INTER.ROT>
0

>  <SCORE.INTER.SOLV>
7.93763

>  <SCORE.INTER.VDW>
-15.7629

>  <SCORE.INTER.norm>
-1.42756

>  <SCORE.INTRA>
0

>  <SCORE.INTRA.DIHEDRAL>
0

>  <SCORE.INTRA.DIHEDRAL.0>
0

>  <SCORE.INTRA.POLAR>
0

>  <SCORE.INTRA.POLAR.0>
0

>  <SCORE.INTRA.REPUL>
0

>  <SCORE.INTRA.REPUL.0>
0

>  <SCORE.INTRA.SOLV>
0

>  <SCORE.INTRA.SOLV.lig_0>
-23.8941

>  <SCORE.INTRA.VDW>
0

>  <SCORE.INTRA.VDW.0>
0

>  <SCORE.INTRA.norm>
0

>  <SCORE.RESTR>
0

>  <SCORE.RESTR.CAVITY>
0

>  <SCORE.RESTR.norm>
0

>  <SCORE.SYSTEM>
0

>  <SCORE.SYSTEM.CONST>
0

>  <SCORE.SYSTEM.DIHEDRAL>
0

>  <SCORE.SYSTEM.SOLV>
0

>  <SCORE.SYSTEM.norm>
0

>  <SCORE.heavy>
10

>  <SCORE.norm>
-1.42756

>  <RMSD>
0.544

$$$$
ligand
 OpenBabel11021811513D
libRbt.so/2013.1/901 2013/11/27
 10 11  0  0  0  0  0  0  0  0999 V2000
  -30.0279   16.6739  -14.5734 N   0  0  0  0  0  0  0  0  0  0  0  0
  -30.9708   17.5428  -14.1885 C   0  0  0  0  0  0  0  0  0  0  0  0
  -31.5664   18.5005  -14.8972 N   0  0  0  0  0  0  0  0  0  0  0  0
  -31.0963   18.5261  -16.1540 C   0  0  0  0  0  0  0  0  0  0  0  0
  -30.1297   17.7012  -16.6950 C   0  0  0  0  0  0  0  0  0  0  0  0
  -29.5758   16.7249  -15.8430 C   0  0  0  0  0  0  0  0  0  0  0  0
  -28.6334   15.8585  -16.2305 N   0  0  0  0  0  0  0  0  0  0  0  0
  -29.8993   18.0191  -18.0228 N   0  0  0  0  0  0  0  0  0  0  0  0
  -30.7195   19.0178  -18.2533 C   0  0  0  0  0  0  0  0  0  0  0  0
  -31.4719   19.3761  -17.1696 N   0  0  0  0  0  0  0  0  0  0  0  0
  1  2  2  0  0  0  0
  1  6  1  0  0  0  0
  2  3  1  0  0  0  0
  3  4  2  0  0  0  0
  4  5  1  0  0  0  0
  4 10  1  0  0  0  0
  5  6  2  0  0  0  0
  5  8  1  0  0  0  0
  6  7  1  0  0  0  0
  8  9  1  0  0  0  0
  9 10  2  0  0  0  0
M  END
>  <CHROM.1>
-30.40224674,17.78576094,-16.20088892,1.11228172,-0.78895659,1.97760971

>  <Name>
ligand

>  <RI>
0

>  <Rbt.Current_Directory>
/home/itssahil/PROJECTS/Mol_Feturizer/New_Systems/rnas/4TZY

>  <Rbt.Executable>
rbdock ($Id: //depot/dev/client3/rdock/2013.1/src/exe/rbdock.cxx#4 $)

>  <Rbt.Library>
libRbt.so (2013.1, Build901 2013/11/27)

>  <Rbt.Parameter_File>
/export/apps/rDock/src/rDock_2013.1_src/data/scripts/dock_solv.prm

>  <Rbt.Receptor>
prm/blind_docking_80.prm

>  <SCORE>
-14.2817

>  <SCORE.INTER>
-14.2822

>  <SCORE.INTER.CONST>
1

>  <SCORE.INTER.POLAR>
0

>  <SCORE.INTER.ROT>
0

>  <SCORE.INTER.SOLV>
7.80086

>  <SCORE.INTER.VDW>
-15.7218

>  <SCORE.INTER.norm>
-1.42822

>  <SCORE.INTRA>
0

>  <SCORE.INTRA.DIHEDRAL>
0

>  <SCORE.INTRA.DIHEDRAL.0>
0

>  <SCORE.INTRA.POLAR>
0

>  <SCORE.INTRA.POLAR.0>
0

>  <SCORE.INTRA.REPUL>
0

>  <SCORE.INTRA.REPUL.0>
0

>  <SCORE.INTRA.SOLV>
0

>  <SCORE.INTRA.SOLV.lig_0>
-23.8941

>  <SCORE.INTRA.VDW>
0

>  <SCORE.INTRA.VDW.0>
0

>  <SCORE.INTRA.norm>
0

>  <SCORE.RESTR>
0.000531757

>  <SCORE.RESTR.CAVITY>
0.000531757

>  <SCORE.RESTR.norm>
5.31757e-05

>  <SCORE.SYSTEM>
0

>  <SCORE.SYSTEM.CONST>
0

>  <SCORE.SYSTEM.DIHEDRAL>
0

>  <SCORE.SYSTEM.SOLV>
0

>  <SCORE.SYSTEM.norm>
0

>  <SCORE.heavy>
10

>  <SCORE.norm>
-1.42817

>  <RMSD>
0.547

$$$$
ligand
 OpenBabel11021811513D
libRbt.so/2013.1/901 2013/11/27
 10 11  0  0  0  0  0  0  0  0999 V2000
  -29.9096   16.8412  -14.4441 N   0  0  0  0  0  0  0  0  0  0  0  0
  -30.8997   17.6731  -14.0975 C   0  0  0  0  0  0  0  0  0  0  0  0
  -31.5583   18.5511  -14.8521 N   0  0  0  0  0  0  0  0  0  0  0  0
  -31.1020   18.5323  -16.1141 C   0  0  0  0  0  0  0  0  0  0  0  0
  -30.0924   17.7367  -16.6193 C   0  0  0  0  0  0  0  0  0  0  0  0
  -29.4730   16.8459  -15.7201 C   0  0  0  0  0  0  0  0  0  0  0  0
  -28.4836   16.0163  -16.0694 N   0  0  0  0  0  0  0  0  0  0  0  0
  -29.8937   17.9908  -17.9658 N   0  0  0  0  0  0  0  0  0  0  0  0
  -30.7746   18.9238  -18.2426 C   0  0  0  0  0  0  0  0  0  0  0  0
  -31.5373   19.2984  -17.1717 N   0  0  0  0  0  0  0  0  0  0  0  0
  1  2  2  0  0  0  0
  1  6  1  0  0  0  0
  2  3  1  0  0  0  0
  3  4  2  0  0  0  0
  4  5  1  0  0  0  0
  4 10  1  0  0  0  0
  5  6  2  0  0  0  0
  5  8  1  0  0  0  0
  6  7  1  0  0  0  0
  8  9  1  0  0  0  0
  9 10  2  0  0  0  0
M  END
>  <CHROM.1>
-30.36506005,17.83319126,-16.12743436,1.06881531,-0.73670099,1.89018913

>  <Name>
ligand

>  <RI>
0

>  <Rbt.Current_Directory>
/home/itssahil/PROJECTS/Mol_Feturizer/New_Systems/rnas/4TZY

>  <Rbt.Executable>
rbdock ($Id: //depot/dev/client3/rdock/2013.1/src/exe/rbdock.cxx#4 $)

>  <Rbt.Library>
libRbt.so (2013.1, Build901 2013/11/27)

>  <Rbt.Parameter_File>
/export/apps/rDock/src/rDock_2013.1_src/data/scripts/dock_solv.prm

>  <Rbt.Receptor>
prm/pocket_docking_5.prm

>  <SCORE>
-14.3361

>  <SCORE.INTER>
-14.3361

>  <SCORE.INTER.CONST>
1

>  <SCORE.INTER.POLAR>
0

>  <SCORE.INTER.ROT>
0

>  <SCORE.INTER.SOLV>
7.09802

>  <SCORE.INTER.VDW>
-15.5234

>  <SCORE.INTER.norm>
-1.43361

>  <SCORE.INTRA>
0

>  <SCORE.INTRA.DIHEDRAL>
0

>  <SCORE.INTRA.DIHEDRAL.0>
0

>  <SCORE.INTRA.POLAR>
0

>  <SCORE.INTRA.POLAR.0>
0

>  <SCORE.INTRA.REPUL>
0

>  <SCORE.INTRA.REPUL.0>
0

>  <SCORE.INTRA.SOLV>
0

>  <SCORE.INTRA.SOLV.lig_0>
-23.8941

>  <SCORE.INTRA.VDW>
0

>  <SCORE.INTRA.VDW.0>
0

>  <SCORE.INTRA.norm>
0

>  <SCORE.RESTR>
0

>  <SCORE.RESTR.CAVITY>
0

>  <SCORE.RESTR.norm>
0

>  <SCORE.SYSTEM>
0

>  <SCORE.SYSTEM.CONST>
0

>  <SCORE.SYSTEM.DIHEDRAL>
0

>  <SCORE.SYSTEM.SOLV>
0

>  <SCORE.SYSTEM.norm>
0

>  <SCORE.heavy>
10

>  <SCORE.norm>
-1.43361

>  <RMSD>
0.552

$$$$
ligand
 OpenBabel11021811513D
libRbt.so/2013.1/901 2013/11/27
 10 11  0  0  0  0  0  0  0  0999 V2000
  -29.9035   16.8433  -14.4512 N   0  0  0  0  0  0  0  0  0  0  0  0
  -30.8960   17.6714  -14.1026 C   0  0  0  0  0  0  0  0  0  0  0  0
  -31.5590   18.5475  -14.8555 N   0  0  0  0  0  0  0  0  0  0  0  0
  -31.1046   18.5311  -16.1183 C   0  0  0  0  0  0  0  0  0  0  0  0
  -30.0929   17.7394  -16.6256 C   0  0  0  0  0  0  0  0  0  0  0  0
  -29.4689   16.8503  -15.7279 C   0  0  0  0  0  0  0  0  0  0  0  0
  -28.4771   16.0245  -16.0792 N   0  0  0  0  0  0  0  0  0  0  0  0
  -29.8972   17.9951  -17.9723 N   0  0  0  0  0  0  0  0  0  0  0  0
  -30.7819   18.9251  -18.2470 C   0  0  0  0  0  0  0  0  0  0  0  0
  -31.5443   19.2963  -17.1747 N   0  0  0  0  0  0  0  0  0  0  0  0
  1  2  2  0  0  0  0
  1  6  1  0  0  0  0
  2  3  1  0  0  0  0
  3  4  2  0  0  0  0
  4  5  1  0  0  0  0
  4 10  1  0  0  0  0
  5  6  2  0  0  0  0
  5  8  1  0  0  0  0
  6  7  1  0  0  0  0
  8  9  1  0  0  0  0
  9 10  2  0  0  0  0
M  END
>  <CHROM.1>
-30.36517109,17.83465171,-16.13321103,1.06530492,-0.73375283,1.88846973

>  <Name>
ligand

>  <RI>
0

>  <Rbt.Current_Directory>
/home/itssahil/PROJECTS/Mol_Feturizer/New_Systems/rnas/4TZY

>  <Rbt.Executable>
rbdock ($Id: //depot/dev/client3/rdock/2013.1/src/exe/rbdock.cxx#4 $)

>  <Rbt.Library>
libRbt.so (2013.1, Build901 2013/11/27)

>  <Rbt.Parameter_File>
/export/apps/rDock/src/rDock_2013.1_src/data/scripts/dock_solv.prm

>  <Rbt.Receptor>
prm/blind_docking_100.prm

>  <SCORE>
-14.3247

>  <SCORE.INTER>
-14.3247

>  <SCORE.INTER.CONST>
1

>  <SCORE.INTER.POLAR>
0

>  <SCORE.INTER.ROT>
0

>  <SCORE.INTER.SOLV>
7.09972

>  <SCORE.INTER.VDW>
-15.5164

>  <SCORE.INTER.norm>
-1.43247

>  <SCORE.INTRA>
0

>  <SCORE.INTRA.DIHEDRAL>
0

>  <SCORE.INTRA.DIHEDRAL.0>
0

>  <SCORE.INTRA.POLAR>
0

>  <SCORE.INTRA.POLAR.0>
0

>  <SCORE.INTRA.REPUL>
0

>  <SCORE.INTRA.REPUL.0>
0

>  <SCORE.INTRA.SOLV>
0

>  <SCORE.INTRA.SOLV.lig_0>
-23.8941

>  <SCORE.INTRA.VDW>
0

>  <SCORE.INTRA.VDW.0>
0

>  <SCORE.INTRA.norm>
0

>  <SCORE.RESTR>
0

>  <SCORE.RESTR.CAVITY>
0

>  <SCORE.RESTR.norm>
0

>  <SCORE.SYSTEM>
0

>  <SCORE.SYSTEM.CONST>
0

>  <SCORE.SYSTEM.DIHEDRAL>
0

>  <SCORE.SYSTEM.SOLV>
0

>  <SCORE.SYSTEM.norm>
0

>  <SCORE.heavy>
10

>  <SCORE.norm>
-1.43247

>  <RMSD>
0.556

$$$$
ligand
 OpenBabel11021811513D
libRbt.so/2013.1/901 2013/11/27
 10 11  0  0  0  0  0  0  0  0999 V2000
  -30.0069   16.6585  -14.5635 N   0  0  0  0  0  0  0  0  0  0  0  0
  -30.9492   17.5226  -14.1661 C   0  0  0  0  0  0  0  0  0  0  0  0
  -31.5499   18.4854  -14.8633 N   0  0  0  0  0  0  0  0  0  0  0  0
  -31.0863   18.5229  -16.1222 C   0  0  0  0  0  0  0  0  0  0  0  0
  -30.1212   17.7042  -16.6754 C   0  0  0  0  0  0  0  0  0  0  0  0
  -29.5614   16.7214  -15.8349 C   0  0  0  0  0  0  0  0  0  0  0  0
  -28.6197   15.8599  -16.2348 N   0  0  0  0  0  0  0  0  0  0  0  0
  -29.8981   18.0341  -18.0015 N   0  0  0  0  0  0  0  0  0  0  0  0
  -30.7210   19.0335  -18.2191 C   0  0  0  0  0  0  0  0  0  0  0  0
  -31.4684   19.3811  -17.1284 N   0  0  0  0  0  0  0  0  0  0  0  0
  1  2  2  0  0  0  0
  1  6  1  0  0  0  0
  2  3  1  0  0  0  0
  3  4  2  0  0  0  0
  4  5  1  0  0  0  0
  4 10  1  0  0  0  0
  5  6  2  0  0  0  0
  5  8  1  0  0  0  0
  6  7  1  0  0  0  0
  8  9  1  0  0  0  0
  9 10  2  0  0  0  0
M  END
>  <CHROM.1>
-30.39132089,17.78403598,-16.17918340,1.10471500,-0.78954750,1.98100284

>  <Name>
ligand

>  <RI>
0

>  <Rbt.Current_Directory>
/home/itssahil/PROJECTS/Mol_Feturizer/New_Systems/rnas/4TZY

>  <Rbt.Executable>
rbdock ($Id: //depot/dev/client3/rdock/2013.1/src/exe/rbdock.cxx#4 $)

>  <Rbt.Library>
libRbt.so (2013.1, Build901 2013/11/27)

>  <Rbt.Parameter_File>
/export/apps/rDock/src/rDock_2013.1_src/data/scripts/dock_solv.prm

>  <Rbt.Receptor>
prm/pocket_docking_7.prm

>  <SCORE>
-14.2784

>  <SCORE.INTER>
-14.2803

>  <SCORE.INTER.CONST>
1

>  <SCORE.INTER.POLAR>
0

>  <SCORE.INTER.ROT>
0

>  <SCORE.INTER.SOLV>
7.7952

>  <SCORE.INTER.VDW>
-15.7186

>  <SCORE.INTER.norm>
-1.42803

>  <SCORE.INTRA>
0

>  <SCORE.INTRA.DIHEDRAL>
0

>  <SCORE.INTRA.DIHEDRAL.0>
0

>  <SCORE.INTRA.POLAR>
0

>  <SCORE.INTRA.POLAR.0>
0

>  <SCORE.INTRA.REPUL>
0

>  <SCORE.INTRA.REPUL.0>
0

>  <SCORE.INTRA.SOLV>
0

>  <SCORE.INTRA.SOLV.lig_0>
-23.8941

>  <SCORE.INTRA.VDW>
0

>  <SCORE.INTRA.VDW.0>
0

>  <SCORE.INTRA.norm>
0

>  <SCORE.RESTR>
0.00189073

>  <SCORE.RESTR.CAVITY>
0.00189073

>  <SCORE.RESTR.norm>
0.000189073

>  <SCORE.SYSTEM>
0

>  <SCORE.SYSTEM.CONST>
0

>  <SCORE.SYSTEM.DIHEDRAL>
0

>  <SCORE.SYSTEM.SOLV>
0

>  <SCORE.SYSTEM.norm>
0

>  <SCORE.heavy>
10

>  <SCORE.norm>
-1.42784

>  <RMSD>
0.558

$$$$
ligand
 OpenBabel11021811513D
libRbt.so/2013.1/901 2013/11/27
 10 11  0  0  0  0  0  0  0  0999 V2000
  -30.0081   16.8632  -14.5064 N   0  0  0  0  0  0  0  0  0  0  0  0
  -31.0067   17.6949  -14.1845 C   0  0  0  0  0  0  0  0  0  0  0  0
  -31.6451   18.5742  -14.9547 N   0  0  0  0  0  0  0  0  0  0  0  0
  -31.1560   18.5573  -16.2044 C   0  0  0  0  0  0  0  0  0  0  0  0
  -30.1337   17.7621  -16.6842 C   0  0  0  0  0  0  0  0  0  0  0  0
  -29.5383   16.8698  -15.7705 C   0  0  0  0  0  0  0  0  0  0  0  0
  -28.5403   16.0404  -16.0951 N   0  0  0  0  0  0  0  0  0  0  0  0
  -29.8997   18.0182  -18.0247 N   0  0  0  0  0  0  0  0  0  0  0  0
  -30.7729   18.9520  -18.3229 C   0  0  0  0  0  0  0  0  0  0  0  0
  -31.5633   19.3251  -17.2718 N   0  0  0  0  0  0  0  0  0  0  0  0
  1  2  2  0  0  0  0
  1  6  1  0  0  0  0
  2  3  1  0  0  0  0
  3  4  2  0  0  0  0
  4  5  1  0  0  0  0
  4 10  1  0  0  0  0
  5  6  2  0  0  0  0
  5  8  1  0  0  0  0
  6  7  1  0  0  0  0
  8  9  1  0  0  0  0
  9 10  2  0  0  0  0
M  END
>  <CHROM.1>
-30.41910284,17.85794070,-16.19950087,1.10220872,-0.72843315,1.91408109

>  <Name>
ligand

>  <RI>
0

>  <Rbt.Current_Directory>
/home/itssahil/PROJECTS/Mol_Feturizer/New_Systems/rnas/4TZY

>  <Rbt.Executable>
rbdock ($Id: //depot/dev/client3/rdock/2013.1/src/exe/rbdock.cxx#4 $)

>  <Rbt.Library>
libRbt.so (2013.1, Build901 2013/11/27)

>  <Rbt.Parameter_File>
/export/apps/rDock/src/rDock_2013.1_src/data/scripts/dock_solv.prm

>  <Rbt.Receptor>
prm/pocket_docking_5.prm

>  <SCORE>
-14.2683

>  <SCORE.INTER>
-14.2684

>  <SCORE.INTER.CONST>
1

>  <SCORE.INTER.POLAR>
0

>  <SCORE.INTER.ROT>
0

>  <SCORE.INTER.SOLV>
7.1459

>  <SCORE.INTER.VDW>
-15.4942

>  <SCORE.INTER.norm>
-1.42684

>  <SCORE.INTRA>
0

>  <SCORE.INTRA.DIHEDRAL>
0

>  <SCORE.INTRA.DIHEDRAL.0>
0

>  <SCORE.INTRA.POLAR>
0

>  <SCORE.INTRA.POLAR.0>
0

>  <SCORE.INTRA.REPUL>
0

>  <SCORE.INTRA.REPUL.0>
0

>  <SCORE.INTRA.SOLV>
0

>  <SCORE.INTRA.SOLV.lig_0>
-23.8941

>  <SCORE.INTRA.VDW>
0

>  <SCORE.INTRA.VDW.0>
0

>  <SCORE.INTRA.norm>
0

>  <SCORE.RESTR>
9.41119e-05

>  <SCORE.RESTR.CAVITY>
9.41119e-05

>  <SCORE.RESTR.norm>
9.41119e-06

>  <SCORE.SYSTEM>
0

>  <SCORE.SYSTEM.CONST>
0

>  <SCORE.SYSTEM.DIHEDRAL>
0

>  <SCORE.SYSTEM.SOLV>
0

>  <SCORE.SYSTEM.norm>
0

>  <SCORE.heavy>
10

>  <SCORE.norm>
-1.42683

>  <RMSD>
0.559

$$$$
ligand
 OpenBabel11021811513D
libRbt.so/2013.1/901 2013/11/27
 10 11  0  0  0  0  0  0  0  0999 V2000
  -29.8495   16.8130  -14.4837 N   0  0  0  0  0  0  0  0  0  0  0  0
  -30.8346   17.6400  -14.1122 C   0  0  0  0  0  0  0  0  0  0  0  0
  -31.5083   18.5231  -14.8472 N   0  0  0  0  0  0  0  0  0  0  0  0
  -31.0748   18.5160  -16.1174 C   0  0  0  0  0  0  0  0  0  0  0  0
  -30.0730   17.7267  -16.6475 C   0  0  0  0  0  0  0  0  0  0  0  0
  -29.4359   16.8295  -15.7673 C   0  0  0  0  0  0  0  0  0  0  0  0
  -28.4515   16.0049  -16.1414 N   0  0  0  0  0  0  0  0  0  0  0  0
  -29.8991   17.9927  -17.9952 N   0  0  0  0  0  0  0  0  0  0  0  0
  -30.7865   18.9264  -18.2480 C   0  0  0  0  0  0  0  0  0  0  0  0
  -31.5305   19.2903  -17.1603 N   0  0  0  0  0  0  0  0  0  0  0  0
  1  2  2  0  0  0  0
  1  6  1  0  0  0  0
  2  3  1  0  0  0  0
  3  4  2  0  0  0  0
  4  5  1  0  0  0  0
  4 10  1  0  0  0  0
  5  6  2  0  0  0  0
  5  8  1  0  0  0  0
  6  7  1  0  0  0  0
  8  9  1  0  0  0  0
  9 10  2  0  0  0  0
M  END
>  <CHROM.1>
-30.33698004,17.81846954,-16.14999790,1.04486342,-0.74047846,1.88264416

>  <Name>
ligand

>  <RI>
0

>  <Rbt.Current_Directory>
/home/itssahil/PROJECTS/Mol_Feturizer/New_Systems/rnas/4TZY

>  <Rbt.Executable>
rbdock ($Id: //depot/dev/client3/rdock/2013.1/src/exe/rbdock.cxx#4 $)

>  <Rbt.Library>
libRbt.so (2013.1, Build901 2013/11/27)

>  <Rbt.Parameter_File>
/export/apps/rDock/src/rDock_2013.1_src/data/scripts/dock_solv.prm

>  <Rbt.Receptor>
prm/pocket_docking_4.prm

>  <SCORE>
-14.3139

>  <SCORE.INTER>
-14.3139

>  <SCORE.INTER.CONST>
1

>  <SCORE.INTER.POLAR>
0

>  <SCORE.INTER.ROT>
0

>  <SCORE.INTER.SOLV>
7.1736

>  <SCORE.INTER.VDW>
-15.5338

>  <SCORE.INTER.norm>
-1.43139

>  <SCORE.INTRA>
0

>  <SCORE.INTRA.DIHEDRAL>
0

>  <SCORE.INTRA.DIHEDRAL.0>
0

>  <SCORE.INTRA.POLAR>
0

>  <SCORE.INTRA.POLAR.0>
0

>  <SCORE.INTRA.REPUL>
0

>  <SCORE.INTRA.REPUL.0>
0

>  <SCORE.INTRA.SOLV>
0

>  <SCORE.INTRA.SOLV.lig_0>
-23.8941

>  <SCORE.INTRA.VDW>
0

>  <SCORE.INTRA.VDW.0>
0

>  <SCORE.INTRA.norm>
0

>  <SCORE.RESTR>
0

>  <SCORE.RESTR.CAVITY>
0

>  <SCORE.RESTR.norm>
0

>  <SCORE.SYSTEM>
0

>  <SCORE.SYSTEM.CONST>
0

>  <SCORE.SYSTEM.DIHEDRAL>
0

>  <SCORE.SYSTEM.SOLV>
0

>  <SCORE.SYSTEM.norm>
0

>  <SCORE.heavy>
10

>  <SCORE.norm>
-1.43139

>  <RMSD>
0.560

$$$$
ligand
 OpenBabel11021811513D
libRbt.so/2013.1/901 2013/11/27
 10 11  0  0  0  0  0  0  0  0999 V2000
  -29.8733   16.8172  -14.3732 N   0  0  0  0  0  0  0  0  0  0  0  0
  -30.9117   17.5928  -14.0378 C   0  0  0  0  0  0  0  0  0  0  0  0
  -31.6068   18.4365  -14.7988 N   0  0  0  0  0  0  0  0  0  0  0  0
  -31.1332   18.4470  -16.0545 C   0  0  0  0  0  0  0  0  0  0  0  0
  -30.0751   17.7092  -16.5481 C   0  0  0  0  0  0  0  0  0  0  0  0
  -29.4204   16.8501  -15.6431 C   0  0  0  0  0  0  0  0  0  0  0  0
  -28.3828   16.0768  -15.9811 N   0  0  0  0  0  0  0  0  0  0  0  0
  -29.8723   17.9785  -17.8911 N   0  0  0  0  0  0  0  0  0  0  0  0
  -30.7989   18.8633  -18.1772 C   0  0  0  0  0  0  0  0  0  0  0  0
  -31.5952   19.1921  -17.1158 N   0  0  0  0  0  0  0  0  0  0  0  0
  1  2  2  0  0  0  0
  1  6  1  0  0  0  0
  2  3  1  0  0  0  0
  3  4  2  0  0  0  0
  4  5  1  0  0  0  0
  4 10  1  0  0  0  0
  5  6  2  0  0  0  0
  5  8  1  0  0  0  0
  6  7  1  0  0  0  0
  8  9  1  0  0  0  0
  9 10  2  0  0  0  0
M  END
>  <CHROM.1>
-30.35924177,17.78897204,-16.05977509,1.06335032,-0.68080408,1.88984204

>  <Name>
ligand

>  <RI>
0

>  <Rbt.Current_Directory>
/home/itssahil/PROJECTS/Mol_Feturizer/New_Systems/rnas/4TZY

>  <Rbt.Executable>
rbdock ($Id: //depot/dev/client3/rdock/2013.1/src/exe/rbdock.cxx#4 $)

>  <Rbt.Library>
libRbt.so (2013.1, Build901 2013/11/27)

>  <Rbt.Parameter_File>
/export/apps/rDock/src/rDock_2013.1_src/data/scripts/dock_solv.prm

>  <Rbt.Receptor>
prm/pocket_docking_4.prm

>  <SCORE>
-14.2487

>  <SCORE.INTER>
-14.2487

>  <SCORE.INTER.CONST>
1

>  <SCORE.INTER.POLAR>
0

>  <SCORE.INTER.ROT>
0

>  <SCORE.INTER.SOLV>
6.96552

>  <SCORE.INTER.VDW>
-15.421

>  <SCORE.INTER.norm>
-1.42487

>  <SCORE.INTRA>
0

>  <SCORE.INTRA.DIHEDRAL>
0

>  <SCORE.INTRA.DIHEDRAL.0>
0

>  <SCORE.INTRA.POLAR>
0

>  <SCORE.INTRA.POLAR.0>
0

>  <SCORE.INTRA.REPUL>
0

>  <SCORE.INTRA.REPUL.0>
0

>  <SCORE.INTRA.SOLV>
0

>  <SCORE.INTRA.SOLV.lig_0>
-23.8941

>  <SCORE.INTRA.VDW>
0

>  <SCORE.INTRA.VDW.0>
0

>  <SCORE.INTRA.norm>
0

>  <SCORE.RESTR>
0

>  <SCORE.RESTR.CAVITY>
0

>  <SCORE.RESTR.norm>
0

>  <SCORE.SYSTEM>
0

>  <SCORE.SYSTEM.CONST>
0

>  <SCORE.SYSTEM.DIHEDRAL>
0

>  <SCORE.SYSTEM.SOLV>
0

>  <SCORE.SYSTEM.norm>
0

>  <SCORE.heavy>
10

>  <SCORE.norm>
-1.42487

>  <RMSD>
0.566

$$$$
ligand
 OpenBabel11021811513D
libRbt.so/2013.1/901 2013/11/27
 10 11  0  0  0  0  0  0  0  0999 V2000
  -29.8955   16.8119  -14.5220 N   0  0  0  0  0  0  0  0  0  0  0  0
  -30.8913   17.6299  -14.1593 C   0  0  0  0  0  0  0  0  0  0  0  0
  -31.5595   18.5142  -14.8978 N   0  0  0  0  0  0  0  0  0  0  0  0
  -31.1070   18.5193  -16.1614 C   0  0  0  0  0  0  0  0  0  0  0  0
  -30.0924   17.7402  -16.6821 C   0  0  0  0  0  0  0  0  0  0  0  0
  -29.4629   16.8405  -15.7991 C   0  0  0  0  0  0  0  0  0  0  0  0
  -28.4678   16.0248  -16.1645 N   0  0  0  0  0  0  0  0  0  0  0  0
  -29.9000   18.0173  -18.0251 N   0  0  0  0  0  0  0  0  0  0  0  0
  -30.7895   18.9472  -18.2843 C   0  0  0  0  0  0  0  0  0  0  0  0
  -31.5520   19.2984  -17.2053 N   0  0  0  0  0  0  0  0  0  0  0  0
  1  2  2  0  0  0  0
  1  6  1  0  0  0  0
  2  3  1  0  0  0  0
  3  4  2  0  0  0  0
  4  5  1  0  0  0  0
  4 10  1  0  0  0  0
  5  6  2  0  0  0  0
  5  8  1  0  0  0  0
  6  7  1  0  0  0  0
  8  9  1  0  0  0  0
  9 10  2  0  0  0  0
M  END
>  <CHROM.1>
-30.36437054,17.82661725,-16.18800459,1.06136091,-0.72978302,1.90109652

>  <Name>
ligand

>  <RI>
0

>  <Rbt.Current_Directory>
/home/itssahil/PROJECTS/Mol_Feturizer/New_Systems/rnas/4TZY

>  <Rbt.Executable>
rbdock ($Id: //depot/dev/client3/rdock/2013.1/src/exe/rbdock.cxx#4 $)

>  <Rbt.Library>
libRbt.so (2013.1, Build901 2013/11/27)

>  <Rbt.Parameter_File>
/export/apps/rDock/src/rDock_2013.1_src/data/scripts/dock_solv.prm

>  <Rbt.Receptor>
prm/pocket_docking_5.prm

>  <SCORE>
-14.3496

>  <SCORE.INTER>
-14.3496

>  <SCORE.INTER.CONST>
1

>  <SCORE.INTER.POLAR>
0

>  <SCORE.INTER.ROT>
0

>  <SCORE.INTER.SOLV>
7.21859

>  <SCORE.INTER.VDW>
-15.5726

>  <SCORE.INTER.norm>
-1.43496

>  <SCORE.INTRA>
0

>  <SCORE.INTRA.DIHEDRAL>
0

>  <SCORE.INTRA.DIHEDRAL.0>
0

>  <SCORE.INTRA.POLAR>
0

>  <SCORE.INTRA.POLAR.0>
0

>  <SCORE.INTRA.REPUL>
0

>  <SCORE.INTRA.REPUL.0>
0

>  <SCORE.INTRA.SOLV>
0

>  <SCORE.INTRA.SOLV.lig_0>
-23.8941

>  <SCORE.INTRA.VDW>
0

>  <SCORE.INTRA.VDW.0>
0

>  <SCORE.INTRA.norm>
0

>  <SCORE.RESTR>
0

>  <SCORE.RESTR.CAVITY>
0

>  <SCORE.RESTR.norm>
0

>  <SCORE.SYSTEM>
0

>  <SCORE.SYSTEM.CONST>
0

>  <SCORE.SYSTEM.DIHEDRAL>
0

>  <SCORE.SYSTEM.SOLV>
0

>  <SCORE.SYSTEM.norm>
0

>  <SCORE.heavy>
10

>  <SCORE.norm>
-1.43496

>  <RMSD>
0.566

$$$$
ligand
 OpenBabel11021811513D
libRbt.so/2013.1/901 2013/11/27
 10 11  0  0  0  0  0  0  0  0999 V2000
  -29.8956   16.8106  -14.5251 N   0  0  0  0  0  0  0  0  0  0  0  0
  -30.8939   17.6260  -14.1634 C   0  0  0  0  0  0  0  0  0  0  0  0
  -31.5637   18.5085  -14.9027 N   0  0  0  0  0  0  0  0  0  0  0  0
  -31.1100   18.5146  -16.1658 C   0  0  0  0  0  0  0  0  0  0  0  0
  -30.0929   17.7381  -16.6855 C   0  0  0  0  0  0  0  0  0  0  0  0
  -29.4619   16.8401  -15.8017 C   0  0  0  0  0  0  0  0  0  0  0  0
  -28.4643   16.0270  -16.1660 N   0  0  0  0  0  0  0  0  0  0  0  0
  -29.8999   18.0155  -18.0283 N   0  0  0  0  0  0  0  0  0  0  0  0
  -30.7916   18.9431  -18.2884 C   0  0  0  0  0  0  0  0  0  0  0  0
  -31.5560   19.2925  -17.2103 N   0  0  0  0  0  0  0  0  0  0  0  0
  1  2  2  0  0  0  0
  1  6  1  0  0  0  0
  2  3  1  0  0  0  0
  3  4  2  0  0  0  0
  4  5  1  0  0  0  0
  4 10  1  0  0  0  0
  5  6  2  0  0  0  0
  5  8  1  0  0  0  0
  6  7  1  0  0  0  0
  8  9  1  0  0  0  0
  9 10  2  0  0  0  0
M  END
>  <CHROM.1>
-30.36553493,17.82388015,-16.19162043,1.06143752,-0.72702850,1.90101903

>  <Name>
ligand

>  <RI>
0

>  <Rbt.Current_Directory>
/home/itssahil/PROJECTS/Mol_Feturizer/New_Systems/rnas/4TZY

>  <Rbt.Executable>
rbdock ($Id: //depot/dev/client3/rdock/2013.1/src/exe/rbdock.cxx#4 $)

>  <Rbt.Library>
libRbt.so (2013.1, Build901 2013/11/27)

>  <Rbt.Parameter_File>
/export/apps/rDock/src/rDock_2013.1_src/data/scripts/dock_solv.prm

>  <Rbt.Receptor>
prm/pocket_docking_8.prm

>  <SCORE>
-14.3485

>  <SCORE.INTER>
-14.3485

>  <SCORE.INTER.CONST>
1

>  <SCORE.INTER.POLAR>
0

>  <SCORE.INTER.ROT>
0

>  <SCORE.INTER.SOLV>
7.21881

>  <SCORE.INTER.VDW>
-15.5719

>  <SCORE.INTER.norm>
-1.43485

>  <SCORE.INTRA>
0

>  <SCORE.INTRA.DIHEDRAL>
0

>  <SCORE.INTRA.DIHEDRAL.0>
0

>  <SCORE.INTRA.POLAR>
0

>  <SCORE.INTRA.POLAR.0>
0

>  <SCORE.INTRA.REPUL>
0

>  <SCORE.INTRA.REPUL.0>
0

>  <SCORE.INTRA.SOLV>
0

>  <SCORE.INTRA.SOLV.lig_0>
-23.8941

>  <SCORE.INTRA.VDW>
0

>  <SCORE.INTRA.VDW.0>
0

>  <SCORE.INTRA.norm>
0

>  <SCORE.RESTR>
0

>  <SCORE.RESTR.CAVITY>
0

>  <SCORE.RESTR.norm>
0

>  <SCORE.SYSTEM>
0

>  <SCORE.SYSTEM.CONST>
0

>  <SCORE.SYSTEM.DIHEDRAL>
0

>  <SCORE.SYSTEM.SOLV>
0

>  <SCORE.SYSTEM.norm>
0

>  <SCORE.heavy>
10

>  <SCORE.norm>
-1.43485

>  <RMSD>
0.566

$$$$
ligand
 OpenBabel11021811513D
libRbt.so/2013.1/901 2013/11/27
 10 11  0  0  0  0  0  0  0  0999 V2000
  -29.8953   16.8195  -14.5146 N   0  0  0  0  0  0  0  0  0  0  0  0
  -30.8831   17.6461  -14.1493 C   0  0  0  0  0  0  0  0  0  0  0  0
  -31.5462   18.5355  -14.8864 N   0  0  0  0  0  0  0  0  0  0  0  0
  -31.0976   18.5359  -16.1513 C   0  0  0  0  0  0  0  0  0  0  0  0
  -30.0912   17.7480  -16.6747 C   0  0  0  0  0  0  0  0  0  0  0  0
  -29.4665   16.8436  -15.7930 C   0  0  0  0  0  0  0  0  0  0  0  0
  -28.4794   16.0193  -16.1609 N   0  0  0  0  0  0  0  0  0  0  0  0
  -29.9007   18.0225  -18.0184 N   0  0  0  0  0  0  0  0  0  0  0  0
  -30.7832   18.9597  -18.2755 C   0  0  0  0  0  0  0  0  0  0  0  0
  -31.5393   19.3180  -17.1944 N   0  0  0  0  0  0  0  0  0  0  0  0
  1  2  2  0  0  0  0
  1  6  1  0  0  0  0
  2  3  1  0  0  0  0
  3  4  2  0  0  0  0
  4  5  1  0  0  0  0
  4 10  1  0  0  0  0
  5  6  2  0  0  0  0
  5  8  1  0  0  0  0
  6  7  1  0  0  0  0
  8  9  1  0  0  0  0
  9 10  2  0  0  0  0
M  END
>  <CHROM.1>
-30.36086075,17.83698443,-16.17978078,1.06103292,-0.73872941,1.90017873

>  <Name>
ligand

>  <RI>
0

>  <Rbt.Current_Directory>
/home/itssahil/PROJECTS/Mol_Feturizer/New_Systems/rnas/4TZY

>  <Rbt.Executable>
rbdock ($Id: //depot/dev/client3/rdock/2013.1/src/exe/rbdock.cxx#4 $)

>  <Rbt.Library>
libRbt.so (2013.1, Build901 2013/11/27)

>  <Rbt.Parameter_File>
/export/apps/rDock/src/rDock_2013.1_src/data/scripts/dock_solv.prm

>  <Rbt.Receptor>
prm/blind_docking_100.prm

>  <SCORE>
-14.343

>  <SCORE.INTER>
-14.343

>  <SCORE.INTER.CONST>
1

>  <SCORE.INTER.POLAR>
0

>  <SCORE.INTER.ROT>
0

>  <SCORE.INTER.SOLV>
7.22972

>  <SCORE.INTER.VDW>
-15.5719

>  <SCORE.INTER.norm>
-1.4343

>  <SCORE.INTRA>
0

>  <SCORE.INTRA.DIHEDRAL>
0

>  <SCORE.INTRA.DIHEDRAL.0>
0

>  <SCORE.INTRA.POLAR>
0

>  <SCORE.INTRA.POLAR.0>
0

>  <SCORE.INTRA.REPUL>
0

>  <SCORE.INTRA.REPUL.0>
0

>  <SCORE.INTRA.SOLV>
0

>  <SCORE.INTRA.SOLV.lig_0>
-23.8941

>  <SCORE.INTRA.VDW>
0

>  <SCORE.INTRA.VDW.0>
0

>  <SCORE.INTRA.norm>
0

>  <SCORE.RESTR>
0

>  <SCORE.RESTR.CAVITY>
0

>  <SCORE.RESTR.norm>
0

>  <SCORE.SYSTEM>
0

>  <SCORE.SYSTEM.CONST>
0

>  <SCORE.SYSTEM.DIHEDRAL>
0

>  <SCORE.SYSTEM.SOLV>
0

>  <SCORE.SYSTEM.norm>
0

>  <SCORE.heavy>
10

>  <SCORE.norm>
-1.4343

>  <RMSD>
0.568

$$$$
ligand
 OpenBabel11021811513D
libRbt.so/2013.1/901 2013/11/27
 10 11  0  0  0  0  0  0  0  0999 V2000
  -29.8885   16.7897  -14.3468 N   0  0  0  0  0  0  0  0  0  0  0  0
  -30.8598   17.6360  -13.9826 C   0  0  0  0  0  0  0  0  0  0  0  0
  -31.5013   18.5413  -14.7194 N   0  0  0  0  0  0  0  0  0  0  0  0
  -31.0483   18.5357  -15.9828 C   0  0  0  0  0  0  0  0  0  0  0  0
  -30.0570   17.7281  -16.5049 C   0  0  0  0  0  0  0  0  0  0  0  0
  -29.4547   16.8082  -15.6236 C   0  0  0  0  0  0  0  0  0  0  0  0
  -28.4840   15.9643  -15.9904 N   0  0  0  0  0  0  0  0  0  0  0  0
  -29.8560   18.0023  -17.8472 N   0  0  0  0  0  0  0  0  0  0  0  0
  -30.7175   18.9587  -18.1047 C   0  0  0  0  0  0  0  0  0  0  0  0
  -31.4696   19.3300  -17.0252 N   0  0  0  0  0  0  0  0  0  0  0  0
  1  2  2  0  0  0  0
  1  6  1  0  0  0  0
  2  3  1  0  0  0  0
  3  4  2  0  0  0  0
  4  5  1  0  0  0  0
  4 10  1  0  0  0  0
  5  6  2  0  0  0  0
  5  8  1  0  0  0  0
  6  7  1  0  0  0  0
  8  9  1  0  0  0  0
  9 10  2  0  0  0  0
M  END
>  <CHROM.1>
-30.32648164,17.82145820,-16.01068388,1.07507121,-0.75760088,1.91253370

>  <Name>
ligand

>  <RI>
0

>  <Rbt.Current_Directory>
/home/itssahil/PROJECTS/Mol_Feturizer/New_Systems/rnas/4TZY

>  <Rbt.Executable>
rbdock ($Id: //depot/dev/client3/rdock/2013.1/src/exe/rbdock.cxx#4 $)

>  <Rbt.Library>
libRbt.so (2013.1, Build901 2013/11/27)

>  <Rbt.Parameter_File>
/export/apps/rDock/src/rDock_2013.1_src/data/scripts/dock_solv.prm

>  <Rbt.Receptor>
prm/pocket_docking_6.prm

>  <SCORE>
-14.2688

>  <SCORE.INTER>
-14.269

>  <SCORE.INTER.CONST>
1

>  <SCORE.INTER.POLAR>
0

>  <SCORE.INTER.ROT>
0

>  <SCORE.INTER.SOLV>
7.13126

>  <SCORE.INTER.VDW>
-15.4898

>  <SCORE.INTER.norm>
-1.4269

>  <SCORE.INTRA>
0

>  <SCORE.INTRA.DIHEDRAL>
0

>  <SCORE.INTRA.DIHEDRAL.0>
0

>  <SCORE.INTRA.POLAR>
0

>  <SCORE.INTRA.POLAR.0>
0

>  <SCORE.INTRA.REPUL>
0

>  <SCORE.INTRA.REPUL.0>
0

>  <SCORE.INTRA.SOLV>
0

>  <SCORE.INTRA.SOLV.lig_0>
-23.8941

>  <SCORE.INTRA.VDW>
0

>  <SCORE.INTRA.VDW.0>
0

>  <SCORE.INTRA.norm>
0

>  <SCORE.RESTR>
0.000210871

>  <SCORE.RESTR.CAVITY>
0.000210871

>  <SCORE.RESTR.norm>
2.10871e-05

>  <SCORE.SYSTEM>
0

>  <SCORE.SYSTEM.CONST>
0

>  <SCORE.SYSTEM.DIHEDRAL>
0

>  <SCORE.SYSTEM.SOLV>
0

>  <SCORE.SYSTEM.norm>
0

>  <SCORE.heavy>
10

>  <SCORE.norm>
-1.42688

>  <RMSD>
0.568

$$$$
ligand
 OpenBabel11021811513D
libRbt.so/2013.1/901 2013/11/27
 10 11  0  0  0  0  0  0  0  0999 V2000
  -29.8932   16.7419  -14.5692 N   0  0  0  0  0  0  0  0  0  0  0  0
  -30.8896   17.5513  -14.1893 C   0  0  0  0  0  0  0  0  0  0  0  0
  -31.5588   18.4503  -14.9090 N   0  0  0  0  0  0  0  0  0  0  0  0
  -31.1066   18.4821  -16.1723 C   0  0  0  0  0  0  0  0  0  0  0  0
  -30.0915   17.7149  -16.7095 C   0  0  0  0  0  0  0  0  0  0  0  0
  -29.4609   16.7975  -15.8455 C   0  0  0  0  0  0  0  0  0  0  0  0
  -28.4652   15.9905  -16.2280 N   0  0  0  0  0  0  0  0  0  0  0  0
  -29.8996   18.0201  -18.0464 N   0  0  0  0  0  0  0  0  0  0  0  0
  -30.7900   18.9545  -18.2859 C   0  0  0  0  0  0  0  0  0  0  0  0
  -31.5525   19.2824  -17.1997 N   0  0  0  0  0  0  0  0  0  0  0  0
  1  2  2  0  0  0  0
  1  6  1  0  0  0  0
  2  3  1  0  0  0  0
  3  4  2  0  0  0  0
  4  5  1  0  0  0  0
  4 10  1  0  0  0  0
  5  6  2  0  0  0  0
  5  8  1  0  0  0  0
  6  7  1  0  0  0  0
  8  9  1  0  0  0  0
  9 10  2  0  0  0  0
M  END
>  <CHROM.1>
-30.36336038,17.79076168,-16.21356407,1.06065135,-0.72904929,1.92147308

>  <Name>
ligand

>  <RI>
0

>  <Rbt.Current_Directory>
/home/itssahil/PROJECTS/Mol_Feturizer/New_Systems/rnas/4TZY

>  <Rbt.Executable>
rbdock ($Id: //depot/dev/client3/rdock/2013.1/src/exe/rbdock.cxx#4 $)

>  <Rbt.Library>
libRbt.so (2013.1, Build901 2013/11/27)

>  <Rbt.Parameter_File>
/export/apps/rDock/src/rDock_2013.1_src/data/scripts/dock_solv.prm

>  <Rbt.Receptor>
prm/pocket_docking_6.prm

>  <SCORE>
-14.2936

>  <SCORE.INTER>
-14.2936

>  <SCORE.INTER.CONST>
1

>  <SCORE.INTER.POLAR>
0

>  <SCORE.INTER.ROT>
0

>  <SCORE.INTER.SOLV>
7.42166

>  <SCORE.INTER.VDW>
-15.603

>  <SCORE.INTER.norm>
-1.42936

>  <SCORE.INTRA>
0

>  <SCORE.INTRA.DIHEDRAL>
0

>  <SCORE.INTRA.DIHEDRAL.0>
0

>  <SCORE.INTRA.POLAR>
0

>  <SCORE.INTRA.POLAR.0>
0

>  <SCORE.INTRA.REPUL>
0

>  <SCORE.INTRA.REPUL.0>
0

>  <SCORE.INTRA.SOLV>
0

>  <SCORE.INTRA.SOLV.lig_0>
-23.8941

>  <SCORE.INTRA.VDW>
0

>  <SCORE.INTRA.VDW.0>
0

>  <SCORE.INTRA.norm>
0

>  <SCORE.RESTR>
0

>  <SCORE.RESTR.CAVITY>
0

>  <SCORE.RESTR.norm>
0

>  <SCORE.SYSTEM>
0

>  <SCORE.SYSTEM.CONST>
0

>  <SCORE.SYSTEM.DIHEDRAL>
0

>  <SCORE.SYSTEM.SOLV>
0

>  <SCORE.SYSTEM.norm>
0

>  <SCORE.heavy>
10

>  <SCORE.norm>
-1.42936

>  <RMSD>
0.568

$$$$
ligand
 OpenBabel11021811513D
libRbt.so/2013.1/901 2013/11/27
 10 11  0  0  0  0  0  0  0  0999 V2000
  -29.9105   16.7940  -14.5158 N   0  0  0  0  0  0  0  0  0  0  0  0
  -30.9069   17.6102  -14.1502 C   0  0  0  0  0  0  0  0  0  0  0  0
  -31.5711   18.5014  -14.8840 N   0  0  0  0  0  0  0  0  0  0  0  0
  -31.1135   18.5165  -16.1456 C   0  0  0  0  0  0  0  0  0  0  0  0
  -30.0978   17.7405  -16.6688 C   0  0  0  0  0  0  0  0  0  0  0  0
  -29.4728   16.8327  -15.7908 C   0  0  0  0  0  0  0  0  0  0  0  0
  -28.4771   16.0190  -16.1590 N   0  0  0  0  0  0  0  0  0  0  0  0
  -29.8996   18.0286  -18.0086 N   0  0  0  0  0  0  0  0  0  0  0  0
  -30.7870   18.9617  -18.2637 C   0  0  0  0  0  0  0  0  0  0  0  0
  -31.5534   19.3048  -17.1849 N   0  0  0  0  0  0  0  0  0  0  0  0
  1  2  2  0  0  0  0
  1  6  1  0  0  0  0
  2  3  1  0  0  0  0
  3  4  2  0  0  0  0
  4  5  1  0  0  0  0
  4 10  1  0  0  0  0
  5  6  2  0  0  0  0
  5  8  1  0  0  0  0
  6  7  1  0  0  0  0
  8  9  1  0  0  0  0
  9 10  2  0  0  0  0
M  END
>  <CHROM.1>
-30.37156109,17.82315558,-16.17509378,1.06694508,-0.72956417,1.91314290

>  <Name>
ligand

>  <RI>
0

>  <Rbt.Current_Directory>
/home/itssahil/PROJECTS/Mol_Feturizer/New_Systems/rnas/4TZY

>  <Rbt.Executable>
rbdock ($Id: //depot/dev/client3/rdock/2013.1/src/exe/rbdock.cxx#4 $)

>  <Rbt.Library>
libRbt.so (2013.1, Build901 2013/11/27)

>  <Rbt.Parameter_File>
/export/apps/rDock/src/rDock_2013.1_src/data/scripts/dock_solv.prm

>  <Rbt.Receptor>
prm/pocket_docking_6.prm

>  <SCORE>
-14.2873

>  <SCORE.INTER>
-14.2876

>  <SCORE.INTER.CONST>
1

>  <SCORE.INTER.POLAR>
0

>  <SCORE.INTER.ROT>
0

>  <SCORE.INTER.SOLV>
7.22045

>  <SCORE.INTER.VDW>
-15.5319

>  <SCORE.INTER.norm>
-1.42876

>  <SCORE.INTRA>
0

>  <SCORE.INTRA.DIHEDRAL>
0

>  <SCORE.INTRA.DIHEDRAL.0>
0

>  <SCORE.INTRA.POLAR>
0

>  <SCORE.INTRA.POLAR.0>
0

>  <SCORE.INTRA.REPUL>
0

>  <SCORE.INTRA.REPUL.0>
0

>  <SCORE.INTRA.SOLV>
0

>  <SCORE.INTRA.SOLV.lig_0>
-23.8941

>  <SCORE.INTRA.VDW>
0

>  <SCORE.INTRA.VDW.0>
0

>  <SCORE.INTRA.norm>
0

>  <SCORE.RESTR>
0.000280649

>  <SCORE.RESTR.CAVITY>
0.000280649

>  <SCORE.RESTR.norm>
2.80649e-05

>  <SCORE.SYSTEM>
0

>  <SCORE.SYSTEM.CONST>
0

>  <SCORE.SYSTEM.DIHEDRAL>
0

>  <SCORE.SYSTEM.SOLV>
0

>  <SCORE.SYSTEM.norm>
0

>  <SCORE.heavy>
10

>  <SCORE.norm>
-1.42873

>  <RMSD>
0.569

$$$$
ligand
 OpenBabel11021811513D
libRbt.so/2013.1/901 2013/11/27
 10 11  0  0  0  0  0  0  0  0999 V2000
  -30.1037   16.9152  -14.8794 N   0  0  0  0  0  0  0  0  0  0  0  0
  -31.0291   17.8781  -14.7857 C   0  0  0  0  0  0  0  0  0  0  0  0
  -31.4769   18.7038  -15.7300 N   0  0  0  0  0  0  0  0  0  0  0  0
  -30.8625   18.4685  -16.8998 C   0  0  0  0  0  0  0  0  0  0  0  0
  -29.8927   17.5177  -17.1508 C   0  0  0  0  0  0  0  0  0  0  0  0
  -29.5041   16.7030  -16.0686 C   0  0  0  0  0  0  0  0  0  0  0  0
  -28.5787   15.7421  -16.1654 N   0  0  0  0  0  0  0  0  0  0  0  0
  -29.4894   17.5646  -18.4746 N   0  0  0  0  0  0  0  0  0  0  0  0
  -30.2131   18.5314  -18.9891 C   0  0  0  0  0  0  0  0  0  0  0  0
  -31.0631   19.1208  -18.0953 N   0  0  0  0  0  0  0  0  0  0  0  0
  1  2  2  0  0  0  0
  1  6  1  0  0  0  0
  2  3  1  0  0  0  0
  3  4  2  0  0  0  0
  4  5  1  0  0  0  0
  4 10  1  0  0  0  0
  5  6  2  0  0  0  0
  5  8  1  0  0  0  0
  6  7  1  0  0  0  0
  8  9  1  0  0  0  0
  9 10  2  0  0  0  0
M  END
>  <CHROM.1>
-30.21526894,17.70645454,-16.71965225,1.30110444,-0.79113761,1.92039395

>  <Name>
ligand

>  <RI>
0

>  <Rbt.Current_Directory>
/home/itssahil/PROJECTS/Mol_Feturizer/New_Systems/rnas/4TZY

>  <Rbt.Executable>
rbdock ($Id: //depot/dev/client3/rdock/2013.1/src/exe/rbdock.cxx#4 $)

>  <Rbt.Library>
libRbt.so (2013.1, Build901 2013/11/27)

>  <Rbt.Parameter_File>
/export/apps/rDock/src/rDock_2013.1_src/data/scripts/dock_solv.prm

>  <Rbt.Receptor>
prm/pocket_docking_3.prm

>  <SCORE>
-14.8975

>  <SCORE.INTER>
-14.8975

>  <SCORE.INTER.CONST>
1

>  <SCORE.INTER.POLAR>
0

>  <SCORE.INTER.ROT>
0

>  <SCORE.INTER.SOLV>
7.76758

>  <SCORE.INTER.VDW>
-16.1208

>  <SCORE.INTER.norm>
-1.48975

>  <SCORE.INTRA>
0

>  <SCORE.INTRA.DIHEDRAL>
0

>  <SCORE.INTRA.DIHEDRAL.0>
0

>  <SCORE.INTRA.POLAR>
0

>  <SCORE.INTRA.POLAR.0>
0

>  <SCORE.INTRA.REPUL>
0

>  <SCORE.INTRA.REPUL.0>
0

>  <SCORE.INTRA.SOLV>
0

>  <SCORE.INTRA.SOLV.lig_0>
-23.8941

>  <SCORE.INTRA.VDW>
0

>  <SCORE.INTRA.VDW.0>
0

>  <SCORE.INTRA.norm>
0

>  <SCORE.RESTR>
0

>  <SCORE.RESTR.CAVITY>
0

>  <SCORE.RESTR.norm>
0

>  <SCORE.SYSTEM>
0

>  <SCORE.SYSTEM.CONST>
0

>  <SCORE.SYSTEM.DIHEDRAL>
0

>  <SCORE.SYSTEM.SOLV>
0

>  <SCORE.SYSTEM.norm>
0

>  <SCORE.heavy>
10

>  <SCORE.norm>
-1.48975

>  <RMSD>
0.573

$$$$
ligand
 OpenBabel11021811513D
libRbt.so/2013.1/901 2013/11/27
 10 11  0  0  0  0  0  0  0  0999 V2000
  -29.9964   16.6211  -14.5594 N   0  0  0  0  0  0  0  0  0  0  0  0
  -30.9081   17.5042  -14.1336 C   0  0  0  0  0  0  0  0  0  0  0  0
  -31.4904   18.4961  -14.8052 N   0  0  0  0  0  0  0  0  0  0  0  0
  -31.0431   18.5431  -16.0697 C   0  0  0  0  0  0  0  0  0  0  0  0
  -30.1094   17.7075  -16.6507 C   0  0  0  0  0  0  0  0  0  0  0  0
  -29.5667   16.6943  -15.8356 C   0  0  0  0  0  0  0  0  0  0  0  0
  -28.6554   15.8137  -16.2639 N   0  0  0  0  0  0  0  0  0  0  0  0
  -29.8951   18.0548  -17.9739 N   0  0  0  0  0  0  0  0  0  0  0  0
  -30.6920   19.0809  -18.1621 C   0  0  0  0  0  0  0  0  0  0  0  0
  -31.4142   19.4298  -17.0551 N   0  0  0  0  0  0  0  0  0  0  0  0
  1  2  2  0  0  0  0
  1  6  1  0  0  0  0
  2  3  1  0  0  0  0
  3  4  2  0  0  0  0
  4  5  1  0  0  0  0
  4 10  1  0  0  0  0
  5  6  2  0  0  0  0
  5  8  1  0  0  0  0
  6  7  1  0  0  0  0
  8  9  1  0  0  0  0
  9 10  2  0  0  0  0
M  END
>  <CHROM.1>
-30.37041762,17.78601464,-16.14942933,1.10314143,-0.82120362,1.99769894

>  <Name>
ligand

>  <RI>
0

>  <Rbt.Current_Directory>
/home/itssahil/PROJECTS/Mol_Feturizer/New_Systems/rnas/4TZY

>  <Rbt.Executable>
rbdock ($Id: //depot/dev/client3/rdock/2013.1/src/exe/rbdock.cxx#4 $)

>  <Rbt.Library>
libRbt.so (2013.1, Build901 2013/11/27)

>  <Rbt.Parameter_File>
/export/apps/rDock/src/rDock_2013.1_src/data/scripts/dock_solv.prm

>  <Rbt.Receptor>
prm/pocket_docking_8.prm

>  <SCORE>
-14.3191

>  <SCORE.INTER>
-14.3192

>  <SCORE.INTER.CONST>
1

>  <SCORE.INTER.POLAR>
0

>  <SCORE.INTER.ROT>
0

>  <SCORE.INTER.SOLV>
8.01423

>  <SCORE.INTER.VDW>
-15.8175

>  <SCORE.INTER.norm>
-1.43192

>  <SCORE.INTRA>
0

>  <SCORE.INTRA.DIHEDRAL>
0

>  <SCORE.INTRA.DIHEDRAL.0>
0

>  <SCORE.INTRA.POLAR>
0

>  <SCORE.INTRA.POLAR.0>
0

>  <SCORE.INTRA.REPUL>
0

>  <SCORE.INTRA.REPUL.0>
0

>  <SCORE.INTRA.SOLV>
0

>  <SCORE.INTRA.SOLV.lig_0>
-23.8941

>  <SCORE.INTRA.VDW>
0

>  <SCORE.INTRA.VDW.0>
0

>  <SCORE.INTRA.norm>
0

>  <SCORE.RESTR>
4.4852e-05

>  <SCORE.RESTR.CAVITY>
4.4852e-05

>  <SCORE.RESTR.norm>
4.4852e-06

>  <SCORE.SYSTEM>
0

>  <SCORE.SYSTEM.CONST>
0

>  <SCORE.SYSTEM.DIHEDRAL>
0

>  <SCORE.SYSTEM.SOLV>
0

>  <SCORE.SYSTEM.norm>
0

>  <SCORE.heavy>
10

>  <SCORE.norm>
-1.43191

>  <RMSD>
0.576

$$$$
ligand
 OpenBabel11021811513D
libRbt.so/2013.1/901 2013/11/27
 10 11  0  0  0  0  0  0  0  0999 V2000
  -29.8342   16.7423  -14.4982 N   0  0  0  0  0  0  0  0  0  0  0  0
  -30.8263   17.5503  -14.1041 C   0  0  0  0  0  0  0  0  0  0  0  0
  -31.5078   18.4473  -14.8147 N   0  0  0  0  0  0  0  0  0  0  0  0
  -31.0747   18.4786  -16.0847 C   0  0  0  0  0  0  0  0  0  0  0  0
  -30.0665   17.7126  -16.6362 C   0  0  0  0  0  0  0  0  0  0  0  0
  -29.4214   16.7972  -15.7809 C   0  0  0  0  0  0  0  0  0  0  0  0
  -28.4301   15.9916  -16.1775 N   0  0  0  0  0  0  0  0  0  0  0  0
  -29.8953   18.0167  -17.9762 N   0  0  0  0  0  0  0  0  0  0  0  0
  -30.7908   18.9492  -18.2033 C   0  0  0  0  0  0  0  0  0  0  0  0
  -31.5375   19.2770  -17.1061 N   0  0  0  0  0  0  0  0  0  0  0  0
  1  2  2  0  0  0  0
  1  6  1  0  0  0  0
  2  3  1  0  0  0  0
  3  4  2  0  0  0  0
  4  5  1  0  0  0  0
  4 10  1  0  0  0  0
  5  6  2  0  0  0  0
  5  8  1  0  0  0  0
  6  7  1  0  0  0  0
  8  9  1  0  0  0  0
  9 10  2  0  0  0  0
M  END
>  <CHROM.1>
-30.33097607,17.78850653,-16.13635816,1.04082725,-0.73245600,1.90716212

>  <Name>
ligand

>  <RI>
0

>  <Rbt.Current_Directory>
/home/itssahil/PROJECTS/Mol_Feturizer/New_Systems/rnas/4TZY

>  <Rbt.Executable>
rbdock ($Id: //depot/dev/client3/rdock/2013.1/src/exe/rbdock.cxx#4 $)

>  <Rbt.Library>
libRbt.so (2013.1, Build901 2013/11/27)

>  <Rbt.Parameter_File>
/export/apps/rDock/src/rDock_2013.1_src/data/scripts/dock_solv.prm

>  <Rbt.Receptor>
prm/pocket_docking_5.prm

>  <SCORE>
-14.2858

>  <SCORE.INTER>
-14.2858

>  <SCORE.INTER.CONST>
1

>  <SCORE.INTER.POLAR>
0

>  <SCORE.INTER.ROT>
0

>  <SCORE.INTER.SOLV>
7.23764

>  <SCORE.INTER.VDW>
-15.5364

>  <SCORE.INTER.norm>
-1.42858

>  <SCORE.INTRA>
0

>  <SCORE.INTRA.DIHEDRAL>
0

>  <SCORE.INTRA.DIHEDRAL.0>
0

>  <SCORE.INTRA.POLAR>
0

>  <SCORE.INTRA.POLAR.0>
0

>  <SCORE.INTRA.REPUL>
0

>  <SCORE.INTRA.REPUL.0>
0

>  <SCORE.INTRA.SOLV>
0

>  <SCORE.INTRA.SOLV.lig_0>
-23.8941

>  <SCORE.INTRA.VDW>
0

>  <SCORE.INTRA.VDW.0>
0

>  <SCORE.INTRA.norm>
0

>  <SCORE.RESTR>
0

>  <SCORE.RESTR.CAVITY>
0

>  <SCORE.RESTR.norm>
0

>  <SCORE.SYSTEM>
0

>  <SCORE.SYSTEM.CONST>
0

>  <SCORE.SYSTEM.DIHEDRAL>
0

>  <SCORE.SYSTEM.SOLV>
0

>  <SCORE.SYSTEM.norm>
0

>  <SCORE.heavy>
10

>  <SCORE.norm>
-1.42858

>  <RMSD>
0.577

$$$$
ligand
 OpenBabel11021811513D
libRbt.so/2013.1/901 2013/11/27
 10 11  0  0  0  0  0  0  0  0999 V2000
  -29.9967   16.6296  -14.5561 N   0  0  0  0  0  0  0  0  0  0  0  0
  -30.9277   17.4965  -14.1389 C   0  0  0  0  0  0  0  0  0  0  0  0
  -31.5228   18.4766  -14.8166 N   0  0  0  0  0  0  0  0  0  0  0  0
  -31.0665   18.5298  -16.0777 C   0  0  0  0  0  0  0  0  0  0  0  0
  -30.1132   17.7105  -16.6501 C   0  0  0  0  0  0  0  0  0  0  0  0
  -29.5584   16.7086  -15.8291 C   0  0  0  0  0  0  0  0  0  0  0  0
  -28.6280   15.8442  -16.2488 N   0  0  0  0  0  0  0  0  0  0  0  0
  -29.8949   18.0597  -17.9721 N   0  0  0  0  0  0  0  0  0  0  0  0
  -30.7089   19.0707  -18.1682 C   0  0  0  0  0  0  0  0  0  0  0  0
  -31.4460   19.4081  -17.0674 N   0  0  0  0  0  0  0  0  0  0  0  0
  1  2  2  0  0  0  0
  1  6  1  0  0  0  0
  2  3  1  0  0  0  0
  3  4  2  0  0  0  0
  4  5  1  0  0  0  0
  4 10  1  0  0  0  0
  5  6  2  0  0  0  0
  5  8  1  0  0  0  0
  6  7  1  0  0  0  0
  8  9  1  0  0  0  0
  9 10  2  0  0  0  0
M  END
>  <CHROM.1>
-30.37949129,17.78500926,-16.15094619,1.10250330,-0.80135842,1.99564911

>  <Name>
ligand

>  <RI>
0

>  <Rbt.Current_Directory>
/home/itssahil/PROJECTS/Mol_Feturizer/New_Systems/rnas/4TZY

>  <Rbt.Executable>
rbdock ($Id: //depot/dev/client3/rdock/2013.1/src/exe/rbdock.cxx#4 $)

>  <Rbt.Library>
libRbt.so (2013.1, Build901 2013/11/27)

>  <Rbt.Parameter_File>
/export/apps/rDock/src/rDock_2013.1_src/data/scripts/dock_solv.prm

>  <Rbt.Receptor>
prm/pocket_docking_8.prm

>  <SCORE>
-14.3251

>  <SCORE.INTER>
-14.3251

>  <SCORE.INTER.CONST>
1

>  <SCORE.INTER.POLAR>
0

>  <SCORE.INTER.ROT>
0

>  <SCORE.INTER.SOLV>
7.8826

>  <SCORE.INTER.VDW>
-15.7776

>  <SCORE.INTER.norm>
-1.43251

>  <SCORE.INTRA>
0

>  <SCORE.INTRA.DIHEDRAL>
0

>  <SCORE.INTRA.DIHEDRAL.0>
0

>  <SCORE.INTRA.POLAR>
0

>  <SCORE.INTRA.POLAR.0>
0

>  <SCORE.INTRA.REPUL>
0

>  <SCORE.INTRA.REPUL.0>
0

>  <SCORE.INTRA.SOLV>
0

>  <SCORE.INTRA.SOLV.lig_0>
-23.8941

>  <SCORE.INTRA.VDW>
0

>  <SCORE.INTRA.VDW.0>
0

>  <SCORE.INTRA.norm>
0

>  <SCORE.RESTR>
0

>  <SCORE.RESTR.CAVITY>
0

>  <SCORE.RESTR.norm>
0

>  <SCORE.SYSTEM>
0

>  <SCORE.SYSTEM.CONST>
0

>  <SCORE.SYSTEM.DIHEDRAL>
0

>  <SCORE.SYSTEM.SOLV>
0

>  <SCORE.SYSTEM.norm>
0

>  <SCORE.heavy>
10

>  <SCORE.norm>
-1.43251

>  <RMSD>
0.577

$$$$
ligand
 OpenBabel11021811513D
libRbt.so/2013.1/901 2013/11/27
 10 11  0  0  0  0  0  0  0  0999 V2000
  -29.8301   16.8202  -14.3436 N   0  0  0  0  0  0  0  0  0  0  0  0
  -30.8273   17.6369  -13.9819 C   0  0  0  0  0  0  0  0  0  0  0  0
  -31.5036   18.5122  -14.7238 N   0  0  0  0  0  0  0  0  0  0  0  0
  -31.0584   18.5087  -15.9899 C   0  0  0  0  0  0  0  0  0  0  0  0
  -30.0435   17.7297  -16.5101 C   0  0  0  0  0  0  0  0  0  0  0  0
  -29.4050   16.8400  -15.6233 C   0  0  0  0  0  0  0  0  0  0  0  0
  -28.4085   16.0255  -15.9877 N   0  0  0  0  0  0  0  0  0  0  0  0
  -29.8600   17.9964  -17.8564 N   0  0  0  0  0  0  0  0  0  0  0  0
  -30.7550   18.9203  -18.1181 C   0  0  0  0  0  0  0  0  0  0  0  0
  -31.5127   19.2773  -17.0377 N   0  0  0  0  0  0  0  0  0  0  0  0
  1  2  2  0  0  0  0
  1  6  1  0  0  0  0
  2  3  1  0  0  0  0
  3  4  2  0  0  0  0
  4  5  1  0  0  0  0
  4 10  1  0  0  0  0
  5  6  2  0  0  0  0
  5  8  1  0  0  0  0
  6  7  1  0  0  0  0
  8  9  1  0  0  0  0
  9 10  2  0  0  0  0
M  END
>  <CHROM.1>
-30.31293682,17.81901881,-16.01515694,1.05216448,-0.72756967,1.88666312

>  <Name>
ligand

>  <RI>
0

>  <Rbt.Current_Directory>
/home/itssahil/PROJECTS/Mol_Feturizer/New_Systems/rnas/4TZY

>  <Rbt.Executable>
rbdock ($Id: //depot/dev/client3/rdock/2013.1/src/exe/rbdock.cxx#4 $)

>  <Rbt.Library>
libRbt.so (2013.1, Build901 2013/11/27)

>  <Rbt.Parameter_File>
/export/apps/rDock/src/rDock_2013.1_src/data/scripts/dock_solv.prm

>  <Rbt.Receptor>
prm/pocket_docking_5.prm

>  <SCORE>
-14.2914

>  <SCORE.INTER>
-14.2914

>  <SCORE.INTER.CONST>
1

>  <SCORE.INTER.POLAR>
0

>  <SCORE.INTER.ROT>
0

>  <SCORE.INTER.SOLV>
7.05604

>  <SCORE.INTER.VDW>
-15.4796

>  <SCORE.INTER.norm>
-1.42914

>  <SCORE.INTRA>
0

>  <SCORE.INTRA.DIHEDRAL>
0

>  <SCORE.INTRA.DIHEDRAL.0>
0

>  <SCORE.INTRA.POLAR>
0

>  <SCORE.INTRA.POLAR.0>
0

>  <SCORE.INTRA.REPUL>
0

>  <SCORE.INTRA.REPUL.0>
0

>  <SCORE.INTRA.SOLV>
0

>  <SCORE.INTRA.SOLV.lig_0>
-23.8941

>  <SCORE.INTRA.VDW>
0

>  <SCORE.INTRA.VDW.0>
0

>  <SCORE.INTRA.norm>
0

>  <SCORE.RESTR>
0

>  <SCORE.RESTR.CAVITY>
0

>  <SCORE.RESTR.norm>
0

>  <SCORE.SYSTEM>
0

>  <SCORE.SYSTEM.CONST>
0

>  <SCORE.SYSTEM.DIHEDRAL>
0

>  <SCORE.SYSTEM.SOLV>
0

>  <SCORE.SYSTEM.norm>
0

>  <SCORE.heavy>
10

>  <SCORE.norm>
-1.42914

>  <RMSD>
0.579

$$$$
ligand
 OpenBabel11021811513D
libRbt.so/2013.1/901 2013/11/27
 10 11  0  0  0  0  0  0  0  0999 V2000
  -29.8825   16.7697  -14.3696 N   0  0  0  0  0  0  0  0  0  0  0  0
  -30.8907   17.5712  -14.0040 C   0  0  0  0  0  0  0  0  0  0  0  0
  -31.5602   18.4610  -14.7348 N   0  0  0  0  0  0  0  0  0  0  0  0
  -31.0943   18.4921  -15.9931 C   0  0  0  0  0  0  0  0  0  0  0  0
  -30.0661   17.7324  -16.5159 C   0  0  0  0  0  0  0  0  0  0  0  0
  -29.4366   16.8244  -15.6413 C   0  0  0  0  0  0  0  0  0  0  0  0
  -28.4292   16.0253  -16.0095 N   0  0  0  0  0  0  0  0  0  0  0  0
  -29.8623   18.0341  -17.8518 N   0  0  0  0  0  0  0  0  0  0  0  0
  -30.7587   18.9591  -18.1050 C   0  0  0  0  0  0  0  0  0  0  0  0
  -31.5363   19.2841  -17.0286 N   0  0  0  0  0  0  0  0  0  0  0  0
  1  2  2  0  0  0  0
  1  6  1  0  0  0  0
  2  3  1  0  0  0  0
  3  4  2  0  0  0  0
  4  5  1  0  0  0  0
  4 10  1  0  0  0  0
  5  6  2  0  0  0  0
  5  8  1  0  0  0  0
  6  7  1  0  0  0  0
  8  9  1  0  0  0  0
  9 10  2  0  0  0  0
M  END
>  <CHROM.1>
-30.34420140,17.80763392,-16.02332513,1.07023272,-0.71637899,1.92382751

>  <Name>
ligand

>  <RI>
0

>  <Rbt.Current_Directory>
/home/itssahil/PROJECTS/Mol_Feturizer/New_Systems/rnas/4TZY

>  <Rbt.Executable>
rbdock ($Id: //depot/dev/client3/rdock/2013.1/src/exe/rbdock.cxx#4 $)

>  <Rbt.Library>
libRbt.so (2013.1, Build901 2013/11/27)

>  <Rbt.Parameter_File>
/export/apps/rDock/src/rDock_2013.1_src/data/scripts/dock_solv.prm

>  <Rbt.Receptor>
prm/pocket_docking_6.prm

>  <SCORE>
-14.2744

>  <SCORE.INTER>
-14.2744

>  <SCORE.INTER.CONST>
1

>  <SCORE.INTER.POLAR>
0

>  <SCORE.INTER.ROT>
0

>  <SCORE.INTER.SOLV>
7.07173

>  <SCORE.INTER.VDW>
-15.4735

>  <SCORE.INTER.norm>
-1.42744

>  <SCORE.INTRA>
0

>  <SCORE.INTRA.DIHEDRAL>
0

>  <SCORE.INTRA.DIHEDRAL.0>
0

>  <SCORE.INTRA.POLAR>
0

>  <SCORE.INTRA.POLAR.0>
0

>  <SCORE.INTRA.REPUL>
0

>  <SCORE.INTRA.REPUL.0>
0

>  <SCORE.INTRA.SOLV>
0

>  <SCORE.INTRA.SOLV.lig_0>
-23.8941

>  <SCORE.INTRA.VDW>
0

>  <SCORE.INTRA.VDW.0>
0

>  <SCORE.INTRA.norm>
0

>  <SCORE.RESTR>
0

>  <SCORE.RESTR.CAVITY>
0

>  <SCORE.RESTR.norm>
0

>  <SCORE.SYSTEM>
0

>  <SCORE.SYSTEM.CONST>
0

>  <SCORE.SYSTEM.DIHEDRAL>
0

>  <SCORE.SYSTEM.SOLV>
0

>  <SCORE.SYSTEM.norm>
0

>  <SCORE.heavy>
10

>  <SCORE.norm>
-1.42744

>  <RMSD>
0.588

$$$$
ligand
 OpenBabel11021811513D
libRbt.so/2013.1/901 2013/11/27
 10 11  0  0  0  0  0  0  0  0999 V2000
  -29.9618   16.7022  -14.5284 N   0  0  0  0  0  0  0  0  0  0  0  0
  -30.9709   17.4970  -14.1510 C   0  0  0  0  0  0  0  0  0  0  0  0
  -31.6276   18.4114  -14.8626 N   0  0  0  0  0  0  0  0  0  0  0  0
  -31.1464   18.4781  -16.1137 C   0  0  0  0  0  0  0  0  0  0  0  0
  -30.1152   17.7297  -16.6467 C   0  0  0  0  0  0  0  0  0  0  0  0
  -29.5003   16.7929  -15.7923 C   0  0  0  0  0  0  0  0  0  0  0  0
  -28.4919   16.0005  -16.1723 N   0  0  0  0  0  0  0  0  0  0  0  0
  -29.8939   18.0705  -17.9704 N   0  0  0  0  0  0  0  0  0  0  0  0
  -30.7831   19.0068  -18.2064 C   0  0  0  0  0  0  0  0  0  0  0  0
  -31.5723   19.3030  -17.1301 N   0  0  0  0  0  0  0  0  0  0  0  0
  1  2  2  0  0  0  0
  1  6  1  0  0  0  0
  2  3  1  0  0  0  0
  3  4  2  0  0  0  0
  4  5  1  0  0  0  0
  4 10  1  0  0  0  0
  5  6  2  0  0  0  0
  5  8  1  0  0  0  0
  6  7  1  0  0  0  0
  8  9  1  0  0  0  0
  9 10  2  0  0  0  0
M  END
>  <CHROM.1>
-30.39890972,17.79140311,-16.15550369,1.08731247,-0.71616595,1.96510799

>  <Name>
ligand

>  <RI>
0

>  <Rbt.Current_Directory>
/home/itssahil/PROJECTS/Mol_Feturizer/New_Systems/rnas/4TZY

>  <Rbt.Executable>
rbdock ($Id: //depot/dev/client3/rdock/2013.1/src/exe/rbdock.cxx#4 $)

>  <Rbt.Library>
libRbt.so (2013.1, Build901 2013/11/27)

>  <Rbt.Parameter_File>
/export/apps/rDock/src/rDock_2013.1_src/data/scripts/dock_solv.prm

>  <Rbt.Receptor>
prm/pocket_docking_6.prm

>  <SCORE>
-14.3248

>  <SCORE.INTER>
-14.3255

>  <SCORE.INTER.CONST>
1

>  <SCORE.INTER.POLAR>
0

>  <SCORE.INTER.ROT>
0

>  <SCORE.INTER.SOLV>
7.30478

>  <SCORE.INTER.VDW>
-15.5853

>  <SCORE.INTER.norm>
-1.43255

>  <SCORE.INTRA>
0

>  <SCORE.INTRA.DIHEDRAL>
0

>  <SCORE.INTRA.DIHEDRAL.0>
0

>  <SCORE.INTRA.POLAR>
0

>  <SCORE.INTRA.POLAR.0>
0

>  <SCORE.INTRA.REPUL>
0

>  <SCORE.INTRA.REPUL.0>
0

>  <SCORE.INTRA.SOLV>
0

>  <SCORE.INTRA.SOLV.lig_0>
-23.8941

>  <SCORE.INTRA.VDW>
0

>  <SCORE.INTRA.VDW.0>
0

>  <SCORE.INTRA.norm>
0

>  <SCORE.RESTR>
0.000740206

>  <SCORE.RESTR.CAVITY>
0.000740206

>  <SCORE.RESTR.norm>
7.40206e-05

>  <SCORE.SYSTEM>
0

>  <SCORE.SYSTEM.CONST>
0

>  <SCORE.SYSTEM.DIHEDRAL>
0

>  <SCORE.SYSTEM.SOLV>
0

>  <SCORE.SYSTEM.norm>
0

>  <SCORE.heavy>
10

>  <SCORE.norm>
-1.43248

>  <RMSD>
0.588

$$$$
ligand
 OpenBabel11021811513D
libRbt.so/2013.1/901 2013/11/27
 10 11  0  0  0  0  0  0  0  0999 V2000
  -29.9456   16.7123  -14.5278 N   0  0  0  0  0  0  0  0  0  0  0  0
  -30.9563   17.5043  -14.1486 C   0  0  0  0  0  0  0  0  0  0  0  0
  -31.6227   18.4106  -14.8617 N   0  0  0  0  0  0  0  0  0  0  0  0
  -31.1504   18.4716  -16.1165 C   0  0  0  0  0  0  0  0  0  0  0  0
  -30.1190   17.7251  -16.6517 C   0  0  0  0  0  0  0  0  0  0  0  0
  -29.4933   16.7971  -15.7954 C   0  0  0  0  0  0  0  0  0  0  0  0
  -28.4833   16.0076  -16.1771 N   0  0  0  0  0  0  0  0  0  0  0  0
  -29.9085   18.0583  -17.9790 N   0  0  0  0  0  0  0  0  0  0  0  0
  -30.8043   18.9884  -18.2150 C   0  0  0  0  0  0  0  0  0  0  0  0
  -31.5876   19.2875  -17.1353 N   0  0  0  0  0  0  0  0  0  0  0  0
  1  2  2  0  0  0  0
  1  6  1  0  0  0  0
  2  3  1  0  0  0  0
  3  4  2  0  0  0  0
  4  5  1  0  0  0  0
  4 10  1  0  0  0  0
  5  6  2  0  0  0  0
  5  8  1  0  0  0  0
  6  7  1  0  0  0  0
  8  9  1  0  0  0  0
  9 10  2  0  0  0  0
M  END
>  <CHROM.1>
-30.39961921,17.78852954,-16.15891526,1.07626090,-0.71388439,1.95130539

>  <Name>
ligand

>  <RI>
0

>  <Rbt.Current_Directory>
/home/itssahil/PROJECTS/Mol_Feturizer/New_Systems/rnas/4TZY

>  <Rbt.Executable>
rbdock ($Id: //depot/dev/client3/rdock/2013.1/src/exe/rbdock.cxx#4 $)

>  <Rbt.Library>
libRbt.so (2013.1, Build901 2013/11/27)

>  <Rbt.Parameter_File>
/export/apps/rDock/src/rDock_2013.1_src/data/scripts/dock_solv.prm

>  <Rbt.Receptor>
prm/pocket_docking_6.prm

>  <SCORE>
-14.2713

>  <SCORE.INTER>
-14.2713

>  <SCORE.INTER.CONST>
1

>  <SCORE.INTER.POLAR>
0

>  <SCORE.INTER.ROT>
0

>  <SCORE.INTER.SOLV>
7.29401

>  <SCORE.INTER.VDW>
-15.5456

>  <SCORE.INTER.norm>
-1.42713

>  <SCORE.INTRA>
0

>  <SCORE.INTRA.DIHEDRAL>
0

>  <SCORE.INTRA.DIHEDRAL.0>
0

>  <SCORE.INTRA.POLAR>
0

>  <SCORE.INTRA.POLAR.0>
0

>  <SCORE.INTRA.REPUL>
0

>  <SCORE.INTRA.REPUL.0>
0

>  <SCORE.INTRA.SOLV>
0

>  <SCORE.INTRA.SOLV.lig_0>
-23.8941

>  <SCORE.INTRA.VDW>
0

>  <SCORE.INTRA.VDW.0>
0

>  <SCORE.INTRA.norm>
0

>  <SCORE.RESTR>
0

>  <SCORE.RESTR.CAVITY>
0

>  <SCORE.RESTR.norm>
0

>  <SCORE.SYSTEM>
0

>  <SCORE.SYSTEM.CONST>
0

>  <SCORE.SYSTEM.DIHEDRAL>
0

>  <SCORE.SYSTEM.SOLV>
0

>  <SCORE.SYSTEM.norm>
0

>  <SCORE.heavy>
10

>  <SCORE.norm>
-1.42713

>  <RMSD>
0.589

$$$$
ligand
 OpenBabel11021811513D
libRbt.so/2013.1/901 2013/11/27
 10 11  0  0  0  0  0  0  0  0999 V2000
  -29.8181   16.6872  -14.5466 N   0  0  0  0  0  0  0  0  0  0  0  0
  -30.7767   17.5175  -14.1176 C   0  0  0  0  0  0  0  0  0  0  0  0
  -31.4416   18.4507  -14.7965 N   0  0  0  0  0  0  0  0  0  0  0  0
  -31.0302   18.4957  -16.0732 C   0  0  0  0  0  0  0  0  0  0  0  0
  -30.0567   17.7104  -16.6591 C   0  0  0  0  0  0  0  0  0  0  0  0
  -29.4263   16.7568  -15.8351 C   0  0  0  0  0  0  0  0  0  0  0  0
  -28.4684   15.9290  -16.2667 N   0  0  0  0  0  0  0  0  0  0  0  0
  -29.8995   18.0378  -17.9953 N   0  0  0  0  0  0  0  0  0  0  0  0
  -30.7686   19.0029  -18.1863 C   0  0  0  0  0  0  0  0  0  0  0  0
  -31.4850   19.3303  -17.0690 N   0  0  0  0  0  0  0  0  0  0  0  0
  1  2  2  0  0  0  0
  1  6  1  0  0  0  0
  2  3  1  0  0  0  0
  3  4  2  0  0  0  0
  4  5  1  0  0  0  0
  4 10  1  0  0  0  0
  5  6  2  0  0  0  0
  5  8  1  0  0  0  0
  6  7  1  0  0  0  0
  8  9  1  0  0  0  0
  9 10  2  0  0  0  0
M  END
>  <CHROM.1>
-30.30986360,17.78378393,-16.15302462,1.03243886,-0.76843562,1.92278988

>  <Name>
ligand

>  <RI>
0

>  <Rbt.Current_Directory>
/home/itssahil/PROJECTS/Mol_Feturizer/New_Systems/rnas/4TZY

>  <Rbt.Executable>
rbdock ($Id: //depot/dev/client3/rdock/2013.1/src/exe/rbdock.cxx#4 $)

>  <Rbt.Library>
libRbt.so (2013.1, Build901 2013/11/27)

>  <Rbt.Parameter_File>
/export/apps/rDock/src/rDock_2013.1_src/data/scripts/dock_solv.prm

>  <Rbt.Receptor>
prm/pocket_docking_6.prm

>  <SCORE>
-14.272

>  <SCORE.INTER>
-14.272

>  <SCORE.INTER.CONST>
1

>  <SCORE.INTER.POLAR>
0

>  <SCORE.INTER.ROT>
0

>  <SCORE.INTER.SOLV>
7.6238

>  <SCORE.INTER.VDW>
-15.6559

>  <SCORE.INTER.norm>
-1.4272

>  <SCORE.INTRA>
0

>  <SCORE.INTRA.DIHEDRAL>
0

>  <SCORE.INTRA.DIHEDRAL.0>
0

>  <SCORE.INTRA.POLAR>
0

>  <SCORE.INTRA.POLAR.0>
0

>  <SCORE.INTRA.REPUL>
0

>  <SCORE.INTRA.REPUL.0>
0

>  <SCORE.INTRA.SOLV>
0

>  <SCORE.INTRA.SOLV.lig_0>
-23.8941

>  <SCORE.INTRA.VDW>
0

>  <SCORE.INTRA.VDW.0>
0

>  <SCORE.INTRA.norm>
0

>  <SCORE.RESTR>
0

>  <SCORE.RESTR.CAVITY>
0

>  <SCORE.RESTR.norm>
0

>  <SCORE.SYSTEM>
0

>  <SCORE.SYSTEM.CONST>
0

>  <SCORE.SYSTEM.DIHEDRAL>
0

>  <SCORE.SYSTEM.SOLV>
0

>  <SCORE.SYSTEM.norm>
0

>  <SCORE.heavy>
10

>  <SCORE.norm>
-1.4272

>  <RMSD>
0.591

$$$$
ligand
 OpenBabel11021811513D
libRbt.so/2013.1/901 2013/11/27
 10 11  0  0  0  0  0  0  0  0999 V2000
  -29.8633   16.7509  -14.3606 N   0  0  0  0  0  0  0  0  0  0  0  0
  -30.8587   17.5625  -13.9826 C   0  0  0  0  0  0  0  0  0  0  0  0
  -31.5234   18.4640  -14.7033 N   0  0  0  0  0  0  0  0  0  0  0  0
  -31.0676   18.4960  -15.9652 C   0  0  0  0  0  0  0  0  0  0  0  0
  -30.0529   17.7267  -16.5003 C   0  0  0  0  0  0  0  0  0  0  0  0
  -29.4273   16.8067  -15.6356 C   0  0  0  0  0  0  0  0  0  0  0  0
  -28.4326   15.9974  -16.0161 N   0  0  0  0  0  0  0  0  0  0  0  0
  -29.8565   18.0328  -17.8363 N   0  0  0  0  0  0  0  0  0  0  0  0
  -30.7437   18.9698  -18.0774 C   0  0  0  0  0  0  0  0  0  0  0  0
  -31.5084   19.2986  -16.9930 N   0  0  0  0  0  0  0  0  0  0  0  0
  1  2  2  0  0  0  0
  1  6  1  0  0  0  0
  2  3  1  0  0  0  0
  3  4  2  0  0  0  0
  4  5  1  0  0  0  0
  4 10  1  0  0  0  0
  5  6  2  0  0  0  0
  5  8  1  0  0  0  0
  6  7  1  0  0  0  0
  8  9  1  0  0  0  0
  9 10  2  0  0  0  0
M  END
>  <CHROM.1>
-30.32603218,17.80272130,-16.00511656,1.06547070,-0.73056037,1.92576857

>  <Name>
ligand

>  <RI>
0

>  <Rbt.Current_Directory>
/home/itssahil/PROJECTS/Mol_Feturizer/New_Systems/rnas/4TZY

>  <Rbt.Executable>
rbdock ($Id: //depot/dev/client3/rdock/2013.1/src/exe/rbdock.cxx#4 $)

>  <Rbt.Library>
libRbt.so (2013.1, Build901 2013/11/27)

>  <Rbt.Parameter_File>
/export/apps/rDock/src/rDock_2013.1_src/data/scripts/dock_solv.prm

>  <Rbt.Receptor>
prm/pocket_docking_4.prm

>  <SCORE>
-14.3141

>  <SCORE.INTER>
-14.3141

>  <SCORE.INTER.CONST>
1

>  <SCORE.INTER.POLAR>
0

>  <SCORE.INTER.ROT>
0

>  <SCORE.INTER.SOLV>
7.10003

>  <SCORE.INTER.VDW>
-15.5094

>  <SCORE.INTER.norm>
-1.43141

>  <SCORE.INTRA>
0

>  <SCORE.INTRA.DIHEDRAL>
0

>  <SCORE.INTRA.DIHEDRAL.0>
0

>  <SCORE.INTRA.POLAR>
0

>  <SCORE.INTRA.POLAR.0>
0

>  <SCORE.INTRA.REPUL>
0

>  <SCORE.INTRA.REPUL.0>
0

>  <SCORE.INTRA.SOLV>
0

>  <SCORE.INTRA.SOLV.lig_0>
-23.8941

>  <SCORE.INTRA.VDW>
0

>  <SCORE.INTRA.VDW.0>
0

>  <SCORE.INTRA.norm>
0

>  <SCORE.RESTR>
0

>  <SCORE.RESTR.CAVITY>
0

>  <SCORE.RESTR.norm>
0

>  <SCORE.SYSTEM>
0

>  <SCORE.SYSTEM.CONST>
0

>  <SCORE.SYSTEM.DIHEDRAL>
0

>  <SCORE.SYSTEM.SOLV>
0

>  <SCORE.SYSTEM.norm>
0

>  <SCORE.heavy>
10

>  <SCORE.norm>
-1.43141

>  <RMSD>
0.592

$$$$
ligand
 OpenBabel11021811513D
libRbt.so/2013.1/901 2013/11/27
 10 11  0  0  0  0  0  0  0  0999 V2000
  -30.0040   16.9973  -14.8593 N   0  0  0  0  0  0  0  0  0  0  0  0
  -30.9883   17.9007  -14.7736 C   0  0  0  0  0  0  0  0  0  0  0  0
  -31.4935   18.6816  -15.7270 N   0  0  0  0  0  0  0  0  0  0  0  0
  -30.8723   18.4679  -16.8974 C   0  0  0  0  0  0  0  0  0  0  0  0
  -29.8454   17.5770  -17.1409 C   0  0  0  0  0  0  0  0  0  0  0  0
  -29.3992   16.8055  -16.0494 C   0  0  0  0  0  0  0  0  0  0  0  0
  -28.4151   15.9040  -16.1382 N   0  0  0  0  0  0  0  0  0  0  0  0
  -29.4538   17.6291  -18.4680 N   0  0  0  0  0  0  0  0  0  0  0  0
  -30.2408   18.5398  -18.9919 C   0  0  0  0  0  0  0  0  0  0  0  0
  -31.1213   19.0877  -18.1011 N   0  0  0  0  0  0  0  0  0  0  0  0
  1  2  2  0  0  0  0
  1  6  1  0  0  0  0
  2  3  1  0  0  0  0
  3  4  2  0  0  0  0
  4  5  1  0  0  0  0
  4 10  1  0  0  0  0
  5  6  2  0  0  0  0
  5  8  1  0  0  0  0
  6  7  1  0  0  0  0
  8  9  1  0  0  0  0
  9 10  2  0  0  0  0
M  END
>  <CHROM.1>
-30.17679315,17.75145168,-16.71037516,1.26415793,-0.73292272,1.87968796

>  <Name>
ligand

>  <RI>
0

>  <Rbt.Current_Directory>
/home/itssahil/PROJECTS/Mol_Feturizer/New_Systems/rnas/4TZY

>  <Rbt.Executable>
rbdock ($Id: //depot/dev/client3/rdock/2013.1/src/exe/rbdock.cxx#4 $)

>  <Rbt.Library>
libRbt.so (2013.1, Build901 2013/11/27)

>  <Rbt.Parameter_File>
/export/apps/rDock/src/rDock_2013.1_src/data/scripts/dock_solv.prm

>  <Rbt.Receptor>
prm/pocket_docking_3.prm

>  <SCORE>
-14.9016

>  <SCORE.INTER>
-14.9016

>  <SCORE.INTER.CONST>
1

>  <SCORE.INTER.POLAR>
0

>  <SCORE.INTER.ROT>
0

>  <SCORE.INTER.SOLV>
7.13709

>  <SCORE.INTER.VDW>
-15.9134

>  <SCORE.INTER.norm>
-1.49016

>  <SCORE.INTRA>
0

>  <SCORE.INTRA.DIHEDRAL>
0

>  <SCORE.INTRA.DIHEDRAL.0>
0

>  <SCORE.INTRA.POLAR>
0

>  <SCORE.INTRA.POLAR.0>
0

>  <SCORE.INTRA.REPUL>
0

>  <SCORE.INTRA.REPUL.0>
0

>  <SCORE.INTRA.SOLV>
0

>  <SCORE.INTRA.SOLV.lig_0>
-23.8941

>  <SCORE.INTRA.VDW>
0

>  <SCORE.INTRA.VDW.0>
0

>  <SCORE.INTRA.norm>
0

>  <SCORE.RESTR>
0

>  <SCORE.RESTR.CAVITY>
0

>  <SCORE.RESTR.norm>
0

>  <SCORE.SYSTEM>
0

>  <SCORE.SYSTEM.CONST>
0

>  <SCORE.SYSTEM.DIHEDRAL>
0

>  <SCORE.SYSTEM.SOLV>
0

>  <SCORE.SYSTEM.norm>
0

>  <SCORE.heavy>
10

>  <SCORE.norm>
-1.49016

>  <RMSD>
0.599

$$$$
ligand
 OpenBabel11021811513D
libRbt.so/2013.1/901 2013/11/27
 10 11  0  0  0  0  0  0  0  0999 V2000
  -29.7586   16.8425  -14.3805 N   0  0  0  0  0  0  0  0  0  0  0  0
  -30.7569   17.6489  -13.9990 C   0  0  0  0  0  0  0  0  0  0  0  0
  -31.4577   18.5160  -14.7277 N   0  0  0  0  0  0  0  0  0  0  0  0
  -31.0387   18.5159  -16.0027 C   0  0  0  0  0  0  0  0  0  0  0  0
  -30.0263   17.7472  -16.5430 C   0  0  0  0  0  0  0  0  0  0  0  0
  -29.3602   16.8654  -15.6687 C   0  0  0  0  0  0  0  0  0  0  0  0
  -28.3626   16.0614  -16.0528 N   0  0  0  0  0  0  0  0  0  0  0  0
  -29.8735   18.0144  -17.8930 N   0  0  0  0  0  0  0  0  0  0  0  0
  -30.7836   18.9284  -18.1371 C   0  0  0  0  0  0  0  0  0  0  0  0
  -31.5227   19.2783  -17.0416 N   0  0  0  0  0  0  0  0  0  0  0  0
  1  2  2  0  0  0  0
  1  6  1  0  0  0  0
  2  3  1  0  0  0  0
  3  4  2  0  0  0  0
  4  5  1  0  0  0  0
  4 10  1  0  0  0  0
  5  6  2  0  0  0  0
  5  8  1  0  0  0  0
  6  7  1  0  0  0  0
  8  9  1  0  0  0  0
  9 10  2  0  0  0  0
M  END
>  <CHROM.1>
-30.28648171,17.83421311,-16.04266446,1.02159798,-0.72347455,1.86537112

>  <Name>
ligand

>  <RI>
0

>  <Rbt.Current_Directory>
/home/itssahil/PROJECTS/Mol_Feturizer/New_Systems/rnas/4TZY

>  <Rbt.Executable>
rbdock ($Id: //depot/dev/client3/rdock/2013.1/src/exe/rbdock.cxx#4 $)

>  <Rbt.Library>
libRbt.so (2013.1, Build901 2013/11/27)

>  <Rbt.Parameter_File>
/export/apps/rDock/src/rDock_2013.1_src/data/scripts/dock_solv.prm

>  <Rbt.Receptor>
prm/pocket_docking_7.prm

>  <SCORE>
-14.275

>  <SCORE.INTER>
-14.2753

>  <SCORE.INTER.CONST>
1

>  <SCORE.INTER.POLAR>
0

>  <SCORE.INTER.ROT>
0

>  <SCORE.INTER.SOLV>
7.08749

>  <SCORE.INTER.VDW>
-15.4793

>  <SCORE.INTER.norm>
-1.42753

>  <SCORE.INTRA>
0

>  <SCORE.INTRA.DIHEDRAL>
0

>  <SCORE.INTRA.DIHEDRAL.0>
0

>  <SCORE.INTRA.POLAR>
0

>  <SCORE.INTRA.POLAR.0>
0

>  <SCORE.INTRA.REPUL>
0

>  <SCORE.INTRA.REPUL.0>
0

>  <SCORE.INTRA.SOLV>
0

>  <SCORE.INTRA.SOLV.lig_0>
-23.8941

>  <SCORE.INTRA.VDW>
0

>  <SCORE.INTRA.VDW.0>
0

>  <SCORE.INTRA.norm>
0

>  <SCORE.RESTR>
0.000217003

>  <SCORE.RESTR.CAVITY>
0.000217003

>  <SCORE.RESTR.norm>
2.17003e-05

>  <SCORE.SYSTEM>
0

>  <SCORE.SYSTEM.CONST>
0

>  <SCORE.SYSTEM.DIHEDRAL>
0

>  <SCORE.SYSTEM.SOLV>
0

>  <SCORE.SYSTEM.norm>
0

>  <SCORE.heavy>
10

>  <SCORE.norm>
-1.4275

>  <RMSD>
0.602

$$$$
ligand
 OpenBabel11021811513D
libRbt.so/2013.1/901 2013/11/27
 10 11  0  0  0  0  0  0  0  0999 V2000
  -30.1699   16.8734  -14.9320 N   0  0  0  0  0  0  0  0  0  0  0  0
  -31.0621   17.8648  -14.8162 C   0  0  0  0  0  0  0  0  0  0  0  0
  -31.4747   18.7319  -15.7391 N   0  0  0  0  0  0  0  0  0  0  0  0
  -30.8609   18.5087  -16.9116 C   0  0  0  0  0  0  0  0  0  0  0  0
  -29.9228   17.5323  -17.1840 C   0  0  0  0  0  0  0  0  0  0  0  0
  -29.5699   16.6743  -16.1233 C   0  0  0  0  0  0  0  0  0  0  0  0
  -28.6777   15.6850  -16.2421 N   0  0  0  0  0  0  0  0  0  0  0  0
  -29.5091   17.6028  -18.5035 N   0  0  0  0  0  0  0  0  0  0  0  0
  -30.1955   18.6083  -18.9944 C   0  0  0  0  0  0  0  0  0  0  0  0
  -31.0307   19.2013  -18.0890 N   0  0  0  0  0  0  0  0  0  0  0  0
  1  2  2  0  0  0  0
  1  6  1  0  0  0  0
  2  3  1  0  0  0  0
  3  4  2  0  0  0  0
  4  5  1  0  0  0  0
  4 10  1  0  0  0  0
  5  6  2  0  0  0  0
  5  8  1  0  0  0  0
  6  7  1  0  0  0  0
  8  9  1  0  0  0  0
  9 10  2  0  0  0  0
M  END
>  <CHROM.1>
-30.24158251,17.71988384,-16.74952108,1.32783920,-0.82108696,1.96819109

>  <Name>
ligand

>  <RI>
0

>  <Rbt.Current_Directory>
/home/itssahil/PROJECTS/Mol_Feturizer/New_Systems/rnas/4TZY

>  <Rbt.Executable>
rbdock ($Id: //depot/dev/client3/rdock/2013.1/src/exe/rbdock.cxx#4 $)

>  <Rbt.Library>
libRbt.so (2013.1, Build901 2013/11/27)

>  <Rbt.Parameter_File>
/export/apps/rDock/src/rDock_2013.1_src/data/scripts/dock_solv.prm

>  <Rbt.Receptor>
prm/pocket_docking_3.prm

>  <SCORE>
-14.915

>  <SCORE.INTER>
-14.915

>  <SCORE.INTER.CONST>
1

>  <SCORE.INTER.POLAR>
0

>  <SCORE.INTER.ROT>
0

>  <SCORE.INTER.SOLV>
8.20466

>  <SCORE.INTER.VDW>
-16.2782

>  <SCORE.INTER.norm>
-1.4915

>  <SCORE.INTRA>
0

>  <SCORE.INTRA.DIHEDRAL>
0

>  <SCORE.INTRA.DIHEDRAL.0>
0

>  <SCORE.INTRA.POLAR>
0

>  <SCORE.INTRA.POLAR.0>
0

>  <SCORE.INTRA.REPUL>
0

>  <SCORE.INTRA.REPUL.0>
0

>  <SCORE.INTRA.SOLV>
0

>  <SCORE.INTRA.SOLV.lig_0>
-23.8941

>  <SCORE.INTRA.VDW>
0

>  <SCORE.INTRA.VDW.0>
0

>  <SCORE.INTRA.norm>
0

>  <SCORE.RESTR>
0

>  <SCORE.RESTR.CAVITY>
0

>  <SCORE.RESTR.norm>
0

>  <SCORE.SYSTEM>
0

>  <SCORE.SYSTEM.CONST>
0

>  <SCORE.SYSTEM.DIHEDRAL>
0

>  <SCORE.SYSTEM.SOLV>
0

>  <SCORE.SYSTEM.norm>
0

>  <SCORE.heavy>
10

>  <SCORE.norm>
-1.4915

>  <RMSD>
0.603

$$$$
ligand
 OpenBabel11021811513D
libRbt.so/2013.1/901 2013/11/27
 10 11  0  0  0  0  0  0  0  0999 V2000
  -29.7984   16.7164  -14.4450 N   0  0  0  0  0  0  0  0  0  0  0  0
  -30.7755   17.5305  -14.0268 C   0  0  0  0  0  0  0  0  0  0  0  0
  -31.4524   18.4484  -14.7147 N   0  0  0  0  0  0  0  0  0  0  0  0
  -31.0321   18.4958  -15.9885 C   0  0  0  0  0  0  0  0  0  0  0  0
  -30.0397   17.7263  -16.5636 C   0  0  0  0  0  0  0  0  0  0  0  0
  -29.3980   16.7880  -15.7308 C   0  0  0  0  0  0  0  0  0  0  0  0
  -28.4216   15.9764  -16.1515 N   0  0  0  0  0  0  0  0  0  0  0  0
  -29.8784   18.0511  -17.8999 N   0  0  0  0  0  0  0  0  0  0  0  0
  -30.7638   18.9990  -18.1016 C   0  0  0  0  0  0  0  0  0  0  0  0
  -31.4947   19.3177  -16.9912 N   0  0  0  0  0  0  0  0  0  0  0  0
  1  2  2  0  0  0  0
  1  6  1  0  0  0  0
  2  3  1  0  0  0  0
  3  4  2  0  0  0  0
  4  5  1  0  0  0  0
  4 10  1  0  0  0  0
  5  6  2  0  0  0  0
  5  8  1  0  0  0  0
  6  7  1  0  0  0  0
  8  9  1  0  0  0  0
  9 10  2  0  0  0  0
M  END
>  <CHROM.1>
-30.29806369,17.79706440,-16.05975373,1.03352289,-0.74834097,1.91935717

>  <Name>
ligand

>  <RI>
0

>  <Rbt.Current_Directory>
/home/itssahil/PROJECTS/Mol_Feturizer/New_Systems/rnas/4TZY

>  <Rbt.Executable>
rbdock ($Id: //depot/dev/client3/rdock/2013.1/src/exe/rbdock.cxx#4 $)

>  <Rbt.Library>
libRbt.so (2013.1, Build901 2013/11/27)

>  <Rbt.Parameter_File>
/export/apps/rDock/src/rDock_2013.1_src/data/scripts/dock_solv.prm

>  <Rbt.Receptor>
prm/blind_docking_80.prm

>  <SCORE>
-14.2596

>  <SCORE.INTER>
-14.2596

>  <SCORE.INTER.CONST>
1

>  <SCORE.INTER.POLAR>
0

>  <SCORE.INTER.ROT>
0

>  <SCORE.INTER.SOLV>
7.20104

>  <SCORE.INTER.VDW>
-15.5067

>  <SCORE.INTER.norm>
-1.42596

>  <SCORE.INTRA>
0

>  <SCORE.INTRA.DIHEDRAL>
0

>  <SCORE.INTRA.DIHEDRAL.0>
0

>  <SCORE.INTRA.POLAR>
0

>  <SCORE.INTRA.POLAR.0>
0

>  <SCORE.INTRA.REPUL>
0

>  <SCORE.INTRA.REPUL.0>
0

>  <SCORE.INTRA.SOLV>
0

>  <SCORE.INTRA.SOLV.lig_0>
-23.8941

>  <SCORE.INTRA.VDW>
0

>  <SCORE.INTRA.VDW.0>
0

>  <SCORE.INTRA.norm>
0

>  <SCORE.RESTR>
0

>  <SCORE.RESTR.CAVITY>
0

>  <SCORE.RESTR.norm>
0

>  <SCORE.SYSTEM>
0

>  <SCORE.SYSTEM.CONST>
0

>  <SCORE.SYSTEM.DIHEDRAL>
0

>  <SCORE.SYSTEM.SOLV>
0

>  <SCORE.SYSTEM.norm>
0

>  <SCORE.heavy>
10

>  <SCORE.norm>
-1.42596

>  <RMSD>
0.607

$$$$
ligand
 OpenBabel11021811513D
libRbt.so/2013.1/901 2013/11/27
 10 11  0  0  0  0  0  0  0  0999 V2000
  -30.0373   16.9588  -14.9120 N   0  0  0  0  0  0  0  0  0  0  0  0
  -31.0126   17.8724  -14.8311 C   0  0  0  0  0  0  0  0  0  0  0  0
  -31.4963   18.6674  -15.7840 N   0  0  0  0  0  0  0  0  0  0  0  0
  -30.8619   18.4574  -16.9479 C   0  0  0  0  0  0  0  0  0  0  0  0
  -29.8416   17.5573  -17.1858 C   0  0  0  0  0  0  0  0  0  0  0  0
  -29.4188   16.7710  -16.0956 C   0  0  0  0  0  0  0  0  0  0  0  0
  -28.4435   15.8594  -16.1795 N   0  0  0  0  0  0  0  0  0  0  0  0
  -29.4317   17.6170  -18.5070 N   0  0  0  0  0  0  0  0  0  0  0  0
  -30.2015   18.5412  -19.0330 C   0  0  0  0  0  0  0  0  0  0  0  0
  -31.0878   19.0907  -18.1490 N   0  0  0  0  0  0  0  0  0  0  0  0
  1  2  2  0  0  0  0
  1  6  1  0  0  0  0
  2  3  1  0  0  0  0
  3  4  2  0  0  0  0
  4  5  1  0  0  0  0
  4 10  1  0  0  0  0
  5  6  2  0  0  0  0
  5  8  1  0  0  0  0
  6  7  1  0  0  0  0
  8  9  1  0  0  0  0
  9 10  2  0  0  0  0
M  END
>  <CHROM.1>
-30.17685999,17.73154637,-16.75815651,1.28603190,-0.73923501,1.90348475

>  <Name>
ligand

>  <RI>
0

>  <Rbt.Current_Directory>
/home/itssahil/PROJECTS/Mol_Feturizer/New_Systems/rnas/4TZY

>  <Rbt.Executable>
rbdock ($Id: //depot/dev/client3/rdock/2013.1/src/exe/rbdock.cxx#4 $)

>  <Rbt.Library>
libRbt.so (2013.1, Build901 2013/11/27)

>  <Rbt.Parameter_File>
/export/apps/rDock/src/rDock_2013.1_src/data/scripts/dock_solv.prm

>  <Rbt.Receptor>
prm/pocket_docking_3.prm

>  <SCORE>
-14.8944

>  <SCORE.INTER>
-14.8944

>  <SCORE.INTER.CONST>
1

>  <SCORE.INTER.POLAR>
0

>  <SCORE.INTER.ROT>
0

>  <SCORE.INTER.SOLV>
7.35959

>  <SCORE.INTER.VDW>
-15.9828

>  <SCORE.INTER.norm>
-1.48944

>  <SCORE.INTRA>
0

>  <SCORE.INTRA.DIHEDRAL>
0

>  <SCORE.INTRA.DIHEDRAL.0>
0

>  <SCORE.INTRA.POLAR>
0

>  <SCORE.INTRA.POLAR.0>
0

>  <SCORE.INTRA.REPUL>
0

>  <SCORE.INTRA.REPUL.0>
0

>  <SCORE.INTRA.SOLV>
0

>  <SCORE.INTRA.SOLV.lig_0>
-23.8941

>  <SCORE.INTRA.VDW>
0

>  <SCORE.INTRA.VDW.0>
0

>  <SCORE.INTRA.norm>
0

>  <SCORE.RESTR>
0

>  <SCORE.RESTR.CAVITY>
0

>  <SCORE.RESTR.norm>
0

>  <SCORE.SYSTEM>
0

>  <SCORE.SYSTEM.CONST>
0

>  <SCORE.SYSTEM.DIHEDRAL>
0

>  <SCORE.SYSTEM.SOLV>
0

>  <SCORE.SYSTEM.norm>
0

>  <SCORE.heavy>
10

>  <SCORE.norm>
-1.48944

>  <RMSD>
0.630

$$$$
ligand
 OpenBabel11021811513D
libRbt.so/2013.1/901 2013/11/27
 10 11  0  0  0  0  0  0  0  0999 V2000
  -29.9901   17.0668  -14.8845 N   0  0  0  0  0  0  0  0  0  0  0  0
  -30.9741   17.9710  -14.8038 C   0  0  0  0  0  0  0  0  0  0  0  0
  -31.4858   18.7396  -15.7637 N   0  0  0  0  0  0  0  0  0  0  0  0
  -30.8722   18.5113  -16.9353 C   0  0  0  0  0  0  0  0  0  0  0  0
  -29.8466   17.6177  -17.1742 C   0  0  0  0  0  0  0  0  0  0  0  0
  -29.3931   16.8601  -16.0760 C   0  0  0  0  0  0  0  0  0  0  0  0
  -28.4092   15.9578  -16.1598 N   0  0  0  0  0  0  0  0  0  0  0  0
  -29.4637   17.6531  -18.5044 N   0  0  0  0  0  0  0  0  0  0  0  0
  -30.2543   18.5570  -19.0346 C   0  0  0  0  0  0  0  0  0  0  0  0
  -31.1292   19.1158  -18.1451 N   0  0  0  0  0  0  0  0  0  0  0  0
  1  2  2  0  0  0  0
  1  6  1  0  0  0  0
  2  3  1  0  0  0  0
  3  4  2  0  0  0  0
  4  5  1  0  0  0  0
  4 10  1  0  0  0  0
  5  6  2  0  0  0  0
  5  8  1  0  0  0  0
  6  7  1  0  0  0  0
  8  9  1  0  0  0  0
  9 10  2  0  0  0  0
M  END
>  <CHROM.1>
-30.17520200,17.79745293,-16.74381364,1.25565826,-0.73457638,1.86136924

>  <Name>
ligand

>  <RI>
0

>  <Rbt.Current_Directory>
/home/itssahil/PROJECTS/Mol_Feturizer/New_Systems/rnas/4TZY

>  <Rbt.Executable>
rbdock ($Id: //depot/dev/client3/rdock/2013.1/src/exe/rbdock.cxx#4 $)

>  <Rbt.Library>
libRbt.so (2013.1, Build901 2013/11/27)

>  <Rbt.Parameter_File>
/export/apps/rDock/src/rDock_2013.1_src/data/scripts/dock_solv.prm

>  <Rbt.Receptor>
prm/pocket_docking_3.prm

>  <SCORE>
-14.9153

>  <SCORE.INTER>
-14.9153

>  <SCORE.INTER.CONST>
1

>  <SCORE.INTER.POLAR>
0

>  <SCORE.INTER.ROT>
0

>  <SCORE.INTER.SOLV>
7.17819

>  <SCORE.INTER.VDW>
-15.9363

>  <SCORE.INTER.norm>
-1.49153

>  <SCORE.INTRA>
0

>  <SCORE.INTRA.DIHEDRAL>
0

>  <SCORE.INTRA.DIHEDRAL.0>
0

>  <SCORE.INTRA.POLAR>
0

>  <SCORE.INTRA.POLAR.0>
0

>  <SCORE.INTRA.REPUL>
0

>  <SCORE.INTRA.REPUL.0>
0

>  <SCORE.INTRA.SOLV>
0

>  <SCORE.INTRA.SOLV.lig_0>
-23.8941

>  <SCORE.INTRA.VDW>
0

>  <SCORE.INTRA.VDW.0>
0

>  <SCORE.INTRA.norm>
0

>  <SCORE.RESTR>
0

>  <SCORE.RESTR.CAVITY>
0

>  <SCORE.RESTR.norm>
0

>  <SCORE.SYSTEM>
0

>  <SCORE.SYSTEM.CONST>
0

>  <SCORE.SYSTEM.DIHEDRAL>
0

>  <SCORE.SYSTEM.SOLV>
0

>  <SCORE.SYSTEM.norm>
0

>  <SCORE.heavy>
10

>  <SCORE.norm>
-1.49153

>  <RMSD>
0.650

$$$$
ligand
 OpenBabel11021811513D
libRbt.so/2013.1/901 2013/11/27
 10 11  0  0  0  0  0  0  0  0999 V2000
  -30.2266   17.0315  -14.8917 N   0  0  0  0  0  0  0  0  0  0  0  0
  -30.9747   18.1390  -14.8126 C   0  0  0  0  0  0  0  0  0  0  0  0
  -31.2835   19.0111  -15.7708 N   0  0  0  0  0  0  0  0  0  0  0  0
  -30.7270   18.6535  -16.9386 C   0  0  0  0  0  0  0  0  0  0  0  0
  -29.9343   17.5475  -17.1754 C   0  0  0  0  0  0  0  0  0  0  0  0
  -29.6810   16.6989  -16.0793 C   0  0  0  0  0  0  0  0  0  0  0  0
  -28.9326   15.5933  -16.1615 N   0  0  0  0  0  0  0  0  0  0  0  0
  -29.5392   17.5010  -18.5016 N   0  0  0  0  0  0  0  0  0  0  0  0
  -30.0926   18.5668  -19.0316 C   0  0  0  0  0  0  0  0  0  0  0  0
  -30.8235   19.3082  -18.1456 N   0  0  0  0  0  0  0  0  0  0  0  0
  1  2  2  0  0  0  0
  1  6  1  0  0  0  0
  2  3  1  0  0  0  0
  3  4  2  0  0  0  0
  4  5  1  0  0  0  0
  4 10  1  0  0  0  0
  5  6  2  0  0  0  0
  5  8  1  0  0  0  0
  6  7  1  0  0  0  0
  8  9  1  0  0  0  0
  9 10  2  0  0  0  0
M  END
>  <CHROM.1>
-30.21687226,17.79617429,-16.74653536,1.38868843,-0.95212882,1.96857259

>  <Name>
ligand

>  <RI>
0

>  <Rbt.Current_Directory>
/home/itssahil/PROJECTS/Mol_Feturizer/New_Systems/rnas/4TZY

>  <Rbt.Executable>
rbdock ($Id: //depot/dev/client3/rdock/2013.1/src/exe/rbdock.cxx#4 $)

>  <Rbt.Library>
libRbt.so (2013.1, Build901 2013/11/27)

>  <Rbt.Parameter_File>
/export/apps/rDock/src/rDock_2013.1_src/data/scripts/dock_solv.prm

>  <Rbt.Receptor>
prm/pocket_docking_3.prm

>  <SCORE>
-14.955

>  <SCORE.INTER>
-14.955

>  <SCORE.INTER.CONST>
1

>  <SCORE.INTER.POLAR>
0

>  <SCORE.INTER.ROT>
0

>  <SCORE.INTER.SOLV>
8.91475

>  <SCORE.INTER.VDW>
-16.5416

>  <SCORE.INTER.norm>
-1.4955

>  <SCORE.INTRA>
0

>  <SCORE.INTRA.DIHEDRAL>
0

>  <SCORE.INTRA.DIHEDRAL.0>
0

>  <SCORE.INTRA.POLAR>
0

>  <SCORE.INTRA.POLAR.0>
0

>  <SCORE.INTRA.REPUL>
0

>  <SCORE.INTRA.REPUL.0>
0

>  <SCORE.INTRA.SOLV>
0

>  <SCORE.INTRA.SOLV.lig_0>
-23.8941

>  <SCORE.INTRA.VDW>
0

>  <SCORE.INTRA.VDW.0>
0

>  <SCORE.INTRA.norm>
0

>  <SCORE.RESTR>
0

>  <SCORE.RESTR.CAVITY>
0

>  <SCORE.RESTR.norm>
0

>  <SCORE.SYSTEM>
0

>  <SCORE.SYSTEM.CONST>
0

>  <SCORE.SYSTEM.DIHEDRAL>
0

>  <SCORE.SYSTEM.SOLV>
0

>  <SCORE.SYSTEM.norm>
0

>  <SCORE.heavy>
10

>  <SCORE.norm>
-1.4955

>  <RMSD>
0.653

$$$$
ligand
 OpenBabel11021811513D
libRbt.so/2013.1/901 2013/11/27
 10 11  0  0  0  0  0  0  0  0999 V2000
  -29.9878   17.0661  -14.8990 N   0  0  0  0  0  0  0  0  0  0  0  0
  -30.9611   17.9836  -14.8409 C   0  0  0  0  0  0  0  0  0  0  0  0
  -31.4585   18.7396  -15.8182 N   0  0  0  0  0  0  0  0  0  0  0  0
  -30.8419   18.4811  -16.9820 C   0  0  0  0  0  0  0  0  0  0  0  0
  -29.8262   17.5705  -17.1982 C   0  0  0  0  0  0  0  0  0  0  0  0
  -29.3875   16.8289  -16.0831 C   0  0  0  0  0  0  0  0  0  0  0  0
  -28.4145   15.9132  -16.1443 N   0  0  0  0  0  0  0  0  0  0  0  0
  -29.4364   17.5754  -18.5268 N   0  0  0  0  0  0  0  0  0  0  0  0
  -30.2132   18.4784  -19.0785 C   0  0  0  0  0  0  0  0  0  0  0  0
  -31.0855   19.0650  -18.2045 N   0  0  0  0  0  0  0  0  0  0  0  0
  1  2  2  0  0  0  0
  1  6  1  0  0  0  0
  2  3  1  0  0  0  0
  3  4  2  0  0  0  0
  4  5  1  0  0  0  0
  4 10  1  0  0  0  0
  5  6  2  0  0  0  0
  5  8  1  0  0  0  0
  6  7  1  0  0  0  0
  8  9  1  0  0  0  0
  9 10  2  0  0  0  0
M  END
>  <CHROM.1>
-30.15475326,17.76262434,-16.77302965,1.26690553,-0.74491819,1.84953417

>  <Name>
ligand

>  <RI>
0

>  <Rbt.Current_Directory>
/home/itssahil/PROJECTS/Mol_Feturizer/New_Systems/rnas/4TZY

>  <Rbt.Executable>
rbdock ($Id: //depot/dev/client3/rdock/2013.1/src/exe/rbdock.cxx#4 $)

>  <Rbt.Library>
libRbt.so (2013.1, Build901 2013/11/27)

>  <Rbt.Parameter_File>
/export/apps/rDock/src/rDock_2013.1_src/data/scripts/dock_solv.prm

>  <Rbt.Receptor>
prm/pocket_docking_3.prm

>  <SCORE>
-14.9566

>  <SCORE.INTER>
-14.9566

>  <SCORE.INTER.CONST>
1

>  <SCORE.INTER.POLAR>
0

>  <SCORE.INTER.ROT>
0

>  <SCORE.INTER.SOLV>
7.1854

>  <SCORE.INTER.VDW>
-15.9662

>  <SCORE.INTER.norm>
-1.49566

>  <SCORE.INTRA>
0

>  <SCORE.INTRA.DIHEDRAL>
0

>  <SCORE.INTRA.DIHEDRAL.0>
0

>  <SCORE.INTRA.POLAR>
0

>  <SCORE.INTRA.POLAR.0>
0

>  <SCORE.INTRA.REPUL>
0

>  <SCORE.INTRA.REPUL.0>
0

>  <SCORE.INTRA.SOLV>
0

>  <SCORE.INTRA.SOLV.lig_0>
-23.8941

>  <SCORE.INTRA.VDW>
0

>  <SCORE.INTRA.VDW.0>
0

>  <SCORE.INTRA.norm>
0

>  <SCORE.RESTR>
0

>  <SCORE.RESTR.CAVITY>
0

>  <SCORE.RESTR.norm>
0

>  <SCORE.SYSTEM>
0

>  <SCORE.SYSTEM.CONST>
0

>  <SCORE.SYSTEM.DIHEDRAL>
0

>  <SCORE.SYSTEM.SOLV>
0

>  <SCORE.SYSTEM.norm>
0

>  <SCORE.heavy>
10

>  <SCORE.norm>
-1.49566

>  <RMSD>
0.663

$$$$
ligand
 OpenBabel11021811513D
libRbt.so/2013.1/901 2013/11/27
 10 11  0  0  0  0  0  0  0  0999 V2000
  -30.1274   16.9275  -14.9675 N   0  0  0  0  0  0  0  0  0  0  0  0
  -30.9226   17.9931  -14.8104 C   0  0  0  0  0  0  0  0  0  0  0  0
  -31.2922   18.9020  -15.7111 N   0  0  0  0  0  0  0  0  0  0  0  0
  -30.7470   18.6362  -16.9084 C   0  0  0  0  0  0  0  0  0  0  0  0
  -29.9110   17.5830  -17.2236 C   0  0  0  0  0  0  0  0  0  0  0  0
  -29.5947   16.6872  -16.1829 C   0  0  0  0  0  0  0  0  0  0  0  0
  -28.7994   15.6237  -16.3429 N   0  0  0  0  0  0  0  0  0  0  0  0
  -29.5447   17.6288  -18.5582 N   0  0  0  0  0  0  0  0  0  0  0  0
  -30.1576   18.6958  -19.0154 C   0  0  0  0  0  0  0  0  0  0  0  0
  -30.9006   19.3521  -18.0741 N   0  0  0  0  0  0  0  0  0  0  0  0
  1  2  2  0  0  0  0
  1  6  1  0  0  0  0
  2  3  1  0  0  0  0
  3  4  2  0  0  0  0
  4  5  1  0  0  0  0
  4 10  1  0  0  0  0
  5  6  2  0  0  0  0
  5  8  1  0  0  0  0
  6  7  1  0  0  0  0
  8  9  1  0  0  0  0
  9 10  2  0  0  0  0
M  END
>  <CHROM.1>
-30.19456690,17.79404530,-16.77570251,1.32509831,-0.91850116,1.97369775

>  <Name>
ligand

>  <RI>
0

>  <Rbt.Current_Directory>
/home/itssahil/PROJECTS/Mol_Feturizer/New_Systems/rnas/4TZY

>  <Rbt.Executable>
rbdock ($Id: //depot/dev/client3/rdock/2013.1/src/exe/rbdock.cxx#4 $)

>  <Rbt.Library>
libRbt.so (2013.1, Build901 2013/11/27)

>  <Rbt.Parameter_File>
/export/apps/rDock/src/rDock_2013.1_src/data/scripts/dock_solv.prm

>  <Rbt.Receptor>
prm/pocket_docking_3.prm

>  <SCORE>
-14.8793

>  <SCORE.INTER>
-14.8793

>  <SCORE.INTER.CONST>
1

>  <SCORE.INTER.POLAR>
0

>  <SCORE.INTER.ROT>
0

>  <SCORE.INTER.SOLV>
8.80882

>  <SCORE.INTER.VDW>
-16.4558

>  <SCORE.INTER.norm>
-1.48793

>  <SCORE.INTRA>
0

>  <SCORE.INTRA.DIHEDRAL>
0

>  <SCORE.INTRA.DIHEDRAL.0>
0

>  <SCORE.INTRA.POLAR>
0

>  <SCORE.INTRA.POLAR.0>
0

>  <SCORE.INTRA.REPUL>
0

>  <SCORE.INTRA.REPUL.0>
0

>  <SCORE.INTRA.SOLV>
0

>  <SCORE.INTRA.SOLV.lig_0>
-23.8941

>  <SCORE.INTRA.VDW>
0

>  <SCORE.INTRA.VDW.0>
0

>  <SCORE.INTRA.norm>
0

>  <SCORE.RESTR>
0

>  <SCORE.RESTR.CAVITY>
0

>  <SCORE.RESTR.norm>
0

>  <SCORE.SYSTEM>
0

>  <SCORE.SYSTEM.CONST>
0

>  <SCORE.SYSTEM.DIHEDRAL>
0

>  <SCORE.SYSTEM.SOLV>
0

>  <SCORE.SYSTEM.norm>
0

>  <SCORE.heavy>
10

>  <SCORE.norm>
-1.48793

>  <RMSD>
0.664

$$$$
ligand
 OpenBabel11021811513D
libRbt.so/2013.1/901 2013/11/27
 10 11  0  0  0  0  0  0  0  0999 V2000
  -30.0204   17.0697  -14.8993 N   0  0  0  0  0  0  0  0  0  0  0  0
  -30.9959   17.9856  -14.8553 C   0  0  0  0  0  0  0  0  0  0  0  0
  -31.4819   18.7391  -15.8403 N   0  0  0  0  0  0  0  0  0  0  0  0
  -30.8499   18.4797  -16.9955 C   0  0  0  0  0  0  0  0  0  0  0  0
  -29.8299   17.5705  -17.1970 C   0  0  0  0  0  0  0  0  0  0  0  0
  -29.4044   16.8316  -16.0751 C   0  0  0  0  0  0  0  0  0  0  0  0
  -28.4291   15.9175  -16.1222 N   0  0  0  0  0  0  0  0  0  0  0  0
  -29.4229   17.5739  -18.5205 N   0  0  0  0  0  0  0  0  0  0  0  0
  -30.1941   18.4746  -19.0837 C   0  0  0  0  0  0  0  0  0  0  0  0
  -31.0787   19.0611  -18.2221 N   0  0  0  0  0  0  0  0  0  0  0  0
  1  2  2  0  0  0  0
  1  6  1  0  0  0  0
  2  3  1  0  0  0  0
  3  4  2  0  0  0  0
  4  5  1  0  0  0  0
  4 10  1  0  0  0  0
  5  6  2  0  0  0  0
  5  8  1  0  0  0  0
  6  7  1  0  0  0  0
  8  9  1  0  0  0  0
  9 10  2  0  0  0  0
M  END
>  <CHROM.1>
-30.16428105,17.76281364,-16.77647956,1.28310457,-0.73962994,1.85879496

>  <Name>
ligand

>  <RI>
0

>  <Rbt.Current_Directory>
/home/itssahil/PROJECTS/Mol_Feturizer/New_Systems/rnas/4TZY

>  <Rbt.Executable>
rbdock ($Id: //depot/dev/client3/rdock/2013.1/src/exe/rbdock.cxx#4 $)

>  <Rbt.Library>
libRbt.so (2013.1, Build901 2013/11/27)

>  <Rbt.Parameter_File>
/export/apps/rDock/src/rDock_2013.1_src/data/scripts/dock_solv.prm

>  <Rbt.Receptor>
prm/pocket_docking_3.prm

>  <SCORE>
-14.9467

>  <SCORE.INTER>
-14.9467

>  <SCORE.INTER.CONST>
1

>  <SCORE.INTER.POLAR>
0

>  <SCORE.INTER.ROT>
0

>  <SCORE.INTER.SOLV>
7.17173

>  <SCORE.INTER.VDW>
-15.9551

>  <SCORE.INTER.norm>
-1.49467

>  <SCORE.INTRA>
0

>  <SCORE.INTRA.DIHEDRAL>
0

>  <SCORE.INTRA.DIHEDRAL.0>
0

>  <SCORE.INTRA.POLAR>
0

>  <SCORE.INTRA.POLAR.0>
0

>  <SCORE.INTRA.REPUL>
0

>  <SCORE.INTRA.REPUL.0>
0

>  <SCORE.INTRA.SOLV>
0

>  <SCORE.INTRA.SOLV.lig_0>
-23.8941

>  <SCORE.INTRA.VDW>
0

>  <SCORE.INTRA.VDW.0>
0

>  <SCORE.INTRA.norm>
0

>  <SCORE.RESTR>
0

>  <SCORE.RESTR.CAVITY>
0

>  <SCORE.RESTR.norm>
0

>  <SCORE.SYSTEM>
0

>  <SCORE.SYSTEM.CONST>
0

>  <SCORE.SYSTEM.DIHEDRAL>
0

>  <SCORE.SYSTEM.SOLV>
0

>  <SCORE.SYSTEM.norm>
0

>  <SCORE.heavy>
10

>  <SCORE.norm>
-1.49467

>  <RMSD>
0.666

$$$$
ligand
 OpenBabel11021811513D
libRbt.so/2013.1/901 2013/11/27
 10 11  0  0  0  0  0  0  0  0999 V2000
  -30.0336   17.0645  -14.9078 N   0  0  0  0  0  0  0  0  0  0  0  0
  -30.9999   17.9898  -14.8593 C   0  0  0  0  0  0  0  0  0  0  0  0
  -31.4823   18.7489  -15.8417 N   0  0  0  0  0  0  0  0  0  0  0  0
  -30.8573   18.4844  -16.9996 C   0  0  0  0  0  0  0  0  0  0  0  0
  -29.8471   17.5655  -17.2058 C   0  0  0  0  0  0  0  0  0  0  0  0
  -29.4244   16.8215  -16.0862 C   0  0  0  0  0  0  0  0  0  0  0  0
  -28.4583   15.8979  -16.1378 N   0  0  0  0  0  0  0  0  0  0  0  0
  -29.4451   17.5661  -18.5309 N   0  0  0  0  0  0  0  0  0  0  0  0
  -30.2097   18.4747  -19.0904 C   0  0  0  0  0  0  0  0  0  0  0  0
  -31.0851   19.0692  -18.2248 N   0  0  0  0  0  0  0  0  0  0  0  0
  1  2  2  0  0  0  0
  1  6  1  0  0  0  0
  2  3  1  0  0  0  0
  3  4  2  0  0  0  0
  4  5  1  0  0  0  0
  4 10  1  0  0  0  0
  5  6  2  0  0  0  0
  5  8  1  0  0  0  0
  6  7  1  0  0  0  0
  8  9  1  0  0  0  0
  9 10  2  0  0  0  0
M  END
>  <CHROM.1>
-30.17787715,17.76066477,-16.78384921,1.28184049,-0.75008967,1.85881384

>  <Name>
ligand

>  <RI>
0

>  <Rbt.Current_Directory>
/home/itssahil/PROJECTS/Mol_Feturizer/New_Systems/rnas/4TZY

>  <Rbt.Executable>
rbdock ($Id: //depot/dev/client3/rdock/2013.1/src/exe/rbdock.cxx#4 $)

>  <Rbt.Library>
libRbt.so (2013.1, Build901 2013/11/27)

>  <Rbt.Parameter_File>
/export/apps/rDock/src/rDock_2013.1_src/data/scripts/dock_solv.prm

>  <Rbt.Receptor>
prm/pocket_docking_3.prm

>  <SCORE>
-14.9458

>  <SCORE.INTER>
-14.9458

>  <SCORE.INTER.CONST>
1

>  <SCORE.INTER.POLAR>
0

>  <SCORE.INTER.ROT>
0

>  <SCORE.INTER.SOLV>
7.26786

>  <SCORE.INTER.VDW>
-15.9865

>  <SCORE.INTER.norm>
-1.49458

>  <SCORE.INTRA>
0

>  <SCORE.INTRA.DIHEDRAL>
0

>  <SCORE.INTRA.DIHEDRAL.0>
0

>  <SCORE.INTRA.POLAR>
0

>  <SCORE.INTRA.POLAR.0>
0

>  <SCORE.INTRA.REPUL>
0

>  <SCORE.INTRA.REPUL.0>
0

>  <SCORE.INTRA.SOLV>
0

>  <SCORE.INTRA.SOLV.lig_0>
-23.8941

>  <SCORE.INTRA.VDW>
0

>  <SCORE.INTRA.VDW.0>
0

>  <SCORE.INTRA.norm>
0

>  <SCORE.RESTR>
0

>  <SCORE.RESTR.CAVITY>
0

>  <SCORE.RESTR.norm>
0

>  <SCORE.SYSTEM>
0

>  <SCORE.SYSTEM.CONST>
0

>  <SCORE.SYSTEM.DIHEDRAL>
0

>  <SCORE.SYSTEM.SOLV>
0

>  <SCORE.SYSTEM.norm>
0

>  <SCORE.heavy>
10

>  <SCORE.norm>
-1.49458

>  <RMSD>
0.668

$$$$
ligand
 OpenBabel11021811513D
libRbt.so/2013.1/901 2013/11/27
 10 11  0  0  0  0  0  0  0  0999 V2000
  -30.0354   17.0579  -14.9132 N   0  0  0  0  0  0  0  0  0  0  0  0
  -31.0007   17.9838  -14.8556 C   0  0  0  0  0  0  0  0  0  0  0  0
  -31.4798   18.7556  -15.8296 N   0  0  0  0  0  0  0  0  0  0  0  0
  -30.8525   18.5046  -16.9893 C   0  0  0  0  0  0  0  0  0  0  0  0
  -29.8429   17.5870  -17.2044 C   0  0  0  0  0  0  0  0  0  0  0  0
  -29.4238   16.8286  -16.0931 C   0  0  0  0  0  0  0  0  0  0  0  0
  -28.4587   15.9046  -16.1538 N   0  0  0  0  0  0  0  0  0  0  0  0
  -29.4378   17.6034  -18.5284 N   0  0  0  0  0  0  0  0  0  0  0  0
  -30.1999   18.5198  -19.0785 C   0  0  0  0  0  0  0  0  0  0  0  0
  -31.0766   19.1047  -18.2077 N   0  0  0  0  0  0  0  0  0  0  0  0
  1  2  2  0  0  0  0
  1  6  1  0  0  0  0
  2  3  1  0  0  0  0
  3  4  2  0  0  0  0
  4  5  1  0  0  0  0
  4 10  1  0  0  0  0
  5  6  2  0  0  0  0
  5  8  1  0  0  0  0
  6  7  1  0  0  0  0
  8  9  1  0  0  0  0
  9 10  2  0  0  0  0
M  END
>  <CHROM.1>
-30.17443060,17.77733245,-16.78085170,1.28541482,-0.75063535,1.87357724

>  <Name>
ligand

>  <RI>
0

>  <Rbt.Current_Directory>
/home/itssahil/PROJECTS/Mol_Feturizer/New_Systems/rnas/4TZY

>  <Rbt.Executable>
rbdock ($Id: //depot/dev/client3/rdock/2013.1/src/exe/rbdock.cxx#4 $)

>  <Rbt.Library>
libRbt.so (2013.1, Build901 2013/11/27)

>  <Rbt.Parameter_File>
/export/apps/rDock/src/rDock_2013.1_src/data/scripts/dock_solv.prm

>  <Rbt.Receptor>
prm/pocket_docking_3.prm

>  <SCORE>
-14.9322

>  <SCORE.INTER>
-14.9322

>  <SCORE.INTER.CONST>
1

>  <SCORE.INTER.POLAR>
0

>  <SCORE.INTER.ROT>
0

>  <SCORE.INTER.SOLV>
7.29526

>  <SCORE.INTER.VDW>
-15.9866

>  <SCORE.INTER.norm>
-1.49322

>  <SCORE.INTRA>
0

>  <SCORE.INTRA.DIHEDRAL>
0

>  <SCORE.INTRA.DIHEDRAL.0>
0

>  <SCORE.INTRA.POLAR>
0

>  <SCORE.INTRA.POLAR.0>
0

>  <SCORE.INTRA.REPUL>
0

>  <SCORE.INTRA.REPUL.0>
0

>  <SCORE.INTRA.SOLV>
0

>  <SCORE.INTRA.SOLV.lig_0>
-23.8941

>  <SCORE.INTRA.VDW>
0

>  <SCORE.INTRA.VDW.0>
0

>  <SCORE.INTRA.norm>
0

>  <SCORE.RESTR>
0

>  <SCORE.RESTR.CAVITY>
0

>  <SCORE.RESTR.norm>
0

>  <SCORE.SYSTEM>
0

>  <SCORE.SYSTEM.CONST>
0

>  <SCORE.SYSTEM.DIHEDRAL>
0

>  <SCORE.SYSTEM.SOLV>
0

>  <SCORE.SYSTEM.norm>
0

>  <SCORE.heavy>
10

>  <SCORE.norm>
-1.49322

>  <RMSD>
0.670

$$$$
ligand
 OpenBabel11021811513D
libRbt.so/2013.1/901 2013/11/27
 10 11  0  0  0  0  0  0  0  0999 V2000
  -30.0126   17.0899  -14.9087 N   0  0  0  0  0  0  0  0  0  0  0  0
  -30.9768   18.0172  -14.8556 C   0  0  0  0  0  0  0  0  0  0  0  0
  -31.4624   18.7771  -15.8358 N   0  0  0  0  0  0  0  0  0  0  0  0
  -30.8438   18.5110  -16.9968 C   0  0  0  0  0  0  0  0  0  0  0  0
  -29.8364   17.5899  -17.2077 C   0  0  0  0  0  0  0  0  0  0  0  0
  -29.4098   16.8453  -16.0900 C   0  0  0  0  0  0  0  0  0  0  0  0
  -28.4458   15.9198  -16.1461 N   0  0  0  0  0  0  0  0  0  0  0  0
  -29.4410   17.5894  -18.5347 N   0  0  0  0  0  0  0  0  0  0  0  0
  -30.2064   18.4995  -19.0907 C   0  0  0  0  0  0  0  0  0  0  0  0
  -31.0764   19.0959  -18.2210 N   0  0  0  0  0  0  0  0  0  0  0  0
  1  2  2  0  0  0  0
  1  6  1  0  0  0  0
  2  3  1  0  0  0  0
  3  4  2  0  0  0  0
  4  5  1  0  0  0  0
  4 10  1  0  0  0  0
  5  6  2  0  0  0  0
  5  8  1  0  0  0  0
  6  7  1  0  0  0  0
  8  9  1  0  0  0  0
  9 10  2  0  0  0  0
M  END
>  <CHROM.1>
-30.16473540,17.78588467,-16.78415244,1.27615635,-0.75346251,1.85467826

>  <Name>
ligand

>  <RI>
0

>  <Rbt.Current_Directory>
/home/itssahil/PROJECTS/Mol_Feturizer/New_Systems/rnas/4TZY

>  <Rbt.Executable>
rbdock ($Id: //depot/dev/client3/rdock/2013.1/src/exe/rbdock.cxx#4 $)

>  <Rbt.Library>
libRbt.so (2013.1, Build901 2013/11/27)

>  <Rbt.Parameter_File>
/export/apps/rDock/src/rDock_2013.1_src/data/scripts/dock_solv.prm

>  <Rbt.Receptor>
prm/pocket_docking_3.prm

>  <SCORE>
-14.9309

>  <SCORE.INTER>
-14.9309

>  <SCORE.INTER.CONST>
1

>  <SCORE.INTER.POLAR>
0

>  <SCORE.INTER.ROT>
0

>  <SCORE.INTER.SOLV>
7.25776

>  <SCORE.INTER.VDW>
-15.9732

>  <SCORE.INTER.norm>
-1.49309

>  <SCORE.INTRA>
0

>  <SCORE.INTRA.DIHEDRAL>
0

>  <SCORE.INTRA.DIHEDRAL.0>
0

>  <SCORE.INTRA.POLAR>
0

>  <SCORE.INTRA.POLAR.0>
0

>  <SCORE.INTRA.REPUL>
0

>  <SCORE.INTRA.REPUL.0>
0

>  <SCORE.INTRA.SOLV>
0

>  <SCORE.INTRA.SOLV.lig_0>
-23.8941

>  <SCORE.INTRA.VDW>
0

>  <SCORE.INTRA.VDW.0>
0

>  <SCORE.INTRA.norm>
0

>  <SCORE.RESTR>
0

>  <SCORE.RESTR.CAVITY>
0

>  <SCORE.RESTR.norm>
0

>  <SCORE.SYSTEM>
0

>  <SCORE.SYSTEM.CONST>
0

>  <SCORE.SYSTEM.DIHEDRAL>
0

>  <SCORE.SYSTEM.SOLV>
0

>  <SCORE.SYSTEM.norm>
0

>  <SCORE.heavy>
10

>  <SCORE.norm>
-1.49309

>  <RMSD>
0.679

$$$$
ligand
 OpenBabel11021811513D
libRbt.so/2013.1/901 2013/11/27
 10 11  0  0  0  0  0  0  0  0999 V2000
  -30.2266   17.1026  -14.8853 N   0  0  0  0  0  0  0  0  0  0  0  0
  -30.9686   18.2150  -14.8184 C   0  0  0  0  0  0  0  0  0  0  0  0
  -31.2802   19.0732  -15.7881 N   0  0  0  0  0  0  0  0  0  0  0  0
  -30.7341   18.6942  -16.9541 C   0  0  0  0  0  0  0  0  0  0  0  0
  -29.9486   17.5807  -17.1790 C   0  0  0  0  0  0  0  0  0  0  0  0
  -29.6914   16.7483  -16.0714 C   0  0  0  0  0  0  0  0  0  0  0  0
  -28.9492   15.6378  -16.1414 N   0  0  0  0  0  0  0  0  0  0  0  0
  -29.5636   17.5110  -18.5072 N   0  0  0  0  0  0  0  0  0  0  0  0
  -30.1157   18.5710  -19.0501 C   0  0  0  0  0  0  0  0  0  0  0  0
  -30.8363   19.3302  -18.1707 N   0  0  0  0  0  0  0  0  0  0  0  0
  1  2  2  0  0  0  0
  1  6  1  0  0  0  0
  2  3  1  0  0  0  0
  3  4  2  0  0  0  0
  4  5  1  0  0  0  0
  4 10  1  0  0  0  0
  5  6  2  0  0  0  0
  5  8  1  0  0  0  0
  6  7  1  0  0  0  0
  8  9  1  0  0  0  0
  9 10  2  0  0  0  0
M  END
>  <CHROM.1>
-30.22680218,17.83754994,-16.75211797,1.38011833,-0.95954804,1.94560867

>  <Name>
ligand

>  <RI>
0

>  <Rbt.Current_Directory>
/home/itssahil/PROJECTS/Mol_Feturizer/New_Systems/rnas/4TZY

>  <Rbt.Executable>
rbdock ($Id: //depot/dev/client3/rdock/2013.1/src/exe/rbdock.cxx#4 $)

>  <Rbt.Library>
libRbt.so (2013.1, Build901 2013/11/27)

>  <Rbt.Parameter_File>
/export/apps/rDock/src/rDock_2013.1_src/data/scripts/dock_solv.prm

>  <Rbt.Receptor>
prm/pocket_docking_3.prm

>  <SCORE>
-14.9367

>  <SCORE.INTER>
-14.9367

>  <SCORE.INTER.CONST>
1

>  <SCORE.INTER.POLAR>
0

>  <SCORE.INTER.ROT>
0

>  <SCORE.INTER.SOLV>
8.82795

>  <SCORE.INTER.VDW>
-16.5004

>  <SCORE.INTER.norm>
-1.49367

>  <SCORE.INTRA>
0

>  <SCORE.INTRA.DIHEDRAL>
0

>  <SCORE.INTRA.DIHEDRAL.0>
0

>  <SCORE.INTRA.POLAR>
0

>  <SCORE.INTRA.POLAR.0>
0

>  <SCORE.INTRA.REPUL>
0

>  <SCORE.INTRA.REPUL.0>
0

>  <SCORE.INTRA.SOLV>
0

>  <SCORE.INTRA.SOLV.lig_0>
-23.8941

>  <SCORE.INTRA.VDW>
0

>  <SCORE.INTRA.VDW.0>
0

>  <SCORE.INTRA.norm>
0

>  <SCORE.RESTR>
0

>  <SCORE.RESTR.CAVITY>
0

>  <SCORE.RESTR.norm>
0

>  <SCORE.SYSTEM>
0

>  <SCORE.SYSTEM.CONST>
0

>  <SCORE.SYSTEM.DIHEDRAL>
0

>  <SCORE.SYSTEM.SOLV>
0

>  <SCORE.SYSTEM.norm>
0

>  <SCORE.heavy>
10

>  <SCORE.norm>
-1.49367

>  <RMSD>
0.681

$$$$
ligand
 OpenBabel11021811513D
libRbt.so/2013.1/901 2013/11/27
 10 11  0  0  0  0  0  0  0  0999 V2000
  -29.9958   17.0755  -14.9182 N   0  0  0  0  0  0  0  0  0  0  0  0
  -30.9811   17.9799  -14.8597 C   0  0  0  0  0  0  0  0  0  0  0  0
  -31.4833   18.7353  -15.8350 N   0  0  0  0  0  0  0  0  0  0  0  0
  -30.8577   18.4917  -16.9971 C   0  0  0  0  0  0  0  0  0  0  0  0
  -29.8291   17.5957  -17.2135 C   0  0  0  0  0  0  0  0  0  0  0  0
  -29.3865   16.8532  -16.1006 C   0  0  0  0  0  0  0  0  0  0  0  0
  -28.4014   15.9506  -16.1622 N   0  0  0  0  0  0  0  0  0  0  0  0
  -29.4327   17.6136  -18.5400 N   0  0  0  0  0  0  0  0  0  0  0  0
  -30.2184   18.5097  -19.0904 C   0  0  0  0  0  0  0  0  0  0  0  0
  -31.1026   19.0798  -18.2174 N   0  0  0  0  0  0  0  0  0  0  0  0
  1  2  2  0  0  0  0
  1  6  1  0  0  0  0
  2  3  1  0  0  0  0
  3  4  2  0  0  0  0
  4  5  1  0  0  0  0
  4 10  1  0  0  0  0
  5  6  2  0  0  0  0
  5  8  1  0  0  0  0
  6  7  1  0  0  0  0
  8  9  1  0  0  0  0
  9 10  2  0  0  0  0
M  END
>  <CHROM.1>
-30.16228370,17.78101670,-16.78889702,1.26863357,-0.73106254,1.85665502

>  <Name>
ligand

>  <RI>
0

>  <Rbt.Current_Directory>
/home/itssahil/PROJECTS/Mol_Feturizer/New_Systems/rnas/4TZY

>  <Rbt.Executable>
rbdock ($Id: //depot/dev/client3/rdock/2013.1/src/exe/rbdock.cxx#4 $)

>  <Rbt.Library>
libRbt.so (2013.1, Build901 2013/11/27)

>  <Rbt.Parameter_File>
/export/apps/rDock/src/rDock_2013.1_src/data/scripts/dock_solv.prm

>  <Rbt.Receptor>
prm/pocket_docking_3.prm

>  <SCORE>
-14.9577

>  <SCORE.INTER>
-14.9577

>  <SCORE.INTER.CONST>
1

>  <SCORE.INTER.POLAR>
0

>  <SCORE.INTER.ROT>
0

>  <SCORE.INTER.SOLV>
7.19213

>  <SCORE.INTER.VDW>
-15.9692

>  <SCORE.INTER.norm>
-1.49577

>  <SCORE.INTRA>
0

>  <SCORE.INTRA.DIHEDRAL>
0

>  <SCORE.INTRA.DIHEDRAL.0>
0

>  <SCORE.INTRA.POLAR>
0

>  <SCORE.INTRA.POLAR.0>
0

>  <SCORE.INTRA.REPUL>
0

>  <SCORE.INTRA.REPUL.0>
0

>  <SCORE.INTRA.SOLV>
0

>  <SCORE.INTRA.SOLV.lig_0>
-23.8941

>  <SCORE.INTRA.VDW>
0

>  <SCORE.INTRA.VDW.0>
0

>  <SCORE.INTRA.norm>
0

>  <SCORE.RESTR>
0

>  <SCORE.RESTR.CAVITY>
0

>  <SCORE.RESTR.norm>
0

>  <SCORE.SYSTEM>
0

>  <SCORE.SYSTEM.CONST>
0

>  <SCORE.SYSTEM.DIHEDRAL>
0

>  <SCORE.SYSTEM.SOLV>
0

>  <SCORE.SYSTEM.norm>
0

>  <SCORE.heavy>
10

>  <SCORE.norm>
-1.49577

>  <RMSD>
0.685

$$$$
ligand
 OpenBabel11021811513D
libRbt.so/2013.1/901 2013/11/27
 10 11  0  0  0  0  0  0  0  0999 V2000
  -30.2456   17.0187  -14.9264 N   0  0  0  0  0  0  0  0  0  0  0  0
  -30.9573   18.1469  -14.8123 C   0  0  0  0  0  0  0  0  0  0  0  0
  -31.2490   19.0509  -15.7460 N   0  0  0  0  0  0  0  0  0  0  0  0
  -30.7172   18.7040  -16.9284 C   0  0  0  0  0  0  0  0  0  0  0  0
  -29.9627   17.5797  -17.2006 C   0  0  0  0  0  0  0  0  0  0  0  0
  -29.7241   16.6975  -16.1279 C   0  0  0  0  0  0  0  0  0  0  0  0
  -29.0121   15.5713  -16.2451 N   0  0  0  0  0  0  0  0  0  0  0  0
  -29.5841   17.5524  -18.5322 N   0  0  0  0  0  0  0  0  0  0  0  0
  -30.1094   18.6475  -19.0303 C   0  0  0  0  0  0  0  0  0  0  0  0
  -30.8065   19.3901  -18.1184 N   0  0  0  0  0  0  0  0  0  0  0  0
  1  2  2  0  0  0  0
  1  6  1  0  0  0  0
  2  3  1  0  0  0  0
  3  4  2  0  0  0  0
  4  5  1  0  0  0  0
  4 10  1  0  0  0  0
  5  6  2  0  0  0  0
  5  8  1  0  0  0  0
  6  7  1  0  0  0  0
  8  9  1  0  0  0  0
  9 10  2  0  0  0  0
M  END
>  <CHROM.1>
-30.23240827,17.82675269,-16.76269854,1.39220646,-0.98567145,1.99518224

>  <Name>
ligand

>  <RI>
0

>  <Rbt.Current_Directory>
/home/itssahil/PROJECTS/Mol_Feturizer/New_Systems/rnas/4TZY

>  <Rbt.Executable>
rbdock ($Id: //depot/dev/client3/rdock/2013.1/src/exe/rbdock.cxx#4 $)

>  <Rbt.Library>
libRbt.so (2013.1, Build901 2013/11/27)

>  <Rbt.Parameter_File>
/export/apps/rDock/src/rDock_2013.1_src/data/scripts/dock_solv.prm

>  <Rbt.Receptor>
prm/pocket_docking_3.prm

>  <SCORE>
-14.964

>  <SCORE.INTER>
-14.964

>  <SCORE.INTER.CONST>
1

>  <SCORE.INTER.POLAR>
0

>  <SCORE.INTER.ROT>
0

>  <SCORE.INTER.SOLV>
9.28089

>  <SCORE.INTER.VDW>
-16.6696

>  <SCORE.INTER.norm>
-1.4964

>  <SCORE.INTRA>
0

>  <SCORE.INTRA.DIHEDRAL>
0

>  <SCORE.INTRA.DIHEDRAL.0>
0

>  <SCORE.INTRA.POLAR>
0

>  <SCORE.INTRA.POLAR.0>
0

>  <SCORE.INTRA.REPUL>
0

>  <SCORE.INTRA.REPUL.0>
0

>  <SCORE.INTRA.SOLV>
0

>  <SCORE.INTRA.SOLV.lig_0>
-23.8941

>  <SCORE.INTRA.VDW>
0

>  <SCORE.INTRA.VDW.0>
0

>  <SCORE.INTRA.norm>
0

>  <SCORE.RESTR>
0

>  <SCORE.RESTR.CAVITY>
0

>  <SCORE.RESTR.norm>
0

>  <SCORE.SYSTEM>
0

>  <SCORE.SYSTEM.CONST>
0

>  <SCORE.SYSTEM.DIHEDRAL>
0

>  <SCORE.SYSTEM.SOLV>
0

>  <SCORE.SYSTEM.norm>
0

>  <SCORE.heavy>
10

>  <SCORE.norm>
-1.4964

>  <RMSD>
0.687

$$$$
ligand
 OpenBabel11021811513D
libRbt.so/2013.1/901 2013/11/27
 10 11  0  0  0  0  0  0  0  0999 V2000
  -30.2616   17.0385  -14.9233 N   0  0  0  0  0  0  0  0  0  0  0  0
  -30.9892   18.1572  -14.8159 C   0  0  0  0  0  0  0  0  0  0  0  0
  -31.2854   19.0564  -15.7527 N   0  0  0  0  0  0  0  0  0  0  0  0
  -30.7396   18.7156  -16.9305 C   0  0  0  0  0  0  0  0  0  0  0  0
  -29.9680   17.6012  -17.1957 C   0  0  0  0  0  0  0  0  0  0  0  0
  -29.7263   16.7233  -16.1203 C   0  0  0  0  0  0  0  0  0  0  0  0
  -28.9985   15.6065  -16.2306 N   0  0  0  0  0  0  0  0  0  0  0  0
  -29.5785   17.5779  -18.5242 N   0  0  0  0  0  0  0  0  0  0  0  0
  -30.1144   18.6654  -19.0275 C   0  0  0  0  0  0  0  0  0  0  0  0
  -30.8285   19.3995  -18.1219 N   0  0  0  0  0  0  0  0  0  0  0  0
  1  2  2  0  0  0  0
  1  6  1  0  0  0  0
  2  3  1  0  0  0  0
  3  4  2  0  0  0  0
  4  5  1  0  0  0  0
  4 10  1  0  0  0  0
  5  6  2  0  0  0  0
  5  8  1  0  0  0  0
  6  7  1  0  0  0  0
  8  9  1  0  0  0  0
  9 10  2  0  0  0  0
M  END
>  <CHROM.1>
-30.24452722,17.84507040,-16.76014667,1.39538168,-0.97026246,1.99691172

>  <Name>
ligand

>  <RI>
0

>  <Rbt.Current_Directory>
/home/itssahil/PROJECTS/Mol_Feturizer/New_Systems/rnas/4TZY

>  <Rbt.Executable>
rbdock ($Id: //depot/dev/client3/rdock/2013.1/src/exe/rbdock.cxx#4 $)

>  <Rbt.Library>
libRbt.so (2013.1, Build901 2013/11/27)

>  <Rbt.Parameter_File>
/export/apps/rDock/src/rDock_2013.1_src/data/scripts/dock_solv.prm

>  <Rbt.Receptor>
prm/pocket_docking_3.prm

>  <SCORE>
-14.9831

>  <SCORE.INTER>
-14.9831

>  <SCORE.INTER.CONST>
1

>  <SCORE.INTER.POLAR>
0

>  <SCORE.INTER.ROT>
0

>  <SCORE.INTER.SOLV>
9.15139

>  <SCORE.INTER.VDW>
-16.6392

>  <SCORE.INTER.norm>
-1.49831

>  <SCORE.INTRA>
0

>  <SCORE.INTRA.DIHEDRAL>
0

>  <SCORE.INTRA.DIHEDRAL.0>
0

>  <SCORE.INTRA.POLAR>
0

>  <SCORE.INTRA.POLAR.0>
0

>  <SCORE.INTRA.REPUL>
0

>  <SCORE.INTRA.REPUL.0>
0

>  <SCORE.INTRA.SOLV>
0

>  <SCORE.INTRA.SOLV.lig_0>
-23.8941

>  <SCORE.INTRA.VDW>
0

>  <SCORE.INTRA.VDW.0>
0

>  <SCORE.INTRA.norm>
0

>  <SCORE.RESTR>
0

>  <SCORE.RESTR.CAVITY>
0

>  <SCORE.RESTR.norm>
0

>  <SCORE.SYSTEM>
0

>  <SCORE.SYSTEM.CONST>
0

>  <SCORE.SYSTEM.DIHEDRAL>
0

>  <SCORE.SYSTEM.SOLV>
0

>  <SCORE.SYSTEM.norm>
0

>  <SCORE.heavy>
10

>  <SCORE.norm>
-1.49831

>  <RMSD>
0.691

$$$$
ligand
 OpenBabel11021811513D
libRbt.so/2013.1/901 2013/11/27
 10 11  0  0  0  0  0  0  0  0999 V2000
  -30.1415   17.0559  -14.9378 N   0  0  0  0  0  0  0  0  0  0  0  0
  -30.9377   18.1262  -14.8250 C   0  0  0  0  0  0  0  0  0  0  0  0
  -31.3041   18.9996  -15.7615 N   0  0  0  0  0  0  0  0  0  0  0  0
  -30.7540   18.6883  -16.9455 C   0  0  0  0  0  0  0  0  0  0  0  0
  -29.9163   17.6242  -17.2166 C   0  0  0  0  0  0  0  0  0  0  0  0
  -29.6038   16.7692  -16.1410 C   0  0  0  0  0  0  0  0  0  0  0  0
  -28.8074   15.7009  -16.2568 N   0  0  0  0  0  0  0  0  0  0  0  0
  -29.5446   17.6188  -18.5505 N   0  0  0  0  0  0  0  0  0  0  0  0
  -30.1561   18.6671  -19.0509 C   0  0  0  0  0  0  0  0  0  0  0  0
  -30.9031   19.3587  -18.1384 N   0  0  0  0  0  0  0  0  0  0  0  0
  1  2  2  0  0  0  0
  1  6  1  0  0  0  0
  2  3  1  0  0  0  0
  3  4  2  0  0  0  0
  4  5  1  0  0  0  0
  4 10  1  0  0  0  0
  5  6  2  0  0  0  0
  5  8  1  0  0  0  0
  6  7  1  0  0  0  0
  8  9  1  0  0  0  0
  9 10  2  0  0  0  0
M  END
>  <CHROM.1>
-30.20173270,17.85214036,-16.77830050,1.33091153,-0.91655094,1.93983666

>  <Name>
ligand

>  <RI>
0

>  <Rbt.Current_Directory>
/home/itssahil/PROJECTS/Mol_Feturizer/New_Systems/rnas/4TZY

>  <Rbt.Executable>
rbdock ($Id: //depot/dev/client3/rdock/2013.1/src/exe/rbdock.cxx#4 $)

>  <Rbt.Library>
libRbt.so (2013.1, Build901 2013/11/27)

>  <Rbt.Parameter_File>
/export/apps/rDock/src/rDock_2013.1_src/data/scripts/dock_solv.prm

>  <Rbt.Receptor>
prm/pocket_docking_3.prm

>  <SCORE>
-14.9689

>  <SCORE.INTER>
-14.9689

>  <SCORE.INTER.CONST>
1

>  <SCORE.INTER.POLAR>
0

>  <SCORE.INTER.ROT>
0

>  <SCORE.INTER.SOLV>
8.5704

>  <SCORE.INTER.VDW>
-16.4361

>  <SCORE.INTER.norm>
-1.49689

>  <SCORE.INTRA>
0

>  <SCORE.INTRA.DIHEDRAL>
0

>  <SCORE.INTRA.DIHEDRAL.0>
0

>  <SCORE.INTRA.POLAR>
0

>  <SCORE.INTRA.POLAR.0>
0

>  <SCORE.INTRA.REPUL>
0

>  <SCORE.INTRA.REPUL.0>
0

>  <SCORE.INTRA.SOLV>
0

>  <SCORE.INTRA.SOLV.lig_0>
-23.8941

>  <SCORE.INTRA.VDW>
0

>  <SCORE.INTRA.VDW.0>
0

>  <SCORE.INTRA.norm>
0

>  <SCORE.RESTR>
0

>  <SCORE.RESTR.CAVITY>
0

>  <SCORE.RESTR.norm>
0

>  <SCORE.SYSTEM>
0

>  <SCORE.SYSTEM.CONST>
0

>  <SCORE.SYSTEM.DIHEDRAL>
0

>  <SCORE.SYSTEM.SOLV>
0

>  <SCORE.SYSTEM.norm>
0

>  <SCORE.heavy>
10

>  <SCORE.norm>
-1.49689

>  <RMSD>
0.692

$$$$
ligand
 OpenBabel11021811513D
libRbt.so/2013.1/901 2013/11/27
 10 11  0  0  0  0  0  0  0  0999 V2000
  -30.1568   17.0725  -14.9316 N   0  0  0  0  0  0  0  0  0  0  0  0
  -30.9589   18.1414  -14.8529 C   0  0  0  0  0  0  0  0  0  0  0  0
  -31.3182   18.9912  -15.8135 N   0  0  0  0  0  0  0  0  0  0  0  0
  -30.7530   18.6551  -16.9835 C   0  0  0  0  0  0  0  0  0  0  0  0
  -29.9075   17.5890  -17.2203 C   0  0  0  0  0  0  0  0  0  0  0  0
  -29.6038   16.7606  -16.1215 C   0  0  0  0  0  0  0  0  0  0  0  0
  -28.8015   15.6935  -16.2033 N   0  0  0  0  0  0  0  0  0  0  0  0
  -29.5203   17.5545  -18.5492 N   0  0  0  0  0  0  0  0  0  0  0  0
  -30.1304   18.5880  -19.0808 C   0  0  0  0  0  0  0  0  0  0  0  0
  -30.8911   19.2971  -18.1934 N   0  0  0  0  0  0  0  0  0  0  0  0
  1  2  2  0  0  0  0
  1  6  1  0  0  0  0
  2  3  1  0  0  0  0
  3  4  2  0  0  0  0
  4  5  1  0  0  0  0
  4 10  1  0  0  0  0
  5  6  2  0  0  0  0
  5  8  1  0  0  0  0
  6  7  1  0  0  0  0
  8  9  1  0  0  0  0
  9 10  2  0  0  0  0
M  END
>  <CHROM.1>
-30.19903048,17.82565165,-16.79065160,1.34603816,-0.90818974,1.92863962

>  <Name>
ligand

>  <RI>
0

>  <Rbt.Current_Directory>
/home/itssahil/PROJECTS/Mol_Feturizer/New_Systems/rnas/4TZY

>  <Rbt.Executable>
rbdock ($Id: //depot/dev/client3/rdock/2013.1/src/exe/rbdock.cxx#4 $)

>  <Rbt.Library>
libRbt.so (2013.1, Build901 2013/11/27)

>  <Rbt.Parameter_File>
/export/apps/rDock/src/rDock_2013.1_src/data/scripts/dock_solv.prm

>  <Rbt.Receptor>
prm/pocket_docking_3.prm

>  <SCORE>
-14.9713

>  <SCORE.INTER>
-14.9713

>  <SCORE.INTER.CONST>
1

>  <SCORE.INTER.POLAR>
0

>  <SCORE.INTER.ROT>
0

>  <SCORE.INTER.SOLV>
8.47398

>  <SCORE.INTER.VDW>
-16.4055

>  <SCORE.INTER.norm>
-1.49713

>  <SCORE.INTRA>
0

>  <SCORE.INTRA.DIHEDRAL>
0

>  <SCORE.INTRA.DIHEDRAL.0>
0

>  <SCORE.INTRA.POLAR>
0

>  <SCORE.INTRA.POLAR.0>
0

>  <SCORE.INTRA.REPUL>
0

>  <SCORE.INTRA.REPUL.0>
0

>  <SCORE.INTRA.SOLV>
0

>  <SCORE.INTRA.SOLV.lig_0>
-23.8941

>  <SCORE.INTRA.VDW>
0

>  <SCORE.INTRA.VDW.0>
0

>  <SCORE.INTRA.norm>
0

>  <SCORE.RESTR>
0

>  <SCORE.RESTR.CAVITY>
0

>  <SCORE.RESTR.norm>
0

>  <SCORE.SYSTEM>
0

>  <SCORE.SYSTEM.CONST>
0

>  <SCORE.SYSTEM.DIHEDRAL>
0

>  <SCORE.SYSTEM.SOLV>
0

>  <SCORE.SYSTEM.norm>
0

>  <SCORE.heavy>
10

>  <SCORE.norm>
-1.49713

>  <RMSD>
0.693

$$$$
ligand
 OpenBabel11021811513D
libRbt.so/2013.1/901 2013/11/27
 10 11  0  0  0  0  0  0  0  0999 V2000
  -30.2642   17.0806  -14.9068 N   0  0  0  0  0  0  0  0  0  0  0  0
  -30.9953   18.1995  -14.8305 C   0  0  0  0  0  0  0  0  0  0  0  0
  -31.2880   19.0755  -15.7901 N   0  0  0  0  0  0  0  0  0  0  0  0
  -30.7340   18.7085  -16.9562 C   0  0  0  0  0  0  0  0  0  0  0  0
  -29.9578   17.5903  -17.1901 C   0  0  0  0  0  0  0  0  0  0  0  0
  -29.7206   16.7386  -16.0927 C   0  0  0  0  0  0  0  0  0  0  0  0
  -28.9892   15.6216  -16.1722 N   0  0  0  0  0  0  0  0  0  0  0  0
  -29.5600   17.5366  -18.5152 N   0  0  0  0  0  0  0  0  0  0  0  0
  -30.0955   18.6105  -19.0475 C   0  0  0  0  0  0  0  0  0  0  0  0
  -30.8172   19.3638  -18.1639 N   0  0  0  0  0  0  0  0  0  0  0  0
  1  2  2  0  0  0  0
  1  6  1  0  0  0  0
  2  3  1  0  0  0  0
  3  4  2  0  0  0  0
  4  5  1  0  0  0  0
  4 10  1  0  0  0  0
  5  6  2  0  0  0  0
  5  8  1  0  0  0  0
  6  7  1  0  0  0  0
  8  9  1  0  0  0  0
  9 10  2  0  0  0  0
M  END
>  <CHROM.1>
-30.23767434,17.84357583,-16.76215355,1.40348648,-0.96530119,1.97993754

>  <Name>
ligand

>  <RI>
0

>  <Rbt.Current_Directory>
/home/itssahil/PROJECTS/Mol_Feturizer/New_Systems/rnas/4TZY

>  <Rbt.Executable>
rbdock ($Id: //depot/dev/client3/rdock/2013.1/src/exe/rbdock.cxx#4 $)

>  <Rbt.Library>
libRbt.so (2013.1, Build901 2013/11/27)

>  <Rbt.Parameter_File>
/export/apps/rDock/src/rDock_2013.1_src/data/scripts/dock_solv.prm

>  <Rbt.Receptor>
prm/pocket_docking_3.prm

>  <SCORE>
-14.9751

>  <SCORE.INTER>
-14.9751

>  <SCORE.INTER.CONST>
1

>  <SCORE.INTER.POLAR>
0

>  <SCORE.INTER.ROT>
0

>  <SCORE.INTER.SOLV>
9.01123

>  <SCORE.INTER.VDW>
-16.5871

>  <SCORE.INTER.norm>
-1.49751

>  <SCORE.INTRA>
0

>  <SCORE.INTRA.DIHEDRAL>
0

>  <SCORE.INTRA.DIHEDRAL.0>
0

>  <SCORE.INTRA.POLAR>
0

>  <SCORE.INTRA.POLAR.0>
0

>  <SCORE.INTRA.REPUL>
0

>  <SCORE.INTRA.REPUL.0>
0

>  <SCORE.INTRA.SOLV>
0

>  <SCORE.INTRA.SOLV.lig_0>
-23.8941

>  <SCORE.INTRA.VDW>
0

>  <SCORE.INTRA.VDW.0>
0

>  <SCORE.INTRA.norm>
0

>  <SCORE.RESTR>
0

>  <SCORE.RESTR.CAVITY>
0

>  <SCORE.RESTR.norm>
0

>  <SCORE.SYSTEM>
0

>  <SCORE.SYSTEM.CONST>
0

>  <SCORE.SYSTEM.DIHEDRAL>
0

>  <SCORE.SYSTEM.SOLV>
0

>  <SCORE.SYSTEM.norm>
0

>  <SCORE.heavy>
10

>  <SCORE.norm>
-1.49751

>  <RMSD>
0.694

$$$$
ligand
 OpenBabel11021811513D
libRbt.so/2013.1/901 2013/11/27
 10 11  0  0  0  0  0  0  0  0999 V2000
  -30.1354   17.0575  -14.9384 N   0  0  0  0  0  0  0  0  0  0  0  0
  -30.9328   18.1273  -14.8278 C   0  0  0  0  0  0  0  0  0  0  0  0
  -31.2975   19.0001  -15.7654 N   0  0  0  0  0  0  0  0  0  0  0  0
  -30.7443   18.6889  -16.9480 C   0  0  0  0  0  0  0  0  0  0  0  0
  -29.9051   17.6255  -17.2168 C   0  0  0  0  0  0  0  0  0  0  0  0
  -29.5945   16.7710  -16.1401 C   0  0  0  0  0  0  0  0  0  0  0  0
  -28.7970   15.7033  -16.2537 N   0  0  0  0  0  0  0  0  0  0  0  0
  -29.5302   17.6201  -18.5497 N   0  0  0  0  0  0  0  0  0  0  0  0
  -30.1413   18.6677  -19.0519 C   0  0  0  0  0  0  0  0  0  0  0  0
  -30.8911   19.3589  -18.1415 N   0  0  0  0  0  0  0  0  0  0  0  0
  1  2  2  0  0  0  0
  1  6  1  0  0  0  0
  2  3  1  0  0  0  0
  3  4  2  0  0  0  0
  4  5  1  0  0  0  0
  4 10  1  0  0  0  0
  5  6  2  0  0  0  0
  5  8  1  0  0  0  0
  6  7  1  0  0  0  0
  8  9  1  0  0  0  0
  9 10  2  0  0  0  0
M  END
>  <CHROM.1>
-30.19179714,17.85328730,-16.77923168,1.33416764,-0.91489743,1.94216388

>  <Name>
ligand

>  <RI>
0

>  <Rbt.Current_Directory>
/home/itssahil/PROJECTS/Mol_Feturizer/New_Systems/rnas/4TZY

>  <Rbt.Executable>
rbdock ($Id: //depot/dev/client3/rdock/2013.1/src/exe/rbdock.cxx#4 $)

>  <Rbt.Library>
libRbt.so (2013.1, Build901 2013/11/27)

>  <Rbt.Parameter_File>
/export/apps/rDock/src/rDock_2013.1_src/data/scripts/dock_solv.prm

>  <Rbt.Receptor>
prm/pocket_docking_3.prm

>  <SCORE>
-14.9972

>  <SCORE.INTER>
-14.9972

>  <SCORE.INTER.CONST>
1

>  <SCORE.INTER.POLAR>
0

>  <SCORE.INTER.ROT>
0

>  <SCORE.INTER.SOLV>
8.54087

>  <SCORE.INTER.VDW>
-16.4451

>  <SCORE.INTER.norm>
-1.49972

>  <SCORE.INTRA>
0

>  <SCORE.INTRA.DIHEDRAL>
0

>  <SCORE.INTRA.DIHEDRAL.0>
0

>  <SCORE.INTRA.POLAR>
0

>  <SCORE.INTRA.POLAR.0>
0

>  <SCORE.INTRA.REPUL>
0

>  <SCORE.INTRA.REPUL.0>
0

>  <SCORE.INTRA.SOLV>
0

>  <SCORE.INTRA.SOLV.lig_0>
-23.8941

>  <SCORE.INTRA.VDW>
0

>  <SCORE.INTRA.VDW.0>
0

>  <SCORE.INTRA.norm>
0

>  <SCORE.RESTR>
0

>  <SCORE.RESTR.CAVITY>
0

>  <SCORE.RESTR.norm>
0

>  <SCORE.SYSTEM>
0

>  <SCORE.SYSTEM.CONST>
0

>  <SCORE.SYSTEM.DIHEDRAL>
0

>  <SCORE.SYSTEM.SOLV>
0

>  <SCORE.SYSTEM.norm>
0

>  <SCORE.heavy>
10

>  <SCORE.norm>
-1.49972

>  <RMSD>
0.694

$$$$
ligand
 OpenBabel11021811513D
libRbt.so/2013.1/901 2013/11/27
 10 11  0  0  0  0  0  0  0  0999 V2000
  -30.1459   17.0757  -14.9337 N   0  0  0  0  0  0  0  0  0  0  0  0
  -30.9499   18.1432  -14.8523 C   0  0  0  0  0  0  0  0  0  0  0  0
  -31.3143   18.9920  -15.8118 N   0  0  0  0  0  0  0  0  0  0  0  0
  -30.7528   18.6567  -16.9838 C   0  0  0  0  0  0  0  0  0  0  0  0
  -29.9061   17.5921  -17.2233 C   0  0  0  0  0  0  0  0  0  0  0  0
  -29.5968   16.7646  -16.1255 C   0  0  0  0  0  0  0  0  0  0  0  0
  -28.7927   15.6991  -16.2100 N   0  0  0  0  0  0  0  0  0  0  0  0
  -29.5238   17.5580  -18.5537 N   0  0  0  0  0  0  0  0  0  0  0  0
  -30.1379   18.5902  -19.0833 C   0  0  0  0  0  0  0  0  0  0  0  0
  -30.8966   19.2980  -18.1933 N   0  0  0  0  0  0  0  0  0  0  0  0
  1  2  2  0  0  0  0
  1  6  1  0  0  0  0
  2  3  1  0  0  0  0
  3  4  2  0  0  0  0
  4  5  1  0  0  0  0
  4 10  1  0  0  0  0
  5  6  2  0  0  0  0
  5  8  1  0  0  0  0
  6  7  1  0  0  0  0
  8  9  1  0  0  0  0
  9 10  2  0  0  0  0
M  END
>  <CHROM.1>
-30.19654781,17.82832841,-16.79271529,1.33931341,-0.90766741,1.92306815

>  <Name>
ligand

>  <RI>
0

>  <Rbt.Current_Directory>
/home/itssahil/PROJECTS/Mol_Feturizer/New_Systems/rnas/4TZY

>  <Rbt.Executable>
rbdock ($Id: //depot/dev/client3/rdock/2013.1/src/exe/rbdock.cxx#4 $)

>  <Rbt.Library>
libRbt.so (2013.1, Build901 2013/11/27)

>  <Rbt.Parameter_File>
/export/apps/rDock/src/rDock_2013.1_src/data/scripts/dock_solv.prm

>  <Rbt.Receptor>
prm/pocket_docking_3.prm

>  <SCORE>
-14.973

>  <SCORE.INTER>
-14.973

>  <SCORE.INTER.CONST>
1

>  <SCORE.INTER.POLAR>
0

>  <SCORE.INTER.ROT>
0

>  <SCORE.INTER.SOLV>
8.45749

>  <SCORE.INTER.VDW>
-16.4012

>  <SCORE.INTER.norm>
-1.4973

>  <SCORE.INTRA>
0

>  <SCORE.INTRA.DIHEDRAL>
0

>  <SCORE.INTRA.DIHEDRAL.0>
0

>  <SCORE.INTRA.POLAR>
0

>  <SCORE.INTRA.POLAR.0>
0

>  <SCORE.INTRA.REPUL>
0

>  <SCORE.INTRA.REPUL.0>
0

>  <SCORE.INTRA.SOLV>
0

>  <SCORE.INTRA.SOLV.lig_0>
-23.8941

>  <SCORE.INTRA.VDW>
0

>  <SCORE.INTRA.VDW.0>
0

>  <SCORE.INTRA.norm>
0

>  <SCORE.RESTR>
0

>  <SCORE.RESTR.CAVITY>
0

>  <SCORE.RESTR.norm>
0

>  <SCORE.SYSTEM>
0

>  <SCORE.SYSTEM.CONST>
0

>  <SCORE.SYSTEM.DIHEDRAL>
0

>  <SCORE.SYSTEM.SOLV>
0

>  <SCORE.SYSTEM.norm>
0

>  <SCORE.heavy>
10

>  <SCORE.norm>
-1.4973

>  <RMSD>
0.695

$$$$
ligand
 OpenBabel11021811513D
libRbt.so/2013.1/901 2013/11/27
 10 11  0  0  0  0  0  0  0  0999 V2000
  -30.1174   17.0558  -14.9434 N   0  0  0  0  0  0  0  0  0  0  0  0
  -30.9135   18.1261  -14.8288 C   0  0  0  0  0  0  0  0  0  0  0  0
  -31.2829   18.9989  -15.7645 N   0  0  0  0  0  0  0  0  0  0  0  0
  -30.7364   18.6870  -16.9500 C   0  0  0  0  0  0  0  0  0  0  0  0
  -29.8993   17.6229  -17.2232 C   0  0  0  0  0  0  0  0  0  0  0  0
  -29.5834   16.7686  -16.1481 C   0  0  0  0  0  0  0  0  0  0  0  0
  -28.7872   15.7003  -16.2658 N   0  0  0  0  0  0  0  0  0  0  0  0
  -29.5318   17.6169  -18.5582 N   0  0  0  0  0  0  0  0  0  0  0  0
  -30.1450   18.6648  -19.0573 C   0  0  0  0  0  0  0  0  0  0  0  0
  -30.8893   19.3568  -18.1429 N   0  0  0  0  0  0  0  0  0  0  0  0
  1  2  2  0  0  0  0
  1  6  1  0  0  0  0
  2  3  1  0  0  0  0
  3  4  2  0  0  0  0
  4  5  1  0  0  0  0
  4 10  1  0  0  0  0
  5  6  2  0  0  0  0
  5  8  1  0  0  0  0
  6  7  1  0  0  0  0
  8  9  1  0  0  0  0
  9 10  2  0  0  0  0
M  END
>  <CHROM.1>
-30.18349015,17.85105676,-16.78413643,1.32606929,-0.91749472,1.93546064

>  <Name>
ligand

>  <RI>
0

>  <Rbt.Current_Directory>
/home/itssahil/PROJECTS/Mol_Feturizer/New_Systems/rnas/4TZY

>  <Rbt.Executable>
rbdock ($Id: //depot/dev/client3/rdock/2013.1/src/exe/rbdock.cxx#4 $)

>  <Rbt.Library>
libRbt.so (2013.1, Build901 2013/11/27)

>  <Rbt.Parameter_File>
/export/apps/rDock/src/rDock_2013.1_src/data/scripts/dock_solv.prm

>  <Rbt.Receptor>
prm/pocket_docking_3.prm

>  <SCORE>
-14.9966

>  <SCORE.INTER>
-14.9966

>  <SCORE.INTER.CONST>
1

>  <SCORE.INTER.POLAR>
0

>  <SCORE.INTER.ROT>
0

>  <SCORE.INTER.SOLV>
8.54798

>  <SCORE.INTER.VDW>
-16.4471

>  <SCORE.INTER.norm>
-1.49966

>  <SCORE.INTRA>
0

>  <SCORE.INTRA.DIHEDRAL>
0

>  <SCORE.INTRA.DIHEDRAL.0>
0

>  <SCORE.INTRA.POLAR>
0

>  <SCORE.INTRA.POLAR.0>
0

>  <SCORE.INTRA.REPUL>
0

>  <SCORE.INTRA.REPUL.0>
0

>  <SCORE.INTRA.SOLV>
0

>  <SCORE.INTRA.SOLV.lig_0>
-23.8941

>  <SCORE.INTRA.VDW>
0

>  <SCORE.INTRA.VDW.0>
0

>  <SCORE.INTRA.norm>
0

>  <SCORE.RESTR>
0

>  <SCORE.RESTR.CAVITY>
0

>  <SCORE.RESTR.norm>
0

>  <SCORE.SYSTEM>
0

>  <SCORE.SYSTEM.CONST>
0

>  <SCORE.SYSTEM.DIHEDRAL>
0

>  <SCORE.SYSTEM.SOLV>
0

>  <SCORE.SYSTEM.norm>
0

>  <SCORE.heavy>
10

>  <SCORE.norm>
-1.49966

>  <RMSD>
0.697

$$$$
ligand
 OpenBabel11021811513D
libRbt.so/2013.1/901 2013/11/27
 10 11  0  0  0  0  0  0  0  0999 V2000
  -30.1364   17.0709  -14.9373 N   0  0  0  0  0  0  0  0  0  0  0  0
  -30.9360   18.1394  -14.8312 C   0  0  0  0  0  0  0  0  0  0  0  0
  -31.3033   19.0070  -15.7727 N   0  0  0  0  0  0  0  0  0  0  0  0
  -30.7500   18.6915  -16.9541 C   0  0  0  0  0  0  0  0  0  0  0  0
  -29.9086   17.6287  -17.2184 C   0  0  0  0  0  0  0  0  0  0  0  0
  -29.5956   16.7800  -16.1380 C   0  0  0  0  0  0  0  0  0  0  0  0
  -28.7958   15.7134  -16.2470 N   0  0  0  0  0  0  0  0  0  0  0  0
  -29.5344   17.6179  -18.5515 N   0  0  0  0  0  0  0  0  0  0  0  0
  -30.1481   18.6618  -19.0582 C   0  0  0  0  0  0  0  0  0  0  0  0
  -30.8989   19.3556  -18.1506 N   0  0  0  0  0  0  0  0  0  0  0  0
  1  2  2  0  0  0  0
  1  6  1  0  0  0  0
  2  3  1  0  0  0  0
  3  4  2  0  0  0  0
  4  5  1  0  0  0  0
  4 10  1  0  0  0  0
  5  6  2  0  0  0  0
  5  8  1  0  0  0  0
  6  7  1  0  0  0  0
  8  9  1  0  0  0  0
  9 10  2  0  0  0  0
M  END
>  <CHROM.1>
-30.19557092,17.85790244,-16.78175642,1.33201139,-0.91306475,1.93579366

>  <Name>
ligand

>  <RI>
0

>  <Rbt.Current_Directory>
/home/itssahil/PROJECTS/Mol_Feturizer/New_Systems/rnas/4TZY

>  <Rbt.Executable>
rbdock ($Id: //depot/dev/client3/rdock/2013.1/src/exe/rbdock.cxx#4 $)

>  <Rbt.Library>
libRbt.so (2013.1, Build901 2013/11/27)

>  <Rbt.Parameter_File>
/export/apps/rDock/src/rDock_2013.1_src/data/scripts/dock_solv.prm

>  <Rbt.Receptor>
prm/pocket_docking_3.prm

>  <SCORE>
-14.9983

>  <SCORE.INTER>
-14.9983

>  <SCORE.INTER.CONST>
1

>  <SCORE.INTER.POLAR>
0

>  <SCORE.INTER.ROT>
0

>  <SCORE.INTER.SOLV>
8.5083

>  <SCORE.INTER.VDW>
-16.435

>  <SCORE.INTER.norm>
-1.49983

>  <SCORE.INTRA>
0

>  <SCORE.INTRA.DIHEDRAL>
0

>  <SCORE.INTRA.DIHEDRAL.0>
0

>  <SCORE.INTRA.POLAR>
0

>  <SCORE.INTRA.POLAR.0>
0

>  <SCORE.INTRA.REPUL>
0

>  <SCORE.INTRA.REPUL.0>
0

>  <SCORE.INTRA.SOLV>
0

>  <SCORE.INTRA.SOLV.lig_0>
-23.8941

>  <SCORE.INTRA.VDW>
0

>  <SCORE.INTRA.VDW.0>
0

>  <SCORE.INTRA.norm>
0

>  <SCORE.RESTR>
0

>  <SCORE.RESTR.CAVITY>
0

>  <SCORE.RESTR.norm>
0

>  <SCORE.SYSTEM>
0

>  <SCORE.SYSTEM.CONST>
0

>  <SCORE.SYSTEM.DIHEDRAL>
0

>  <SCORE.SYSTEM.SOLV>
0

>  <SCORE.SYSTEM.norm>
0

>  <SCORE.heavy>
10

>  <SCORE.norm>
-1.49983

>  <RMSD>
0.698

$$$$
ligand
 OpenBabel11021811513D
libRbt.so/2013.1/901 2013/11/27
 10 11  0  0  0  0  0  0  0  0999 V2000
  -30.1150   17.0604  -14.9454 N   0  0  0  0  0  0  0  0  0  0  0  0
  -30.9172   18.1257  -14.8282 C   0  0  0  0  0  0  0  0  0  0  0  0
  -31.2933   18.9974  -15.7624 N   0  0  0  0  0  0  0  0  0  0  0  0
  -30.7469   18.6901  -16.9491 C   0  0  0  0  0  0  0  0  0  0  0  0
  -29.9039   17.6314  -17.2248 C   0  0  0  0  0  0  0  0  0  0  0  0
  -29.5812   16.7778  -16.1512 C   0  0  0  0  0  0  0  0  0  0  0  0
  -28.7788   15.7144  -16.2714 N   0  0  0  0  0  0  0  0  0  0  0  0
  -29.5385   17.6291  -18.5604 N   0  0  0  0  0  0  0  0  0  0  0  0
  -30.1588   18.6739  -19.0573 C   0  0  0  0  0  0  0  0  0  0  0  0
  -30.9058   19.3603  -18.1409 N   0  0  0  0  0  0  0  0  0  0  0  0
  1  2  2  0  0  0  0
  1  6  1  0  0  0  0
  2  3  1  0  0  0  0
  3  4  2  0  0  0  0
  4  5  1  0  0  0  0
  4 10  1  0  0  0  0
  5  6  2  0  0  0  0
  5  8  1  0  0  0  0
  6  7  1  0  0  0  0
  8  9  1  0  0  0  0
  9 10  2  0  0  0  0
M  END
>  <CHROM.1>
-30.18875606,17.85732422,-16.78503974,1.32013433,-0.91246553,1.93190263

>  <Name>
ligand

>  <RI>
0

>  <Rbt.Current_Directory>
/home/itssahil/PROJECTS/Mol_Feturizer/New_Systems/rnas/4TZY

>  <Rbt.Executable>
rbdock ($Id: //depot/dev/client3/rdock/2013.1/src/exe/rbdock.cxx#4 $)

>  <Rbt.Library>
libRbt.so (2013.1, Build901 2013/11/27)

>  <Rbt.Parameter_File>
/export/apps/rDock/src/rDock_2013.1_src/data/scripts/dock_solv.prm

>  <Rbt.Receptor>
prm/pocket_docking_3.prm

>  <SCORE>
-14.9998

>  <SCORE.INTER>
-14.9998

>  <SCORE.INTER.CONST>
1

>  <SCORE.INTER.POLAR>
0

>  <SCORE.INTER.ROT>
0

>  <SCORE.INTER.SOLV>
8.51106

>  <SCORE.INTER.VDW>
-16.4369

>  <SCORE.INTER.norm>
-1.49998

>  <SCORE.INTRA>
0

>  <SCORE.INTRA.DIHEDRAL>
0

>  <SCORE.INTRA.DIHEDRAL.0>
0

>  <SCORE.INTRA.POLAR>
0

>  <SCORE.INTRA.POLAR.0>
0

>  <SCORE.INTRA.REPUL>
0

>  <SCORE.INTRA.REPUL.0>
0

>  <SCORE.INTRA.SOLV>
0

>  <SCORE.INTRA.SOLV.lig_0>
-23.8941

>  <SCORE.INTRA.VDW>
0

>  <SCORE.INTRA.VDW.0>
0

>  <SCORE.INTRA.norm>
0

>  <SCORE.RESTR>
0

>  <SCORE.RESTR.CAVITY>
0

>  <SCORE.RESTR.norm>
0

>  <SCORE.SYSTEM>
0

>  <SCORE.SYSTEM.CONST>
0

>  <SCORE.SYSTEM.DIHEDRAL>
0

>  <SCORE.SYSTEM.SOLV>
0

>  <SCORE.SYSTEM.norm>
0

>  <SCORE.heavy>
10

>  <SCORE.norm>
-1.49998

>  <RMSD>
0.700

$$$$
ligand
 OpenBabel11021811513D
libRbt.so/2013.1/901 2013/11/27
 10 11  0  0  0  0  0  0  0  0999 V2000
  -30.1224   17.0791  -14.9363 N   0  0  0  0  0  0  0  0  0  0  0  0
  -30.9264   18.1444  -14.8302 C   0  0  0  0  0  0  0  0  0  0  0  0
  -31.3009   19.0078  -15.7727 N   0  0  0  0  0  0  0  0  0  0  0  0
  -30.7507   18.6914  -16.9553 C   0  0  0  0  0  0  0  0  0  0  0  0
  -29.9056   17.6315  -17.2198 C   0  0  0  0  0  0  0  0  0  0  0  0
  -29.5848   16.7872  -16.1382 C   0  0  0  0  0  0  0  0  0  0  0  0
  -28.7807   15.7239  -16.2472 N   0  0  0  0  0  0  0  0  0  0  0  0
  -29.5364   17.6186  -18.5543 N   0  0  0  0  0  0  0  0  0  0  0  0
  -30.1566   18.6584  -19.0616 C   0  0  0  0  0  0  0  0  0  0  0  0
  -30.9071   19.3514  -18.1531 N   0  0  0  0  0  0  0  0  0  0  0  0
  1  2  2  0  0  0  0
  1  6  1  0  0  0  0
  2  3  1  0  0  0  0
  3  4  2  0  0  0  0
  4  5  1  0  0  0  0
  4 10  1  0  0  0  0
  5  6  2  0  0  0  0
  5  8  1  0  0  0  0
  6  7  1  0  0  0  0
  8  9  1  0  0  0  0
  9 10  2  0  0  0  0
M  END
>  <CHROM.1>
-30.19194778,17.86069006,-16.78272195,1.32373090,-0.91024019,1.92642885

>  <Name>
ligand

>  <RI>
0

>  <Rbt.Current_Directory>
/home/itssahil/PROJECTS/Mol_Feturizer/New_Systems/rnas/4TZY

>  <Rbt.Executable>
rbdock ($Id: //depot/dev/client3/rdock/2013.1/src/exe/rbdock.cxx#4 $)

>  <Rbt.Library>
libRbt.so (2013.1, Build901 2013/11/27)

>  <Rbt.Parameter_File>
/export/apps/rDock/src/rDock_2013.1_src/data/scripts/dock_solv.prm

>  <Rbt.Receptor>
prm/pocket_docking_3.prm

>  <SCORE>
-15.0007

>  <SCORE.INTER>
-15.0007

>  <SCORE.INTER.CONST>
1

>  <SCORE.INTER.POLAR>
0

>  <SCORE.INTER.ROT>
0

>  <SCORE.INTER.SOLV>
8.45468

>  <SCORE.INTER.VDW>
-16.4187

>  <SCORE.INTER.norm>
-1.50007

>  <SCORE.INTRA>
0

>  <SCORE.INTRA.DIHEDRAL>
0

>  <SCORE.INTRA.DIHEDRAL.0>
0

>  <SCORE.INTRA.POLAR>
0

>  <SCORE.INTRA.POLAR.0>
0

>  <SCORE.INTRA.REPUL>
0

>  <SCORE.INTRA.REPUL.0>
0

>  <SCORE.INTRA.SOLV>
0

>  <SCORE.INTRA.SOLV.lig_0>
-23.8941

>  <SCORE.INTRA.VDW>
0

>  <SCORE.INTRA.VDW.0>
0

>  <SCORE.INTRA.norm>
0

>  <SCORE.RESTR>
0

>  <SCORE.RESTR.CAVITY>
0

>  <SCORE.RESTR.norm>
0

>  <SCORE.SYSTEM>
0

>  <SCORE.SYSTEM.CONST>
0

>  <SCORE.SYSTEM.DIHEDRAL>
0

>  <SCORE.SYSTEM.SOLV>
0

>  <SCORE.SYSTEM.norm>
0

>  <SCORE.heavy>
10

>  <SCORE.norm>
-1.50007

>  <RMSD>
0.700

$$$$
ligand
 OpenBabel11021811513D
libRbt.so/2013.1/901 2013/11/27
 10 11  0  0  0  0  0  0  0  0999 V2000
  -30.1405   17.0824  -14.9335 N   0  0  0  0  0  0  0  0  0  0  0  0
  -30.9384   18.1530  -14.8359 C   0  0  0  0  0  0  0  0  0  0  0  0
  -31.3012   19.0161  -15.7833 N   0  0  0  0  0  0  0  0  0  0  0  0
  -30.7451   18.6928  -16.9612 C   0  0  0  0  0  0  0  0  0  0  0  0
  -29.9050   17.6268  -17.2171 C   0  0  0  0  0  0  0  0  0  0  0  0
  -29.5968   16.7836  -16.1310 C   0  0  0  0  0  0  0  0  0  0  0  0
  -28.7988   15.7149  -16.2317 N   0  0  0  0  0  0  0  0  0  0  0  0
  -29.5270   17.6077  -18.5490 N   0  0  0  0  0  0  0  0  0  0  0  0
  -30.1372   18.6500  -19.0634 C   0  0  0  0  0  0  0  0  0  0  0  0
  -30.8893   19.3504  -18.1620 N   0  0  0  0  0  0  0  0  0  0  0  0
  1  2  2  0  0  0  0
  1  6  1  0  0  0  0
  2  3  1  0  0  0  0
  3  4  2  0  0  0  0
  4  5  1  0  0  0  0
  4 10  1  0  0  0  0
  5  6  2  0  0  0  0
  5  8  1  0  0  0  0
  6  7  1  0  0  0  0
  8  9  1  0  0  0  0
  9 10  2  0  0  0  0
M  END
>  <CHROM.1>
-30.19282944,17.85906974,-16.78259756,1.33760760,-0.91385811,1.93455395

>  <Name>
ligand

>  <RI>
0

>  <Rbt.Current_Directory>
/home/itssahil/PROJECTS/Mol_Feturizer/New_Systems/rnas/4TZY

>  <Rbt.Executable>
rbdock ($Id: //depot/dev/client3/rdock/2013.1/src/exe/rbdock.cxx#4 $)

>  <Rbt.Library>
libRbt.so (2013.1, Build901 2013/11/27)

>  <Rbt.Parameter_File>
/export/apps/rDock/src/rDock_2013.1_src/data/scripts/dock_solv.prm

>  <Rbt.Receptor>
prm/pocket_docking_3.prm

>  <SCORE>
-14.9966

>  <SCORE.INTER>
-14.9966

>  <SCORE.INTER.CONST>
1

>  <SCORE.INTER.POLAR>
0

>  <SCORE.INTER.ROT>
0

>  <SCORE.INTER.SOLV>
8.48748

>  <SCORE.INTER.VDW>
-16.4269

>  <SCORE.INTER.norm>
-1.49966

>  <SCORE.INTRA>
0

>  <SCORE.INTRA.DIHEDRAL>
0

>  <SCORE.INTRA.DIHEDRAL.0>
0

>  <SCORE.INTRA.POLAR>
0

>  <SCORE.INTRA.POLAR.0>
0

>  <SCORE.INTRA.REPUL>
0

>  <SCORE.INTRA.REPUL.0>
0

>  <SCORE.INTRA.SOLV>
0

>  <SCORE.INTRA.SOLV.lig_0>
-23.8941

>  <SCORE.INTRA.VDW>
0

>  <SCORE.INTRA.VDW.0>
0

>  <SCORE.INTRA.norm>
0

>  <SCORE.RESTR>
0

>  <SCORE.RESTR.CAVITY>
0

>  <SCORE.RESTR.norm>
0

>  <SCORE.SYSTEM>
0

>  <SCORE.SYSTEM.CONST>
0

>  <SCORE.SYSTEM.DIHEDRAL>
0

>  <SCORE.SYSTEM.SOLV>
0

>  <SCORE.SYSTEM.norm>
0

>  <SCORE.heavy>
10

>  <SCORE.norm>
-1.49966

>  <RMSD>
0.701

$$$$
ligand
 OpenBabel11021811513D
libRbt.so/2013.1/901 2013/11/27
 10 11  0  0  0  0  0  0  0  0999 V2000
  -30.1663   17.0691  -14.9382 N   0  0  0  0  0  0  0  0  0  0  0  0
  -30.9527   18.1482  -14.8396 C   0  0  0  0  0  0  0  0  0  0  0  0
  -31.3038   19.0176  -15.7856 N   0  0  0  0  0  0  0  0  0  0  0  0
  -30.7486   18.6912  -16.9631 C   0  0  0  0  0  0  0  0  0  0  0  0
  -29.9195   17.6168  -17.2198 C   0  0  0  0  0  0  0  0  0  0  0  0
  -29.6231   16.7676  -16.1352 C   0  0  0  0  0  0  0  0  0  0  0  0
  -28.8365   15.6905  -16.2368 N   0  0  0  0  0  0  0  0  0  0  0  0
  -29.5386   17.5971  -18.5509 N   0  0  0  0  0  0  0  0  0  0  0  0
  -30.1362   18.6473  -19.0640 C   0  0  0  0  0  0  0  0  0  0  0  0
  -30.8827   19.3535  -18.1624 N   0  0  0  0  0  0  0  0  0  0  0  0
  1  2  2  0  0  0  0
  1  6  1  0  0  0  0
  2  3  1  0  0  0  0
  3  4  2  0  0  0  0
  4  5  1  0  0  0  0
  4 10  1  0  0  0  0
  5  6  2  0  0  0  0
  5  8  1  0  0  0  0
  6  7  1  0  0  0  0
  8  9  1  0  0  0  0
  9 10  2  0  0  0  0
M  END
>  <CHROM.1>
-30.20580067,17.85110465,-16.78538051,1.34765398,-0.92318641,1.94512995

>  <Name>
ligand

>  <RI>
0

>  <Rbt.Current_Directory>
/home/itssahil/PROJECTS/Mol_Feturizer/New_Systems/rnas/4TZY

>  <Rbt.Executable>
rbdock ($Id: //depot/dev/client3/rdock/2013.1/src/exe/rbdock.cxx#4 $)

>  <Rbt.Library>
libRbt.so (2013.1, Build901 2013/11/27)

>  <Rbt.Parameter_File>
/export/apps/rDock/src/rDock_2013.1_src/data/scripts/dock_solv.prm

>  <Rbt.Receptor>
prm/pocket_docking_3.prm

>  <SCORE>
-14.9543

>  <SCORE.INTER>
-14.9543

>  <SCORE.INTER.CONST>
1

>  <SCORE.INTER.POLAR>
0

>  <SCORE.INTER.ROT>
0

>  <SCORE.INTER.SOLV>
8.62462

>  <SCORE.INTER.VDW>
-16.4444

>  <SCORE.INTER.norm>
-1.49543

>  <SCORE.INTRA>
0

>  <SCORE.INTRA.DIHEDRAL>
0

>  <SCORE.INTRA.DIHEDRAL.0>
0

>  <SCORE.INTRA.POLAR>
0

>  <SCORE.INTRA.POLAR.0>
0

>  <SCORE.INTRA.REPUL>
0

>  <SCORE.INTRA.REPUL.0>
0

>  <SCORE.INTRA.SOLV>
0

>  <SCORE.INTRA.SOLV.lig_0>
-23.8941

>  <SCORE.INTRA.VDW>
0

>  <SCORE.INTRA.VDW.0>
0

>  <SCORE.INTRA.norm>
0

>  <SCORE.RESTR>
0

>  <SCORE.RESTR.CAVITY>
0

>  <SCORE.RESTR.norm>
0

>  <SCORE.SYSTEM>
0

>  <SCORE.SYSTEM.CONST>
0

>  <SCORE.SYSTEM.DIHEDRAL>
0

>  <SCORE.SYSTEM.SOLV>
0

>  <SCORE.SYSTEM.norm>
0

>  <SCORE.heavy>
10

>  <SCORE.norm>
-1.49543

>  <RMSD>
0.701

$$$$
ligand
 OpenBabel11021811513D
libRbt.so/2013.1/901 2013/11/27
 10 11  0  0  0  0  0  0  0  0999 V2000
  -30.1563   17.0596  -14.9363 N   0  0  0  0  0  0  0  0  0  0  0  0
  -30.9109   18.1586  -14.8123 C   0  0  0  0  0  0  0  0  0  0  0  0
  -31.2515   19.0495  -15.7420 N   0  0  0  0  0  0  0  0  0  0  0  0
  -30.7230   18.7232  -16.9317 C   0  0  0  0  0  0  0  0  0  0  0  0
  -29.9281   17.6297  -17.2143 C   0  0  0  0  0  0  0  0  0  0  0  0
  -29.6394   16.7586  -16.1450 C   0  0  0  0  0  0  0  0  0  0  0  0
  -28.8847   15.6616  -16.2719 N   0  0  0  0  0  0  0  0  0  0  0  0
  -29.5675   17.6166  -18.5512 N   0  0  0  0  0  0  0  0  0  0  0  0
  -30.1431   18.6894  -19.0420 C   0  0  0  0  0  0  0  0  0  0  0  0
  -30.8563   19.4043  -18.1205 N   0  0  0  0  0  0  0  0  0  0  0  0
  1  2  2  0  0  0  0
  1  6  1  0  0  0  0
  2  3  1  0  0  0  0
  3  4  2  0  0  0  0
  4  5  1  0  0  0  0
  4 10  1  0  0  0  0
  5  6  2  0  0  0  0
  5  8  1  0  0  0  0
  6  7  1  0  0  0  0
  8  9  1  0  0  0  0
  9 10  2  0  0  0  0
M  END
>  <CHROM.1>
-30.20127564,17.86615898,-16.77270047,1.34154319,-0.95447613,1.95290406

>  <Name>
ligand

>  <RI>
0

>  <Rbt.Current_Directory>
/home/itssahil/PROJECTS/Mol_Feturizer/New_Systems/rnas/4TZY

>  <Rbt.Executable>
rbdock ($Id: //depot/dev/client3/rdock/2013.1/src/exe/rbdock.cxx#4 $)

>  <Rbt.Library>
libRbt.so (2013.1, Build901 2013/11/27)

>  <Rbt.Parameter_File>
/export/apps/rDock/src/rDock_2013.1_src/data/scripts/dock_solv.prm

>  <Rbt.Receptor>
prm/pocket_docking_3.prm

>  <SCORE>
-14.9766

>  <SCORE.INTER>
-14.9766

>  <SCORE.INTER.CONST>
1

>  <SCORE.INTER.POLAR>
0

>  <SCORE.INTER.ROT>
0

>  <SCORE.INTER.SOLV>
8.84551

>  <SCORE.INTER.VDW>
-16.5329

>  <SCORE.INTER.norm>
-1.49766

>  <SCORE.INTRA>
0

>  <SCORE.INTRA.DIHEDRAL>
0

>  <SCORE.INTRA.DIHEDRAL.0>
0

>  <SCORE.INTRA.POLAR>
0

>  <SCORE.INTRA.POLAR.0>
0

>  <SCORE.INTRA.REPUL>
0

>  <SCORE.INTRA.REPUL.0>
0

>  <SCORE.INTRA.SOLV>
0

>  <SCORE.INTRA.SOLV.lig_0>
-23.8941

>  <SCORE.INTRA.VDW>
0

>  <SCORE.INTRA.VDW.0>
0

>  <SCORE.INTRA.norm>
0

>  <SCORE.RESTR>
0

>  <SCORE.RESTR.CAVITY>
0

>  <SCORE.RESTR.norm>
0

>  <SCORE.SYSTEM>
0

>  <SCORE.SYSTEM.CONST>
0

>  <SCORE.SYSTEM.DIHEDRAL>
0

>  <SCORE.SYSTEM.SOLV>
0

>  <SCORE.SYSTEM.norm>
0

>  <SCORE.heavy>
10

>  <SCORE.norm>
-1.49766

>  <RMSD>
0.702

$$$$
ligand
 OpenBabel11021811513D
libRbt.so/2013.1/901 2013/11/27
 10 11  0  0  0  0  0  0  0  0999 V2000
  -30.1105   17.0642  -14.9469 N   0  0  0  0  0  0  0  0  0  0  0  0
  -30.9086   18.1329  -14.8319 C   0  0  0  0  0  0  0  0  0  0  0  0
  -31.2834   19.0027  -15.7684 N   0  0  0  0  0  0  0  0  0  0  0  0
  -30.7405   18.6891  -16.9551 C   0  0  0  0  0  0  0  0  0  0  0  0
  -29.9021   17.6263  -17.2288 C   0  0  0  0  0  0  0  0  0  0  0  0
  -29.5803   16.7753  -16.1527 C   0  0  0  0  0  0  0  0  0  0  0  0
  -28.7821   15.7085  -16.2707 N   0  0  0  0  0  0  0  0  0  0  0  0
  -29.5394   17.6178  -18.5651 N   0  0  0  0  0  0  0  0  0  0  0  0
  -30.1568   18.6631  -19.0645 C   0  0  0  0  0  0  0  0  0  0  0  0
  -30.8993   19.3556  -18.1491 N   0  0  0  0  0  0  0  0  0  0  0  0
  1  2  2  0  0  0  0
  1  6  1  0  0  0  0
  2  3  1  0  0  0  0
  3  4  2  0  0  0  0
  4  5  1  0  0  0  0
  4 10  1  0  0  0  0
  5  6  2  0  0  0  0
  5  8  1  0  0  0  0
  6  7  1  0  0  0  0
  8  9  1  0  0  0  0
  9 10  2  0  0  0  0
M  END
>  <CHROM.1>
-30.18513192,17.85481307,-16.78923315,1.31915713,-0.91666136,1.92754437

>  <Name>
ligand

>  <RI>
0

>  <Rbt.Current_Directory>
/home/itssahil/PROJECTS/Mol_Feturizer/New_Systems/rnas/4TZY

>  <Rbt.Executable>
rbdock ($Id: //depot/dev/client3/rdock/2013.1/src/exe/rbdock.cxx#4 $)

>  <Rbt.Library>
libRbt.so (2013.1, Build901 2013/11/27)

>  <Rbt.Parameter_File>
/export/apps/rDock/src/rDock_2013.1_src/data/scripts/dock_solv.prm

>  <Rbt.Receptor>
prm/pocket_docking_3.prm

>  <SCORE>
-14.9965

>  <SCORE.INTER>
-14.9965

>  <SCORE.INTER.CONST>
1

>  <SCORE.INTER.POLAR>
0

>  <SCORE.INTER.ROT>
0

>  <SCORE.INTER.SOLV>
8.53147

>  <SCORE.INTER.VDW>
-16.4415

>  <SCORE.INTER.norm>
-1.49965

>  <SCORE.INTRA>
0

>  <SCORE.INTRA.DIHEDRAL>
0

>  <SCORE.INTRA.DIHEDRAL.0>
0

>  <SCORE.INTRA.POLAR>
0

>  <SCORE.INTRA.POLAR.0>
0

>  <SCORE.INTRA.REPUL>
0

>  <SCORE.INTRA.REPUL.0>
0

>  <SCORE.INTRA.SOLV>
0

>  <SCORE.INTRA.SOLV.lig_0>
-23.8941

>  <SCORE.INTRA.VDW>
0

>  <SCORE.INTRA.VDW.0>
0

>  <SCORE.INTRA.norm>
0

>  <SCORE.RESTR>
0

>  <SCORE.RESTR.CAVITY>
0

>  <SCORE.RESTR.norm>
0

>  <SCORE.SYSTEM>
0

>  <SCORE.SYSTEM.CONST>
0

>  <SCORE.SYSTEM.DIHEDRAL>
0

>  <SCORE.SYSTEM.SOLV>
0

>  <SCORE.SYSTEM.norm>
0

>  <SCORE.heavy>
10

>  <SCORE.norm>
-1.49965

>  <RMSD>
0.703

$$$$
ligand
 OpenBabel11021811513D
libRbt.so/2013.1/901 2013/11/27
 10 11  0  0  0  0  0  0  0  0999 V2000
  -30.2788   17.1235  -14.9050 N   0  0  0  0  0  0  0  0  0  0  0  0
  -31.0005   18.2500  -14.8543 C   0  0  0  0  0  0  0  0  0  0  0  0
  -31.2820   19.1088  -15.8326 N   0  0  0  0  0  0  0  0  0  0  0  0
  -30.7267   18.7134  -16.9888 C   0  0  0  0  0  0  0  0  0  0  0  0
  -29.9593   17.5841  -17.1968 C   0  0  0  0  0  0  0  0  0  0  0  0
  -29.7337   16.7529  -16.0815 C   0  0  0  0  0  0  0  0  0  0  0  0
  -29.0116   15.6283  -16.1354 N   0  0  0  0  0  0  0  0  0  0  0  0
  -29.5569   17.5001  -18.5191 N   0  0  0  0  0  0  0  0  0  0  0  0
  -30.0811   18.5675  -19.0751 C   0  0  0  0  0  0  0  0  0  0  0  0
  -30.7996   19.3447  -18.2099 N   0  0  0  0  0  0  0  0  0  0  0  0
  1  2  2  0  0  0  0
  1  6  1  0  0  0  0
  2  3  1  0  0  0  0
  3  4  2  0  0  0  0
  4  5  1  0  0  0  0
  4 10  1  0  0  0  0
  5  6  2  0  0  0  0
  5  8  1  0  0  0  0
  6  7  1  0  0  0  0
  8  9  1  0  0  0  0
  9 10  2  0  0  0  0
M  END
>  <CHROM.1>
-30.23863273,17.84840601,-16.77527182,1.41580095,-0.97166006,1.96979476

>  <Name>
ligand

>  <RI>
0

>  <Rbt.Current_Directory>
/home/itssahil/PROJECTS/Mol_Feturizer/New_Systems/rnas/4TZY

>  <Rbt.Executable>
rbdock ($Id: //depot/dev/client3/rdock/2013.1/src/exe/rbdock.cxx#4 $)

>  <Rbt.Library>
libRbt.so (2013.1, Build901 2013/11/27)

>  <Rbt.Parameter_File>
/export/apps/rDock/src/rDock_2013.1_src/data/scripts/dock_solv.prm

>  <Rbt.Receptor>
prm/pocket_docking_3.prm

>  <SCORE>
-14.9827

>  <SCORE.INTER>
-14.9827

>  <SCORE.INTER.CONST>
1

>  <SCORE.INTER.POLAR>
0

>  <SCORE.INTER.ROT>
0

>  <SCORE.INTER.SOLV>
9.00377

>  <SCORE.INTER.VDW>
-16.5897

>  <SCORE.INTER.norm>
-1.49827

>  <SCORE.INTRA>
0

>  <SCORE.INTRA.DIHEDRAL>
0

>  <SCORE.INTRA.DIHEDRAL.0>
0

>  <SCORE.INTRA.POLAR>
0

>  <SCORE.INTRA.POLAR.0>
0

>  <SCORE.INTRA.REPUL>
0

>  <SCORE.INTRA.REPUL.0>
0

>  <SCORE.INTRA.SOLV>
0

>  <SCORE.INTRA.SOLV.lig_0>
-23.8941

>  <SCORE.INTRA.VDW>
0

>  <SCORE.INTRA.VDW.0>
0

>  <SCORE.INTRA.norm>
0

>  <SCORE.RESTR>
0

>  <SCORE.RESTR.CAVITY>
0

>  <SCORE.RESTR.norm>
0

>  <SCORE.SYSTEM>
0

>  <SCORE.SYSTEM.CONST>
0

>  <SCORE.SYSTEM.DIHEDRAL>
0

>  <SCORE.SYSTEM.SOLV>
0

>  <SCORE.SYSTEM.norm>
0

>  <SCORE.heavy>
10

>  <SCORE.norm>
-1.49827

>  <RMSD>
0.716

$$$$
ligand
 OpenBabel11021811513D
libRbt.so/2013.1/901 2013/11/27
 10 11  0  0  0  0  0  0  0  0999 V2000
  -30.1507   17.1040  -14.9436 N   0  0  0  0  0  0  0  0  0  0  0  0
  -30.9495   18.1745  -14.8528 C   0  0  0  0  0  0  0  0  0  0  0  0
  -31.3089   19.0342  -15.8045 N   0  0  0  0  0  0  0  0  0  0  0  0
  -30.7479   18.7072  -16.9791 C   0  0  0  0  0  0  0  0  0  0  0  0
  -29.9062   17.6408  -17.2280 C   0  0  0  0  0  0  0  0  0  0  0  0
  -29.6020   16.8014  -16.1378 C   0  0  0  0  0  0  0  0  0  0  0  0
  -28.8030   15.7328  -16.2316 N   0  0  0  0  0  0  0  0  0  0  0  0
  -29.5229   17.6174  -18.5583 N   0  0  0  0  0  0  0  0  0  0  0  0
  -30.1315   18.6576  -19.0787 C   0  0  0  0  0  0  0  0  0  0  0  0
  -30.8875   19.3606  -18.1826 N   0  0  0  0  0  0  0  0  0  0  0  0
  1  2  2  0  0  0  0
  1  6  1  0  0  0  0
  2  3  1  0  0  0  0
  3  4  2  0  0  0  0
  4  5  1  0  0  0  0
  4 10  1  0  0  0  0
  5  6  2  0  0  0  0
  5  8  1  0  0  0  0
  6  7  1  0  0  0  0
  8  9  1  0  0  0  0
  9 10  2  0  0  0  0
M  END
>  <CHROM.1>
-30.19591367,17.87435361,-16.79544575,1.34346580,-0.91194111,1.93579938

>  <Name>
ligand

>  <RI>
0

>  <Rbt.Current_Directory>
/home/itssahil/PROJECTS/Mol_Feturizer/New_Systems/rnas/4TZY

>  <Rbt.Executable>
rbdock ($Id: //depot/dev/client3/rdock/2013.1/src/exe/rbdock.cxx#4 $)

>  <Rbt.Library>
libRbt.so (2013.1, Build901 2013/11/27)

>  <Rbt.Parameter_File>
/export/apps/rDock/src/rDock_2013.1_src/data/scripts/dock_solv.prm

>  <Rbt.Receptor>
prm/pocket_docking_3.prm

>  <SCORE>
-14.9519

>  <SCORE.INTER>
-14.9519

>  <SCORE.INTER.CONST>
1

>  <SCORE.INTER.POLAR>
0

>  <SCORE.INTER.ROT>
0

>  <SCORE.INTER.SOLV>
8.47228

>  <SCORE.INTER.VDW>
-16.392

>  <SCORE.INTER.norm>
-1.49519

>  <SCORE.INTRA>
0

>  <SCORE.INTRA.DIHEDRAL>
0

>  <SCORE.INTRA.DIHEDRAL.0>
0

>  <SCORE.INTRA.POLAR>
0

>  <SCORE.INTRA.POLAR.0>
0

>  <SCORE.INTRA.REPUL>
0

>  <SCORE.INTRA.REPUL.0>
0

>  <SCORE.INTRA.SOLV>
0

>  <SCORE.INTRA.SOLV.lig_0>
-23.8941

>  <SCORE.INTRA.VDW>
0

>  <SCORE.INTRA.VDW.0>
0

>  <SCORE.INTRA.norm>
0

>  <SCORE.RESTR>
0

>  <SCORE.RESTR.CAVITY>
0

>  <SCORE.RESTR.norm>
0

>  <SCORE.SYSTEM>
0

>  <SCORE.SYSTEM.CONST>
0

>  <SCORE.SYSTEM.DIHEDRAL>
0

>  <SCORE.SYSTEM.SOLV>
0

>  <SCORE.SYSTEM.norm>
0

>  <SCORE.heavy>
10

>  <SCORE.norm>
-1.49519

>  <RMSD>
0.720

$$$$
ligand
 OpenBabel11021811513D
libRbt.so/2013.1/901 2013/11/27
 10 11  0  0  0  0  0  0  0  0999 V2000
  -30.1399   17.0966  -14.9415 N   0  0  0  0  0  0  0  0  0  0  0  0
  -30.9050   18.1917  -14.8528 C   0  0  0  0  0  0  0  0  0  0  0  0
  -31.2440   19.0559  -15.8079 N   0  0  0  0  0  0  0  0  0  0  0  0
  -30.7009   18.7044  -16.9838 C   0  0  0  0  0  0  0  0  0  0  0  0
  -29.8938   17.6111  -17.2309 C   0  0  0  0  0  0  0  0  0  0  0  0
  -29.6084   16.7698  -16.1371 C   0  0  0  0  0  0  0  0  0  0  0  0
  -28.8432   15.6766  -16.2290 N   0  0  0  0  0  0  0  0  0  0  0  0
  -29.5199   17.5675  -18.5634 N   0  0  0  0  0  0  0  0  0  0  0  0
  -30.0997   18.6226  -19.0868 C   0  0  0  0  0  0  0  0  0  0  0  0
  -30.8281   19.3541  -18.1907 N   0  0  0  0  0  0  0  0  0  0  0  0
  1  2  2  0  0  0  0
  1  6  1  0  0  0  0
  2  3  1  0  0  0  0
  3  4  2  0  0  0  0
  4  5  1  0  0  0  0
  4 10  1  0  0  0  0
  5  6  2  0  0  0  0
  5  8  1  0  0  0  0
  6  7  1  0  0  0  0
  8  9  1  0  0  0  0
  9 10  2  0  0  0  0
M  END
>  <CHROM.1>
-30.17343454,17.85620982,-16.79810313,1.35186873,-0.94281143,1.93607436

>  <Name>
ligand

>  <RI>
0

>  <Rbt.Current_Directory>
/home/itssahil/PROJECTS/Mol_Feturizer/New_Systems/rnas/4TZY

>  <Rbt.Executable>
rbdock ($Id: //depot/dev/client3/rdock/2013.1/src/exe/rbdock.cxx#4 $)

>  <Rbt.Library>
libRbt.so (2013.1, Build901 2013/11/27)

>  <Rbt.Parameter_File>
/export/apps/rDock/src/rDock_2013.1_src/data/scripts/dock_solv.prm

>  <Rbt.Receptor>
prm/pocket_docking_3.prm

>  <SCORE>
-14.9754

>  <SCORE.INTER>
-14.9754

>  <SCORE.INTER.CONST>
1

>  <SCORE.INTER.POLAR>
0

>  <SCORE.INTER.ROT>
0

>  <SCORE.INTER.SOLV>
8.6688

>  <SCORE.INTER.VDW>
-16.4732

>  <SCORE.INTER.norm>
-1.49754

>  <SCORE.INTRA>
0

>  <SCORE.INTRA.DIHEDRAL>
0

>  <SCORE.INTRA.DIHEDRAL.0>
0

>  <SCORE.INTRA.POLAR>
0

>  <SCORE.INTRA.POLAR.0>
0

>  <SCORE.INTRA.REPUL>
0

>  <SCORE.INTRA.REPUL.0>
0

>  <SCORE.INTRA.SOLV>
0

>  <SCORE.INTRA.SOLV.lig_0>
-23.8941

>  <SCORE.INTRA.VDW>
0

>  <SCORE.INTRA.VDW.0>
0

>  <SCORE.INTRA.norm>
0

>  <SCORE.RESTR>
0

>  <SCORE.RESTR.CAVITY>
0

>  <SCORE.RESTR.norm>
0

>  <SCORE.SYSTEM>
0

>  <SCORE.SYSTEM.CONST>
0

>  <SCORE.SYSTEM.DIHEDRAL>
0

>  <SCORE.SYSTEM.SOLV>
0

>  <SCORE.SYSTEM.norm>
0

>  <SCORE.heavy>
10

>  <SCORE.norm>
-1.49754

>  <RMSD>
0.721

$$$$
ligand
 OpenBabel11021811513D
libRbt.so/2013.1/901 2013/11/27
 10 11  0  0  0  0  0  0  0  0999 V2000
  -30.2387   17.0996  -14.9336 N   0  0  0  0  0  0  0  0  0  0  0  0
  -30.9630   18.2234  -14.8626 C   0  0  0  0  0  0  0  0  0  0  0  0
  -31.2568   19.0925  -15.8281 N   0  0  0  0  0  0  0  0  0  0  0  0
  -30.7124   18.7119  -16.9943 C   0  0  0  0  0  0  0  0  0  0  0  0
  -29.9441   17.5871  -17.2232 C   0  0  0  0  0  0  0  0  0  0  0  0
  -29.7047   16.7439  -16.1198 C   0  0  0  0  0  0  0  0  0  0  0  0
  -28.9802   15.6220  -16.1939 N   0  0  0  0  0  0  0  0  0  0  0  0
  -29.5551   17.5194  -18.5503 N   0  0  0  0  0  0  0  0  0  0  0  0
  -30.0879   18.5915  -19.0887 C   0  0  0  0  0  0  0  0  0  0  0  0
  -30.7995   19.3568  -18.2073 N   0  0  0  0  0  0  0  0  0  0  0  0
  1  2  2  0  0  0  0
  1  6  1  0  0  0  0
  2  3  1  0  0  0  0
  3  4  2  0  0  0  0
  4  5  1  0  0  0  0
  4 10  1  0  0  0  0
  5  6  2  0  0  0  0
  5  8  1  0  0  0  0
  6  7  1  0  0  0  0
  8  9  1  0  0  0  0
  9 10  2  0  0  0  0
M  END
>  <CHROM.1>
-30.21977969,17.84585369,-16.79575601,1.39708882,-0.97307304,1.96574224

>  <Name>
ligand

>  <RI>
0

>  <Rbt.Current_Directory>
/home/itssahil/PROJECTS/Mol_Feturizer/New_Systems/rnas/4TZY

>  <Rbt.Executable>
rbdock ($Id: //depot/dev/client3/rdock/2013.1/src/exe/rbdock.cxx#4 $)

>  <Rbt.Library>
libRbt.so (2013.1, Build901 2013/11/27)

>  <Rbt.Parameter_File>
/export/apps/rDock/src/rDock_2013.1_src/data/scripts/dock_solv.prm

>  <Rbt.Receptor>
prm/pocket_docking_3.prm

>  <SCORE>
-14.9687

>  <SCORE.INTER>
-14.9687

>  <SCORE.INTER.CONST>
1

>  <SCORE.INTER.POLAR>
0

>  <SCORE.INTER.ROT>
0

>  <SCORE.INTER.SOLV>
9.04125

>  <SCORE.INTER.VDW>
-16.5929

>  <SCORE.INTER.norm>
-1.49687

>  <SCORE.INTRA>
0

>  <SCORE.INTRA.DIHEDRAL>
0

>  <SCORE.INTRA.DIHEDRAL.0>
0

>  <SCORE.INTRA.POLAR>
0

>  <SCORE.INTRA.POLAR.0>
0

>  <SCORE.INTRA.REPUL>
0

>  <SCORE.INTRA.REPUL.0>
0

>  <SCORE.INTRA.SOLV>
0

>  <SCORE.INTRA.SOLV.lig_0>
-23.8941

>  <SCORE.INTRA.VDW>
0

>  <SCORE.INTRA.VDW.0>
0

>  <SCORE.INTRA.norm>
0

>  <SCORE.RESTR>
0

>  <SCORE.RESTR.CAVITY>
0

>  <SCORE.RESTR.norm>
0

>  <SCORE.SYSTEM>
0

>  <SCORE.SYSTEM.CONST>
0

>  <SCORE.SYSTEM.DIHEDRAL>
0

>  <SCORE.SYSTEM.SOLV>
0

>  <SCORE.SYSTEM.norm>
0

>  <SCORE.heavy>
10

>  <SCORE.norm>
-1.49687

>  <RMSD>
0.726

$$$$
ligand
 OpenBabel11021811513D
libRbt.so/2013.1/901 2013/11/27
 10 11  0  0  0  0  0  0  0  0999 V2000
  -30.2779   17.1011  -14.9267 N   0  0  0  0  0  0  0  0  0  0  0  0
  -30.9943   18.2307  -14.8700 C   0  0  0  0  0  0  0  0  0  0  0  0
  -31.2644   19.1004  -15.8419 N   0  0  0  0  0  0  0  0  0  0  0  0
  -30.7029   18.7135  -16.9979 C   0  0  0  0  0  0  0  0  0  0  0  0
  -29.9397   17.5824  -17.2116 C   0  0  0  0  0  0  0  0  0  0  0  0
  -29.7262   16.7392  -16.1029 C   0  0  0  0  0  0  0  0  0  0  0  0
  -29.0094   15.6115  -16.1626 N   0  0  0  0  0  0  0  0  0  0  0  0
  -29.5283   17.5093  -18.5317 N   0  0  0  0  0  0  0  0  0  0  0  0
  -30.0431   18.5847  -19.0809 C   0  0  0  0  0  0  0  0  0  0  0  0
  -30.7639   19.3571  -18.2132 N   0  0  0  0  0  0  0  0  0  0  0  0
  1  2  2  0  0  0  0
  1  6  1  0  0  0  0
  2  3  1  0  0  0  0
  3  4  2  0  0  0  0
  4  5  1  0  0  0  0
  4 10  1  0  0  0  0
  5  6  2  0  0  0  0
  5  8  1  0  0  0  0
  6  7  1  0  0  0  0
  8  9  1  0  0  0  0
  9 10  2  0  0  0  0
M  END
>  <CHROM.1>
-30.22070519,17.84401503,-16.78944297,1.43098983,-0.97345425,1.99214155

>  <Name>
ligand

>  <RI>
0

>  <Rbt.Current_Directory>
/home/itssahil/PROJECTS/Mol_Feturizer/New_Systems/rnas/4TZY

>  <Rbt.Executable>
rbdock ($Id: //depot/dev/client3/rdock/2013.1/src/exe/rbdock.cxx#4 $)

>  <Rbt.Library>
libRbt.so (2013.1, Build901 2013/11/27)

>  <Rbt.Parameter_File>
/export/apps/rDock/src/rDock_2013.1_src/data/scripts/dock_solv.prm

>  <Rbt.Receptor>
prm/pocket_docking_3.prm

>  <SCORE>
-14.9791

>  <SCORE.INTER>
-14.9791

>  <SCORE.INTER.CONST>
1

>  <SCORE.INTER.POLAR>
0

>  <SCORE.INTER.ROT>
0

>  <SCORE.INTER.SOLV>
9.08299

>  <SCORE.INTER.VDW>
-16.6137

>  <SCORE.INTER.norm>
-1.49791

>  <SCORE.INTRA>
0

>  <SCORE.INTRA.DIHEDRAL>
0

>  <SCORE.INTRA.DIHEDRAL.0>
0

>  <SCORE.INTRA.POLAR>
0

>  <SCORE.INTRA.POLAR.0>
0

>  <SCORE.INTRA.REPUL>
0

>  <SCORE.INTRA.REPUL.0>
0

>  <SCORE.INTRA.SOLV>
0

>  <SCORE.INTRA.SOLV.lig_0>
-23.8941

>  <SCORE.INTRA.VDW>
0

>  <SCORE.INTRA.VDW.0>
0

>  <SCORE.INTRA.norm>
0

>  <SCORE.RESTR>
0

>  <SCORE.RESTR.CAVITY>
0

>  <SCORE.RESTR.norm>
0

>  <SCORE.SYSTEM>
0

>  <SCORE.SYSTEM.CONST>
0

>  <SCORE.SYSTEM.DIHEDRAL>
0

>  <SCORE.SYSTEM.SOLV>
0

>  <SCORE.SYSTEM.norm>
0

>  <SCORE.heavy>
10

>  <SCORE.norm>
-1.49791

>  <RMSD>
0.727

$$$$
ligand
 OpenBabel11021811513D
libRbt.so/2013.1/901 2013/11/27
 10 11  0  0  0  0  0  0  0  0999 V2000
  -30.1408   16.9390  -15.0388 N   0  0  0  0  0  0  0  0  0  0  0  0
  -30.9346   18.0060  -14.8849 C   0  0  0  0  0  0  0  0  0  0  0  0
  -31.3038   18.9122  -15.7886 N   0  0  0  0  0  0  0  0  0  0  0  0
  -30.7599   18.6414  -16.9853 C   0  0  0  0  0  0  0  0  0  0  0  0
  -29.9253   17.5862  -17.2975 C   0  0  0  0  0  0  0  0  0  0  0  0
  -29.6093   16.6937  -16.2538 C   0  0  0  0  0  0  0  0  0  0  0  0
  -28.8154   15.6287  -16.4106 N   0  0  0  0  0  0  0  0  0  0  0  0
  -29.5600   17.6268  -18.6324 N   0  0  0  0  0  0  0  0  0  0  0  0
  -30.1720   18.6928  -19.0930 C   0  0  0  0  0  0  0  0  0  0  0  0
  -30.9135   19.3533  -18.1534 N   0  0  0  0  0  0  0  0  0  0  0  0
  1  2  2  0  0  0  0
  1  6  1  0  0  0  0
  2  3  1  0  0  0  0
  3  4  2  0  0  0  0
  4  5  1  0  0  0  0
  4 10  1  0  0  0  0
  5  6  2  0  0  0  0
  5  8  1  0  0  0  0
  6  7  1  0  0  0  0
  8  9  1  0  0  0  0
  9 10  2  0  0  0  0
M  END
>  <CHROM.1>
-30.20835022,17.79910549,-16.85007196,1.32471417,-0.91989188,1.96982619

>  <Name>
ligand

>  <RI>
0

>  <Rbt.Current_Directory>
/home/itssahil/PROJECTS/Mol_Feturizer/New_Systems/rnas/4TZY

>  <Rbt.Executable>
rbdock ($Id: //depot/dev/client3/rdock/2013.1/src/exe/rbdock.cxx#4 $)

>  <Rbt.Library>
libRbt.so (2013.1, Build901 2013/11/27)

>  <Rbt.Parameter_File>
/export/apps/rDock/src/rDock_2013.1_src/data/scripts/dock_solv.prm

>  <Rbt.Receptor>
prm/pocket_docking_3.prm

>  <SCORE>
-14.9724

>  <SCORE.INTER>
-14.9724

>  <SCORE.INTER.CONST>
1

>  <SCORE.INTER.POLAR>
0

>  <SCORE.INTER.ROT>
0

>  <SCORE.INTER.SOLV>
8.97677

>  <SCORE.INTER.VDW>
-16.5739

>  <SCORE.INTER.norm>
-1.49724

>  <SCORE.INTRA>
0

>  <SCORE.INTRA.DIHEDRAL>
0

>  <SCORE.INTRA.DIHEDRAL.0>
0

>  <SCORE.INTRA.POLAR>
0

>  <SCORE.INTRA.POLAR.0>
0

>  <SCORE.INTRA.REPUL>
0

>  <SCORE.INTRA.REPUL.0>
0

>  <SCORE.INTRA.SOLV>
0

>  <SCORE.INTRA.SOLV.lig_0>
-23.8941

>  <SCORE.INTRA.VDW>
0

>  <SCORE.INTRA.VDW.0>
0

>  <SCORE.INTRA.norm>
0

>  <SCORE.RESTR>
0

>  <SCORE.RESTR.CAVITY>
0

>  <SCORE.RESTR.norm>
0

>  <SCORE.SYSTEM>
0

>  <SCORE.SYSTEM.CONST>
0

>  <SCORE.SYSTEM.DIHEDRAL>
0

>  <SCORE.SYSTEM.SOLV>
0

>  <SCORE.SYSTEM.norm>
0

>  <SCORE.heavy>
10

>  <SCORE.norm>
-1.49724

>  <RMSD>
0.732

$$$$
ligand
 OpenBabel11021811513D
libRbt.so/2013.1/901 2013/11/27
 10 11  0  0  0  0  0  0  0  0999 V2000
  -30.2629   17.1124  -14.9330 N   0  0  0  0  0  0  0  0  0  0  0  0
  -30.9873   18.2367  -14.8750 C   0  0  0  0  0  0  0  0  0  0  0  0
  -31.2683   19.1028  -15.8471 N   0  0  0  0  0  0  0  0  0  0  0  0
  -30.7091   18.7181  -17.0050 C   0  0  0  0  0  0  0  0  0  0  0  0
  -29.9386   17.5922  -17.2202 C   0  0  0  0  0  0  0  0  0  0  0  0
  -29.7139   16.7526  -16.1111 C   0  0  0  0  0  0  0  0  0  0  0  0
  -28.9891   15.6300  -16.1721 N   0  0  0  0  0  0  0  0  0  0  0  0
  -29.5326   17.5199  -18.5420 N   0  0  0  0  0  0  0  0  0  0  0  0
  -30.0578   18.5905  -19.0907 C   0  0  0  0  0  0  0  0  0  0  0  0
  -30.7804   19.3590  -18.2211 N   0  0  0  0  0  0  0  0  0  0  0  0
  1  2  2  0  0  0  0
  1  6  1  0  0  0  0
  2  3  1  0  0  0  0
  3  4  2  0  0  0  0
  4  5  1  0  0  0  0
  4 10  1  0  0  0  0
  5  6  2  0  0  0  0
  5  8  1  0  0  0  0
  6  7  1  0  0  0  0
  8  9  1  0  0  0  0
  9 10  2  0  0  0  0
M  END
>  <CHROM.1>
-30.21959731,17.85247202,-16.79724652,1.41837942,-0.96852378,1.98000741

>  <Name>
ligand

>  <RI>
0

>  <Rbt.Current_Directory>
/home/itssahil/PROJECTS/Mol_Feturizer/New_Systems/rnas/4TZY

>  <Rbt.Executable>
rbdock ($Id: //depot/dev/client3/rdock/2013.1/src/exe/rbdock.cxx#4 $)

>  <Rbt.Library>
libRbt.so (2013.1, Build901 2013/11/27)

>  <Rbt.Parameter_File>
/export/apps/rDock/src/rDock_2013.1_src/data/scripts/dock_solv.prm

>  <Rbt.Receptor>
prm/pocket_docking_3.prm

>  <SCORE>
-14.996

>  <SCORE.INTER>
-14.996

>  <SCORE.INTER.CONST>
1

>  <SCORE.INTER.POLAR>
0

>  <SCORE.INTER.ROT>
0

>  <SCORE.INTER.SOLV>
9.01307

>  <SCORE.INTER.VDW>
-16.6017

>  <SCORE.INTER.norm>
-1.4996

>  <SCORE.INTRA>
0

>  <SCORE.INTRA.DIHEDRAL>
0

>  <SCORE.INTRA.DIHEDRAL.0>
0

>  <SCORE.INTRA.POLAR>
0

>  <SCORE.INTRA.POLAR.0>
0

>  <SCORE.INTRA.REPUL>
0

>  <SCORE.INTRA.REPUL.0>
0

>  <SCORE.INTRA.SOLV>
0

>  <SCORE.INTRA.SOLV.lig_0>
-23.8941

>  <SCORE.INTRA.VDW>
0

>  <SCORE.INTRA.VDW.0>
0

>  <SCORE.INTRA.norm>
0

>  <SCORE.RESTR>
0

>  <SCORE.RESTR.CAVITY>
0

>  <SCORE.RESTR.norm>
0

>  <SCORE.SYSTEM>
0

>  <SCORE.SYSTEM.CONST>
0

>  <SCORE.SYSTEM.DIHEDRAL>
0

>  <SCORE.SYSTEM.SOLV>
0

>  <SCORE.SYSTEM.norm>
0

>  <SCORE.heavy>
10

>  <SCORE.norm>
-1.4996

>  <RMSD>
0.734

$$$$
ligand
 OpenBabel11021811513D
libRbt.so/2013.1/901 2013/11/27
 10 11  0  0  0  0  0  0  0  0999 V2000
  -30.1419   16.9425  -15.0406 N   0  0  0  0  0  0  0  0  0  0  0  0
  -30.9367   18.0093  -14.8904 C   0  0  0  0  0  0  0  0  0  0  0  0
  -31.3050   18.9134  -15.7965 N   0  0  0  0  0  0  0  0  0  0  0  0
  -30.7587   18.6406  -16.9917 C   0  0  0  0  0  0  0  0  0  0  0  0
  -29.9229   17.5852  -17.3002 C   0  0  0  0  0  0  0  0  0  0  0  0
  -29.6081   16.6951  -16.2541 C   0  0  0  0  0  0  0  0  0  0  0  0
  -28.8132   15.6304  -16.4073 N   0  0  0  0  0  0  0  0  0  0  0  0
  -29.5552   17.6233  -18.6346 N   0  0  0  0  0  0  0  0  0  0  0  0
  -30.1671   18.6880  -19.0985 C   0  0  0  0  0  0  0  0  0  0  0  0
  -30.9107   19.3499  -18.1616 N   0  0  0  0  0  0  0  0  0  0  0  0
  1  2  2  0  0  0  0
  1  6  1  0  0  0  0
  2  3  1  0  0  0  0
  3  4  2  0  0  0  0
  4  5  1  0  0  0  0
  4 10  1  0  0  0  0
  5  6  2  0  0  0  0
  5  8  1  0  0  0  0
  6  7  1  0  0  0  0
  8  9  1  0  0  0  0
  9 10  2  0  0  0  0
M  END
>  <CHROM.1>
-30.20682663,17.79888380,-16.85376051,1.32697677,-0.91855627,1.96955893

>  <Name>
ligand

>  <RI>
0

>  <Rbt.Current_Directory>
/home/itssahil/PROJECTS/Mol_Feturizer/New_Systems/rnas/4TZY

>  <Rbt.Executable>
rbdock ($Id: //depot/dev/client3/rdock/2013.1/src/exe/rbdock.cxx#4 $)

>  <Rbt.Library>
libRbt.so (2013.1, Build901 2013/11/27)

>  <Rbt.Parameter_File>
/export/apps/rDock/src/rDock_2013.1_src/data/scripts/dock_solv.prm

>  <Rbt.Receptor>
prm/pocket_docking_3.prm

>  <SCORE>
-14.9736

>  <SCORE.INTER>
-14.9736

>  <SCORE.INTER.CONST>
1

>  <SCORE.INTER.POLAR>
0

>  <SCORE.INTER.ROT>
0

>  <SCORE.INTER.SOLV>
8.96644

>  <SCORE.INTER.VDW>
-16.5712

>  <SCORE.INTER.norm>
-1.49736

>  <SCORE.INTRA>
0

>  <SCORE.INTRA.DIHEDRAL>
0

>  <SCORE.INTRA.DIHEDRAL.0>
0

>  <SCORE.INTRA.POLAR>
0

>  <SCORE.INTRA.POLAR.0>
0

>  <SCORE.INTRA.REPUL>
0

>  <SCORE.INTRA.REPUL.0>
0

>  <SCORE.INTRA.SOLV>
0

>  <SCORE.INTRA.SOLV.lig_0>
-23.8941

>  <SCORE.INTRA.VDW>
0

>  <SCORE.INTRA.VDW.0>
0

>  <SCORE.INTRA.norm>
0

>  <SCORE.RESTR>
0

>  <SCORE.RESTR.CAVITY>
0

>  <SCORE.RESTR.norm>
0

>  <SCORE.SYSTEM>
0

>  <SCORE.SYSTEM.CONST>
0

>  <SCORE.SYSTEM.DIHEDRAL>
0

>  <SCORE.SYSTEM.SOLV>
0

>  <SCORE.SYSTEM.norm>
0

>  <SCORE.heavy>
10

>  <SCORE.norm>
-1.49736

>  <RMSD>
0.735

$$$$
ligand
 OpenBabel11021811513D
libRbt.so/2013.1/901 2013/11/27
 10 11  0  0  0  0  0  0  0  0999 V2000
  -30.2334   17.0560  -14.9782 N   0  0  0  0  0  0  0  0  0  0  0  0
  -30.9862   18.1585  -14.8772 C   0  0  0  0  0  0  0  0  0  0  0  0
  -31.3007   19.0466  -15.8186 N   0  0  0  0  0  0  0  0  0  0  0  0
  -30.7450   18.7131  -16.9939 C   0  0  0  0  0  0  0  0  0  0  0  0
  -29.9479   17.6152  -17.2525 C   0  0  0  0  0  0  0  0  0  0  0  0
  -29.6886   16.7477  -16.1728 C   0  0  0  0  0  0  0  0  0  0  0  0
  -28.9356   15.6472  -16.2767 N   0  0  0  0  0  0  0  0  0  0  0  0
  -29.5553   17.5948  -18.5802 N   0  0  0  0  0  0  0  0  0  0  0  0
  -30.1145   18.6678  -19.0894 C   0  0  0  0  0  0  0  0  0  0  0  0
  -30.8468   19.3895  -18.1884 N   0  0  0  0  0  0  0  0  0  0  0  0
  1  2  2  0  0  0  0
  1  6  1  0  0  0  0
  2  3  1  0  0  0  0
  3  4  2  0  0  0  0
  4  5  1  0  0  0  0
  4 10  1  0  0  0  0
  5  6  2  0  0  0  0
  5  8  1  0  0  0  0
  6  7  1  0  0  0  0
  8  9  1  0  0  0  0
  9 10  2  0  0  0  0
M  END
>  <CHROM.1>
-30.23071077,17.85466858,-16.81861625,1.38255729,-0.94882919,1.98197579

>  <Name>
ligand

>  <RI>
0

>  <Rbt.Current_Directory>
/home/itssahil/PROJECTS/Mol_Feturizer/New_Systems/rnas/4TZY

>  <Rbt.Executable>
rbdock ($Id: //depot/dev/client3/rdock/2013.1/src/exe/rbdock.cxx#4 $)

>  <Rbt.Library>
libRbt.so (2013.1, Build901 2013/11/27)

>  <Rbt.Parameter_File>
/export/apps/rDock/src/rDock_2013.1_src/data/scripts/dock_solv.prm

>  <Rbt.Receptor>
prm/pocket_docking_3.prm

>  <SCORE>
-14.9425

>  <SCORE.INTER>
-14.9425

>  <SCORE.INTER.CONST>
1

>  <SCORE.INTER.POLAR>
0

>  <SCORE.INTER.ROT>
0

>  <SCORE.INTER.SOLV>
9.00848

>  <SCORE.INTER.VDW>
-16.5645

>  <SCORE.INTER.norm>
-1.49425

>  <SCORE.INTRA>
0

>  <SCORE.INTRA.DIHEDRAL>
0

>  <SCORE.INTRA.DIHEDRAL.0>
0

>  <SCORE.INTRA.POLAR>
0

>  <SCORE.INTRA.POLAR.0>
0

>  <SCORE.INTRA.REPUL>
0

>  <SCORE.INTRA.REPUL.0>
0

>  <SCORE.INTRA.SOLV>
0

>  <SCORE.INTRA.SOLV.lig_0>
-23.8941

>  <SCORE.INTRA.VDW>
0

>  <SCORE.INTRA.VDW.0>
0

>  <SCORE.INTRA.norm>
0

>  <SCORE.RESTR>
0

>  <SCORE.RESTR.CAVITY>
0

>  <SCORE.RESTR.norm>
0

>  <SCORE.SYSTEM>
0

>  <SCORE.SYSTEM.CONST>
0

>  <SCORE.SYSTEM.DIHEDRAL>
0

>  <SCORE.SYSTEM.SOLV>
0

>  <SCORE.SYSTEM.norm>
0

>  <SCORE.heavy>
10

>  <SCORE.norm>
-1.49425

>  <RMSD>
0.738

$$$$
ligand
 OpenBabel11021811513D
libRbt.so/2013.1/901 2013/11/27
 10 11  0  0  0  0  0  0  0  0999 V2000
  -30.1017   17.0968  -14.9648 N   0  0  0  0  0  0  0  0  0  0  0  0
  -30.8628   18.1914  -14.8428 C   0  0  0  0  0  0  0  0  0  0  0  0
  -31.2274   19.0663  -15.7786 N   0  0  0  0  0  0  0  0  0  0  0  0
  -30.7177   18.7272  -16.9730 C   0  0  0  0  0  0  0  0  0  0  0  0
  -29.9191   17.6361  -17.2545 C   0  0  0  0  0  0  0  0  0  0  0  0
  -29.6041   16.7827  -16.1783 C   0  0  0  0  0  0  0  0  0  0  0  0
  -28.8429   15.6900  -16.3034 N   0  0  0  0  0  0  0  0  0  0  0  0
  -29.5825   17.6068  -18.5973 N   0  0  0  0  0  0  0  0  0  0  0  0
  -30.1756   18.6679  -19.0928 C   0  0  0  0  0  0  0  0  0  0  0  0
  -30.8779   19.3902  -18.1687 N   0  0  0  0  0  0  0  0  0  0  0  0
  1  2  2  0  0  0  0
  1  6  1  0  0  0  0
  2  3  1  0  0  0  0
  3  4  2  0  0  0  0
  4  5  1  0  0  0  0
  4 10  1  0  0  0  0
  5  6  2  0  0  0  0
  5  8  1  0  0  0  0
  6  7  1  0  0  0  0
  8  9  1  0  0  0  0
  9 10  2  0  0  0  0
M  END
>  <CHROM.1>
-30.18622115,17.87666673,-16.81138191,1.30745072,-0.95331921,1.91089302

>  <Name>
ligand

>  <RI>
0

>  <Rbt.Current_Directory>
/home/itssahil/PROJECTS/Mol_Feturizer/New_Systems/rnas/4TZY

>  <Rbt.Executable>
rbdock ($Id: //depot/dev/client3/rdock/2013.1/src/exe/rbdock.cxx#4 $)

>  <Rbt.Library>
libRbt.so (2013.1, Build901 2013/11/27)

>  <Rbt.Parameter_File>
/export/apps/rDock/src/rDock_2013.1_src/data/scripts/dock_solv.prm

>  <Rbt.Receptor>
prm/pocket_docking_3.prm

>  <SCORE>
-14.9879

>  <SCORE.INTER>
-14.9879

>  <SCORE.INTER.CONST>
1

>  <SCORE.INTER.POLAR>
0

>  <SCORE.INTER.ROT>
0

>  <SCORE.INTER.SOLV>
8.77583

>  <SCORE.INTER.VDW>
-16.5172

>  <SCORE.INTER.norm>
-1.49879

>  <SCORE.INTRA>
0

>  <SCORE.INTRA.DIHEDRAL>
0

>  <SCORE.INTRA.DIHEDRAL.0>
0

>  <SCORE.INTRA.POLAR>
0

>  <SCORE.INTRA.POLAR.0>
0

>  <SCORE.INTRA.REPUL>
0

>  <SCORE.INTRA.REPUL.0>
0

>  <SCORE.INTRA.SOLV>
0

>  <SCORE.INTRA.SOLV.lig_0>
-23.8941

>  <SCORE.INTRA.VDW>
0

>  <SCORE.INTRA.VDW.0>
0

>  <SCORE.INTRA.norm>
0

>  <SCORE.RESTR>
0

>  <SCORE.RESTR.CAVITY>
0

>  <SCORE.RESTR.norm>
0

>  <SCORE.SYSTEM>
0

>  <SCORE.SYSTEM.CONST>
0

>  <SCORE.SYSTEM.DIHEDRAL>
0

>  <SCORE.SYSTEM.SOLV>
0

>  <SCORE.SYSTEM.norm>
0

>  <SCORE.heavy>
10

>  <SCORE.norm>
-1.49879

>  <RMSD>
0.740

$$$$
ligand
 OpenBabel11021811513D
libRbt.so/2013.1/901 2013/11/27
 10 11  0  0  0  0  0  0  0  0999 V2000
  -30.1776   17.1162  -14.9523 N   0  0  0  0  0  0  0  0  0  0  0  0
  -30.9288   18.2210  -14.8659 C   0  0  0  0  0  0  0  0  0  0  0  0
  -31.2537   19.0894  -15.8221 N   0  0  0  0  0  0  0  0  0  0  0  0
  -30.7115   18.7309  -16.9963 C   0  0  0  0  0  0  0  0  0  0  0  0
  -29.9177   17.6274  -17.2409 C   0  0  0  0  0  0  0  0  0  0  0  0
  -29.6466   16.7825  -16.1462 C   0  0  0  0  0  0  0  0  0  0  0  0
  -28.8951   15.6796  -16.2356 N   0  0  0  0  0  0  0  0  0  0  0  0
  -29.5402   17.5789  -18.5722 N   0  0  0  0  0  0  0  0  0  0  0  0
  -30.1048   18.6413  -19.0974 C   0  0  0  0  0  0  0  0  0  0  0  0
  -30.8266   19.3822  -18.2036 N   0  0  0  0  0  0  0  0  0  0  0  0
  1  2  2  0  0  0  0
  1  6  1  0  0  0  0
  2  3  1  0  0  0  0
  3  4  2  0  0  0  0
  4  5  1  0  0  0  0
  4 10  1  0  0  0  0
  5  6  2  0  0  0  0
  5  8  1  0  0  0  0
  6  7  1  0  0  0  0
  8  9  1  0  0  0  0
  9 10  2  0  0  0  0
M  END
>  <CHROM.1>
-30.19553119,17.87605658,-16.80895790,1.36482356,-0.95362087,1.94656000

>  <Name>
ligand

>  <RI>
0

>  <Rbt.Current_Directory>
/home/itssahil/PROJECTS/Mol_Feturizer/New_Systems/rnas/4TZY

>  <Rbt.Executable>
rbdock ($Id: //depot/dev/client3/rdock/2013.1/src/exe/rbdock.cxx#4 $)

>  <Rbt.Library>
libRbt.so (2013.1, Build901 2013/11/27)

>  <Rbt.Parameter_File>
/export/apps/rDock/src/rDock_2013.1_src/data/scripts/dock_solv.prm

>  <Rbt.Receptor>
prm/pocket_docking_3.prm

>  <SCORE>
-14.9648

>  <SCORE.INTER>
-14.9648

>  <SCORE.INTER.CONST>
1

>  <SCORE.INTER.POLAR>
0

>  <SCORE.INTER.ROT>
0

>  <SCORE.INTER.SOLV>
8.79213

>  <SCORE.INTER.VDW>
-16.5073

>  <SCORE.INTER.norm>
-1.49648

>  <SCORE.INTRA>
0

>  <SCORE.INTRA.DIHEDRAL>
0

>  <SCORE.INTRA.DIHEDRAL.0>
0

>  <SCORE.INTRA.POLAR>
0

>  <SCORE.INTRA.POLAR.0>
0

>  <SCORE.INTRA.REPUL>
0

>  <SCORE.INTRA.REPUL.0>
0

>  <SCORE.INTRA.SOLV>
0

>  <SCORE.INTRA.SOLV.lig_0>
-23.8941

>  <SCORE.INTRA.VDW>
0

>  <SCORE.INTRA.VDW.0>
0

>  <SCORE.INTRA.norm>
0

>  <SCORE.RESTR>
0

>  <SCORE.RESTR.CAVITY>
0

>  <SCORE.RESTR.norm>
0

>  <SCORE.SYSTEM>
0

>  <SCORE.SYSTEM.CONST>
0

>  <SCORE.SYSTEM.DIHEDRAL>
0

>  <SCORE.SYSTEM.SOLV>
0

>  <SCORE.SYSTEM.norm>
0

>  <SCORE.heavy>
10

>  <SCORE.norm>
-1.49648

>  <RMSD>
0.742

$$$$
ligand
 OpenBabel11021811513D
libRbt.so/2013.1/901 2013/11/27
 10 11  0  0  0  0  0  0  0  0999 V2000
  -30.2682   17.1160  -14.9411 N   0  0  0  0  0  0  0  0  0  0  0  0
  -30.9926   18.2404  -14.8833 C   0  0  0  0  0  0  0  0  0  0  0  0
  -31.2726   19.1069  -15.8552 N   0  0  0  0  0  0  0  0  0  0  0  0
  -30.7123   18.7227  -17.0127 C   0  0  0  0  0  0  0  0  0  0  0  0
  -29.9417   17.5969  -17.2278 C   0  0  0  0  0  0  0  0  0  0  0  0
  -29.7181   16.7567  -16.1189 C   0  0  0  0  0  0  0  0  0  0  0  0
  -28.9933   15.6342  -16.1798 N   0  0  0  0  0  0  0  0  0  0  0  0
  -29.5344   17.5252  -18.5492 N   0  0  0  0  0  0  0  0  0  0  0  0
  -30.0590   18.5962  -19.0979 C   0  0  0  0  0  0  0  0  0  0  0  0
  -30.7823   19.3643  -18.2286 N   0  0  0  0  0  0  0  0  0  0  0  0
  1  2  2  0  0  0  0
  1  6  1  0  0  0  0
  2  3  1  0  0  0  0
  3  4  2  0  0  0  0
  4  5  1  0  0  0  0
  4 10  1  0  0  0  0
  5  6  2  0  0  0  0
  5  8  1  0  0  0  0
  6  7  1  0  0  0  0
  8  9  1  0  0  0  0
  9 10  2  0  0  0  0
M  END
>  <CHROM.1>
-30.22305510,17.85700805,-16.80495003,1.42002384,-0.96821301,1.98187070

>  <Name>
ligand

>  <RI>
0

>  <Rbt.Current_Directory>
/home/itssahil/PROJECTS/Mol_Feturizer/New_Systems/rnas/4TZY

>  <Rbt.Executable>
rbdock ($Id: //depot/dev/client3/rdock/2013.1/src/exe/rbdock.cxx#4 $)

>  <Rbt.Library>
libRbt.so (2013.1, Build901 2013/11/27)

>  <Rbt.Parameter_File>
/export/apps/rDock/src/rDock_2013.1_src/data/scripts/dock_solv.prm

>  <Rbt.Receptor>
prm/pocket_docking_3.prm

>  <SCORE>
-14.9977

>  <SCORE.INTER>
-14.9977

>  <SCORE.INTER.CONST>
1

>  <SCORE.INTER.POLAR>
0

>  <SCORE.INTER.ROT>
0

>  <SCORE.INTER.SOLV>
9.02755

>  <SCORE.INTER.VDW>
-16.6076

>  <SCORE.INTER.norm>
-1.49977

>  <SCORE.INTRA>
0

>  <SCORE.INTRA.DIHEDRAL>
0

>  <SCORE.INTRA.DIHEDRAL.0>
0

>  <SCORE.INTRA.POLAR>
0

>  <SCORE.INTRA.POLAR.0>
0

>  <SCORE.INTRA.REPUL>
0

>  <SCORE.INTRA.REPUL.0>
0

>  <SCORE.INTRA.SOLV>
0

>  <SCORE.INTRA.SOLV.lig_0>
-23.8941

>  <SCORE.INTRA.VDW>
0

>  <SCORE.INTRA.VDW.0>
0

>  <SCORE.INTRA.norm>
0

>  <SCORE.RESTR>
0

>  <SCORE.RESTR.CAVITY>
0

>  <SCORE.RESTR.norm>
0

>  <SCORE.SYSTEM>
0

>  <SCORE.SYSTEM.CONST>
0

>  <SCORE.SYSTEM.DIHEDRAL>
0

>  <SCORE.SYSTEM.SOLV>
0

>  <SCORE.SYSTEM.norm>
0

>  <SCORE.heavy>
10

>  <SCORE.norm>
-1.49977

>  <RMSD>
0.742

$$$$
ligand
 OpenBabel11021811513D
libRbt.so/2013.1/901 2013/11/27
 10 11  0  0  0  0  0  0  0  0999 V2000
  -30.2095   17.0724  -14.9706 N   0  0  0  0  0  0  0  0  0  0  0  0
  -30.9368   18.1916  -14.8662 C   0  0  0  0  0  0  0  0  0  0  0  0
  -31.2437   19.0817  -15.8083 N   0  0  0  0  0  0  0  0  0  0  0  0
  -30.7101   18.7301  -16.9885 C   0  0  0  0  0  0  0  0  0  0  0  0
  -29.9404   17.6137  -17.2512 C   0  0  0  0  0  0  0  0  0  0  0  0
  -29.6867   16.7462  -16.1702 C   0  0  0  0  0  0  0  0  0  0  0  0
  -28.9591   15.6290  -16.2776 N   0  0  0  0  0  0  0  0  0  0  0  0
  -29.5650   17.5781  -18.5835 N   0  0  0  0  0  0  0  0  0  0  0  0
  -30.1071   18.6604  -19.0915 C   0  0  0  0  0  0  0  0  0  0  0  0
  -30.8121   19.4025  -18.1854 N   0  0  0  0  0  0  0  0  0  0  0  0
  1  2  2  0  0  0  0
  1  6  1  0  0  0  0
  2  3  1  0  0  0  0
  3  4  2  0  0  0  0
  4  5  1  0  0  0  0
  4 10  1  0  0  0  0
  5  6  2  0  0  0  0
  5  8  1  0  0  0  0
  6  7  1  0  0  0  0
  8  9  1  0  0  0  0
  9 10  2  0  0  0  0
M  END
>  <CHROM.1>
-30.21252019,17.86151620,-16.81514243,1.37762489,-0.97382971,1.97273725

>  <Name>
ligand

>  <RI>
0

>  <Rbt.Current_Directory>
/home/itssahil/PROJECTS/Mol_Feturizer/New_Systems/rnas/4TZY

>  <Rbt.Executable>
rbdock ($Id: //depot/dev/client3/rdock/2013.1/src/exe/rbdock.cxx#4 $)

>  <Rbt.Library>
libRbt.so (2013.1, Build901 2013/11/27)

>  <Rbt.Parameter_File>
/export/apps/rDock/src/rDock_2013.1_src/data/scripts/dock_solv.prm

>  <Rbt.Receptor>
prm/pocket_docking_3.prm

>  <SCORE>
-14.952

>  <SCORE.INTER>
-14.952

>  <SCORE.INTER.CONST>
1

>  <SCORE.INTER.POLAR>
0

>  <SCORE.INTER.ROT>
0

>  <SCORE.INTER.SOLV>
9.1133

>  <SCORE.INTER.VDW>
-16.6057

>  <SCORE.INTER.norm>
-1.4952

>  <SCORE.INTRA>
0

>  <SCORE.INTRA.DIHEDRAL>
0

>  <SCORE.INTRA.DIHEDRAL.0>
0

>  <SCORE.INTRA.POLAR>
0

>  <SCORE.INTRA.POLAR.0>
0

>  <SCORE.INTRA.REPUL>
0

>  <SCORE.INTRA.REPUL.0>
0

>  <SCORE.INTRA.SOLV>
0

>  <SCORE.INTRA.SOLV.lig_0>
-23.8941

>  <SCORE.INTRA.VDW>
0

>  <SCORE.INTRA.VDW.0>
0

>  <SCORE.INTRA.norm>
0

>  <SCORE.RESTR>
0

>  <SCORE.RESTR.CAVITY>
0

>  <SCORE.RESTR.norm>
0

>  <SCORE.SYSTEM>
0

>  <SCORE.SYSTEM.CONST>
0

>  <SCORE.SYSTEM.DIHEDRAL>
0

>  <SCORE.SYSTEM.SOLV>
0

>  <SCORE.SYSTEM.norm>
0

>  <SCORE.heavy>
10

>  <SCORE.norm>
-1.4952

>  <RMSD>
0.744

$$$$
ligand
 OpenBabel11021811513D
libRbt.so/2013.1/901 2013/11/27
 10 11  0  0  0  0  0  0  0  0999 V2000
  -30.0883   17.0695  -14.9825 N   0  0  0  0  0  0  0  0  0  0  0  0
  -30.8431   18.1659  -14.8390 C   0  0  0  0  0  0  0  0  0  0  0  0
  -31.2100   19.0561  -15.7593 N   0  0  0  0  0  0  0  0  0  0  0  0
  -30.7106   18.7321  -16.9622 C   0  0  0  0  0  0  0  0  0  0  0  0
  -29.9194   17.6414  -17.2653 C   0  0  0  0  0  0  0  0  0  0  0  0
  -29.6010   16.7707  -16.2040 C   0  0  0  0  0  0  0  0  0  0  0  0
  -28.8461   15.6763  -16.3506 N   0  0  0  0  0  0  0  0  0  0  0  0
  -29.5926   17.6301  -18.6108 N   0  0  0  0  0  0  0  0  0  0  0  0
  -30.1839   18.7012  -19.0864 C   0  0  0  0  0  0  0  0  0  0  0  0
  -30.8760   19.4133  -18.1469 N   0  0  0  0  0  0  0  0  0  0  0  0
  1  2  2  0  0  0  0
  1  6  1  0  0  0  0
  2  3  1  0  0  0  0
  3  4  2  0  0  0  0
  4  5  1  0  0  0  0
  4 10  1  0  0  0  0
  5  6  2  0  0  0  0
  5  8  1  0  0  0  0
  6  7  1  0  0  0  0
  8  9  1  0  0  0  0
  9 10  2  0  0  0  0
M  END
>  <CHROM.1>
-30.18215866,17.87671205,-16.81681792,1.29860236,-0.96036973,1.91830621

>  <Name>
ligand

>  <RI>
0

>  <Rbt.Current_Directory>
/home/itssahil/PROJECTS/Mol_Feturizer/New_Systems/rnas/4TZY

>  <Rbt.Executable>
rbdock ($Id: //depot/dev/client3/rdock/2013.1/src/exe/rbdock.cxx#4 $)

>  <Rbt.Library>
libRbt.so (2013.1, Build901 2013/11/27)

>  <Rbt.Parameter_File>
/export/apps/rDock/src/rDock_2013.1_src/data/scripts/dock_solv.prm

>  <Rbt.Receptor>
prm/pocket_docking_3.prm

>  <SCORE>
-14.9997

>  <SCORE.INTER>
-14.9997

>  <SCORE.INTER.CONST>
1

>  <SCORE.INTER.POLAR>
0

>  <SCORE.INTER.ROT>
0

>  <SCORE.INTER.SOLV>
8.88637

>  <SCORE.INTER.VDW>
-16.5619

>  <SCORE.INTER.norm>
-1.49997

>  <SCORE.INTRA>
0

>  <SCORE.INTRA.DIHEDRAL>
0

>  <SCORE.INTRA.DIHEDRAL.0>
0

>  <SCORE.INTRA.POLAR>
0

>  <SCORE.INTRA.POLAR.0>
0

>  <SCORE.INTRA.REPUL>
0

>  <SCORE.INTRA.REPUL.0>
0

>  <SCORE.INTRA.SOLV>
0

>  <SCORE.INTRA.SOLV.lig_0>
-23.8941

>  <SCORE.INTRA.VDW>
0

>  <SCORE.INTRA.VDW.0>
0

>  <SCORE.INTRA.norm>
0

>  <SCORE.RESTR>
0

>  <SCORE.RESTR.CAVITY>
0

>  <SCORE.RESTR.norm>
0

>  <SCORE.SYSTEM>
0

>  <SCORE.SYSTEM.CONST>
0

>  <SCORE.SYSTEM.DIHEDRAL>
0

>  <SCORE.SYSTEM.SOLV>
0

>  <SCORE.SYSTEM.norm>
0

>  <SCORE.heavy>
10

>  <SCORE.norm>
-1.49997

>  <RMSD>
0.745

$$$$
ligand
 OpenBabel11021811513D
libRbt.so/2013.1/901 2013/11/27
 10 11  0  0  0  0  0  0  0  0999 V2000
  -30.2458   17.1061  -14.9593 N   0  0  0  0  0  0  0  0  0  0  0  0
  -30.9929   18.2137  -14.8727 C   0  0  0  0  0  0  0  0  0  0  0  0
  -31.3005   19.0928  -15.8248 N   0  0  0  0  0  0  0  0  0  0  0  0
  -30.7438   18.7429  -16.9949 C   0  0  0  0  0  0  0  0  0  0  0  0
  -29.9520   17.6379  -17.2392 C   0  0  0  0  0  0  0  0  0  0  0  0
  -29.6999   16.7813  -16.1490 C   0  0  0  0  0  0  0  0  0  0  0  0
  -28.9526   15.6757  -16.2387 N   0  0  0  0  0  0  0  0  0  0  0  0
  -29.5564   17.6003  -18.5656 N   0  0  0  0  0  0  0  0  0  0  0  0
  -30.1087   18.6704  -19.0882 C   0  0  0  0  0  0  0  0  0  0  0  0
  -30.8392   19.4062  -18.1973 N   0  0  0  0  0  0  0  0  0  0  0  0
  1  2  2  0  0  0  0
  1  6  1  0  0  0  0
  2  3  1  0  0  0  0
  3  4  2  0  0  0  0
  4  5  1  0  0  0  0
  4 10  1  0  0  0  0
  5  6  2  0  0  0  0
  5  8  1  0  0  0  0
  6  7  1  0  0  0  0
  8  9  1  0  0  0  0
  9 10  2  0  0  0  0
M  END
>  <CHROM.1>
-30.23454235,17.88378658,-16.80869271,1.38994500,-0.95283198,1.97664165

>  <Name>
ligand

>  <RI>
0

>  <Rbt.Current_Directory>
/home/itssahil/PROJECTS/Mol_Feturizer/New_Systems/rnas/4TZY

>  <Rbt.Executable>
rbdock ($Id: //depot/dev/client3/rdock/2013.1/src/exe/rbdock.cxx#4 $)

>  <Rbt.Library>
libRbt.so (2013.1, Build901 2013/11/27)

>  <Rbt.Parameter_File>
/export/apps/rDock/src/rDock_2013.1_src/data/scripts/dock_solv.prm

>  <Rbt.Receptor>
prm/pocket_docking_3.prm

>  <SCORE>
-14.9181

>  <SCORE.INTER>
-14.9181

>  <SCORE.INTER.CONST>
1

>  <SCORE.INTER.POLAR>
0

>  <SCORE.INTER.ROT>
0

>  <SCORE.INTER.SOLV>
8.92801

>  <SCORE.INTER.VDW>
-16.5214

>  <SCORE.INTER.norm>
-1.49181

>  <SCORE.INTRA>
0

>  <SCORE.INTRA.DIHEDRAL>
0

>  <SCORE.INTRA.DIHEDRAL.0>
0

>  <SCORE.INTRA.POLAR>
0

>  <SCORE.INTRA.POLAR.0>
0

>  <SCORE.INTRA.REPUL>
0

>  <SCORE.INTRA.REPUL.0>
0

>  <SCORE.INTRA.SOLV>
0

>  <SCORE.INTRA.SOLV.lig_0>
-23.8941

>  <SCORE.INTRA.VDW>
0

>  <SCORE.INTRA.VDW.0>
0

>  <SCORE.INTRA.norm>
0

>  <SCORE.RESTR>
0

>  <SCORE.RESTR.CAVITY>
0

>  <SCORE.RESTR.norm>
0

>  <SCORE.SYSTEM>
0

>  <SCORE.SYSTEM.CONST>
0

>  <SCORE.SYSTEM.DIHEDRAL>
0

>  <SCORE.SYSTEM.SOLV>
0

>  <SCORE.SYSTEM.norm>
0

>  <SCORE.heavy>
10

>  <SCORE.norm>
-1.49181

>  <RMSD>
0.747

$$$$
ligand
 OpenBabel11021811513D
libRbt.so/2013.1/901 2013/11/27
 10 11  0  0  0  0  0  0  0  0999 V2000
  -30.2116   17.0772  -14.9782 N   0  0  0  0  0  0  0  0  0  0  0  0
  -30.9394   18.1961  -14.8747 C   0  0  0  0  0  0  0  0  0  0  0  0
  -31.2453   19.0861  -15.8172 N   0  0  0  0  0  0  0  0  0  0  0  0
  -30.7099   18.7348  -16.9967 C   0  0  0  0  0  0  0  0  0  0  0  0
  -29.9395   17.6188  -17.2584 C   0  0  0  0  0  0  0  0  0  0  0  0
  -29.6869   16.7512  -16.1770 C   0  0  0  0  0  0  0  0  0  0  0  0
  -28.9589   15.6342  -16.2836 N   0  0  0  0  0  0  0  0  0  0  0  0
  -29.5622   17.5833  -18.5901 N   0  0  0  0  0  0  0  0  0  0  0  0
  -30.1038   18.6655  -19.0987 C   0  0  0  0  0  0  0  0  0  0  0  0
  -30.8104   19.4073  -18.1936 N   0  0  0  0  0  0  0  0  0  0  0  0
  1  2  2  0  0  0  0
  1  6  1  0  0  0  0
  2  3  1  0  0  0  0
  3  4  2  0  0  0  0
  4  5  1  0  0  0  0
  4 10  1  0  0  0  0
  5  6  2  0  0  0  0
  5  8  1  0  0  0  0
  6  7  1  0  0  0  0
  8  9  1  0  0  0  0
  9 10  2  0  0  0  0
M  END
>  <CHROM.1>
-30.21225822,17.86641585,-16.82264839,1.37971101,-0.97296763,1.97454660

>  <Name>
ligand

>  <RI>
0

>  <Rbt.Current_Directory>
/home/itssahil/PROJECTS/Mol_Feturizer/New_Systems/rnas/4TZY

>  <Rbt.Executable>
rbdock ($Id: //depot/dev/client3/rdock/2013.1/src/exe/rbdock.cxx#4 $)

>  <Rbt.Library>
libRbt.so (2013.1, Build901 2013/11/27)

>  <Rbt.Parameter_File>
/export/apps/rDock/src/rDock_2013.1_src/data/scripts/dock_solv.prm

>  <Rbt.Receptor>
prm/pocket_docking_3.prm

>  <SCORE>
-14.98

>  <SCORE.INTER>
-14.98

>  <SCORE.INTER.CONST>
1

>  <SCORE.INTER.POLAR>
0

>  <SCORE.INTER.ROT>
0

>  <SCORE.INTER.SOLV>
9.11315

>  <SCORE.INTER.VDW>
-16.6244

>  <SCORE.INTER.norm>
-1.498

>  <SCORE.INTRA>
0

>  <SCORE.INTRA.DIHEDRAL>
0

>  <SCORE.INTRA.DIHEDRAL.0>
0

>  <SCORE.INTRA.POLAR>
0

>  <SCORE.INTRA.POLAR.0>
0

>  <SCORE.INTRA.REPUL>
0

>  <SCORE.INTRA.REPUL.0>
0

>  <SCORE.INTRA.SOLV>
0

>  <SCORE.INTRA.SOLV.lig_0>
-23.8941

>  <SCORE.INTRA.VDW>
0

>  <SCORE.INTRA.VDW.0>
0

>  <SCORE.INTRA.norm>
0

>  <SCORE.RESTR>
0

>  <SCORE.RESTR.CAVITY>
0

>  <SCORE.RESTR.norm>
0

>  <SCORE.SYSTEM>
0

>  <SCORE.SYSTEM.CONST>
0

>  <SCORE.SYSTEM.DIHEDRAL>
0

>  <SCORE.SYSTEM.SOLV>
0

>  <SCORE.SYSTEM.norm>
0

>  <SCORE.heavy>
10

>  <SCORE.norm>
-1.498

>  <RMSD>
0.753

$$$$
ligand
 OpenBabel11021811513D
libRbt.so/2013.1/901 2013/11/27
 10 11  0  0  0  0  0  0  0  0999 V2000
  -30.2791   16.3097  -14.8111 N   0  0  0  0  0  0  0  0  0  0  0  0
  -29.6194   15.7320  -15.8228 C   0  0  0  0  0  0  0  0  0  0  0  0
  -29.3814   16.2043  -17.0452 N   0  0  0  0  0  0  0  0  0  0  0  0
  -29.9105   17.4286  -17.1949 C   0  0  0  0  0  0  0  0  0  0  0  0
  -30.6151   18.1489  -16.2502 C   0  0  0  0  0  0  0  0  0  0  0  0
  -30.7994   17.5406  -14.9926 C   0  0  0  0  0  0  0  0  0  0  0  0
  -31.4594   18.1202  -13.9839 N   0  0  0  0  0  0  0  0  0  0  0  0
  -31.0078   19.3751  -16.7596 N   0  0  0  0  0  0  0  0  0  0  0  0
  -30.5401   19.3699  -17.9861 C   0  0  0  0  0  0  0  0  0  0  0  0
  -29.8676   18.2263  -18.3160 N   0  0  0  0  0  0  0  0  0  0  0  0
  1  2  2  0  0  0  0
  1  6  1  0  0  0  0
  2  3  1  0  0  0  0
  3  4  2  0  0  0  0
  4  5  1  0  0  0  0
  4 10  1  0  0  0  0
  5  6  2  0  0  0  0
  5  8  1  0  0  0  0
  6  7  1  0  0  0  0
  8  9  1  0  0  0  0
  9 10  2  0  0  0  0
M  END
>  <CHROM.1>
-30.35189323,17.64568042,-16.30601928,-1.69160057,1.02253002,-0.90091163

>  <Name>
ligand

>  <RI>
0

>  <Rbt.Current_Directory>
/home/itssahil/PROJECTS/Mol_Feturizer/New_Systems/rnas/4TZY

>  <Rbt.Executable>
rbdock ($Id: //depot/dev/client3/rdock/2013.1/src/exe/rbdock.cxx#4 $)

>  <Rbt.Library>
libRbt.so (2013.1, Build901 2013/11/27)

>  <Rbt.Parameter_File>
/export/apps/rDock/src/rDock_2013.1_src/data/scripts/dock_solv.prm

>  <Rbt.Receptor>
prm/pocket_docking_8.prm

>  <SCORE>
-13.5365

>  <SCORE.INTER>
-13.5365

>  <SCORE.INTER.CONST>
1

>  <SCORE.INTER.POLAR>
0

>  <SCORE.INTER.ROT>
0

>  <SCORE.INTER.SOLV>
12.4837

>  <SCORE.INTER.VDW>
-16.7855

>  <SCORE.INTER.norm>
-1.35365

>  <SCORE.INTRA>
0

>  <SCORE.INTRA.DIHEDRAL>
0

>  <SCORE.INTRA.DIHEDRAL.0>
0

>  <SCORE.INTRA.POLAR>
0

>  <SCORE.INTRA.POLAR.0>
0

>  <SCORE.INTRA.REPUL>
0

>  <SCORE.INTRA.REPUL.0>
0

>  <SCORE.INTRA.SOLV>
0

>  <SCORE.INTRA.SOLV.lig_0>
-23.8941

>  <SCORE.INTRA.VDW>
0

>  <SCORE.INTRA.VDW.0>
0

>  <SCORE.INTRA.norm>
0

>  <SCORE.RESTR>
0

>  <SCORE.RESTR.CAVITY>
0

>  <SCORE.RESTR.norm>
0

>  <SCORE.SYSTEM>
0

>  <SCORE.SYSTEM.CONST>
0

>  <SCORE.SYSTEM.DIHEDRAL>
0

>  <SCORE.SYSTEM.SOLV>
0

>  <SCORE.SYSTEM.norm>
0

>  <SCORE.heavy>
10

>  <SCORE.norm>
-1.35365

>  <RMSD>
2.405

$$$$
ligand
 OpenBabel11021811513D
libRbt.so/2013.1/901 2013/11/27
 10 11  0  0  0  0  0  0  0  0999 V2000
  -30.2539   16.1947  -14.9058 N   0  0  0  0  0  0  0  0  0  0  0  0
  -29.5986   15.6570  -15.9420 C   0  0  0  0  0  0  0  0  0  0  0  0
  -29.3714   16.1739  -17.1483 N   0  0  0  0  0  0  0  0  0  0  0  0
  -29.9077   17.4000  -17.2505 C   0  0  0  0  0  0  0  0  0  0  0  0
  -30.6091   18.0824  -16.2759 C   0  0  0  0  0  0  0  0  0  0  0  0
  -30.7816   17.4286  -15.0395 C   0  0  0  0  0  0  0  0  0  0  0  0
  -31.4374   17.9683  -14.0063 N   0  0  0  0  0  0  0  0  0  0  0  0
  -31.0115   19.3240  -16.7383 N   0  0  0  0  0  0  0  0  0  0  0  0
  -30.5525   19.3650  -17.9675 C   0  0  0  0  0  0  0  0  0  0  0  0
  -29.8766   18.2374  -18.3426 N   0  0  0  0  0  0  0  0  0  0  0  0
  1  2  2  0  0  0  0
  1  6  1  0  0  0  0
  2  3  1  0  0  0  0
  3  4  2  0  0  0  0
  4  5  1  0  0  0  0
  4 10  1  0  0  0  0
  5  6  2  0  0  0  0
  5  8  1  0  0  0  0
  6  7  1  0  0  0  0
  8  9  1  0  0  0  0
  9 10  2  0  0  0  0
M  END
>  <CHROM.1>
-30.34387660,17.58287610,-16.35143358,-1.67511433,1.02295626,-0.87922600

>  <Name>
ligand

>  <RI>
0

>  <Rbt.Current_Directory>
/home/itssahil/PROJECTS/Mol_Feturizer/New_Systems/rnas/4TZY

>  <Rbt.Executable>
rbdock ($Id: //depot/dev/client3/rdock/2013.1/src/exe/rbdock.cxx#4 $)

>  <Rbt.Library>
libRbt.so (2013.1, Build901 2013/11/27)

>  <Rbt.Parameter_File>
/export/apps/rDock/src/rDock_2013.1_src/data/scripts/dock_solv.prm

>  <Rbt.Receptor>
prm/blind_docking_60.prm

>  <SCORE>
-13.5444

>  <SCORE.INTER>
-13.5444

>  <SCORE.INTER.CONST>
1

>  <SCORE.INTER.POLAR>
0

>  <SCORE.INTER.ROT>
0

>  <SCORE.INTER.SOLV>
12.2589

>  <SCORE.INTER.VDW>
-16.7159

>  <SCORE.INTER.norm>
-1.35444

>  <SCORE.INTRA>
0

>  <SCORE.INTRA.DIHEDRAL>
0

>  <SCORE.INTRA.DIHEDRAL.0>
0

>  <SCORE.INTRA.POLAR>
0

>  <SCORE.INTRA.POLAR.0>
0

>  <SCORE.INTRA.REPUL>
0

>  <SCORE.INTRA.REPUL.0>
0

>  <SCORE.INTRA.SOLV>
0

>  <SCORE.INTRA.SOLV.lig_0>
-23.8941

>  <SCORE.INTRA.VDW>
0

>  <SCORE.INTRA.VDW.0>
0

>  <SCORE.INTRA.norm>
0

>  <SCORE.RESTR>
0

>  <SCORE.RESTR.CAVITY>
0

>  <SCORE.RESTR.norm>
0

>  <SCORE.SYSTEM>
0

>  <SCORE.SYSTEM.CONST>
0

>  <SCORE.SYSTEM.DIHEDRAL>
0

>  <SCORE.SYSTEM.SOLV>
0

>  <SCORE.SYSTEM.norm>
0

>  <SCORE.heavy>
10

>  <SCORE.norm>
-1.35444

>  <RMSD>
2.407

$$$$
ligand
 OpenBabel11021811513D
libRbt.so/2013.1/901 2013/11/27
 10 11  0  0  0  0  0  0  0  0999 V2000
  -30.3017   16.2537  -14.8597 N   0  0  0  0  0  0  0  0  0  0  0  0
  -29.6355   15.6915  -15.8758 C   0  0  0  0  0  0  0  0  0  0  0  0
  -29.3877   16.1832  -17.0886 N   0  0  0  0  0  0  0  0  0  0  0  0
  -29.9137   17.4107  -17.2222 C   0  0  0  0  0  0  0  0  0  0  0  0
  -30.6239   18.1168  -16.2710 C   0  0  0  0  0  0  0  0  0  0  0  0
  -30.8186   17.4883  -15.0249 C   0  0  0  0  0  0  0  0  0  0  0  0
  -31.4851   18.0526  -14.0117 N   0  0  0  0  0  0  0  0  0  0  0  0
  -31.0109   19.3518  -16.7631 N   0  0  0  0  0  0  0  0  0  0  0  0
  -30.5341   19.3658  -17.9862 C   0  0  0  0  0  0  0  0  0  0  0  0
  -29.8611   18.2265  -18.3297 N   0  0  0  0  0  0  0  0  0  0  0  0
  1  2  2  0  0  0  0
  1  6  1  0  0  0  0
  2  3  1  0  0  0  0
  3  4  2  0  0  0  0
  4  5  1  0  0  0  0
  4 10  1  0  0  0  0
  5  6  2  0  0  0  0
  5  8  1  0  0  0  0
  6  7  1  0  0  0  0
  8  9  1  0  0  0  0
  9 10  2  0  0  0  0
M  END
>  <CHROM.1>
-30.36122178,17.61404739,-16.33311518,-1.70464484,1.01921690,-0.87345439

>  <Name>
ligand

>  <RI>
0

>  <Rbt.Current_Directory>
/home/itssahil/PROJECTS/Mol_Feturizer/New_Systems/rnas/4TZY

>  <Rbt.Executable>
rbdock ($Id: //depot/dev/client3/rdock/2013.1/src/exe/rbdock.cxx#4 $)

>  <Rbt.Library>
libRbt.so (2013.1, Build901 2013/11/27)

>  <Rbt.Parameter_File>
/export/apps/rDock/src/rDock_2013.1_src/data/scripts/dock_solv.prm

>  <Rbt.Receptor>
prm/blind_docking_100.prm

>  <SCORE>
-13.5449

>  <SCORE.INTER>
-13.5449

>  <SCORE.INTER.CONST>
1

>  <SCORE.INTER.POLAR>
0

>  <SCORE.INTER.ROT>
0

>  <SCORE.INTER.SOLV>
12.4085

>  <SCORE.INTER.VDW>
-16.7661

>  <SCORE.INTER.norm>
-1.35449

>  <SCORE.INTRA>
0

>  <SCORE.INTRA.DIHEDRAL>
0

>  <SCORE.INTRA.DIHEDRAL.0>
0

>  <SCORE.INTRA.POLAR>
0

>  <SCORE.INTRA.POLAR.0>
0

>  <SCORE.INTRA.REPUL>
0

>  <SCORE.INTRA.REPUL.0>
0

>  <SCORE.INTRA.SOLV>
0

>  <SCORE.INTRA.SOLV.lig_0>
-23.8941

>  <SCORE.INTRA.VDW>
0

>  <SCORE.INTRA.VDW.0>
0

>  <SCORE.INTRA.norm>
0

>  <SCORE.RESTR>
0

>  <SCORE.RESTR.CAVITY>
0

>  <SCORE.RESTR.norm>
0

>  <SCORE.SYSTEM>
0

>  <SCORE.SYSTEM.CONST>
0

>  <SCORE.SYSTEM.DIHEDRAL>
0

>  <SCORE.SYSTEM.SOLV>
0

>  <SCORE.SYSTEM.norm>
0

>  <SCORE.heavy>
10

>  <SCORE.norm>
-1.35449

>  <RMSD>
2.409

$$$$
ligand
 OpenBabel11021811513D
libRbt.so/2013.1/901 2013/11/27
 10 11  0  0  0  0  0  0  0  0999 V2000
  -30.2922   16.2663  -14.8749 N   0  0  0  0  0  0  0  0  0  0  0  0
  -29.6248   15.7083  -15.8925 C   0  0  0  0  0  0  0  0  0  0  0  0
  -29.3787   16.2035  -17.1042 N   0  0  0  0  0  0  0  0  0  0  0  0
  -29.9082   17.4299  -17.2347 C   0  0  0  0  0  0  0  0  0  0  0  0
  -30.6201   18.1317  -16.2818 C   0  0  0  0  0  0  0  0  0  0  0  0
  -30.8126   17.4999  -15.0370 C   0  0  0  0  0  0  0  0  0  0  0  0
  -31.4803   18.0599  -14.0224 N   0  0  0  0  0  0  0  0  0  0  0  0
  -31.0106   19.3668  -16.7709 N   0  0  0  0  0  0  0  0  0  0  0  0
  -30.5343   19.3849  -17.9940 C   0  0  0  0  0  0  0  0  0  0  0  0
  -29.8583   18.2483  -18.3404 N   0  0  0  0  0  0  0  0  0  0  0  0
  1  2  2  0  0  0  0
  1  6  1  0  0  0  0
  2  3  1  0  0  0  0
  3  4  2  0  0  0  0
  4  5  1  0  0  0  0
  4 10  1  0  0  0  0
  5  6  2  0  0  0  0
  5  8  1  0  0  0  0
  6  7  1  0  0  0  0
  8  9  1  0  0  0  0
  9 10  2  0  0  0  0
M  END
>  <CHROM.1>
-30.35599621,17.62987497,-16.34509872,-1.70079055,1.01729497,-0.87441277

>  <Name>
ligand

>  <RI>
0

>  <Rbt.Current_Directory>
/home/itssahil/PROJECTS/Mol_Feturizer/New_Systems/rnas/4TZY

>  <Rbt.Executable>
rbdock ($Id: //depot/dev/client3/rdock/2013.1/src/exe/rbdock.cxx#4 $)

>  <Rbt.Library>
libRbt.so (2013.1, Build901 2013/11/27)

>  <Rbt.Parameter_File>
/export/apps/rDock/src/rDock_2013.1_src/data/scripts/dock_solv.prm

>  <Rbt.Receptor>
prm/blind_docking_100.prm

>  <SCORE>
-13.5466

>  <SCORE.INTER>
-13.5466

>  <SCORE.INTER.CONST>
1

>  <SCORE.INTER.POLAR>
0

>  <SCORE.INTER.ROT>
0

>  <SCORE.INTER.SOLV>
12.3849

>  <SCORE.INTER.VDW>
-16.7594

>  <SCORE.INTER.norm>
-1.35466

>  <SCORE.INTRA>
0

>  <SCORE.INTRA.DIHEDRAL>
0

>  <SCORE.INTRA.DIHEDRAL.0>
0

>  <SCORE.INTRA.POLAR>
0

>  <SCORE.INTRA.POLAR.0>
0

>  <SCORE.INTRA.REPUL>
0

>  <SCORE.INTRA.REPUL.0>
0

>  <SCORE.INTRA.SOLV>
0

>  <SCORE.INTRA.SOLV.lig_0>
-23.8941

>  <SCORE.INTRA.VDW>
0

>  <SCORE.INTRA.VDW.0>
0

>  <SCORE.INTRA.norm>
0

>  <SCORE.RESTR>
0

>  <SCORE.RESTR.CAVITY>
0

>  <SCORE.RESTR.norm>
0

>  <SCORE.SYSTEM>
0

>  <SCORE.SYSTEM.CONST>
0

>  <SCORE.SYSTEM.DIHEDRAL>
0

>  <SCORE.SYSTEM.SOLV>
0

>  <SCORE.SYSTEM.norm>
0

>  <SCORE.heavy>
10

>  <SCORE.norm>
-1.35466

>  <RMSD>
2.410

$$$$
ligand
 OpenBabel11021811513D
libRbt.so/2013.1/901 2013/11/27
 10 11  0  0  0  0  0  0  0  0999 V2000
  -30.2955   16.2699  -14.8797 N   0  0  0  0  0  0  0  0  0  0  0  0
  -29.6317   15.7117  -15.8995 C   0  0  0  0  0  0  0  0  0  0  0  0
  -29.3875   16.2078  -17.1113 N   0  0  0  0  0  0  0  0  0  0  0  0
  -29.9150   17.4353  -17.2392 C   0  0  0  0  0  0  0  0  0  0  0  0
  -30.6233   18.1374  -16.2838 C   0  0  0  0  0  0  0  0  0  0  0  0
  -30.8140   17.5046  -15.0393 C   0  0  0  0  0  0  0  0  0  0  0  0
  -31.4782   18.0648  -14.0224 N   0  0  0  0  0  0  0  0  0  0  0  0
  -31.0127   19.3738  -16.7706 N   0  0  0  0  0  0  0  0  0  0  0  0
  -30.5393   19.3924  -17.9949 C   0  0  0  0  0  0  0  0  0  0  0  0
  -29.8662   18.2549  -18.3442 N   0  0  0  0  0  0  0  0  0  0  0  0
  1  2  2  0  0  0  0
  1  6  1  0  0  0  0
  2  3  1  0  0  0  0
  3  4  2  0  0  0  0
  4  5  1  0  0  0  0
  4 10  1  0  0  0  0
  5  6  2  0  0  0  0
  5  8  1  0  0  0  0
  6  7  1  0  0  0  0
  8  9  1  0  0  0  0
  9 10  2  0  0  0  0
M  END
>  <CHROM.1>
-30.36030817,17.63519132,-16.34829129,-1.69954798,1.02026708,-0.87439275

>  <Name>
ligand

>  <RI>
0

>  <Rbt.Current_Directory>
/home/itssahil/PROJECTS/Mol_Feturizer/New_Systems/rnas/4TZY

>  <Rbt.Executable>
rbdock ($Id: //depot/dev/client3/rdock/2013.1/src/exe/rbdock.cxx#4 $)

>  <Rbt.Library>
libRbt.so (2013.1, Build901 2013/11/27)

>  <Rbt.Parameter_File>
/export/apps/rDock/src/rDock_2013.1_src/data/scripts/dock_solv.prm

>  <Rbt.Receptor>
prm/blind_docking_80.prm

>  <SCORE>
-13.5442

>  <SCORE.INTER>
-13.5442

>  <SCORE.INTER.CONST>
1

>  <SCORE.INTER.POLAR>
0

>  <SCORE.INTER.ROT>
0

>  <SCORE.INTER.SOLV>
12.3906

>  <SCORE.INTER.VDW>
-16.7597

>  <SCORE.INTER.norm>
-1.35442

>  <SCORE.INTRA>
0

>  <SCORE.INTRA.DIHEDRAL>
0

>  <SCORE.INTRA.DIHEDRAL.0>
0

>  <SCORE.INTRA.POLAR>
0

>  <SCORE.INTRA.POLAR.0>
0

>  <SCORE.INTRA.REPUL>
0

>  <SCORE.INTRA.REPUL.0>
0

>  <SCORE.INTRA.SOLV>
0

>  <SCORE.INTRA.SOLV.lig_0>
-23.8941

>  <SCORE.INTRA.VDW>
0

>  <SCORE.INTRA.VDW.0>
0

>  <SCORE.INTRA.norm>
0

>  <SCORE.RESTR>
0

>  <SCORE.RESTR.CAVITY>
0

>  <SCORE.RESTR.norm>
0

>  <SCORE.SYSTEM>
0

>  <SCORE.SYSTEM.CONST>
0

>  <SCORE.SYSTEM.DIHEDRAL>
0

>  <SCORE.SYSTEM.SOLV>
0

>  <SCORE.SYSTEM.norm>
0

>  <SCORE.heavy>
10

>  <SCORE.norm>
-1.35442

>  <RMSD>
2.410

$$$$
ligand
 OpenBabel11021811513D
libRbt.so/2013.1/901 2013/11/27
 10 11  0  0  0  0  0  0  0  0999 V2000
  -30.3625   16.2720  -14.8228 N   0  0  0  0  0  0  0  0  0  0  0  0
  -29.6867   15.6966  -15.8250 C   0  0  0  0  0  0  0  0  0  0  0  0
  -29.4209   16.1754  -17.0391 N   0  0  0  0  0  0  0  0  0  0  0  0
  -29.9385   17.4043  -17.1910 C   0  0  0  0  0  0  0  0  0  0  0  0
  -30.6569   18.1231  -16.2557 C   0  0  0  0  0  0  0  0  0  0  0  0
  -30.8706   17.5077  -15.0062 C   0  0  0  0  0  0  0  0  0  0  0  0
  -31.5468   18.0851  -14.0069 N   0  0  0  0  0  0  0  0  0  0  0  0
  -31.0310   19.3555  -16.7643 N   0  0  0  0  0  0  0  0  0  0  0  0
  -30.5388   19.3552  -17.9813 C   0  0  0  0  0  0  0  0  0  0  0  0
  -29.8677   18.2092  -18.3055 N   0  0  0  0  0  0  0  0  0  0  0  0
  1  2  2  0  0  0  0
  1  6  1  0  0  0  0
  2  3  1  0  0  0  0
  3  4  2  0  0  0  0
  4  5  1  0  0  0  0
  4 10  1  0  0  0  0
  5  6  2  0  0  0  0
  5  8  1  0  0  0  0
  6  7  1  0  0  0  0
  8  9  1  0  0  0  0
  9 10  2  0  0  0  0
M  END
>  <CHROM.1>
-30.39615708,17.61848256,-16.30965393,-1.72948920,1.01512293,-0.86184393

>  <Name>
ligand

>  <RI>
0

>  <Rbt.Current_Directory>
/home/itssahil/PROJECTS/Mol_Feturizer/New_Systems/rnas/4TZY

>  <Rbt.Executable>
rbdock ($Id: //depot/dev/client3/rdock/2013.1/src/exe/rbdock.cxx#4 $)

>  <Rbt.Library>
libRbt.so (2013.1, Build901 2013/11/27)

>  <Rbt.Parameter_File>
/export/apps/rDock/src/rDock_2013.1_src/data/scripts/dock_solv.prm

>  <Rbt.Receptor>
prm/blind_docking_80.prm

>  <SCORE>
-13.5535

>  <SCORE.INTER>
-13.5535

>  <SCORE.INTER.CONST>
1

>  <SCORE.INTER.POLAR>
0

>  <SCORE.INTER.ROT>
0

>  <SCORE.INTER.SOLV>
12.5327

>  <SCORE.INTER.VDW>
-16.8132

>  <SCORE.INTER.norm>
-1.35535

>  <SCORE.INTRA>
0

>  <SCORE.INTRA.DIHEDRAL>
0

>  <SCORE.INTRA.DIHEDRAL.0>
0

>  <SCORE.INTRA.POLAR>
0

>  <SCORE.INTRA.POLAR.0>
0

>  <SCORE.INTRA.REPUL>
0

>  <SCORE.INTRA.REPUL.0>
0

>  <SCORE.INTRA.SOLV>
0

>  <SCORE.INTRA.SOLV.lig_0>
-23.8941

>  <SCORE.INTRA.VDW>
0

>  <SCORE.INTRA.VDW.0>
0

>  <SCORE.INTRA.norm>
0

>  <SCORE.RESTR>
0

>  <SCORE.RESTR.CAVITY>
0

>  <SCORE.RESTR.norm>
0

>  <SCORE.SYSTEM>
0

>  <SCORE.SYSTEM.CONST>
0

>  <SCORE.SYSTEM.DIHEDRAL>
0

>  <SCORE.SYSTEM.SOLV>
0

>  <SCORE.SYSTEM.norm>
0

>  <SCORE.heavy>
10

>  <SCORE.norm>
-1.35535

>  <RMSD>
2.411

$$$$
ligand
 OpenBabel11021811513D
libRbt.so/2013.1/901 2013/11/27
 10 11  0  0  0  0  0  0  0  0999 V2000
  -30.3310   16.2702  -14.8618 N   0  0  0  0  0  0  0  0  0  0  0  0
  -29.6474   15.7053  -15.8648 C   0  0  0  0  0  0  0  0  0  0  0  0
  -29.3867   16.1900  -17.0777 N   0  0  0  0  0  0  0  0  0  0  0  0
  -29.9193   17.4127  -17.2273 C   0  0  0  0  0  0  0  0  0  0  0  0
  -30.6472   18.1206  -16.2910 C   0  0  0  0  0  0  0  0  0  0  0  0
  -30.8542   17.4999  -15.0430 C   0  0  0  0  0  0  0  0  0  0  0  0
  -31.5382   18.0668  -14.0430 N   0  0  0  0  0  0  0  0  0  0  0  0
  -31.0361   19.3493  -16.7973 N   0  0  0  0  0  0  0  0  0  0  0  0
  -30.5431   19.3577  -18.0139 C   0  0  0  0  0  0  0  0  0  0  0  0
  -29.8576   18.2208  -18.3401 N   0  0  0  0  0  0  0  0  0  0  0  0
  1  2  2  0  0  0  0
  1  6  1  0  0  0  0
  2  3  1  0  0  0  0
  3  4  2  0  0  0  0
  4  5  1  0  0  0  0
  4 10  1  0  0  0  0
  5  6  2  0  0  0  0
  5  8  1  0  0  0  0
  6  7  1  0  0  0  0
  8  9  1  0  0  0  0
  9 10  2  0  0  0  0
M  END
>  <CHROM.1>
-30.38021702,17.61933473,-16.34587247,-1.71555479,1.00523151,-0.87151300

>  <Name>
ligand

>  <RI>
0

>  <Rbt.Current_Directory>
/home/itssahil/PROJECTS/Mol_Feturizer/New_Systems/rnas/4TZY

>  <Rbt.Executable>
rbdock ($Id: //depot/dev/client3/rdock/2013.1/src/exe/rbdock.cxx#4 $)

>  <Rbt.Library>
libRbt.so (2013.1, Build901 2013/11/27)

>  <Rbt.Parameter_File>
/export/apps/rDock/src/rDock_2013.1_src/data/scripts/dock_solv.prm

>  <Rbt.Receptor>
prm/blind_docking_60.prm

>  <SCORE>
-13.5256

>  <SCORE.INTER>
-13.5256

>  <SCORE.INTER.CONST>
1

>  <SCORE.INTER.POLAR>
0

>  <SCORE.INTER.ROT>
0

>  <SCORE.INTER.SOLV>
12.4059

>  <SCORE.INTER.VDW>
-16.7524

>  <SCORE.INTER.norm>
-1.35256

>  <SCORE.INTRA>
0

>  <SCORE.INTRA.DIHEDRAL>
0

>  <SCORE.INTRA.DIHEDRAL.0>
0

>  <SCORE.INTRA.POLAR>
0

>  <SCORE.INTRA.POLAR.0>
0

>  <SCORE.INTRA.REPUL>
0

>  <SCORE.INTRA.REPUL.0>
0

>  <SCORE.INTRA.SOLV>
0

>  <SCORE.INTRA.SOLV.lig_0>
-23.8941

>  <SCORE.INTRA.VDW>
0

>  <SCORE.INTRA.VDW.0>
0

>  <SCORE.INTRA.norm>
0

>  <SCORE.RESTR>
0

>  <SCORE.RESTR.CAVITY>
0

>  <SCORE.RESTR.norm>
0

>  <SCORE.SYSTEM>
0

>  <SCORE.SYSTEM.CONST>
0

>  <SCORE.SYSTEM.DIHEDRAL>
0

>  <SCORE.SYSTEM.SOLV>
0

>  <SCORE.SYSTEM.norm>
0

>  <SCORE.heavy>
10

>  <SCORE.norm>
-1.35256

>  <RMSD>
2.412

$$$$
ligand
 OpenBabel11021811513D
libRbt.so/2013.1/901 2013/11/27
 10 11  0  0  0  0  0  0  0  0999 V2000
  -30.3233   16.2965  -14.8892 N   0  0  0  0  0  0  0  0  0  0  0  0
  -29.6535   15.6989  -15.8825 C   0  0  0  0  0  0  0  0  0  0  0  0
  -29.4006   16.1481  -17.1106 N   0  0  0  0  0  0  0  0  0  0  0  0
  -29.9253   17.3705  -17.2888 C   0  0  0  0  0  0  0  0  0  0  0  0
  -30.6388   18.1095  -16.3656 C   0  0  0  0  0  0  0  0  0  0  0  0
  -30.8387   17.5249  -15.0992 C   0  0  0  0  0  0  0  0  0  0  0  0
  -31.5089   18.1243  -14.1089 N   0  0  0  0  0  0  0  0  0  0  0  0
  -31.0231   19.3269  -16.9019 N   0  0  0  0  0  0  0  0  0  0  0  0
  -30.5415   19.2981  -18.1227 C   0  0  0  0  0  0  0  0  0  0  0  0
  -29.8679   18.1473  -18.4239 N   0  0  0  0  0  0  0  0  0  0  0  0
  1  2  2  0  0  0  0
  1  6  1  0  0  0  0
  2  3  1  0  0  0  0
  3  4  2  0  0  0  0
  4  5  1  0  0  0  0
  4 10  1  0  0  0  0
  5  6  2  0  0  0  0
  5  8  1  0  0  0  0
  6  7  1  0  0  0  0
  8  9  1  0  0  0  0
  9 10  2  0  0  0  0
M  END
>  <CHROM.1>
-30.37619889,17.60482350,-16.40916208,-1.71111620,1.01717673,-0.90270021

>  <Name>
ligand

>  <RI>
0

>  <Rbt.Current_Directory>
/home/itssahil/PROJECTS/Mol_Feturizer/New_Systems/rnas/4TZY

>  <Rbt.Executable>
rbdock ($Id: //depot/dev/client3/rdock/2013.1/src/exe/rbdock.cxx#4 $)

>  <Rbt.Library>
libRbt.so (2013.1, Build901 2013/11/27)

>  <Rbt.Parameter_File>
/export/apps/rDock/src/rDock_2013.1_src/data/scripts/dock_solv.prm

>  <Rbt.Receptor>
prm/blind_docking_80.prm

>  <SCORE>
-13.5414

>  <SCORE.INTER>
-13.5414

>  <SCORE.INTER.CONST>
1

>  <SCORE.INTER.POLAR>
0

>  <SCORE.INTER.ROT>
0

>  <SCORE.INTER.SOLV>
12.2629

>  <SCORE.INTER.VDW>
-16.7153

>  <SCORE.INTER.norm>
-1.35414

>  <SCORE.INTRA>
0

>  <SCORE.INTRA.DIHEDRAL>
0

>  <SCORE.INTRA.DIHEDRAL.0>
0

>  <SCORE.INTRA.POLAR>
0

>  <SCORE.INTRA.POLAR.0>
0

>  <SCORE.INTRA.REPUL>
0

>  <SCORE.INTRA.REPUL.0>
0

>  <SCORE.INTRA.SOLV>
0

>  <SCORE.INTRA.SOLV.lig_0>
-23.8941

>  <SCORE.INTRA.VDW>
0

>  <SCORE.INTRA.VDW.0>
0

>  <SCORE.INTRA.norm>
0

>  <SCORE.RESTR>
0

>  <SCORE.RESTR.CAVITY>
0

>  <SCORE.RESTR.norm>
0

>  <SCORE.SYSTEM>
0

>  <SCORE.SYSTEM.CONST>
0

>  <SCORE.SYSTEM.DIHEDRAL>
0

>  <SCORE.SYSTEM.SOLV>
0

>  <SCORE.SYSTEM.norm>
0

>  <SCORE.heavy>
10

>  <SCORE.norm>
-1.35414

>  <RMSD>
2.412

$$$$
ligand
 OpenBabel11021811513D
libRbt.so/2013.1/901 2013/11/27
 10 11  0  0  0  0  0  0  0  0999 V2000
  -30.3017   16.2736  -14.8707 N   0  0  0  0  0  0  0  0  0  0  0  0
  -29.6216   15.7203  -15.8825 C   0  0  0  0  0  0  0  0  0  0  0  0
  -29.3699   16.2166  -17.0926 N   0  0  0  0  0  0  0  0  0  0  0  0
  -29.9085   17.4384  -17.2285 C   0  0  0  0  0  0  0  0  0  0  0  0
  -30.6338   18.1351  -16.2819 C   0  0  0  0  0  0  0  0  0  0  0  0
  -30.8310   17.5027  -15.0381 C   0  0  0  0  0  0  0  0  0  0  0  0
  -31.5115   18.0580  -14.0293 N   0  0  0  0  0  0  0  0  0  0  0  0
  -31.0306   19.3665  -16.7752 N   0  0  0  0  0  0  0  0  0  0  0  0
  -30.5447   19.3876  -17.9945 C   0  0  0  0  0  0  0  0  0  0  0  0
  -29.8565   18.2564  -18.3345 N   0  0  0  0  0  0  0  0  0  0  0  0
  1  2  2  0  0  0  0
  1  6  1  0  0  0  0
  2  3  1  0  0  0  0
  3  4  2  0  0  0  0
  4  5  1  0  0  0  0
  4 10  1  0  0  0  0
  5  6  2  0  0  0  0
  5  8  1  0  0  0  0
  6  7  1  0  0  0  0
  8  9  1  0  0  0  0
  9 10  2  0  0  0  0
M  END
>  <CHROM.1>
-30.36506681,17.63541393,-16.34264559,-1.70230782,1.00578698,-0.87398598

>  <Name>
ligand

>  <RI>
0

>  <Rbt.Current_Directory>
/home/itssahil/PROJECTS/Mol_Feturizer/New_Systems/rnas/4TZY

>  <Rbt.Executable>
rbdock ($Id: //depot/dev/client3/rdock/2013.1/src/exe/rbdock.cxx#4 $)

>  <Rbt.Library>
libRbt.so (2013.1, Build901 2013/11/27)

>  <Rbt.Parameter_File>
/export/apps/rDock/src/rDock_2013.1_src/data/scripts/dock_solv.prm

>  <Rbt.Receptor>
prm/pocket_docking_4.prm

>  <SCORE>
-13.5246

>  <SCORE.INTER>
-13.5246

>  <SCORE.INTER.CONST>
1

>  <SCORE.INTER.POLAR>
0

>  <SCORE.INTER.ROT>
0

>  <SCORE.INTER.SOLV>
12.3986

>  <SCORE.INTER.VDW>
-16.7493

>  <SCORE.INTER.norm>
-1.35246

>  <SCORE.INTRA>
0

>  <SCORE.INTRA.DIHEDRAL>
0

>  <SCORE.INTRA.DIHEDRAL.0>
0

>  <SCORE.INTRA.POLAR>
0

>  <SCORE.INTRA.POLAR.0>
0

>  <SCORE.INTRA.REPUL>
0

>  <SCORE.INTRA.REPUL.0>
0

>  <SCORE.INTRA.SOLV>
0

>  <SCORE.INTRA.SOLV.lig_0>
-23.8941

>  <SCORE.INTRA.VDW>
0

>  <SCORE.INTRA.VDW.0>
0

>  <SCORE.INTRA.norm>
0

>  <SCORE.RESTR>
0

>  <SCORE.RESTR.CAVITY>
0

>  <SCORE.RESTR.norm>
0

>  <SCORE.SYSTEM>
0

>  <SCORE.SYSTEM.CONST>
0

>  <SCORE.SYSTEM.DIHEDRAL>
0

>  <SCORE.SYSTEM.SOLV>
0

>  <SCORE.SYSTEM.norm>
0

>  <SCORE.heavy>
10

>  <SCORE.norm>
-1.35246

>  <RMSD>
2.412

$$$$
ligand
 OpenBabel11021811513D
libRbt.so/2013.1/901 2013/11/27
 10 11  0  0  0  0  0  0  0  0999 V2000
  -30.3284   16.2662  -14.8814 N   0  0  0  0  0  0  0  0  0  0  0  0
  -29.6530   15.7038  -15.8913 C   0  0  0  0  0  0  0  0  0  0  0  0
  -29.4019   16.1917  -17.1050 N   0  0  0  0  0  0  0  0  0  0  0  0
  -29.9354   17.4150  -17.2471 C   0  0  0  0  0  0  0  0  0  0  0  0
  -30.6556   18.1205  -16.3031 C   0  0  0  0  0  0  0  0  0  0  0  0
  -30.8527   17.4965  -15.0551 C   0  0  0  0  0  0  0  0  0  0  0  0
  -31.5285   18.0609  -14.0482 N   0  0  0  0  0  0  0  0  0  0  0  0
  -31.0483   19.3506  -16.8030 N   0  0  0  0  0  0  0  0  0  0  0  0
  -30.5650   19.3622  -18.0235 C   0  0  0  0  0  0  0  0  0  0  0  0
  -29.8825   18.2260  -18.3581 N   0  0  0  0  0  0  0  0  0  0  0  0
  1  2  2  0  0  0  0
  1  6  1  0  0  0  0
  2  3  1  0  0  0  0
  3  4  2  0  0  0  0
  4  5  1  0  0  0  0
  4 10  1  0  0  0  0
  5  6  2  0  0  0  0
  5  8  1  0  0  0  0
  6  7  1  0  0  0  0
  8  9  1  0  0  0  0
  9 10  2  0  0  0  0
M  END
>  <CHROM.1>
-30.38918311,17.61932543,-16.36141905,-1.70426225,1.01054304,-0.87840126

>  <Name>
ligand

>  <RI>
0

>  <Rbt.Current_Directory>
/home/itssahil/PROJECTS/Mol_Feturizer/New_Systems/rnas/4TZY

>  <Rbt.Executable>
rbdock ($Id: //depot/dev/client3/rdock/2013.1/src/exe/rbdock.cxx#4 $)

>  <Rbt.Library>
libRbt.so (2013.1, Build901 2013/11/27)

>  <Rbt.Parameter_File>
/export/apps/rDock/src/rDock_2013.1_src/data/scripts/dock_solv.prm

>  <Rbt.Receptor>
prm/blind_docking_100.prm

>  <SCORE>
-13.548

>  <SCORE.INTER>
-13.548

>  <SCORE.INTER.CONST>
1

>  <SCORE.INTER.POLAR>
0

>  <SCORE.INTER.ROT>
0

>  <SCORE.INTER.SOLV>
12.3769

>  <SCORE.INTER.VDW>
-16.7576

>  <SCORE.INTER.norm>
-1.3548

>  <SCORE.INTRA>
0

>  <SCORE.INTRA.DIHEDRAL>
0

>  <SCORE.INTRA.DIHEDRAL.0>
0

>  <SCORE.INTRA.POLAR>
0

>  <SCORE.INTRA.POLAR.0>
0

>  <SCORE.INTRA.REPUL>
0

>  <SCORE.INTRA.REPUL.0>
0

>  <SCORE.INTRA.SOLV>
0

>  <SCORE.INTRA.SOLV.lig_0>
-23.8941

>  <SCORE.INTRA.VDW>
0

>  <SCORE.INTRA.VDW.0>
0

>  <SCORE.INTRA.norm>
0

>  <SCORE.RESTR>
0

>  <SCORE.RESTR.CAVITY>
0

>  <SCORE.RESTR.norm>
0

>  <SCORE.SYSTEM>
0

>  <SCORE.SYSTEM.CONST>
0

>  <SCORE.SYSTEM.DIHEDRAL>
0

>  <SCORE.SYSTEM.SOLV>
0

>  <SCORE.SYSTEM.norm>
0

>  <SCORE.heavy>
10

>  <SCORE.norm>
-1.3548

>  <RMSD>
2.413

$$$$
ligand
 OpenBabel11021811513D
libRbt.so/2013.1/901 2013/11/27
 10 11  0  0  0  0  0  0  0  0999 V2000
  -30.3370   16.2497  -14.8727 N   0  0  0  0  0  0  0  0  0  0  0  0
  -29.6534   15.6959  -15.8818 C   0  0  0  0  0  0  0  0  0  0  0  0
  -29.3916   16.1944  -17.0889 N   0  0  0  0  0  0  0  0  0  0  0  0
  -29.9230   17.4193  -17.2245 C   0  0  0  0  0  0  0  0  0  0  0  0
  -30.6507   18.1169  -16.2805 C   0  0  0  0  0  0  0  0  0  0  0  0
  -30.8589   17.4819  -15.0398 C   0  0  0  0  0  0  0  0  0  0  0  0
  -31.5429   18.0378  -14.0337 N   0  0  0  0  0  0  0  0  0  0  0  0
  -31.0382   19.3518  -16.7727 N   0  0  0  0  0  0  0  0  0  0  0  0
  -30.5445   19.3739  -17.9888 C   0  0  0  0  0  0  0  0  0  0  0  0
  -29.8600   18.2401  -18.3278 N   0  0  0  0  0  0  0  0  0  0  0  0
  1  2  2  0  0  0  0
  1  6  1  0  0  0  0
  2  3  1  0  0  0  0
  3  4  2  0  0  0  0
  4  5  1  0  0  0  0
  4 10  1  0  0  0  0
  5  6  2  0  0  0  0
  5  8  1  0  0  0  0
  6  7  1  0  0  0  0
  8  9  1  0  0  0  0
  9 10  2  0  0  0  0
M  END
>  <CHROM.1>
-30.38416243,17.61604865,-16.34099719,-1.71739340,1.00560286,-0.85834493

>  <Name>
ligand

>  <RI>
0

>  <Rbt.Current_Directory>
/home/itssahil/PROJECTS/Mol_Feturizer/New_Systems/rnas/4TZY

>  <Rbt.Executable>
rbdock ($Id: //depot/dev/client3/rdock/2013.1/src/exe/rbdock.cxx#4 $)

>  <Rbt.Library>
libRbt.so (2013.1, Build901 2013/11/27)

>  <Rbt.Parameter_File>
/export/apps/rDock/src/rDock_2013.1_src/data/scripts/dock_solv.prm

>  <Rbt.Receptor>
prm/blind_docking_100.prm

>  <SCORE>
-13.5563

>  <SCORE.INTER>
-13.5563

>  <SCORE.INTER.CONST>
1

>  <SCORE.INTER.POLAR>
0

>  <SCORE.INTER.ROT>
0

>  <SCORE.INTER.SOLV>
12.4164

>  <SCORE.INTER.VDW>
-16.7763

>  <SCORE.INTER.norm>
-1.35563

>  <SCORE.INTRA>
0

>  <SCORE.INTRA.DIHEDRAL>
0

>  <SCORE.INTRA.DIHEDRAL.0>
0

>  <SCORE.INTRA.POLAR>
0

>  <SCORE.INTRA.POLAR.0>
0

>  <SCORE.INTRA.REPUL>
0

>  <SCORE.INTRA.REPUL.0>
0

>  <SCORE.INTRA.SOLV>
0

>  <SCORE.INTRA.SOLV.lig_0>
-23.8941

>  <SCORE.INTRA.VDW>
0

>  <SCORE.INTRA.VDW.0>
0

>  <SCORE.INTRA.norm>
0

>  <SCORE.RESTR>
0

>  <SCORE.RESTR.CAVITY>
0

>  <SCORE.RESTR.norm>
0

>  <SCORE.SYSTEM>
0

>  <SCORE.SYSTEM.CONST>
0

>  <SCORE.SYSTEM.DIHEDRAL>
0

>  <SCORE.SYSTEM.SOLV>
0

>  <SCORE.SYSTEM.norm>
0

>  <SCORE.heavy>
10

>  <SCORE.norm>
-1.35563

>  <RMSD>
2.413

$$$$
ligand
 OpenBabel11021811513D
libRbt.so/2013.1/901 2013/11/27
 10 11  0  0  0  0  0  0  0  0999 V2000
  -30.3393   16.2611  -14.8654 N   0  0  0  0  0  0  0  0  0  0  0  0
  -29.6554   15.7048  -15.8729 C   0  0  0  0  0  0  0  0  0  0  0  0
  -29.3933   16.2004  -17.0811 N   0  0  0  0  0  0  0  0  0  0  0  0
  -29.9248   17.4250  -17.2200 C   0  0  0  0  0  0  0  0  0  0  0  0
  -30.6528   18.1249  -16.2778 C   0  0  0  0  0  0  0  0  0  0  0  0
  -30.8613   17.4929  -15.0357 C   0  0  0  0  0  0  0  0  0  0  0  0
  -31.5456   18.0512  -14.0311 N   0  0  0  0  0  0  0  0  0  0  0  0
  -31.0402   19.3585  -16.7731 N   0  0  0  0  0  0  0  0  0  0  0  0
  -30.5462   19.3776  -17.9892 C   0  0  0  0  0  0  0  0  0  0  0  0
  -29.8615   18.2431  -18.3252 N   0  0  0  0  0  0  0  0  0  0  0  0
  1  2  2  0  0  0  0
  1  6  1  0  0  0  0
  2  3  1  0  0  0  0
  3  4  2  0  0  0  0
  4  5  1  0  0  0  0
  4 10  1  0  0  0  0
  5  6  2  0  0  0  0
  5  8  1  0  0  0  0
  6  7  1  0  0  0  0
  8  9  1  0  0  0  0
  9 10  2  0  0  0  0
M  END
>  <CHROM.1>
-30.38618796,17.62386854,-16.33702223,-1.71769740,1.00539966,-0.86054476

>  <Name>
ligand

>  <RI>
0

>  <Rbt.Current_Directory>
/home/itssahil/PROJECTS/Mol_Feturizer/New_Systems/rnas/4TZY

>  <Rbt.Executable>
rbdock ($Id: //depot/dev/client3/rdock/2013.1/src/exe/rbdock.cxx#4 $)

>  <Rbt.Library>
libRbt.so (2013.1, Build901 2013/11/27)

>  <Rbt.Parameter_File>
/export/apps/rDock/src/rDock_2013.1_src/data/scripts/dock_solv.prm

>  <Rbt.Receptor>
prm/blind_docking_100.prm

>  <SCORE>
-13.5555

>  <SCORE.INTER>
-13.5555

>  <SCORE.INTER.CONST>
1

>  <SCORE.INTER.POLAR>
0

>  <SCORE.INTER.ROT>
0

>  <SCORE.INTER.SOLV>
12.4376

>  <SCORE.INTER.VDW>
-16.7829

>  <SCORE.INTER.norm>
-1.35555

>  <SCORE.INTRA>
0

>  <SCORE.INTRA.DIHEDRAL>
0

>  <SCORE.INTRA.DIHEDRAL.0>
0

>  <SCORE.INTRA.POLAR>
0

>  <SCORE.INTRA.POLAR.0>
0

>  <SCORE.INTRA.REPUL>
0

>  <SCORE.INTRA.REPUL.0>
0

>  <SCORE.INTRA.SOLV>
0

>  <SCORE.INTRA.SOLV.lig_0>
-23.8941

>  <SCORE.INTRA.VDW>
0

>  <SCORE.INTRA.VDW.0>
0

>  <SCORE.INTRA.norm>
0

>  <SCORE.RESTR>
0

>  <SCORE.RESTR.CAVITY>
0

>  <SCORE.RESTR.norm>
0

>  <SCORE.SYSTEM>
0

>  <SCORE.SYSTEM.CONST>
0

>  <SCORE.SYSTEM.DIHEDRAL>
0

>  <SCORE.SYSTEM.SOLV>
0

>  <SCORE.SYSTEM.norm>
0

>  <SCORE.heavy>
10

>  <SCORE.norm>
-1.35555

>  <RMSD>
2.413

$$$$
ligand
 OpenBabel11021811513D
libRbt.so/2013.1/901 2013/11/27
 10 11  0  0  0  0  0  0  0  0999 V2000
  -30.3498   16.3637  -14.8509 N   0  0  0  0  0  0  0  0  0  0  0  0
  -29.6832   15.7473  -15.8348 C   0  0  0  0  0  0  0  0  0  0  0  0
  -29.4233   16.1782  -17.0680 N   0  0  0  0  0  0  0  0  0  0  0  0
  -29.9362   17.4029  -17.2633 C   0  0  0  0  0  0  0  0  0  0  0  0
  -30.6452   18.1603  -16.3515 C   0  0  0  0  0  0  0  0  0  0  0  0
  -30.8534   17.5940  -15.0781 C   0  0  0  0  0  0  0  0  0  0  0  0
  -31.5204   18.2123  -14.0973 N   0  0  0  0  0  0  0  0  0  0  0  0
  -31.0169   19.3742  -16.9044 N   0  0  0  0  0  0  0  0  0  0  0  0
  -30.5327   19.3251  -18.1236 C   0  0  0  0  0  0  0  0  0  0  0  0
  -29.8690   18.1643  -18.4081 N   0  0  0  0  0  0  0  0  0  0  0  0
  1  2  2  0  0  0  0
  1  6  1  0  0  0  0
  2  3  1  0  0  0  0
  3  4  2  0  0  0  0
  4  5  1  0  0  0  0
  4 10  1  0  0  0  0
  5  6  2  0  0  0  0
  5  8  1  0  0  0  0
  6  7  1  0  0  0  0
  8  9  1  0  0  0  0
  9 10  2  0  0  0  0
M  END
>  <CHROM.1>
-30.38707417,17.65272620,-16.38787626,-1.72565800,1.02288249,-0.90325547

>  <Name>
ligand

>  <RI>
0

>  <Rbt.Current_Directory>
/home/itssahil/PROJECTS/Mol_Feturizer/New_Systems/rnas/4TZY

>  <Rbt.Executable>
rbdock ($Id: //depot/dev/client3/rdock/2013.1/src/exe/rbdock.cxx#4 $)

>  <Rbt.Library>
libRbt.so (2013.1, Build901 2013/11/27)

>  <Rbt.Parameter_File>
/export/apps/rDock/src/rDock_2013.1_src/data/scripts/dock_solv.prm

>  <Rbt.Receptor>
prm/pocket_docking_6.prm

>  <SCORE>
-13.5012

>  <SCORE.INTER>
-13.5012

>  <SCORE.INTER.CONST>
1

>  <SCORE.INTER.POLAR>
0

>  <SCORE.INTER.ROT>
0

>  <SCORE.INTER.SOLV>
12.4246

>  <SCORE.INTER.VDW>
-16.7423

>  <SCORE.INTER.norm>
-1.35012

>  <SCORE.INTRA>
0

>  <SCORE.INTRA.DIHEDRAL>
0

>  <SCORE.INTRA.DIHEDRAL.0>
0

>  <SCORE.INTRA.POLAR>
0

>  <SCORE.INTRA.POLAR.0>
0

>  <SCORE.INTRA.REPUL>
0

>  <SCORE.INTRA.REPUL.0>
0

>  <SCORE.INTRA.SOLV>
0

>  <SCORE.INTRA.SOLV.lig_0>
-23.8941

>  <SCORE.INTRA.VDW>
0

>  <SCORE.INTRA.VDW.0>
0

>  <SCORE.INTRA.norm>
0

>  <SCORE.RESTR>
0

>  <SCORE.RESTR.CAVITY>
0

>  <SCORE.RESTR.norm>
0

>  <SCORE.SYSTEM>
0

>  <SCORE.SYSTEM.CONST>
0

>  <SCORE.SYSTEM.DIHEDRAL>
0

>  <SCORE.SYSTEM.SOLV>
0

>  <SCORE.SYSTEM.norm>
0

>  <SCORE.heavy>
10

>  <SCORE.norm>
-1.35012

>  <RMSD>
2.413

$$$$
ligand
 OpenBabel11021811513D
libRbt.so/2013.1/901 2013/11/27
 10 11  0  0  0  0  0  0  0  0999 V2000
  -30.3498   16.2641  -14.8643 N   0  0  0  0  0  0  0  0  0  0  0  0
  -29.6637   15.7056  -15.8692 C   0  0  0  0  0  0  0  0  0  0  0  0
  -29.3966   16.1996  -17.0769 N   0  0  0  0  0  0  0  0  0  0  0  0
  -29.9251   17.4251  -17.2185 C   0  0  0  0  0  0  0  0  0  0  0  0
  -30.6548   18.1273  -16.2793 C   0  0  0  0  0  0  0  0  0  0  0  0
  -30.8687   17.4968  -15.0373 C   0  0  0  0  0  0  0  0  0  0  0  0
  -31.5551   18.0573  -14.0355 N   0  0  0  0  0  0  0  0  0  0  0  0
  -31.0381   19.3613  -16.7769 N   0  0  0  0  0  0  0  0  0  0  0  0
  -30.5400   19.3784  -17.9914 C   0  0  0  0  0  0  0  0  0  0  0  0
  -29.8565   18.2422  -18.3242 N   0  0  0  0  0  0  0  0  0  0  0  0
  1  2  2  0  0  0  0
  1  6  1  0  0  0  0
  2  3  1  0  0  0  0
  3  4  2  0  0  0  0
  4  5  1  0  0  0  0
  4 10  1  0  0  0  0
  5  6  2  0  0  0  0
  5  8  1  0  0  0  0
  6  7  1  0  0  0  0
  8  9  1  0  0  0  0
  9 10  2  0  0  0  0
M  END
>  <CHROM.1>
-30.38900381,17.62573309,-16.33723939,-1.72484091,1.00476422,-0.85534173

>  <Name>
ligand

>  <RI>
0

>  <Rbt.Current_Directory>
/home/itssahil/PROJECTS/Mol_Feturizer/New_Systems/rnas/4TZY

>  <Rbt.Executable>
rbdock ($Id: //depot/dev/client3/rdock/2013.1/src/exe/rbdock.cxx#4 $)

>  <Rbt.Library>
libRbt.so (2013.1, Build901 2013/11/27)

>  <Rbt.Parameter_File>
/export/apps/rDock/src/rDock_2013.1_src/data/scripts/dock_solv.prm

>  <Rbt.Receptor>
prm/blind_docking_100.prm

>  <SCORE>
-13.5568

>  <SCORE.INTER>
-13.5568

>  <SCORE.INTER.CONST>
1

>  <SCORE.INTER.POLAR>
0

>  <SCORE.INTER.ROT>
0

>  <SCORE.INTER.SOLV>
12.4488

>  <SCORE.INTER.VDW>
-16.7875

>  <SCORE.INTER.norm>
-1.35568

>  <SCORE.INTRA>
0

>  <SCORE.INTRA.DIHEDRAL>
0

>  <SCORE.INTRA.DIHEDRAL.0>
0

>  <SCORE.INTRA.POLAR>
0

>  <SCORE.INTRA.POLAR.0>
0

>  <SCORE.INTRA.REPUL>
0

>  <SCORE.INTRA.REPUL.0>
0

>  <SCORE.INTRA.SOLV>
0

>  <SCORE.INTRA.SOLV.lig_0>
-23.8941

>  <SCORE.INTRA.VDW>
0

>  <SCORE.INTRA.VDW.0>
0

>  <SCORE.INTRA.norm>
0

>  <SCORE.RESTR>
0

>  <SCORE.RESTR.CAVITY>
0

>  <SCORE.RESTR.norm>
0

>  <SCORE.SYSTEM>
0

>  <SCORE.SYSTEM.CONST>
0

>  <SCORE.SYSTEM.DIHEDRAL>
0

>  <SCORE.SYSTEM.SOLV>
0

>  <SCORE.SYSTEM.norm>
0

>  <SCORE.heavy>
10

>  <SCORE.norm>
-1.35568

>  <RMSD>
2.414

$$$$
ligand
 OpenBabel11021811513D
libRbt.so/2013.1/901 2013/11/27
 10 11  0  0  0  0  0  0  0  0999 V2000
  -30.3409   16.2611  -14.8649 N   0  0  0  0  0  0  0  0  0  0  0  0
  -29.6546   15.7061  -15.8715 C   0  0  0  0  0  0  0  0  0  0  0  0
  -29.3918   16.2020  -17.0794 N   0  0  0  0  0  0  0  0  0  0  0  0
  -29.9254   17.4255  -17.2190 C   0  0  0  0  0  0  0  0  0  0  0  0
  -30.6560   18.1242  -16.2779 C   0  0  0  0  0  0  0  0  0  0  0  0
  -30.8649   17.4919  -15.0360 C   0  0  0  0  0  0  0  0  0  0  0  0
  -31.5516   18.0490  -14.0324 N   0  0  0  0  0  0  0  0  0  0  0  0
  -31.0450   19.3570  -16.7738 N   0  0  0  0  0  0  0  0  0  0  0  0
  -30.5494   19.3770  -17.9892 C   0  0  0  0  0  0  0  0  0  0  0  0
  -29.8621   18.2437  -18.3242 N   0  0  0  0  0  0  0  0  0  0  0  0
  1  2  2  0  0  0  0
  1  6  1  0  0  0  0
  2  3  1  0  0  0  0
  3  4  2  0  0  0  0
  4  5  1  0  0  0  0
  4 10  1  0  0  0  0
  5  6  2  0  0  0  0
  5  8  1  0  0  0  0
  6  7  1  0  0  0  0
  8  9  1  0  0  0  0
  9 10  2  0  0  0  0
M  END
>  <CHROM.1>
-30.38830793,17.62365801,-16.33671381,-1.71733045,1.00309085,-0.86093274

>  <Name>
ligand

>  <RI>
0

>  <Rbt.Current_Directory>
/home/itssahil/PROJECTS/Mol_Feturizer/New_Systems/rnas/4TZY

>  <Rbt.Executable>
rbdock ($Id: //depot/dev/client3/rdock/2013.1/src/exe/rbdock.cxx#4 $)

>  <Rbt.Library>
libRbt.so (2013.1, Build901 2013/11/27)

>  <Rbt.Parameter_File>
/export/apps/rDock/src/rDock_2013.1_src/data/scripts/dock_solv.prm

>  <Rbt.Receptor>
prm/blind_docking_100.prm

>  <SCORE>
-13.5553

>  <SCORE.INTER>
-13.5553

>  <SCORE.INTER.CONST>
1

>  <SCORE.INTER.POLAR>
0

>  <SCORE.INTER.ROT>
0

>  <SCORE.INTER.SOLV>
12.4372

>  <SCORE.INTER.VDW>
-16.7826

>  <SCORE.INTER.norm>
-1.35553

>  <SCORE.INTRA>
0

>  <SCORE.INTRA.DIHEDRAL>
0

>  <SCORE.INTRA.DIHEDRAL.0>
0

>  <SCORE.INTRA.POLAR>
0

>  <SCORE.INTRA.POLAR.0>
0

>  <SCORE.INTRA.REPUL>
0

>  <SCORE.INTRA.REPUL.0>
0

>  <SCORE.INTRA.SOLV>
0

>  <SCORE.INTRA.SOLV.lig_0>
-23.8941

>  <SCORE.INTRA.VDW>
0

>  <SCORE.INTRA.VDW.0>
0

>  <SCORE.INTRA.norm>
0

>  <SCORE.RESTR>
0

>  <SCORE.RESTR.CAVITY>
0

>  <SCORE.RESTR.norm>
0

>  <SCORE.SYSTEM>
0

>  <SCORE.SYSTEM.CONST>
0

>  <SCORE.SYSTEM.DIHEDRAL>
0

>  <SCORE.SYSTEM.SOLV>
0

>  <SCORE.SYSTEM.norm>
0

>  <SCORE.heavy>
10

>  <SCORE.norm>
-1.35553

>  <RMSD>
2.414

$$$$
ligand
 OpenBabel11021811513D
libRbt.so/2013.1/901 2013/11/27
 10 11  0  0  0  0  0  0  0  0999 V2000
  -30.3105   16.3004  -14.9027 N   0  0  0  0  0  0  0  0  0  0  0  0
  -29.6433   15.7329  -15.9152 C   0  0  0  0  0  0  0  0  0  0  0  0
  -29.3996   16.2156  -17.1324 N   0  0  0  0  0  0  0  0  0  0  0  0
  -29.9317   17.4395  -17.2754 C   0  0  0  0  0  0  0  0  0  0  0  0
  -30.6439   18.1500  -16.3290 C   0  0  0  0  0  0  0  0  0  0  0  0
  -30.8335   17.5311  -15.0774 C   0  0  0  0  0  0  0  0  0  0  0  0
  -31.5012   18.1006  -14.0679 N   0  0  0  0  0  0  0  0  0  0  0  0
  -31.0375   19.3790  -16.8308 N   0  0  0  0  0  0  0  0  0  0  0  0
  -30.5628   19.3850  -18.0547 C   0  0  0  0  0  0  0  0  0  0  0  0
  -29.8848   18.2462  -18.3898 N   0  0  0  0  0  0  0  0  0  0  0  0
  1  2  2  0  0  0  0
  1  6  1  0  0  0  0
  2  3  1  0  0  0  0
  3  4  2  0  0  0  0
  4  5  1  0  0  0  0
  4 10  1  0  0  0  0
  5  6  2  0  0  0  0
  5  8  1  0  0  0  0
  6  7  1  0  0  0  0
  8  9  1  0  0  0  0
  9 10  2  0  0  0  0
M  END
>  <CHROM.1>
-30.37886016,17.64805756,-16.38733777,-1.69652119,1.01653395,-0.88872404

>  <Name>
ligand

>  <RI>
0

>  <Rbt.Current_Directory>
/home/itssahil/PROJECTS/Mol_Feturizer/New_Systems/rnas/4TZY

>  <Rbt.Executable>
rbdock ($Id: //depot/dev/client3/rdock/2013.1/src/exe/rbdock.cxx#4 $)

>  <Rbt.Library>
libRbt.so (2013.1, Build901 2013/11/27)

>  <Rbt.Parameter_File>
/export/apps/rDock/src/rDock_2013.1_src/data/scripts/dock_solv.prm

>  <Rbt.Receptor>
prm/blind_docking_60.prm

>  <SCORE>
-13.5195

>  <SCORE.INTER>
-13.5195

>  <SCORE.INTER.CONST>
1

>  <SCORE.INTER.POLAR>
0

>  <SCORE.INTER.ROT>
0

>  <SCORE.INTER.SOLV>
12.3371

>  <SCORE.INTER.VDW>
-16.7253

>  <SCORE.INTER.norm>
-1.35195

>  <SCORE.INTRA>
0

>  <SCORE.INTRA.DIHEDRAL>
0

>  <SCORE.INTRA.DIHEDRAL.0>
0

>  <SCORE.INTRA.POLAR>
0

>  <SCORE.INTRA.POLAR.0>
0

>  <SCORE.INTRA.REPUL>
0

>  <SCORE.INTRA.REPUL.0>
0

>  <SCORE.INTRA.SOLV>
0

>  <SCORE.INTRA.SOLV.lig_0>
-23.8941

>  <SCORE.INTRA.VDW>
0

>  <SCORE.INTRA.VDW.0>
0

>  <SCORE.INTRA.norm>
0

>  <SCORE.RESTR>
0

>  <SCORE.RESTR.CAVITY>
0

>  <SCORE.RESTR.norm>
0

>  <SCORE.SYSTEM>
0

>  <SCORE.SYSTEM.CONST>
0

>  <SCORE.SYSTEM.DIHEDRAL>
0

>  <SCORE.SYSTEM.SOLV>
0

>  <SCORE.SYSTEM.norm>
0

>  <SCORE.heavy>
10

>  <SCORE.norm>
-1.35195

>  <RMSD>
2.414

$$$$
ligand
 OpenBabel11021811513D
libRbt.so/2013.1/901 2013/11/27
 10 11  0  0  0  0  0  0  0  0999 V2000
  -30.3484   16.2601  -14.8717 N   0  0  0  0  0  0  0  0  0  0  0  0
  -29.6709   15.6981  -15.8805 C   0  0  0  0  0  0  0  0  0  0  0  0
  -29.4057   16.1919  -17.0887 N   0  0  0  0  0  0  0  0  0  0  0  0
  -29.9260   17.4214  -17.2261 C   0  0  0  0  0  0  0  0  0  0  0  0
  -30.6464   18.1275  -16.2827 C   0  0  0  0  0  0  0  0  0  0  0  0
  -30.8592   17.4967  -15.0407 C   0  0  0  0  0  0  0  0  0  0  0  0
  -31.5371   18.0607  -14.0349 N   0  0  0  0  0  0  0  0  0  0  0  0
  -31.0230   19.3649  -16.7768 N   0  0  0  0  0  0  0  0  0  0  0  0
  -30.5303   19.3802  -17.9934 C   0  0  0  0  0  0  0  0  0  0  0  0
  -29.8565   18.2396  -18.3310 N   0  0  0  0  0  0  0  0  0  0  0  0
  1  2  2  0  0  0  0
  1  6  1  0  0  0  0
  2  3  1  0  0  0  0
  3  4  2  0  0  0  0
  4  5  1  0  0  0  0
  4 10  1  0  0  0  0
  5  6  2  0  0  0  0
  5  8  1  0  0  0  0
  6  7  1  0  0  0  0
  8  9  1  0  0  0  0
  9 10  2  0  0  0  0
M  END
>  <CHROM.1>
-30.38449298,17.62406337,-16.34251497,-1.72734128,1.01315838,-0.85177762

>  <Name>
ligand

>  <RI>
0

>  <Rbt.Current_Directory>
/home/itssahil/PROJECTS/Mol_Feturizer/New_Systems/rnas/4TZY

>  <Rbt.Executable>
rbdock ($Id: //depot/dev/client3/rdock/2013.1/src/exe/rbdock.cxx#4 $)

>  <Rbt.Library>
libRbt.so (2013.1, Build901 2013/11/27)

>  <Rbt.Parameter_File>
/export/apps/rDock/src/rDock_2013.1_src/data/scripts/dock_solv.prm

>  <Rbt.Receptor>
prm/blind_docking_60.prm

>  <SCORE>
-13.5524

>  <SCORE.INTER>
-13.5524

>  <SCORE.INTER.CONST>
1

>  <SCORE.INTER.POLAR>
0

>  <SCORE.INTER.ROT>
0

>  <SCORE.INTER.SOLV>
12.4434

>  <SCORE.INTER.VDW>
-16.7827

>  <SCORE.INTER.norm>
-1.35524

>  <SCORE.INTRA>
0

>  <SCORE.INTRA.DIHEDRAL>
0

>  <SCORE.INTRA.DIHEDRAL.0>
0

>  <SCORE.INTRA.POLAR>
0

>  <SCORE.INTRA.POLAR.0>
0

>  <SCORE.INTRA.REPUL>
0

>  <SCORE.INTRA.REPUL.0>
0

>  <SCORE.INTRA.SOLV>
0

>  <SCORE.INTRA.SOLV.lig_0>
-23.8941

>  <SCORE.INTRA.VDW>
0

>  <SCORE.INTRA.VDW.0>
0

>  <SCORE.INTRA.norm>
0

>  <SCORE.RESTR>
0

>  <SCORE.RESTR.CAVITY>
0

>  <SCORE.RESTR.norm>
0

>  <SCORE.SYSTEM>
0

>  <SCORE.SYSTEM.CONST>
0

>  <SCORE.SYSTEM.DIHEDRAL>
0

>  <SCORE.SYSTEM.SOLV>
0

>  <SCORE.SYSTEM.norm>
0

>  <SCORE.heavy>
10

>  <SCORE.norm>
-1.35524

>  <RMSD>
2.414

$$$$
ligand
 OpenBabel11021811513D
libRbt.so/2013.1/901 2013/11/27
 10 11  0  0  0  0  0  0  0  0999 V2000
  -30.3455   16.2709  -14.8566 N   0  0  0  0  0  0  0  0  0  0  0  0
  -29.6600   15.7111  -15.8611 C   0  0  0  0  0  0  0  0  0  0  0  0
  -29.3940   16.2033  -17.0697 N   0  0  0  0  0  0  0  0  0  0  0  0
  -29.9230   17.4285  -17.2128 C   0  0  0  0  0  0  0  0  0  0  0  0
  -30.6522   18.1318  -16.2741 C   0  0  0  0  0  0  0  0  0  0  0  0
  -30.8649   17.5032  -15.0311 C   0  0  0  0  0  0  0  0  0  0  0  0
  -31.5508   18.0650  -14.0296 N   0  0  0  0  0  0  0  0  0  0  0  0
  -31.0362   19.3650  -16.7734 N   0  0  0  0  0  0  0  0  0  0  0  0
  -30.5390   19.3804  -17.9882 C   0  0  0  0  0  0  0  0  0  0  0  0
  -29.8554   18.2439  -18.3198 N   0  0  0  0  0  0  0  0  0  0  0  0
  1  2  2  0  0  0  0
  1  6  1  0  0  0  0
  2  3  1  0  0  0  0
  3  4  2  0  0  0  0
  4  5  1  0  0  0  0
  4 10  1  0  0  0  0
  5  6  2  0  0  0  0
  5  8  1  0  0  0  0
  6  7  1  0  0  0  0
  8  9  1  0  0  0  0
  9 10  2  0  0  0  0
M  END
>  <CHROM.1>
-30.38627082,17.63024163,-16.33151658,-1.72342804,1.00502684,-0.85805023

>  <Name>
ligand

>  <RI>
0

>  <Rbt.Current_Directory>
/home/itssahil/PROJECTS/Mol_Feturizer/New_Systems/rnas/4TZY

>  <Rbt.Executable>
rbdock ($Id: //depot/dev/client3/rdock/2013.1/src/exe/rbdock.cxx#4 $)

>  <Rbt.Library>
libRbt.so (2013.1, Build901 2013/11/27)

>  <Rbt.Parameter_File>
/export/apps/rDock/src/rDock_2013.1_src/data/scripts/dock_solv.prm

>  <Rbt.Receptor>
prm/blind_docking_80.prm

>  <SCORE>
-13.5549

>  <SCORE.INTER>
-13.5549

>  <SCORE.INTER.CONST>
1

>  <SCORE.INTER.POLAR>
0

>  <SCORE.INTER.ROT>
0

>  <SCORE.INTER.SOLV>
12.4635

>  <SCORE.INTER.VDW>
-16.7911

>  <SCORE.INTER.norm>
-1.35549

>  <SCORE.INTRA>
0

>  <SCORE.INTRA.DIHEDRAL>
0

>  <SCORE.INTRA.DIHEDRAL.0>
0

>  <SCORE.INTRA.POLAR>
0

>  <SCORE.INTRA.POLAR.0>
0

>  <SCORE.INTRA.REPUL>
0

>  <SCORE.INTRA.REPUL.0>
0

>  <SCORE.INTRA.SOLV>
0

>  <SCORE.INTRA.SOLV.lig_0>
-23.8941

>  <SCORE.INTRA.VDW>
0

>  <SCORE.INTRA.VDW.0>
0

>  <SCORE.INTRA.norm>
0

>  <SCORE.RESTR>
0

>  <SCORE.RESTR.CAVITY>
0

>  <SCORE.RESTR.norm>
0

>  <SCORE.SYSTEM>
0

>  <SCORE.SYSTEM.CONST>
0

>  <SCORE.SYSTEM.DIHEDRAL>
0

>  <SCORE.SYSTEM.SOLV>
0

>  <SCORE.SYSTEM.norm>
0

>  <SCORE.heavy>
10

>  <SCORE.norm>
-1.35549

>  <RMSD>
2.414

$$$$
ligand
 OpenBabel11021811513D
libRbt.so/2013.1/901 2013/11/27
 10 11  0  0  0  0  0  0  0  0999 V2000
  -30.3782   16.2070  -14.8618 N   0  0  0  0  0  0  0  0  0  0  0  0
  -29.7040   15.6568  -15.8793 C   0  0  0  0  0  0  0  0  0  0  0  0
  -29.4405   16.1657  -17.0816 N   0  0  0  0  0  0  0  0  0  0  0  0
  -29.9587   17.3979  -17.2020 C   0  0  0  0  0  0  0  0  0  0  0  0
  -30.6756   18.0930  -16.2478 C   0  0  0  0  0  0  0  0  0  0  0  0
  -30.8869   17.4467  -15.0136 C   0  0  0  0  0  0  0  0  0  0  0  0
  -31.5615   17.9989  -13.9992 N   0  0  0  0  0  0  0  0  0  0  0  0
  -31.0509   19.3375  -16.7251 N   0  0  0  0  0  0  0  0  0  0  0  0
  -30.5609   19.3676  -17.9426 C   0  0  0  0  0  0  0  0  0  0  0  0
  -29.8901   18.2301  -18.2963 N   0  0  0  0  0  0  0  0  0  0  0  0
  1  2  2  0  0  0  0
  1  6  1  0  0  0  0
  2  3  1  0  0  0  0
  3  4  2  0  0  0  0
  4  5  1  0  0  0  0
  4 10  1  0  0  0  0
  5  6  2  0  0  0  0
  5  8  1  0  0  0  0
  6  7  1  0  0  0  0
  8  9  1  0  0  0  0
  9 10  2  0  0  0  0
M  END
>  <CHROM.1>
-30.41482945,17.58992888,-16.31479079,-1.72662999,1.01608576,-0.83945847

>  <Name>
ligand

>  <RI>
0

>  <Rbt.Current_Directory>
/home/itssahil/PROJECTS/Mol_Feturizer/New_Systems/rnas/4TZY

>  <Rbt.Executable>
rbdock ($Id: //depot/dev/client3/rdock/2013.1/src/exe/rbdock.cxx#4 $)

>  <Rbt.Library>
libRbt.so (2013.1, Build901 2013/11/27)

>  <Rbt.Parameter_File>
/export/apps/rDock/src/rDock_2013.1_src/data/scripts/dock_solv.prm

>  <Rbt.Receptor>
prm/blind_docking_80.prm

>  <SCORE>
-13.499

>  <SCORE.INTER>
-13.499

>  <SCORE.INTER.CONST>
1

>  <SCORE.INTER.POLAR>
0

>  <SCORE.INTER.ROT>
0

>  <SCORE.INTER.SOLV>
12.5027

>  <SCORE.INTER.VDW>
-16.7669

>  <SCORE.INTER.norm>
-1.3499

>  <SCORE.INTRA>
0

>  <SCORE.INTRA.DIHEDRAL>
0

>  <SCORE.INTRA.DIHEDRAL.0>
0

>  <SCORE.INTRA.POLAR>
0

>  <SCORE.INTRA.POLAR.0>
0

>  <SCORE.INTRA.REPUL>
0

>  <SCORE.INTRA.REPUL.0>
0

>  <SCORE.INTRA.SOLV>
0

>  <SCORE.INTRA.SOLV.lig_0>
-23.8941

>  <SCORE.INTRA.VDW>
0

>  <SCORE.INTRA.VDW.0>
0

>  <SCORE.INTRA.norm>
0

>  <SCORE.RESTR>
0

>  <SCORE.RESTR.CAVITY>
0

>  <SCORE.RESTR.norm>
0

>  <SCORE.SYSTEM>
0

>  <SCORE.SYSTEM.CONST>
0

>  <SCORE.SYSTEM.DIHEDRAL>
0

>  <SCORE.SYSTEM.SOLV>
0

>  <SCORE.SYSTEM.norm>
0

>  <SCORE.heavy>
10

>  <SCORE.norm>
-1.3499

>  <RMSD>
2.414

$$$$
ligand
 OpenBabel11021811513D
libRbt.so/2013.1/901 2013/11/27
 10 11  0  0  0  0  0  0  0  0999 V2000
  -30.3435   16.2596  -14.8638 N   0  0  0  0  0  0  0  0  0  0  0  0
  -29.6573   15.7033  -15.8698 C   0  0  0  0  0  0  0  0  0  0  0  0
  -29.3915   16.1992  -17.0771 N   0  0  0  0  0  0  0  0  0  0  0  0
  -29.9218   17.4242  -17.2168 C   0  0  0  0  0  0  0  0  0  0  0  0
  -30.6519   18.1242  -16.2763 C   0  0  0  0  0  0  0  0  0  0  0  0
  -30.8642   17.4918  -15.0350 C   0  0  0  0  0  0  0  0  0  0  0  0
  -31.5508   18.0501  -14.0320 N   0  0  0  0  0  0  0  0  0  0  0  0
  -31.0370   19.3583  -16.7721 N   0  0  0  0  0  0  0  0  0  0  0  0
  -30.5397   19.3776  -17.9868 C   0  0  0  0  0  0  0  0  0  0  0  0
  -29.8549   18.2428  -18.3215 N   0  0  0  0  0  0  0  0  0  0  0  0
  1  2  2  0  0  0  0
  1  6  1  0  0  0  0
  2  3  1  0  0  0  0
  3  4  2  0  0  0  0
  4  5  1  0  0  0  0
  4 10  1  0  0  0  0
  5  6  2  0  0  0  0
  5  8  1  0  0  0  0
  6  7  1  0  0  0  0
  8  9  1  0  0  0  0
  9 10  2  0  0  0  0
M  END
>  <CHROM.1>
-30.38542221,17.62301169,-16.33500574,-1.72239978,1.00414330,-0.85611905

>  <Name>
ligand

>  <RI>
0

>  <Rbt.Current_Directory>
/home/itssahil/PROJECTS/Mol_Feturizer/New_Systems/rnas/4TZY

>  <Rbt.Executable>
rbdock ($Id: //depot/dev/client3/rdock/2013.1/src/exe/rbdock.cxx#4 $)

>  <Rbt.Library>
libRbt.so (2013.1, Build901 2013/11/27)

>  <Rbt.Parameter_File>
/export/apps/rDock/src/rDock_2013.1_src/data/scripts/dock_solv.prm

>  <Rbt.Receptor>
prm/blind_docking_80.prm

>  <SCORE>
-13.557

>  <SCORE.INTER>
-13.557

>  <SCORE.INTER.CONST>
1

>  <SCORE.INTER.POLAR>
0

>  <SCORE.INTER.ROT>
0

>  <SCORE.INTER.SOLV>
12.4432

>  <SCORE.INTER.VDW>
-16.7857

>  <SCORE.INTER.norm>
-1.3557

>  <SCORE.INTRA>
0

>  <SCORE.INTRA.DIHEDRAL>
0

>  <SCORE.INTRA.DIHEDRAL.0>
0

>  <SCORE.INTRA.POLAR>
0

>  <SCORE.INTRA.POLAR.0>
0

>  <SCORE.INTRA.REPUL>
0

>  <SCORE.INTRA.REPUL.0>
0

>  <SCORE.INTRA.SOLV>
0

>  <SCORE.INTRA.SOLV.lig_0>
-23.8941

>  <SCORE.INTRA.VDW>
0

>  <SCORE.INTRA.VDW.0>
0

>  <SCORE.INTRA.norm>
0

>  <SCORE.RESTR>
0

>  <SCORE.RESTR.CAVITY>
0

>  <SCORE.RESTR.norm>
0

>  <SCORE.SYSTEM>
0

>  <SCORE.SYSTEM.CONST>
0

>  <SCORE.SYSTEM.DIHEDRAL>
0

>  <SCORE.SYSTEM.SOLV>
0

>  <SCORE.SYSTEM.norm>
0

>  <SCORE.heavy>
10

>  <SCORE.norm>
-1.3557

>  <RMSD>
2.414

$$$$
ligand
 OpenBabel11021811513D
libRbt.so/2013.1/901 2013/11/27
 10 11  0  0  0  0  0  0  0  0999 V2000
  -30.3494   16.2572  -14.8686 N   0  0  0  0  0  0  0  0  0  0  0  0
  -29.6626   15.7013  -15.8744 C   0  0  0  0  0  0  0  0  0  0  0  0
  -29.3959   16.1978  -17.0812 N   0  0  0  0  0  0  0  0  0  0  0  0
  -29.9257   17.4230  -17.2206 C   0  0  0  0  0  0  0  0  0  0  0  0
  -30.6563   18.1226  -16.2802 C   0  0  0  0  0  0  0  0  0  0  0  0
  -30.8696   17.4896  -15.0394 C   0  0  0  0  0  0  0  0  0  0  0  0
  -31.5568   18.0475  -14.0366 N   0  0  0  0  0  0  0  0  0  0  0  0
  -31.0408   19.3572  -16.7756 N   0  0  0  0  0  0  0  0  0  0  0  0
  -30.5426   19.3771  -17.9899 C   0  0  0  0  0  0  0  0  0  0  0  0
  -29.8578   18.2422  -18.3247 N   0  0  0  0  0  0  0  0  0  0  0  0
  1  2  2  0  0  0  0
  1  6  1  0  0  0  0
  2  3  1  0  0  0  0
  3  4  2  0  0  0  0
  4  5  1  0  0  0  0
  4 10  1  0  0  0  0
  5  6  2  0  0  0  0
  5  8  1  0  0  0  0
  6  7  1  0  0  0  0
  8  9  1  0  0  0  0
  9 10  2  0  0  0  0
M  END
>  <CHROM.1>
-30.38991554,17.62145543,-16.33899984,-1.72373880,1.00386414,-0.85441105

>  <Name>
ligand

>  <RI>
0

>  <Rbt.Current_Directory>
/home/itssahil/PROJECTS/Mol_Feturizer/New_Systems/rnas/4TZY

>  <Rbt.Executable>
rbdock ($Id: //depot/dev/client3/rdock/2013.1/src/exe/rbdock.cxx#4 $)

>  <Rbt.Library>
libRbt.so (2013.1, Build901 2013/11/27)

>  <Rbt.Parameter_File>
/export/apps/rDock/src/rDock_2013.1_src/data/scripts/dock_solv.prm

>  <Rbt.Receptor>
prm/blind_docking_80.prm

>  <SCORE>
-13.5562

>  <SCORE.INTER>
-13.5562

>  <SCORE.INTER.CONST>
1

>  <SCORE.INTER.POLAR>
0

>  <SCORE.INTER.ROT>
0

>  <SCORE.INTER.SOLV>
12.4382

>  <SCORE.INTER.VDW>
-16.7835

>  <SCORE.INTER.norm>
-1.35562

>  <SCORE.INTRA>
0

>  <SCORE.INTRA.DIHEDRAL>
0

>  <SCORE.INTRA.DIHEDRAL.0>
0

>  <SCORE.INTRA.POLAR>
0

>  <SCORE.INTRA.POLAR.0>
0

>  <SCORE.INTRA.REPUL>
0

>  <SCORE.INTRA.REPUL.0>
0

>  <SCORE.INTRA.SOLV>
0

>  <SCORE.INTRA.SOLV.lig_0>
-23.8941

>  <SCORE.INTRA.VDW>
0

>  <SCORE.INTRA.VDW.0>
0

>  <SCORE.INTRA.norm>
0

>  <SCORE.RESTR>
0

>  <SCORE.RESTR.CAVITY>
0

>  <SCORE.RESTR.norm>
0

>  <SCORE.SYSTEM>
0

>  <SCORE.SYSTEM.CONST>
0

>  <SCORE.SYSTEM.DIHEDRAL>
0

>  <SCORE.SYSTEM.SOLV>
0

>  <SCORE.SYSTEM.norm>
0

>  <SCORE.heavy>
10

>  <SCORE.norm>
-1.35562

>  <RMSD>
2.414

$$$$
ligand
 OpenBabel11021811513D
libRbt.so/2013.1/901 2013/11/27
 10 11  0  0  0  0  0  0  0  0999 V2000
  -30.3455   16.2652  -14.8652 N   0  0  0  0  0  0  0  0  0  0  0  0
  -29.6628   15.7064  -15.8722 C   0  0  0  0  0  0  0  0  0  0  0  0
  -29.3991   16.2003  -17.0807 N   0  0  0  0  0  0  0  0  0  0  0  0
  -29.9273   17.4262  -17.2206 C   0  0  0  0  0  0  0  0  0  0  0  0
  -30.6538   18.1287  -16.2792 C   0  0  0  0  0  0  0  0  0  0  0  0
  -30.8642   17.4982  -15.0366 C   0  0  0  0  0  0  0  0  0  0  0  0
  -31.5473   18.0590  -14.0326 N   0  0  0  0  0  0  0  0  0  0  0  0
  -31.0378   19.3629  -16.7755 N   0  0  0  0  0  0  0  0  0  0  0  0
  -30.5435   19.3798  -17.9915 C   0  0  0  0  0  0  0  0  0  0  0  0
  -29.8616   18.2433  -18.3265 N   0  0  0  0  0  0  0  0  0  0  0  0
  1  2  2  0  0  0  0
  1  6  1  0  0  0  0
  2  3  1  0  0  0  0
  3  4  2  0  0  0  0
  4  5  1  0  0  0  0
  4 10  1  0  0  0  0
  5  6  2  0  0  0  0
  5  8  1  0  0  0  0
  6  7  1  0  0  0  0
  8  9  1  0  0  0  0
  9 10  2  0  0  0  0
M  END
>  <CHROM.1>
-30.38842468,17.62694620,-16.33793571,-1.72124359,1.00718079,-0.85830583

>  <Name>
ligand

>  <RI>
0

>  <Rbt.Current_Directory>
/home/itssahil/PROJECTS/Mol_Feturizer/New_Systems/rnas/4TZY

>  <Rbt.Executable>
rbdock ($Id: //depot/dev/client3/rdock/2013.1/src/exe/rbdock.cxx#4 $)

>  <Rbt.Library>
libRbt.so (2013.1, Build901 2013/11/27)

>  <Rbt.Parameter_File>
/export/apps/rDock/src/rDock_2013.1_src/data/scripts/dock_solv.prm

>  <Rbt.Receptor>
prm/pocket_docking_8.prm

>  <SCORE>
-13.5546

>  <SCORE.INTER>
-13.5546

>  <SCORE.INTER.CONST>
1

>  <SCORE.INTER.POLAR>
0

>  <SCORE.INTER.ROT>
0

>  <SCORE.INTER.SOLV>
12.4476

>  <SCORE.INTER.VDW>
-16.7856

>  <SCORE.INTER.norm>
-1.35546

>  <SCORE.INTRA>
0

>  <SCORE.INTRA.DIHEDRAL>
0

>  <SCORE.INTRA.DIHEDRAL.0>
0

>  <SCORE.INTRA.POLAR>
0

>  <SCORE.INTRA.POLAR.0>
0

>  <SCORE.INTRA.REPUL>
0

>  <SCORE.INTRA.REPUL.0>
0

>  <SCORE.INTRA.SOLV>
0

>  <SCORE.INTRA.SOLV.lig_0>
-23.8941

>  <SCORE.INTRA.VDW>
0

>  <SCORE.INTRA.VDW.0>
0

>  <SCORE.INTRA.norm>
0

>  <SCORE.RESTR>
0

>  <SCORE.RESTR.CAVITY>
0

>  <SCORE.RESTR.norm>
0

>  <SCORE.SYSTEM>
0

>  <SCORE.SYSTEM.CONST>
0

>  <SCORE.SYSTEM.DIHEDRAL>
0

>  <SCORE.SYSTEM.SOLV>
0

>  <SCORE.SYSTEM.norm>
0

>  <SCORE.heavy>
10

>  <SCORE.norm>
-1.35546

>  <RMSD>
2.414

$$$$
ligand
 OpenBabel11021811513D
libRbt.so/2013.1/901 2013/11/27
 10 11  0  0  0  0  0  0  0  0999 V2000
  -30.3547   16.2584  -14.8714 N   0  0  0  0  0  0  0  0  0  0  0  0
  -29.6695   15.7023  -15.8782 C   0  0  0  0  0  0  0  0  0  0  0  0
  -29.4020   16.1998  -17.0844 N   0  0  0  0  0  0  0  0  0  0  0  0
  -29.9290   17.4265  -17.2219 C   0  0  0  0  0  0  0  0  0  0  0  0
  -30.6577   18.1265  -16.2803 C   0  0  0  0  0  0  0  0  0  0  0  0
  -30.8721   17.4923  -15.0404 C   0  0  0  0  0  0  0  0  0  0  0  0
  -31.5577   18.0504  -14.0366 N   0  0  0  0  0  0  0  0  0  0  0  0
  -31.0395   19.3626  -16.7739 N   0  0  0  0  0  0  0  0  0  0  0  0
  -30.5416   19.3830  -17.9884 C   0  0  0  0  0  0  0  0  0  0  0  0
  -29.8596   18.2471  -18.3250 N   0  0  0  0  0  0  0  0  0  0  0  0
  1  2  2  0  0  0  0
  1  6  1  0  0  0  0
  2  3  1  0  0  0  0
  3  4  2  0  0  0  0
  4  5  1  0  0  0  0
  4 10  1  0  0  0  0
  5  6  2  0  0  0  0
  5  8  1  0  0  0  0
  6  7  1  0  0  0  0
  8  9  1  0  0  0  0
  9 10  2  0  0  0  0
M  END
>  <CHROM.1>
-30.39251181,17.62478223,-16.33995711,-1.72613723,1.00581788,-0.85101100

>  <Name>
ligand

>  <RI>
0

>  <Rbt.Current_Directory>
/home/itssahil/PROJECTS/Mol_Feturizer/New_Systems/rnas/4TZY

>  <Rbt.Executable>
rbdock ($Id: //depot/dev/client3/rdock/2013.1/src/exe/rbdock.cxx#4 $)

>  <Rbt.Library>
libRbt.so (2013.1, Build901 2013/11/27)

>  <Rbt.Parameter_File>
/export/apps/rDock/src/rDock_2013.1_src/data/scripts/dock_solv.prm

>  <Rbt.Receptor>
prm/blind_docking_60.prm

>  <SCORE>
-13.5532

>  <SCORE.INTER>
-13.5532

>  <SCORE.INTER.CONST>
1

>  <SCORE.INTER.POLAR>
0

>  <SCORE.INTER.ROT>
0

>  <SCORE.INTER.SOLV>
12.4472

>  <SCORE.INTER.VDW>
-16.7845

>  <SCORE.INTER.norm>
-1.35532

>  <SCORE.INTRA>
0

>  <SCORE.INTRA.DIHEDRAL>
0

>  <SCORE.INTRA.DIHEDRAL.0>
0

>  <SCORE.INTRA.POLAR>
0

>  <SCORE.INTRA.POLAR.0>
0

>  <SCORE.INTRA.REPUL>
0

>  <SCORE.INTRA.REPUL.0>
0

>  <SCORE.INTRA.SOLV>
0

>  <SCORE.INTRA.SOLV.lig_0>
-23.8941

>  <SCORE.INTRA.VDW>
0

>  <SCORE.INTRA.VDW.0>
0

>  <SCORE.INTRA.norm>
0

>  <SCORE.RESTR>
0

>  <SCORE.RESTR.CAVITY>
0

>  <SCORE.RESTR.norm>
0

>  <SCORE.SYSTEM>
0

>  <SCORE.SYSTEM.CONST>
0

>  <SCORE.SYSTEM.DIHEDRAL>
0

>  <SCORE.SYSTEM.SOLV>
0

>  <SCORE.SYSTEM.norm>
0

>  <SCORE.heavy>
10

>  <SCORE.norm>
-1.35532

>  <RMSD>
2.415

$$$$
ligand
 OpenBabel11021811513D
libRbt.so/2013.1/901 2013/11/27
 10 11  0  0  0  0  0  0  0  0999 V2000
  -30.3097   16.2995  -14.9089 N   0  0  0  0  0  0  0  0  0  0  0  0
  -29.6267   15.7392  -15.9148 C   0  0  0  0  0  0  0  0  0  0  0  0
  -29.3721   16.2268  -17.1278 N   0  0  0  0  0  0  0  0  0  0  0  0
  -29.9107   17.4474  -17.2740 C   0  0  0  0  0  0  0  0  0  0  0  0
  -30.6389   18.1506  -16.3344 C   0  0  0  0  0  0  0  0  0  0  0  0
  -30.8391   17.5272  -15.0866 C   0  0  0  0  0  0  0  0  0  0  0  0
  -31.5225   18.0894  -14.0837 N   0  0  0  0  0  0  0  0  0  0  0  0
  -31.0349   19.3782  -16.8376 N   0  0  0  0  0  0  0  0  0  0  0  0
  -30.5458   19.3907  -18.0558 C   0  0  0  0  0  0  0  0  0  0  0  0
  -29.8562   18.2573  -18.3857 N   0  0  0  0  0  0  0  0  0  0  0  0
  1  2  2  0  0  0  0
  1  6  1  0  0  0  0
  2  3  1  0  0  0  0
  3  4  2  0  0  0  0
  4  5  1  0  0  0  0
  4 10  1  0  0  0  0
  5  6  2  0  0  0  0
  5  8  1  0  0  0  0
  6  7  1  0  0  0  0
  8  9  1  0  0  0  0
  9 10  2  0  0  0  0
M  END
>  <CHROM.1>
-30.36974607,17.65061346,-16.39078777,-1.70559843,1.00377191,-0.87845657

>  <Name>
ligand

>  <RI>
0

>  <Rbt.Current_Directory>
/home/itssahil/PROJECTS/Mol_Feturizer/New_Systems/rnas/4TZY

>  <Rbt.Executable>
rbdock ($Id: //depot/dev/client3/rdock/2013.1/src/exe/rbdock.cxx#4 $)

>  <Rbt.Library>
libRbt.so (2013.1, Build901 2013/11/27)

>  <Rbt.Parameter_File>
/export/apps/rDock/src/rDock_2013.1_src/data/scripts/dock_solv.prm

>  <Rbt.Receptor>
prm/blind_docking_60.prm

>  <SCORE>
-13.5425

>  <SCORE.INTER>
-13.5425

>  <SCORE.INTER.CONST>
1

>  <SCORE.INTER.POLAR>
0

>  <SCORE.INTER.ROT>
0

>  <SCORE.INTER.SOLV>
12.3149

>  <SCORE.INTER.VDW>
-16.7333

>  <SCORE.INTER.norm>
-1.35425

>  <SCORE.INTRA>
0

>  <SCORE.INTRA.DIHEDRAL>
0

>  <SCORE.INTRA.DIHEDRAL.0>
0

>  <SCORE.INTRA.POLAR>
0

>  <SCORE.INTRA.POLAR.0>
0

>  <SCORE.INTRA.REPUL>
0

>  <SCORE.INTRA.REPUL.0>
0

>  <SCORE.INTRA.SOLV>
0

>  <SCORE.INTRA.SOLV.lig_0>
-23.8941

>  <SCORE.INTRA.VDW>
0

>  <SCORE.INTRA.VDW.0>
0

>  <SCORE.INTRA.norm>
0

>  <SCORE.RESTR>
0

>  <SCORE.RESTR.CAVITY>
0

>  <SCORE.RESTR.norm>
0

>  <SCORE.SYSTEM>
0

>  <SCORE.SYSTEM.CONST>
0

>  <SCORE.SYSTEM.DIHEDRAL>
0

>  <SCORE.SYSTEM.SOLV>
0

>  <SCORE.SYSTEM.norm>
0

>  <SCORE.heavy>
10

>  <SCORE.norm>
-1.35425

>  <RMSD>
2.416

$$$$
ligand
 OpenBabel11021811513D
libRbt.so/2013.1/901 2013/11/27
 10 11  0  0  0  0  0  0  0  0999 V2000
  -30.2907   16.3444  -14.9200 N   0  0  0  0  0  0  0  0  0  0  0  0
  -29.6145   15.7557  -15.9142 C   0  0  0  0  0  0  0  0  0  0  0  0
  -29.3620   16.2117  -17.1399 N   0  0  0  0  0  0  0  0  0  0  0  0
  -29.8950   17.4310  -17.3143 C   0  0  0  0  0  0  0  0  0  0  0  0
  -30.6159   18.1611  -16.3898 C   0  0  0  0  0  0  0  0  0  0  0  0
  -30.8145   17.5699  -15.1262 C   0  0  0  0  0  0  0  0  0  0  0  0
  -31.4911   18.1605  -14.1350 N   0  0  0  0  0  0  0  0  0  0  0  0
  -31.0076   19.3779  -16.9219 N   0  0  0  0  0  0  0  0  0  0  0  0
  -30.5231   19.3576  -18.1418 C   0  0  0  0  0  0  0  0  0  0  0  0
  -29.8406   18.2128  -18.4460 N   0  0  0  0  0  0  0  0  0  0  0  0
  1  2  2  0  0  0  0
  1  6  1  0  0  0  0
  2  3  1  0  0  0  0
  3  4  2  0  0  0  0
  4  5  1  0  0  0  0
  4 10  1  0  0  0  0
  5  6  2  0  0  0  0
  5  8  1  0  0  0  0
  6  7  1  0  0  0  0
  8  9  1  0  0  0  0
  9 10  2  0  0  0  0
M  END
>  <CHROM.1>
-30.34954130,17.65849799,-16.43474480,-1.70615159,1.01014560,-0.90283744

>  <Name>
ligand

>  <RI>
0

>  <Rbt.Current_Directory>
/home/itssahil/PROJECTS/Mol_Feturizer/New_Systems/rnas/4TZY

>  <Rbt.Executable>
rbdock ($Id: //depot/dev/client3/rdock/2013.1/src/exe/rbdock.cxx#4 $)

>  <Rbt.Library>
libRbt.so (2013.1, Build901 2013/11/27)

>  <Rbt.Parameter_File>
/export/apps/rDock/src/rDock_2013.1_src/data/scripts/dock_solv.prm

>  <Rbt.Receptor>
prm/blind_docking_100.prm

>  <SCORE>
-13.4872

>  <SCORE.INTER>
-13.4872

>  <SCORE.INTER.CONST>
1

>  <SCORE.INTER.POLAR>
0

>  <SCORE.INTER.ROT>
0

>  <SCORE.INTER.SOLV>
12.219

>  <SCORE.INTER.VDW>
-16.6645

>  <SCORE.INTER.norm>
-1.34872

>  <SCORE.INTRA>
0

>  <SCORE.INTRA.DIHEDRAL>
0

>  <SCORE.INTRA.DIHEDRAL.0>
0

>  <SCORE.INTRA.POLAR>
0

>  <SCORE.INTRA.POLAR.0>
0

>  <SCORE.INTRA.REPUL>
0

>  <SCORE.INTRA.REPUL.0>
0

>  <SCORE.INTRA.SOLV>
0

>  <SCORE.INTRA.SOLV.lig_0>
-23.8941

>  <SCORE.INTRA.VDW>
0

>  <SCORE.INTRA.VDW.0>
0

>  <SCORE.INTRA.norm>
0

>  <SCORE.RESTR>
0

>  <SCORE.RESTR.CAVITY>
0

>  <SCORE.RESTR.norm>
0

>  <SCORE.SYSTEM>
0

>  <SCORE.SYSTEM.CONST>
0

>  <SCORE.SYSTEM.DIHEDRAL>
0

>  <SCORE.SYSTEM.SOLV>
0

>  <SCORE.SYSTEM.norm>
0

>  <SCORE.heavy>
10

>  <SCORE.norm>
-1.34872

>  <RMSD>
2.417

$$$$
ligand
 OpenBabel11021811513D
libRbt.so/2013.1/901 2013/11/27
 10 11  0  0  0  0  0  0  0  0999 V2000
  -30.3090   16.2908  -14.9196 N   0  0  0  0  0  0  0  0  0  0  0  0
  -29.6208   15.7363  -15.9252 C   0  0  0  0  0  0  0  0  0  0  0  0
  -29.3648   16.2285  -17.1361 N   0  0  0  0  0  0  0  0  0  0  0  0
  -29.9082   17.4473  -17.2802 C   0  0  0  0  0  0  0  0  0  0  0  0
  -30.6419   18.1447  -16.3406 C   0  0  0  0  0  0  0  0  0  0  0  0
  -30.8430   17.5167  -15.0952 C   0  0  0  0  0  0  0  0  0  0  0  0
  -31.5315   18.0732  -14.0926 N   0  0  0  0  0  0  0  0  0  0  0  0
  -31.0416   19.3721  -16.8414 N   0  0  0  0  0  0  0  0  0  0  0  0
  -30.5492   19.3901  -18.0581 C   0  0  0  0  0  0  0  0  0  0  0  0
  -29.8539   18.2607  -18.3894 N   0  0  0  0  0  0  0  0  0  0  0  0
  1  2  2  0  0  0  0
  1  6  1  0  0  0  0
  2  3  1  0  0  0  0
  3  4  2  0  0  0  0
  4  5  1  0  0  0  0
  4 10  1  0  0  0  0
  5  6  2  0  0  0  0
  5  8  1  0  0  0  0
  6  7  1  0  0  0  0
  8  9  1  0  0  0  0
  9 10  2  0  0  0  0
M  END
>  <CHROM.1>
-30.37052293,17.64597720,-16.39772966,-1.70463607,0.99875506,-0.87635016

>  <Name>
ligand

>  <RI>
0

>  <Rbt.Current_Directory>
/home/itssahil/PROJECTS/Mol_Feturizer/New_Systems/rnas/4TZY

>  <Rbt.Executable>
rbdock ($Id: //depot/dev/client3/rdock/2013.1/src/exe/rbdock.cxx#4 $)

>  <Rbt.Library>
libRbt.so (2013.1, Build901 2013/11/27)

>  <Rbt.Parameter_File>
/export/apps/rDock/src/rDock_2013.1_src/data/scripts/dock_solv.prm

>  <Rbt.Receptor>
prm/pocket_docking_6.prm

>  <SCORE>
-13.543

>  <SCORE.INTER>
-13.543

>  <SCORE.INTER.CONST>
1

>  <SCORE.INTER.POLAR>
0

>  <SCORE.INTER.ROT>
0

>  <SCORE.INTER.SOLV>
12.2863

>  <SCORE.INTER.VDW>
-16.7241

>  <SCORE.INTER.norm>
-1.3543

>  <SCORE.INTRA>
0

>  <SCORE.INTRA.DIHEDRAL>
0

>  <SCORE.INTRA.DIHEDRAL.0>
0

>  <SCORE.INTRA.POLAR>
0

>  <SCORE.INTRA.POLAR.0>
0

>  <SCORE.INTRA.REPUL>
0

>  <SCORE.INTRA.REPUL.0>
0

>  <SCORE.INTRA.SOLV>
0

>  <SCORE.INTRA.SOLV.lig_0>
-23.8941

>  <SCORE.INTRA.VDW>
0

>  <SCORE.INTRA.VDW.0>
0

>  <SCORE.INTRA.norm>
0

>  <SCORE.RESTR>
0

>  <SCORE.RESTR.CAVITY>
0

>  <SCORE.RESTR.norm>
0

>  <SCORE.SYSTEM>
0

>  <SCORE.SYSTEM.CONST>
0

>  <SCORE.SYSTEM.DIHEDRAL>
0

>  <SCORE.SYSTEM.SOLV>
0

>  <SCORE.SYSTEM.norm>
0

>  <SCORE.heavy>
10

>  <SCORE.norm>
-1.3543

>  <RMSD>
2.417

$$$$
ligand
 OpenBabel11021811513D
libRbt.so/2013.1/901 2013/11/27
 10 11  0  0  0  0  0  0  0  0999 V2000
  -30.3130   16.4280  -14.8410 N   0  0  0  0  0  0  0  0  0  0  0  0
  -29.6038   15.6858  -15.7003 C   0  0  0  0  0  0  0  0  0  0  0  0
  -29.2784   15.9502  -16.9645 N   0  0  0  0  0  0  0  0  0  0  0  0
  -29.7696   17.1400  -17.3446 C   0  0  0  0  0  0  0  0  0  0  0  0
  -30.5162   18.0126  -16.5772 C   0  0  0  0  0  0  0  0  0  0  0  0
  -30.7932   17.6191  -15.2528 C   0  0  0  0  0  0  0  0  0  0  0  0
  -31.5026   18.3627  -14.3967 N   0  0  0  0  0  0  0  0  0  0  0  0
  -30.8485   19.1442  -17.3027 N   0  0  0  0  0  0  0  0  0  0  0  0
  -30.3044   18.9340  -18.4787 C   0  0  0  0  0  0  0  0  0  0  0  0
  -29.6381   17.7442  -18.5745 N   0  0  0  0  0  0  0  0  0  0  0  0
  1  2  2  0  0  0  0
  1  6  1  0  0  0  0
  2  3  1  0  0  0  0
  3  4  2  0  0  0  0
  4  5  1  0  0  0  0
  4 10  1  0  0  0  0
  5  6  2  0  0  0  0
  5  8  1  0  0  0  0
  6  7  1  0  0  0  0
  8  9  1  0  0  0  0
  9 10  2  0  0  0  0
M  END
>  <CHROM.1>
-30.26132103,17.50389872,-16.53353545,-1.80881935,0.99759695,-0.96455680

>  <Name>
ligand

>  <RI>
0

>  <Rbt.Current_Directory>
/home/itssahil/PROJECTS/Mol_Feturizer/New_Systems/rnas/4TZY

>  <Rbt.Executable>
rbdock ($Id: //depot/dev/client3/rdock/2013.1/src/exe/rbdock.cxx#4 $)

>  <Rbt.Library>
libRbt.so (2013.1, Build901 2013/11/27)

>  <Rbt.Parameter_File>
/export/apps/rDock/src/rDock_2013.1_src/data/scripts/dock_solv.prm

>  <Rbt.Receptor>
prm/pocket_docking_3.prm

>  <SCORE>
-13.7842

>  <SCORE.INTER>
-13.7842

>  <SCORE.INTER.CONST>
1

>  <SCORE.INTER.POLAR>
0

>  <SCORE.INTER.ROT>
0

>  <SCORE.INTER.SOLV>
12.1174

>  <SCORE.INTER.VDW>
-16.8286

>  <SCORE.INTER.norm>
-1.37842

>  <SCORE.INTRA>
0

>  <SCORE.INTRA.DIHEDRAL>
0

>  <SCORE.INTRA.DIHEDRAL.0>
0

>  <SCORE.INTRA.POLAR>
0

>  <SCORE.INTRA.POLAR.0>
0

>  <SCORE.INTRA.REPUL>
0

>  <SCORE.INTRA.REPUL.0>
0

>  <SCORE.INTRA.SOLV>
0

>  <SCORE.INTRA.SOLV.lig_0>
-23.8941

>  <SCORE.INTRA.VDW>
0

>  <SCORE.INTRA.VDW.0>
0

>  <SCORE.INTRA.norm>
0

>  <SCORE.RESTR>
0

>  <SCORE.RESTR.CAVITY>
0

>  <SCORE.RESTR.norm>
0

>  <SCORE.SYSTEM>
0

>  <SCORE.SYSTEM.CONST>
0

>  <SCORE.SYSTEM.DIHEDRAL>
0

>  <SCORE.SYSTEM.SOLV>
0

>  <SCORE.SYSTEM.norm>
0

>  <SCORE.heavy>
10

>  <SCORE.norm>
-1.37842

>  <RMSD>
2.422

$$$$
ligand
 OpenBabel11021811513D
libRbt.so/2013.1/901 2013/11/27
 10 11  0  0  0  0  0  0  0  0999 V2000
  -30.3731   16.4319  -14.9433 N   0  0  0  0  0  0  0  0  0  0  0  0
  -29.6682   15.8207  -15.9034 C   0  0  0  0  0  0  0  0  0  0  0  0
  -29.3819   16.2473  -17.1323 N   0  0  0  0  0  0  0  0  0  0  0  0
  -29.9118   17.4608  -17.3514 C   0  0  0  0  0  0  0  0  0  0  0  0
  -30.6596   18.2116  -16.4656 C   0  0  0  0  0  0  0  0  0  0  0  0
  -30.8928   17.6509  -15.1940 C   0  0  0  0  0  0  0  0  0  0  0  0
  -31.5980   18.2639  -14.2370 N   0  0  0  0  0  0  0  0  0  0  0  0
  -31.0381   19.4142  -17.0382 N   0  0  0  0  0  0  0  0  0  0  0  0
  -30.5194   19.3652  -18.2430 C   0  0  0  0  0  0  0  0  0  0  0  0
  -29.8268   18.2149  -18.4999 N   0  0  0  0  0  0  0  0  0  0  0  0
  1  2  2  0  0  0  0
  1  6  1  0  0  0  0
  2  3  1  0  0  0  0
  3  4  2  0  0  0  0
  4  5  1  0  0  0  0
  4 10  1  0  0  0  0
  5  6  2  0  0  0  0
  5  8  1  0  0  0  0
  6  7  1  0  0  0  0
  8  9  1  0  0  0  0
  9 10  2  0  0  0  0
M  END
>  <CHROM.1>
-30.39131457,17.70862198,-16.49079975,-1.74474530,0.99109461,-0.89475581

>  <Name>
ligand

>  <RI>
0

>  <Rbt.Current_Directory>
/home/itssahil/PROJECTS/Mol_Feturizer/New_Systems/rnas/4TZY

>  <Rbt.Executable>
rbdock ($Id: //depot/dev/client3/rdock/2013.1/src/exe/rbdock.cxx#4 $)

>  <Rbt.Library>
libRbt.so (2013.1, Build901 2013/11/27)

>  <Rbt.Parameter_File>
/export/apps/rDock/src/rDock_2013.1_src/data/scripts/dock_solv.prm

>  <Rbt.Receptor>
prm/pocket_docking_7.prm

>  <SCORE>
-13.4699

>  <SCORE.INTER>
-13.4699

>  <SCORE.INTER.CONST>
1

>  <SCORE.INTER.POLAR>
0

>  <SCORE.INTER.ROT>
0

>  <SCORE.INTER.SOLV>
12.334

>  <SCORE.INTER.VDW>
-16.6913

>  <SCORE.INTER.norm>
-1.34699

>  <SCORE.INTRA>
0

>  <SCORE.INTRA.DIHEDRAL>
0

>  <SCORE.INTRA.DIHEDRAL.0>
0

>  <SCORE.INTRA.POLAR>
0

>  <SCORE.INTRA.POLAR.0>
0

>  <SCORE.INTRA.REPUL>
0

>  <SCORE.INTRA.REPUL.0>
0

>  <SCORE.INTRA.SOLV>
0

>  <SCORE.INTRA.SOLV.lig_0>
-23.8941

>  <SCORE.INTRA.VDW>
0

>  <SCORE.INTRA.VDW.0>
0

>  <SCORE.INTRA.norm>
0

>  <SCORE.RESTR>
0

>  <SCORE.RESTR.CAVITY>
0

>  <SCORE.RESTR.norm>
0

>  <SCORE.SYSTEM>
0

>  <SCORE.SYSTEM.CONST>
0

>  <SCORE.SYSTEM.DIHEDRAL>
0

>  <SCORE.SYSTEM.SOLV>
0

>  <SCORE.SYSTEM.norm>
0

>  <SCORE.heavy>
10

>  <SCORE.norm>
-1.34699

>  <RMSD>
2.432

$$$$
ligand
 OpenBabel11021811513D
libRbt.so/2013.1/901 2013/11/27
 10 11  0  0  0  0  0  0  0  0999 V2000
  -30.2962   16.3798  -14.9134 N   0  0  0  0  0  0  0  0  0  0  0  0
  -29.5828   15.6201  -15.7538 C   0  0  0  0  0  0  0  0  0  0  0  0
  -29.2429   15.8628  -17.0185 N   0  0  0  0  0  0  0  0  0  0  0  0
  -29.7228   17.0495  -17.4220 C   0  0  0  0  0  0  0  0  0  0  0  0
  -30.4719   17.9383  -16.6760 C   0  0  0  0  0  0  0  0  0  0  0  0
  -30.7648   17.5671  -15.3486 C   0  0  0  0  0  0  0  0  0  0  0  0
  -31.4783   18.3282  -14.5115 N   0  0  0  0  0  0  0  0  0  0  0  0
  -30.7898   19.0604  -17.4224 N   0  0  0  0  0  0  0  0  0  0  0  0
  -30.2350   18.8288  -18.5893 C   0  0  0  0  0  0  0  0  0  0  0  0
  -29.5751   17.6336  -18.6597 N   0  0  0  0  0  0  0  0  0  0  0  0
  1  2  2  0  0  0  0
  1  6  1  0  0  0  0
  2  3  1  0  0  0  0
  3  4  2  0  0  0  0
  4  5  1  0  0  0  0
  4 10  1  0  0  0  0
  5  6  2  0  0  0  0
  5  8  1  0  0  0  0
  6  7  1  0  0  0  0
  8  9  1  0  0  0  0
  9 10  2  0  0  0  0
M  END
>  <CHROM.1>
-30.22059483,17.42886450,-16.62184130,-1.83074137,0.99670843,-0.96167658

>  <Name>
ligand

>  <RI>
0

>  <Rbt.Current_Directory>
/home/itssahil/PROJECTS/Mol_Feturizer/New_Systems/rnas/4TZY

>  <Rbt.Executable>
rbdock ($Id: //depot/dev/client3/rdock/2013.1/src/exe/rbdock.cxx#4 $)

>  <Rbt.Library>
libRbt.so (2013.1, Build901 2013/11/27)

>  <Rbt.Parameter_File>
/export/apps/rDock/src/rDock_2013.1_src/data/scripts/dock_solv.prm

>  <Rbt.Receptor>
prm/pocket_docking_3.prm

>  <SCORE>
-13.9079

>  <SCORE.INTER>
-13.9079

>  <SCORE.INTER.CONST>
1

>  <SCORE.INTER.POLAR>
0

>  <SCORE.INTER.ROT>
0

>  <SCORE.INTER.SOLV>
11.8439

>  <SCORE.INTER.VDW>
-16.8199

>  <SCORE.INTER.norm>
-1.39079

>  <SCORE.INTRA>
0

>  <SCORE.INTRA.DIHEDRAL>
0

>  <SCORE.INTRA.DIHEDRAL.0>
0

>  <SCORE.INTRA.POLAR>
0

>  <SCORE.INTRA.POLAR.0>
0

>  <SCORE.INTRA.REPUL>
0

>  <SCORE.INTRA.REPUL.0>
0

>  <SCORE.INTRA.SOLV>
0

>  <SCORE.INTRA.SOLV.lig_0>
-23.8941

>  <SCORE.INTRA.VDW>
0

>  <SCORE.INTRA.VDW.0>
0

>  <SCORE.INTRA.norm>
0

>  <SCORE.RESTR>
0

>  <SCORE.RESTR.CAVITY>
0

>  <SCORE.RESTR.norm>
0

>  <SCORE.SYSTEM>
0

>  <SCORE.SYSTEM.CONST>
0

>  <SCORE.SYSTEM.DIHEDRAL>
0

>  <SCORE.SYSTEM.SOLV>
0

>  <SCORE.SYSTEM.norm>
0

>  <SCORE.heavy>
10

>  <SCORE.norm>
-1.39079

>  <RMSD>
2.440

$$$$
ligand
 OpenBabel11021811513D
libRbt.so/2013.1/901 2013/11/27
 10 11  0  0  0  0  0  0  0  0999 V2000
  -29.3827   17.2287  -17.7123 N   0  0  0  0  0  0  0  0  0  0  0  0
  -30.1709   18.2914  -17.9167 C   0  0  0  0  0  0  0  0  0  0  0  0
  -31.0004   18.8945  -17.0668 N   0  0  0  0  0  0  0  0  0  0  0  0
  -30.9800   18.2885  -15.8695 C   0  0  0  0  0  0  0  0  0  0  0  0
  -30.2259   17.1890  -15.5091 C   0  0  0  0  0  0  0  0  0  0  0  0
  -29.3845   16.6417  -16.4981 C   0  0  0  0  0  0  0  0  0  0  0  0
  -28.5986   15.5794  -16.2909 N   0  0  0  0  0  0  0  0  0  0  0  0
  -30.4637   16.8410  -14.1901 N   0  0  0  0  0  0  0  0  0  0  0  0
  -31.3463   17.7249  -13.7865 C   0  0  0  0  0  0  0  0  0  0  0  0
  -31.7031   18.6283  -14.7485 N   0  0  0  0  0  0  0  0  0  0  0  0
  1  2  2  0  0  0  0
  1  6  1  0  0  0  0
  2  3  1  0  0  0  0
  3  4  2  0  0  0  0
  4  5  1  0  0  0  0
  4 10  1  0  0  0  0
  5  6  2  0  0  0  0
  5  8  1  0  0  0  0
  6  7  1  0  0  0  0
  8  9  1  0  0  0  0
  9 10  2  0  0  0  0
M  END
>  <CHROM.1>
-30.31823263,17.52335795,-15.96212425,0.61423990,0.83321425,-1.11880803

>  <Name>
ligand

>  <RI>
0

>  <Rbt.Current_Directory>
/home/itssahil/PROJECTS/Mol_Feturizer/New_Systems/rnas/4TZY

>  <Rbt.Executable>
rbdock ($Id: //depot/dev/client3/rdock/2013.1/src/exe/rbdock.cxx#4 $)

>  <Rbt.Library>
libRbt.so (2013.1, Build901 2013/11/27)

>  <Rbt.Parameter_File>
/export/apps/rDock/src/rDock_2013.1_src/data/scripts/dock_solv.prm

>  <Rbt.Receptor>
prm/pocket_docking_7.prm

>  <SCORE>
-13.6145

>  <SCORE.INTER>
-13.6145

>  <SCORE.INTER.CONST>
1

>  <SCORE.INTER.POLAR>
0

>  <SCORE.INTER.ROT>
0

>  <SCORE.INTER.SOLV>
8.34691

>  <SCORE.INTER.VDW>
-15.4587

>  <SCORE.INTER.norm>
-1.36145

>  <SCORE.INTRA>
0

>  <SCORE.INTRA.DIHEDRAL>
0

>  <SCORE.INTRA.DIHEDRAL.0>
0

>  <SCORE.INTRA.POLAR>
0

>  <SCORE.INTRA.POLAR.0>
0

>  <SCORE.INTRA.REPUL>
0

>  <SCORE.INTRA.REPUL.0>
0

>  <SCORE.INTRA.SOLV>
0

>  <SCORE.INTRA.SOLV.lig_0>
-23.8941

>  <SCORE.INTRA.VDW>
0

>  <SCORE.INTRA.VDW.0>
0

>  <SCORE.INTRA.norm>
0

>  <SCORE.RESTR>
0

>  <SCORE.RESTR.CAVITY>
0

>  <SCORE.RESTR.norm>
0

>  <SCORE.SYSTEM>
0

>  <SCORE.SYSTEM.CONST>
0

>  <SCORE.SYSTEM.DIHEDRAL>
0

>  <SCORE.SYSTEM.SOLV>
0

>  <SCORE.SYSTEM.norm>
0

>  <SCORE.heavy>
10

>  <SCORE.norm>
-1.36145

>  <RMSD>
2.838

$$$$
ligand
 OpenBabel11021811513D
libRbt.so/2013.1/901 2013/11/27
 10 11  0  0  0  0  0  0  0  0999 V2000
  -29.3208   16.6371  -17.3236 N   0  0  0  0  0  0  0  0  0  0  0  0
  -29.9793   17.7303  -17.7284 C   0  0  0  0  0  0  0  0  0  0  0  0
  -30.7488   18.5546  -17.0196 N   0  0  0  0  0  0  0  0  0  0  0  0
  -30.8177   18.1596  -15.7387 C   0  0  0  0  0  0  0  0  0  0  0  0
  -30.1999   17.0602  -15.1754 C   0  0  0  0  0  0  0  0  0  0  0  0
  -29.4099   16.2659  -16.0302 C   0  0  0  0  0  0  0  0  0  0  0  0
  -28.7536   15.1739  -15.6228 N   0  0  0  0  0  0  0  0  0  0  0  0
  -30.4978   16.9667  -13.8264 N   0  0  0  0  0  0  0  0  0  0  0  0
  -31.2806   17.9971  -13.6057 C   0  0  0  0  0  0  0  0  0  0  0  0
  -31.5160   18.7598  -14.7155 N   0  0  0  0  0  0  0  0  0  0  0  0
  1  2  2  0  0  0  0
  1  6  1  0  0  0  0
  2  3  1  0  0  0  0
  3  4  2  0  0  0  0
  4  5  1  0  0  0  0
  4 10  1  0  0  0  0
  5  6  2  0  0  0  0
  5  8  1  0  0  0  0
  6  7  1  0  0  0  0
  8  9  1  0  0  0  0
  9 10  2  0  0  0  0
M  END
>  <CHROM.1>
-30.24590140,17.32192388,-15.68038875,0.50618485,0.92592160,-1.20311924

>  <Name>
ligand

>  <RI>
0

>  <Rbt.Current_Directory>
/home/itssahil/PROJECTS/Mol_Feturizer/New_Systems/rnas/4TZY

>  <Rbt.Executable>
rbdock ($Id: //depot/dev/client3/rdock/2013.1/src/exe/rbdock.cxx#4 $)

>  <Rbt.Library>
libRbt.so (2013.1, Build901 2013/11/27)

>  <Rbt.Parameter_File>
/export/apps/rDock/src/rDock_2013.1_src/data/scripts/dock_solv.prm

>  <Rbt.Receptor>
prm/blind_docking_40.prm

>  <SCORE>
-12.0148

>  <SCORE.INTER>
-12.0251

>  <SCORE.INTER.CONST>
1

>  <SCORE.INTER.POLAR>
0

>  <SCORE.INTER.ROT>
0

>  <SCORE.INTER.SOLV>
9.31662

>  <SCORE.INTER.VDW>
-14.7222

>  <SCORE.INTER.norm>
-1.20251

>  <SCORE.INTRA>
0

>  <SCORE.INTRA.DIHEDRAL>
0

>  <SCORE.INTRA.DIHEDRAL.0>
0

>  <SCORE.INTRA.POLAR>
0

>  <SCORE.INTRA.POLAR.0>
0

>  <SCORE.INTRA.REPUL>
0

>  <SCORE.INTRA.REPUL.0>
0

>  <SCORE.INTRA.SOLV>
0

>  <SCORE.INTRA.SOLV.lig_0>
-23.8941

>  <SCORE.INTRA.VDW>
0

>  <SCORE.INTRA.VDW.0>
0

>  <SCORE.INTRA.norm>
0

>  <SCORE.RESTR>
0.0102775

>  <SCORE.RESTR.CAVITY>
0.0102775

>  <SCORE.RESTR.norm>
0.00102775

>  <SCORE.SYSTEM>
0

>  <SCORE.SYSTEM.CONST>
0

>  <SCORE.SYSTEM.DIHEDRAL>
0

>  <SCORE.SYSTEM.SOLV>
0

>  <SCORE.SYSTEM.norm>
0

>  <SCORE.heavy>
10

>  <SCORE.norm>
-1.20148

>  <RMSD>
2.840

$$$$
ligand
 OpenBabel11021811513D
libRbt.so/2013.1/901 2013/11/27
 10 11  0  0  0  0  0  0  0  0999 V2000
  -29.3755   17.3789  -17.8283 N   0  0  0  0  0  0  0  0  0  0  0  0
  -30.2317   18.3932  -18.0030 C   0  0  0  0  0  0  0  0  0  0  0  0
  -31.0794   18.9333  -17.1290 N   0  0  0  0  0  0  0  0  0  0  0  0
  -30.9975   18.3151  -15.9406 C   0  0  0  0  0  0  0  0  0  0  0  0
  -30.1699   17.2600  -15.6098 C   0  0  0  0  0  0  0  0  0  0  0  0
  -29.3165   16.7781  -16.6223 C   0  0  0  0  0  0  0  0  0  0  0  0
  -28.4625   15.7640  -16.4448 N   0  0  0  0  0  0  0  0  0  0  0  0
  -30.3589   16.8818  -14.2913 N   0  0  0  0  0  0  0  0  0  0  0  0
  -31.2860   17.7044  -13.8586 C   0  0  0  0  0  0  0  0  0  0  0  0
  -31.7172   18.5957  -14.8012 N   0  0  0  0  0  0  0  0  0  0  0  0
  1  2  2  0  0  0  0
  1  6  1  0  0  0  0
  2  3  1  0  0  0  0
  3  4  2  0  0  0  0
  4  5  1  0  0  0  0
  4 10  1  0  0  0  0
  5  6  2  0  0  0  0
  5  8  1  0  0  0  0
  6  7  1  0  0  0  0
  8  9  1  0  0  0  0
  9 10  2  0  0  0  0
M  END
>  <CHROM.1>
-30.29177813,17.59358060,-16.05643032,0.67817236,0.78551676,-1.15220512

>  <Name>
ligand

>  <RI>
0

>  <Rbt.Current_Directory>
/home/itssahil/PROJECTS/Mol_Feturizer/New_Systems/rnas/4TZY

>  <Rbt.Executable>
rbdock ($Id: //depot/dev/client3/rdock/2013.1/src/exe/rbdock.cxx#4 $)

>  <Rbt.Library>
libRbt.so (2013.1, Build901 2013/11/27)

>  <Rbt.Parameter_File>
/export/apps/rDock/src/rDock_2013.1_src/data/scripts/dock_solv.prm

>  <Rbt.Receptor>
prm/pocket_docking_3.prm

>  <SCORE>
-13.7928

>  <SCORE.INTER>
-13.7928

>  <SCORE.INTER.CONST>
1

>  <SCORE.INTER.POLAR>
0

>  <SCORE.INTER.ROT>
0

>  <SCORE.INTER.SOLV>
8.40643

>  <SCORE.INTER.VDW>
-15.5973

>  <SCORE.INTER.norm>
-1.37928

>  <SCORE.INTRA>
0

>  <SCORE.INTRA.DIHEDRAL>
0

>  <SCORE.INTRA.DIHEDRAL.0>
0

>  <SCORE.INTRA.POLAR>
0

>  <SCORE.INTRA.POLAR.0>
0

>  <SCORE.INTRA.REPUL>
0

>  <SCORE.INTRA.REPUL.0>
0

>  <SCORE.INTRA.SOLV>
0

>  <SCORE.INTRA.SOLV.lig_0>
-23.8941

>  <SCORE.INTRA.VDW>
0

>  <SCORE.INTRA.VDW.0>
0

>  <SCORE.INTRA.norm>
0

>  <SCORE.RESTR>
0

>  <SCORE.RESTR.CAVITY>
0

>  <SCORE.RESTR.norm>
0

>  <SCORE.SYSTEM>
0

>  <SCORE.SYSTEM.CONST>
0

>  <SCORE.SYSTEM.DIHEDRAL>
0

>  <SCORE.SYSTEM.SOLV>
0

>  <SCORE.SYSTEM.norm>
0

>  <SCORE.heavy>
10

>  <SCORE.norm>
-1.37928

>  <RMSD>
2.842

$$$$
ligand
 OpenBabel11021811513D
libRbt.so/2013.1/901 2013/11/27
 10 11  0  0  0  0  0  0  0  0999 V2000
  -29.3767   17.3691  -17.8254 N   0  0  0  0  0  0  0  0  0  0  0  0
  -30.2355   18.3792  -18.0116 C   0  0  0  0  0  0  0  0  0  0  0  0
  -31.0810   18.9302  -17.1424 N   0  0  0  0  0  0  0  0  0  0  0  0
  -30.9935   18.3294  -15.9455 C   0  0  0  0  0  0  0  0  0  0  0  0
  -30.1627   17.2807  -15.6026 C   0  0  0  0  0  0  0  0  0  0  0  0
  -29.3121   16.7858  -16.6112 C   0  0  0  0  0  0  0  0  0  0  0  0
  -28.4555   15.7761  -16.4222 N   0  0  0  0  0  0  0  0  0  0  0  0
  -30.3461   16.9212  -14.2780 N   0  0  0  0  0  0  0  0  0  0  0  0
  -31.2732   17.7482  -13.8539 C   0  0  0  0  0  0  0  0  0  0  0  0
  -31.7096   18.6250  -14.8076 N   0  0  0  0  0  0  0  0  0  0  0  0
  1  2  2  0  0  0  0
  1  6  1  0  0  0  0
  2  3  1  0  0  0  0
  3  4  2  0  0  0  0
  4  5  1  0  0  0  0
  4 10  1  0  0  0  0
  5  6  2  0  0  0  0
  5  8  1  0  0  0  0
  6  7  1  0  0  0  0
  8  9  1  0  0  0  0
  9 10  2  0  0  0  0
M  END
>  <CHROM.1>
-30.28685293,17.60756690,-16.05349353,0.68403314,0.78523584,-1.17077298

>  <Name>
ligand

>  <RI>
0

>  <Rbt.Current_Directory>
/home/itssahil/PROJECTS/Mol_Feturizer/New_Systems/rnas/4TZY

>  <Rbt.Executable>
rbdock ($Id: //depot/dev/client3/rdock/2013.1/src/exe/rbdock.cxx#4 $)

>  <Rbt.Library>
libRbt.so (2013.1, Build901 2013/11/27)

>  <Rbt.Parameter_File>
/export/apps/rDock/src/rDock_2013.1_src/data/scripts/dock_solv.prm

>  <Rbt.Receptor>
prm/pocket_docking_3.prm

>  <SCORE>
-13.7876

>  <SCORE.INTER>
-13.7876

>  <SCORE.INTER.CONST>
1

>  <SCORE.INTER.POLAR>
0

>  <SCORE.INTER.ROT>
0

>  <SCORE.INTER.SOLV>
8.31918

>  <SCORE.INTER.VDW>
-15.5648

>  <SCORE.INTER.norm>
-1.37876

>  <SCORE.INTRA>
0

>  <SCORE.INTRA.DIHEDRAL>
0

>  <SCORE.INTRA.DIHEDRAL.0>
0

>  <SCORE.INTRA.POLAR>
0

>  <SCORE.INTRA.POLAR.0>
0

>  <SCORE.INTRA.REPUL>
0

>  <SCORE.INTRA.REPUL.0>
0

>  <SCORE.INTRA.SOLV>
0

>  <SCORE.INTRA.SOLV.lig_0>
-23.8941

>  <SCORE.INTRA.VDW>
0

>  <SCORE.INTRA.VDW.0>
0

>  <SCORE.INTRA.norm>
0

>  <SCORE.RESTR>
0

>  <SCORE.RESTR.CAVITY>
0

>  <SCORE.RESTR.norm>
0

>  <SCORE.SYSTEM>
0

>  <SCORE.SYSTEM.CONST>
0

>  <SCORE.SYSTEM.DIHEDRAL>
0

>  <SCORE.SYSTEM.SOLV>
0

>  <SCORE.SYSTEM.norm>
0

>  <SCORE.heavy>
10

>  <SCORE.norm>
-1.37876

>  <RMSD>
2.842

$$$$
ligand
 OpenBabel11021811513D
libRbt.so/2013.1/901 2013/11/27
 10 11  0  0  0  0  0  0  0  0999 V2000
  -29.4257   17.4453  -17.8222 N   0  0  0  0  0  0  0  0  0  0  0  0
  -30.3173   18.4289  -17.9953 C   0  0  0  0  0  0  0  0  0  0  0  0
  -31.1826   18.9381  -17.1202 N   0  0  0  0  0  0  0  0  0  0  0  0
  -31.0778   18.3224  -15.9323 C   0  0  0  0  0  0  0  0  0  0  0  0
  -30.2132   17.2969  -15.6031 C   0  0  0  0  0  0  0  0  0  0  0  0
  -29.3444   16.8460  -16.6168 C   0  0  0  0  0  0  0  0  0  0  0  0
  -28.4550   15.8626  -16.4409 N   0  0  0  0  0  0  0  0  0  0  0  0
  -30.3874   16.9113  -14.2847 N   0  0  0  0  0  0  0  0  0  0  0  0
  -31.3425   17.7003  -13.8505 C   0  0  0  0  0  0  0  0  0  0  0  0
  -31.8058   18.5766  -14.7920 N   0  0  0  0  0  0  0  0  0  0  0  0
  1  2  2  0  0  0  0
  1  6  1  0  0  0  0
  2  3  1  0  0  0  0
  3  4  2  0  0  0  0
  4  5  1  0  0  0  0
  4 10  1  0  0  0  0
  5  6  2  0  0  0  0
  5  8  1  0  0  0  0
  6  7  1  0  0  0  0
  8  9  1  0  0  0  0
  9 10  2  0  0  0  0
M  END
>  <CHROM.1>
-30.34718340,17.62624847,-16.04933774,0.69907554,0.75359081,-1.16602514

>  <Name>
ligand

>  <RI>
0

>  <Rbt.Current_Directory>
/home/itssahil/PROJECTS/Mol_Feturizer/New_Systems/rnas/4TZY

>  <Rbt.Executable>
rbdock ($Id: //depot/dev/client3/rdock/2013.1/src/exe/rbdock.cxx#4 $)

>  <Rbt.Library>
libRbt.so (2013.1, Build901 2013/11/27)

>  <Rbt.Parameter_File>
/export/apps/rDock/src/rDock_2013.1_src/data/scripts/dock_solv.prm

>  <Rbt.Receptor>
prm/pocket_docking_3.prm

>  <SCORE>
-13.7659

>  <SCORE.INTER>
-13.7659

>  <SCORE.INTER.CONST>
1

>  <SCORE.INTER.POLAR>
0

>  <SCORE.INTER.ROT>
0

>  <SCORE.INTER.SOLV>
8.31058

>  <SCORE.INTER.VDW>
-15.5475

>  <SCORE.INTER.norm>
-1.37659

>  <SCORE.INTRA>
0

>  <SCORE.INTRA.DIHEDRAL>
0

>  <SCORE.INTRA.DIHEDRAL.0>
0

>  <SCORE.INTRA.POLAR>
0

>  <SCORE.INTRA.POLAR.0>
0

>  <SCORE.INTRA.REPUL>
0

>  <SCORE.INTRA.REPUL.0>
0

>  <SCORE.INTRA.SOLV>
0

>  <SCORE.INTRA.SOLV.lig_0>
-23.8941

>  <SCORE.INTRA.VDW>
0

>  <SCORE.INTRA.VDW.0>
0

>  <SCORE.INTRA.norm>
0

>  <SCORE.RESTR>
0

>  <SCORE.RESTR.CAVITY>
0

>  <SCORE.RESTR.norm>
0

>  <SCORE.SYSTEM>
0

>  <SCORE.SYSTEM.CONST>
0

>  <SCORE.SYSTEM.DIHEDRAL>
0

>  <SCORE.SYSTEM.SOLV>
0

>  <SCORE.SYSTEM.norm>
0

>  <SCORE.heavy>
10

>  <SCORE.norm>
-1.37659

>  <RMSD>
2.849

$$$$
ligand
 OpenBabel11021811513D
libRbt.so/2013.1/901 2013/11/27
 10 11  0  0  0  0  0  0  0  0999 V2000
  -29.3674   17.2908  -17.6720 N   0  0  0  0  0  0  0  0  0  0  0  0
  -30.1398   18.3693  -17.8530 C   0  0  0  0  0  0  0  0  0  0  0  0
  -30.9254   18.9931  -16.9768 N   0  0  0  0  0  0  0  0  0  0  0  0
  -30.8750   18.3913  -15.7782 C   0  0  0  0  0  0  0  0  0  0  0  0
  -30.1320   17.2773  -15.4399 C   0  0  0  0  0  0  0  0  0  0  0  0
  -29.3382   16.7085  -16.4559 C   0  0  0  0  0  0  0  0  0  0  0  0
  -28.5680   15.6305  -16.2720 N   0  0  0  0  0  0  0  0  0  0  0  0
  -30.3296   16.9395  -14.1117 N   0  0  0  0  0  0  0  0  0  0  0  0
  -31.1783   17.8435  -13.6809 C   0  0  0  0  0  0  0  0  0  0  0  0
  -31.5501   18.7507  -14.6336 N   0  0  0  0  0  0  0  0  0  0  0  0
  1  2  2  0  0  0  0
  1  6  1  0  0  0  0
  2  3  1  0  0  0  0
  3  4  2  0  0  0  0
  4  5  1  0  0  0  0
  4 10  1  0  0  0  0
  5  6  2  0  0  0  0
  5  8  1  0  0  0  0
  6  7  1  0  0  0  0
  8  9  1  0  0  0  0
  9 10  2  0  0  0  0
M  END
>  <CHROM.1>
-30.23331051,17.61188629,-15.89089981,0.64973282,0.86758735,-1.14964512

>  <Name>
ligand

>  <RI>
0

>  <Rbt.Current_Directory>
/home/itssahil/PROJECTS/Mol_Feturizer/New_Systems/rnas/4TZY

>  <Rbt.Executable>
rbdock ($Id: //depot/dev/client3/rdock/2013.1/src/exe/rbdock.cxx#4 $)

>  <Rbt.Library>
libRbt.so (2013.1, Build901 2013/11/27)

>  <Rbt.Parameter_File>
/export/apps/rDock/src/rDock_2013.1_src/data/scripts/dock_solv.prm

>  <Rbt.Receptor>
prm/blind_docking_80.prm

>  <SCORE>
-13.6279

>  <SCORE.INTER>
-13.6279

>  <SCORE.INTER.CONST>
1

>  <SCORE.INTER.POLAR>
0

>  <SCORE.INTER.ROT>
0

>  <SCORE.INTER.SOLV>
8.24806

>  <SCORE.INTER.VDW>
-15.4346

>  <SCORE.INTER.norm>
-1.36279

>  <SCORE.INTRA>
0

>  <SCORE.INTRA.DIHEDRAL>
0

>  <SCORE.INTRA.DIHEDRAL.0>
0

>  <SCORE.INTRA.POLAR>
0

>  <SCORE.INTRA.POLAR.0>
0

>  <SCORE.INTRA.REPUL>
0

>  <SCORE.INTRA.REPUL.0>
0

>  <SCORE.INTRA.SOLV>
0

>  <SCORE.INTRA.SOLV.lig_0>
-23.8941

>  <SCORE.INTRA.VDW>
0

>  <SCORE.INTRA.VDW.0>
0

>  <SCORE.INTRA.norm>
0

>  <SCORE.RESTR>
4.7462e-06

>  <SCORE.RESTR.CAVITY>
4.7462e-06

>  <SCORE.RESTR.norm>
4.7462e-07

>  <SCORE.SYSTEM>
0

>  <SCORE.SYSTEM.CONST>
0

>  <SCORE.SYSTEM.DIHEDRAL>
0

>  <SCORE.SYSTEM.SOLV>
0

>  <SCORE.SYSTEM.norm>
0

>  <SCORE.heavy>
10

>  <SCORE.norm>
-1.36279

>  <RMSD>
2.850

$$$$
ligand
 OpenBabel11021811513D
libRbt.so/2013.1/901 2013/11/27
 10 11  0  0  0  0  0  0  0  0999 V2000
  -29.2716   17.3496  -17.6346 N   0  0  0  0  0  0  0  0  0  0  0  0
  -30.1177   18.3650  -17.8478 C   0  0  0  0  0  0  0  0  0  0  0  0
  -30.9474   18.9576  -16.9908 N   0  0  0  0  0  0  0  0  0  0  0  0
  -30.8575   18.3967  -15.7748 C   0  0  0  0  0  0  0  0  0  0  0  0
  -30.0385   17.3484  -15.4034 C   0  0  0  0  0  0  0  0  0  0  0  0
  -29.2043   16.8072  -16.4017 C   0  0  0  0  0  0  0  0  0  0  0  0
  -28.3604   15.7922  -16.1857 N   0  0  0  0  0  0  0  0  0  0  0  0
  -30.2149   17.0370  -14.0658 N   0  0  0  0  0  0  0  0  0  0  0  0
  -31.1263   17.8913  -13.6622 C   0  0  0  0  0  0  0  0  0  0  0  0
  -31.5589   18.7413  -14.6416 N   0  0  0  0  0  0  0  0  0  0  0  0
  1  2  2  0  0  0  0
  1  6  1  0  0  0  0
  2  3  1  0  0  0  0
  3  4  2  0  0  0  0
  4  5  1  0  0  0  0
  4 10  1  0  0  0  0
  5  6  2  0  0  0  0
  5  8  1  0  0  0  0
  6  7  1  0  0  0  0
  8  9  1  0  0  0  0
  9 10  2  0  0  0  0
M  END
>  <CHROM.1>
-30.16215252,17.66149796,-15.86411515,0.68815709,0.80182633,-1.20789916

>  <Name>
ligand

>  <RI>
0

>  <Rbt.Current_Directory>
/home/itssahil/PROJECTS/Mol_Feturizer/New_Systems/rnas/4TZY

>  <Rbt.Executable>
rbdock ($Id: //depot/dev/client3/rdock/2013.1/src/exe/rbdock.cxx#4 $)

>  <Rbt.Library>
libRbt.so (2013.1, Build901 2013/11/27)

>  <Rbt.Parameter_File>
/export/apps/rDock/src/rDock_2013.1_src/data/scripts/dock_solv.prm

>  <Rbt.Receptor>
prm/blind_docking_60.prm

>  <SCORE>
-13.7341

>  <SCORE.INTER>
-13.7341

>  <SCORE.INTER.CONST>
1

>  <SCORE.INTER.POLAR>
0

>  <SCORE.INTER.ROT>
0

>  <SCORE.INTER.SOLV>
7.44526

>  <SCORE.INTER.VDW>
-15.2378

>  <SCORE.INTER.norm>
-1.37341

>  <SCORE.INTRA>
0

>  <SCORE.INTRA.DIHEDRAL>
0

>  <SCORE.INTRA.DIHEDRAL.0>
0

>  <SCORE.INTRA.POLAR>
0

>  <SCORE.INTRA.POLAR.0>
0

>  <SCORE.INTRA.REPUL>
0

>  <SCORE.INTRA.REPUL.0>
0

>  <SCORE.INTRA.SOLV>
0

>  <SCORE.INTRA.SOLV.lig_0>
-23.8941

>  <SCORE.INTRA.VDW>
0

>  <SCORE.INTRA.VDW.0>
0

>  <SCORE.INTRA.norm>
0

>  <SCORE.RESTR>
0

>  <SCORE.RESTR.CAVITY>
0

>  <SCORE.RESTR.norm>
0

>  <SCORE.SYSTEM>
0

>  <SCORE.SYSTEM.CONST>
0

>  <SCORE.SYSTEM.DIHEDRAL>
0

>  <SCORE.SYSTEM.SOLV>
0

>  <SCORE.SYSTEM.norm>
0

>  <SCORE.heavy>
10

>  <SCORE.norm>
-1.37341

>  <RMSD>
2.855

$$$$
ligand
 OpenBabel11021811513D
libRbt.so/2013.1/901 2013/11/27
 10 11  0  0  0  0  0  0  0  0999 V2000
  -29.3667   17.3011  -17.6553 N   0  0  0  0  0  0  0  0  0  0  0  0
  -30.2211   18.3106  -17.8635 C   0  0  0  0  0  0  0  0  0  0  0  0
  -31.0256   18.9194  -16.9940 N   0  0  0  0  0  0  0  0  0  0  0  0
  -30.8975   18.3840  -15.7700 C   0  0  0  0  0  0  0  0  0  0  0  0
  -30.0652   17.3449  -15.4021 C   0  0  0  0  0  0  0  0  0  0  0  0
  -29.2605   16.7845  -16.4141 C   0  0  0  0  0  0  0  0  0  0  0  0
  -28.4082   15.7755  -16.2030 N   0  0  0  0  0  0  0  0  0  0  0  0
  -30.2001   17.0610  -14.0536 N   0  0  0  0  0  0  0  0  0  0  0  0
  -31.1007   17.9220  -13.6402 C   0  0  0  0  0  0  0  0  0  0  0  0
  -31.5649   18.7508  -14.6232 N   0  0  0  0  0  0  0  0  0  0  0  0
  1  2  2  0  0  0  0
  1  6  1  0  0  0  0
  2  3  1  0  0  0  0
  3  4  2  0  0  0  0
  4  5  1  0  0  0  0
  4 10  1  0  0  0  0
  5  6  2  0  0  0  0
  5  8  1  0  0  0  0
  6  7  1  0  0  0  0
  8  9  1  0  0  0  0
  9 10  2  0  0  0  0
M  END
>  <CHROM.1>
-30.20353597,17.64819091,-15.86527507,0.73062969,0.81008040,-1.25922972

>  <Name>
ligand

>  <RI>
0

>  <Rbt.Current_Directory>
/home/itssahil/PROJECTS/Mol_Feturizer/New_Systems/rnas/4TZY

>  <Rbt.Executable>
rbdock ($Id: //depot/dev/client3/rdock/2013.1/src/exe/rbdock.cxx#4 $)

>  <Rbt.Library>
libRbt.so (2013.1, Build901 2013/11/27)

>  <Rbt.Parameter_File>
/export/apps/rDock/src/rDock_2013.1_src/data/scripts/dock_solv.prm

>  <Rbt.Receptor>
prm/blind_docking_80.prm

>  <SCORE>
-13.615

>  <SCORE.INTER>
-13.615

>  <SCORE.INTER.CONST>
1

>  <SCORE.INTER.POLAR>
0

>  <SCORE.INTER.ROT>
0

>  <SCORE.INTER.SOLV>
7.57447

>  <SCORE.INTER.VDW>
-15.2015

>  <SCORE.INTER.norm>
-1.3615

>  <SCORE.INTRA>
0

>  <SCORE.INTRA.DIHEDRAL>
0

>  <SCORE.INTRA.DIHEDRAL.0>
0

>  <SCORE.INTRA.POLAR>
0

>  <SCORE.INTRA.POLAR.0>
0

>  <SCORE.INTRA.REPUL>
0

>  <SCORE.INTRA.REPUL.0>
0

>  <SCORE.INTRA.SOLV>
0

>  <SCORE.INTRA.SOLV.lig_0>
-23.8941

>  <SCORE.INTRA.VDW>
0

>  <SCORE.INTRA.VDW.0>
0

>  <SCORE.INTRA.norm>
0

>  <SCORE.RESTR>
0

>  <SCORE.RESTR.CAVITY>
0

>  <SCORE.RESTR.norm>
0

>  <SCORE.SYSTEM>
0

>  <SCORE.SYSTEM.CONST>
0

>  <SCORE.SYSTEM.DIHEDRAL>
0

>  <SCORE.SYSTEM.SOLV>
0

>  <SCORE.SYSTEM.norm>
0

>  <SCORE.heavy>
10

>  <SCORE.norm>
-1.3615

>  <RMSD>
2.855

$$$$
ligand
 OpenBabel11021811513D
libRbt.so/2013.1/901 2013/11/27
 10 11  0  0  0  0  0  0  0  0999 V2000
  -29.3409   17.3528  -17.6416 N   0  0  0  0  0  0  0  0  0  0  0  0
  -30.1769   18.3799  -17.8380 C   0  0  0  0  0  0  0  0  0  0  0  0
  -31.0025   18.9649  -16.9718 N   0  0  0  0  0  0  0  0  0  0  0  0
  -30.9201   18.3817  -15.7659 C   0  0  0  0  0  0  0  0  0  0  0  0
  -30.1117   17.3192  -15.4119 C   0  0  0  0  0  0  0  0  0  0  0  0
  -29.2809   16.7879  -16.4185 C   0  0  0  0  0  0  0  0  0  0  0  0
  -28.4471   15.7612  -16.2192 N   0  0  0  0  0  0  0  0  0  0  0  0
  -30.2935   16.9857  -14.0804 N   0  0  0  0  0  0  0  0  0  0  0  0
  -31.1974   17.8412  -13.6631 C   0  0  0  0  0  0  0  0  0  0  0  0
  -31.6202   18.7126  -14.6278 N   0  0  0  0  0  0  0  0  0  0  0  0
  1  2  2  0  0  0  0
  1  6  1  0  0  0  0
  2  3  1  0  0  0  0
  3  4  2  0  0  0  0
  4  5  1  0  0  0  0
  4 10  1  0  0  0  0
  5  6  2  0  0  0  0
  5  8  1  0  0  0  0
  6  7  1  0  0  0  0
  8  9  1  0  0  0  0
  9 10  2  0  0  0  0
M  END
>  <CHROM.1>
-30.23159105,17.64155608,-15.86723613,0.68087063,0.81004510,-1.18479175

>  <Name>
ligand

>  <RI>
0

>  <Rbt.Current_Directory>
/home/itssahil/PROJECTS/Mol_Feturizer/New_Systems/rnas/4TZY

>  <Rbt.Executable>
rbdock ($Id: //depot/dev/client3/rdock/2013.1/src/exe/rbdock.cxx#4 $)

>  <Rbt.Library>
libRbt.so (2013.1, Build901 2013/11/27)

>  <Rbt.Parameter_File>
/export/apps/rDock/src/rDock_2013.1_src/data/scripts/dock_solv.prm

>  <Rbt.Receptor>
prm/blind_docking_80.prm

>  <SCORE>
-13.6795

>  <SCORE.INTER>
-13.6795

>  <SCORE.INTER.CONST>
1

>  <SCORE.INTER.POLAR>
0

>  <SCORE.INTER.ROT>
0

>  <SCORE.INTER.SOLV>
7.71061

>  <SCORE.INTER.VDW>
-15.2899

>  <SCORE.INTER.norm>
-1.36795

>  <SCORE.INTRA>
0

>  <SCORE.INTRA.DIHEDRAL>
0

>  <SCORE.INTRA.DIHEDRAL.0>
0

>  <SCORE.INTRA.POLAR>
0

>  <SCORE.INTRA.POLAR.0>
0

>  <SCORE.INTRA.REPUL>
0

>  <SCORE.INTRA.REPUL.0>
0

>  <SCORE.INTRA.SOLV>
0

>  <SCORE.INTRA.SOLV.lig_0>
-23.8941

>  <SCORE.INTRA.VDW>
0

>  <SCORE.INTRA.VDW.0>
0

>  <SCORE.INTRA.norm>
0

>  <SCORE.RESTR>
0

>  <SCORE.RESTR.CAVITY>
0

>  <SCORE.RESTR.norm>
0

>  <SCORE.SYSTEM>
0

>  <SCORE.SYSTEM.CONST>
0

>  <SCORE.SYSTEM.DIHEDRAL>
0

>  <SCORE.SYSTEM.SOLV>
0

>  <SCORE.SYSTEM.norm>
0

>  <SCORE.heavy>
10

>  <SCORE.norm>
-1.36795

>  <RMSD>
2.855

$$$$
ligand
 OpenBabel11021811513D
libRbt.so/2013.1/901 2013/11/27
 10 11  0  0  0  0  0  0  0  0999 V2000
  -29.2902   17.3732  -17.6167 N   0  0  0  0  0  0  0  0  0  0  0  0
  -30.1578   18.3697  -17.8330 C   0  0  0  0  0  0  0  0  0  0  0  0
  -31.0060   18.9414  -16.9799 N   0  0  0  0  0  0  0  0  0  0  0  0
  -30.9109   18.3800  -15.7645 C   0  0  0  0  0  0  0  0  0  0  0  0
  -30.0706   17.3498  -15.3902 C   0  0  0  0  0  0  0  0  0  0  0  0
  -29.2182   16.8298  -16.3845 C   0  0  0  0  0  0  0  0  0  0  0  0
  -28.3528   15.8337  -16.1653 N   0  0  0  0  0  0  0  0  0  0  0  0
  -30.2481   17.0315  -14.0544 N   0  0  0  0  0  0  0  0  0  0  0  0
  -31.1811   17.8639  -13.6547 C   0  0  0  0  0  0  0  0  0  0  0  0
  -31.6269   18.7061  -14.6350 N   0  0  0  0  0  0  0  0  0  0  0  0
  1  2  2  0  0  0  0
  1  6  1  0  0  0  0
  2  3  1  0  0  0  0
  3  4  2  0  0  0  0
  4  5  1  0  0  0  0
  4 10  1  0  0  0  0
  5  6  2  0  0  0  0
  5  8  1  0  0  0  0
  6  7  1  0  0  0  0
  8  9  1  0  0  0  0
  9 10  2  0  0  0  0
M  END
>  <CHROM.1>
-30.19847933,17.66094507,-15.85107035,0.69139551,0.77841057,-1.20805625

>  <Name>
ligand

>  <RI>
0

>  <Rbt.Current_Directory>
/home/itssahil/PROJECTS/Mol_Feturizer/New_Systems/rnas/4TZY

>  <Rbt.Executable>
rbdock ($Id: //depot/dev/client3/rdock/2013.1/src/exe/rbdock.cxx#4 $)

>  <Rbt.Library>
libRbt.so (2013.1, Build901 2013/11/27)

>  <Rbt.Parameter_File>
/export/apps/rDock/src/rDock_2013.1_src/data/scripts/dock_solv.prm

>  <Rbt.Receptor>
prm/blind_docking_60.prm

>  <SCORE>
-13.733

>  <SCORE.INTER>
-13.733

>  <SCORE.INTER.CONST>
1

>  <SCORE.INTER.POLAR>
0

>  <SCORE.INTER.ROT>
0

>  <SCORE.INTER.SOLV>
7.30198

>  <SCORE.INTER.VDW>
-15.1894

>  <SCORE.INTER.norm>
-1.3733

>  <SCORE.INTRA>
0

>  <SCORE.INTRA.DIHEDRAL>
0

>  <SCORE.INTRA.DIHEDRAL.0>
0

>  <SCORE.INTRA.POLAR>
0

>  <SCORE.INTRA.POLAR.0>
0

>  <SCORE.INTRA.REPUL>
0

>  <SCORE.INTRA.REPUL.0>
0

>  <SCORE.INTRA.SOLV>
0

>  <SCORE.INTRA.SOLV.lig_0>
-23.8941

>  <SCORE.INTRA.VDW>
0

>  <SCORE.INTRA.VDW.0>
0

>  <SCORE.INTRA.norm>
0

>  <SCORE.RESTR>
0

>  <SCORE.RESTR.CAVITY>
0

>  <SCORE.RESTR.norm>
0

>  <SCORE.SYSTEM>
0

>  <SCORE.SYSTEM.CONST>
0

>  <SCORE.SYSTEM.DIHEDRAL>
0

>  <SCORE.SYSTEM.SOLV>
0

>  <SCORE.SYSTEM.norm>
0

>  <SCORE.heavy>
10

>  <SCORE.norm>
-1.3733

>  <RMSD>
2.857

$$$$
ligand
 OpenBabel11021811513D
libRbt.so/2013.1/901 2013/11/27
 10 11  0  0  0  0  0  0  0  0999 V2000
  -29.2943   17.3704  -17.6202 N   0  0  0  0  0  0  0  0  0  0  0  0
  -30.1597   18.3693  -17.8340 C   0  0  0  0  0  0  0  0  0  0  0  0
  -31.0052   18.9419  -16.9790 N   0  0  0  0  0  0  0  0  0  0  0  0
  -30.9098   18.3788  -15.7644 C   0  0  0  0  0  0  0  0  0  0  0  0
  -30.0715   17.3460  -15.3926 C   0  0  0  0  0  0  0  0  0  0  0  0
  -29.2218   16.8252  -16.3888 C   0  0  0  0  0  0  0  0  0  0  0  0
  -28.3585   15.8267  -16.1721 N   0  0  0  0  0  0  0  0  0  0  0  0
  -30.2479   17.0265  -14.0569 N   0  0  0  0  0  0  0  0  0  0  0  0
  -31.1783   17.8608  -13.6549 C   0  0  0  0  0  0  0  0  0  0  0  0
  -31.6234   18.7052  -14.6335 N   0  0  0  0  0  0  0  0  0  0  0  0
  1  2  2  0  0  0  0
  1  6  1  0  0  0  0
  2  3  1  0  0  0  0
  3  4  2  0  0  0  0
  4  5  1  0  0  0  0
  4 10  1  0  0  0  0
  5  6  2  0  0  0  0
  5  8  1  0  0  0  0
  6  7  1  0  0  0  0
  8  9  1  0  0  0  0
  9 10  2  0  0  0  0
M  END
>  <CHROM.1>
-30.19926992,17.65811630,-15.85291699,0.69204655,0.78122400,-1.20725256

>  <Name>
ligand

>  <RI>
0

>  <Rbt.Current_Directory>
/home/itssahil/PROJECTS/Mol_Feturizer/New_Systems/rnas/4TZY

>  <Rbt.Executable>
rbdock ($Id: //depot/dev/client3/rdock/2013.1/src/exe/rbdock.cxx#4 $)

>  <Rbt.Library>
libRbt.so (2013.1, Build901 2013/11/27)

>  <Rbt.Parameter_File>
/export/apps/rDock/src/rDock_2013.1_src/data/scripts/dock_solv.prm

>  <Rbt.Receptor>
prm/blind_docking_60.prm

>  <SCORE>
-13.7362

>  <SCORE.INTER>
-13.7362

>  <SCORE.INTER.CONST>
1

>  <SCORE.INTER.POLAR>
0

>  <SCORE.INTER.ROT>
0

>  <SCORE.INTER.SOLV>
7.33374

>  <SCORE.INTER.VDW>
-15.202

>  <SCORE.INTER.norm>
-1.37362

>  <SCORE.INTRA>
0

>  <SCORE.INTRA.DIHEDRAL>
0

>  <SCORE.INTRA.DIHEDRAL.0>
0

>  <SCORE.INTRA.POLAR>
0

>  <SCORE.INTRA.POLAR.0>
0

>  <SCORE.INTRA.REPUL>
0

>  <SCORE.INTRA.REPUL.0>
0

>  <SCORE.INTRA.SOLV>
0

>  <SCORE.INTRA.SOLV.lig_0>
-23.8941

>  <SCORE.INTRA.VDW>
0

>  <SCORE.INTRA.VDW.0>
0

>  <SCORE.INTRA.norm>
0

>  <SCORE.RESTR>
0

>  <SCORE.RESTR.CAVITY>
0

>  <SCORE.RESTR.norm>
0

>  <SCORE.SYSTEM>
0

>  <SCORE.SYSTEM.CONST>
0

>  <SCORE.SYSTEM.DIHEDRAL>
0

>  <SCORE.SYSTEM.SOLV>
0

>  <SCORE.SYSTEM.norm>
0

>  <SCORE.heavy>
10

>  <SCORE.norm>
-1.37362

>  <RMSD>
2.857

$$$$
ligand
 OpenBabel11021811513D
libRbt.so/2013.1/901 2013/11/27
 10 11  0  0  0  0  0  0  0  0999 V2000
  -29.4202   17.2887  -17.6458 N   0  0  0  0  0  0  0  0  0  0  0  0
  -30.3385   18.2367  -17.8705 C   0  0  0  0  0  0  0  0  0  0  0  0
  -31.1759   18.8120  -17.0092 N   0  0  0  0  0  0  0  0  0  0  0  0
  -31.0077   18.3130  -15.7747 C   0  0  0  0  0  0  0  0  0  0  0  0
  -30.1088   17.3376  -15.3897 C   0  0  0  0  0  0  0  0  0  0  0  0
  -29.2751   16.8074  -16.3944 C   0  0  0  0  0  0  0  0  0  0  0  0
  -28.3589   15.8598  -16.1669 N   0  0  0  0  0  0  0  0  0  0  0  0
  -30.2185   17.0755  -14.0345 N   0  0  0  0  0  0  0  0  0  0  0  0
  -31.1702   17.8862  -13.6341 C   0  0  0  0  0  0  0  0  0  0  0  0
  -31.6914   18.6618  -14.6320 N   0  0  0  0  0  0  0  0  0  0  0  0
  1  2  2  0  0  0  0
  1  6  1  0  0  0  0
  2  3  1  0  0  0  0
  3  4  2  0  0  0  0
  4  5  1  0  0  0  0
  4 10  1  0  0  0  0
  5  6  2  0  0  0  0
  5  8  1  0  0  0  0
  6  7  1  0  0  0  0
  8  9  1  0  0  0  0
  9 10  2  0  0  0  0
M  END
>  <CHROM.1>
-30.26857483,17.62109318,-15.85843821,0.76396432,0.75043805,-1.30463729

>  <Name>
ligand

>  <RI>
0

>  <Rbt.Current_Directory>
/home/itssahil/PROJECTS/Mol_Feturizer/New_Systems/rnas/4TZY

>  <Rbt.Executable>
rbdock ($Id: //depot/dev/client3/rdock/2013.1/src/exe/rbdock.cxx#4 $)

>  <Rbt.Library>
libRbt.so (2013.1, Build901 2013/11/27)

>  <Rbt.Parameter_File>
/export/apps/rDock/src/rDock_2013.1_src/data/scripts/dock_solv.prm

>  <Rbt.Receptor>
prm/pocket_docking_8.prm

>  <SCORE>
-13.6891

>  <SCORE.INTER>
-13.6891

>  <SCORE.INTER.CONST>
1

>  <SCORE.INTER.POLAR>
0

>  <SCORE.INTER.ROT>
0

>  <SCORE.INTER.SOLV>
7.22678

>  <SCORE.INTER.VDW>
-15.135

>  <SCORE.INTER.norm>
-1.36891

>  <SCORE.INTRA>
0

>  <SCORE.INTRA.DIHEDRAL>
0

>  <SCORE.INTRA.DIHEDRAL.0>
0

>  <SCORE.INTRA.POLAR>
0

>  <SCORE.INTRA.POLAR.0>
0

>  <SCORE.INTRA.REPUL>
0

>  <SCORE.INTRA.REPUL.0>
0

>  <SCORE.INTRA.SOLV>
0

>  <SCORE.INTRA.SOLV.lig_0>
-23.8941

>  <SCORE.INTRA.VDW>
0

>  <SCORE.INTRA.VDW.0>
0

>  <SCORE.INTRA.norm>
0

>  <SCORE.RESTR>
0

>  <SCORE.RESTR.CAVITY>
0

>  <SCORE.RESTR.norm>
0

>  <SCORE.SYSTEM>
0

>  <SCORE.SYSTEM.CONST>
0

>  <SCORE.SYSTEM.DIHEDRAL>
0

>  <SCORE.SYSTEM.SOLV>
0

>  <SCORE.SYSTEM.norm>
0

>  <SCORE.heavy>
10

>  <SCORE.norm>
-1.36891

>  <RMSD>
2.857

$$$$
ligand
 OpenBabel11021811513D
libRbt.so/2013.1/901 2013/11/27
 10 11  0  0  0  0  0  0  0  0999 V2000
  -29.2930   17.3650  -17.6223 N   0  0  0  0  0  0  0  0  0  0  0  0
  -30.1525   18.3698  -17.8317 C   0  0  0  0  0  0  0  0  0  0  0  0
  -30.9868   18.9510  -16.9713 N   0  0  0  0  0  0  0  0  0  0  0  0
  -30.8858   18.3902  -15.7562 C   0  0  0  0  0  0  0  0  0  0  0  0
  -30.0523   17.3520  -15.3885 C   0  0  0  0  0  0  0  0  0  0  0  0
  -29.2146   16.8223  -16.3902 C   0  0  0  0  0  0  0  0  0  0  0  0
  -28.3572   15.8179  -16.1779 N   0  0  0  0  0  0  0  0  0  0  0  0
  -30.2203   17.0372  -14.0506 N   0  0  0  0  0  0  0  0  0  0  0  0
  -31.1411   17.8795  -13.6432 C   0  0  0  0  0  0  0  0  0  0  0  0
  -31.5877   18.7248  -14.6203 N   0  0  0  0  0  0  0  0  0  0  0  0
  1  2  2  0  0  0  0
  1  6  1  0  0  0  0
  2  3  1  0  0  0  0
  3  4  2  0  0  0  0
  4  5  1  0  0  0  0
  4 10  1  0  0  0  0
  5  6  2  0  0  0  0
  5  8  1  0  0  0  0
  6  7  1  0  0  0  0
  8  9  1  0  0  0  0
  9 10  2  0  0  0  0
M  END
>  <CHROM.1>
-30.18144887,17.66393598,-15.84853586,0.69900601,0.79112616,-1.21470525

>  <Name>
ligand

>  <RI>
0

>  <Rbt.Current_Directory>
/home/itssahil/PROJECTS/Mol_Feturizer/New_Systems/rnas/4TZY

>  <Rbt.Executable>
rbdock ($Id: //depot/dev/client3/rdock/2013.1/src/exe/rbdock.cxx#4 $)

>  <Rbt.Library>
libRbt.so (2013.1, Build901 2013/11/27)

>  <Rbt.Parameter_File>
/export/apps/rDock/src/rDock_2013.1_src/data/scripts/dock_solv.prm

>  <Rbt.Receptor>
prm/blind_docking_100.prm

>  <SCORE>
-13.7606

>  <SCORE.INTER>
-13.7606

>  <SCORE.INTER.CONST>
1

>  <SCORE.INTER.POLAR>
0

>  <SCORE.INTER.ROT>
0

>  <SCORE.INTER.SOLV>
7.37

>  <SCORE.INTER.VDW>
-15.2304

>  <SCORE.INTER.norm>
-1.37606

>  <SCORE.INTRA>
0

>  <SCORE.INTRA.DIHEDRAL>
0

>  <SCORE.INTRA.DIHEDRAL.0>
0

>  <SCORE.INTRA.POLAR>
0

>  <SCORE.INTRA.POLAR.0>
0

>  <SCORE.INTRA.REPUL>
0

>  <SCORE.INTRA.REPUL.0>
0

>  <SCORE.INTRA.SOLV>
0

>  <SCORE.INTRA.SOLV.lig_0>
-23.8941

>  <SCORE.INTRA.VDW>
0

>  <SCORE.INTRA.VDW.0>
0

>  <SCORE.INTRA.norm>
0

>  <SCORE.RESTR>
0

>  <SCORE.RESTR.CAVITY>
0

>  <SCORE.RESTR.norm>
0

>  <SCORE.SYSTEM>
0

>  <SCORE.SYSTEM.CONST>
0

>  <SCORE.SYSTEM.DIHEDRAL>
0

>  <SCORE.SYSTEM.SOLV>
0

>  <SCORE.SYSTEM.norm>
0

>  <SCORE.heavy>
10

>  <SCORE.norm>
-1.37606

>  <RMSD>
2.858

$$$$
ligand
 OpenBabel11021811513D
libRbt.so/2013.1/901 2013/11/27
 10 11  0  0  0  0  0  0  0  0999 V2000
  -29.3614   17.3638  -17.6361 N   0  0  0  0  0  0  0  0  0  0  0  0
  -30.2149   18.3757  -17.8364 C   0  0  0  0  0  0  0  0  0  0  0  0
  -31.0397   18.9594  -16.9687 N   0  0  0  0  0  0  0  0  0  0  0  0
  -30.9355   18.3931  -15.7564 C   0  0  0  0  0  0  0  0  0  0  0  0
  -30.1074   17.3475  -15.3978 C   0  0  0  0  0  0  0  0  0  0  0  0
  -29.2796   16.8158  -16.4066 C   0  0  0  0  0  0  0  0  0  0  0  0
  -28.4282   15.8043  -16.2034 N   0  0  0  0  0  0  0  0  0  0  0  0
  -30.2696   17.0286  -14.0602 N   0  0  0  0  0  0  0  0  0  0  0  0
  -31.1818   17.8759  -13.6439 C   0  0  0  0  0  0  0  0  0  0  0  0
  -31.6282   18.7283  -14.6150 N   0  0  0  0  0  0  0  0  0  0  0  0
  1  2  2  0  0  0  0
  1  6  1  0  0  0  0
  2  3  1  0  0  0  0
  3  4  2  0  0  0  0
  4  5  1  0  0  0  0
  4 10  1  0  0  0  0
  5  6  2  0  0  0  0
  5  8  1  0  0  0  0
  6  7  1  0  0  0  0
  8  9  1  0  0  0  0
  9 10  2  0  0  0  0
M  END
>  <CHROM.1>
-30.23700737,17.66216609,-15.85583952,0.70344707,0.79999911,-1.21393526

>  <Name>
ligand

>  <RI>
0

>  <Rbt.Current_Directory>
/home/itssahil/PROJECTS/Mol_Feturizer/New_Systems/rnas/4TZY

>  <Rbt.Executable>
rbdock ($Id: //depot/dev/client3/rdock/2013.1/src/exe/rbdock.cxx#4 $)

>  <Rbt.Library>
libRbt.so (2013.1, Build901 2013/11/27)

>  <Rbt.Parameter_File>
/export/apps/rDock/src/rDock_2013.1_src/data/scripts/dock_solv.prm

>  <Rbt.Receptor>
prm/pocket_docking_5.prm

>  <SCORE>
-13.7719

>  <SCORE.INTER>
-13.7719

>  <SCORE.INTER.CONST>
1

>  <SCORE.INTER.POLAR>
0

>  <SCORE.INTER.ROT>
0

>  <SCORE.INTER.SOLV>
7.57097

>  <SCORE.INTER.VDW>
-15.3049

>  <SCORE.INTER.norm>
-1.37719

>  <SCORE.INTRA>
0

>  <SCORE.INTRA.DIHEDRAL>
0

>  <SCORE.INTRA.DIHEDRAL.0>
0

>  <SCORE.INTRA.POLAR>
0

>  <SCORE.INTRA.POLAR.0>
0

>  <SCORE.INTRA.REPUL>
0

>  <SCORE.INTRA.REPUL.0>
0

>  <SCORE.INTRA.SOLV>
0

>  <SCORE.INTRA.SOLV.lig_0>
-23.8941

>  <SCORE.INTRA.VDW>
0

>  <SCORE.INTRA.VDW.0>
0

>  <SCORE.INTRA.norm>
0

>  <SCORE.RESTR>
0

>  <SCORE.RESTR.CAVITY>
0

>  <SCORE.RESTR.norm>
0

>  <SCORE.SYSTEM>
0

>  <SCORE.SYSTEM.CONST>
0

>  <SCORE.SYSTEM.DIHEDRAL>
0

>  <SCORE.SYSTEM.SOLV>
0

>  <SCORE.SYSTEM.norm>
0

>  <SCORE.heavy>
10

>  <SCORE.norm>
-1.37719

>  <RMSD>
2.858

$$$$
ligand
 OpenBabel11021811513D
libRbt.so/2013.1/901 2013/11/27
 10 11  0  0  0  0  0  0  0  0999 V2000
  -29.3628   17.3593  -17.6377 N   0  0  0  0  0  0  0  0  0  0  0  0
  -30.2175   18.3699  -17.8389 C   0  0  0  0  0  0  0  0  0  0  0  0
  -31.0422   18.9542  -16.9715 N   0  0  0  0  0  0  0  0  0  0  0  0
  -30.9364   18.3900  -15.7584 C   0  0  0  0  0  0  0  0  0  0  0  0
  -30.1069   17.3458  -15.3988 C   0  0  0  0  0  0  0  0  0  0  0  0
  -29.2794   16.8133  -16.4074 C   0  0  0  0  0  0  0  0  0  0  0  0
  -28.4268   15.8031  -16.2034 N   0  0  0  0  0  0  0  0  0  0  0  0
  -30.2677   17.0288  -14.0605 N   0  0  0  0  0  0  0  0  0  0  0  0
  -31.1804   17.8758  -13.6449 C   0  0  0  0  0  0  0  0  0  0  0  0
  -31.6284   18.7262  -14.6169 N   0  0  0  0  0  0  0  0  0  0  0  0
  1  2  2  0  0  0  0
  1  6  1  0  0  0  0
  2  3  1  0  0  0  0
  3  4  2  0  0  0  0
  4  5  1  0  0  0  0
  4 10  1  0  0  0  0
  5  6  2  0  0  0  0
  5  8  1  0  0  0  0
  6  7  1  0  0  0  0
  8  9  1  0  0  0  0
  9 10  2  0  0  0  0
M  END
>  <CHROM.1>
-30.23723236,17.65956079,-15.85722850,0.70508614,0.79932479,-1.21670418

>  <Name>
ligand

>  <RI>
0

>  <Rbt.Current_Directory>
/home/itssahil/PROJECTS/Mol_Feturizer/New_Systems/rnas/4TZY

>  <Rbt.Executable>
rbdock ($Id: //depot/dev/client3/rdock/2013.1/src/exe/rbdock.cxx#4 $)

>  <Rbt.Library>
libRbt.so (2013.1, Build901 2013/11/27)

>  <Rbt.Parameter_File>
/export/apps/rDock/src/rDock_2013.1_src/data/scripts/dock_solv.prm

>  <Rbt.Receptor>
prm/pocket_docking_8.prm

>  <SCORE>
-13.7759

>  <SCORE.INTER>
-13.7759

>  <SCORE.INTER.CONST>
1

>  <SCORE.INTER.POLAR>
0

>  <SCORE.INTER.ROT>
0

>  <SCORE.INTER.SOLV>
7.56768

>  <SCORE.INTER.VDW>
-15.3065

>  <SCORE.INTER.norm>
-1.37759

>  <SCORE.INTRA>
0

>  <SCORE.INTRA.DIHEDRAL>
0

>  <SCORE.INTRA.DIHEDRAL.0>
0

>  <SCORE.INTRA.POLAR>
0

>  <SCORE.INTRA.POLAR.0>
0

>  <SCORE.INTRA.REPUL>
0

>  <SCORE.INTRA.REPUL.0>
0

>  <SCORE.INTRA.SOLV>
0

>  <SCORE.INTRA.SOLV.lig_0>
-23.8941

>  <SCORE.INTRA.VDW>
0

>  <SCORE.INTRA.VDW.0>
0

>  <SCORE.INTRA.norm>
0

>  <SCORE.RESTR>
0

>  <SCORE.RESTR.CAVITY>
0

>  <SCORE.RESTR.norm>
0

>  <SCORE.SYSTEM>
0

>  <SCORE.SYSTEM.CONST>
0

>  <SCORE.SYSTEM.DIHEDRAL>
0

>  <SCORE.SYSTEM.SOLV>
0

>  <SCORE.SYSTEM.norm>
0

>  <SCORE.heavy>
10

>  <SCORE.norm>
-1.37759

>  <RMSD>
2.858

$$$$
ligand
 OpenBabel11021811513D
libRbt.so/2013.1/901 2013/11/27
 10 11  0  0  0  0  0  0  0  0999 V2000
  -29.3689   17.3637  -17.6351 N   0  0  0  0  0  0  0  0  0  0  0  0
  -30.2272   18.3717  -17.8342 C   0  0  0  0  0  0  0  0  0  0  0  0
  -31.0496   18.9553  -16.9640 N   0  0  0  0  0  0  0  0  0  0  0  0
  -30.9367   18.3934  -15.7504 C   0  0  0  0  0  0  0  0  0  0  0  0
  -30.1027   17.3521  -15.3928 C   0  0  0  0  0  0  0  0  0  0  0  0
  -29.2784   16.8200  -16.4043 C   0  0  0  0  0  0  0  0  0  0  0  0
  -28.4222   15.8125  -16.2024 N   0  0  0  0  0  0  0  0  0  0  0  0
  -30.2566   17.0371  -14.0533 N   0  0  0  0  0  0  0  0  0  0  0  0
  -31.1697   17.8823  -13.6349 C   0  0  0  0  0  0  0  0  0  0  0  0
  -31.6244   18.7298  -14.6064 N   0  0  0  0  0  0  0  0  0  0  0  0
  1  2  2  0  0  0  0
  1  6  1  0  0  0  0
  2  3  1  0  0  0  0
  3  4  2  0  0  0  0
  4  5  1  0  0  0  0
  4 10  1  0  0  0  0
  5  6  2  0  0  0  0
  5  8  1  0  0  0  0
  6  7  1  0  0  0  0
  8  9  1  0  0  0  0
  9 10  2  0  0  0  0
M  END
>  <CHROM.1>
-30.23601342,17.66471289,-15.85117912,0.71255422,0.79835855,-1.22380691

>  <Name>
ligand

>  <RI>
0

>  <Rbt.Current_Directory>
/home/itssahil/PROJECTS/Mol_Feturizer/New_Systems/rnas/4TZY

>  <Rbt.Executable>
rbdock ($Id: //depot/dev/client3/rdock/2013.1/src/exe/rbdock.cxx#4 $)

>  <Rbt.Library>
libRbt.so (2013.1, Build901 2013/11/27)

>  <Rbt.Parameter_File>
/export/apps/rDock/src/rDock_2013.1_src/data/scripts/dock_solv.prm

>  <Rbt.Receptor>
prm/blind_docking_100.prm

>  <SCORE>
-13.8092

>  <SCORE.INTER>
-13.8092

>  <SCORE.INTER.CONST>
1

>  <SCORE.INTER.POLAR>
0

>  <SCORE.INTER.ROT>
0

>  <SCORE.INTER.SOLV>
7.54264

>  <SCORE.INTER.VDW>
-15.3204

>  <SCORE.INTER.norm>
-1.38092

>  <SCORE.INTRA>
0

>  <SCORE.INTRA.DIHEDRAL>
0

>  <SCORE.INTRA.DIHEDRAL.0>
0

>  <SCORE.INTRA.POLAR>
0

>  <SCORE.INTRA.POLAR.0>
0

>  <SCORE.INTRA.REPUL>
0

>  <SCORE.INTRA.REPUL.0>
0

>  <SCORE.INTRA.SOLV>
0

>  <SCORE.INTRA.SOLV.lig_0>
-23.8941

>  <SCORE.INTRA.VDW>
0

>  <SCORE.INTRA.VDW.0>
0

>  <SCORE.INTRA.norm>
0

>  <SCORE.RESTR>
0

>  <SCORE.RESTR.CAVITY>
0

>  <SCORE.RESTR.norm>
0

>  <SCORE.SYSTEM>
0

>  <SCORE.SYSTEM.CONST>
0

>  <SCORE.SYSTEM.DIHEDRAL>
0

>  <SCORE.SYSTEM.SOLV>
0

>  <SCORE.SYSTEM.norm>
0

>  <SCORE.heavy>
10

>  <SCORE.norm>
-1.38092

>  <RMSD>
2.859

$$$$
ligand
 OpenBabel11021811513D
libRbt.so/2013.1/901 2013/11/27
 10 11  0  0  0  0  0  0  0  0999 V2000
  -29.3273   17.3683  -17.6246 N   0  0  0  0  0  0  0  0  0  0  0  0
  -30.1958   18.3660  -17.8311 C   0  0  0  0  0  0  0  0  0  0  0  0
  -31.0333   18.9390  -16.9683 N   0  0  0  0  0  0  0  0  0  0  0  0
  -30.9250   18.3777  -15.7541 C   0  0  0  0  0  0  0  0  0  0  0  0
  -30.0819   17.3463  -15.3893 C   0  0  0  0  0  0  0  0  0  0  0  0
  -29.2418   16.8249  -16.3933 C   0  0  0  0  0  0  0  0  0  0  0  0
  -28.3754   15.8276  -16.1839 N   0  0  0  0  0  0  0  0  0  0  0  0
  -30.2445   17.0285  -14.0514 N   0  0  0  0  0  0  0  0  0  0  0  0
  -31.1716   17.8624  -13.6412 C   0  0  0  0  0  0  0  0  0  0  0  0
  -31.6274   18.7050  -14.6164 N   0  0  0  0  0  0  0  0  0  0  0  0
  1  2  2  0  0  0  0
  1  6  1  0  0  0  0
  2  3  1  0  0  0  0
  3  4  2  0  0  0  0
  4  5  1  0  0  0  0
  4 10  1  0  0  0  0
  5  6  2  0  0  0  0
  5  8  1  0  0  0  0
  6  7  1  0  0  0  0
  8  9  1  0  0  0  0
  9 10  2  0  0  0  0
M  END
>  <CHROM.1>
-30.21466122,17.65761096,-15.84870370,0.70590732,0.78380860,-1.21843295

>  <Name>
ligand

>  <RI>
0

>  <Rbt.Current_Directory>
/home/itssahil/PROJECTS/Mol_Feturizer/New_Systems/rnas/4TZY

>  <Rbt.Executable>
rbdock ($Id: //depot/dev/client3/rdock/2013.1/src/exe/rbdock.cxx#4 $)

>  <Rbt.Library>
libRbt.so (2013.1, Build901 2013/11/27)

>  <Rbt.Parameter_File>
/export/apps/rDock/src/rDock_2013.1_src/data/scripts/dock_solv.prm

>  <Rbt.Receptor>
prm/pocket_docking_7.prm

>  <SCORE>
-13.7632

>  <SCORE.INTER>
-13.7632

>  <SCORE.INTER.CONST>
1

>  <SCORE.INTER.POLAR>
0

>  <SCORE.INTER.ROT>
0

>  <SCORE.INTER.SOLV>
7.38535

>  <SCORE.INTER.VDW>
-15.2373

>  <SCORE.INTER.norm>
-1.37632

>  <SCORE.INTRA>
0

>  <SCORE.INTRA.DIHEDRAL>
0

>  <SCORE.INTRA.DIHEDRAL.0>
0

>  <SCORE.INTRA.POLAR>
0

>  <SCORE.INTRA.POLAR.0>
0

>  <SCORE.INTRA.REPUL>
0

>  <SCORE.INTRA.REPUL.0>
0

>  <SCORE.INTRA.SOLV>
0

>  <SCORE.INTRA.SOLV.lig_0>
-23.8941

>  <SCORE.INTRA.VDW>
0

>  <SCORE.INTRA.VDW.0>
0

>  <SCORE.INTRA.norm>
0

>  <SCORE.RESTR>
0

>  <SCORE.RESTR.CAVITY>
0

>  <SCORE.RESTR.norm>
0

>  <SCORE.SYSTEM>
0

>  <SCORE.SYSTEM.CONST>
0

>  <SCORE.SYSTEM.DIHEDRAL>
0

>  <SCORE.SYSTEM.SOLV>
0

>  <SCORE.SYSTEM.norm>
0

>  <SCORE.heavy>
10

>  <SCORE.norm>
-1.37632

>  <RMSD>
2.859

$$$$
ligand
 OpenBabel11021811513D
libRbt.so/2013.1/901 2013/11/27
 10 11  0  0  0  0  0  0  0  0999 V2000
  -29.4015   17.3157  -17.6359 N   0  0  0  0  0  0  0  0  0  0  0  0
  -30.3290   18.2551  -17.8591 C   0  0  0  0  0  0  0  0  0  0  0  0
  -31.1744   18.8183  -16.9978 N   0  0  0  0  0  0  0  0  0  0  0  0
  -31.0041   18.3164  -15.7648 C   0  0  0  0  0  0  0  0  0  0  0  0
  -30.0961   17.3488  -15.3813 C   0  0  0  0  0  0  0  0  0  0  0  0
  -29.2544   16.8312  -16.3859 C   0  0  0  0  0  0  0  0  0  0  0  0
  -28.3291   15.8922  -16.1598 N   0  0  0  0  0  0  0  0  0  0  0  0
  -30.2065   17.0803  -14.0274 N   0  0  0  0  0  0  0  0  0  0  0  0
  -31.1675   17.8795  -13.6262 C   0  0  0  0  0  0  0  0  0  0  0  0
  -31.6942   18.6536  -14.6224 N   0  0  0  0  0  0  0  0  0  0  0  0
  1  2  2  0  0  0  0
  1  6  1  0  0  0  0
  2  3  1  0  0  0  0
  3  4  2  0  0  0  0
  4  5  1  0  0  0  0
  4 10  1  0  0  0  0
  5  6  2  0  0  0  0
  5  8  1  0  0  0  0
  6  7  1  0  0  0  0
  8  9  1  0  0  0  0
  9 10  2  0  0  0  0
M  END
>  <CHROM.1>
-30.25765465,17.63243294,-15.84932317,0.76442814,0.73978985,-1.30107535

>  <Name>
ligand

>  <RI>
0

>  <Rbt.Current_Directory>
/home/itssahil/PROJECTS/Mol_Feturizer/New_Systems/rnas/4TZY

>  <Rbt.Executable>
rbdock ($Id: //depot/dev/client3/rdock/2013.1/src/exe/rbdock.cxx#4 $)

>  <Rbt.Library>
libRbt.so (2013.1, Build901 2013/11/27)

>  <Rbt.Parameter_File>
/export/apps/rDock/src/rDock_2013.1_src/data/scripts/dock_solv.prm

>  <Rbt.Receptor>
prm/blind_docking_100.prm

>  <SCORE>
-13.6929

>  <SCORE.INTER>
-13.6929

>  <SCORE.INTER.CONST>
1

>  <SCORE.INTER.POLAR>
0

>  <SCORE.INTER.ROT>
0

>  <SCORE.INTER.SOLV>
7.14641

>  <SCORE.INTER.VDW>
-15.1107

>  <SCORE.INTER.norm>
-1.36929

>  <SCORE.INTRA>
0

>  <SCORE.INTRA.DIHEDRAL>
0

>  <SCORE.INTRA.DIHEDRAL.0>
0

>  <SCORE.INTRA.POLAR>
0

>  <SCORE.INTRA.POLAR.0>
0

>  <SCORE.INTRA.REPUL>
0

>  <SCORE.INTRA.REPUL.0>
0

>  <SCORE.INTRA.SOLV>
0

>  <SCORE.INTRA.SOLV.lig_0>
-23.8941

>  <SCORE.INTRA.VDW>
0

>  <SCORE.INTRA.VDW.0>
0

>  <SCORE.INTRA.norm>
0

>  <SCORE.RESTR>
0

>  <SCORE.RESTR.CAVITY>
0

>  <SCORE.RESTR.norm>
0

>  <SCORE.SYSTEM>
0

>  <SCORE.SYSTEM.CONST>
0

>  <SCORE.SYSTEM.DIHEDRAL>
0

>  <SCORE.SYSTEM.SOLV>
0

>  <SCORE.SYSTEM.norm>
0

>  <SCORE.heavy>
10

>  <SCORE.norm>
-1.36929

>  <RMSD>
2.860

$$$$
ligand
 OpenBabel11021811513D
libRbt.so/2013.1/901 2013/11/27
 10 11  0  0  0  0  0  0  0  0999 V2000
  -29.3751   17.3594  -17.6387 N   0  0  0  0  0  0  0  0  0  0  0  0
  -30.2307   18.3712  -17.8300 C   0  0  0  0  0  0  0  0  0  0  0  0
  -31.0458   18.9556  -16.9535 N   0  0  0  0  0  0  0  0  0  0  0  0
  -30.9280   18.3899  -15.7421 C   0  0  0  0  0  0  0  0  0  0  0  0
  -30.0961   17.3444  -15.3922 C   0  0  0  0  0  0  0  0  0  0  0  0
  -29.2796   16.8120  -16.4099 C   0  0  0  0  0  0  0  0  0  0  0  0
  -28.4262   15.8006  -16.2157 N   0  0  0  0  0  0  0  0  0  0  0  0
  -30.2434   17.0262  -14.0527 N   0  0  0  0  0  0  0  0  0  0  0  0
  -31.1508   17.8738  -13.6267 C   0  0  0  0  0  0  0  0  0  0  0  0
  -31.6079   18.7258  -14.5932 N   0  0  0  0  0  0  0  0  0  0  0  0
  1  2  2  0  0  0  0
  1  6  1  0  0  0  0
  2  3  1  0  0  0  0
  3  4  2  0  0  0  0
  4  5  1  0  0  0  0
  4 10  1  0  0  0  0
  5  6  2  0  0  0  0
  5  8  1  0  0  0  0
  6  7  1  0  0  0  0
  8  9  1  0  0  0  0
  9 10  2  0  0  0  0
M  END
>  <CHROM.1>
-30.23080260,17.65879903,-15.84895322,0.71847278,0.80393889,-1.22528313

>  <Name>
ligand

>  <RI>
0

>  <Rbt.Current_Directory>
/home/itssahil/PROJECTS/Mol_Feturizer/New_Systems/rnas/4TZY

>  <Rbt.Executable>
rbdock ($Id: //depot/dev/client3/rdock/2013.1/src/exe/rbdock.cxx#4 $)

>  <Rbt.Library>
libRbt.so (2013.1, Build901 2013/11/27)

>  <Rbt.Parameter_File>
/export/apps/rDock/src/rDock_2013.1_src/data/scripts/dock_solv.prm

>  <Rbt.Receptor>
prm/blind_docking_60.prm

>  <SCORE>
-13.7803

>  <SCORE.INTER>
-13.7803

>  <SCORE.INTER.CONST>
1

>  <SCORE.INTER.POLAR>
0

>  <SCORE.INTER.ROT>
0

>  <SCORE.INTER.SOLV>
7.59812

>  <SCORE.INTER.VDW>
-15.3196

>  <SCORE.INTER.norm>
-1.37803

>  <SCORE.INTRA>
0

>  <SCORE.INTRA.DIHEDRAL>
0

>  <SCORE.INTRA.DIHEDRAL.0>
0

>  <SCORE.INTRA.POLAR>
0

>  <SCORE.INTRA.POLAR.0>
0

>  <SCORE.INTRA.REPUL>
0

>  <SCORE.INTRA.REPUL.0>
0

>  <SCORE.INTRA.SOLV>
0

>  <SCORE.INTRA.SOLV.lig_0>
-23.8941

>  <SCORE.INTRA.VDW>
0

>  <SCORE.INTRA.VDW.0>
0

>  <SCORE.INTRA.norm>
0

>  <SCORE.RESTR>
0

>  <SCORE.RESTR.CAVITY>
0

>  <SCORE.RESTR.norm>
0

>  <SCORE.SYSTEM>
0

>  <SCORE.SYSTEM.CONST>
0

>  <SCORE.SYSTEM.DIHEDRAL>
0

>  <SCORE.SYSTEM.SOLV>
0

>  <SCORE.SYSTEM.norm>
0

>  <SCORE.heavy>
10

>  <SCORE.norm>
-1.37803

>  <RMSD>
2.860

$$$$
ligand
 OpenBabel11021811513D
libRbt.so/2013.1/901 2013/11/27
 10 11  0  0  0  0  0  0  0  0999 V2000
  -29.3222   17.3715  -17.6190 N   0  0  0  0  0  0  0  0  0  0  0  0
  -30.1954   18.3646  -17.8277 C   0  0  0  0  0  0  0  0  0  0  0  0
  -31.0355   18.9357  -16.9663 N   0  0  0  0  0  0  0  0  0  0  0  0
  -30.9246   18.3776  -15.7507 C   0  0  0  0  0  0  0  0  0  0  0  0
  -30.0768   17.3510  -15.3836 C   0  0  0  0  0  0  0  0  0  0  0  0
  -29.2342   16.8313  -16.3864 C   0  0  0  0  0  0  0  0  0  0  0  0
  -28.3632   15.8385  -16.1748 N   0  0  0  0  0  0  0  0  0  0  0  0
  -30.2379   17.0354  -14.0451 N   0  0  0  0  0  0  0  0  0  0  0  0
  -31.1689   17.8659  -13.6367 C   0  0  0  0  0  0  0  0  0  0  0  0
  -31.6286   18.7042  -14.6138 N   0  0  0  0  0  0  0  0  0  0  0  0
  1  2  2  0  0  0  0
  1  6  1  0  0  0  0
  2  3  1  0  0  0  0
  3  4  2  0  0  0  0
  4  5  1  0  0  0  0
  4 10  1  0  0  0  0
  5  6  2  0  0  0  0
  5  8  1  0  0  0  0
  6  7  1  0  0  0  0
  8  9  1  0  0  0  0
  9 10  2  0  0  0  0
M  END
>  <CHROM.1>
-30.21097161,17.66061532,-15.84374257,0.70814797,0.77942491,-1.22226898

>  <Name>
ligand

>  <RI>
0

>  <Rbt.Current_Directory>
/home/itssahil/PROJECTS/Mol_Feturizer/New_Systems/rnas/4TZY

>  <Rbt.Executable>
rbdock ($Id: //depot/dev/client3/rdock/2013.1/src/exe/rbdock.cxx#4 $)

>  <Rbt.Library>
libRbt.so (2013.1, Build901 2013/11/27)

>  <Rbt.Parameter_File>
/export/apps/rDock/src/rDock_2013.1_src/data/scripts/dock_solv.prm

>  <Rbt.Receptor>
prm/blind_docking_80.prm

>  <SCORE>
-13.7664

>  <SCORE.INTER>
-13.7664

>  <SCORE.INTER.CONST>
1

>  <SCORE.INTER.POLAR>
0

>  <SCORE.INTER.ROT>
0

>  <SCORE.INTER.SOLV>
7.32517

>  <SCORE.INTER.VDW>
-15.2193

>  <SCORE.INTER.norm>
-1.37664

>  <SCORE.INTRA>
0

>  <SCORE.INTRA.DIHEDRAL>
0

>  <SCORE.INTRA.DIHEDRAL.0>
0

>  <SCORE.INTRA.POLAR>
0

>  <SCORE.INTRA.POLAR.0>
0

>  <SCORE.INTRA.REPUL>
0

>  <SCORE.INTRA.REPUL.0>
0

>  <SCORE.INTRA.SOLV>
0

>  <SCORE.INTRA.SOLV.lig_0>
-23.8941

>  <SCORE.INTRA.VDW>
0

>  <SCORE.INTRA.VDW.0>
0

>  <SCORE.INTRA.norm>
0

>  <SCORE.RESTR>
0

>  <SCORE.RESTR.CAVITY>
0

>  <SCORE.RESTR.norm>
0

>  <SCORE.SYSTEM>
0

>  <SCORE.SYSTEM.CONST>
0

>  <SCORE.SYSTEM.DIHEDRAL>
0

>  <SCORE.SYSTEM.SOLV>
0

>  <SCORE.SYSTEM.norm>
0

>  <SCORE.heavy>
10

>  <SCORE.norm>
-1.37664

>  <RMSD>
2.860

$$$$
ligand
 OpenBabel11021811513D
libRbt.so/2013.1/901 2013/11/27
 10 11  0  0  0  0  0  0  0  0999 V2000
  -29.3689   17.3602  -17.6365 N   0  0  0  0  0  0  0  0  0  0  0  0
  -30.2223   18.3735  -17.8300 C   0  0  0  0  0  0  0  0  0  0  0  0
  -31.0398   18.9581  -16.9560 N   0  0  0  0  0  0  0  0  0  0  0  0
  -30.9276   18.3909  -15.7448 C   0  0  0  0  0  0  0  0  0  0  0  0
  -30.0986   17.3438  -15.3928 C   0  0  0  0  0  0  0  0  0  0  0  0
  -29.2790   16.8113  -16.4079 C   0  0  0  0  0  0  0  0  0  0  0  0
  -28.4278   15.7984  -16.2116 N   0  0  0  0  0  0  0  0  0  0  0  0
  -30.2516   17.0244  -14.0543 N   0  0  0  0  0  0  0  0  0  0  0  0
  -31.1594   17.8729  -13.6309 C   0  0  0  0  0  0  0  0  0  0  0  0
  -31.6114   18.7266  -14.5982 N   0  0  0  0  0  0  0  0  0  0  0  0
  1  2  2  0  0  0  0
  1  6  1  0  0  0  0
  2  3  1  0  0  0  0
  3  4  2  0  0  0  0
  4  5  1  0  0  0  0
  4 10  1  0  0  0  0
  5  6  2  0  0  0  0
  5  8  1  0  0  0  0
  6  7  1  0  0  0  0
  8  9  1  0  0  0  0
  9 10  2  0  0  0  0
M  END
>  <CHROM.1>
-30.23107236,17.65891102,-15.84975059,0.71249558,0.80403122,-1.21988894

>  <Name>
ligand

>  <RI>
0

>  <Rbt.Current_Directory>
/home/itssahil/PROJECTS/Mol_Feturizer/New_Systems/rnas/4TZY

>  <Rbt.Executable>
rbdock ($Id: //depot/dev/client3/rdock/2013.1/src/exe/rbdock.cxx#4 $)

>  <Rbt.Library>
libRbt.so (2013.1, Build901 2013/11/27)

>  <Rbt.Parameter_File>
/export/apps/rDock/src/rDock_2013.1_src/data/scripts/dock_solv.prm

>  <Rbt.Receptor>
prm/pocket_docking_4.prm

>  <SCORE>
-13.7791

>  <SCORE.INTER>
-13.7791

>  <SCORE.INTER.CONST>
1

>  <SCORE.INTER.POLAR>
0

>  <SCORE.INTER.ROT>
0

>  <SCORE.INTER.SOLV>
7.5958

>  <SCORE.INTER.VDW>
-15.318

>  <SCORE.INTER.norm>
-1.37791

>  <SCORE.INTRA>
0

>  <SCORE.INTRA.DIHEDRAL>
0

>  <SCORE.INTRA.DIHEDRAL.0>
0

>  <SCORE.INTRA.POLAR>
0

>  <SCORE.INTRA.POLAR.0>
0

>  <SCORE.INTRA.REPUL>
0

>  <SCORE.INTRA.REPUL.0>
0

>  <SCORE.INTRA.SOLV>
0

>  <SCORE.INTRA.SOLV.lig_0>
-23.8941

>  <SCORE.INTRA.VDW>
0

>  <SCORE.INTRA.VDW.0>
0

>  <SCORE.INTRA.norm>
0

>  <SCORE.RESTR>
0

>  <SCORE.RESTR.CAVITY>
0

>  <SCORE.RESTR.norm>
0

>  <SCORE.SYSTEM>
0

>  <SCORE.SYSTEM.CONST>
0

>  <SCORE.SYSTEM.DIHEDRAL>
0

>  <SCORE.SYSTEM.SOLV>
0

>  <SCORE.SYSTEM.norm>
0

>  <SCORE.heavy>
10

>  <SCORE.norm>
-1.37791

>  <RMSD>
2.860

$$$$
ligand
 OpenBabel11021811513D
libRbt.so/2013.1/901 2013/11/27
 10 11  0  0  0  0  0  0  0  0999 V2000
  -29.3693   17.3590  -17.6355 N   0  0  0  0  0  0  0  0  0  0  0  0
  -30.2225   18.3725  -17.8288 C   0  0  0  0  0  0  0  0  0  0  0  0
  -31.0392   18.9577  -16.9544 N   0  0  0  0  0  0  0  0  0  0  0  0
  -30.9260   18.3912  -15.7430 C   0  0  0  0  0  0  0  0  0  0  0  0
  -30.0970   17.3441  -15.3912 C   0  0  0  0  0  0  0  0  0  0  0  0
  -29.2784   16.8108  -16.4067 C   0  0  0  0  0  0  0  0  0  0  0  0
  -28.4273   15.7978  -16.2106 N   0  0  0  0  0  0  0  0  0  0  0  0
  -30.2489   17.0254  -14.0523 N   0  0  0  0  0  0  0  0  0  0  0  0
  -31.1560   17.8744  -13.6286 C   0  0  0  0  0  0  0  0  0  0  0  0
  -31.6087   18.7276  -14.5960 N   0  0  0  0  0  0  0  0  0  0  0  0
  1  2  2  0  0  0  0
  1  6  1  0  0  0  0
  2  3  1  0  0  0  0
  3  4  2  0  0  0  0
  4  5  1  0  0  0  0
  4 10  1  0  0  0  0
  5  6  2  0  0  0  0
  5  8  1  0  0  0  0
  6  7  1  0  0  0  0
  8  9  1  0  0  0  0
  9 10  2  0  0  0  0
M  END
>  <CHROM.1>
-30.22977576,17.65895080,-15.84818345,0.71356291,0.80457700,-1.22119886

>  <Name>
ligand

>  <RI>
0

>  <Rbt.Current_Directory>
/home/itssahil/PROJECTS/Mol_Feturizer/New_Systems/rnas/4TZY

>  <Rbt.Executable>
rbdock ($Id: //depot/dev/client3/rdock/2013.1/src/exe/rbdock.cxx#4 $)

>  <Rbt.Library>
libRbt.so (2013.1, Build901 2013/11/27)

>  <Rbt.Parameter_File>
/export/apps/rDock/src/rDock_2013.1_src/data/scripts/dock_solv.prm

>  <Rbt.Receptor>
prm/pocket_docking_5.prm

>  <SCORE>
-13.7772

>  <SCORE.INTER>
-13.7772

>  <SCORE.INTER.CONST>
1

>  <SCORE.INTER.POLAR>
0

>  <SCORE.INTER.ROT>
0

>  <SCORE.INTER.SOLV>
7.5942

>  <SCORE.INTER.VDW>
-15.3162

>  <SCORE.INTER.norm>
-1.37772

>  <SCORE.INTRA>
0

>  <SCORE.INTRA.DIHEDRAL>
0

>  <SCORE.INTRA.DIHEDRAL.0>
0

>  <SCORE.INTRA.POLAR>
0

>  <SCORE.INTRA.POLAR.0>
0

>  <SCORE.INTRA.REPUL>
0

>  <SCORE.INTRA.REPUL.0>
0

>  <SCORE.INTRA.SOLV>
0

>  <SCORE.INTRA.SOLV.lig_0>
-23.8941

>  <SCORE.INTRA.VDW>
0

>  <SCORE.INTRA.VDW.0>
0

>  <SCORE.INTRA.norm>
0

>  <SCORE.RESTR>
0

>  <SCORE.RESTR.CAVITY>
0

>  <SCORE.RESTR.norm>
0

>  <SCORE.SYSTEM>
0

>  <SCORE.SYSTEM.CONST>
0

>  <SCORE.SYSTEM.DIHEDRAL>
0

>  <SCORE.SYSTEM.SOLV>
0

>  <SCORE.SYSTEM.norm>
0

>  <SCORE.heavy>
10

>  <SCORE.norm>
-1.37772

>  <RMSD>
2.860

$$$$
ligand
 OpenBabel11021811513D
libRbt.so/2013.1/901 2013/11/27
 10 11  0  0  0  0  0  0  0  0999 V2000
  -29.3050   17.3674  -17.6166 N   0  0  0  0  0  0  0  0  0  0  0  0
  -30.1716   18.3663  -17.8257 C   0  0  0  0  0  0  0  0  0  0  0  0
  -31.0082   18.9430  -16.9646 N   0  0  0  0  0  0  0  0  0  0  0  0
  -30.9013   18.3845  -15.7489 C   0  0  0  0  0  0  0  0  0  0  0  0
  -30.0603   17.3523  -15.3814 C   0  0  0  0  0  0  0  0  0  0  0  0
  -29.2209   16.8269  -16.3839 C   0  0  0  0  0  0  0  0  0  0  0  0
  -28.3565   15.8285  -16.1719 N   0  0  0  0  0  0  0  0  0  0  0  0
  -30.2238   17.0381  -14.0428 N   0  0  0  0  0  0  0  0  0  0  0  0
  -31.1494   17.8748  -13.6348 C   0  0  0  0  0  0  0  0  0  0  0  0
  -31.6034   18.7159  -14.6122 N   0  0  0  0  0  0  0  0  0  0  0  0
  1  2  2  0  0  0  0
  1  6  1  0  0  0  0
  2  3  1  0  0  0  0
  3  4  2  0  0  0  0
  4  5  1  0  0  0  0
  4 10  1  0  0  0  0
  5  6  2  0  0  0  0
  5  8  1  0  0  0  0
  6  7  1  0  0  0  0
  8  9  1  0  0  0  0
  9 10  2  0  0  0  0
M  END
>  <CHROM.1>
-30.19231931,17.66277899,-15.84162028,0.70462958,0.78553002,-1.21997329

>  <Name>
ligand

>  <RI>
0

>  <Rbt.Current_Directory>
/home/itssahil/PROJECTS/Mol_Feturizer/New_Systems/rnas/4TZY

>  <Rbt.Executable>
rbdock ($Id: //depot/dev/client3/rdock/2013.1/src/exe/rbdock.cxx#4 $)

>  <Rbt.Library>
libRbt.so (2013.1, Build901 2013/11/27)

>  <Rbt.Parameter_File>
/export/apps/rDock/src/rDock_2013.1_src/data/scripts/dock_solv.prm

>  <Rbt.Receptor>
prm/pocket_docking_7.prm

>  <SCORE>
-13.7659

>  <SCORE.INTER>
-13.7659

>  <SCORE.INTER.CONST>
1

>  <SCORE.INTER.POLAR>
0

>  <SCORE.INTER.ROT>
0

>  <SCORE.INTER.SOLV>
7.33297

>  <SCORE.INTER.VDW>
-15.2216

>  <SCORE.INTER.norm>
-1.37659

>  <SCORE.INTRA>
0

>  <SCORE.INTRA.DIHEDRAL>
0

>  <SCORE.INTRA.DIHEDRAL.0>
0

>  <SCORE.INTRA.POLAR>
0

>  <SCORE.INTRA.POLAR.0>
0

>  <SCORE.INTRA.REPUL>
0

>  <SCORE.INTRA.REPUL.0>
0

>  <SCORE.INTRA.SOLV>
0

>  <SCORE.INTRA.SOLV.lig_0>
-23.8941

>  <SCORE.INTRA.VDW>
0

>  <SCORE.INTRA.VDW.0>
0

>  <SCORE.INTRA.norm>
0

>  <SCORE.RESTR>
0

>  <SCORE.RESTR.CAVITY>
0

>  <SCORE.RESTR.norm>
0

>  <SCORE.SYSTEM>
0

>  <SCORE.SYSTEM.CONST>
0

>  <SCORE.SYSTEM.DIHEDRAL>
0

>  <SCORE.SYSTEM.SOLV>
0

>  <SCORE.SYSTEM.norm>
0

>  <SCORE.heavy>
10

>  <SCORE.norm>
-1.37659

>  <RMSD>
2.860

$$$$
ligand
 OpenBabel11021811513D
libRbt.so/2013.1/901 2013/11/27
 10 11  0  0  0  0  0  0  0  0999 V2000
  -29.3245   17.3743  -17.6132 N   0  0  0  0  0  0  0  0  0  0  0  0
  -30.2010   18.3642  -17.8236 C   0  0  0  0  0  0  0  0  0  0  0  0
  -31.0416   18.9353  -16.9627 N   0  0  0  0  0  0  0  0  0  0  0  0
  -30.9272   18.3814  -15.7456 C   0  0  0  0  0  0  0  0  0  0  0  0
  -30.0757   17.3584  -15.3766 C   0  0  0  0  0  0  0  0  0  0  0  0
  -29.2330   16.8382  -16.3791 C   0  0  0  0  0  0  0  0  0  0  0  0
  -28.3586   15.8488  -16.1657 N   0  0  0  0  0  0  0  0  0  0  0  0
  -30.2338   17.0465  -14.0369 N   0  0  0  0  0  0  0  0  0  0  0  0
  -31.1667   17.8754  -13.6296 C   0  0  0  0  0  0  0  0  0  0  0  0
  -31.6305   18.7093  -14.6086 N   0  0  0  0  0  0  0  0  0  0  0  0
  1  2  2  0  0  0  0
  1  6  1  0  0  0  0
  2  3  1  0  0  0  0
  3  4  2  0  0  0  0
  4  5  1  0  0  0  0
  4 10  1  0  0  0  0
  5  6  2  0  0  0  0
  5  8  1  0  0  0  0
  6  7  1  0  0  0  0
  8  9  1  0  0  0  0
  9 10  2  0  0  0  0
M  END
>  <CHROM.1>
-30.21146561,17.66624802,-15.83748014,0.71155554,0.77705651,-1.22773240

>  <Name>
ligand

>  <RI>
0

>  <Rbt.Current_Directory>
/home/itssahil/PROJECTS/Mol_Feturizer/New_Systems/rnas/4TZY

>  <Rbt.Executable>
rbdock ($Id: //depot/dev/client3/rdock/2013.1/src/exe/rbdock.cxx#4 $)

>  <Rbt.Library>
libRbt.so (2013.1, Build901 2013/11/27)

>  <Rbt.Parameter_File>
/export/apps/rDock/src/rDock_2013.1_src/data/scripts/dock_solv.prm

>  <Rbt.Receptor>
prm/blind_docking_80.prm

>  <SCORE>
-13.7942

>  <SCORE.INTER>
-13.7942

>  <SCORE.INTER.CONST>
1

>  <SCORE.INTER.POLAR>
0

>  <SCORE.INTER.ROT>
0

>  <SCORE.INTER.SOLV>
7.28583

>  <SCORE.INTER.VDW>
-15.2247

>  <SCORE.INTER.norm>
-1.37942

>  <SCORE.INTRA>
0

>  <SCORE.INTRA.DIHEDRAL>
0

>  <SCORE.INTRA.DIHEDRAL.0>
0

>  <SCORE.INTRA.POLAR>
0

>  <SCORE.INTRA.POLAR.0>
0

>  <SCORE.INTRA.REPUL>
0

>  <SCORE.INTRA.REPUL.0>
0

>  <SCORE.INTRA.SOLV>
0

>  <SCORE.INTRA.SOLV.lig_0>
-23.8941

>  <SCORE.INTRA.VDW>
0

>  <SCORE.INTRA.VDW.0>
0

>  <SCORE.INTRA.norm>
0

>  <SCORE.RESTR>
0

>  <SCORE.RESTR.CAVITY>
0

>  <SCORE.RESTR.norm>
0

>  <SCORE.SYSTEM>
0

>  <SCORE.SYSTEM.CONST>
0

>  <SCORE.SYSTEM.DIHEDRAL>
0

>  <SCORE.SYSTEM.SOLV>
0

>  <SCORE.SYSTEM.norm>
0

>  <SCORE.heavy>
10

>  <SCORE.norm>
-1.37942

>  <RMSD>
2.861

$$$$
ligand
 OpenBabel11021811513D
libRbt.so/2013.1/901 2013/11/27
 10 11  0  0  0  0  0  0  0  0999 V2000
  -29.3577   17.3768  -17.6170 N   0  0  0  0  0  0  0  0  0  0  0  0
  -30.2230   18.3784  -17.8181 C   0  0  0  0  0  0  0  0  0  0  0  0
  -31.0590   18.9492  -16.9524 N   0  0  0  0  0  0  0  0  0  0  0  0
  -30.9528   18.3806  -15.7412 C   0  0  0  0  0  0  0  0  0  0  0  0
  -30.1132   17.3445  -15.3820 C   0  0  0  0  0  0  0  0  0  0  0  0
  -29.2743   16.8262  -16.3887 C   0  0  0  0  0  0  0  0  0  0  0  0
  -28.4112   15.8250  -16.1847 N   0  0  0  0  0  0  0  0  0  0  0  0
  -30.2772   17.0197  -14.0461 N   0  0  0  0  0  0  0  0  0  0  0  0
  -31.2018   17.8541  -13.6314 C   0  0  0  0  0  0  0  0  0  0  0  0
  -31.6546   18.7037  -14.6019 N   0  0  0  0  0  0  0  0  0  0  0  0
  1  2  2  0  0  0  0
  1  6  1  0  0  0  0
  2  3  1  0  0  0  0
  3  4  2  0  0  0  0
  4  5  1  0  0  0  0
  4 10  1  0  0  0  0
  5  6  2  0  0  0  0
  5  8  1  0  0  0  0
  6  7  1  0  0  0  0
  8  9  1  0  0  0  0
  9 10  2  0  0  0  0
M  END
>  <CHROM.1>
-30.24476360,17.65884394,-15.83973093,0.70392391,0.78666270,-1.21137572

>  <Name>
ligand

>  <RI>
0

>  <Rbt.Current_Directory>
/home/itssahil/PROJECTS/Mol_Feturizer/New_Systems/rnas/4TZY

>  <Rbt.Executable>
rbdock ($Id: //depot/dev/client3/rdock/2013.1/src/exe/rbdock.cxx#4 $)

>  <Rbt.Library>
libRbt.so (2013.1, Build901 2013/11/27)

>  <Rbt.Parameter_File>
/export/apps/rDock/src/rDock_2013.1_src/data/scripts/dock_solv.prm

>  <Rbt.Receptor>
prm/pocket_docking_5.prm

>  <SCORE>
-13.7382

>  <SCORE.INTER>
-13.7382

>  <SCORE.INTER.CONST>
1

>  <SCORE.INTER.POLAR>
0

>  <SCORE.INTER.ROT>
0

>  <SCORE.INTER.SOLV>
7.45698

>  <SCORE.INTER.VDW>
-15.2445

>  <SCORE.INTER.norm>
-1.37382

>  <SCORE.INTRA>
0

>  <SCORE.INTRA.DIHEDRAL>
0

>  <SCORE.INTRA.DIHEDRAL.0>
0

>  <SCORE.INTRA.POLAR>
0

>  <SCORE.INTRA.POLAR.0>
0

>  <SCORE.INTRA.REPUL>
0

>  <SCORE.INTRA.REPUL.0>
0

>  <SCORE.INTRA.SOLV>
0

>  <SCORE.INTRA.SOLV.lig_0>
-23.8941

>  <SCORE.INTRA.VDW>
0

>  <SCORE.INTRA.VDW.0>
0

>  <SCORE.INTRA.norm>
0

>  <SCORE.RESTR>
0

>  <SCORE.RESTR.CAVITY>
0

>  <SCORE.RESTR.norm>
0

>  <SCORE.SYSTEM>
0

>  <SCORE.SYSTEM.CONST>
0

>  <SCORE.SYSTEM.DIHEDRAL>
0

>  <SCORE.SYSTEM.SOLV>
0

>  <SCORE.SYSTEM.norm>
0

>  <SCORE.heavy>
10

>  <SCORE.norm>
-1.37382

>  <RMSD>
2.861

$$$$
ligand
 OpenBabel11021811513D
libRbt.so/2013.1/901 2013/11/27
 10 11  0  0  0  0  0  0  0  0999 V2000
  -29.3107   17.3691  -17.6212 N   0  0  0  0  0  0  0  0  0  0  0  0
  -30.1654   18.3796  -17.8227 C   0  0  0  0  0  0  0  0  0  0  0  0
  -30.9892   18.9651  -16.9551 N   0  0  0  0  0  0  0  0  0  0  0  0
  -30.8823   18.4022  -15.7414 C   0  0  0  0  0  0  0  0  0  0  0  0
  -30.0526   17.3583  -15.3815 C   0  0  0  0  0  0  0  0  0  0  0  0
  -29.2262   16.8245  -16.3903 C   0  0  0  0  0  0  0  0  0  0  0  0
  -28.3736   15.8143  -16.1859 N   0  0  0  0  0  0  0  0  0  0  0  0
  -30.2122   17.0429  -14.0427 N   0  0  0  0  0  0  0  0  0  0  0  0
  -31.1243   17.8906  -13.6271 C   0  0  0  0  0  0  0  0  0  0  0  0
  -31.5732   18.7399  -14.5997 N   0  0  0  0  0  0  0  0  0  0  0  0
  1  2  2  0  0  0  0
  1  6  1  0  0  0  0
  2  3  1  0  0  0  0
  3  4  2  0  0  0  0
  4  5  1  0  0  0  0
  4 10  1  0  0  0  0
  5  6  2  0  0  0  0
  5  8  1  0  0  0  0
  6  7  1  0  0  0  0
  8  9  1  0  0  0  0
  9 10  2  0  0  0  0
M  END
>  <CHROM.1>
-30.18336507,17.67155887,-15.84015710,0.70631518,0.79982883,-1.21875078

>  <Name>
ligand

>  <RI>
0

>  <Rbt.Current_Directory>
/home/itssahil/PROJECTS/Mol_Feturizer/New_Systems/rnas/4TZY

>  <Rbt.Executable>
rbdock ($Id: //depot/dev/client3/rdock/2013.1/src/exe/rbdock.cxx#4 $)

>  <Rbt.Library>
libRbt.so (2013.1, Build901 2013/11/27)

>  <Rbt.Parameter_File>
/export/apps/rDock/src/rDock_2013.1_src/data/scripts/dock_solv.prm

>  <Rbt.Receptor>
prm/pocket_docking_7.prm

>  <SCORE>
-13.7327

>  <SCORE.INTER>
-13.7327

>  <SCORE.INTER.CONST>
1

>  <SCORE.INTER.POLAR>
0

>  <SCORE.INTER.ROT>
0

>  <SCORE.INTER.SOLV>
7.43391

>  <SCORE.INTER.VDW>
-15.2331

>  <SCORE.INTER.norm>
-1.37327

>  <SCORE.INTRA>
0

>  <SCORE.INTRA.DIHEDRAL>
0

>  <SCORE.INTRA.DIHEDRAL.0>
0

>  <SCORE.INTRA.POLAR>
0

>  <SCORE.INTRA.POLAR.0>
0

>  <SCORE.INTRA.REPUL>
0

>  <SCORE.INTRA.REPUL.0>
0

>  <SCORE.INTRA.SOLV>
0

>  <SCORE.INTRA.SOLV.lig_0>
-23.8941

>  <SCORE.INTRA.VDW>
0

>  <SCORE.INTRA.VDW.0>
0

>  <SCORE.INTRA.norm>
0

>  <SCORE.RESTR>
0

>  <SCORE.RESTR.CAVITY>
0

>  <SCORE.RESTR.norm>
0

>  <SCORE.SYSTEM>
0

>  <SCORE.SYSTEM.CONST>
0

>  <SCORE.SYSTEM.DIHEDRAL>
0

>  <SCORE.SYSTEM.SOLV>
0

>  <SCORE.SYSTEM.norm>
0

>  <SCORE.heavy>
10

>  <SCORE.norm>
-1.37327

>  <RMSD>
2.861

$$$$
ligand
 OpenBabel11021811513D
libRbt.so/2013.1/901 2013/11/27
 10 11  0  0  0  0  0  0  0  0999 V2000
  -29.3120   17.3790  -17.6055 N   0  0  0  0  0  0  0  0  0  0  0  0
  -30.1955   18.3621  -17.8183 C   0  0  0  0  0  0  0  0  0  0  0  0
  -31.0414   18.9281  -16.9592 N   0  0  0  0  0  0  0  0  0  0  0  0
  -30.9244   18.3766  -15.7412 C   0  0  0  0  0  0  0  0  0  0  0  0
  -30.0658   17.3605  -15.3698 C   0  0  0  0  0  0  0  0  0  0  0  0
  -29.2181   16.8452  -16.3705 C   0  0  0  0  0  0  0  0  0  0  0  0
  -28.3367   15.8625  -16.1548 N   0  0  0  0  0  0  0  0  0  0  0  0
  -30.2234   17.0492  -14.0298 N   0  0  0  0  0  0  0  0  0  0  0  0
  -31.1629   17.8717  -13.6248 C   0  0  0  0  0  0  0  0  0  0  0  0
  -31.6315   18.7009  -14.6055 N   0  0  0  0  0  0  0  0  0  0  0  0
  1  2  2  0  0  0  0
  1  6  1  0  0  0  0
  2  3  1  0  0  0  0
  3  4  2  0  0  0  0
  4  5  1  0  0  0  0
  4 10  1  0  0  0  0
  5  6  2  0  0  0  0
  5  8  1  0  0  0  0
  6  7  1  0  0  0  0
  8  9  1  0  0  0  0
  9 10  2  0  0  0  0
M  END
>  <CHROM.1>
-30.20333525,17.66669313,-15.83124977,0.71338022,0.76971220,-1.23032875

>  <Name>
ligand

>  <RI>
0

>  <Rbt.Current_Directory>
/home/itssahil/PROJECTS/Mol_Feturizer/New_Systems/rnas/4TZY

>  <Rbt.Executable>
rbdock ($Id: //depot/dev/client3/rdock/2013.1/src/exe/rbdock.cxx#4 $)

>  <Rbt.Library>
libRbt.so (2013.1, Build901 2013/11/27)

>  <Rbt.Parameter_File>
/export/apps/rDock/src/rDock_2013.1_src/data/scripts/dock_solv.prm

>  <Rbt.Receptor>
prm/blind_docking_60.prm

>  <SCORE>
-13.844

>  <SCORE.INTER>
-13.844

>  <SCORE.INTER.CONST>
1

>  <SCORE.INTER.POLAR>
0

>  <SCORE.INTER.ROT>
0

>  <SCORE.INTER.SOLV>
7.20836

>  <SCORE.INTER.VDW>
-15.2321

>  <SCORE.INTER.norm>
-1.3844

>  <SCORE.INTRA>
0

>  <SCORE.INTRA.DIHEDRAL>
0

>  <SCORE.INTRA.DIHEDRAL.0>
0

>  <SCORE.INTRA.POLAR>
0

>  <SCORE.INTRA.POLAR.0>
0

>  <SCORE.INTRA.REPUL>
0

>  <SCORE.INTRA.REPUL.0>
0

>  <SCORE.INTRA.SOLV>
0

>  <SCORE.INTRA.SOLV.lig_0>
-23.8941

>  <SCORE.INTRA.VDW>
0

>  <SCORE.INTRA.VDW.0>
0

>  <SCORE.INTRA.norm>
0

>  <SCORE.RESTR>
0

>  <SCORE.RESTR.CAVITY>
0

>  <SCORE.RESTR.norm>
0

>  <SCORE.SYSTEM>
0

>  <SCORE.SYSTEM.CONST>
0

>  <SCORE.SYSTEM.DIHEDRAL>
0

>  <SCORE.SYSTEM.SOLV>
0

>  <SCORE.SYSTEM.norm>
0

>  <SCORE.heavy>
10

>  <SCORE.norm>
-1.3844

>  <RMSD>
2.862

$$$$
ligand
 OpenBabel11021811513D
libRbt.so/2013.1/901 2013/11/27
 10 11  0  0  0  0  0  0  0  0999 V2000
  -29.3077   17.4206  -17.6158 N   0  0  0  0  0  0  0  0  0  0  0  0
  -30.2017   18.3951  -17.8248 C   0  0  0  0  0  0  0  0  0  0  0  0
  -31.0632   18.9391  -16.9670 N   0  0  0  0  0  0  0  0  0  0  0  0
  -30.9512   18.3733  -15.7551 C   0  0  0  0  0  0  0  0  0  0  0  0
  -30.0834   17.3634  -15.3883 C   0  0  0  0  0  0  0  0  0  0  0  0
  -29.2192   16.8720  -16.3870 C   0  0  0  0  0  0  0  0  0  0  0  0
  -28.3274   15.8979  -16.1751 N   0  0  0  0  0  0  0  0  0  0  0  0
  -30.2502   17.0327  -14.0541 N   0  0  0  0  0  0  0  0  0  0  0  0
  -31.2041   17.8378  -13.6480 C   0  0  0  0  0  0  0  0  0  0  0  0
  -31.6737   18.6736  -14.6225 N   0  0  0  0  0  0  0  0  0  0  0  0
  1  2  2  0  0  0  0
  1  6  1  0  0  0  0
  2  3  1  0  0  0  0
  3  4  2  0  0  0  0
  4  5  1  0  0  0  0
  4 10  1  0  0  0  0
  5  6  2  0  0  0  0
  5  8  1  0  0  0  0
  6  7  1  0  0  0  0
  8  9  1  0  0  0  0
  9 10  2  0  0  0  0
M  END
>  <CHROM.1>
-30.22021132,17.67381346,-15.84706707,0.70645554,0.75426629,-1.21257467

>  <Name>
ligand

>  <RI>
0

>  <Rbt.Current_Directory>
/home/itssahil/PROJECTS/Mol_Feturizer/New_Systems/rnas/4TZY

>  <Rbt.Executable>
rbdock ($Id: //depot/dev/client3/rdock/2013.1/src/exe/rbdock.cxx#4 $)

>  <Rbt.Library>
libRbt.so (2013.1, Build901 2013/11/27)

>  <Rbt.Parameter_File>
/export/apps/rDock/src/rDock_2013.1_src/data/scripts/dock_solv.prm

>  <Rbt.Receptor>
prm/blind_docking_60.prm

>  <SCORE>
-13.7472

>  <SCORE.INTER>
-13.7472

>  <SCORE.INTER.CONST>
1

>  <SCORE.INTER.POLAR>
0

>  <SCORE.INTER.ROT>
0

>  <SCORE.INTER.SOLV>
7.20826

>  <SCORE.INTER.VDW>
-15.1676

>  <SCORE.INTER.norm>
-1.37472

>  <SCORE.INTRA>
0

>  <SCORE.INTRA.DIHEDRAL>
0

>  <SCORE.INTRA.DIHEDRAL.0>
0

>  <SCORE.INTRA.POLAR>
0

>  <SCORE.INTRA.POLAR.0>
0

>  <SCORE.INTRA.REPUL>
0

>  <SCORE.INTRA.REPUL.0>
0

>  <SCORE.INTRA.SOLV>
0

>  <SCORE.INTRA.SOLV.lig_0>
-23.8941

>  <SCORE.INTRA.VDW>
0

>  <SCORE.INTRA.VDW.0>
0

>  <SCORE.INTRA.norm>
0

>  <SCORE.RESTR>
0

>  <SCORE.RESTR.CAVITY>
0

>  <SCORE.RESTR.norm>
0

>  <SCORE.SYSTEM>
0

>  <SCORE.SYSTEM.CONST>
0

>  <SCORE.SYSTEM.DIHEDRAL>
0

>  <SCORE.SYSTEM.SOLV>
0

>  <SCORE.SYSTEM.norm>
0

>  <SCORE.heavy>
10

>  <SCORE.norm>
-1.37472

>  <RMSD>
2.862

$$$$
ligand
 OpenBabel11021811513D
libRbt.so/2013.1/901 2013/11/27
 10 11  0  0  0  0  0  0  0  0999 V2000
  -29.3107   17.3797  -17.6037 N   0  0  0  0  0  0  0  0  0  0  0  0
  -30.1953   18.3618  -17.8171 C   0  0  0  0  0  0  0  0  0  0  0  0
  -31.0417   18.9275  -16.9583 N   0  0  0  0  0  0  0  0  0  0  0  0
  -30.9241   18.3768  -15.7400 C   0  0  0  0  0  0  0  0  0  0  0  0
  -30.0645   17.3617  -15.3681 C   0  0  0  0  0  0  0  0  0  0  0  0
  -29.2163   16.8467  -16.3686 C   0  0  0  0  0  0  0  0  0  0  0  0
  -28.3339   15.8650  -16.1523 N   0  0  0  0  0  0  0  0  0  0  0  0
  -30.2218   17.0509  -14.0279 N   0  0  0  0  0  0  0  0  0  0  0  0
  -31.1621   17.8727  -13.6234 C   0  0  0  0  0  0  0  0  0  0  0  0
  -31.6316   18.7009  -14.6045 N   0  0  0  0  0  0  0  0  0  0  0  0
  1  2  2  0  0  0  0
  1  6  1  0  0  0  0
  2  3  1  0  0  0  0
  3  4  2  0  0  0  0
  4  5  1  0  0  0  0
  4 10  1  0  0  0  0
  5  6  2  0  0  0  0
  5  8  1  0  0  0  0
  6  7  1  0  0  0  0
  8  9  1  0  0  0  0
  9 10  2  0  0  0  0
M  END
>  <CHROM.1>
-30.20234731,17.66749427,-15.82968846,0.71385332,0.76876859,-1.23118869

>  <Name>
ligand

>  <RI>
0

>  <Rbt.Current_Directory>
/home/itssahil/PROJECTS/Mol_Feturizer/New_Systems/rnas/4TZY

>  <Rbt.Executable>
rbdock ($Id: //depot/dev/client3/rdock/2013.1/src/exe/rbdock.cxx#4 $)

>  <Rbt.Library>
libRbt.so (2013.1, Build901 2013/11/27)

>  <Rbt.Parameter_File>
/export/apps/rDock/src/rDock_2013.1_src/data/scripts/dock_solv.prm

>  <Rbt.Receptor>
prm/blind_docking_60.prm

>  <SCORE>
-13.8433

>  <SCORE.INTER>
-13.8433

>  <SCORE.INTER.CONST>
1

>  <SCORE.INTER.POLAR>
0

>  <SCORE.INTER.ROT>
0

>  <SCORE.INTER.SOLV>
7.19538

>  <SCORE.INTER.VDW>
-15.2273

>  <SCORE.INTER.norm>
-1.38433

>  <SCORE.INTRA>
0

>  <SCORE.INTRA.DIHEDRAL>
0

>  <SCORE.INTRA.DIHEDRAL.0>
0

>  <SCORE.INTRA.POLAR>
0

>  <SCORE.INTRA.POLAR.0>
0

>  <SCORE.INTRA.REPUL>
0

>  <SCORE.INTRA.REPUL.0>
0

>  <SCORE.INTRA.SOLV>
0

>  <SCORE.INTRA.SOLV.lig_0>
-23.8941

>  <SCORE.INTRA.VDW>
0

>  <SCORE.INTRA.VDW.0>
0

>  <SCORE.INTRA.norm>
0

>  <SCORE.RESTR>
0

>  <SCORE.RESTR.CAVITY>
0

>  <SCORE.RESTR.norm>
0

>  <SCORE.SYSTEM>
0

>  <SCORE.SYSTEM.CONST>
0

>  <SCORE.SYSTEM.DIHEDRAL>
0

>  <SCORE.SYSTEM.SOLV>
0

>  <SCORE.SYSTEM.norm>
0

>  <SCORE.heavy>
10

>  <SCORE.norm>
-1.38433

>  <RMSD>
2.862

$$$$
ligand
 OpenBabel11021811513D
libRbt.so/2013.1/901 2013/11/27
 10 11  0  0  0  0  0  0  0  0999 V2000
  -29.3154   17.3797  -17.6050 N   0  0  0  0  0  0  0  0  0  0  0  0
  -30.1996   18.3623  -17.8172 C   0  0  0  0  0  0  0  0  0  0  0  0
  -31.0450   18.9281  -16.9574 N   0  0  0  0  0  0  0  0  0  0  0  0
  -30.9267   18.3767  -15.7394 C   0  0  0  0  0  0  0  0  0  0  0  0
  -30.0674   17.3610  -15.3687 C   0  0  0  0  0  0  0  0  0  0  0  0
  -29.2202   16.8460  -16.3701 C   0  0  0  0  0  0  0  0  0  0  0  0
  -28.3382   15.8637  -16.1550 N   0  0  0  0  0  0  0  0  0  0  0  0
  -30.2236   17.0498  -14.0285 N   0  0  0  0  0  0  0  0  0  0  0  0
  -31.1631   17.8719  -13.6228 C   0  0  0  0  0  0  0  0  0  0  0  0
  -31.6330   18.7008  -14.6032 N   0  0  0  0  0  0  0  0  0  0  0  0
  1  2  2  0  0  0  0
  1  6  1  0  0  0  0
  2  3  1  0  0  0  0
  3  4  2  0  0  0  0
  4  5  1  0  0  0  0
  4 10  1  0  0  0  0
  5  6  2  0  0  0  0
  5  8  1  0  0  0  0
  6  7  1  0  0  0  0
  8  9  1  0  0  0  0
  9 10  2  0  0  0  0
M  END
>  <CHROM.1>
-30.20538298,17.66712914,-15.83003246,0.71472303,0.76955317,-1.23136470

>  <Name>
ligand

>  <RI>
0

>  <Rbt.Current_Directory>
/home/itssahil/PROJECTS/Mol_Feturizer/New_Systems/rnas/4TZY

>  <Rbt.Executable>
rbdock ($Id: //depot/dev/client3/rdock/2013.1/src/exe/rbdock.cxx#4 $)

>  <Rbt.Library>
libRbt.so (2013.1, Build901 2013/11/27)

>  <Rbt.Parameter_File>
/export/apps/rDock/src/rDock_2013.1_src/data/scripts/dock_solv.prm

>  <Rbt.Receptor>
prm/blind_docking_80.prm

>  <SCORE>
-13.8418

>  <SCORE.INTER>
-13.8418

>  <SCORE.INTER.CONST>
1

>  <SCORE.INTER.POLAR>
0

>  <SCORE.INTER.ROT>
0

>  <SCORE.INTER.SOLV>
7.20879

>  <SCORE.INTER.VDW>
-15.2308

>  <SCORE.INTER.norm>
-1.38418

>  <SCORE.INTRA>
0

>  <SCORE.INTRA.DIHEDRAL>
0

>  <SCORE.INTRA.DIHEDRAL.0>
0

>  <SCORE.INTRA.POLAR>
0

>  <SCORE.INTRA.POLAR.0>
0

>  <SCORE.INTRA.REPUL>
0

>  <SCORE.INTRA.REPUL.0>
0

>  <SCORE.INTRA.SOLV>
0

>  <SCORE.INTRA.SOLV.lig_0>
-23.8941

>  <SCORE.INTRA.VDW>
0

>  <SCORE.INTRA.VDW.0>
0

>  <SCORE.INTRA.norm>
0

>  <SCORE.RESTR>
0

>  <SCORE.RESTR.CAVITY>
0

>  <SCORE.RESTR.norm>
0

>  <SCORE.SYSTEM>
0

>  <SCORE.SYSTEM.CONST>
0

>  <SCORE.SYSTEM.DIHEDRAL>
0

>  <SCORE.SYSTEM.SOLV>
0

>  <SCORE.SYSTEM.norm>
0

>  <SCORE.heavy>
10

>  <SCORE.norm>
-1.38418

>  <RMSD>
2.862

$$$$
ligand
 OpenBabel11021811513D
libRbt.so/2013.1/901 2013/11/27
 10 11  0  0  0  0  0  0  0  0999 V2000
  -29.3101   17.4096  -17.6189 N   0  0  0  0  0  0  0  0  0  0  0  0
  -30.2044   18.3838  -17.8276 C   0  0  0  0  0  0  0  0  0  0  0  0
  -31.0610   18.9323  -16.9677 N   0  0  0  0  0  0  0  0  0  0  0  0
  -30.9431   18.3717  -15.7540 C   0  0  0  0  0  0  0  0  0  0  0  0
  -30.0742   17.3628  -15.3872 C   0  0  0  0  0  0  0  0  0  0  0  0
  -29.2156   16.8663  -16.3882 C   0  0  0  0  0  0  0  0  0  0  0  0
  -28.3235   15.8924  -16.1766 N   0  0  0  0  0  0  0  0  0  0  0  0
  -30.2343   17.0381  -14.0507 N   0  0  0  0  0  0  0  0  0  0  0  0
  -31.1855   17.8458  -13.6432 C   0  0  0  0  0  0  0  0  0  0  0  0
  -31.6594   18.6777  -14.6190 N   0  0  0  0  0  0  0  0  0  0  0  0
  1  2  2  0  0  0  0
  1  6  1  0  0  0  0
  2  3  1  0  0  0  0
  3  4  2  0  0  0  0
  4  5  1  0  0  0  0
  4 10  1  0  0  0  0
  5  6  2  0  0  0  0
  5  8  1  0  0  0  0
  6  7  1  0  0  0  0
  8  9  1  0  0  0  0
  9 10  2  0  0  0  0
M  END
>  <CHROM.1>
-30.21317048,17.67128027,-15.84662096,0.71279605,0.75681760,-1.22133162

>  <Name>
ligand

>  <RI>
0

>  <Rbt.Current_Directory>
/home/itssahil/PROJECTS/Mol_Feturizer/New_Systems/rnas/4TZY

>  <Rbt.Executable>
rbdock ($Id: //depot/dev/client3/rdock/2013.1/src/exe/rbdock.cxx#4 $)

>  <Rbt.Library>
libRbt.so (2013.1, Build901 2013/11/27)

>  <Rbt.Parameter_File>
/export/apps/rDock/src/rDock_2013.1_src/data/scripts/dock_solv.prm

>  <Rbt.Receptor>
prm/blind_docking_80.prm

>  <SCORE>
-13.7533

>  <SCORE.INTER>
-13.7533

>  <SCORE.INTER.CONST>
1

>  <SCORE.INTER.POLAR>
0

>  <SCORE.INTER.ROT>
0

>  <SCORE.INTER.SOLV>
7.21233

>  <SCORE.INTER.VDW>
-15.173

>  <SCORE.INTER.norm>
-1.37533

>  <SCORE.INTRA>
0

>  <SCORE.INTRA.DIHEDRAL>
0

>  <SCORE.INTRA.DIHEDRAL.0>
0

>  <SCORE.INTRA.POLAR>
0

>  <SCORE.INTRA.POLAR.0>
0

>  <SCORE.INTRA.REPUL>
0

>  <SCORE.INTRA.REPUL.0>
0

>  <SCORE.INTRA.SOLV>
0

>  <SCORE.INTRA.SOLV.lig_0>
-23.8941

>  <SCORE.INTRA.VDW>
0

>  <SCORE.INTRA.VDW.0>
0

>  <SCORE.INTRA.norm>
0

>  <SCORE.RESTR>
0

>  <SCORE.RESTR.CAVITY>
0

>  <SCORE.RESTR.norm>
0

>  <SCORE.SYSTEM>
0

>  <SCORE.SYSTEM.CONST>
0

>  <SCORE.SYSTEM.DIHEDRAL>
0

>  <SCORE.SYSTEM.SOLV>
0

>  <SCORE.SYSTEM.norm>
0

>  <SCORE.heavy>
10

>  <SCORE.norm>
-1.37533

>  <RMSD>
2.862

$$$$
ligand
 OpenBabel11021811513D
libRbt.so/2013.1/901 2013/11/27
 10 11  0  0  0  0  0  0  0  0999 V2000
  -29.3338   17.3776  -17.6108 N   0  0  0  0  0  0  0  0  0  0  0  0
  -30.2146   18.3640  -17.8197 C   0  0  0  0  0  0  0  0  0  0  0  0
  -31.0558   18.9319  -16.9572 N   0  0  0  0  0  0  0  0  0  0  0  0
  -30.9369   18.3784  -15.7403 C   0  0  0  0  0  0  0  0  0  0  0  0
  -30.0807   17.3588  -15.3729 C   0  0  0  0  0  0  0  0  0  0  0  0
  -29.2379   16.8418  -16.3769 C   0  0  0  0  0  0  0  0  0  0  0  0
  -28.3592   15.8558  -16.1652 N   0  0  0  0  0  0  0  0  0  0  0  0
  -30.2351   17.0463  -14.0328 N   0  0  0  0  0  0  0  0  0  0  0  0
  -31.1704   17.8716  -13.6238 C   0  0  0  0  0  0  0  0  0  0  0  0
  -31.6393   18.7036  -14.6020 N   0  0  0  0  0  0  0  0  0  0  0  0
  1  2  2  0  0  0  0
  1  6  1  0  0  0  0
  2  3  1  0  0  0  0
  3  4  2  0  0  0  0
  4  5  1  0  0  0  0
  4 10  1  0  0  0  0
  5  6  2  0  0  0  0
  5  8  1  0  0  0  0
  6  7  1  0  0  0  0
  8  9  1  0  0  0  0
  9 10  2  0  0  0  0
M  END
>  <CHROM.1>
-30.21855541,17.66607510,-15.83348798,0.71589683,0.77401342,-1.23080749

>  <Name>
ligand

>  <RI>
0

>  <Rbt.Current_Directory>
/home/itssahil/PROJECTS/Mol_Feturizer/New_Systems/rnas/4TZY

>  <Rbt.Executable>
rbdock ($Id: //depot/dev/client3/rdock/2013.1/src/exe/rbdock.cxx#4 $)

>  <Rbt.Library>
libRbt.so (2013.1, Build901 2013/11/27)

>  <Rbt.Parameter_File>
/export/apps/rDock/src/rDock_2013.1_src/data/scripts/dock_solv.prm

>  <Rbt.Receptor>
prm/blind_docking_80.prm

>  <SCORE>
-13.7905

>  <SCORE.INTER>
-13.7905

>  <SCORE.INTER.CONST>
1

>  <SCORE.INTER.POLAR>
0

>  <SCORE.INTER.ROT>
0

>  <SCORE.INTER.SOLV>
7.27226

>  <SCORE.INTER.VDW>
-15.2178

>  <SCORE.INTER.norm>
-1.37905

>  <SCORE.INTRA>
0

>  <SCORE.INTRA.DIHEDRAL>
0

>  <SCORE.INTRA.DIHEDRAL.0>
0

>  <SCORE.INTRA.POLAR>
0

>  <SCORE.INTRA.POLAR.0>
0

>  <SCORE.INTRA.REPUL>
0

>  <SCORE.INTRA.REPUL.0>
0

>  <SCORE.INTRA.SOLV>
0

>  <SCORE.INTRA.SOLV.lig_0>
-23.8941

>  <SCORE.INTRA.VDW>
0

>  <SCORE.INTRA.VDW.0>
0

>  <SCORE.INTRA.norm>
0

>  <SCORE.RESTR>
0

>  <SCORE.RESTR.CAVITY>
0

>  <SCORE.RESTR.norm>
0

>  <SCORE.SYSTEM>
0

>  <SCORE.SYSTEM.CONST>
0

>  <SCORE.SYSTEM.DIHEDRAL>
0

>  <SCORE.SYSTEM.SOLV>
0

>  <SCORE.SYSTEM.norm>
0

>  <SCORE.heavy>
10

>  <SCORE.norm>
-1.37905

>  <RMSD>
2.862

$$$$
ligand
 OpenBabel11021811513D
libRbt.so/2013.1/901 2013/11/27
 10 11  0  0  0  0  0  0  0  0999 V2000
  -29.3271   17.3685  -17.5985 N   0  0  0  0  0  0  0  0  0  0  0  0
  -30.1896   18.3717  -17.8038 C   0  0  0  0  0  0  0  0  0  0  0  0
  -31.0245   18.9478  -16.9407 N   0  0  0  0  0  0  0  0  0  0  0  0
  -30.9208   18.3833  -15.7275 C   0  0  0  0  0  0  0  0  0  0  0  0
  -30.0842   17.3462  -15.3640 C   0  0  0  0  0  0  0  0  0  0  0  0
  -29.2461   16.8220  -16.3683 C   0  0  0  0  0  0  0  0  0  0  0  0
  -28.3858   15.8192  -16.1602 N   0  0  0  0  0  0  0  0  0  0  0  0
  -30.2500   17.0265  -14.0271 N   0  0  0  0  0  0  0  0  0  0  0  0
  -31.1726   17.8649  -13.6159 C   0  0  0  0  0  0  0  0  0  0  0  0
  -31.6225   18.7123  -14.5898 N   0  0  0  0  0  0  0  0  0  0  0  0
  1  2  2  0  0  0  0
  1  6  1  0  0  0  0
  2  3  1  0  0  0  0
  3  4  2  0  0  0  0
  4  5  1  0  0  0  0
  4 10  1  0  0  0  0
  5  6  2  0  0  0  0
  5  8  1  0  0  0  0
  6  7  1  0  0  0  0
  8  9  1  0  0  0  0
  9 10  2  0  0  0  0
M  END
>  <CHROM.1>
-30.21462845,17.65921296,-15.82293092,0.70163073,0.78897117,-1.21327689

>  <Name>
ligand

>  <RI>
0

>  <Rbt.Current_Directory>
/home/itssahil/PROJECTS/Mol_Feturizer/New_Systems/rnas/4TZY

>  <Rbt.Executable>
rbdock ($Id: //depot/dev/client3/rdock/2013.1/src/exe/rbdock.cxx#4 $)

>  <Rbt.Library>
libRbt.so (2013.1, Build901 2013/11/27)

>  <Rbt.Parameter_File>
/export/apps/rDock/src/rDock_2013.1_src/data/scripts/dock_solv.prm

>  <Rbt.Receptor>
prm/pocket_docking_4.prm

>  <SCORE>
-13.7528

>  <SCORE.INTER>
-13.7528

>  <SCORE.INTER.CONST>
1

>  <SCORE.INTER.POLAR>
0

>  <SCORE.INTER.ROT>
0

>  <SCORE.INTER.SOLV>
7.37799

>  <SCORE.INTER.VDW>
-15.2278

>  <SCORE.INTER.norm>
-1.37528

>  <SCORE.INTRA>
0

>  <SCORE.INTRA.DIHEDRAL>
0

>  <SCORE.INTRA.DIHEDRAL.0>
0

>  <SCORE.INTRA.POLAR>
0

>  <SCORE.INTRA.POLAR.0>
0

>  <SCORE.INTRA.REPUL>
0

>  <SCORE.INTRA.REPUL.0>
0

>  <SCORE.INTRA.SOLV>
0

>  <SCORE.INTRA.SOLV.lig_0>
-23.8941

>  <SCORE.INTRA.VDW>
0

>  <SCORE.INTRA.VDW.0>
0

>  <SCORE.INTRA.norm>
0

>  <SCORE.RESTR>
0

>  <SCORE.RESTR.CAVITY>
0

>  <SCORE.RESTR.norm>
0

>  <SCORE.SYSTEM>
0

>  <SCORE.SYSTEM.CONST>
0

>  <SCORE.SYSTEM.DIHEDRAL>
0

>  <SCORE.SYSTEM.SOLV>
0

>  <SCORE.SYSTEM.norm>
0

>  <SCORE.heavy>
10

>  <SCORE.norm>
-1.37528

>  <RMSD>
2.862

$$$$
ligand
 OpenBabel11021811513D
libRbt.so/2013.1/901 2013/11/27
 10 11  0  0  0  0  0  0  0  0999 V2000
  -29.3249   17.3955  -17.6263 N   0  0  0  0  0  0  0  0  0  0  0  0
  -30.2193   18.3693  -17.8362 C   0  0  0  0  0  0  0  0  0  0  0  0
  -31.0648   18.9299  -16.9732 N   0  0  0  0  0  0  0  0  0  0  0  0
  -30.9342   18.3835  -15.7543 C   0  0  0  0  0  0  0  0  0  0  0  0
  -30.0633   17.3770  -15.3855 C   0  0  0  0  0  0  0  0  0  0  0  0
  -29.2174   16.8667  -16.3903 C   0  0  0  0  0  0  0  0  0  0  0  0
  -28.3251   15.8932  -16.1775 N   0  0  0  0  0  0  0  0  0  0  0  0
  -30.2087   17.0685  -14.0435 N   0  0  0  0  0  0  0  0  0  0  0  0
  -31.1534   17.8832  -13.6348 C   0  0  0  0  0  0  0  0  0  0  0  0
  -31.6367   18.7046  -14.6149 N   0  0  0  0  0  0  0  0  0  0  0  0
  1  2  2  0  0  0  0
  1  6  1  0  0  0  0
  2  3  1  0  0  0  0
  3  4  2  0  0  0  0
  4  5  1  0  0  0  0
  4 10  1  0  0  0  0
  5  6  2  0  0  0  0
  5  8  1  0  0  0  0
  6  7  1  0  0  0  0
  8  9  1  0  0  0  0
  9 10  2  0  0  0  0
M  END
>  <CHROM.1>
-30.20689207,17.68034098,-15.84697051,0.72670141,0.76276810,-1.24279039

>  <Name>
ligand

>  <RI>
0

>  <Rbt.Current_Directory>
/home/itssahil/PROJECTS/Mol_Feturizer/New_Systems/rnas/4TZY

>  <Rbt.Executable>
rbdock ($Id: //depot/dev/client3/rdock/2013.1/src/exe/rbdock.cxx#4 $)

>  <Rbt.Library>
libRbt.so (2013.1, Build901 2013/11/27)

>  <Rbt.Parameter_File>
/export/apps/rDock/src/rDock_2013.1_src/data/scripts/dock_solv.prm

>  <Rbt.Receptor>
prm/pocket_docking_7.prm

>  <SCORE>
-13.8099

>  <SCORE.INTER>
-13.8099

>  <SCORE.INTER.CONST>
1

>  <SCORE.INTER.POLAR>
0

>  <SCORE.INTER.ROT>
0

>  <SCORE.INTER.SOLV>
7.22184

>  <SCORE.INTER.VDW>
-15.2139

>  <SCORE.INTER.norm>
-1.38099

>  <SCORE.INTRA>
0

>  <SCORE.INTRA.DIHEDRAL>
0

>  <SCORE.INTRA.DIHEDRAL.0>
0

>  <SCORE.INTRA.POLAR>
0

>  <SCORE.INTRA.POLAR.0>
0

>  <SCORE.INTRA.REPUL>
0

>  <SCORE.INTRA.REPUL.0>
0

>  <SCORE.INTRA.SOLV>
0

>  <SCORE.INTRA.SOLV.lig_0>
-23.8941

>  <SCORE.INTRA.VDW>
0

>  <SCORE.INTRA.VDW.0>
0

>  <SCORE.INTRA.norm>
0

>  <SCORE.RESTR>
0

>  <SCORE.RESTR.CAVITY>
0

>  <SCORE.RESTR.norm>
0

>  <SCORE.SYSTEM>
0

>  <SCORE.SYSTEM.CONST>
0

>  <SCORE.SYSTEM.DIHEDRAL>
0

>  <SCORE.SYSTEM.SOLV>
0

>  <SCORE.SYSTEM.norm>
0

>  <SCORE.heavy>
10

>  <SCORE.norm>
-1.38099

>  <RMSD>
2.862

$$$$
ligand
 OpenBabel11021811513D
libRbt.so/2013.1/901 2013/11/27
 10 11  0  0  0  0  0  0  0  0999 V2000
  -29.3165   17.3807  -17.6023 N   0  0  0  0  0  0  0  0  0  0  0  0
  -30.1987   18.3653  -17.8140 C   0  0  0  0  0  0  0  0  0  0  0  0
  -31.0440   18.9312  -16.9542 N   0  0  0  0  0  0  0  0  0  0  0  0
  -30.9282   18.3777  -15.7371 C   0  0  0  0  0  0  0  0  0  0  0  0
  -30.0711   17.3598  -15.3669 C   0  0  0  0  0  0  0  0  0  0  0  0
  -29.2237   16.8449  -16.3682 C   0  0  0  0  0  0  0  0  0  0  0  0
  -28.3436   15.8608  -16.1537 N   0  0  0  0  0  0  0  0  0  0  0  0
  -30.2294   17.0467  -14.0275 N   0  0  0  0  0  0  0  0  0  0  0  0
  -31.1680   17.8698  -13.6216 C   0  0  0  0  0  0  0  0  0  0  0  0
  -31.6352   18.7011  -14.6011 N   0  0  0  0  0  0  0  0  0  0  0  0
  1  2  2  0  0  0  0
  1  6  1  0  0  0  0
  2  3  1  0  0  0  0
  3  4  2  0  0  0  0
  4  5  1  0  0  0  0
  4 10  1  0  0  0  0
  5  6  2  0  0  0  0
  5  8  1  0  0  0  0
  6  7  1  0  0  0  0
  8  9  1  0  0  0  0
  9 10  2  0  0  0  0
M  END
>  <CHROM.1>
-30.20800246,17.66692551,-15.82795656,0.71235334,0.77083172,-1.22809829

>  <Name>
ligand

>  <RI>
0

>  <Rbt.Current_Directory>
/home/itssahil/PROJECTS/Mol_Feturizer/New_Systems/rnas/4TZY

>  <Rbt.Executable>
rbdock ($Id: //depot/dev/client3/rdock/2013.1/src/exe/rbdock.cxx#4 $)

>  <Rbt.Library>
libRbt.so (2013.1, Build901 2013/11/27)

>  <Rbt.Parameter_File>
/export/apps/rDock/src/rDock_2013.1_src/data/scripts/dock_solv.prm

>  <Rbt.Receptor>
prm/pocket_docking_7.prm

>  <SCORE>
-13.8343

>  <SCORE.INTER>
-13.8343

>  <SCORE.INTER.CONST>
1

>  <SCORE.INTER.POLAR>
0

>  <SCORE.INTER.ROT>
0

>  <SCORE.INTER.SOLV>
7.21956

>  <SCORE.INTER.VDW>
-15.2294

>  <SCORE.INTER.norm>
-1.38343

>  <SCORE.INTRA>
0

>  <SCORE.INTRA.DIHEDRAL>
0

>  <SCORE.INTRA.DIHEDRAL.0>
0

>  <SCORE.INTRA.POLAR>
0

>  <SCORE.INTRA.POLAR.0>
0

>  <SCORE.INTRA.REPUL>
0

>  <SCORE.INTRA.REPUL.0>
0

>  <SCORE.INTRA.SOLV>
0

>  <SCORE.INTRA.SOLV.lig_0>
-23.8941

>  <SCORE.INTRA.VDW>
0

>  <SCORE.INTRA.VDW.0>
0

>  <SCORE.INTRA.norm>
0

>  <SCORE.RESTR>
0

>  <SCORE.RESTR.CAVITY>
0

>  <SCORE.RESTR.norm>
0

>  <SCORE.SYSTEM>
0

>  <SCORE.SYSTEM.CONST>
0

>  <SCORE.SYSTEM.DIHEDRAL>
0

>  <SCORE.SYSTEM.SOLV>
0

>  <SCORE.SYSTEM.norm>
0

>  <SCORE.heavy>
10

>  <SCORE.norm>
-1.38343

>  <RMSD>
2.862

$$$$
ligand
 OpenBabel11021811513D
libRbt.so/2013.1/901 2013/11/27
 10 11  0  0  0  0  0  0  0  0999 V2000
  -29.3204   17.3746  -17.6116 N   0  0  0  0  0  0  0  0  0  0  0  0
  -30.1941   18.3677  -17.8181 C   0  0  0  0  0  0  0  0  0  0  0  0
  -31.0294   18.9414  -16.9536 N   0  0  0  0  0  0  0  0  0  0  0  0
  -30.9123   18.3863  -15.7373 C   0  0  0  0  0  0  0  0  0  0  0  0
  -30.0632   17.3600  -15.3722 C   0  0  0  0  0  0  0  0  0  0  0  0
  -29.2262   16.8373  -16.3782 C   0  0  0  0  0  0  0  0  0  0  0  0
  -28.3546   15.8446  -16.1688 N   0  0  0  0  0  0  0  0  0  0  0  0
  -30.2174   17.0478  -14.0320 N   0  0  0  0  0  0  0  0  0  0  0  0
  -31.1457   17.8798  -13.6207 C   0  0  0  0  0  0  0  0  0  0  0  0
  -31.6101   18.7160  -14.5975 N   0  0  0  0  0  0  0  0  0  0  0  0
  1  2  2  0  0  0  0
  1  6  1  0  0  0  0
  2  3  1  0  0  0  0
  3  4  2  0  0  0  0
  4  5  1  0  0  0  0
  4 10  1  0  0  0  0
  5  6  2  0  0  0  0
  5  8  1  0  0  0  0
  6  7  1  0  0  0  0
  8  9  1  0  0  0  0
  9 10  2  0  0  0  0
M  END
>  <CHROM.1>
-30.19961028,17.66860366,-15.83234150,0.71487776,0.78176865,-1.22945070

>  <Name>
ligand

>  <RI>
0

>  <Rbt.Current_Directory>
/home/itssahil/PROJECTS/Mol_Feturizer/New_Systems/rnas/4TZY

>  <Rbt.Executable>
rbdock ($Id: //depot/dev/client3/rdock/2013.1/src/exe/rbdock.cxx#4 $)

>  <Rbt.Library>
libRbt.so (2013.1, Build901 2013/11/27)

>  <Rbt.Parameter_File>
/export/apps/rDock/src/rDock_2013.1_src/data/scripts/dock_solv.prm

>  <Rbt.Receptor>
prm/pocket_docking_8.prm

>  <SCORE>
-13.7941

>  <SCORE.INTER>
-13.7941

>  <SCORE.INTER.CONST>
1

>  <SCORE.INTER.POLAR>
0

>  <SCORE.INTER.ROT>
0

>  <SCORE.INTER.SOLV>
7.29837

>  <SCORE.INTER.VDW>
-15.2289

>  <SCORE.INTER.norm>
-1.37941

>  <SCORE.INTRA>
0

>  <SCORE.INTRA.DIHEDRAL>
0

>  <SCORE.INTRA.DIHEDRAL.0>
0

>  <SCORE.INTRA.POLAR>
0

>  <SCORE.INTRA.POLAR.0>
0

>  <SCORE.INTRA.REPUL>
0

>  <SCORE.INTRA.REPUL.0>
0

>  <SCORE.INTRA.SOLV>
0

>  <SCORE.INTRA.SOLV.lig_0>
-23.8941

>  <SCORE.INTRA.VDW>
0

>  <SCORE.INTRA.VDW.0>
0

>  <SCORE.INTRA.norm>
0

>  <SCORE.RESTR>
0

>  <SCORE.RESTR.CAVITY>
0

>  <SCORE.RESTR.norm>
0

>  <SCORE.SYSTEM>
0

>  <SCORE.SYSTEM.CONST>
0

>  <SCORE.SYSTEM.DIHEDRAL>
0

>  <SCORE.SYSTEM.SOLV>
0

>  <SCORE.SYSTEM.norm>
0

>  <SCORE.heavy>
10

>  <SCORE.norm>
-1.37941

>  <RMSD>
2.862

$$$$
ligand
 OpenBabel11021811513D
libRbt.so/2013.1/901 2013/11/27
 10 11  0  0  0  0  0  0  0  0999 V2000
  -29.3145   17.3760  -17.6081 N   0  0  0  0  0  0  0  0  0  0  0  0
  -30.1947   18.3625  -17.8193 C   0  0  0  0  0  0  0  0  0  0  0  0
  -31.0369   18.9315  -16.9586 N   0  0  0  0  0  0  0  0  0  0  0  0
  -30.9200   18.3793  -15.7409 C   0  0  0  0  0  0  0  0  0  0  0  0
  -30.0647   17.3598  -15.3712 C   0  0  0  0  0  0  0  0  0  0  0  0
  -29.2206   16.8415  -16.3735 C   0  0  0  0  0  0  0  0  0  0  0  0
  -28.3426   15.8554  -16.1594 N   0  0  0  0  0  0  0  0  0  0  0  0
  -30.2211   17.0488  -14.0310 N   0  0  0  0  0  0  0  0  0  0  0  0
  -31.1568   17.8748  -13.6243 C   0  0  0  0  0  0  0  0  0  0  0  0
  -31.6240   18.7060  -14.6040 N   0  0  0  0  0  0  0  0  0  0  0  0
  1  2  2  0  0  0  0
  1  6  1  0  0  0  0
  2  3  1  0  0  0  0
  3  4  2  0  0  0  0
  4  5  1  0  0  0  0
  4 10  1  0  0  0  0
  5  6  2  0  0  0  0
  5  8  1  0  0  0  0
  6  7  1  0  0  0  0
  8  9  1  0  0  0  0
  9 10  2  0  0  0  0
M  END
>  <CHROM.1>
-30.20177972,17.66666026,-15.83234301,0.71382990,0.77385533,-1.23042333

>  <Name>
ligand

>  <RI>
0

>  <Rbt.Current_Directory>
/home/itssahil/PROJECTS/Mol_Feturizer/New_Systems/rnas/4TZY

>  <Rbt.Executable>
rbdock ($Id: //depot/dev/client3/rdock/2013.1/src/exe/rbdock.cxx#4 $)

>  <Rbt.Library>
libRbt.so (2013.1, Build901 2013/11/27)

>  <Rbt.Parameter_File>
/export/apps/rDock/src/rDock_2013.1_src/data/scripts/dock_solv.prm

>  <Rbt.Receptor>
prm/pocket_docking_8.prm

>  <SCORE>
-13.804

>  <SCORE.INTER>
-13.804

>  <SCORE.INTER.CONST>
1

>  <SCORE.INTER.POLAR>
0

>  <SCORE.INTER.ROT>
0

>  <SCORE.INTER.SOLV>
7.23961

>  <SCORE.INTER.VDW>
-15.2159

>  <SCORE.INTER.norm>
-1.3804

>  <SCORE.INTRA>
0

>  <SCORE.INTRA.DIHEDRAL>
0

>  <SCORE.INTRA.DIHEDRAL.0>
0

>  <SCORE.INTRA.POLAR>
0

>  <SCORE.INTRA.POLAR.0>
0

>  <SCORE.INTRA.REPUL>
0

>  <SCORE.INTRA.REPUL.0>
0

>  <SCORE.INTRA.SOLV>
0

>  <SCORE.INTRA.SOLV.lig_0>
-23.8941

>  <SCORE.INTRA.VDW>
0

>  <SCORE.INTRA.VDW.0>
0

>  <SCORE.INTRA.norm>
0

>  <SCORE.RESTR>
0

>  <SCORE.RESTR.CAVITY>
0

>  <SCORE.RESTR.norm>
0

>  <SCORE.SYSTEM>
0

>  <SCORE.SYSTEM.CONST>
0

>  <SCORE.SYSTEM.DIHEDRAL>
0

>  <SCORE.SYSTEM.SOLV>
0

>  <SCORE.SYSTEM.norm>
0

>  <SCORE.heavy>
10

>  <SCORE.norm>
-1.3804

>  <RMSD>
2.862

$$$$
ligand
 OpenBabel11021811513D
libRbt.so/2013.1/901 2013/11/27
 10 11  0  0  0  0  0  0  0  0999 V2000
  -29.3170   17.3742  -17.6125 N   0  0  0  0  0  0  0  0  0  0  0  0
  -30.1963   18.3628  -17.8171 C   0  0  0  0  0  0  0  0  0  0  0  0
  -31.0348   18.9301  -16.9515 N   0  0  0  0  0  0  0  0  0  0  0  0
  -30.9147   18.3732  -15.7363 C   0  0  0  0  0  0  0  0  0  0  0  0
  -30.0598   17.3510  -15.3732 C   0  0  0  0  0  0  0  0  0  0  0  0
  -29.2199   16.8350  -16.3801 C   0  0  0  0  0  0  0  0  0  0  0  0
  -28.3427   15.8468  -16.1726 N   0  0  0  0  0  0  0  0  0  0  0  0
  -30.2124   17.0353  -14.0337 N   0  0  0  0  0  0  0  0  0  0  0  0
  -31.1454   17.8612  -13.6208 C   0  0  0  0  0  0  0  0  0  0  0  0
  -31.6145   18.6967  -14.5959 N   0  0  0  0  0  0  0  0  0  0  0  0
  1  2  2  0  0  0  0
  1  6  1  0  0  0  0
  2  3  1  0  0  0  0
  3  4  2  0  0  0  0
  4  5  1  0  0  0  0
  4 10  1  0  0  0  0
  5  6  2  0  0  0  0
  5  8  1  0  0  0  0
  6  7  1  0  0  0  0
  8  9  1  0  0  0  0
  9 10  2  0  0  0  0
M  END
>  <CHROM.1>
-30.19796686,17.65972020,-15.83273506,0.71741989,0.77643446,-1.22925004

>  <Name>
ligand

>  <RI>
0

>  <Rbt.Current_Directory>
/home/itssahil/PROJECTS/Mol_Feturizer/New_Systems/rnas/4TZY

>  <Rbt.Executable>
rbdock ($Id: //depot/dev/client3/rdock/2013.1/src/exe/rbdock.cxx#4 $)

>  <Rbt.Library>
libRbt.so (2013.1, Build901 2013/11/27)

>  <Rbt.Parameter_File>
/export/apps/rDock/src/rDock_2013.1_src/data/scripts/dock_solv.prm

>  <Rbt.Receptor>
prm/pocket_docking_8.prm

>  <SCORE>
-13.7341

>  <SCORE.INTER>
-13.7341

>  <SCORE.INTER.CONST>
1

>  <SCORE.INTER.POLAR>
0

>  <SCORE.INTER.ROT>
0

>  <SCORE.INTER.SOLV>
7.28512

>  <SCORE.INTER.VDW>
-15.1844

>  <SCORE.INTER.norm>
-1.37341

>  <SCORE.INTRA>
0

>  <SCORE.INTRA.DIHEDRAL>
0

>  <SCORE.INTRA.DIHEDRAL.0>
0

>  <SCORE.INTRA.POLAR>
0

>  <SCORE.INTRA.POLAR.0>
0

>  <SCORE.INTRA.REPUL>
0

>  <SCORE.INTRA.REPUL.0>
0

>  <SCORE.INTRA.SOLV>
0

>  <SCORE.INTRA.SOLV.lig_0>
-23.8941

>  <SCORE.INTRA.VDW>
0

>  <SCORE.INTRA.VDW.0>
0

>  <SCORE.INTRA.norm>
0

>  <SCORE.RESTR>
0

>  <SCORE.RESTR.CAVITY>
0

>  <SCORE.RESTR.norm>
0

>  <SCORE.SYSTEM>
0

>  <SCORE.SYSTEM.CONST>
0

>  <SCORE.SYSTEM.DIHEDRAL>
0

>  <SCORE.SYSTEM.SOLV>
0

>  <SCORE.SYSTEM.norm>
0

>  <SCORE.heavy>
10

>  <SCORE.norm>
-1.37341

>  <RMSD>
2.862

$$$$
ligand
 OpenBabel11021811513D
libRbt.so/2013.1/901 2013/11/27
 10 11  0  0  0  0  0  0  0  0999 V2000
  -29.3231   17.3799  -17.6053 N   0  0  0  0  0  0  0  0  0  0  0  0
  -30.2079   18.3624  -17.8157 C   0  0  0  0  0  0  0  0  0  0  0  0
  -31.0515   18.9281  -16.9541 N   0  0  0  0  0  0  0  0  0  0  0  0
  -30.9306   18.3768  -15.7364 C   0  0  0  0  0  0  0  0  0  0  0  0
  -30.0703   17.3613  -15.3674 C   0  0  0  0  0  0  0  0  0  0  0  0
  -29.2253   16.8463  -16.3706 C   0  0  0  0  0  0  0  0  0  0  0  0
  -28.3427   15.8642  -16.1573 N   0  0  0  0  0  0  0  0  0  0  0  0
  -30.2237   17.0501  -14.0270 N   0  0  0  0  0  0  0  0  0  0  0  0
  -31.1625   17.8721  -13.6193 C   0  0  0  0  0  0  0  0  0  0  0  0
  -31.6346   18.7008  -14.5987 N   0  0  0  0  0  0  0  0  0  0  0  0
  1  2  2  0  0  0  0
  1  6  1  0  0  0  0
  2  3  1  0  0  0  0
  3  4  2  0  0  0  0
  4  5  1  0  0  0  0
  4 10  1  0  0  0  0
  5  6  2  0  0  0  0
  5  8  1  0  0  0  0
  6  7  1  0  0  0  0
  8  9  1  0  0  0  0
  9 10  2  0  0  0  0
M  END
>  <CHROM.1>
-30.20938496,17.66732735,-15.82850972,0.71754119,0.77012229,-1.23337292

>  <Name>
ligand

>  <RI>
0

>  <Rbt.Current_Directory>
/home/itssahil/PROJECTS/Mol_Feturizer/New_Systems/rnas/4TZY

>  <Rbt.Executable>
rbdock ($Id: //depot/dev/client3/rdock/2013.1/src/exe/rbdock.cxx#4 $)

>  <Rbt.Library>
libRbt.so (2013.1, Build901 2013/11/27)

>  <Rbt.Parameter_File>
/export/apps/rDock/src/rDock_2013.1_src/data/scripts/dock_solv.prm

>  <Rbt.Receptor>
prm/blind_docking_100.prm

>  <SCORE>
-13.8373

>  <SCORE.INTER>
-13.8373

>  <SCORE.INTER.CONST>
1

>  <SCORE.INTER.POLAR>
0

>  <SCORE.INTER.ROT>
0

>  <SCORE.INTER.SOLV>
7.21918

>  <SCORE.INTER.VDW>
-15.2313

>  <SCORE.INTER.norm>
-1.38373

>  <SCORE.INTRA>
0

>  <SCORE.INTRA.DIHEDRAL>
0

>  <SCORE.INTRA.DIHEDRAL.0>
0

>  <SCORE.INTRA.POLAR>
0

>  <SCORE.INTRA.POLAR.0>
0

>  <SCORE.INTRA.REPUL>
0

>  <SCORE.INTRA.REPUL.0>
0

>  <SCORE.INTRA.SOLV>
0

>  <SCORE.INTRA.SOLV.lig_0>
-23.8941

>  <SCORE.INTRA.VDW>
0

>  <SCORE.INTRA.VDW.0>
0

>  <SCORE.INTRA.norm>
0

>  <SCORE.RESTR>
0

>  <SCORE.RESTR.CAVITY>
0

>  <SCORE.RESTR.norm>
0

>  <SCORE.SYSTEM>
0

>  <SCORE.SYSTEM.CONST>
0

>  <SCORE.SYSTEM.DIHEDRAL>
0

>  <SCORE.SYSTEM.SOLV>
0

>  <SCORE.SYSTEM.norm>
0

>  <SCORE.heavy>
10

>  <SCORE.norm>
-1.38373

>  <RMSD>
2.863

$$$$
ligand
 OpenBabel11021811513D
libRbt.so/2013.1/901 2013/11/27
 10 11  0  0  0  0  0  0  0  0999 V2000
  -29.3177   17.3702  -17.6152 N   0  0  0  0  0  0  0  0  0  0  0  0
  -30.1954   18.3618  -17.8128 C   0  0  0  0  0  0  0  0  0  0  0  0
  -31.0277   18.9293  -16.9415 N   0  0  0  0  0  0  0  0  0  0  0  0
  -30.9027   18.3692  -15.7282 C   0  0  0  0  0  0  0  0  0  0  0  0
  -30.0487   17.3438  -15.3720 C   0  0  0  0  0  0  0  0  0  0  0  0
  -29.2155   16.8280  -16.3846 C   0  0  0  0  0  0  0  0  0  0  0  0
  -28.3400   15.8368  -16.1841 N   0  0  0  0  0  0  0  0  0  0  0  0
  -30.1949   17.0254  -14.0324 N   0  0  0  0  0  0  0  0  0  0  0  0
  -31.1235   17.8530  -13.6127 C   0  0  0  0  0  0  0  0  0  0  0  0
  -31.5954   18.6920  -14.5833 N   0  0  0  0  0  0  0  0  0  0  0  0
  1  2  2  0  0  0  0
  1  6  1  0  0  0  0
  2  3  1  0  0  0  0
  3  4  2  0  0  0  0
  4  5  1  0  0  0  0
  4 10  1  0  0  0  0
  5  6  2  0  0  0  0
  5  8  1  0  0  0  0
  6  7  1  0  0  0  0
  8  9  1  0  0  0  0
  9 10  2  0  0  0  0
M  END
>  <CHROM.1>
-30.18839278,17.65403369,-15.83009249,0.72320379,0.78079984,-1.23098713

>  <Name>
ligand

>  <RI>
0

>  <Rbt.Current_Directory>
/home/itssahil/PROJECTS/Mol_Feturizer/New_Systems/rnas/4TZY

>  <Rbt.Executable>
rbdock ($Id: //depot/dev/client3/rdock/2013.1/src/exe/rbdock.cxx#4 $)

>  <Rbt.Library>
libRbt.so (2013.1, Build901 2013/11/27)

>  <Rbt.Parameter_File>
/export/apps/rDock/src/rDock_2013.1_src/data/scripts/dock_solv.prm

>  <Rbt.Receptor>
prm/blind_docking_60.prm

>  <SCORE>
-13.7273

>  <SCORE.INTER>
-13.7273

>  <SCORE.INTER.CONST>
1

>  <SCORE.INTER.POLAR>
0

>  <SCORE.INTER.ROT>
0

>  <SCORE.INTER.SOLV>
7.33038

>  <SCORE.INTER.VDW>
-15.195

>  <SCORE.INTER.norm>
-1.37273

>  <SCORE.INTRA>
0

>  <SCORE.INTRA.DIHEDRAL>
0

>  <SCORE.INTRA.DIHEDRAL.0>
0

>  <SCORE.INTRA.POLAR>
0

>  <SCORE.INTRA.POLAR.0>
0

>  <SCORE.INTRA.REPUL>
0

>  <SCORE.INTRA.REPUL.0>
0

>  <SCORE.INTRA.SOLV>
0

>  <SCORE.INTRA.SOLV.lig_0>
-23.8941

>  <SCORE.INTRA.VDW>
0

>  <SCORE.INTRA.VDW.0>
0

>  <SCORE.INTRA.norm>
0

>  <SCORE.RESTR>
0

>  <SCORE.RESTR.CAVITY>
0

>  <SCORE.RESTR.norm>
0

>  <SCORE.SYSTEM>
0

>  <SCORE.SYSTEM.CONST>
0

>  <SCORE.SYSTEM.DIHEDRAL>
0

>  <SCORE.SYSTEM.SOLV>
0

>  <SCORE.SYSTEM.norm>
0

>  <SCORE.heavy>
10

>  <SCORE.norm>
-1.37273

>  <RMSD>
2.863

$$$$
ligand
 OpenBabel11021811513D
libRbt.so/2013.1/901 2013/11/27
 10 11  0  0  0  0  0  0  0  0999 V2000
  -29.3268   17.3984  -17.6247 N   0  0  0  0  0  0  0  0  0  0  0  0
  -30.2226   18.3711  -17.8343 C   0  0  0  0  0  0  0  0  0  0  0  0
  -31.0684   18.9306  -16.9709 N   0  0  0  0  0  0  0  0  0  0  0  0
  -30.9367   18.3844  -15.7521 C   0  0  0  0  0  0  0  0  0  0  0  0
  -30.0644   17.3789  -15.3836 C   0  0  0  0  0  0  0  0  0  0  0  0
  -29.2182   16.8697  -16.3888 C   0  0  0  0  0  0  0  0  0  0  0  0
  -28.3246   15.8974  -16.1763 N   0  0  0  0  0  0  0  0  0  0  0  0
  -30.2089   17.0702  -14.0416 N   0  0  0  0  0  0  0  0  0  0  0  0
  -31.1545   17.8837  -13.6325 C   0  0  0  0  0  0  0  0  0  0  0  0
  -31.6392   18.7045  -14.6124 N   0  0  0  0  0  0  0  0  0  0  0  0
  1  2  2  0  0  0  0
  1  6  1  0  0  0  0
  2  3  1  0  0  0  0
  3  4  2  0  0  0  0
  4  5  1  0  0  0  0
  4 10  1  0  0  0  0
  5  6  2  0  0  0  0
  5  8  1  0  0  0  0
  6  7  1  0  0  0  0
  8  9  1  0  0  0  0
  9 10  2  0  0  0  0
M  END
>  <CHROM.1>
-30.20853695,17.68209934,-15.84503125,0.72775453,0.76169105,-1.24348866

>  <Name>
ligand

>  <RI>
0

>  <Rbt.Current_Directory>
/home/itssahil/PROJECTS/Mol_Feturizer/New_Systems/rnas/4TZY

>  <Rbt.Executable>
rbdock ($Id: //depot/dev/client3/rdock/2013.1/src/exe/rbdock.cxx#4 $)

>  <Rbt.Library>
libRbt.so (2013.1, Build901 2013/11/27)

>  <Rbt.Parameter_File>
/export/apps/rDock/src/rDock_2013.1_src/data/scripts/dock_solv.prm

>  <Rbt.Receptor>
prm/pocket_docking_6.prm

>  <SCORE>
-13.8068

>  <SCORE.INTER>
-13.8068

>  <SCORE.INTER.CONST>
1

>  <SCORE.INTER.POLAR>
0

>  <SCORE.INTER.ROT>
0

>  <SCORE.INTER.SOLV>
7.21357

>  <SCORE.INTER.VDW>
-15.209

>  <SCORE.INTER.norm>
-1.38068

>  <SCORE.INTRA>
0

>  <SCORE.INTRA.DIHEDRAL>
0

>  <SCORE.INTRA.DIHEDRAL.0>
0

>  <SCORE.INTRA.POLAR>
0

>  <SCORE.INTRA.POLAR.0>
0

>  <SCORE.INTRA.REPUL>
0

>  <SCORE.INTRA.REPUL.0>
0

>  <SCORE.INTRA.SOLV>
0

>  <SCORE.INTRA.SOLV.lig_0>
-23.8941

>  <SCORE.INTRA.VDW>
0

>  <SCORE.INTRA.VDW.0>
0

>  <SCORE.INTRA.norm>
0

>  <SCORE.RESTR>
0

>  <SCORE.RESTR.CAVITY>
0

>  <SCORE.RESTR.norm>
0

>  <SCORE.SYSTEM>
0

>  <SCORE.SYSTEM.CONST>
0

>  <SCORE.SYSTEM.DIHEDRAL>
0

>  <SCORE.SYSTEM.SOLV>
0

>  <SCORE.SYSTEM.norm>
0

>  <SCORE.heavy>
10

>  <SCORE.norm>
-1.38068

>  <RMSD>
2.863

$$$$
ligand
 OpenBabel11021811513D
libRbt.so/2013.1/901 2013/11/27
 10 11  0  0  0  0  0  0  0  0999 V2000
  -29.3208   17.3807  -17.6028 N   0  0  0  0  0  0  0  0  0  0  0  0
  -30.2064   18.3621  -17.8149 C   0  0  0  0  0  0  0  0  0  0  0  0
  -31.0512   18.9279  -16.9545 N   0  0  0  0  0  0  0  0  0  0  0  0
  -30.9306   18.3781  -15.7362 C   0  0  0  0  0  0  0  0  0  0  0  0
  -30.0696   17.3638  -15.3654 C   0  0  0  0  0  0  0  0  0  0  0  0
  -29.2233   16.8486  -16.3674 C   0  0  0  0  0  0  0  0  0  0  0  0
  -28.3399   15.8676  -16.1525 N   0  0  0  0  0  0  0  0  0  0  0  0
  -30.2237   17.0539  -14.0247 N   0  0  0  0  0  0  0  0  0  0  0  0
  -31.1636   17.8754  -13.6187 C   0  0  0  0  0  0  0  0  0  0  0  0
  -31.6358   18.7026  -14.5993 N   0  0  0  0  0  0  0  0  0  0  0  0
  1  2  2  0  0  0  0
  1  6  1  0  0  0  0
  2  3  1  0  0  0  0
  3  4  2  0  0  0  0
  4  5  1  0  0  0  0
  4 10  1  0  0  0  0
  5  6  2  0  0  0  0
  5  8  1  0  0  0  0
  6  7  1  0  0  0  0
  8  9  1  0  0  0  0
  9 10  2  0  0  0  0
M  END
>  <CHROM.1>
-30.20865491,17.66919752,-15.82695650,0.71705899,0.76894417,-1.23412004

>  <Name>
ligand

>  <RI>
0

>  <Rbt.Current_Directory>
/home/itssahil/PROJECTS/Mol_Feturizer/New_Systems/rnas/4TZY

>  <Rbt.Executable>
rbdock ($Id: //depot/dev/client3/rdock/2013.1/src/exe/rbdock.cxx#4 $)

>  <Rbt.Library>
libRbt.so (2013.1, Build901 2013/11/27)

>  <Rbt.Parameter_File>
/export/apps/rDock/src/rDock_2013.1_src/data/scripts/dock_solv.prm

>  <Rbt.Receptor>
prm/pocket_docking_7.prm

>  <SCORE>
-13.8345

>  <SCORE.INTER>
-13.8345

>  <SCORE.INTER.CONST>
1

>  <SCORE.INTER.POLAR>
0

>  <SCORE.INTER.ROT>
0

>  <SCORE.INTER.SOLV>
7.2005

>  <SCORE.INTER.VDW>
-15.2231

>  <SCORE.INTER.norm>
-1.38345

>  <SCORE.INTRA>
0

>  <SCORE.INTRA.DIHEDRAL>
0

>  <SCORE.INTRA.DIHEDRAL.0>
0

>  <SCORE.INTRA.POLAR>
0

>  <SCORE.INTRA.POLAR.0>
0

>  <SCORE.INTRA.REPUL>
0

>  <SCORE.INTRA.REPUL.0>
0

>  <SCORE.INTRA.SOLV>
0

>  <SCORE.INTRA.SOLV.lig_0>
-23.8941

>  <SCORE.INTRA.VDW>
0

>  <SCORE.INTRA.VDW.0>
0

>  <SCORE.INTRA.norm>
0

>  <SCORE.RESTR>
0

>  <SCORE.RESTR.CAVITY>
0

>  <SCORE.RESTR.norm>
0

>  <SCORE.SYSTEM>
0

>  <SCORE.SYSTEM.CONST>
0

>  <SCORE.SYSTEM.DIHEDRAL>
0

>  <SCORE.SYSTEM.SOLV>
0

>  <SCORE.SYSTEM.norm>
0

>  <SCORE.heavy>
10

>  <SCORE.norm>
-1.38345

>  <RMSD>
2.863

$$$$
ligand
 OpenBabel11021811513D
libRbt.so/2013.1/901 2013/11/27
 10 11  0  0  0  0  0  0  0  0999 V2000
  -29.3906   17.3259  -17.6519 N   0  0  0  0  0  0  0  0  0  0  0  0
  -30.3298   18.2576  -17.8577 C   0  0  0  0  0  0  0  0  0  0  0  0
  -31.1689   18.8083  -16.9822 N   0  0  0  0  0  0  0  0  0  0  0  0
  -30.9774   18.3016  -15.7543 C   0  0  0  0  0  0  0  0  0  0  0  0
  -30.0554   17.3407  -15.3881 C   0  0  0  0  0  0  0  0  0  0  0  0
  -29.2224   16.8362  -16.4066 C   0  0  0  0  0  0  0  0  0  0  0  0
  -28.2853   15.9049  -16.1978 N   0  0  0  0  0  0  0  0  0  0  0  0
  -30.1451   17.0641  -14.0343 N   0  0  0  0  0  0  0  0  0  0  0  0
  -31.1081   17.8521  -13.6161 C   0  0  0  0  0  0  0  0  0  0  0  0
  -31.6553   18.6263  -14.6011 N   0  0  0  0  0  0  0  0  0  0  0  0
  1  2  2  0  0  0  0
  1  6  1  0  0  0  0
  2  3  1  0  0  0  0
  3  4  2  0  0  0  0
  4  5  1  0  0  0  0
  4 10  1  0  0  0  0
  5  6  2  0  0  0  0
  5  8  1  0  0  0  0
  6  7  1  0  0  0  0
  8  9  1  0  0  0  0
  9 10  2  0  0  0  0
M  END
>  <CHROM.1>
-30.22577579,17.62518957,-15.85241158,0.78513835,0.73420750,-1.30972429

>  <Name>
ligand

>  <RI>
0

>  <Rbt.Current_Directory>
/home/itssahil/PROJECTS/Mol_Feturizer/New_Systems/rnas/4TZY

>  <Rbt.Executable>
rbdock ($Id: //depot/dev/client3/rdock/2013.1/src/exe/rbdock.cxx#4 $)

>  <Rbt.Library>
libRbt.so (2013.1, Build901 2013/11/27)

>  <Rbt.Parameter_File>
/export/apps/rDock/src/rDock_2013.1_src/data/scripts/dock_solv.prm

>  <Rbt.Receptor>
prm/pocket_docking_7.prm

>  <SCORE>
-13.6909

>  <SCORE.INTER>
-13.6909

>  <SCORE.INTER.CONST>
1

>  <SCORE.INTER.POLAR>
0

>  <SCORE.INTER.ROT>
0

>  <SCORE.INTER.SOLV>
7.20634

>  <SCORE.INTER.VDW>
-15.1294

>  <SCORE.INTER.norm>
-1.36909

>  <SCORE.INTRA>
0

>  <SCORE.INTRA.DIHEDRAL>
0

>  <SCORE.INTRA.DIHEDRAL.0>
0

>  <SCORE.INTRA.POLAR>
0

>  <SCORE.INTRA.POLAR.0>
0

>  <SCORE.INTRA.REPUL>
0

>  <SCORE.INTRA.REPUL.0>
0

>  <SCORE.INTRA.SOLV>
0

>  <SCORE.INTRA.SOLV.lig_0>
-23.8941

>  <SCORE.INTRA.VDW>
0

>  <SCORE.INTRA.VDW.0>
0

>  <SCORE.INTRA.norm>
0

>  <SCORE.RESTR>
0

>  <SCORE.RESTR.CAVITY>
0

>  <SCORE.RESTR.norm>
0

>  <SCORE.SYSTEM>
0

>  <SCORE.SYSTEM.CONST>
0

>  <SCORE.SYSTEM.DIHEDRAL>
0

>  <SCORE.SYSTEM.SOLV>
0

>  <SCORE.SYSTEM.norm>
0

>  <SCORE.heavy>
10

>  <SCORE.norm>
-1.36909

>  <RMSD>
2.863

$$$$
ligand
 OpenBabel11021811513D
libRbt.so/2013.1/901 2013/11/27
 10 11  0  0  0  0  0  0  0  0999 V2000
  -29.3220   17.3988  -17.6083 N   0  0  0  0  0  0  0  0  0  0  0  0
  -30.2101   18.3786  -17.8168 C   0  0  0  0  0  0  0  0  0  0  0  0
  -31.0572   18.9383  -16.9547 N   0  0  0  0  0  0  0  0  0  0  0  0
  -30.9360   18.3835  -15.7386 C   0  0  0  0  0  0  0  0  0  0  0  0
  -30.0724   17.3701  -15.3716 C   0  0  0  0  0  0  0  0  0  0  0  0
  -29.2239   16.8616  -16.3752 C   0  0  0  0  0  0  0  0  0  0  0  0
  -28.3379   15.8821  -16.1638 N   0  0  0  0  0  0  0  0  0  0  0  0
  -30.2266   17.0539  -14.0324 N   0  0  0  0  0  0  0  0  0  0  0  0
  -31.1692   17.8710  -13.6235 C   0  0  0  0  0  0  0  0  0  0  0  0
  -31.6429   18.7011  -14.6009 N   0  0  0  0  0  0  0  0  0  0  0  0
  1  2  2  0  0  0  0
  1  6  1  0  0  0  0
  2  3  1  0  0  0  0
  3  4  2  0  0  0  0
  4  5  1  0  0  0  0
  4 10  1  0  0  0  0
  5  6  2  0  0  0  0
  5  8  1  0  0  0  0
  6  7  1  0  0  0  0
  8  9  1  0  0  0  0
  9 10  2  0  0  0  0
M  END
>  <CHROM.1>
-30.21195860,17.67706685,-15.83192174,0.71733900,0.76602762,-1.22999211

>  <Name>
ligand

>  <RI>
0

>  <Rbt.Current_Directory>
/home/itssahil/PROJECTS/Mol_Feturizer/New_Systems/rnas/4TZY

>  <Rbt.Executable>
rbdock ($Id: //depot/dev/client3/rdock/2013.1/src/exe/rbdock.cxx#4 $)

>  <Rbt.Library>
libRbt.so (2013.1, Build901 2013/11/27)

>  <Rbt.Parameter_File>
/export/apps/rDock/src/rDock_2013.1_src/data/scripts/dock_solv.prm

>  <Rbt.Receptor>
prm/pocket_docking_4.prm

>  <SCORE>
-13.7568

>  <SCORE.INTER>
-13.7568

>  <SCORE.INTER.CONST>
1

>  <SCORE.INTER.POLAR>
0

>  <SCORE.INTER.ROT>
0

>  <SCORE.INTER.SOLV>
7.21284

>  <SCORE.INTER.VDW>
-15.1755

>  <SCORE.INTER.norm>
-1.37568

>  <SCORE.INTRA>
0

>  <SCORE.INTRA.DIHEDRAL>
0

>  <SCORE.INTRA.DIHEDRAL.0>
0

>  <SCORE.INTRA.POLAR>
0

>  <SCORE.INTRA.POLAR.0>
0

>  <SCORE.INTRA.REPUL>
0

>  <SCORE.INTRA.REPUL.0>
0

>  <SCORE.INTRA.SOLV>
0

>  <SCORE.INTRA.SOLV.lig_0>
-23.8941

>  <SCORE.INTRA.VDW>
0

>  <SCORE.INTRA.VDW.0>
0

>  <SCORE.INTRA.norm>
0

>  <SCORE.RESTR>
0

>  <SCORE.RESTR.CAVITY>
0

>  <SCORE.RESTR.norm>
0

>  <SCORE.SYSTEM>
0

>  <SCORE.SYSTEM.CONST>
0

>  <SCORE.SYSTEM.DIHEDRAL>
0

>  <SCORE.SYSTEM.SOLV>
0

>  <SCORE.SYSTEM.norm>
0

>  <SCORE.heavy>
10

>  <SCORE.norm>
-1.37568

>  <RMSD>
2.864

$$$$
ligand
 OpenBabel11021811513D
libRbt.so/2013.1/901 2013/11/27
 10 11  0  0  0  0  0  0  0  0999 V2000
  -29.3883   17.3483  -17.6271 N   0  0  0  0  0  0  0  0  0  0  0  0
  -30.3264   18.2794  -17.8405 C   0  0  0  0  0  0  0  0  0  0  0  0
  -31.1863   18.8150  -16.9758 N   0  0  0  0  0  0  0  0  0  0  0  0
  -31.0193   18.2920  -15.7511 C   0  0  0  0  0  0  0  0  0  0  0  0
  -30.1017   17.3295  -15.3783 C   0  0  0  0  0  0  0  0  0  0  0  0
  -29.2450   16.8421  -16.3854 C   0  0  0  0  0  0  0  0  0  0  0  0
  -28.3090   15.9114  -16.1692 N   0  0  0  0  0  0  0  0  0  0  0  0
  -30.2194   17.0340  -14.0307 N   0  0  0  0  0  0  0  0  0  0  0  0
  -31.1943   17.8127  -13.6226 C   0  0  0  0  0  0  0  0  0  0  0  0
  -31.7231   18.5984  -14.6084 N   0  0  0  0  0  0  0  0  0  0  0  0
  1  2  2  0  0  0  0
  1  6  1  0  0  0  0
  2  3  1  0  0  0  0
  3  4  2  0  0  0  0
  4  5  1  0  0  0  0
  4 10  1  0  0  0  0
  5  6  2  0  0  0  0
  5  8  1  0  0  0  0
  6  7  1  0  0  0  0
  8  9  1  0  0  0  0
  9 10  2  0  0  0  0
M  END
>  <CHROM.1>
-30.26313695,17.61976493,-15.84221822,0.75869487,0.72471013,-1.27834980

>  <Name>
ligand

>  <RI>
0

>  <Rbt.Current_Directory>
/home/itssahil/PROJECTS/Mol_Feturizer/New_Systems/rnas/4TZY

>  <Rbt.Executable>
rbdock ($Id: //depot/dev/client3/rdock/2013.1/src/exe/rbdock.cxx#4 $)

>  <Rbt.Library>
libRbt.so (2013.1, Build901 2013/11/27)

>  <Rbt.Parameter_File>
/export/apps/rDock/src/rDock_2013.1_src/data/scripts/dock_solv.prm

>  <Rbt.Receptor>
prm/pocket_docking_7.prm

>  <SCORE>
-13.6377

>  <SCORE.INTER>
-13.6377

>  <SCORE.INTER.CONST>
1

>  <SCORE.INTER.POLAR>
0

>  <SCORE.INTER.ROT>
0

>  <SCORE.INTER.SOLV>
7.13241

>  <SCORE.INTER.VDW>
-15.0692

>  <SCORE.INTER.norm>
-1.36377

>  <SCORE.INTRA>
0

>  <SCORE.INTRA.DIHEDRAL>
0

>  <SCORE.INTRA.DIHEDRAL.0>
0

>  <SCORE.INTRA.POLAR>
0

>  <SCORE.INTRA.POLAR.0>
0

>  <SCORE.INTRA.REPUL>
0

>  <SCORE.INTRA.REPUL.0>
0

>  <SCORE.INTRA.SOLV>
0

>  <SCORE.INTRA.SOLV.lig_0>
-23.8941

>  <SCORE.INTRA.VDW>
0

>  <SCORE.INTRA.VDW.0>
0

>  <SCORE.INTRA.norm>
0

>  <SCORE.RESTR>
0

>  <SCORE.RESTR.CAVITY>
0

>  <SCORE.RESTR.norm>
0

>  <SCORE.SYSTEM>
0

>  <SCORE.SYSTEM.CONST>
0

>  <SCORE.SYSTEM.DIHEDRAL>
0

>  <SCORE.SYSTEM.SOLV>
0

>  <SCORE.SYSTEM.norm>
0

>  <SCORE.heavy>
10

>  <SCORE.norm>
-1.36377

>  <RMSD>
2.864

$$$$
ligand
 OpenBabel11021811513D
libRbt.so/2013.1/901 2013/11/27
 10 11  0  0  0  0  0  0  0  0999 V2000
  -29.3848   17.3210  -17.6550 N   0  0  0  0  0  0  0  0  0  0  0  0
  -30.2063   18.3675  -17.8045 C   0  0  0  0  0  0  0  0  0  0  0  0
  -30.9816   18.9596  -16.8976 N   0  0  0  0  0  0  0  0  0  0  0  0
  -30.8605   18.3607  -15.7026 C   0  0  0  0  0  0  0  0  0  0  0  0
  -30.0608   17.2775  -15.3949 C   0  0  0  0  0  0  0  0  0  0  0  0
  -29.2850   16.7408  -16.4417 C   0  0  0  0  0  0  0  0  0  0  0  0
  -28.4655   15.6947  -16.2893 N   0  0  0  0  0  0  0  0  0  0  0  0
  -30.1929   16.9324  -14.0605 N   0  0  0  0  0  0  0  0  0  0  0  0
  -31.0598   17.8018  -13.5958 C   0  0  0  0  0  0  0  0  0  0  0  0
  -31.5045   18.6930  -14.5322 N   0  0  0  0  0  0  0  0  0  0  0  0
  1  2  2  0  0  0  0
  1  6  1  0  0  0  0
  2  3  1  0  0  0  0
  3  4  2  0  0  0  0
  4  5  1  0  0  0  0
  4 10  1  0  0  0  0
  5  6  2  0  0  0  0
  5  8  1  0  0  0  0
  6  7  1  0  0  0  0
  8  9  1  0  0  0  0
  9 10  2  0  0  0  0
M  END
>  <CHROM.1>
-30.19292880,17.60761972,-15.84120565,0.72808772,0.84529006,-1.20839188

>  <Name>
ligand

>  <RI>
0

>  <Rbt.Current_Directory>
/home/itssahil/PROJECTS/Mol_Feturizer/New_Systems/rnas/4TZY

>  <Rbt.Executable>
rbdock ($Id: //depot/dev/client3/rdock/2013.1/src/exe/rbdock.cxx#4 $)

>  <Rbt.Library>
libRbt.so (2013.1, Build901 2013/11/27)

>  <Rbt.Parameter_File>
/export/apps/rDock/src/rDock_2013.1_src/data/scripts/dock_solv.prm

>  <Rbt.Receptor>
prm/pocket_docking_8.prm

>  <SCORE>
-13.7073

>  <SCORE.INTER>
-13.7073

>  <SCORE.INTER.CONST>
1

>  <SCORE.INTER.POLAR>
0

>  <SCORE.INTER.ROT>
0

>  <SCORE.INTER.SOLV>
8.0065

>  <SCORE.INTER.VDW>
-15.407

>  <SCORE.INTER.norm>
-1.37073

>  <SCORE.INTRA>
0

>  <SCORE.INTRA.DIHEDRAL>
0

>  <SCORE.INTRA.DIHEDRAL.0>
0

>  <SCORE.INTRA.POLAR>
0

>  <SCORE.INTRA.POLAR.0>
0

>  <SCORE.INTRA.REPUL>
0

>  <SCORE.INTRA.REPUL.0>
0

>  <SCORE.INTRA.SOLV>
0

>  <SCORE.INTRA.SOLV.lig_0>
-23.8941

>  <SCORE.INTRA.VDW>
0

>  <SCORE.INTRA.VDW.0>
0

>  <SCORE.INTRA.norm>
0

>  <SCORE.RESTR>
0

>  <SCORE.RESTR.CAVITY>
0

>  <SCORE.RESTR.norm>
0

>  <SCORE.SYSTEM>
0

>  <SCORE.SYSTEM.CONST>
0

>  <SCORE.SYSTEM.DIHEDRAL>
0

>  <SCORE.SYSTEM.SOLV>
0

>  <SCORE.SYSTEM.norm>
0

>  <SCORE.heavy>
10

>  <SCORE.norm>
-1.37073

>  <RMSD>
2.864

$$$$
ligand
 OpenBabel11021811513D
libRbt.so/2013.1/901 2013/11/27
 10 11  0  0  0  0  0  0  0  0999 V2000
  -29.3904   17.3371  -17.6280 N   0  0  0  0  0  0  0  0  0  0  0  0
  -30.3261   18.2729  -17.8311 C   0  0  0  0  0  0  0  0  0  0  0  0
  -31.1788   18.8075  -16.9587 N   0  0  0  0  0  0  0  0  0  0  0  0
  -31.0066   18.2778  -15.7376 C   0  0  0  0  0  0  0  0  0  0  0  0
  -30.0905   17.3099  -15.3751 C   0  0  0  0  0  0  0  0  0  0  0  0
  -29.2417   16.8242  -16.3896 C   0  0  0  0  0  0  0  0  0  0  0  0
  -28.3081   15.8888  -16.1836 N   0  0  0  0  0  0  0  0  0  0  0  0
  -30.2015   17.0081  -14.0283 N   0  0  0  0  0  0  0  0  0  0  0  0
  -31.1708   17.7885  -13.6106 C   0  0  0  0  0  0  0  0  0  0  0  0
  -31.7024   18.5812  -14.5893 N   0  0  0  0  0  0  0  0  0  0  0  0
  1  2  2  0  0  0  0
  1  6  1  0  0  0  0
  2  3  1  0  0  0  0
  3  4  2  0  0  0  0
  4  5  1  0  0  0  0
  4 10  1  0  0  0  0
  5  6  2  0  0  0  0
  5  8  1  0  0  0  0
  6  7  1  0  0  0  0
  8  9  1  0  0  0  0
  9 10  2  0  0  0  0
M  END
>  <CHROM.1>
-30.25361104,17.60308488,-15.83660521,0.76479050,0.73016315,-1.27743331

>  <Name>
ligand

>  <RI>
0

>  <Rbt.Current_Directory>
/home/itssahil/PROJECTS/Mol_Feturizer/New_Systems/rnas/4TZY

>  <Rbt.Executable>
rbdock ($Id: //depot/dev/client3/rdock/2013.1/src/exe/rbdock.cxx#4 $)

>  <Rbt.Library>
libRbt.so (2013.1, Build901 2013/11/27)

>  <Rbt.Parameter_File>
/export/apps/rDock/src/rDock_2013.1_src/data/scripts/dock_solv.prm

>  <Rbt.Receptor>
prm/pocket_docking_8.prm

>  <SCORE>
-13.6663

>  <SCORE.INTER>
-13.6663

>  <SCORE.INTER.CONST>
1

>  <SCORE.INTER.POLAR>
0

>  <SCORE.INTER.ROT>
0

>  <SCORE.INTER.SOLV>
7.17922

>  <SCORE.INTER.VDW>
-15.104

>  <SCORE.INTER.norm>
-1.36663

>  <SCORE.INTRA>
0

>  <SCORE.INTRA.DIHEDRAL>
0

>  <SCORE.INTRA.DIHEDRAL.0>
0

>  <SCORE.INTRA.POLAR>
0

>  <SCORE.INTRA.POLAR.0>
0

>  <SCORE.INTRA.REPUL>
0

>  <SCORE.INTRA.REPUL.0>
0

>  <SCORE.INTRA.SOLV>
0

>  <SCORE.INTRA.SOLV.lig_0>
-23.8941

>  <SCORE.INTRA.VDW>
0

>  <SCORE.INTRA.VDW.0>
0

>  <SCORE.INTRA.norm>
0

>  <SCORE.RESTR>
0

>  <SCORE.RESTR.CAVITY>
0

>  <SCORE.RESTR.norm>
0

>  <SCORE.SYSTEM>
0

>  <SCORE.SYSTEM.CONST>
0

>  <SCORE.SYSTEM.DIHEDRAL>
0

>  <SCORE.SYSTEM.SOLV>
0

>  <SCORE.SYSTEM.norm>
0

>  <SCORE.heavy>
10

>  <SCORE.norm>
-1.36663

>  <RMSD>
2.865

$$$$
ligand
 OpenBabel11021811513D
libRbt.so/2013.1/901 2013/11/27
 10 11  0  0  0  0  0  0  0  0999 V2000
  -29.3307   17.3898  -17.6002 N   0  0  0  0  0  0  0  0  0  0  0  0
  -30.2267   18.3642  -17.8003 C   0  0  0  0  0  0  0  0  0  0  0  0
  -31.0771   18.9107  -16.9330 N   0  0  0  0  0  0  0  0  0  0  0  0
  -30.9500   18.3478  -15.7213 C   0  0  0  0  0  0  0  0  0  0  0  0
  -30.0782   17.3384  -15.3630 C   0  0  0  0  0  0  0  0  0  0  0  0
  -29.2269   16.8441  -16.3713 C   0  0  0  0  0  0  0  0  0  0  0  0
  -28.3330   15.8700  -16.1683 N   0  0  0  0  0  0  0  0  0  0  0  0
  -30.2282   17.0109  -14.0260 N   0  0  0  0  0  0  0  0  0  0  0  0
  -31.1766   17.8176  -13.6098 C   0  0  0  0  0  0  0  0  0  0  0  0
  -31.6580   18.6513  -14.5804 N   0  0  0  0  0  0  0  0  0  0  0  0
  1  2  2  0  0  0  0
  1  6  1  0  0  0  0
  2  3  1  0  0  0  0
  3  4  2  0  0  0  0
  4  5  1  0  0  0  0
  4 10  1  0  0  0  0
  5  6  2  0  0  0  0
  5  8  1  0  0  0  0
  6  7  1  0  0  0  0
  8  9  1  0  0  0  0
  9 10  2  0  0  0  0
M  END
>  <CHROM.1>
-30.22063127,17.64773238,-15.82075902,0.72253848,0.75910094,-1.22604390

>  <Name>
ligand

>  <RI>
0

>  <Rbt.Current_Directory>
/home/itssahil/PROJECTS/Mol_Feturizer/New_Systems/rnas/4TZY

>  <Rbt.Executable>
rbdock ($Id: //depot/dev/client3/rdock/2013.1/src/exe/rbdock.cxx#4 $)

>  <Rbt.Library>
libRbt.so (2013.1, Build901 2013/11/27)

>  <Rbt.Parameter_File>
/export/apps/rDock/src/rDock_2013.1_src/data/scripts/dock_solv.prm

>  <Rbt.Receptor>
prm/blind_docking_100.prm

>  <SCORE>
-13.6676

>  <SCORE.INTER>
-13.6676

>  <SCORE.INTER.CONST>
1

>  <SCORE.INTER.POLAR>
0

>  <SCORE.INTER.ROT>
0

>  <SCORE.INTER.SOLV>
7.2196

>  <SCORE.INTER.VDW>
-15.1183

>  <SCORE.INTER.norm>
-1.36676

>  <SCORE.INTRA>
0

>  <SCORE.INTRA.DIHEDRAL>
0

>  <SCORE.INTRA.DIHEDRAL.0>
0

>  <SCORE.INTRA.POLAR>
0

>  <SCORE.INTRA.POLAR.0>
0

>  <SCORE.INTRA.REPUL>
0

>  <SCORE.INTRA.REPUL.0>
0

>  <SCORE.INTRA.SOLV>
0

>  <SCORE.INTRA.SOLV.lig_0>
-23.8941

>  <SCORE.INTRA.VDW>
0

>  <SCORE.INTRA.VDW.0>
0

>  <SCORE.INTRA.norm>
0

>  <SCORE.RESTR>
0

>  <SCORE.RESTR.CAVITY>
0

>  <SCORE.RESTR.norm>
0

>  <SCORE.SYSTEM>
0

>  <SCORE.SYSTEM.CONST>
0

>  <SCORE.SYSTEM.DIHEDRAL>
0

>  <SCORE.SYSTEM.SOLV>
0

>  <SCORE.SYSTEM.norm>
0

>  <SCORE.heavy>
10

>  <SCORE.norm>
-1.36676

>  <RMSD>
2.866

$$$$
ligand
 OpenBabel11021811513D
libRbt.so/2013.1/901 2013/11/27
 10 11  0  0  0  0  0  0  0  0999 V2000
  -29.3148   17.3861  -17.5928 N   0  0  0  0  0  0  0  0  0  0  0  0
  -30.1977   18.3736  -17.7872 C   0  0  0  0  0  0  0  0  0  0  0  0
  -31.0316   18.9352  -16.9136 N   0  0  0  0  0  0  0  0  0  0  0  0
  -30.9019   18.3734  -15.7016 C   0  0  0  0  0  0  0  0  0  0  0  0
  -30.0423   17.3516  -15.3486 C   0  0  0  0  0  0  0  0  0  0  0  0
  -29.2080   16.8419  -16.3635 C   0  0  0  0  0  0  0  0  0  0  0  0
  -28.3273   15.8548  -16.1662 N   0  0  0  0  0  0  0  0  0  0  0  0
  -30.1850   17.0298  -14.0095 N   0  0  0  0  0  0  0  0  0  0  0  0
  -31.1170   17.8519  -13.5867 C   0  0  0  0  0  0  0  0  0  0  0  0
  -31.5946   18.6905  -14.5550 N   0  0  0  0  0  0  0  0  0  0  0  0
  1  2  2  0  0  0  0
  1  6  1  0  0  0  0
  2  3  1  0  0  0  0
  3  4  2  0  0  0  0
  4  5  1  0  0  0  0
  4 10  1  0  0  0  0
  5  6  2  0  0  0  0
  5  8  1  0  0  0  0
  6  7  1  0  0  0  0
  8  9  1  0  0  0  0
  9 10  2  0  0  0  0
M  END
>  <CHROM.1>
-30.18424607,17.66198496,-15.80592665,0.72750221,0.77657022,-1.23204304

>  <Name>
ligand

>  <RI>
0

>  <Rbt.Current_Directory>
/home/itssahil/PROJECTS/Mol_Feturizer/New_Systems/rnas/4TZY

>  <Rbt.Executable>
rbdock ($Id: //depot/dev/client3/rdock/2013.1/src/exe/rbdock.cxx#4 $)

>  <Rbt.Library>
libRbt.so (2013.1, Build901 2013/11/27)

>  <Rbt.Parameter_File>
/export/apps/rDock/src/rDock_2013.1_src/data/scripts/dock_solv.prm

>  <Rbt.Receptor>
prm/pocket_docking_5.prm

>  <SCORE>
-13.7321

>  <SCORE.INTER>
-13.7321

>  <SCORE.INTER.CONST>
1

>  <SCORE.INTER.POLAR>
0

>  <SCORE.INTER.ROT>
0

>  <SCORE.INTER.SOLV>
7.24873

>  <SCORE.INTER.VDW>
-15.171

>  <SCORE.INTER.norm>
-1.37321

>  <SCORE.INTRA>
0

>  <SCORE.INTRA.DIHEDRAL>
0

>  <SCORE.INTRA.DIHEDRAL.0>
0

>  <SCORE.INTRA.POLAR>
0

>  <SCORE.INTRA.POLAR.0>
0

>  <SCORE.INTRA.REPUL>
0

>  <SCORE.INTRA.REPUL.0>
0

>  <SCORE.INTRA.SOLV>
0

>  <SCORE.INTRA.SOLV.lig_0>
-23.8941

>  <SCORE.INTRA.VDW>
0

>  <SCORE.INTRA.VDW.0>
0

>  <SCORE.INTRA.norm>
0

>  <SCORE.RESTR>
0

>  <SCORE.RESTR.CAVITY>
0

>  <SCORE.RESTR.norm>
0

>  <SCORE.SYSTEM>
0

>  <SCORE.SYSTEM.CONST>
0

>  <SCORE.SYSTEM.DIHEDRAL>
0

>  <SCORE.SYSTEM.SOLV>
0

>  <SCORE.SYSTEM.norm>
0

>  <SCORE.heavy>
10

>  <SCORE.norm>
-1.37321

>  <RMSD>
2.868

$$$$
ligand
 OpenBabel11021811513D
libRbt.so/2013.1/901 2013/11/27
 10 11  0  0  0  0  0  0  0  0999 V2000
  -29.3664   17.4165  -17.6101 N   0  0  0  0  0  0  0  0  0  0  0  0
  -30.2917   18.3654  -17.7995 C   0  0  0  0  0  0  0  0  0  0  0  0
  -31.1442   18.8907  -16.9213 N   0  0  0  0  0  0  0  0  0  0  0  0
  -30.9843   18.3349  -15.7102 C   0  0  0  0  0  0  0  0  0  0  0  0
  -30.0799   17.3508  -15.3621 C   0  0  0  0  0  0  0  0  0  0  0  0
  -29.2299   16.8773  -16.3815 C   0  0  0  0  0  0  0  0  0  0  0  0
  -28.3068   15.9287  -16.1892 N   0  0  0  0  0  0  0  0  0  0  0  0
  -30.2016   17.0231  -14.0223 N   0  0  0  0  0  0  0  0  0  0  0  0
  -31.1657   17.8045  -13.5944 C   0  0  0  0  0  0  0  0  0  0  0  0
  -31.6838   18.6220  -14.5599 N   0  0  0  0  0  0  0  0  0  0  0  0
  1  2  2  0  0  0  0
  1  6  1  0  0  0  0
  2  3  1  0  0  0  0
  3  4  2  0  0  0  0
  4  5  1  0  0  0  0
  4 10  1  0  0  0  0
  5  6  2  0  0  0  0
  5  8  1  0  0  0  0
  6  7  1  0  0  0  0
  8  9  1  0  0  0  0
  9 10  2  0  0  0  0
M  END
>  <CHROM.1>
-30.23737255,17.65485398,-15.81852237,0.75343725,0.73781178,-1.24965914

>  <Name>
ligand

>  <RI>
0

>  <Rbt.Current_Directory>
/home/itssahil/PROJECTS/Mol_Feturizer/New_Systems/rnas/4TZY

>  <Rbt.Executable>
rbdock ($Id: //depot/dev/client3/rdock/2013.1/src/exe/rbdock.cxx#4 $)

>  <Rbt.Library>
libRbt.so (2013.1, Build901 2013/11/27)

>  <Rbt.Parameter_File>
/export/apps/rDock/src/rDock_2013.1_src/data/scripts/dock_solv.prm

>  <Rbt.Receptor>
prm/blind_docking_60.prm

>  <SCORE>
-13.7067

>  <SCORE.INTER>
-13.7067

>  <SCORE.INTER.CONST>
1

>  <SCORE.INTER.POLAR>
0

>  <SCORE.INTER.ROT>
0

>  <SCORE.INTER.SOLV>
7.2145

>  <SCORE.INTER.VDW>
-15.1426

>  <SCORE.INTER.norm>
-1.37067

>  <SCORE.INTRA>
0

>  <SCORE.INTRA.DIHEDRAL>
0

>  <SCORE.INTRA.DIHEDRAL.0>
0

>  <SCORE.INTRA.POLAR>
0

>  <SCORE.INTRA.POLAR.0>
0

>  <SCORE.INTRA.REPUL>
0

>  <SCORE.INTRA.REPUL.0>
0

>  <SCORE.INTRA.SOLV>
0

>  <SCORE.INTRA.SOLV.lig_0>
-23.8941

>  <SCORE.INTRA.VDW>
0

>  <SCORE.INTRA.VDW.0>
0

>  <SCORE.INTRA.norm>
0

>  <SCORE.RESTR>
0

>  <SCORE.RESTR.CAVITY>
0

>  <SCORE.RESTR.norm>
0

>  <SCORE.SYSTEM>
0

>  <SCORE.SYSTEM.CONST>
0

>  <SCORE.SYSTEM.DIHEDRAL>
0

>  <SCORE.SYSTEM.SOLV>
0

>  <SCORE.SYSTEM.norm>
0

>  <SCORE.heavy>
10

>  <SCORE.norm>
-1.37067

>  <RMSD>
2.871

$$$$
ligand
 OpenBabel11021811513D
libRbt.so/2013.1/901 2013/11/27
 10 11  0  0  0  0  0  0  0  0999 V2000
  -29.2112   17.0527  -17.3744 N   0  0  0  0  0  0  0  0  0  0  0  0
  -30.1252   17.9761  -17.6975 C   0  0  0  0  0  0  0  0  0  0  0  0
  -31.0016   18.5980  -16.9107 N   0  0  0  0  0  0  0  0  0  0  0  0
  -30.8821   18.1809  -15.6406 C   0  0  0  0  0  0  0  0  0  0  0  0
  -29.9941   17.2403  -15.1566 C   0  0  0  0  0  0  0  0  0  0  0  0
  -29.1156   16.6541  -16.0895 C   0  0  0  0  0  0  0  0  0  0  0  0
  -28.2039   15.7314  -15.7636 N   0  0  0  0  0  0  0  0  0  0  0  0
  -30.1588   17.0649  -13.7930 N   0  0  0  0  0  0  0  0  0  0  0  0
  -31.1315   17.8910  -13.4855 C   0  0  0  0  0  0  0  0  0  0  0  0
  -31.6152   18.5962  -14.5521 N   0  0  0  0  0  0  0  0  0  0  0  0
  1  2  2  0  0  0  0
  1  6  1  0  0  0  0
  2  3  1  0  0  0  0
  3  4  2  0  0  0  0
  4  5  1  0  0  0  0
  4 10  1  0  0  0  0
  5  6  2  0  0  0  0
  5  8  1  0  0  0  0
  6  7  1  0  0  0  0
  8  9  1  0  0  0  0
  9 10  2  0  0  0  0
M  END
>  <CHROM.1>
-30.13579317,17.49166922,-15.64881564,0.71177837,0.73267949,-1.33385744

>  <Name>
ligand

>  <RI>
0

>  <Rbt.Current_Directory>
/home/itssahil/PROJECTS/Mol_Feturizer/New_Systems/rnas/4TZY

>  <Rbt.Executable>
rbdock ($Id: //depot/dev/client3/rdock/2013.1/src/exe/rbdock.cxx#4 $)

>  <Rbt.Library>
libRbt.so (2013.1, Build901 2013/11/27)

>  <Rbt.Parameter_File>
/export/apps/rDock/src/rDock_2013.1_src/data/scripts/dock_solv.prm

>  <Rbt.Receptor>
prm/blind_docking_40.prm

>  <SCORE>
-12.7272

>  <SCORE.INTER>
-12.8177

>  <SCORE.INTER.CONST>
1

>  <SCORE.INTER.POLAR>
0

>  <SCORE.INTER.ROT>
0

>  <SCORE.INTER.SOLV>
7.02888

>  <SCORE.INTER.VDW>
-14.4881

>  <SCORE.INTER.norm>
-1.28177

>  <SCORE.INTRA>
0

>  <SCORE.INTRA.DIHEDRAL>
0

>  <SCORE.INTRA.DIHEDRAL.0>
0

>  <SCORE.INTRA.POLAR>
0

>  <SCORE.INTRA.POLAR.0>
0

>  <SCORE.INTRA.REPUL>
0

>  <SCORE.INTRA.REPUL.0>
0

>  <SCORE.INTRA.SOLV>
0

>  <SCORE.INTRA.SOLV.lig_0>
-23.8941

>  <SCORE.INTRA.VDW>
0

>  <SCORE.INTRA.VDW.0>
0

>  <SCORE.INTRA.norm>
0

>  <SCORE.RESTR>
0.0904547

>  <SCORE.RESTR.CAVITY>
0.0904547

>  <SCORE.RESTR.norm>
0.00904547

>  <SCORE.SYSTEM>
0

>  <SCORE.SYSTEM.CONST>
0

>  <SCORE.SYSTEM.DIHEDRAL>
0

>  <SCORE.SYSTEM.SOLV>
0

>  <SCORE.SYSTEM.norm>
0

>  <SCORE.heavy>
10

>  <SCORE.norm>
-1.27272

>  <RMSD>
2.872

$$$$
ligand
 OpenBabel11021811513D
libRbt.so/2013.1/901 2013/11/27
 10 11  0  0  0  0  0  0  0  0999 V2000
  -29.3874   17.3826  -17.5952 N   0  0  0  0  0  0  0  0  0  0  0  0
  -30.3079   18.3373  -17.7780 C   0  0  0  0  0  0  0  0  0  0  0  0
  -31.1477   18.8713  -16.8928 N   0  0  0  0  0  0  0  0  0  0  0  0
  -30.9792   18.3181  -15.6817 C   0  0  0  0  0  0  0  0  0  0  0  0
  -30.0782   17.3287  -15.3398 C   0  0  0  0  0  0  0  0  0  0  0  0
  -29.2421   16.8462  -16.3664 C   0  0  0  0  0  0  0  0  0  0  0  0
  -28.3236   15.8917  -16.1806 N   0  0  0  0  0  0  0  0  0  0  0  0
  -30.1884   17.0059  -13.9978 N   0  0  0  0  0  0  0  0  0  0  0  0
  -31.1426   17.7954  -13.5625 C   0  0  0  0  0  0  0  0  0  0  0  0
  -31.6649   18.6135  -14.5252 N   0  0  0  0  0  0  0  0  0  0  0  0
  1  2  2  0  0  0  0
  1  6  1  0  0  0  0
  2  3  1  0  0  0  0
  3  4  2  0  0  0  0
  4  5  1  0  0  0  0
  4 10  1  0  0  0  0
  5  6  2  0  0  0  0
  5  8  1  0  0  0  0
  6  7  1  0  0  0  0
  8  9  1  0  0  0  0
  9 10  2  0  0  0  0
M  END
>  <CHROM.1>
-30.23824185,17.63247521,-15.79553307,0.76371071,0.74765407,-1.25967738

>  <Name>
ligand

>  <RI>
0

>  <Rbt.Current_Directory>
/home/itssahil/PROJECTS/Mol_Feturizer/New_Systems/rnas/4TZY

>  <Rbt.Executable>
rbdock ($Id: //depot/dev/client3/rdock/2013.1/src/exe/rbdock.cxx#4 $)

>  <Rbt.Library>
libRbt.so (2013.1, Build901 2013/11/27)

>  <Rbt.Parameter_File>
/export/apps/rDock/src/rDock_2013.1_src/data/scripts/dock_solv.prm

>  <Rbt.Receptor>
prm/blind_docking_80.prm

>  <SCORE>
-13.7096

>  <SCORE.INTER>
-13.7096

>  <SCORE.INTER.CONST>
1

>  <SCORE.INTER.POLAR>
0

>  <SCORE.INTER.ROT>
0

>  <SCORE.INTER.SOLV>
7.21581

>  <SCORE.INTER.VDW>
-15.145

>  <SCORE.INTER.norm>
-1.37096

>  <SCORE.INTRA>
0

>  <SCORE.INTRA.DIHEDRAL>
0

>  <SCORE.INTRA.DIHEDRAL.0>
0

>  <SCORE.INTRA.POLAR>
0

>  <SCORE.INTRA.POLAR.0>
0

>  <SCORE.INTRA.REPUL>
0

>  <SCORE.INTRA.REPUL.0>
0

>  <SCORE.INTRA.SOLV>
0

>  <SCORE.INTRA.SOLV.lig_0>
-23.8941

>  <SCORE.INTRA.VDW>
0

>  <SCORE.INTRA.VDW.0>
0

>  <SCORE.INTRA.norm>
0

>  <SCORE.RESTR>
0

>  <SCORE.RESTR.CAVITY>
0

>  <SCORE.RESTR.norm>
0

>  <SCORE.SYSTEM>
0

>  <SCORE.SYSTEM.CONST>
0

>  <SCORE.SYSTEM.DIHEDRAL>
0

>  <SCORE.SYSTEM.SOLV>
0

>  <SCORE.SYSTEM.norm>
0

>  <SCORE.heavy>
10

>  <SCORE.norm>
-1.37096

>  <RMSD>
2.873

$$$$
ligand
 OpenBabel11021811513D
libRbt.so/2013.1/901 2013/11/27
 10 11  0  0  0  0  0  0  0  0999 V2000
  -29.3891   17.4386  -17.6072 N   0  0  0  0  0  0  0  0  0  0  0  0
  -30.3322   18.3714  -17.7880 C   0  0  0  0  0  0  0  0  0  0  0  0
  -31.1896   18.8777  -16.9033 N   0  0  0  0  0  0  0  0  0  0  0  0
  -31.0136   18.3198  -15.6954 C   0  0  0  0  0  0  0  0  0  0  0  0
  -30.0898   17.3507  -15.3560 C   0  0  0  0  0  0  0  0  0  0  0  0
  -29.2367   16.8968  -16.3816 C   0  0  0  0  0  0  0  0  0  0  0  0
  -28.2957   15.9642  -16.1979 N   0  0  0  0  0  0  0  0  0  0  0  0
  -30.1989   17.0153  -14.0170 N   0  0  0  0  0  0  0  0  0  0  0  0
  -31.1747   17.7774  -13.5810 C   0  0  0  0  0  0  0  0  0  0  0  0
  -31.7123   18.5894  -14.5404 N   0  0  0  0  0  0  0  0  0  0  0  0
  1  2  2  0  0  0  0
  1  6  1  0  0  0  0
  2  3  1  0  0  0  0
  3  4  2  0  0  0  0
  4  5  1  0  0  0  0
  4 10  1  0  0  0  0
  5  6  2  0  0  0  0
  5  8  1  0  0  0  0
  6  7  1  0  0  0  0
  8  9  1  0  0  0  0
  9 10  2  0  0  0  0
M  END
>  <CHROM.1>
-30.25511742,17.65376569,-15.81032105,0.76740274,0.72228357,-1.25477775

>  <Name>
ligand

>  <RI>
0

>  <Rbt.Current_Directory>
/home/itssahil/PROJECTS/Mol_Feturizer/New_Systems/rnas/4TZY

>  <Rbt.Executable>
rbdock ($Id: //depot/dev/client3/rdock/2013.1/src/exe/rbdock.cxx#4 $)

>  <Rbt.Library>
libRbt.so (2013.1, Build901 2013/11/27)

>  <Rbt.Parameter_File>
/export/apps/rDock/src/rDock_2013.1_src/data/scripts/dock_solv.prm

>  <Rbt.Receptor>
prm/pocket_docking_8.prm

>  <SCORE>
-13.6966

>  <SCORE.INTER>
-13.6966

>  <SCORE.INTER.CONST>
1

>  <SCORE.INTER.POLAR>
0

>  <SCORE.INTER.ROT>
0

>  <SCORE.INTER.SOLV>
7.25684

>  <SCORE.INTER.VDW>
-15.15

>  <SCORE.INTER.norm>
-1.36966

>  <SCORE.INTRA>
0

>  <SCORE.INTRA.DIHEDRAL>
0

>  <SCORE.INTRA.DIHEDRAL.0>
0

>  <SCORE.INTRA.POLAR>
0

>  <SCORE.INTRA.POLAR.0>
0

>  <SCORE.INTRA.REPUL>
0

>  <SCORE.INTRA.REPUL.0>
0

>  <SCORE.INTRA.SOLV>
0

>  <SCORE.INTRA.SOLV.lig_0>
-23.8941

>  <SCORE.INTRA.VDW>
0

>  <SCORE.INTRA.VDW.0>
0

>  <SCORE.INTRA.norm>
0

>  <SCORE.RESTR>
0

>  <SCORE.RESTR.CAVITY>
0

>  <SCORE.RESTR.norm>
0

>  <SCORE.SYSTEM>
0

>  <SCORE.SYSTEM.CONST>
0

>  <SCORE.SYSTEM.DIHEDRAL>
0

>  <SCORE.SYSTEM.SOLV>
0

>  <SCORE.SYSTEM.norm>
0

>  <SCORE.heavy>
10

>  <SCORE.norm>
-1.36966

>  <RMSD>
2.876

$$$$
ligand
 OpenBabel11021811513D
libRbt.so/2013.1/901 2013/11/27
 10 11  0  0  0  0  0  0  0  0999 V2000
  -29.1854   17.0738  -17.3148 N   0  0  0  0  0  0  0  0  0  0  0  0
  -30.1154   17.9778  -17.6470 C   0  0  0  0  0  0  0  0  0  0  0  0
  -30.9956   18.5998  -16.8645 N   0  0  0  0  0  0  0  0  0  0  0  0
  -30.8612   18.2061  -15.5884 C   0  0  0  0  0  0  0  0  0  0  0  0
  -29.9558   17.2873  -15.0949 C   0  0  0  0  0  0  0  0  0  0  0  0
  -29.0751   16.6985  -16.0241 C   0  0  0  0  0  0  0  0  0  0  0  0
  -28.1473   15.7952  -15.6891 N   0  0  0  0  0  0  0  0  0  0  0  0
  -30.1086   17.1325  -13.7275 N   0  0  0  0  0  0  0  0  0  0  0  0
  -31.0914   17.9492  -13.4270 C   0  0  0  0  0  0  0  0  0  0  0  0
  -31.5930   18.6289  -14.5019 N   0  0  0  0  0  0  0  0  0  0  0  0
  1  2  2  0  0  0  0
  1  6  1  0  0  0  0
  2  3  1  0  0  0  0
  3  4  2  0  0  0  0
  4  5  1  0  0  0  0
  4 10  1  0  0  0  0
  5  6  2  0  0  0  0
  5  8  1  0  0  0  0
  6  7  1  0  0  0  0
  8  9  1  0  0  0  0
  9 10  2  0  0  0  0
M  END
>  <CHROM.1>
-30.10467562,17.52808782,-15.59033309,0.72532784,0.71960740,-1.35975562

>  <Name>
ligand

>  <RI>
0

>  <Rbt.Current_Directory>
/home/itssahil/PROJECTS/Mol_Feturizer/New_Systems/rnas/4TZY

>  <Rbt.Executable>
rbdock ($Id: //depot/dev/client3/rdock/2013.1/src/exe/rbdock.cxx#4 $)

>  <Rbt.Library>
libRbt.so (2013.1, Build901 2013/11/27)

>  <Rbt.Parameter_File>
/export/apps/rDock/src/rDock_2013.1_src/data/scripts/dock_solv.prm

>  <Rbt.Receptor>
prm/blind_docking_40.prm

>  <SCORE>
-12.5702

>  <SCORE.INTER>
-12.6122

>  <SCORE.INTER.CONST>
1

>  <SCORE.INTER.POLAR>
0

>  <SCORE.INTER.ROT>
0

>  <SCORE.INTER.SOLV>
7.02027

>  <SCORE.INTER.VDW>
-14.3482

>  <SCORE.INTER.norm>
-1.26122

>  <SCORE.INTRA>
0

>  <SCORE.INTRA.DIHEDRAL>
0

>  <SCORE.INTRA.DIHEDRAL.0>
0

>  <SCORE.INTRA.POLAR>
0

>  <SCORE.INTRA.POLAR.0>
0

>  <SCORE.INTRA.REPUL>
0

>  <SCORE.INTRA.REPUL.0>
0

>  <SCORE.INTRA.SOLV>
0

>  <SCORE.INTRA.SOLV.lig_0>
-23.8941

>  <SCORE.INTRA.VDW>
0

>  <SCORE.INTRA.VDW.0>
0

>  <SCORE.INTRA.norm>
0

>  <SCORE.RESTR>
0.0419324

>  <SCORE.RESTR.CAVITY>
0.0419324

>  <SCORE.RESTR.norm>
0.00419324

>  <SCORE.SYSTEM>
0

>  <SCORE.SYSTEM.CONST>
0

>  <SCORE.SYSTEM.DIHEDRAL>
0

>  <SCORE.SYSTEM.SOLV>
0

>  <SCORE.SYSTEM.norm>
0

>  <SCORE.heavy>
10

>  <SCORE.norm>
-1.25702

>  <RMSD>
2.885

$$$$
ligand
 OpenBabel11021811513D
libRbt.so/2013.1/901 2013/11/27
 10 11  0  0  0  0  0  0  0  0999 V2000
  -31.5460   18.7844  -15.8045 N   0  0  0  0  0  0  0  0  0  0  0  0
  -31.5048   18.2853  -14.5629 C   0  0  0  0  0  0  0  0  0  0  0  0
  -30.8511   17.2162  -14.1116 N   0  0  0  0  0  0  0  0  0  0  0  0
  -30.1699   16.6201  -15.1025 C   0  0  0  0  0  0  0  0  0  0  0  0
  -30.1164   17.0132  -16.4255 C   0  0  0  0  0  0  0  0  0  0  0  0
  -30.8508   18.1628  -16.7787 C   0  0  0  0  0  0  0  0  0  0  0  0
  -30.8904   18.6587  -18.0203 N   0  0  0  0  0  0  0  0  0  0  0  0
  -29.3131   16.1576  -17.1603 N   0  0  0  0  0  0  0  0  0  0  0  0
  -28.9045   15.2756  -16.2780 C   0  0  0  0  0  0  0  0  0  0  0  0
  -29.3832   15.4938  -15.0162 N   0  0  0  0  0  0  0  0  0  0  0  0
  1  2  2  0  0  0  0
  1  6  1  0  0  0  0
  2  3  1  0  0  0  0
  3  4  2  0  0  0  0
  4  5  1  0  0  0  0
  4 10  1  0  0  0  0
  5  6  2  0  0  0  0
  5  8  1  0  0  0  0
  6  7  1  0  0  0  0
  8  9  1  0  0  0  0
  9 10  2  0  0  0  0
M  END
>  <CHROM.1>
-30.35637512,17.17409464,-15.93345150,2.74161901,0.91943145,-1.22960630

>  <Name>
ligand

>  <RI>
0

>  <Rbt.Current_Directory>
/home/itssahil/PROJECTS/Mol_Feturizer/New_Systems/rnas/4TZY

>  <Rbt.Executable>
rbdock ($Id: //depot/dev/client3/rdock/2013.1/src/exe/rbdock.cxx#4 $)

>  <Rbt.Library>
libRbt.so (2013.1, Build901 2013/11/27)

>  <Rbt.Parameter_File>
/export/apps/rDock/src/rDock_2013.1_src/data/scripts/dock_solv.prm

>  <Rbt.Receptor>
prm/pocket_docking_7.prm

>  <SCORE>
-12.0368

>  <SCORE.INTER>
-12.0368

>  <SCORE.INTER.CONST>
1

>  <SCORE.INTER.POLAR>
0

>  <SCORE.INTER.ROT>
0

>  <SCORE.INTER.SOLV>
9.31273

>  <SCORE.INTER.VDW>
-14.7288

>  <SCORE.INTER.norm>
-1.20368

>  <SCORE.INTRA>
0

>  <SCORE.INTRA.DIHEDRAL>
0

>  <SCORE.INTRA.DIHEDRAL.0>
0

>  <SCORE.INTRA.POLAR>
0

>  <SCORE.INTRA.POLAR.0>
0

>  <SCORE.INTRA.REPUL>
0

>  <SCORE.INTRA.REPUL.0>
0

>  <SCORE.INTRA.SOLV>
0

>  <SCORE.INTRA.SOLV.lig_0>
-23.8941

>  <SCORE.INTRA.VDW>
0

>  <SCORE.INTRA.VDW.0>
0

>  <SCORE.INTRA.norm>
0

>  <SCORE.RESTR>
0

>  <SCORE.RESTR.CAVITY>
0

>  <SCORE.RESTR.norm>
0

>  <SCORE.SYSTEM>
0

>  <SCORE.SYSTEM.CONST>
0

>  <SCORE.SYSTEM.DIHEDRAL>
0

>  <SCORE.SYSTEM.SOLV>
0

>  <SCORE.SYSTEM.norm>
0

>  <SCORE.heavy>
10

>  <SCORE.norm>
-1.20368

>  <RMSD>
2.885

$$$$
ligand
 OpenBabel11021811513D
libRbt.so/2013.1/901 2013/11/27
 10 11  0  0  0  0  0  0  0  0999 V2000
  -31.4996   18.8165  -15.8041 N   0  0  0  0  0  0  0  0  0  0  0  0
  -31.4405   18.3418  -14.5537 C   0  0  0  0  0  0  0  0  0  0  0  0
  -30.7908   17.2740  -14.0934 N   0  0  0  0  0  0  0  0  0  0  0  0
  -30.1357   16.6502  -15.0848 C   0  0  0  0  0  0  0  0  0  0  0  0
  -30.1030   17.0161  -16.4162 C   0  0  0  0  0  0  0  0  0  0  0  0
  -30.8304   18.1673  -16.7785 C   0  0  0  0  0  0  0  0  0  0  0  0
  -30.8880   18.6388  -18.0289 N   0  0  0  0  0  0  0  0  0  0  0  0
  -29.3239   16.1364  -17.1486 N   0  0  0  0  0  0  0  0  0  0  0  0
  -28.9088   15.2674  -16.2566 C   0  0  0  0  0  0  0  0  0  0  0  0
  -29.3607   15.5164  -14.9907 N   0  0  0  0  0  0  0  0  0  0  0  0
  1  2  2  0  0  0  0
  1  6  1  0  0  0  0
  2  3  1  0  0  0  0
  3  4  2  0  0  0  0
  4  5  1  0  0  0  0
  4 10  1  0  0  0  0
  5  6  2  0  0  0  0
  5  8  1  0  0  0  0
  6  7  1  0  0  0  0
  8  9  1  0  0  0  0
  9 10  2  0  0  0  0
M  END
>  <CHROM.1>
-30.33155738,17.18968560,-15.92302756,2.76545253,0.93670473,-1.26871309

>  <Name>
ligand

>  <RI>
0

>  <Rbt.Current_Directory>
/home/itssahil/PROJECTS/Mol_Feturizer/New_Systems/rnas/4TZY

>  <Rbt.Executable>
rbdock ($Id: //depot/dev/client3/rdock/2013.1/src/exe/rbdock.cxx#4 $)

>  <Rbt.Library>
libRbt.so (2013.1, Build901 2013/11/27)

>  <Rbt.Parameter_File>
/export/apps/rDock/src/rDock_2013.1_src/data/scripts/dock_solv.prm

>  <Rbt.Receptor>
prm/blind_docking_100.prm

>  <SCORE>
-12.0102

>  <SCORE.INTER>
-12.0102

>  <SCORE.INTER.CONST>
1

>  <SCORE.INTER.POLAR>
0

>  <SCORE.INTER.ROT>
0

>  <SCORE.INTER.SOLV>
9.25004

>  <SCORE.INTER.VDW>
-14.6902

>  <SCORE.INTER.norm>
-1.20102

>  <SCORE.INTRA>
0

>  <SCORE.INTRA.DIHEDRAL>
0

>  <SCORE.INTRA.DIHEDRAL.0>
0

>  <SCORE.INTRA.POLAR>
0

>  <SCORE.INTRA.POLAR.0>
0

>  <SCORE.INTRA.REPUL>
0

>  <SCORE.INTRA.REPUL.0>
0

>  <SCORE.INTRA.SOLV>
0

>  <SCORE.INTRA.SOLV.lig_0>
-23.8941

>  <SCORE.INTRA.VDW>
0

>  <SCORE.INTRA.VDW.0>
0

>  <SCORE.INTRA.norm>
0

>  <SCORE.RESTR>
0

>  <SCORE.RESTR.CAVITY>
0

>  <SCORE.RESTR.norm>
0

>  <SCORE.SYSTEM>
0

>  <SCORE.SYSTEM.CONST>
0

>  <SCORE.SYSTEM.DIHEDRAL>
0

>  <SCORE.SYSTEM.SOLV>
0

>  <SCORE.SYSTEM.norm>
0

>  <SCORE.heavy>
10

>  <SCORE.norm>
-1.20102

>  <RMSD>
2.886

$$$$
ligand
 OpenBabel11021811513D
libRbt.so/2013.1/901 2013/11/27
 10 11  0  0  0  0  0  0  0  0999 V2000
  -31.5023   18.8212  -15.8069 N   0  0  0  0  0  0  0  0  0  0  0  0
  -31.4423   18.3498  -14.5552 C   0  0  0  0  0  0  0  0  0  0  0  0
  -30.7930   17.2828  -14.0926 N   0  0  0  0  0  0  0  0  0  0  0  0
  -30.1392   16.6559  -15.0830 C   0  0  0  0  0  0  0  0  0  0  0  0
  -30.1074   17.0182  -16.4154 C   0  0  0  0  0  0  0  0  0  0  0  0
  -30.8344   18.1689  -16.7801 C   0  0  0  0  0  0  0  0  0  0  0  0
  -30.8928   18.6371  -18.0317 N   0  0  0  0  0  0  0  0  0  0  0  0
  -29.3295   16.1360  -17.1461 N   0  0  0  0  0  0  0  0  0  0  0  0
  -28.9142   15.2691  -16.2521 C   0  0  0  0  0  0  0  0  0  0  0  0
  -29.3649   15.5219  -14.9865 N   0  0  0  0  0  0  0  0  0  0  0  0
  1  2  2  0  0  0  0
  1  6  1  0  0  0  0
  2  3  1  0  0  0  0
  3  4  2  0  0  0  0
  4  5  1  0  0  0  0
  4 10  1  0  0  0  0
  5  6  2  0  0  0  0
  5  8  1  0  0  0  0
  6  7  1  0  0  0  0
  8  9  1  0  0  0  0
  9 10  2  0  0  0  0
M  END
>  <CHROM.1>
-30.33543061,17.19327855,-15.92246243,2.76656500,0.93760822,-1.27230411

>  <Name>
ligand

>  <RI>
0

>  <Rbt.Current_Directory>
/home/itssahil/PROJECTS/Mol_Feturizer/New_Systems/rnas/4TZY

>  <Rbt.Executable>
rbdock ($Id: //depot/dev/client3/rdock/2013.1/src/exe/rbdock.cxx#4 $)

>  <Rbt.Library>
libRbt.so (2013.1, Build901 2013/11/27)

>  <Rbt.Parameter_File>
/export/apps/rDock/src/rDock_2013.1_src/data/scripts/dock_solv.prm

>  <Rbt.Receptor>
prm/blind_docking_100.prm

>  <SCORE>
-12.0073

>  <SCORE.INTER>
-12.0073

>  <SCORE.INTER.CONST>
1

>  <SCORE.INTER.POLAR>
0

>  <SCORE.INTER.ROT>
0

>  <SCORE.INTER.SOLV>
9.24677

>  <SCORE.INTER.VDW>
-14.6871

>  <SCORE.INTER.norm>
-1.20073

>  <SCORE.INTRA>
0

>  <SCORE.INTRA.DIHEDRAL>
0

>  <SCORE.INTRA.DIHEDRAL.0>
0

>  <SCORE.INTRA.POLAR>
0

>  <SCORE.INTRA.POLAR.0>
0

>  <SCORE.INTRA.REPUL>
0

>  <SCORE.INTRA.REPUL.0>
0

>  <SCORE.INTRA.SOLV>
0

>  <SCORE.INTRA.SOLV.lig_0>
-23.8941

>  <SCORE.INTRA.VDW>
0

>  <SCORE.INTRA.VDW.0>
0

>  <SCORE.INTRA.norm>
0

>  <SCORE.RESTR>
0

>  <SCORE.RESTR.CAVITY>
0

>  <SCORE.RESTR.norm>
0

>  <SCORE.SYSTEM>
0

>  <SCORE.SYSTEM.CONST>
0

>  <SCORE.SYSTEM.DIHEDRAL>
0

>  <SCORE.SYSTEM.SOLV>
0

>  <SCORE.SYSTEM.norm>
0

>  <SCORE.heavy>
10

>  <SCORE.norm>
-1.20073

>  <RMSD>
2.886

$$$$
ligand
 OpenBabel11021811513D
libRbt.so/2013.1/901 2013/11/27
 10 11  0  0  0  0  0  0  0  0999 V2000
  -31.5147   18.7883  -15.7940 N   0  0  0  0  0  0  0  0  0  0  0  0
  -31.4620   18.2950  -14.5505 C   0  0  0  0  0  0  0  0  0  0  0  0
  -30.8147   17.2205  -14.1027 N   0  0  0  0  0  0  0  0  0  0  0  0
  -30.1543   16.6116  -15.0999 C   0  0  0  0  0  0  0  0  0  0  0  0
  -30.1145   16.9973  -16.4255 C   0  0  0  0  0  0  0  0  0  0  0  0
  -30.8403   18.1537  -16.7745 C   0  0  0  0  0  0  0  0  0  0  0  0
  -30.8913   18.6437  -18.0180 N   0  0  0  0  0  0  0  0  0  0  0  0
  -29.3315   16.1286  -17.1668 N   0  0  0  0  0  0  0  0  0  0  0  0
  -28.9210   15.2464  -16.2856 C   0  0  0  0  0  0  0  0  0  0  0  0
  -29.3796   15.4766  -15.0185 N   0  0  0  0  0  0  0  0  0  0  0  0
  1  2  2  0  0  0  0
  1  6  1  0  0  0  0
  2  3  1  0  0  0  0
  3  4  2  0  0  0  0
  4  5  1  0  0  0  0
  4 10  1  0  0  0  0
  5  6  2  0  0  0  0
  5  8  1  0  0  0  0
  6  7  1  0  0  0  0
  8  9  1  0  0  0  0
  9 10  2  0  0  0  0
M  END
>  <CHROM.1>
-30.34577092,17.16346911,-15.93099053,2.75703015,0.93500030,-1.24705710

>  <Name>
ligand

>  <RI>
0

>  <Rbt.Current_Directory>
/home/itssahil/PROJECTS/Mol_Feturizer/New_Systems/rnas/4TZY

>  <Rbt.Executable>
rbdock ($Id: //depot/dev/client3/rdock/2013.1/src/exe/rbdock.cxx#4 $)

>  <Rbt.Library>
libRbt.so (2013.1, Build901 2013/11/27)

>  <Rbt.Parameter_File>
/export/apps/rDock/src/rDock_2013.1_src/data/scripts/dock_solv.prm

>  <Rbt.Receptor>
prm/blind_docking_100.prm

>  <SCORE>
-12.0172

>  <SCORE.INTER>
-12.0172

>  <SCORE.INTER.CONST>
1

>  <SCORE.INTER.POLAR>
0

>  <SCORE.INTER.ROT>
0

>  <SCORE.INTER.SOLV>
9.27723

>  <SCORE.INTER.VDW>
-14.7039

>  <SCORE.INTER.norm>
-1.20172

>  <SCORE.INTRA>
0

>  <SCORE.INTRA.DIHEDRAL>
0

>  <SCORE.INTRA.DIHEDRAL.0>
0

>  <SCORE.INTRA.POLAR>
0

>  <SCORE.INTRA.POLAR.0>
0

>  <SCORE.INTRA.REPUL>
0

>  <SCORE.INTRA.REPUL.0>
0

>  <SCORE.INTRA.SOLV>
0

>  <SCORE.INTRA.SOLV.lig_0>
-23.8941

>  <SCORE.INTRA.VDW>
0

>  <SCORE.INTRA.VDW.0>
0

>  <SCORE.INTRA.norm>
0

>  <SCORE.RESTR>
0

>  <SCORE.RESTR.CAVITY>
0

>  <SCORE.RESTR.norm>
0

>  <SCORE.SYSTEM>
0

>  <SCORE.SYSTEM.CONST>
0

>  <SCORE.SYSTEM.DIHEDRAL>
0

>  <SCORE.SYSTEM.SOLV>
0

>  <SCORE.SYSTEM.norm>
0

>  <SCORE.heavy>
10

>  <SCORE.norm>
-1.20172

>  <RMSD>
2.886

$$$$
ligand
 OpenBabel11021811513D
libRbt.so/2013.1/901 2013/11/27
 10 11  0  0  0  0  0  0  0  0999 V2000
  -31.5395   18.7967  -15.8105 N   0  0  0  0  0  0  0  0  0  0  0  0
  -31.4922   18.3142  -14.5626 C   0  0  0  0  0  0  0  0  0  0  0  0
  -30.8400   17.2485  -14.1011 N   0  0  0  0  0  0  0  0  0  0  0  0
  -30.1677   16.6363  -15.0884 C   0  0  0  0  0  0  0  0  0  0  0  0
  -30.1212   17.0113  -16.4168 C   0  0  0  0  0  0  0  0  0  0  0  0
  -30.8531   18.1592  -16.7807 C   0  0  0  0  0  0  0  0  0  0  0  0
  -30.8989   18.6385  -18.0286 N   0  0  0  0  0  0  0  0  0  0  0  0
  -29.3262   16.1425  -17.1452 N   0  0  0  0  0  0  0  0  0  0  0  0
  -28.9155   15.2708  -16.2538 C   0  0  0  0  0  0  0  0  0  0  0  0
  -29.3851   15.5080  -14.9920 N   0  0  0  0  0  0  0  0  0  0  0  0
  1  2  2  0  0  0  0
  1  6  1  0  0  0  0
  2  3  1  0  0  0  0
  3  4  2  0  0  0  0
  4  5  1  0  0  0  0
  4 10  1  0  0  0  0
  5  6  2  0  0  0  0
  5  8  1  0  0  0  0
  6  7  1  0  0  0  0
  8  9  1  0  0  0  0
  9 10  2  0  0  0  0
M  END
>  <CHROM.1>
-30.35731209,17.17982627,-15.92542532,2.74956947,0.92546733,-1.24938966

>  <Name>
ligand

>  <RI>
0

>  <Rbt.Current_Directory>
/home/itssahil/PROJECTS/Mol_Feturizer/New_Systems/rnas/4TZY

>  <Rbt.Executable>
rbdock ($Id: //depot/dev/client3/rdock/2013.1/src/exe/rbdock.cxx#4 $)

>  <Rbt.Library>
libRbt.so (2013.1, Build901 2013/11/27)

>  <Rbt.Parameter_File>
/export/apps/rDock/src/rDock_2013.1_src/data/scripts/dock_solv.prm

>  <Rbt.Receptor>
prm/blind_docking_60.prm

>  <SCORE>
-12.0471

>  <SCORE.INTER>
-12.0471

>  <SCORE.INTER.CONST>
1

>  <SCORE.INTER.POLAR>
0

>  <SCORE.INTER.ROT>
0

>  <SCORE.INTER.SOLV>
9.25592

>  <SCORE.INTER.VDW>
-14.7167

>  <SCORE.INTER.norm>
-1.20471

>  <SCORE.INTRA>
0

>  <SCORE.INTRA.DIHEDRAL>
0

>  <SCORE.INTRA.DIHEDRAL.0>
0

>  <SCORE.INTRA.POLAR>
0

>  <SCORE.INTRA.POLAR.0>
0

>  <SCORE.INTRA.REPUL>
0

>  <SCORE.INTRA.REPUL.0>
0

>  <SCORE.INTRA.SOLV>
0

>  <SCORE.INTRA.SOLV.lig_0>
-23.8941

>  <SCORE.INTRA.VDW>
0

>  <SCORE.INTRA.VDW.0>
0

>  <SCORE.INTRA.norm>
0

>  <SCORE.RESTR>
0

>  <SCORE.RESTR.CAVITY>
0

>  <SCORE.RESTR.norm>
0

>  <SCORE.SYSTEM>
0

>  <SCORE.SYSTEM.CONST>
0

>  <SCORE.SYSTEM.DIHEDRAL>
0

>  <SCORE.SYSTEM.SOLV>
0

>  <SCORE.SYSTEM.norm>
0

>  <SCORE.heavy>
10

>  <SCORE.norm>
-1.20471

>  <RMSD>
2.887

$$$$
ligand
 OpenBabel11021811513D
libRbt.so/2013.1/901 2013/11/27
 10 11  0  0  0  0  0  0  0  0999 V2000
  -29.1897   17.0833  -17.3295 N   0  0  0  0  0  0  0  0  0  0  0  0
  -30.1295   17.9831  -17.6449 C   0  0  0  0  0  0  0  0  0  0  0  0
  -30.9996   18.5997  -16.8469 N   0  0  0  0  0  0  0  0  0  0  0  0
  -30.8418   18.2052  -15.5739 C   0  0  0  0  0  0  0  0  0  0  0  0
  -29.9238   17.2902  -15.0968 C   0  0  0  0  0  0  0  0  0  0  0  0
  -29.0558   16.7070  -16.0413 C   0  0  0  0  0  0  0  0  0  0  0  0
  -28.1182   15.8078  -15.7231 N   0  0  0  0  0  0  0  0  0  0  0  0
  -30.0529   17.1330  -13.7271 N   0  0  0  0  0  0  0  0  0  0  0  0
  -31.0346   17.9444  -13.4092 C   0  0  0  0  0  0  0  0  0  0  0  0
  -31.5575   18.6229  -14.4746 N   0  0  0  0  0  0  0  0  0  0  0  0
  1  2  2  0  0  0  0
  1  6  1  0  0  0  0
  2  3  1  0  0  0  0
  3  4  2  0  0  0  0
  4  5  1  0  0  0  0
  4 10  1  0  0  0  0
  5  6  2  0  0  0  0
  5  8  1  0  0  0  0
  6  7  1  0  0  0  0
  8  9  1  0  0  0  0
  9 10  2  0  0  0  0
M  END
>  <CHROM.1>
-30.08213907,17.53087427,-15.58931086,0.74843007,0.71815793,-1.37369750

>  <Name>
ligand

>  <RI>
0

>  <Rbt.Current_Directory>
/home/itssahil/PROJECTS/Mol_Feturizer/New_Systems/rnas/4TZY

>  <Rbt.Executable>
rbdock ($Id: //depot/dev/client3/rdock/2013.1/src/exe/rbdock.cxx#4 $)

>  <Rbt.Library>
libRbt.so (2013.1, Build901 2013/11/27)

>  <Rbt.Parameter_File>
/export/apps/rDock/src/rDock_2013.1_src/data/scripts/dock_solv.prm

>  <Rbt.Receptor>
prm/blind_docking_40.prm

>  <SCORE>
-12.5914

>  <SCORE.INTER>
-12.6326

>  <SCORE.INTER.CONST>
1

>  <SCORE.INTER.POLAR>
0

>  <SCORE.INTER.ROT>
0

>  <SCORE.INTER.SOLV>
6.96689

>  <SCORE.INTER.VDW>
-14.3441

>  <SCORE.INTER.norm>
-1.26326

>  <SCORE.INTRA>
0

>  <SCORE.INTRA.DIHEDRAL>
0

>  <SCORE.INTRA.DIHEDRAL.0>
0

>  <SCORE.INTRA.POLAR>
0

>  <SCORE.INTRA.POLAR.0>
0

>  <SCORE.INTRA.REPUL>
0

>  <SCORE.INTRA.REPUL.0>
0

>  <SCORE.INTRA.SOLV>
0

>  <SCORE.INTRA.SOLV.lig_0>
-23.8941

>  <SCORE.INTRA.VDW>
0

>  <SCORE.INTRA.VDW.0>
0

>  <SCORE.INTRA.norm>
0

>  <SCORE.RESTR>
0.0412323

>  <SCORE.RESTR.CAVITY>
0.0412323

>  <SCORE.RESTR.norm>
0.00412323

>  <SCORE.SYSTEM>
0

>  <SCORE.SYSTEM.CONST>
0

>  <SCORE.SYSTEM.DIHEDRAL>
0

>  <SCORE.SYSTEM.SOLV>
0

>  <SCORE.SYSTEM.norm>
0

>  <SCORE.heavy>
10

>  <SCORE.norm>
-1.25914

>  <RMSD>
2.889

$$$$
ligand
 OpenBabel11021811513D
libRbt.so/2013.1/901 2013/11/27
 10 11  0  0  0  0  0  0  0  0999 V2000
  -31.4709   18.7981  -15.8311 N   0  0  0  0  0  0  0  0  0  0  0  0
  -31.4396   18.3237  -14.5795 C   0  0  0  0  0  0  0  0  0  0  0  0
  -30.7977   17.2580  -14.1039 N   0  0  0  0  0  0  0  0  0  0  0  0
  -30.1176   16.6361  -15.0796 C   0  0  0  0  0  0  0  0  0  0  0  0
  -30.0547   17.0020  -16.4099 C   0  0  0  0  0  0  0  0  0  0  0  0
  -30.7770   18.1509  -16.7894 C   0  0  0  0  0  0  0  0  0  0  0  0
  -30.8067   18.6221  -18.0409 N   0  0  0  0  0  0  0  0  0  0  0  0
  -29.2559   16.1246  -17.1237 N   0  0  0  0  0  0  0  0  0  0  0  0
  -28.8592   15.2569  -16.2221 C   0  0  0  0  0  0  0  0  0  0  0  0
  -29.3415   15.5047  -14.9671 N   0  0  0  0  0  0  0  0  0  0  0  0
  1  2  2  0  0  0  0
  1  6  1  0  0  0  0
  2  3  1  0  0  0  0
  3  4  2  0  0  0  0
  4  5  1  0  0  0  0
  4 10  1  0  0  0  0
  5  6  2  0  0  0  0
  5  8  1  0  0  0  0
  6  7  1  0  0  0  0
  8  9  1  0  0  0  0
  9 10  2  0  0  0  0
M  END
>  <CHROM.1>
-30.29533191,17.17491606,-15.92228933,2.72966467,0.92648156,-1.24011291

>  <Name>
ligand

>  <RI>
0

>  <Rbt.Current_Directory>
/home/itssahil/PROJECTS/Mol_Feturizer/New_Systems/rnas/4TZY

>  <Rbt.Executable>
rbdock ($Id: //depot/dev/client3/rdock/2013.1/src/exe/rbdock.cxx#4 $)

>  <Rbt.Library>
libRbt.so (2013.1, Build901 2013/11/27)

>  <Rbt.Parameter_File>
/export/apps/rDock/src/rDock_2013.1_src/data/scripts/dock_solv.prm

>  <Rbt.Receptor>
prm/blind_docking_80.prm

>  <SCORE>
-12.0188

>  <SCORE.INTER>
-12.0188

>  <SCORE.INTER.CONST>
1

>  <SCORE.INTER.POLAR>
0

>  <SCORE.INTER.ROT>
0

>  <SCORE.INTER.SOLV>
9.40464

>  <SCORE.INTER.VDW>
-14.7474

>  <SCORE.INTER.norm>
-1.20188

>  <SCORE.INTRA>
0

>  <SCORE.INTRA.DIHEDRAL>
0

>  <SCORE.INTRA.DIHEDRAL.0>
0

>  <SCORE.INTRA.POLAR>
0

>  <SCORE.INTRA.POLAR.0>
0

>  <SCORE.INTRA.REPUL>
0

>  <SCORE.INTRA.REPUL.0>
0

>  <SCORE.INTRA.SOLV>
0

>  <SCORE.INTRA.SOLV.lig_0>
-23.8941

>  <SCORE.INTRA.VDW>
0

>  <SCORE.INTRA.VDW.0>
0

>  <SCORE.INTRA.norm>
0

>  <SCORE.RESTR>
0

>  <SCORE.RESTR.CAVITY>
0

>  <SCORE.RESTR.norm>
0

>  <SCORE.SYSTEM>
0

>  <SCORE.SYSTEM.CONST>
0

>  <SCORE.SYSTEM.DIHEDRAL>
0

>  <SCORE.SYSTEM.SOLV>
0

>  <SCORE.SYSTEM.norm>
0

>  <SCORE.heavy>
10

>  <SCORE.norm>
-1.20188

>  <RMSD>
2.889

$$$$
ligand
 OpenBabel11021811513D
libRbt.so/2013.1/901 2013/11/27
 10 11  0  0  0  0  0  0  0  0999 V2000
  -31.5654   18.7486  -15.7689 N   0  0  0  0  0  0  0  0  0  0  0  0
  -31.5415   18.2380  -14.5315 C   0  0  0  0  0  0  0  0  0  0  0  0
  -30.8750   17.1787  -14.0756 N   0  0  0  0  0  0  0  0  0  0  0  0
  -30.1587   16.6075  -15.0564 C   0  0  0  0  0  0  0  0  0  0  0  0
  -30.0838   17.0149  -16.3739 C   0  0  0  0  0  0  0  0  0  0  0  0
  -30.8349   18.1520  -16.7328 C   0  0  0  0  0  0  0  0  0  0  0  0
  -30.8572   18.6594  -17.9702 N   0  0  0  0  0  0  0  0  0  0  0  0
  -29.2456   16.1843  -17.0983 N   0  0  0  0  0  0  0  0  0  0  0  0
  -28.8379   15.3026  -16.2154 C   0  0  0  0  0  0  0  0  0  0  0  0
  -29.3498   15.4977  -14.9629 N   0  0  0  0  0  0  0  0  0  0  0  0
  1  2  2  0  0  0  0
  1  6  1  0  0  0  0
  2  3  1  0  0  0  0
  3  4  2  0  0  0  0
  4  5  1  0  0  0  0
  4 10  1  0  0  0  0
  5  6  2  0  0  0  0
  5  8  1  0  0  0  0
  6  7  1  0  0  0  0
  8  9  1  0  0  0  0
  9 10  2  0  0  0  0
M  END
>  <CHROM.1>
-30.33832813,17.16567911,-15.88599174,2.71925806,0.89115853,-1.20218295

>  <Name>
ligand

>  <RI>
0

>  <Rbt.Current_Directory>
/home/itssahil/PROJECTS/Mol_Feturizer/New_Systems/rnas/4TZY

>  <Rbt.Executable>
rbdock ($Id: //depot/dev/client3/rdock/2013.1/src/exe/rbdock.cxx#4 $)

>  <Rbt.Library>
libRbt.so (2013.1, Build901 2013/11/27)

>  <Rbt.Parameter_File>
/export/apps/rDock/src/rDock_2013.1_src/data/scripts/dock_solv.prm

>  <Rbt.Receptor>
prm/blind_docking_100.prm

>  <SCORE>
-11.9946

>  <SCORE.INTER>
-11.9946

>  <SCORE.INTER.CONST>
1

>  <SCORE.INTER.POLAR>
0

>  <SCORE.INTER.ROT>
0

>  <SCORE.INTER.SOLV>
9.34078

>  <SCORE.INTER.VDW>
-14.71

>  <SCORE.INTER.norm>
-1.19946

>  <SCORE.INTRA>
0

>  <SCORE.INTRA.DIHEDRAL>
0

>  <SCORE.INTRA.DIHEDRAL.0>
0

>  <SCORE.INTRA.POLAR>
0

>  <SCORE.INTRA.POLAR.0>
0

>  <SCORE.INTRA.REPUL>
0

>  <SCORE.INTRA.REPUL.0>
0

>  <SCORE.INTRA.SOLV>
0

>  <SCORE.INTRA.SOLV.lig_0>
-23.8941

>  <SCORE.INTRA.VDW>
0

>  <SCORE.INTRA.VDW.0>
0

>  <SCORE.INTRA.norm>
0

>  <SCORE.RESTR>
0

>  <SCORE.RESTR.CAVITY>
0

>  <SCORE.RESTR.norm>
0

>  <SCORE.SYSTEM>
0

>  <SCORE.SYSTEM.CONST>
0

>  <SCORE.SYSTEM.DIHEDRAL>
0

>  <SCORE.SYSTEM.SOLV>
0

>  <SCORE.SYSTEM.norm>
0

>  <SCORE.heavy>
10

>  <SCORE.norm>
-1.19946

>  <RMSD>
2.890

$$$$
ligand
 OpenBabel11021811513D
libRbt.so/2013.1/901 2013/11/27
 10 11  0  0  0  0  0  0  0  0999 V2000
  -29.1935   17.0797  -17.3222 N   0  0  0  0  0  0  0  0  0  0  0  0
  -30.1330   17.9796  -17.6381 C   0  0  0  0  0  0  0  0  0  0  0  0
  -31.0024   18.5976  -16.8405 N   0  0  0  0  0  0  0  0  0  0  0  0
  -30.8443   18.2044  -15.5671 C   0  0  0  0  0  0  0  0  0  0  0  0
  -29.9266   17.2894  -15.0894 C   0  0  0  0  0  0  0  0  0  0  0  0
  -29.0593   16.7047  -16.0337 C   0  0  0  0  0  0  0  0  0  0  0  0
  -28.1220   15.8054  -15.7148 N   0  0  0  0  0  0  0  0  0  0  0  0
  -30.0552   17.1338  -13.7195 N   0  0  0  0  0  0  0  0  0  0  0  0
  -31.0364   17.9460  -13.4021 C   0  0  0  0  0  0  0  0  0  0  0  0
  -31.5593   18.6237  -14.4680 N   0  0  0  0  0  0  0  0  0  0  0  0
  1  2  2  0  0  0  0
  1  6  1  0  0  0  0
  2  3  1  0  0  0  0
  3  4  2  0  0  0  0
  4  5  1  0  0  0  0
  4 10  1  0  0  0  0
  5  6  2  0  0  0  0
  5  8  1  0  0  0  0
  6  7  1  0  0  0  0
  8  9  1  0  0  0  0
  9 10  2  0  0  0  0
M  END
>  <CHROM.1>
-30.08502426,17.52965590,-15.58211183,0.74884505,0.71874719,-1.37506179

>  <Name>
ligand

>  <RI>
0

>  <Rbt.Current_Directory>
/home/itssahil/PROJECTS/Mol_Feturizer/New_Systems/rnas/4TZY

>  <Rbt.Executable>
rbdock ($Id: //depot/dev/client3/rdock/2013.1/src/exe/rbdock.cxx#4 $)

>  <Rbt.Library>
libRbt.so (2013.1, Build901 2013/11/27)

>  <Rbt.Parameter_File>
/export/apps/rDock/src/rDock_2013.1_src/data/scripts/dock_solv.prm

>  <Rbt.Receptor>
prm/blind_docking_40.prm

>  <SCORE>
-12.5602

>  <SCORE.INTER>
-12.5942

>  <SCORE.INTER.CONST>
1

>  <SCORE.INTER.POLAR>
0

>  <SCORE.INTER.ROT>
0

>  <SCORE.INTER.SOLV>
6.98214

>  <SCORE.INTER.VDW>
-14.3235

>  <SCORE.INTER.norm>
-1.25942

>  <SCORE.INTRA>
0

>  <SCORE.INTRA.DIHEDRAL>
0

>  <SCORE.INTRA.DIHEDRAL.0>
0

>  <SCORE.INTRA.POLAR>
0

>  <SCORE.INTRA.POLAR.0>
0

>  <SCORE.INTRA.REPUL>
0

>  <SCORE.INTRA.REPUL.0>
0

>  <SCORE.INTRA.SOLV>
0

>  <SCORE.INTRA.SOLV.lig_0>
-23.8941

>  <SCORE.INTRA.VDW>
0

>  <SCORE.INTRA.VDW.0>
0

>  <SCORE.INTRA.norm>
0

>  <SCORE.RESTR>
0.0340102

>  <SCORE.RESTR.CAVITY>
0.0340102

>  <SCORE.RESTR.norm>
0.00340102

>  <SCORE.SYSTEM>
0

>  <SCORE.SYSTEM.CONST>
0

>  <SCORE.SYSTEM.DIHEDRAL>
0

>  <SCORE.SYSTEM.SOLV>
0

>  <SCORE.SYSTEM.norm>
0

>  <SCORE.heavy>
10

>  <SCORE.norm>
-1.25602

>  <RMSD>
2.890

$$$$
ligand
 OpenBabel11021811513D
libRbt.so/2013.1/901 2013/11/27
 10 11  0  0  0  0  0  0  0  0999 V2000
  -31.3783   18.9147  -15.8291 N   0  0  0  0  0  0  0  0  0  0  0  0
  -31.3416   18.4622  -14.5696 C   0  0  0  0  0  0  0  0  0  0  0  0
  -30.7582   17.3648  -14.0909 N   0  0  0  0  0  0  0  0  0  0  0  0
  -30.1501   16.6809  -15.0727 C   0  0  0  0  0  0  0  0  0  0  0  0
  -30.1024   17.0174  -16.4113 C   0  0  0  0  0  0  0  0  0  0  0  0
  -30.7576   18.2050  -16.7934 C   0  0  0  0  0  0  0  0  0  0  0  0
  -30.7929   18.6542  -18.0528 N   0  0  0  0  0  0  0  0  0  0  0  0
  -29.3852   16.0755  -17.1295 N   0  0  0  0  0  0  0  0  0  0  0  0
  -29.0206   15.1998  -16.2221 C   0  0  0  0  0  0  0  0  0  0  0  0
  -29.4480   15.5023  -14.9593 N   0  0  0  0  0  0  0  0  0  0  0  0
  1  2  2  0  0  0  0
  1  6  1  0  0  0  0
  2  3  1  0  0  0  0
  3  4  2  0  0  0  0
  4  5  1  0  0  0  0
  4 10  1  0  0  0  0
  5  6  2  0  0  0  0
  5  8  1  0  0  0  0
  6  7  1  0  0  0  0
  8  9  1  0  0  0  0
  9 10  2  0  0  0  0
M  END
>  <CHROM.1>
-30.31649141,17.21494590,-15.92069273,2.74146857,0.99901406,-1.26909701

>  <Name>
ligand

>  <RI>
0

>  <Rbt.Current_Directory>
/home/itssahil/PROJECTS/Mol_Feturizer/New_Systems/rnas/4TZY

>  <Rbt.Executable>
rbdock ($Id: //depot/dev/client3/rdock/2013.1/src/exe/rbdock.cxx#4 $)

>  <Rbt.Library>
libRbt.so (2013.1, Build901 2013/11/27)

>  <Rbt.Parameter_File>
/export/apps/rDock/src/rDock_2013.1_src/data/scripts/dock_solv.prm

>  <Rbt.Receptor>
prm/blind_docking_60.prm

>  <SCORE>
-12.0272

>  <SCORE.INTER>
-12.0272

>  <SCORE.INTER.CONST>
1

>  <SCORE.INTER.POLAR>
0

>  <SCORE.INTER.ROT>
0

>  <SCORE.INTER.SOLV>
9.63652

>  <SCORE.INTER.VDW>
-14.8303

>  <SCORE.INTER.norm>
-1.20272

>  <SCORE.INTRA>
0

>  <SCORE.INTRA.DIHEDRAL>
0

>  <SCORE.INTRA.DIHEDRAL.0>
0

>  <SCORE.INTRA.POLAR>
0

>  <SCORE.INTRA.POLAR.0>
0

>  <SCORE.INTRA.REPUL>
0

>  <SCORE.INTRA.REPUL.0>
0

>  <SCORE.INTRA.SOLV>
0

>  <SCORE.INTRA.SOLV.lig_0>
-23.8941

>  <SCORE.INTRA.VDW>
0

>  <SCORE.INTRA.VDW.0>
0

>  <SCORE.INTRA.norm>
0

>  <SCORE.RESTR>
0

>  <SCORE.RESTR.CAVITY>
0

>  <SCORE.RESTR.norm>
0

>  <SCORE.SYSTEM>
0

>  <SCORE.SYSTEM.CONST>
0

>  <SCORE.SYSTEM.DIHEDRAL>
0

>  <SCORE.SYSTEM.SOLV>
0

>  <SCORE.SYSTEM.norm>
0

>  <SCORE.heavy>
10

>  <SCORE.norm>
-1.20272

>  <RMSD>
2.890

$$$$
ligand
 OpenBabel11021811513D
libRbt.so/2013.1/901 2013/11/27
 10 11  0  0  0  0  0  0  0  0999 V2000
  -31.4882   18.7873  -15.7985 N   0  0  0  0  0  0  0  0  0  0  0  0
  -31.4457   18.3222  -14.5438 C   0  0  0  0  0  0  0  0  0  0  0  0
  -30.7857   17.2700  -14.0628 N   0  0  0  0  0  0  0  0  0  0  0  0
  -30.0989   16.6520  -15.0363 C   0  0  0  0  0  0  0  0  0  0  0  0
  -30.0458   17.0095  -16.3693 C   0  0  0  0  0  0  0  0  0  0  0  0
  -30.7872   18.1442  -16.7545 C   0  0  0  0  0  0  0  0  0  0  0  0
  -30.8280   18.6061  -18.0091 N   0  0  0  0  0  0  0  0  0  0  0  0
  -29.2356   16.1397  -17.0794 N   0  0  0  0  0  0  0  0  0  0  0  0
  -28.8227   15.2846  -16.1730 C   0  0  0  0  0  0  0  0  0  0  0  0
  -29.3049   15.5337  -14.9183 N   0  0  0  0  0  0  0  0  0  0  0  0
  1  2  2  0  0  0  0
  1  6  1  0  0  0  0
  2  3  1  0  0  0  0
  3  4  2  0  0  0  0
  4  5  1  0  0  0  0
  4 10  1  0  0  0  0
  5  6  2  0  0  0  0
  5  8  1  0  0  0  0
  6  7  1  0  0  0  0
  8  9  1  0  0  0  0
  9 10  2  0  0  0  0
M  END
>  <CHROM.1>
-30.28766990,17.18201386,-15.88211518,2.74267759,0.91263801,-1.25747689

>  <Name>
ligand

>  <RI>
0

>  <Rbt.Current_Directory>
/home/itssahil/PROJECTS/Mol_Feturizer/New_Systems/rnas/4TZY

>  <Rbt.Executable>
rbdock ($Id: //depot/dev/client3/rdock/2013.1/src/exe/rbdock.cxx#4 $)

>  <Rbt.Library>
libRbt.so (2013.1, Build901 2013/11/27)

>  <Rbt.Parameter_File>
/export/apps/rDock/src/rDock_2013.1_src/data/scripts/dock_solv.prm

>  <Rbt.Receptor>
prm/blind_docking_100.prm

>  <SCORE>
-12.0221

>  <SCORE.INTER>
-12.0221

>  <SCORE.INTER.CONST>
1

>  <SCORE.INTER.POLAR>
0

>  <SCORE.INTER.ROT>
0

>  <SCORE.INTER.SOLV>
9.25027

>  <SCORE.INTER.VDW>
-14.6982

>  <SCORE.INTER.norm>
-1.20221

>  <SCORE.INTRA>
0

>  <SCORE.INTRA.DIHEDRAL>
0

>  <SCORE.INTRA.DIHEDRAL.0>
0

>  <SCORE.INTRA.POLAR>
0

>  <SCORE.INTRA.POLAR.0>
0

>  <SCORE.INTRA.REPUL>
0

>  <SCORE.INTRA.REPUL.0>
0

>  <SCORE.INTRA.SOLV>
0

>  <SCORE.INTRA.SOLV.lig_0>
-23.8941

>  <SCORE.INTRA.VDW>
0

>  <SCORE.INTRA.VDW.0>
0

>  <SCORE.INTRA.norm>
0

>  <SCORE.RESTR>
0

>  <SCORE.RESTR.CAVITY>
0

>  <SCORE.RESTR.norm>
0

>  <SCORE.SYSTEM>
0

>  <SCORE.SYSTEM.CONST>
0

>  <SCORE.SYSTEM.DIHEDRAL>
0

>  <SCORE.SYSTEM.SOLV>
0

>  <SCORE.SYSTEM.norm>
0

>  <SCORE.heavy>
10

>  <SCORE.norm>
-1.20221

>  <RMSD>
2.892

$$$$
ligand
 OpenBabel11021811513D
libRbt.so/2013.1/901 2013/11/27
 10 11  0  0  0  0  0  0  0  0999 V2000
  -31.4135   18.8711  -15.7811 N   0  0  0  0  0  0  0  0  0  0  0  0
  -31.3323   18.4332  -14.5185 C   0  0  0  0  0  0  0  0  0  0  0  0
  -30.6918   17.3672  -14.0416 N   0  0  0  0  0  0  0  0  0  0  0  0
  -30.0736   16.7009  -15.0291 C   0  0  0  0  0  0  0  0  0  0  0  0
  -30.0670   17.0258  -16.3715 C   0  0  0  0  0  0  0  0  0  0  0  0
  -30.7812   18.1797  -16.7511 C   0  0  0  0  0  0  0  0  0  0  0  0
  -30.8609   18.6143  -18.0136 N   0  0  0  0  0  0  0  0  0  0  0  0
  -29.3232   16.1092  -17.0953 N   0  0  0  0  0  0  0  0  0  0  0  0
  -28.9027   15.2594  -16.1875 C   0  0  0  0  0  0  0  0  0  0  0  0
  -29.3181   15.5554  -14.9192 N   0  0  0  0  0  0  0  0  0  0  0  0
  1  2  2  0  0  0  0
  1  6  1  0  0  0  0
  2  3  1  0  0  0  0
  3  4  2  0  0  0  0
  4  5  1  0  0  0  0
  4 10  1  0  0  0  0
  5  6  2  0  0  0  0
  5  8  1  0  0  0  0
  6  7  1  0  0  0  0
  8  9  1  0  0  0  0
  9 10  2  0  0  0  0
M  END
>  <CHROM.1>
-30.27988384,17.21865310,-15.87847356,2.79711896,0.96203088,-1.32487306

>  <Name>
ligand

>  <RI>
0

>  <Rbt.Current_Directory>
/home/itssahil/PROJECTS/Mol_Feturizer/New_Systems/rnas/4TZY

>  <Rbt.Executable>
rbdock ($Id: //depot/dev/client3/rdock/2013.1/src/exe/rbdock.cxx#4 $)

>  <Rbt.Library>
libRbt.so (2013.1, Build901 2013/11/27)

>  <Rbt.Parameter_File>
/export/apps/rDock/src/rDock_2013.1_src/data/scripts/dock_solv.prm

>  <Rbt.Receptor>
prm/blind_docking_60.prm

>  <SCORE>
-12

>  <SCORE.INTER>
-12

>  <SCORE.INTER.CONST>
1

>  <SCORE.INTER.POLAR>
0

>  <SCORE.INTER.ROT>
0

>  <SCORE.INTER.SOLV>
9.21059

>  <SCORE.INTER.VDW>
-14.6702

>  <SCORE.INTER.norm>
-1.2

>  <SCORE.INTRA>
0

>  <SCORE.INTRA.DIHEDRAL>
0

>  <SCORE.INTRA.DIHEDRAL.0>
0

>  <SCORE.INTRA.POLAR>
0

>  <SCORE.INTRA.POLAR.0>
0

>  <SCORE.INTRA.REPUL>
0

>  <SCORE.INTRA.REPUL.0>
0

>  <SCORE.INTRA.SOLV>
0

>  <SCORE.INTRA.SOLV.lig_0>
-23.8941

>  <SCORE.INTRA.VDW>
0

>  <SCORE.INTRA.VDW.0>
0

>  <SCORE.INTRA.norm>
0

>  <SCORE.RESTR>
0

>  <SCORE.RESTR.CAVITY>
0

>  <SCORE.RESTR.norm>
0

>  <SCORE.SYSTEM>
0

>  <SCORE.SYSTEM.CONST>
0

>  <SCORE.SYSTEM.DIHEDRAL>
0

>  <SCORE.SYSTEM.SOLV>
0

>  <SCORE.SYSTEM.norm>
0

>  <SCORE.heavy>
10

>  <SCORE.norm>
-1.2

>  <RMSD>
2.892

$$$$
ligand
 OpenBabel11021811513D
libRbt.so/2013.1/901 2013/11/27
 10 11  0  0  0  0  0  0  0  0999 V2000
  -31.5242   18.7737  -15.8172 N   0  0  0  0  0  0  0  0  0  0  0  0
  -31.4941   18.3051  -14.5634 C   0  0  0  0  0  0  0  0  0  0  0  0
  -30.8337   17.2555  -14.0775 N   0  0  0  0  0  0  0  0  0  0  0  0
  -30.1314   16.6446  -15.0444 C   0  0  0  0  0  0  0  0  0  0  0  0
  -30.0642   17.0064  -16.3756 C   0  0  0  0  0  0  0  0  0  0  0  0
  -30.8077   18.1378  -16.7665 C   0  0  0  0  0  0  0  0  0  0  0  0
  -30.8361   18.6033  -18.0201 N   0  0  0  0  0  0  0  0  0  0  0  0
  -29.2402   16.1437  -17.0785 N   0  0  0  0  0  0  0  0  0  0  0  0
  -28.8331   15.2884  -16.1696 C   0  0  0  0  0  0  0  0  0  0  0  0
  -29.3321   15.5307  -14.9202 N   0  0  0  0  0  0  0  0  0  0  0  0
  1  2  2  0  0  0  0
  1  6  1  0  0  0  0
  2  3  1  0  0  0  0
  3  4  2  0  0  0  0
  4  5  1  0  0  0  0
  4 10  1  0  0  0  0
  5  6  2  0  0  0  0
  5  8  1  0  0  0  0
  6  7  1  0  0  0  0
  8  9  1  0  0  0  0
  9 10  2  0  0  0  0
M  END
>  <CHROM.1>
-30.31301712,17.17601752,-15.89093372,2.72703966,0.90305952,-1.24214612

>  <Name>
ligand

>  <RI>
0

>  <Rbt.Current_Directory>
/home/itssahil/PROJECTS/Mol_Feturizer/New_Systems/rnas/4TZY

>  <Rbt.Executable>
rbdock ($Id: //depot/dev/client3/rdock/2013.1/src/exe/rbdock.cxx#4 $)

>  <Rbt.Library>
libRbt.so (2013.1, Build901 2013/11/27)

>  <Rbt.Parameter_File>
/export/apps/rDock/src/rDock_2013.1_src/data/scripts/dock_solv.prm

>  <Rbt.Receptor>
prm/blind_docking_100.prm

>  <SCORE>
-12.0356

>  <SCORE.INTER>
-12.0356

>  <SCORE.INTER.CONST>
1

>  <SCORE.INTER.POLAR>
0

>  <SCORE.INTER.ROT>
0

>  <SCORE.INTER.SOLV>
9.25466

>  <SCORE.INTER.VDW>
-14.7086

>  <SCORE.INTER.norm>
-1.20356

>  <SCORE.INTRA>
0

>  <SCORE.INTRA.DIHEDRAL>
0

>  <SCORE.INTRA.DIHEDRAL.0>
0

>  <SCORE.INTRA.POLAR>
0

>  <SCORE.INTRA.POLAR.0>
0

>  <SCORE.INTRA.REPUL>
0

>  <SCORE.INTRA.REPUL.0>
0

>  <SCORE.INTRA.SOLV>
0

>  <SCORE.INTRA.SOLV.lig_0>
-23.8941

>  <SCORE.INTRA.VDW>
0

>  <SCORE.INTRA.VDW.0>
0

>  <SCORE.INTRA.norm>
0

>  <SCORE.RESTR>
0

>  <SCORE.RESTR.CAVITY>
0

>  <SCORE.RESTR.norm>
0

>  <SCORE.SYSTEM>
0

>  <SCORE.SYSTEM.CONST>
0

>  <SCORE.SYSTEM.DIHEDRAL>
0

>  <SCORE.SYSTEM.SOLV>
0

>  <SCORE.SYSTEM.norm>
0

>  <SCORE.heavy>
10

>  <SCORE.norm>
-1.20356

>  <RMSD>
2.893

$$$$
ligand
 OpenBabel11021811513D
libRbt.so/2013.1/901 2013/11/27
 10 11  0  0  0  0  0  0  0  0999 V2000
  -31.5778   18.7206  -15.7171 N   0  0  0  0  0  0  0  0  0  0  0  0
  -31.5060   18.2318  -14.4728 C   0  0  0  0  0  0  0  0  0  0  0  0
  -30.8174   17.1840  -14.0233 N   0  0  0  0  0  0  0  0  0  0  0  0
  -30.1341   16.5994  -15.0195 C   0  0  0  0  0  0  0  0  0  0  0  0
  -30.1095   16.9841  -16.3458 C   0  0  0  0  0  0  0  0  0  0  0  0
  -30.8795   18.1109  -16.6966 C   0  0  0  0  0  0  0  0  0  0  0  0
  -30.9496   18.5964  -17.9409 N   0  0  0  0  0  0  0  0  0  0  0  0
  -29.2934   16.1451  -17.0857 N   0  0  0  0  0  0  0  0  0  0  0  0
  -28.8489   15.2810  -16.2032 C   0  0  0  0  0  0  0  0  0  0  0  0
  -29.3160   15.4954  -14.9364 N   0  0  0  0  0  0  0  0  0  0  0  0
  1  2  2  0  0  0  0
  1  6  1  0  0  0  0
  2  3  1  0  0  0  0
  3  4  2  0  0  0  0
  4  5  1  0  0  0  0
  4 10  1  0  0  0  0
  5  6  2  0  0  0  0
  5  8  1  0  0  0  0
  6  7  1  0  0  0  0
  8  9  1  0  0  0  0
  9 10  2  0  0  0  0
M  END
>  <CHROM.1>
-30.34688156,17.14204768,-15.85152960,2.77702162,0.89819221,-1.26462991

>  <Name>
ligand

>  <RI>
0

>  <Rbt.Current_Directory>
/home/itssahil/PROJECTS/Mol_Feturizer/New_Systems/rnas/4TZY

>  <Rbt.Executable>
rbdock ($Id: //depot/dev/client3/rdock/2013.1/src/exe/rbdock.cxx#4 $)

>  <Rbt.Library>
libRbt.so (2013.1, Build901 2013/11/27)

>  <Rbt.Parameter_File>
/export/apps/rDock/src/rDock_2013.1_src/data/scripts/dock_solv.prm

>  <Rbt.Receptor>
prm/blind_docking_60.prm

>  <SCORE>
-11.9827

>  <SCORE.INTER>
-11.9827

>  <SCORE.INTER.CONST>
1

>  <SCORE.INTER.POLAR>
0

>  <SCORE.INTER.ROT>
0

>  <SCORE.INTER.SOLV>
9.14754

>  <SCORE.INTER.VDW>
-14.6376

>  <SCORE.INTER.norm>
-1.19827

>  <SCORE.INTRA>
0

>  <SCORE.INTRA.DIHEDRAL>
0

>  <SCORE.INTRA.DIHEDRAL.0>
0

>  <SCORE.INTRA.POLAR>
0

>  <SCORE.INTRA.POLAR.0>
0

>  <SCORE.INTRA.REPUL>
0

>  <SCORE.INTRA.REPUL.0>
0

>  <SCORE.INTRA.SOLV>
0

>  <SCORE.INTRA.SOLV.lig_0>
-23.8941

>  <SCORE.INTRA.VDW>
0

>  <SCORE.INTRA.VDW.0>
0

>  <SCORE.INTRA.norm>
0

>  <SCORE.RESTR>
0

>  <SCORE.RESTR.CAVITY>
0

>  <SCORE.RESTR.norm>
0

>  <SCORE.SYSTEM>
0

>  <SCORE.SYSTEM.CONST>
0

>  <SCORE.SYSTEM.DIHEDRAL>
0

>  <SCORE.SYSTEM.SOLV>
0

>  <SCORE.SYSTEM.norm>
0

>  <SCORE.heavy>
10

>  <SCORE.norm>
-1.19827

>  <RMSD>
2.896

$$$$
ligand
 OpenBabel11021811513D
libRbt.so/2013.1/901 2013/11/27
 10 11  0  0  0  0  0  0  0  0999 V2000
  -31.4048   18.7347  -15.6042 N   0  0  0  0  0  0  0  0  0  0  0  0
  -31.3685   18.1932  -14.3804 C   0  0  0  0  0  0  0  0  0  0  0  0
  -30.7182   17.1080  -13.9640 N   0  0  0  0  0  0  0  0  0  0  0  0
  -30.0347   16.5451  -14.9726 C   0  0  0  0  0  0  0  0  0  0  0  0
  -29.9761   16.9834  -16.2811 C   0  0  0  0  0  0  0  0  0  0  0  0
  -30.7073   18.1458  -16.5969 C   0  0  0  0  0  0  0  0  0  0  0  0
  -30.7420   18.6841  -17.8209 N   0  0  0  0  0  0  0  0  0  0  0  0
  -29.1718   16.1521  -17.0422 N   0  0  0  0  0  0  0  0  0  0  0  0
  -28.7676   15.2396  -16.1894 C   0  0  0  0  0  0  0  0  0  0  0  0
  -29.2501   15.4151  -14.9225 N   0  0  0  0  0  0  0  0  0  0  0  0
  1  2  2  0  0  0  0
  1  6  1  0  0  0  0
  2  3  1  0  0  0  0
  3  4  2  0  0  0  0
  4  5  1  0  0  0  0
  4 10  1  0  0  0  0
  5  6  2  0  0  0  0
  5  8  1  0  0  0  0
  6  7  1  0  0  0  0
  8  9  1  0  0  0  0
  9 10  2  0  0  0  0
M  END
>  <CHROM.1>
-30.21743520,17.12768323,-15.78458996,2.73550063,0.91988166,-1.19033622

>  <Name>
ligand

>  <RI>
0

>  <Rbt.Current_Directory>
/home/itssahil/PROJECTS/Mol_Feturizer/New_Systems/rnas/4TZY

>  <Rbt.Executable>
rbdock ($Id: //depot/dev/client3/rdock/2013.1/src/exe/rbdock.cxx#4 $)

>  <Rbt.Library>
libRbt.so (2013.1, Build901 2013/11/27)

>  <Rbt.Parameter_File>
/export/apps/rDock/src/rDock_2013.1_src/data/scripts/dock_solv.prm

>  <Rbt.Receptor>
prm/blind_docking_40.prm

>  <SCORE>
-11.1882

>  <SCORE.INTER>
-11.6508

>  <SCORE.INTER.CONST>
1

>  <SCORE.INTER.POLAR>
0

>  <SCORE.INTER.ROT>
0

>  <SCORE.INTER.SOLV>
9.56184

>  <SCORE.INTER.VDW>
-14.5544

>  <SCORE.INTER.norm>
-1.16508

>  <SCORE.INTRA>
0

>  <SCORE.INTRA.DIHEDRAL>
0

>  <SCORE.INTRA.DIHEDRAL.0>
0

>  <SCORE.INTRA.POLAR>
0

>  <SCORE.INTRA.POLAR.0>
0

>  <SCORE.INTRA.REPUL>
0

>  <SCORE.INTRA.REPUL.0>
0

>  <SCORE.INTRA.SOLV>
0

>  <SCORE.INTRA.SOLV.lig_0>
-23.8941

>  <SCORE.INTRA.VDW>
0

>  <SCORE.INTRA.VDW.0>
0

>  <SCORE.INTRA.norm>
0

>  <SCORE.RESTR>
0.462596

>  <SCORE.RESTR.CAVITY>
0.462596

>  <SCORE.RESTR.norm>
0.0462596

>  <SCORE.SYSTEM>
0

>  <SCORE.SYSTEM.CONST>
0

>  <SCORE.SYSTEM.DIHEDRAL>
0

>  <SCORE.SYSTEM.SOLV>
0

>  <SCORE.SYSTEM.norm>
0

>  <SCORE.heavy>
10

>  <SCORE.norm>
-1.11882

>  <RMSD>
2.899

$$$$
ligand
 OpenBabel11021811513D
libRbt.so/2013.1/901 2013/11/27
 10 11  0  0  0  0  0  0  0  0999 V2000
  -31.1395   19.1950  -16.2523 N   0  0  0  0  0  0  0  0  0  0  0  0
  -30.5581   19.0273  -17.4466 C   0  0  0  0  0  0  0  0  0  0  0  0
  -29.8770   17.9792  -17.9065 N   0  0  0  0  0  0  0  0  0  0  0  0
  -29.8143   17.0083  -16.9820 C   0  0  0  0  0  0  0  0  0  0  0  0
  -30.3592   17.0346  -15.7132 C   0  0  0  0  0  0  0  0  0  0  0  0
  -31.0589   18.2009  -15.3445 C   0  0  0  0  0  0  0  0  0  0  0  0
  -31.6382   18.3656  -14.1503 N   0  0  0  0  0  0  0  0  0  0  0  0
  -30.0941   15.8541  -15.0398 N   0  0  0  0  0  0  0  0  0  0  0  0
  -29.4019   15.1487  -15.9038 C   0  0  0  0  0  0  0  0  0  0  0  0
  -29.1955   15.7839  -17.0965 N   0  0  0  0  0  0  0  0  0  0  0  0
  1  2  2  0  0  0  0
  1  6  1  0  0  0  0
  2  3  1  0  0  0  0
  3  4  2  0  0  0  0
  4  5  1  0  0  0  0
  4 10  1  0  0  0  0
  5  6  2  0  0  0  0
  5  8  1  0  0  0  0
  6  7  1  0  0  0  0
  8  9  1  0  0  0  0
  9 10  2  0  0  0  0
M  END
>  <CHROM.1>
-30.31943668,17.36557710,-16.17629997,-2.63804025,-1.01021533,2.30581047

>  <Name>
ligand

>  <RI>
0

>  <Rbt.Current_Directory>
/home/itssahil/PROJECTS/Mol_Feturizer/New_Systems/rnas/4TZY

>  <Rbt.Executable>
rbdock ($Id: //depot/dev/client3/rdock/2013.1/src/exe/rbdock.cxx#4 $)

>  <Rbt.Library>
libRbt.so (2013.1, Build901 2013/11/27)

>  <Rbt.Parameter_File>
/export/apps/rDock/src/rDock_2013.1_src/data/scripts/dock_solv.prm

>  <Rbt.Receptor>
prm/blind_docking_80.prm

>  <SCORE>
-12.0665

>  <SCORE.INTER>
-12.0665

>  <SCORE.INTER.CONST>
1

>  <SCORE.INTER.POLAR>
0

>  <SCORE.INTER.ROT>
0

>  <SCORE.INTER.SOLV>
12.9441

>  <SCORE.INTER.VDW>
-15.959

>  <SCORE.INTER.norm>
-1.20665

>  <SCORE.INTRA>
0

>  <SCORE.INTRA.DIHEDRAL>
0

>  <SCORE.INTRA.DIHEDRAL.0>
0

>  <SCORE.INTRA.POLAR>
0

>  <SCORE.INTRA.POLAR.0>
0

>  <SCORE.INTRA.REPUL>
0

>  <SCORE.INTRA.REPUL.0>
0

>  <SCORE.INTRA.SOLV>
0

>  <SCORE.INTRA.SOLV.lig_0>
-23.8941

>  <SCORE.INTRA.VDW>
0

>  <SCORE.INTRA.VDW.0>
0

>  <SCORE.INTRA.norm>
0

>  <SCORE.RESTR>
0

>  <SCORE.RESTR.CAVITY>
0

>  <SCORE.RESTR.norm>
0

>  <SCORE.SYSTEM>
0

>  <SCORE.SYSTEM.CONST>
0

>  <SCORE.SYSTEM.DIHEDRAL>
0

>  <SCORE.SYSTEM.SOLV>
0

>  <SCORE.SYSTEM.norm>
0

>  <SCORE.heavy>
10

>  <SCORE.norm>
-1.20665

>  <RMSD>
3.233

$$$$
ligand
 OpenBabel11021811513D
libRbt.so/2013.1/901 2013/11/27
 10 11  0  0  0  0  0  0  0  0999 V2000
  -31.1333   19.1916  -16.2471 N   0  0  0  0  0  0  0  0  0  0  0  0
  -30.5515   19.0151  -17.4398 C   0  0  0  0  0  0  0  0  0  0  0  0
  -29.8722   17.9627  -17.8925 N   0  0  0  0  0  0  0  0  0  0  0  0
  -29.8120   16.9976  -16.9617 C   0  0  0  0  0  0  0  0  0  0  0  0
  -30.3578   17.0332  -15.6935 C   0  0  0  0  0  0  0  0  0  0  0  0
  -31.0554   18.2032  -15.3329 C   0  0  0  0  0  0  0  0  0  0  0  0
  -31.6352   18.3768  -14.1401 N   0  0  0  0  0  0  0  0  0  0  0  0
  -30.0955   15.8565  -15.0124 N   0  0  0  0  0  0  0  0  0  0  0  0
  -29.4042   15.1441  -15.8713 C   0  0  0  0  0  0  0  0  0  0  0  0
  -29.1957   15.7713  -17.0680 N   0  0  0  0  0  0  0  0  0  0  0  0
  1  2  2  0  0  0  0
  1  6  1  0  0  0  0
  2  3  1  0  0  0  0
  3  4  2  0  0  0  0
  4  5  1  0  0  0  0
  4 10  1  0  0  0  0
  5  6  2  0  0  0  0
  5  8  1  0  0  0  0
  6  7  1  0  0  0  0
  8  9  1  0  0  0  0
  9 10  2  0  0  0  0
M  END
>  <CHROM.1>
-30.31703953,17.36109104,-16.15871494,-2.63451329,-1.01124481,2.30237932

>  <Name>
ligand

>  <RI>
0

>  <Rbt.Current_Directory>
/home/itssahil/PROJECTS/Mol_Feturizer/New_Systems/rnas/4TZY

>  <Rbt.Executable>
rbdock ($Id: //depot/dev/client3/rdock/2013.1/src/exe/rbdock.cxx#4 $)

>  <Rbt.Library>
libRbt.so (2013.1, Build901 2013/11/27)

>  <Rbt.Parameter_File>
/export/apps/rDock/src/rDock_2013.1_src/data/scripts/dock_solv.prm

>  <Rbt.Receptor>
prm/blind_docking_80.prm

>  <SCORE>
-12.0456

>  <SCORE.INTER>
-12.0459

>  <SCORE.INTER.CONST>
1

>  <SCORE.INTER.POLAR>
0

>  <SCORE.INTER.ROT>
0

>  <SCORE.INTER.SOLV>
12.9727

>  <SCORE.INTER.VDW>
-15.9549

>  <SCORE.INTER.norm>
-1.20459

>  <SCORE.INTRA>
0

>  <SCORE.INTRA.DIHEDRAL>
0

>  <SCORE.INTRA.DIHEDRAL.0>
0

>  <SCORE.INTRA.POLAR>
0

>  <SCORE.INTRA.POLAR.0>
0

>  <SCORE.INTRA.REPUL>
0

>  <SCORE.INTRA.REPUL.0>
0

>  <SCORE.INTRA.SOLV>
0

>  <SCORE.INTRA.SOLV.lig_0>
-23.8941

>  <SCORE.INTRA.VDW>
0

>  <SCORE.INTRA.VDW.0>
0

>  <SCORE.INTRA.norm>
0

>  <SCORE.RESTR>
0.000332149

>  <SCORE.RESTR.CAVITY>
0.000332149

>  <SCORE.RESTR.norm>
3.32149e-05

>  <SCORE.SYSTEM>
0

>  <SCORE.SYSTEM.CONST>
0

>  <SCORE.SYSTEM.DIHEDRAL>
0

>  <SCORE.SYSTEM.SOLV>
0

>  <SCORE.SYSTEM.norm>
0

>  <SCORE.heavy>
10

>  <SCORE.norm>
-1.20456

>  <RMSD>
3.239

$$$$
ligand
 OpenBabel11021811513D
libRbt.so/2013.1/901 2013/11/27
 10 11  0  0  0  0  0  0  0  0999 V2000
  -31.0074   18.7632  -16.1979 N   0  0  0  0  0  0  0  0  0  0  0  0
  -30.5819   18.5286  -17.4454 C   0  0  0  0  0  0  0  0  0  0  0  0
  -29.8807   17.4961  -17.9105 N   0  0  0  0  0  0  0  0  0  0  0  0
  -29.6077   16.6236  -16.9280 C   0  0  0  0  0  0  0  0  0  0  0  0
  -29.9747   16.7277  -15.6006 C   0  0  0  0  0  0  0  0  0  0  0  0
  -30.7171   17.8675  -15.2324 C   0  0  0  0  0  0  0  0  0  0  0  0
  -31.1404   18.0993  -13.9850 N   0  0  0  0  0  0  0  0  0  0  0  0
  -29.5179   15.6388  -14.8775 N   0  0  0  0  0  0  0  0  0  0  0  0
  -28.8909   14.9095  -15.7709 C   0  0  0  0  0  0  0  0  0  0  0  0
  -28.9055   15.4439  -17.0291 N   0  0  0  0  0  0  0  0  0  0  0  0
  1  2  2  0  0  0  0
  1  6  1  0  0  0  0
  2  3  1  0  0  0  0
  3  4  2  0  0  0  0
  4  5  1  0  0  0  0
  4 10  1  0  0  0  0
  5  6  2  0  0  0  0
  5  8  1  0  0  0  0
  6  7  1  0  0  0  0
  8  9  1  0  0  0  0
  9 10  2  0  0  0  0
M  END
>  <CHROM.1>
-30.02762055,17.01583880,-16.09021692,-2.94620141,-1.01563796,1.95514157

>  <Name>
ligand

>  <RI>
0

>  <Rbt.Current_Directory>
/home/itssahil/PROJECTS/Mol_Feturizer/New_Systems/rnas/4TZY

>  <Rbt.Executable>
rbdock ($Id: //depot/dev/client3/rdock/2013.1/src/exe/rbdock.cxx#4 $)

>  <Rbt.Library>
libRbt.so (2013.1, Build901 2013/11/27)

>  <Rbt.Parameter_File>
/export/apps/rDock/src/rDock_2013.1_src/data/scripts/dock_solv.prm

>  <Rbt.Receptor>
prm/blind_docking_40.prm

>  <SCORE>
-10.0851

>  <SCORE.INTER>
-10.094

>  <SCORE.INTER.CONST>
1

>  <SCORE.INTER.POLAR>
0

>  <SCORE.INTER.ROT>
0

>  <SCORE.INTER.SOLV>
12.1155

>  <SCORE.INTER.VDW>
-14.3678

>  <SCORE.INTER.norm>
-1.0094

>  <SCORE.INTRA>
0

>  <SCORE.INTRA.DIHEDRAL>
0

>  <SCORE.INTRA.DIHEDRAL.0>
0

>  <SCORE.INTRA.POLAR>
0

>  <SCORE.INTRA.POLAR.0>
0

>  <SCORE.INTRA.REPUL>
0

>  <SCORE.INTRA.REPUL.0>
0

>  <SCORE.INTRA.SOLV>
0

>  <SCORE.INTRA.SOLV.lig_0>
-23.8941

>  <SCORE.INTRA.VDW>
0

>  <SCORE.INTRA.VDW.0>
0

>  <SCORE.INTRA.norm>
0

>  <SCORE.RESTR>
0.00895275

>  <SCORE.RESTR.CAVITY>
0.00895275

>  <SCORE.RESTR.norm>
0.000895275

>  <SCORE.SYSTEM>
0

>  <SCORE.SYSTEM.CONST>
0

>  <SCORE.SYSTEM.DIHEDRAL>
0

>  <SCORE.SYSTEM.SOLV>
0

>  <SCORE.SYSTEM.norm>
0

>  <SCORE.heavy>
10

>  <SCORE.norm>
-1.00851

>  <RMSD>
3.261

$$$$
ligand
 OpenBabel11021811513D
libRbt.so/2013.1/901 2013/11/27
 10 11  0  0  0  0  0  0  0  0999 V2000
  -29.4758   16.5375  -17.3491 N   0  0  0  0  0  0  0  0  0  0  0  0
  -29.2353   15.6055  -16.4184 C   0  0  0  0  0  0  0  0  0  0  0  0
  -29.6423   15.5634  -15.1509 N   0  0  0  0  0  0  0  0  0  0  0  0
  -30.3868   16.6397  -14.8530 C   0  0  0  0  0  0  0  0  0  0  0  0
  -30.7181   17.6793  -15.6998 C   0  0  0  0  0  0  0  0  0  0  0  0
  -30.2276   17.6074  -17.0189 C   0  0  0  0  0  0  0  0  0  0  0  0
  -30.4692   18.5405  -17.9463 N   0  0  0  0  0  0  0  0  0  0  0  0
  -31.5011   18.6154  -15.0458 N   0  0  0  0  0  0  0  0  0  0  0  0
  -31.6238   18.1294  -13.8326 C   0  0  0  0  0  0  0  0  0  0  0  0
  -30.9766   16.9398  -13.6460 N   0  0  0  0  0  0  0  0  0  0  0  0
  1  2  2  0  0  0  0
  1  6  1  0  0  0  0
  2  3  1  0  0  0  0
  3  4  2  0  0  0  0
  4  5  1  0  0  0  0
  4 10  1  0  0  0  0
  5  6  2  0  0  0  0
  5  8  1  0  0  0  0
  6  7  1  0  0  0  0
  8  9  1  0  0  0  0
  9 10  2  0  0  0  0
M  END
>  <CHROM.1>
-30.42467473,17.18988048,-15.70616837,-0.77340662,-0.96846473,2.08869808

>  <Name>
ligand

>  <RI>
0

>  <Rbt.Current_Directory>
/home/itssahil/PROJECTS/Mol_Feturizer/New_Systems/rnas/4TZY

>  <Rbt.Executable>
rbdock ($Id: //depot/dev/client3/rdock/2013.1/src/exe/rbdock.cxx#4 $)

>  <Rbt.Library>
libRbt.so (2013.1, Build901 2013/11/27)

>  <Rbt.Parameter_File>
/export/apps/rDock/src/rDock_2013.1_src/data/scripts/dock_solv.prm

>  <Rbt.Receptor>
prm/blind_docking_40.prm

>  <SCORE>
-11.609

>  <SCORE.INTER>
-11.9746

>  <SCORE.INTER.CONST>
1

>  <SCORE.INTER.POLAR>
0

>  <SCORE.INTER.ROT>
0

>  <SCORE.INTER.SOLV>
10.504

>  <SCORE.INTER.VDW>
-15.0844

>  <SCORE.INTER.norm>
-1.19746

>  <SCORE.INTRA>
0

>  <SCORE.INTRA.DIHEDRAL>
0

>  <SCORE.INTRA.DIHEDRAL.0>
0

>  <SCORE.INTRA.POLAR>
0

>  <SCORE.INTRA.POLAR.0>
0

>  <SCORE.INTRA.REPUL>
0

>  <SCORE.INTRA.REPUL.0>
0

>  <SCORE.INTRA.SOLV>
0

>  <SCORE.INTRA.SOLV.lig_0>
-23.8941

>  <SCORE.INTRA.VDW>
0

>  <SCORE.INTRA.VDW.0>
0

>  <SCORE.INTRA.norm>
0

>  <SCORE.RESTR>
0.36559

>  <SCORE.RESTR.CAVITY>
0.36559

>  <SCORE.RESTR.norm>
0.036559

>  <SCORE.SYSTEM>
0

>  <SCORE.SYSTEM.CONST>
0

>  <SCORE.SYSTEM.DIHEDRAL>
0

>  <SCORE.SYSTEM.SOLV>
0

>  <SCORE.SYSTEM.norm>
0

>  <SCORE.heavy>
10

>  <SCORE.norm>
-1.1609

>  <RMSD>
3.448

$$$$
ligand
 OpenBabel11021811513D
libRbt.so/2013.1/901 2013/11/27
 10 11  0  0  0  0  0  0  0  0999 V2000
  -29.5117   16.5894  -17.4365 N   0  0  0  0  0  0  0  0  0  0  0  0
  -29.2747   15.6314  -16.5318 C   0  0  0  0  0  0  0  0  0  0  0  0
  -29.6693   15.5633  -15.2615 N   0  0  0  0  0  0  0  0  0  0  0  0
  -30.3959   16.6417  -14.9293 C   0  0  0  0  0  0  0  0  0  0  0  0
  -30.7213   17.7065  -15.7467 C   0  0  0  0  0  0  0  0  0  0  0  0
  -30.2453   17.6608  -17.0722 C   0  0  0  0  0  0  0  0  0  0  0  0
  -30.4834   18.6198  -17.9736 N   0  0  0  0  0  0  0  0  0  0  0  0
  -31.4847   18.6365  -15.0615 N   0  0  0  0  0  0  0  0  0  0  0  0
  -31.6018   18.1222  -13.8594 C   0  0  0  0  0  0  0  0  0  0  0  0
  -30.9692   16.9197  -13.7091 N   0  0  0  0  0  0  0  0  0  0  0  0
  1  2  2  0  0  0  0
  1  6  1  0  0  0  0
  2  3  1  0  0  0  0
  3  4  2  0  0  0  0
  4  5  1  0  0  0  0
  4 10  1  0  0  0  0
  5  6  2  0  0  0  0
  5  8  1  0  0  0  0
  6  7  1  0  0  0  0
  8  9  1  0  0  0  0
  9 10  2  0  0  0  0
M  END
>  <CHROM.1>
-30.43481886,17.21347062,-15.76816575,-0.77699422,-0.98544751,2.11053445

>  <Name>
ligand

>  <RI>
0

>  <Rbt.Current_Directory>
/home/itssahil/PROJECTS/Mol_Feturizer/New_Systems/rnas/4TZY

>  <Rbt.Executable>
rbdock ($Id: //depot/dev/client3/rdock/2013.1/src/exe/rbdock.cxx#4 $)

>  <Rbt.Library>
libRbt.so (2013.1, Build901 2013/11/27)

>  <Rbt.Parameter_File>
/export/apps/rDock/src/rDock_2013.1_src/data/scripts/dock_solv.prm

>  <Rbt.Receptor>
prm/blind_docking_40.prm

>  <SCORE>
-11.8279

>  <SCORE.INTER>
-12.2549

>  <SCORE.INTER.CONST>
1

>  <SCORE.INTER.POLAR>
0

>  <SCORE.INTER.ROT>
0

>  <SCORE.INTER.SOLV>
10.7217

>  <SCORE.INTER.VDW>
-15.3438

>  <SCORE.INTER.norm>
-1.22549

>  <SCORE.INTRA>
0

>  <SCORE.INTRA.DIHEDRAL>
0

>  <SCORE.INTRA.DIHEDRAL.0>
0

>  <SCORE.INTRA.POLAR>
0

>  <SCORE.INTRA.POLAR.0>
0

>  <SCORE.INTRA.REPUL>
0

>  <SCORE.INTRA.REPUL.0>
0

>  <SCORE.INTRA.SOLV>
0

>  <SCORE.INTRA.SOLV.lig_0>
-23.8941

>  <SCORE.INTRA.VDW>
0

>  <SCORE.INTRA.VDW.0>
0

>  <SCORE.INTRA.norm>
0

>  <SCORE.RESTR>
0.426945

>  <SCORE.RESTR.CAVITY>
0.426945

>  <SCORE.RESTR.norm>
0.0426945

>  <SCORE.SYSTEM>
0

>  <SCORE.SYSTEM.CONST>
0

>  <SCORE.SYSTEM.DIHEDRAL>
0

>  <SCORE.SYSTEM.SOLV>
0

>  <SCORE.SYSTEM.norm>
0

>  <SCORE.heavy>
10

>  <SCORE.norm>
-1.18279

>  <RMSD>
3.456

$$$$
ligand
 OpenBabel11021811513D
libRbt.so/2013.1/901 2013/11/27
 10 11  0  0  0  0  0  0  0  0999 V2000
  -29.4974   16.7332  -17.5818 N   0  0  0  0  0  0  0  0  0  0  0  0
  -29.2263   15.7639  -16.6990 C   0  0  0  0  0  0  0  0  0  0  0  0
  -29.6204   15.6515  -15.4317 N   0  0  0  0  0  0  0  0  0  0  0  0
  -30.3875   16.6940  -15.0765 C   0  0  0  0  0  0  0  0  0  0  0  0
  -30.7510   17.7646  -15.8697 C   0  0  0  0  0  0  0  0  0  0  0  0
  -30.2712   17.7677  -17.1946 C   0  0  0  0  0  0  0  0  0  0  0  0
  -30.5434   18.7379  -18.0742 N   0  0  0  0  0  0  0  0  0  0  0  0
  -31.5500   18.6493  -15.1652 N   0  0  0  0  0  0  0  0  0  0  0  0
  -31.6499   18.1030  -13.9757 C   0  0  0  0  0  0  0  0  0  0  0  0
  -30.9730   16.9218  -13.8517 N   0  0  0  0  0  0  0  0  0  0  0  0
  1  2  2  0  0  0  0
  1  6  1  0  0  0  0
  2  3  1  0  0  0  0
  3  4  2  0  0  0  0
  4  5  1  0  0  0  0
  4 10  1  0  0  0  0
  5  6  2  0  0  0  0
  5  8  1  0  0  0  0
  6  7  1  0  0  0  0
  8  9  1  0  0  0  0
  9 10  2  0  0  0  0
M  END
>  <CHROM.1>
-30.44623561,17.28329040,-15.90189201,-0.80745798,-0.95218502,2.10872138

>  <Name>
ligand

>  <RI>
0

>  <Rbt.Current_Directory>
/home/itssahil/PROJECTS/Mol_Feturizer/New_Systems/rnas/4TZY

>  <Rbt.Executable>
rbdock ($Id: //depot/dev/client3/rdock/2013.1/src/exe/rbdock.cxx#4 $)

>  <Rbt.Library>
libRbt.so (2013.1, Build901 2013/11/27)

>  <Rbt.Parameter_File>
/export/apps/rDock/src/rDock_2013.1_src/data/scripts/dock_solv.prm

>  <Rbt.Receptor>
prm/pocket_docking_7.prm

>  <SCORE>
-12.5742

>  <SCORE.INTER>
-12.5742

>  <SCORE.INTER.CONST>
1

>  <SCORE.INTER.POLAR>
0

>  <SCORE.INTER.ROT>
0

>  <SCORE.INTER.SOLV>
10.9255

>  <SCORE.INTER.VDW>
-15.6246

>  <SCORE.INTER.norm>
-1.25742

>  <SCORE.INTRA>
0

>  <SCORE.INTRA.DIHEDRAL>
0

>  <SCORE.INTRA.DIHEDRAL.0>
0

>  <SCORE.INTRA.POLAR>
0

>  <SCORE.INTRA.POLAR.0>
0

>  <SCORE.INTRA.REPUL>
0

>  <SCORE.INTRA.REPUL.0>
0

>  <SCORE.INTRA.SOLV>
0

>  <SCORE.INTRA.SOLV.lig_0>
-23.8941

>  <SCORE.INTRA.VDW>
0

>  <SCORE.INTRA.VDW.0>
0

>  <SCORE.INTRA.norm>
0

>  <SCORE.RESTR>
0

>  <SCORE.RESTR.CAVITY>
0

>  <SCORE.RESTR.norm>
0

>  <SCORE.SYSTEM>
0

>  <SCORE.SYSTEM.CONST>
0

>  <SCORE.SYSTEM.DIHEDRAL>
0

>  <SCORE.SYSTEM.SOLV>
0

>  <SCORE.SYSTEM.norm>
0

>  <SCORE.heavy>
10

>  <SCORE.norm>
-1.25742

>  <RMSD>
3.460

$$$$
ligand
 OpenBabel11021811513D
libRbt.so/2013.1/901 2013/11/27
 10 11  0  0  0  0  0  0  0  0999 V2000
  -29.5085   16.7308  -17.5907 N   0  0  0  0  0  0  0  0  0  0  0  0
  -29.2320   15.7639  -16.7070 C   0  0  0  0  0  0  0  0  0  0  0  0
  -29.6197   15.6539  -15.4375 N   0  0  0  0  0  0  0  0  0  0  0  0
  -30.3862   16.6963  -15.0809 C   0  0  0  0  0  0  0  0  0  0  0  0
  -30.7549   17.7647  -15.8748 C   0  0  0  0  0  0  0  0  0  0  0  0
  -30.2816   17.7653  -17.2021 C   0  0  0  0  0  0  0  0  0  0  0  0
  -30.5593   18.7331  -18.0825 N   0  0  0  0  0  0  0  0  0  0  0  0
  -31.5514   18.6500  -15.1684 N   0  0  0  0  0  0  0  0  0  0  0  0
  -31.6449   18.1064  -13.9772 C   0  0  0  0  0  0  0  0  0  0  0  0
  -30.9660   16.9263  -13.8538 N   0  0  0  0  0  0  0  0  0  0  0  0
  1  2  2  0  0  0  0
  1  6  1  0  0  0  0
  2  3  1  0  0  0  0
  3  4  2  0  0  0  0
  4  5  1  0  0  0  0
  4 10  1  0  0  0  0
  5  6  2  0  0  0  0
  5  8  1  0  0  0  0
  6  7  1  0  0  0  0
  8  9  1  0  0  0  0
  9 10  2  0  0  0  0
M  END
>  <CHROM.1>
-30.44971813,17.28365940,-15.90741827,-0.81580687,-0.95368584,2.09960459

>  <Name>
ligand

>  <RI>
0

>  <Rbt.Current_Directory>
/home/itssahil/PROJECTS/Mol_Feturizer/New_Systems/rnas/4TZY

>  <Rbt.Executable>
rbdock ($Id: //depot/dev/client3/rdock/2013.1/src/exe/rbdock.cxx#4 $)

>  <Rbt.Library>
libRbt.so (2013.1, Build901 2013/11/27)

>  <Rbt.Parameter_File>
/export/apps/rDock/src/rDock_2013.1_src/data/scripts/dock_solv.prm

>  <Rbt.Receptor>
prm/pocket_docking_6.prm

>  <SCORE>
-12.5739

>  <SCORE.INTER>
-12.5739

>  <SCORE.INTER.CONST>
1

>  <SCORE.INTER.POLAR>
0

>  <SCORE.INTER.ROT>
0

>  <SCORE.INTER.SOLV>
10.87

>  <SCORE.INTER.VDW>
-15.6059

>  <SCORE.INTER.norm>
-1.25739

>  <SCORE.INTRA>
0

>  <SCORE.INTRA.DIHEDRAL>
0

>  <SCORE.INTRA.DIHEDRAL.0>
0

>  <SCORE.INTRA.POLAR>
0

>  <SCORE.INTRA.POLAR.0>
0

>  <SCORE.INTRA.REPUL>
0

>  <SCORE.INTRA.REPUL.0>
0

>  <SCORE.INTRA.SOLV>
0

>  <SCORE.INTRA.SOLV.lig_0>
-23.8941

>  <SCORE.INTRA.VDW>
0

>  <SCORE.INTRA.VDW.0>
0

>  <SCORE.INTRA.norm>
0

>  <SCORE.RESTR>
0

>  <SCORE.RESTR.CAVITY>
0

>  <SCORE.RESTR.norm>
0

>  <SCORE.SYSTEM>
0

>  <SCORE.SYSTEM.CONST>
0

>  <SCORE.SYSTEM.DIHEDRAL>
0

>  <SCORE.SYSTEM.SOLV>
0

>  <SCORE.SYSTEM.norm>
0

>  <SCORE.heavy>
10

>  <SCORE.norm>
-1.25739

>  <RMSD>
3.461

$$$$
ligand
 OpenBabel11021811513D
libRbt.so/2013.1/901 2013/11/27
 10 11  0  0  0  0  0  0  0  0999 V2000
  -29.5088   16.7139  -17.5525 N   0  0  0  0  0  0  0  0  0  0  0  0
  -29.2485   15.7325  -16.6800 C   0  0  0  0  0  0  0  0  0  0  0  0
  -29.6426   15.6118  -15.4134 N   0  0  0  0  0  0  0  0  0  0  0  0
  -30.3966   16.6598  -15.0466 C   0  0  0  0  0  0  0  0  0  0  0  0
  -30.7480   17.7428  -15.8284 C   0  0  0  0  0  0  0  0  0  0  0  0
  -30.2696   17.7537  -17.1538 C   0  0  0  0  0  0  0  0  0  0  0  0
  -30.5310   18.7361  -18.0230 N   0  0  0  0  0  0  0  0  0  0  0  0
  -31.5354   18.6298  -15.1139 N   0  0  0  0  0  0  0  0  0  0  0  0
  -31.6407   18.0726  -13.9300 C   0  0  0  0  0  0  0  0  0  0  0  0
  -30.9780   16.8821  -13.8189 N   0  0  0  0  0  0  0  0  0  0  0  0
  1  2  2  0  0  0  0
  1  6  1  0  0  0  0
  2  3  1  0  0  0  0
  3  4  2  0  0  0  0
  4  5  1  0  0  0  0
  4 10  1  0  0  0  0
  5  6  2  0  0  0  0
  5  8  1  0  0  0  0
  6  7  1  0  0  0  0
  8  9  1  0  0  0  0
  9 10  2  0  0  0  0
M  END
>  <CHROM.1>
-30.44908998,17.25819716,-15.86590056,-0.79821662,-0.96309372,2.12652834

>  <Name>
ligand

>  <RI>
0

>  <Rbt.Current_Directory>
/home/itssahil/PROJECTS/Mol_Feturizer/New_Systems/rnas/4TZY

>  <Rbt.Executable>
rbdock ($Id: //depot/dev/client3/rdock/2013.1/src/exe/rbdock.cxx#4 $)

>  <Rbt.Library>
libRbt.so (2013.1, Build901 2013/11/27)

>  <Rbt.Parameter_File>
/export/apps/rDock/src/rDock_2013.1_src/data/scripts/dock_solv.prm

>  <Rbt.Receptor>
prm/blind_docking_80.prm

>  <SCORE>
-12.5635

>  <SCORE.INTER>
-12.5637

>  <SCORE.INTER.CONST>
1

>  <SCORE.INTER.POLAR>
0

>  <SCORE.INTER.ROT>
0

>  <SCORE.INTER.SOLV>
10.8755

>  <SCORE.INTER.VDW>
-15.6009

>  <SCORE.INTER.norm>
-1.25637

>  <SCORE.INTRA>
0

>  <SCORE.INTRA.DIHEDRAL>
0

>  <SCORE.INTRA.DIHEDRAL.0>
0

>  <SCORE.INTRA.POLAR>
0

>  <SCORE.INTRA.POLAR.0>
0

>  <SCORE.INTRA.REPUL>
0

>  <SCORE.INTRA.REPUL.0>
0

>  <SCORE.INTRA.SOLV>
0

>  <SCORE.INTRA.SOLV.lig_0>
-23.8941

>  <SCORE.INTRA.VDW>
0

>  <SCORE.INTRA.VDW.0>
0

>  <SCORE.INTRA.norm>
0

>  <SCORE.RESTR>
0.000200075

>  <SCORE.RESTR.CAVITY>
0.000200075

>  <SCORE.RESTR.norm>
2.00075e-05

>  <SCORE.SYSTEM>
0

>  <SCORE.SYSTEM.CONST>
0

>  <SCORE.SYSTEM.DIHEDRAL>
0

>  <SCORE.SYSTEM.SOLV>
0

>  <SCORE.SYSTEM.norm>
0

>  <SCORE.heavy>
10

>  <SCORE.norm>
-1.25635

>  <RMSD>
3.469

$$$$
ligand
 OpenBabel11021811513D
libRbt.so/2013.1/901 2013/11/27
 10 11  0  0  0  0  0  0  0  0999 V2000
  -29.5066   16.7217  -17.5524 N   0  0  0  0  0  0  0  0  0  0  0  0
  -29.2485   15.7380  -16.6817 C   0  0  0  0  0  0  0  0  0  0  0  0
  -29.6464   15.6139  -15.4167 N   0  0  0  0  0  0  0  0  0  0  0  0
  -30.4020   16.6605  -15.0494 C   0  0  0  0  0  0  0  0  0  0  0  0
  -30.7516   17.7454  -15.8295 C   0  0  0  0  0  0  0  0  0  0  0  0
  -30.2691   17.7600  -17.1533 C   0  0  0  0  0  0  0  0  0  0  0  0
  -30.5283   18.7445  -18.0208 N   0  0  0  0  0  0  0  0  0  0  0  0
  -31.5416   18.6301  -15.1150 N   0  0  0  0  0  0  0  0  0  0  0  0
  -31.6503   18.0698  -13.9329 C   0  0  0  0  0  0  0  0  0  0  0  0
  -30.9873   16.8793  -13.8229 N   0  0  0  0  0  0  0  0  0  0  0  0
  1  2  2  0  0  0  0
  1  6  1  0  0  0  0
  2  3  1  0  0  0  0
  3  4  2  0  0  0  0
  4  5  1  0  0  0  0
  4 10  1  0  0  0  0
  5  6  2  0  0  0  0
  5  8  1  0  0  0  0
  6  7  1  0  0  0  0
  8  9  1  0  0  0  0
  9 10  2  0  0  0  0
M  END
>  <CHROM.1>
-30.45231402,17.26102723,-15.86728449,-0.79413068,-0.96104981,2.13249959

>  <Name>
ligand

>  <RI>
0

>  <Rbt.Current_Directory>
/home/itssahil/PROJECTS/Mol_Feturizer/New_Systems/rnas/4TZY

>  <Rbt.Executable>
rbdock ($Id: //depot/dev/client3/rdock/2013.1/src/exe/rbdock.cxx#4 $)

>  <Rbt.Library>
libRbt.so (2013.1, Build901 2013/11/27)

>  <Rbt.Parameter_File>
/export/apps/rDock/src/rDock_2013.1_src/data/scripts/dock_solv.prm

>  <Rbt.Receptor>
prm/blind_docking_80.prm

>  <SCORE>
-12.5624

>  <SCORE.INTER>
-12.5626

>  <SCORE.INTER.CONST>
1

>  <SCORE.INTER.POLAR>
0

>  <SCORE.INTER.ROT>
0

>  <SCORE.INTER.SOLV>
10.907

>  <SCORE.INTER.VDW>
-15.6107

>  <SCORE.INTER.norm>
-1.25626

>  <SCORE.INTRA>
0

>  <SCORE.INTRA.DIHEDRAL>
0

>  <SCORE.INTRA.DIHEDRAL.0>
0

>  <SCORE.INTRA.POLAR>
0

>  <SCORE.INTRA.POLAR.0>
0

>  <SCORE.INTRA.REPUL>
0

>  <SCORE.INTRA.REPUL.0>
0

>  <SCORE.INTRA.SOLV>
0

>  <SCORE.INTRA.SOLV.lig_0>
-23.8941

>  <SCORE.INTRA.VDW>
0

>  <SCORE.INTRA.VDW.0>
0

>  <SCORE.INTRA.norm>
0

>  <SCORE.RESTR>
0.000155183

>  <SCORE.RESTR.CAVITY>
0.000155183

>  <SCORE.RESTR.norm>
1.55183e-05

>  <SCORE.SYSTEM>
0

>  <SCORE.SYSTEM.CONST>
0

>  <SCORE.SYSTEM.DIHEDRAL>
0

>  <SCORE.SYSTEM.SOLV>
0

>  <SCORE.SYSTEM.norm>
0

>  <SCORE.heavy>
10

>  <SCORE.norm>
-1.25624

>  <RMSD>
3.469

$$$$
ligand
 OpenBabel11021811513D
libRbt.so/2013.1/901 2013/11/27
 10 11  0  0  0  0  0  0  0  0999 V2000
  -29.5062   16.7190  -17.5611 N   0  0  0  0  0  0  0  0  0  0  0  0
  -29.2534   15.7310  -16.6938 C   0  0  0  0  0  0  0  0  0  0  0  0
  -29.6515   15.6048  -15.4290 N   0  0  0  0  0  0  0  0  0  0  0  0
  -30.4010   16.6545  -15.0580 C   0  0  0  0  0  0  0  0  0  0  0  0
  -30.7447   17.7440  -15.8342 C   0  0  0  0  0  0  0  0  0  0  0  0
  -30.2626   17.7603  -17.1582 C   0  0  0  0  0  0  0  0  0  0  0  0
  -30.5165   18.7493  -18.0222 N   0  0  0  0  0  0  0  0  0  0  0  0
  -31.5294   18.6308  -15.1165 N   0  0  0  0  0  0  0  0  0  0  0  0
  -31.6408   18.0671  -13.9362 C   0  0  0  0  0  0  0  0  0  0  0  0
  -30.9846   16.8725  -13.8304 N   0  0  0  0  0  0  0  0  0  0  0  0
  1  2  2  0  0  0  0
  1  6  1  0  0  0  0
  2  3  1  0  0  0  0
  3  4  2  0  0  0  0
  4  5  1  0  0  0  0
  4 10  1  0  0  0  0
  5  6  2  0  0  0  0
  5  8  1  0  0  0  0
  6  7  1  0  0  0  0
  8  9  1  0  0  0  0
  9 10  2  0  0  0  0
M  END
>  <CHROM.1>
-30.44818140,17.25808319,-15.87377620,-0.78932326,-0.96607762,2.13983244

>  <Name>
ligand

>  <RI>
0

>  <Rbt.Current_Directory>
/home/itssahil/PROJECTS/Mol_Feturizer/New_Systems/rnas/4TZY

>  <Rbt.Executable>
rbdock ($Id: //depot/dev/client3/rdock/2013.1/src/exe/rbdock.cxx#4 $)

>  <Rbt.Library>
libRbt.so (2013.1, Build901 2013/11/27)

>  <Rbt.Parameter_File>
/export/apps/rDock/src/rDock_2013.1_src/data/scripts/dock_solv.prm

>  <Rbt.Receptor>
prm/blind_docking_80.prm

>  <SCORE>
-12.5643

>  <SCORE.INTER>
-12.5646

>  <SCORE.INTER.CONST>
1

>  <SCORE.INTER.POLAR>
0

>  <SCORE.INTER.ROT>
0

>  <SCORE.INTER.SOLV>
10.9734

>  <SCORE.INTER.VDW>
-15.6342

>  <SCORE.INTER.norm>
-1.25646

>  <SCORE.INTRA>
0

>  <SCORE.INTRA.DIHEDRAL>
0

>  <SCORE.INTRA.DIHEDRAL.0>
0

>  <SCORE.INTRA.POLAR>
0

>  <SCORE.INTRA.POLAR.0>
0

>  <SCORE.INTRA.REPUL>
0

>  <SCORE.INTRA.REPUL.0>
0

>  <SCORE.INTRA.SOLV>
0

>  <SCORE.INTRA.SOLV.lig_0>
-23.8941

>  <SCORE.INTRA.VDW>
0

>  <SCORE.INTRA.VDW.0>
0

>  <SCORE.INTRA.norm>
0

>  <SCORE.RESTR>
0.000319615

>  <SCORE.RESTR.CAVITY>
0.000319615

>  <SCORE.RESTR.norm>
3.19615e-05

>  <SCORE.SYSTEM>
0

>  <SCORE.SYSTEM.CONST>
0

>  <SCORE.SYSTEM.DIHEDRAL>
0

>  <SCORE.SYSTEM.SOLV>
0

>  <SCORE.SYSTEM.norm>
0

>  <SCORE.heavy>
10

>  <SCORE.norm>
-1.25643

>  <RMSD>
3.469

$$$$
ligand
 OpenBabel11021811513D
libRbt.so/2013.1/901 2013/11/27
 10 11  0  0  0  0  0  0  0  0999 V2000
  -29.5177   16.7598  -17.5827 N   0  0  0  0  0  0  0  0  0  0  0  0
  -29.2132   15.7954  -16.7054 C   0  0  0  0  0  0  0  0  0  0  0  0
  -29.5839   15.6746  -15.4318 N   0  0  0  0  0  0  0  0  0  0  0  0
  -30.3650   16.7018  -15.0629 C   0  0  0  0  0  0  0  0  0  0  0  0
  -30.7625   17.7656  -15.8490 C   0  0  0  0  0  0  0  0  0  0  0  0
  -30.3049   17.7788  -17.1817 C   0  0  0  0  0  0  0  0  0  0  0  0
  -30.6105   18.7442  -18.0557 N   0  0  0  0  0  0  0  0  0  0  0  0
  -31.5665   18.6342  -15.1305 N   0  0  0  0  0  0  0  0  0  0  0  0
  -31.6361   18.0854  -13.9400 C   0  0  0  0  0  0  0  0  0  0  0  0
  -30.9344   16.9174  -13.8283 N   0  0  0  0  0  0  0  0  0  0  0  0
  1  2  2  0  0  0  0
  1  6  1  0  0  0  0
  2  3  1  0  0  0  0
  3  4  2  0  0  0  0
  4  5  1  0  0  0  0
  4 10  1  0  0  0  0
  5  6  2  0  0  0  0
  5  8  1  0  0  0  0
  6  7  1  0  0  0  0
  8  9  1  0  0  0  0
  9 10  2  0  0  0  0
M  END
>  <CHROM.1>
-30.44894328,17.29035149,-15.88670856,-0.84877089,-0.94365051,2.07593951

>  <Name>
ligand

>  <RI>
0

>  <Rbt.Current_Directory>
/home/itssahil/PROJECTS/Mol_Feturizer/New_Systems/rnas/4TZY

>  <Rbt.Executable>
rbdock ($Id: //depot/dev/client3/rdock/2013.1/src/exe/rbdock.cxx#4 $)

>  <Rbt.Library>
libRbt.so (2013.1, Build901 2013/11/27)

>  <Rbt.Parameter_File>
/export/apps/rDock/src/rDock_2013.1_src/data/scripts/dock_solv.prm

>  <Rbt.Receptor>
prm/blind_docking_60.prm

>  <SCORE>
-12.5291

>  <SCORE.INTER>
-12.5291

>  <SCORE.INTER.CONST>
1

>  <SCORE.INTER.POLAR>
0

>  <SCORE.INTER.ROT>
0

>  <SCORE.INTER.SOLV>
10.6219

>  <SCORE.INTER.VDW>
-15.4934

>  <SCORE.INTER.norm>
-1.25291

>  <SCORE.INTRA>
0

>  <SCORE.INTRA.DIHEDRAL>
0

>  <SCORE.INTRA.DIHEDRAL.0>
0

>  <SCORE.INTRA.POLAR>
0

>  <SCORE.INTRA.POLAR.0>
0

>  <SCORE.INTRA.REPUL>
0

>  <SCORE.INTRA.REPUL.0>
0

>  <SCORE.INTRA.SOLV>
0

>  <SCORE.INTRA.SOLV.lig_0>
-23.8941

>  <SCORE.INTRA.VDW>
0

>  <SCORE.INTRA.VDW.0>
0

>  <SCORE.INTRA.norm>
0

>  <SCORE.RESTR>
0

>  <SCORE.RESTR.CAVITY>
0

>  <SCORE.RESTR.norm>
0

>  <SCORE.SYSTEM>
0

>  <SCORE.SYSTEM.CONST>
0

>  <SCORE.SYSTEM.DIHEDRAL>
0

>  <SCORE.SYSTEM.SOLV>
0

>  <SCORE.SYSTEM.norm>
0

>  <SCORE.heavy>
10

>  <SCORE.norm>
-1.25291

>  <RMSD>
3.474

$$$$
ligand
 OpenBabel11021811513D
libRbt.so/2013.1/901 2013/11/27
 10 11  0  0  0  0  0  0  0  0999 V2000
  -29.5240   16.7315  -17.5790 N   0  0  0  0  0  0  0  0  0  0  0  0
  -29.2311   15.7607  -16.7048 C   0  0  0  0  0  0  0  0  0  0  0  0
  -29.5997   15.6424  -15.4304 N   0  0  0  0  0  0  0  0  0  0  0  0
  -30.3644   16.6802  -15.0567 C   0  0  0  0  0  0  0  0  0  0  0  0
  -30.7484   17.7516  -15.8391 C   0  0  0  0  0  0  0  0  0  0  0  0
  -30.2948   17.7611  -17.1732 C   0  0  0  0  0  0  0  0  0  0  0  0
  -30.5888   18.7328  -18.0441 N   0  0  0  0  0  0  0  0  0  0  0  0
  -31.5374   18.6302  -15.1161 N   0  0  0  0  0  0  0  0  0  0  0  0
  -31.6114   18.0797  -13.9267 C   0  0  0  0  0  0  0  0  0  0  0  0
  -30.9267   16.9013  -13.8199 N   0  0  0  0  0  0  0  0  0  0  0  0
  1  2  2  0  0  0  0
  1  6  1  0  0  0  0
  2  3  1  0  0  0  0
  3  4  2  0  0  0  0
  4  5  1  0  0  0  0
  4 10  1  0  0  0  0
  5  6  2  0  0  0  0
  5  8  1  0  0  0  0
  6  7  1  0  0  0  0
  8  9  1  0  0  0  0
  9 10  2  0  0  0  0
M  END
>  <CHROM.1>
-30.44210285,17.27179538,-15.87888873,-0.84100060,-0.95804278,2.08455994

>  <Name>
ligand

>  <RI>
0

>  <Rbt.Current_Directory>
/home/itssahil/PROJECTS/Mol_Feturizer/New_Systems/rnas/4TZY

>  <Rbt.Executable>
rbdock ($Id: //depot/dev/client3/rdock/2013.1/src/exe/rbdock.cxx#4 $)

>  <Rbt.Library>
libRbt.so (2013.1, Build901 2013/11/27)

>  <Rbt.Parameter_File>
/export/apps/rDock/src/rDock_2013.1_src/data/scripts/dock_solv.prm

>  <Rbt.Receptor>
prm/blind_docking_100.prm

>  <SCORE>
-12.5808

>  <SCORE.INTER>
-12.5808

>  <SCORE.INTER.CONST>
1

>  <SCORE.INTER.POLAR>
0

>  <SCORE.INTER.ROT>
0

>  <SCORE.INTER.SOLV>
10.657

>  <SCORE.INTER.VDW>
-15.5395

>  <SCORE.INTER.norm>
-1.25808

>  <SCORE.INTRA>
0

>  <SCORE.INTRA.DIHEDRAL>
0

>  <SCORE.INTRA.DIHEDRAL.0>
0

>  <SCORE.INTRA.POLAR>
0

>  <SCORE.INTRA.POLAR.0>
0

>  <SCORE.INTRA.REPUL>
0

>  <SCORE.INTRA.REPUL.0>
0

>  <SCORE.INTRA.SOLV>
0

>  <SCORE.INTRA.SOLV.lig_0>
-23.8941

>  <SCORE.INTRA.VDW>
0

>  <SCORE.INTRA.VDW.0>
0

>  <SCORE.INTRA.norm>
0

>  <SCORE.RESTR>
0

>  <SCORE.RESTR.CAVITY>
0

>  <SCORE.RESTR.norm>
0

>  <SCORE.SYSTEM>
0

>  <SCORE.SYSTEM.CONST>
0

>  <SCORE.SYSTEM.DIHEDRAL>
0

>  <SCORE.SYSTEM.SOLV>
0

>  <SCORE.SYSTEM.norm>
0

>  <SCORE.heavy>
10

>  <SCORE.norm>
-1.25808

>  <RMSD>
3.475

$$$$
ligand
 OpenBabel11021811513D
libRbt.so/2013.1/901 2013/11/27
 10 11  0  0  0  0  0  0  0  0999 V2000
  -29.5244   16.7365  -17.5752 N   0  0  0  0  0  0  0  0  0  0  0  0
  -29.2300   15.7667  -16.7004 C   0  0  0  0  0  0  0  0  0  0  0  0
  -29.6003   15.6476  -15.4265 N   0  0  0  0  0  0  0  0  0  0  0  0
  -30.3685   16.6832  -15.0543 C   0  0  0  0  0  0  0  0  0  0  0  0
  -30.7545   17.7533  -15.8376 C   0  0  0  0  0  0  0  0  0  0  0  0
  -30.2988   17.7639  -17.1709 C   0  0  0  0  0  0  0  0  0  0  0  0
  -30.5942   18.7346  -18.0424 N   0  0  0  0  0  0  0  0  0  0  0  0
  -31.5472   18.6298  -15.1160 N   0  0  0  0  0  0  0  0  0  0  0  0
  -31.6214   18.0794  -13.9266 C   0  0  0  0  0  0  0  0  0  0  0  0
  -30.9335   16.9030  -13.8184 N   0  0  0  0  0  0  0  0  0  0  0  0
  1  2  2  0  0  0  0
  1  6  1  0  0  0  0
  2  3  1  0  0  0  0
  3  4  2  0  0  0  0
  4  5  1  0  0  0  0
  4 10  1  0  0  0  0
  5  6  2  0  0  0  0
  5  8  1  0  0  0  0
  6  7  1  0  0  0  0
  8  9  1  0  0  0  0
  9 10  2  0  0  0  0
M  END
>  <CHROM.1>
-30.44671144,17.27443380,-15.87673042,-0.84107290,-0.95472748,2.08428987

>  <Name>
ligand

>  <RI>
0

>  <Rbt.Current_Directory>
/home/itssahil/PROJECTS/Mol_Feturizer/New_Systems/rnas/4TZY

>  <Rbt.Executable>
rbdock ($Id: //depot/dev/client3/rdock/2013.1/src/exe/rbdock.cxx#4 $)

>  <Rbt.Library>
libRbt.so (2013.1, Build901 2013/11/27)

>  <Rbt.Parameter_File>
/export/apps/rDock/src/rDock_2013.1_src/data/scripts/dock_solv.prm

>  <Rbt.Receptor>
prm/blind_docking_100.prm

>  <SCORE>
-12.5801

>  <SCORE.INTER>
-12.5801

>  <SCORE.INTER.CONST>
1

>  <SCORE.INTER.POLAR>
0

>  <SCORE.INTER.ROT>
0

>  <SCORE.INTER.SOLV>
10.6361

>  <SCORE.INTER.VDW>
-15.5321

>  <SCORE.INTER.norm>
-1.25801

>  <SCORE.INTRA>
0

>  <SCORE.INTRA.DIHEDRAL>
0

>  <SCORE.INTRA.DIHEDRAL.0>
0

>  <SCORE.INTRA.POLAR>
0

>  <SCORE.INTRA.POLAR.0>
0

>  <SCORE.INTRA.REPUL>
0

>  <SCORE.INTRA.REPUL.0>
0

>  <SCORE.INTRA.SOLV>
0

>  <SCORE.INTRA.SOLV.lig_0>
-23.8941

>  <SCORE.INTRA.VDW>
0

>  <SCORE.INTRA.VDW.0>
0

>  <SCORE.INTRA.norm>
0

>  <SCORE.RESTR>
0

>  <SCORE.RESTR.CAVITY>
0

>  <SCORE.RESTR.norm>
0

>  <SCORE.SYSTEM>
0

>  <SCORE.SYSTEM.CONST>
0

>  <SCORE.SYSTEM.DIHEDRAL>
0

>  <SCORE.SYSTEM.SOLV>
0

>  <SCORE.SYSTEM.norm>
0

>  <SCORE.heavy>
10

>  <SCORE.norm>
-1.25801

>  <RMSD>
3.475

$$$$
ligand
 OpenBabel11021811513D
libRbt.so/2013.1/901 2013/11/27
 10 11  0  0  0  0  0  0  0  0999 V2000
  -29.5316   16.7304  -17.5831 N   0  0  0  0  0  0  0  0  0  0  0  0
  -29.2306   15.7638  -16.7071 C   0  0  0  0  0  0  0  0  0  0  0  0
  -29.5921   15.6485  -15.4304 N   0  0  0  0  0  0  0  0  0  0  0  0
  -30.3587   16.6848  -15.0564 C   0  0  0  0  0  0  0  0  0  0  0  0
  -30.7508   17.7520  -15.8405 C   0  0  0  0  0  0  0  0  0  0  0  0
  -30.3040   17.7586  -17.1770 C   0  0  0  0  0  0  0  0  0  0  0  0
  -30.6061   18.7262  -18.0496 N   0  0  0  0  0  0  0  0  0  0  0  0
  -31.5392   18.6303  -15.1165 N   0  0  0  0  0  0  0  0  0  0  0  0
  -31.6050   18.0837  -13.9248 C   0  0  0  0  0  0  0  0  0  0  0  0
  -30.9155   16.9082  -13.8174 N   0  0  0  0  0  0  0  0  0  0  0  0
  1  2  2  0  0  0  0
  1  6  1  0  0  0  0
  2  3  1  0  0  0  0
  3  4  2  0  0  0  0
  4  5  1  0  0  0  0
  4 10  1  0  0  0  0
  5  6  2  0  0  0  0
  5  8  1  0  0  0  0
  6  7  1  0  0  0  0
  8  9  1  0  0  0  0
  9 10  2  0  0  0  0
M  END
>  <CHROM.1>
-30.44286114,17.27326091,-15.88020160,-0.85194501,-0.95733266,2.07213269

>  <Name>
ligand

>  <RI>
0

>  <Rbt.Current_Directory>
/home/itssahil/PROJECTS/Mol_Feturizer/New_Systems/rnas/4TZY

>  <Rbt.Executable>
rbdock ($Id: //depot/dev/client3/rdock/2013.1/src/exe/rbdock.cxx#4 $)

>  <Rbt.Library>
libRbt.so (2013.1, Build901 2013/11/27)

>  <Rbt.Parameter_File>
/export/apps/rDock/src/rDock_2013.1_src/data/scripts/dock_solv.prm

>  <Rbt.Receptor>
prm/blind_docking_80.prm

>  <SCORE>
-12.582

>  <SCORE.INTER>
-12.582

>  <SCORE.INTER.CONST>
1

>  <SCORE.INTER.POLAR>
0

>  <SCORE.INTER.ROT>
0

>  <SCORE.INTER.SOLV>
10.5776

>  <SCORE.INTER.VDW>
-15.5139

>  <SCORE.INTER.norm>
-1.2582

>  <SCORE.INTRA>
0

>  <SCORE.INTRA.DIHEDRAL>
0

>  <SCORE.INTRA.DIHEDRAL.0>
0

>  <SCORE.INTRA.POLAR>
0

>  <SCORE.INTRA.POLAR.0>
0

>  <SCORE.INTRA.REPUL>
0

>  <SCORE.INTRA.REPUL.0>
0

>  <SCORE.INTRA.SOLV>
0

>  <SCORE.INTRA.SOLV.lig_0>
-23.8941

>  <SCORE.INTRA.VDW>
0

>  <SCORE.INTRA.VDW.0>
0

>  <SCORE.INTRA.norm>
0

>  <SCORE.RESTR>
0

>  <SCORE.RESTR.CAVITY>
0

>  <SCORE.RESTR.norm>
0

>  <SCORE.SYSTEM>
0

>  <SCORE.SYSTEM.CONST>
0

>  <SCORE.SYSTEM.DIHEDRAL>
0

>  <SCORE.SYSTEM.SOLV>
0

>  <SCORE.SYSTEM.norm>
0

>  <SCORE.heavy>
10

>  <SCORE.norm>
-1.2582

>  <RMSD>
3.476

$$$$
ligand
 OpenBabel11021811513D
libRbt.so/2013.1/901 2013/11/27
 10 11  0  0  0  0  0  0  0  0999 V2000
  -29.5334   16.7686  -17.5797 N   0  0  0  0  0  0  0  0  0  0  0  0
  -29.2376   15.7926  -16.7123 C   0  0  0  0  0  0  0  0  0  0  0  0
  -29.6126   15.6601  -15.4411 N   0  0  0  0  0  0  0  0  0  0  0  0
  -30.3882   16.6882  -15.0630 C   0  0  0  0  0  0  0  0  0  0  0  0
  -30.7766   17.7632  -15.8384 C   0  0  0  0  0  0  0  0  0  0  0  0
  -30.3151   17.7882  -17.1696 C   0  0  0  0  0  0  0  0  0  0  0  0
  -30.6121   18.7650  -18.0337 N   0  0  0  0  0  0  0  0  0  0  0  0
  -31.5771   18.6289  -15.1125 N   0  0  0  0  0  0  0  0  0  0  0  0
  -31.6535   18.0674  -13.9284 C   0  0  0  0  0  0  0  0  0  0  0  0
  -30.9596   16.8939  -13.8277 N   0  0  0  0  0  0  0  0  0  0  0  0
  1  2  2  0  0  0  0
  1  6  1  0  0  0  0
  2  3  1  0  0  0  0
  3  4  2  0  0  0  0
  4  5  1  0  0  0  0
  4 10  1  0  0  0  0
  5  6  2  0  0  0  0
  5  8  1  0  0  0  0
  6  7  1  0  0  0  0
  8  9  1  0  0  0  0
  9 10  2  0  0  0  0
M  END
>  <CHROM.1>
-30.46599604,17.28634110,-15.88046735,-0.83923458,-0.94786943,2.09471835

>  <Name>
ligand

>  <RI>
0

>  <Rbt.Current_Directory>
/home/itssahil/PROJECTS/Mol_Feturizer/New_Systems/rnas/4TZY

>  <Rbt.Executable>
rbdock ($Id: //depot/dev/client3/rdock/2013.1/src/exe/rbdock.cxx#4 $)

>  <Rbt.Library>
libRbt.so (2013.1, Build901 2013/11/27)

>  <Rbt.Parameter_File>
/export/apps/rDock/src/rDock_2013.1_src/data/scripts/dock_solv.prm

>  <Rbt.Receptor>
prm/blind_docking_80.prm

>  <SCORE>
-12.5702

>  <SCORE.INTER>
-12.5702

>  <SCORE.INTER.CONST>
1

>  <SCORE.INTER.POLAR>
0

>  <SCORE.INTER.ROT>
0

>  <SCORE.INTER.SOLV>
10.6624

>  <SCORE.INTER.VDW>
-15.5343

>  <SCORE.INTER.norm>
-1.25702

>  <SCORE.INTRA>
0

>  <SCORE.INTRA.DIHEDRAL>
0

>  <SCORE.INTRA.DIHEDRAL.0>
0

>  <SCORE.INTRA.POLAR>
0

>  <SCORE.INTRA.POLAR.0>
0

>  <SCORE.INTRA.REPUL>
0

>  <SCORE.INTRA.REPUL.0>
0

>  <SCORE.INTRA.SOLV>
0

>  <SCORE.INTRA.SOLV.lig_0>
-23.8941

>  <SCORE.INTRA.VDW>
0

>  <SCORE.INTRA.VDW.0>
0

>  <SCORE.INTRA.norm>
0

>  <SCORE.RESTR>
0

>  <SCORE.RESTR.CAVITY>
0

>  <SCORE.RESTR.norm>
0

>  <SCORE.SYSTEM>
0

>  <SCORE.SYSTEM.CONST>
0

>  <SCORE.SYSTEM.DIHEDRAL>
0

>  <SCORE.SYSTEM.SOLV>
0

>  <SCORE.SYSTEM.norm>
0

>  <SCORE.heavy>
10

>  <SCORE.norm>
-1.25702

>  <RMSD>
3.479

$$$$
ligand
 OpenBabel11021811513D
libRbt.so/2013.1/901 2013/11/27
 10 11  0  0  0  0  0  0  0  0999 V2000
  -29.5314   16.7700  -17.5735 N   0  0  0  0  0  0  0  0  0  0  0  0
  -29.2216   15.8027  -16.7014 C   0  0  0  0  0  0  0  0  0  0  0  0
  -29.5896   15.6743  -15.4278 N   0  0  0  0  0  0  0  0  0  0  0  0
  -30.3743   16.6966  -15.0527 C   0  0  0  0  0  0  0  0  0  0  0  0
  -30.7773   17.7625  -15.8330 C   0  0  0  0  0  0  0  0  0  0  0  0
  -30.3220   17.7839  -17.1664 C   0  0  0  0  0  0  0  0  0  0  0  0
  -30.6330   18.7521  -18.0353 N   0  0  0  0  0  0  0  0  0  0  0  0
  -31.5837   18.6243  -15.1090 N   0  0  0  0  0  0  0  0  0  0  0  0
  -31.6490   18.0696  -13.9211 C   0  0  0  0  0  0  0  0  0  0  0  0
  -30.9425   16.9040  -13.8161 N   0  0  0  0  0  0  0  0  0  0  0  0
  1  2  2  0  0  0  0
  1  6  1  0  0  0  0
  2  3  1  0  0  0  0
  3  4  2  0  0  0  0
  4  5  1  0  0  0  0
  4 10  1  0  0  0  0
  5  6  2  0  0  0  0
  5  8  1  0  0  0  0
  6  7  1  0  0  0  0
  8  9  1  0  0  0  0
  9 10  2  0  0  0  0
M  END
>  <CHROM.1>
-30.46195708,17.28867193,-15.87350863,-0.85458557,-0.94089854,2.07599017

>  <Name>
ligand

>  <RI>
0

>  <Rbt.Current_Directory>
/home/itssahil/PROJECTS/Mol_Feturizer/New_Systems/rnas/4TZY

>  <Rbt.Executable>
rbdock ($Id: //depot/dev/client3/rdock/2013.1/src/exe/rbdock.cxx#4 $)

>  <Rbt.Library>
libRbt.so (2013.1, Build901 2013/11/27)

>  <Rbt.Parameter_File>
/export/apps/rDock/src/rDock_2013.1_src/data/scripts/dock_solv.prm

>  <Rbt.Receptor>
prm/blind_docking_100.prm

>  <SCORE>
-12.5721

>  <SCORE.INTER>
-12.5721

>  <SCORE.INTER.CONST>
1

>  <SCORE.INTER.POLAR>
0

>  <SCORE.INTER.ROT>
0

>  <SCORE.INTER.SOLV>
10.5236

>  <SCORE.INTER.VDW>
-15.4892

>  <SCORE.INTER.norm>
-1.25721

>  <SCORE.INTRA>
0

>  <SCORE.INTRA.DIHEDRAL>
0

>  <SCORE.INTRA.DIHEDRAL.0>
0

>  <SCORE.INTRA.POLAR>
0

>  <SCORE.INTRA.POLAR.0>
0

>  <SCORE.INTRA.REPUL>
0

>  <SCORE.INTRA.REPUL.0>
0

>  <SCORE.INTRA.SOLV>
0

>  <SCORE.INTRA.SOLV.lig_0>
-23.8941

>  <SCORE.INTRA.VDW>
0

>  <SCORE.INTRA.VDW.0>
0

>  <SCORE.INTRA.norm>
0

>  <SCORE.RESTR>
0

>  <SCORE.RESTR.CAVITY>
0

>  <SCORE.RESTR.norm>
0

>  <SCORE.SYSTEM>
0

>  <SCORE.SYSTEM.CONST>
0

>  <SCORE.SYSTEM.DIHEDRAL>
0

>  <SCORE.SYSTEM.SOLV>
0

>  <SCORE.SYSTEM.norm>
0

>  <SCORE.heavy>
10

>  <SCORE.norm>
-1.25721

>  <RMSD>
3.480

$$$$
ligand
 OpenBabel11021811513D
libRbt.so/2013.1/901 2013/11/27
 10 11  0  0  0  0  0  0  0  0999 V2000
  -28.8069   14.1939  -16.2367 N   0  0  0  0  0  0  0  0  0  0  0  0
  -28.8993   15.4425  -15.7624 C   0  0  0  0  0  0  0  0  0  0  0  0
  -27.9593   16.3835  -15.6931 N   0  0  0  0  0  0  0  0  0  0  0  0
  -26.7954   15.9323  -16.1860 C   0  0  0  0  0  0  0  0  0  0  0  0
  -26.5456   14.6772  -16.7055 C   0  0  0  0  0  0  0  0  0  0  0  0
  -27.6236   13.7699  -16.7254 C   0  0  0  0  0  0  0  0  0  0  0  0
  -27.5278   12.5228  -17.1995 N   0  0  0  0  0  0  0  0  0  0  0  0
  -25.2287   14.5699  -17.1196 N   0  0  0  0  0  0  0  0  0  0  0  0
  -24.7161   15.7465  -16.8437 C   0  0  0  0  0  0  0  0  0  0  0  0
  -25.6052   16.6177  -16.2785 N   0  0  0  0  0  0  0  0  0  0  0  0
  1  2  2  0  0  0  0
  1  6  1  0  0  0  0
  2  3  1  0  0  0  0
  3  4  2  0  0  0  0
  4  5  1  0  0  0  0
  4 10  1  0  0  0  0
  5  6  2  0  0  0  0
  5  8  1  0  0  0  0
  6  7  1  0  0  0  0
  8  9  1  0  0  0  0
  9 10  2  0  0  0  0
M  END
>  <CHROM.1>
-26.97497871,14.97580089,-16.47737862,2.61867530,-0.26160760,-2.79744275

>  <Name>
ligand

>  <RI>
0

>  <Rbt.Current_Directory>
/home/itssahil/PROJECTS/Mol_Feturizer/New_Systems/rnas/4TZY

>  <Rbt.Executable>
rbdock ($Id: //depot/dev/client3/rdock/2013.1/src/exe/rbdock.cxx#4 $)

>  <Rbt.Library>
libRbt.so (2013.1, Build901 2013/11/27)

>  <Rbt.Parameter_File>
/export/apps/rDock/src/rDock_2013.1_src/data/scripts/dock_solv.prm

>  <Rbt.Receptor>
prm/blind_docking_100.prm

>  <SCORE>
-8.75886

>  <SCORE.INTER>
-8.75886

>  <SCORE.INTER.CONST>
1

>  <SCORE.INTER.POLAR>
0

>  <SCORE.INTER.ROT>
0

>  <SCORE.INTER.SOLV>
7.00323

>  <SCORE.INTER.VDW>
-11.7737

>  <SCORE.INTER.norm>
-0.875886

>  <SCORE.INTRA>
0

>  <SCORE.INTRA.DIHEDRAL>
0

>  <SCORE.INTRA.DIHEDRAL.0>
0

>  <SCORE.INTRA.POLAR>
0

>  <SCORE.INTRA.POLAR.0>
0

>  <SCORE.INTRA.REPUL>
0

>  <SCORE.INTRA.REPUL.0>
0

>  <SCORE.INTRA.SOLV>
0

>  <SCORE.INTRA.SOLV.lig_0>
-23.8941

>  <SCORE.INTRA.VDW>
0

>  <SCORE.INTRA.VDW.0>
0

>  <SCORE.INTRA.norm>
0

>  <SCORE.RESTR>
0

>  <SCORE.RESTR.CAVITY>
0

>  <SCORE.RESTR.norm>
0

>  <SCORE.SYSTEM>
0

>  <SCORE.SYSTEM.CONST>
0

>  <SCORE.SYSTEM.DIHEDRAL>
0

>  <SCORE.SYSTEM.SOLV>
0

>  <SCORE.SYSTEM.norm>
0

>  <SCORE.heavy>
10

>  <SCORE.norm>
-0.875886

>  <RMSD>
4.566

$$$$
ligand
 OpenBabel11021811513D
libRbt.so/2013.1/901 2013/11/27
 10 11  0  0  0  0  0  0  0  0999 V2000
  -25.3871   14.0983  -17.0204 N   0  0  0  0  0  0  0  0  0  0  0  0
  -25.0857   15.3728  -16.7426 C   0  0  0  0  0  0  0  0  0  0  0  0
  -25.8847   16.3474  -16.3118 N   0  0  0  0  0  0  0  0  0  0  0  0
  -27.1427   15.9031  -16.1653 C   0  0  0  0  0  0  0  0  0  0  0  0
  -27.6050   14.6252  -16.4120 C   0  0  0  0  0  0  0  0  0  0  0  0
  -26.6602   13.6820  -16.8632 C   0  0  0  0  0  0  0  0  0  0  0  0
  -26.9647   12.4095  -17.1405 N   0  0  0  0  0  0  0  0  0  0  0  0
  -28.9614   14.5340  -16.1491 N   0  0  0  0  0  0  0  0  0  0  0  0
  -29.2869   15.7434  -15.7558 C   0  0  0  0  0  0  0  0  0  0  0  0
  -28.2385   16.6206  -15.7418 N   0  0  0  0  0  0  0  0  0  0  0  0
  1  2  2  0  0  0  0
  1  6  1  0  0  0  0
  2  3  1  0  0  0  0
  3  4  2  0  0  0  0
  4  5  1  0  0  0  0
  4 10  1  0  0  0  0
  5  6  2  0  0  0  0
  5  8  1  0  0  0  0
  6  7  1  0  0  0  0
  8  9  1  0  0  0  0
  9 10  2  0  0  0  0
M  END
>  <CHROM.1>
-27.11904726,14.92352226,-16.43351992,-0.68322594,0.20113095,0.26215007

>  <Name>
ligand

>  <RI>
0

>  <Rbt.Current_Directory>
/home/itssahil/PROJECTS/Mol_Feturizer/New_Systems/rnas/4TZY

>  <Rbt.Executable>
rbdock ($Id: //depot/dev/client3/rdock/2013.1/src/exe/rbdock.cxx#4 $)

>  <Rbt.Library>
libRbt.so (2013.1, Build901 2013/11/27)

>  <Rbt.Parameter_File>
/export/apps/rDock/src/rDock_2013.1_src/data/scripts/dock_solv.prm

>  <Rbt.Receptor>
prm/blind_docking_80.prm

>  <SCORE>
-9.97214

>  <SCORE.INTER>
-9.97214

>  <SCORE.INTER.CONST>
1

>  <SCORE.INTER.POLAR>
0

>  <SCORE.INTER.ROT>
0

>  <SCORE.INTER.SOLV>
5.36989

>  <SCORE.INTER.VDW>
-12.0381

>  <SCORE.INTER.norm>
-0.997214

>  <SCORE.INTRA>
0

>  <SCORE.INTRA.DIHEDRAL>
0

>  <SCORE.INTRA.DIHEDRAL.0>
0

>  <SCORE.INTRA.POLAR>
0

>  <SCORE.INTRA.POLAR.0>
0

>  <SCORE.INTRA.REPUL>
0

>  <SCORE.INTRA.REPUL.0>
0

>  <SCORE.INTRA.SOLV>
0

>  <SCORE.INTRA.SOLV.lig_0>
-23.8941

>  <SCORE.INTRA.VDW>
0

>  <SCORE.INTRA.VDW.0>
0

>  <SCORE.INTRA.norm>
0

>  <SCORE.RESTR>
0

>  <SCORE.RESTR.CAVITY>
0

>  <SCORE.RESTR.norm>
0

>  <SCORE.SYSTEM>
0

>  <SCORE.SYSTEM.CONST>
0

>  <SCORE.SYSTEM.DIHEDRAL>
0

>  <SCORE.SYSTEM.SOLV>
0

>  <SCORE.SYSTEM.norm>
0

>  <SCORE.heavy>
10

>  <SCORE.norm>
-0.997214

>  <RMSD>
4.763

$$$$
ligand
 OpenBabel11021811513D
libRbt.so/2013.1/901 2013/11/27
 10 11  0  0  0  0  0  0  0  0999 V2000
  -25.3914   14.0880  -17.0395 N   0  0  0  0  0  0  0  0  0  0  0  0
  -25.0841   15.3588  -16.7517 C   0  0  0  0  0  0  0  0  0  0  0  0
  -25.8785   16.3335  -16.3125 N   0  0  0  0  0  0  0  0  0  0  0  0
  -27.1383   15.8937  -16.1687 C   0  0  0  0  0  0  0  0  0  0  0  0
  -27.6065   14.6199  -16.4253 C   0  0  0  0  0  0  0  0  0  0  0  0
  -26.6663   13.6762  -16.8847 C   0  0  0  0  0  0  0  0  0  0  0  0
  -26.9766   12.4072  -17.1720 N   0  0  0  0  0  0  0  0  0  0  0  0
  -28.9631   14.5326  -16.1622 N   0  0  0  0  0  0  0  0  0  0  0  0
  -29.2829   15.7402  -15.7590 C   0  0  0  0  0  0  0  0  0  0  0  0
  -28.2306   16.6126  -15.7387 N   0  0  0  0  0  0  0  0  0  0  0  0
  1  2  2  0  0  0  0
  1  6  1  0  0  0  0
  2  3  1  0  0  0  0
  3  4  2  0  0  0  0
  4  5  1  0  0  0  0
  4 10  1  0  0  0  0
  5  6  2  0  0  0  0
  5  8  1  0  0  0  0
  6  7  1  0  0  0  0
  8  9  1  0  0  0  0
  9 10  2  0  0  0  0
M  END
>  <CHROM.1>
-27.11924919,14.91618897,-16.44475972,-0.68779880,0.20061452,0.27107706

>  <Name>
ligand

>  <RI>
0

>  <Rbt.Current_Directory>
/home/itssahil/PROJECTS/Mol_Feturizer/New_Systems/rnas/4TZY

>  <Rbt.Executable>
rbdock ($Id: //depot/dev/client3/rdock/2013.1/src/exe/rbdock.cxx#4 $)

>  <Rbt.Library>
libRbt.so (2013.1, Build901 2013/11/27)

>  <Rbt.Parameter_File>
/export/apps/rDock/src/rDock_2013.1_src/data/scripts/dock_solv.prm

>  <Rbt.Receptor>
prm/blind_docking_80.prm

>  <SCORE>
-9.973

>  <SCORE.INTER>
-9.973

>  <SCORE.INTER.CONST>
1

>  <SCORE.INTER.POLAR>
0

>  <SCORE.INTER.ROT>
0

>  <SCORE.INTER.SOLV>
5.46372

>  <SCORE.INTER.VDW>
-12.0699

>  <SCORE.INTER.norm>
-0.9973

>  <SCORE.INTRA>
0

>  <SCORE.INTRA.DIHEDRAL>
0

>  <SCORE.INTRA.DIHEDRAL.0>
0

>  <SCORE.INTRA.POLAR>
0

>  <SCORE.INTRA.POLAR.0>
0

>  <SCORE.INTRA.REPUL>
0

>  <SCORE.INTRA.REPUL.0>
0

>  <SCORE.INTRA.SOLV>
0

>  <SCORE.INTRA.SOLV.lig_0>
-23.8941

>  <SCORE.INTRA.VDW>
0

>  <SCORE.INTRA.VDW.0>
0

>  <SCORE.INTRA.norm>
0

>  <SCORE.RESTR>
0

>  <SCORE.RESTR.CAVITY>
0

>  <SCORE.RESTR.norm>
0

>  <SCORE.SYSTEM>
0

>  <SCORE.SYSTEM.CONST>
0

>  <SCORE.SYSTEM.DIHEDRAL>
0

>  <SCORE.SYSTEM.SOLV>
0

>  <SCORE.SYSTEM.norm>
0

>  <SCORE.heavy>
10

>  <SCORE.norm>
-0.9973

>  <RMSD>
4.770

$$$$
ligand
 OpenBabel11021811513D
libRbt.so/2013.1/901 2013/11/27
 10 11  0  0  0  0  0  0  0  0999 V2000
  -28.6018   14.1999  -16.4924 N   0  0  0  0  0  0  0  0  0  0  0  0
  -27.7753   13.4641  -17.2458 C   0  0  0  0  0  0  0  0  0  0  0  0
  -26.4934   13.6787  -17.5369 N   0  0  0  0  0  0  0  0  0  0  0  0
  -26.0547   14.8062  -16.9558 C   0  0  0  0  0  0  0  0  0  0  0  0
  -26.7836   15.6656  -16.1573 C   0  0  0  0  0  0  0  0  0  0  0  0
  -28.1311   15.3275  -15.9218 C   0  0  0  0  0  0  0  0  0  0  0  0
  -28.9546   16.0651  -15.1688 N   0  0  0  0  0  0  0  0  0  0  0  0
  -26.0005   16.7262  -15.7340 N   0  0  0  0  0  0  0  0  0  0  0  0
  -24.8303   16.4897  -16.2797 C   0  0  0  0  0  0  0  0  0  0  0  0
  -24.7914   15.3479  -17.0304 N   0  0  0  0  0  0  0  0  0  0  0  0
  1  2  2  0  0  0  0
  1  6  1  0  0  0  0
  2  3  1  0  0  0  0
  3  4  2  0  0  0  0
  4  5  1  0  0  0  0
  4 10  1  0  0  0  0
  5  6  2  0  0  0  0
  5  8  1  0  0  0  0
  6  7  1  0  0  0  0
  8  9  1  0  0  0  0
  9 10  2  0  0  0  0
M  END
>  <CHROM.1>
-26.85139093,15.17913271,-16.44770428,-2.89629309,0.27493100,0.57355725

>  <Name>
ligand

>  <RI>
0

>  <Rbt.Current_Directory>
/home/itssahil/PROJECTS/Mol_Feturizer/New_Systems/rnas/4TZY

>  <Rbt.Executable>
rbdock ($Id: //depot/dev/client3/rdock/2013.1/src/exe/rbdock.cxx#4 $)

>  <Rbt.Library>
libRbt.so (2013.1, Build901 2013/11/27)

>  <Rbt.Parameter_File>
/export/apps/rDock/src/rDock_2013.1_src/data/scripts/dock_solv.prm

>  <Rbt.Receptor>
prm/blind_docking_40.prm

>  <SCORE>
-9.36736

>  <SCORE.INTER>
-9.36736

>  <SCORE.INTER.CONST>
1

>  <SCORE.INTER.POLAR>
0

>  <SCORE.INTER.ROT>
0

>  <SCORE.INTER.SOLV>
8.47145

>  <SCORE.INTER.VDW>
-12.6687

>  <SCORE.INTER.norm>
-0.936736

>  <SCORE.INTRA>
0

>  <SCORE.INTRA.DIHEDRAL>
0

>  <SCORE.INTRA.DIHEDRAL.0>
0

>  <SCORE.INTRA.POLAR>
0

>  <SCORE.INTRA.POLAR.0>
0

>  <SCORE.INTRA.REPUL>
0

>  <SCORE.INTRA.REPUL.0>
0

>  <SCORE.INTRA.SOLV>
0

>  <SCORE.INTRA.SOLV.lig_0>
-23.8941

>  <SCORE.INTRA.VDW>
0

>  <SCORE.INTRA.VDW.0>
0

>  <SCORE.INTRA.norm>
0

>  <SCORE.RESTR>
0

>  <SCORE.RESTR.CAVITY>
0

>  <SCORE.RESTR.norm>
0

>  <SCORE.SYSTEM>
0

>  <SCORE.SYSTEM.CONST>
0

>  <SCORE.SYSTEM.DIHEDRAL>
0

>  <SCORE.SYSTEM.SOLV>
0

>  <SCORE.SYSTEM.norm>
0

>  <SCORE.heavy>
10

>  <SCORE.norm>
-0.936736

>  <RMSD>
5.138

$$$$
ligand
 OpenBabel11021811513D
libRbt.so/2013.1/901 2013/11/27
 10 11  0  0  0  0  0  0  0  0999 V2000
  -14.0575   18.1658  -16.2675 N   0  0  0  0  0  0  0  0  0  0  0  0
  -14.1787   19.2667  -15.5153 C   0  0  0  0  0  0  0  0  0  0  0  0
  -14.0223   19.4032  -14.1996 N   0  0  0  0  0  0  0  0  0  0  0  0
  -13.7021   18.2294  -13.6331 C   0  0  0  0  0  0  0  0  0  0  0  0
  -13.5438   17.0155  -14.2726 C   0  0  0  0  0  0  0  0  0  0  0  0
  -13.7347   17.0013  -15.6687 C   0  0  0  0  0  0  0  0  0  0  0  0
  -13.6134   15.8996  -16.4174 N   0  0  0  0  0  0  0  0  0  0  0  0
  -13.2124   16.0222  -13.3666 N   0  0  0  0  0  0  0  0  0  0  0  0
  -13.1795   16.6479  -12.2131 C   0  0  0  0  0  0  0  0  0  0  0  0
  -13.4654   17.9819  -12.2998 N   0  0  0  0  0  0  0  0  0  0  0  0
  1  2  2  0  0  0  0
  1  6  1  0  0  0  0
  2  3  1  0  0  0  0
  3  4  2  0  0  0  0
  4  5  1  0  0  0  0
  4 10  1  0  0  0  0
  5  6  2  0  0  0  0
  5  8  1  0  0  0  0
  6  7  1  0  0  0  0
  8  9  1  0  0  0  0
  9 10  2  0  0  0  0
M  END
>  <CHROM.1>
-13.67123308,17.55806948,-14.39494835,2.30654323,1.32749017,-2.16872594

>  <Name>
ligand

>  <RI>
0

>  <Rbt.Current_Directory>
/home/itssahil/PROJECTS/Mol_Feturizer/New_Systems/rnas/4TZY

>  <Rbt.Executable>
rbdock ($Id: //depot/dev/client3/rdock/2013.1/src/exe/rbdock.cxx#4 $)

>  <Rbt.Library>
libRbt.so (2013.1, Build901 2013/11/27)

>  <Rbt.Parameter_File>
/export/apps/rDock/src/rDock_2013.1_src/data/scripts/dock_solv.prm

>  <Rbt.Receptor>
prm/blind_docking_100.prm

>  <SCORE>
-5.95555

>  <SCORE.INTER>
-5.95555

>  <SCORE.INTER.CONST>
1

>  <SCORE.INTER.POLAR>
0

>  <SCORE.INTER.ROT>
0

>  <SCORE.INTER.SOLV>
3.30819

>  <SCORE.INTER.VDW>
-8.6731

>  <SCORE.INTER.norm>
-0.595555

>  <SCORE.INTRA>
0

>  <SCORE.INTRA.DIHEDRAL>
0

>  <SCORE.INTRA.DIHEDRAL.0>
0

>  <SCORE.INTRA.POLAR>
0

>  <SCORE.INTRA.POLAR.0>
0

>  <SCORE.INTRA.REPUL>
0

>  <SCORE.INTRA.REPUL.0>
0

>  <SCORE.INTRA.SOLV>
0

>  <SCORE.INTRA.SOLV.lig_0>
-23.8941

>  <SCORE.INTRA.VDW>
0

>  <SCORE.INTRA.VDW.0>
0

>  <SCORE.INTRA.norm>
0

>  <SCORE.RESTR>
0

>  <SCORE.RESTR.CAVITY>
0

>  <SCORE.RESTR.norm>
0

>  <SCORE.SYSTEM>
0

>  <SCORE.SYSTEM.CONST>
0

>  <SCORE.SYSTEM.DIHEDRAL>
0

>  <SCORE.SYSTEM.SOLV>
0

>  <SCORE.SYSTEM.norm>
0

>  <SCORE.heavy>
10

>  <SCORE.norm>
-0.595555

>  <RMSD>
16.934

$$$$
ligand
 OpenBabel11021811513D
libRbt.so/2013.1/901 2013/11/27
 10 11  0  0  0  0  0  0  0  0999 V2000
   -7.2018   29.9275   -7.8949 N   0  0  0  0  0  0  0  0  0  0  0  0
   -6.7866   28.6648   -8.0552 C   0  0  0  0  0  0  0  0  0  0  0  0
   -7.4260   27.5310   -7.7728 N   0  0  0  0  0  0  0  0  0  0  0  0
   -8.6415   27.7832   -7.2626 C   0  0  0  0  0  0  0  0  0  0  0  0
   -9.2054   29.0237   -7.0373 C   0  0  0  0  0  0  0  0  0  0  0  0
   -8.4283   30.1483   -7.3796 C   0  0  0  0  0  0  0  0  0  0  0  0
   -8.8457   31.4087   -7.2177 N   0  0  0  0  0  0  0  0  0  0  0  0
  -10.4753   28.8961   -6.5005 N   0  0  0  0  0  0  0  0  0  0  0  0
  -10.6497   27.5980   -6.4121 C   0  0  0  0  0  0  0  0  0  0  0  0
   -9.5831   26.8660   -6.8540 N   0  0  0  0  0  0  0  0  0  0  0  0
  1  2  2  0  0  0  0
  1  6  1  0  0  0  0
  2  3  1  0  0  0  0
  3  4  2  0  0  0  0
  4  5  1  0  0  0  0
  4 10  1  0  0  0  0
  5  6  2  0  0  0  0
  5  8  1  0  0  0  0
  6  7  1  0  0  0  0
  8  9  1  0  0  0  0
  9 10  2  0  0  0  0
M  END
>  <CHROM.1>
-8.72297102,28.79555684,-7.23938998,-0.79438427,-0.39956498,3.13012044

>  <Name>
ligand

>  <RI>
0

>  <Rbt.Current_Directory>
/home/itssahil/PROJECTS/Mol_Feturizer/New_Systems/rnas/4TZY

>  <Rbt.Executable>
rbdock ($Id: //depot/dev/client3/rdock/2013.1/src/exe/rbdock.cxx#4 $)

>  <Rbt.Library>
libRbt.so (2013.1, Build901 2013/11/27)

>  <Rbt.Parameter_File>
/export/apps/rDock/src/rDock_2013.1_src/data/scripts/dock_solv.prm

>  <Rbt.Receptor>
prm/blind_docking_40.prm

>  <SCORE>
-8.51123

>  <SCORE.INTER>
-8.51123

>  <SCORE.INTER.CONST>
1

>  <SCORE.INTER.POLAR>
0

>  <SCORE.INTER.ROT>
0

>  <SCORE.INTER.SOLV>
4.11581

>  <SCORE.INTER.VDW>
-10.6461

>  <SCORE.INTER.norm>
-0.851123

>  <SCORE.INTRA>
0

>  <SCORE.INTRA.DIHEDRAL>
0

>  <SCORE.INTRA.DIHEDRAL.0>
0

>  <SCORE.INTRA.POLAR>
0

>  <SCORE.INTRA.POLAR.0>
0

>  <SCORE.INTRA.REPUL>
0

>  <SCORE.INTRA.REPUL.0>
0

>  <SCORE.INTRA.SOLV>
0

>  <SCORE.INTRA.SOLV.lig_0>
-23.8941

>  <SCORE.INTRA.VDW>
0

>  <SCORE.INTRA.VDW.0>
0

>  <SCORE.INTRA.norm>
0

>  <SCORE.RESTR>
0

>  <SCORE.RESTR.CAVITY>
0

>  <SCORE.RESTR.norm>
0

>  <SCORE.SYSTEM>
0

>  <SCORE.SYSTEM.CONST>
0

>  <SCORE.SYSTEM.DIHEDRAL>
0

>  <SCORE.SYSTEM.SOLV>
0

>  <SCORE.SYSTEM.norm>
0

>  <SCORE.heavy>
10

>  <SCORE.norm>
-0.851123

>  <RMSD>
26.117

$$$$
ligand
 OpenBabel11021811513D
libRbt.so/2013.1/901 2013/11/27
 10 11  0  0  0  0  0  0  0  0999 V2000
  -10.5443   30.0025   -6.5334 N   0  0  0  0  0  0  0  0  0  0  0  0
   -9.6321   30.7632   -5.9156 C   0  0  0  0  0  0  0  0  0  0  0  0
   -8.3207   30.5649   -5.7936 N   0  0  0  0  0  0  0  0  0  0  0  0
   -7.9520   29.4260   -6.4004 C   0  0  0  0  0  0  0  0  0  0  0  0
   -8.7722   28.5412   -7.0727 C   0  0  0  0  0  0  0  0  0  0  0  0
  -10.1426   28.8638   -7.1339 C   0  0  0  0  0  0  0  0  0  0  0  0
  -11.0517   28.1014   -7.7515 N   0  0  0  0  0  0  0  0  0  0  0  0
   -8.0419   27.4756   -7.5709 N   0  0  0  0  0  0  0  0  0  0  0  0
   -6.8117   27.7341   -7.1927 C   0  0  0  0  0  0  0  0  0  0  0  0
   -6.6846   28.8951   -6.4822 N   0  0  0  0  0  0  0  0  0  0  0  0
  1  2  2  0  0  0  0
  1  6  1  0  0  0  0
  2  3  1  0  0  0  0
  3  4  2  0  0  0  0
  4  5  1  0  0  0  0
  4 10  1  0  0  0  0
  5  6  2  0  0  0  0
  5  8  1  0  0  0  0
  6  7  1  0  0  0  0
  8  9  1  0  0  0  0
  9 10  2  0  0  0  0
M  END
>  <CHROM.1>
-8.80558079,29.03457432,-6.78787764,-2.83157679,0.15623390,-2.60717726

>  <Name>
ligand

>  <RI>
0

>  <Rbt.Current_Directory>
/home/itssahil/PROJECTS/Mol_Feturizer/New_Systems/rnas/4TZY

>  <Rbt.Executable>
rbdock ($Id: //depot/dev/client3/rdock/2013.1/src/exe/rbdock.cxx#4 $)

>  <Rbt.Library>
libRbt.so (2013.1, Build901 2013/11/27)

>  <Rbt.Parameter_File>
/export/apps/rDock/src/rDock_2013.1_src/data/scripts/dock_solv.prm

>  <Rbt.Receptor>
prm/blind_docking_40.prm

>  <SCORE>
-9.04585

>  <SCORE.INTER>
-9.04585

>  <SCORE.INTER.CONST>
1

>  <SCORE.INTER.POLAR>
0

>  <SCORE.INTER.ROT>
0

>  <SCORE.INTER.SOLV>
2.30078

>  <SCORE.INTER.VDW>
-10.3975

>  <SCORE.INTER.norm>
-0.904585

>  <SCORE.INTRA>
0

>  <SCORE.INTRA.DIHEDRAL>
0

>  <SCORE.INTRA.DIHEDRAL.0>
0

>  <SCORE.INTRA.POLAR>
0

>  <SCORE.INTRA.POLAR.0>
0

>  <SCORE.INTRA.REPUL>
0

>  <SCORE.INTRA.REPUL.0>
0

>  <SCORE.INTRA.SOLV>
0

>  <SCORE.INTRA.SOLV.lig_0>
-23.8941

>  <SCORE.INTRA.VDW>
0

>  <SCORE.INTRA.VDW.0>
0

>  <SCORE.INTRA.norm>
0

>  <SCORE.RESTR>
0

>  <SCORE.RESTR.CAVITY>
0

>  <SCORE.RESTR.norm>
0

>  <SCORE.SYSTEM>
0

>  <SCORE.SYSTEM.CONST>
0

>  <SCORE.SYSTEM.DIHEDRAL>
0

>  <SCORE.SYSTEM.SOLV>
0

>  <SCORE.SYSTEM.norm>
0

>  <SCORE.heavy>
10

>  <SCORE.norm>
-0.904585

>  <RMSD>
26.230

$$$$
ligand
 OpenBabel11021811513D
libRbt.so/2013.1/901 2013/11/27
 10 11  0  0  0  0  0  0  0  0999 V2000
  -10.5011   29.9296   -6.4189 N   0  0  0  0  0  0  0  0  0  0  0  0
   -9.5723   30.6460   -5.7735 C   0  0  0  0  0  0  0  0  0  0  0  0
   -8.2614   30.4284   -5.6816 N   0  0  0  0  0  0  0  0  0  0  0  0
   -7.9133   29.3212   -6.3555 C   0  0  0  0  0  0  0  0  0  0  0  0
   -8.7522   28.4830   -7.0635 C   0  0  0  0  0  0  0  0  0  0  0  0
  -10.1198   28.8219   -7.0871 C   0  0  0  0  0  0  0  0  0  0  0  0
  -11.0454   28.1037   -7.7324 N   0  0  0  0  0  0  0  0  0  0  0  0
   -8.0402   27.4393   -7.6302 N   0  0  0  0  0  0  0  0  0  0  0  0
   -6.8021   27.6645   -7.2563 C   0  0  0  0  0  0  0  0  0  0  0  0
   -6.6529   28.7832   -6.4849 N   0  0  0  0  0  0  0  0  0  0  0  0
  1  2  2  0  0  0  0
  1  6  1  0  0  0  0
  2  3  1  0  0  0  0
  3  4  2  0  0  0  0
  4  5  1  0  0  0  0
  4 10  1  0  0  0  0
  5  6  2  0  0  0  0
  5  8  1  0  0  0  0
  6  7  1  0  0  0  0
  8  9  1  0  0  0  0
  9 10  2  0  0  0  0
M  END
>  <CHROM.1>
-8.77634950,28.96013580,-6.75156574,-2.81517809,0.14959731,-2.55448741

>  <Name>
ligand

>  <RI>
0

>  <Rbt.Current_Directory>
/home/itssahil/PROJECTS/Mol_Feturizer/New_Systems/rnas/4TZY

>  <Rbt.Executable>
rbdock ($Id: //depot/dev/client3/rdock/2013.1/src/exe/rbdock.cxx#4 $)

>  <Rbt.Library>
libRbt.so (2013.1, Build901 2013/11/27)

>  <Rbt.Parameter_File>
/export/apps/rDock/src/rDock_2013.1_src/data/scripts/dock_solv.prm

>  <Rbt.Receptor>
prm/blind_docking_40.prm

>  <SCORE>
-9.06826

>  <SCORE.INTER>
-9.06826

>  <SCORE.INTER.CONST>
1

>  <SCORE.INTER.POLAR>
0

>  <SCORE.INTER.ROT>
0

>  <SCORE.INTER.SOLV>
2.337

>  <SCORE.INTER.VDW>
-10.4245

>  <SCORE.INTER.norm>
-0.906826

>  <SCORE.INTRA>
0

>  <SCORE.INTRA.DIHEDRAL>
0

>  <SCORE.INTRA.DIHEDRAL.0>
0

>  <SCORE.INTRA.POLAR>
0

>  <SCORE.INTRA.POLAR.0>
0

>  <SCORE.INTRA.REPUL>
0

>  <SCORE.INTRA.REPUL.0>
0

>  <SCORE.INTRA.SOLV>
0

>  <SCORE.INTRA.SOLV.lig_0>
-23.8941

>  <SCORE.INTRA.VDW>
0

>  <SCORE.INTRA.VDW.0>
0

>  <SCORE.INTRA.norm>
0

>  <SCORE.RESTR>
0

>  <SCORE.RESTR.CAVITY>
0

>  <SCORE.RESTR.norm>
0

>  <SCORE.SYSTEM>
0

>  <SCORE.SYSTEM.CONST>
0

>  <SCORE.SYSTEM.DIHEDRAL>
0

>  <SCORE.SYSTEM.SOLV>
0

>  <SCORE.SYSTEM.norm>
0

>  <SCORE.heavy>
10

>  <SCORE.norm>
-0.906826

>  <RMSD>
26.233

$$$$
ligand
 OpenBabel11021811513D
libRbt.so/2013.1/901 2013/11/27
 10 11  0  0  0  0  0  0  0  0999 V2000
  -10.4874   30.1729   -6.6469 N   0  0  0  0  0  0  0  0  0  0  0  0
   -9.5294   30.9339   -6.1034 C   0  0  0  0  0  0  0  0  0  0  0  0
   -8.2222   30.6956   -6.0115 N   0  0  0  0  0  0  0  0  0  0  0  0
   -7.9134   29.5114   -6.5625 C   0  0  0  0  0  0  0  0  0  0  0  0
   -8.7856   28.6202   -7.1562 C   0  0  0  0  0  0  0  0  0  0  0  0
  -10.1454   28.9881   -7.1928 C   0  0  0  0  0  0  0  0  0  0  0  0
  -11.1003   28.2253   -7.7361 N   0  0  0  0  0  0  0  0  0  0  0  0
   -8.1094   27.5021   -7.6145 N   0  0  0  0  0  0  0  0  0  0  0  0
   -6.8591   27.7370   -7.2911 C   0  0  0  0  0  0  0  0  0  0  0  0
   -6.6684   28.9312   -6.6534 N   0  0  0  0  0  0  0  0  0  0  0  0
  1  2  2  0  0  0  0
  1  6  1  0  0  0  0
  2  3  1  0  0  0  0
  3  4  2  0  0  0  0
  4  5  1  0  0  0  0
  4 10  1  0  0  0  0
  5  6  2  0  0  0  0
  5  8  1  0  0  0  0
  6  7  1  0  0  0  0
  8  9  1  0  0  0  0
  9 10  2  0  0  0  0
M  END
>  <CHROM.1>
-8.79245519,29.12976006,-6.89957028,-2.78441572,0.14465601,-2.67171973

>  <Name>
ligand

>  <RI>
0

>  <Rbt.Current_Directory>
/home/itssahil/PROJECTS/Mol_Feturizer/New_Systems/rnas/4TZY

>  <Rbt.Executable>
rbdock ($Id: //depot/dev/client3/rdock/2013.1/src/exe/rbdock.cxx#4 $)

>  <Rbt.Library>
libRbt.so (2013.1, Build901 2013/11/27)

>  <Rbt.Parameter_File>
/export/apps/rDock/src/rDock_2013.1_src/data/scripts/dock_solv.prm

>  <Rbt.Receptor>
prm/blind_docking_40.prm

>  <SCORE>
-8.97203

>  <SCORE.INTER>
-8.97203

>  <SCORE.INTER.CONST>
1

>  <SCORE.INTER.POLAR>
0

>  <SCORE.INTER.ROT>
0

>  <SCORE.INTER.SOLV>
2.0884

>  <SCORE.INTER.VDW>
-10.2775

>  <SCORE.INTER.norm>
-0.897203

>  <SCORE.INTRA>
0

>  <SCORE.INTRA.DIHEDRAL>
0

>  <SCORE.INTRA.DIHEDRAL.0>
0

>  <SCORE.INTRA.POLAR>
0

>  <SCORE.INTRA.POLAR.0>
0

>  <SCORE.INTRA.REPUL>
0

>  <SCORE.INTRA.REPUL.0>
0

>  <SCORE.INTRA.SOLV>
0

>  <SCORE.INTRA.SOLV.lig_0>
-23.8941

>  <SCORE.INTRA.VDW>
0

>  <SCORE.INTRA.VDW.0>
0

>  <SCORE.INTRA.norm>
0

>  <SCORE.RESTR>
0

>  <SCORE.RESTR.CAVITY>
0

>  <SCORE.RESTR.norm>
0

>  <SCORE.SYSTEM>
0

>  <SCORE.SYSTEM.CONST>
0

>  <SCORE.SYSTEM.DIHEDRAL>
0

>  <SCORE.SYSTEM.SOLV>
0

>  <SCORE.SYSTEM.norm>
0

>  <SCORE.heavy>
10

>  <SCORE.norm>
-0.897203

>  <RMSD>
26.246

$$$$
ligand
 OpenBabel11021811513D
libRbt.so/2013.1/901 2013/11/27
 10 11  0  0  0  0  0  0  0  0999 V2000
  -10.4916   29.9405   -6.4384 N   0  0  0  0  0  0  0  0  0  0  0  0
   -9.5718   30.6478   -5.7705 C   0  0  0  0  0  0  0  0  0  0  0  0
   -8.2637   30.4243   -5.6570 N   0  0  0  0  0  0  0  0  0  0  0  0
   -7.9077   29.3214   -6.3338 C   0  0  0  0  0  0  0  0  0  0  0  0
   -8.7369   28.4925   -7.0638 C   0  0  0  0  0  0  0  0  0  0  0  0
  -10.1026   28.8370   -7.1090 C   0  0  0  0  0  0  0  0  0  0  0  0
  -11.0192   28.1279   -7.7768 N   0  0  0  0  0  0  0  0  0  0  0  0
   -8.0189   27.4508   -7.6265 N   0  0  0  0  0  0  0  0  0  0  0  0
   -6.7869   27.6679   -7.2286 C   0  0  0  0  0  0  0  0  0  0  0  0
   -6.6472   28.7795   -6.4452 N   0  0  0  0  0  0  0  0  0  0  0  0
  1  2  2  0  0  0  0
  1  6  1  0  0  0  0
  2  3  1  0  0  0  0
  3  4  2  0  0  0  0
  4  5  1  0  0  0  0
  4 10  1  0  0  0  0
  5  6  2  0  0  0  0
  5  8  1  0  0  0  0
  6  7  1  0  0  0  0
  8  9  1  0  0  0  0
  9 10  2  0  0  0  0
M  END
>  <CHROM.1>
-8.76488030,28.96707313,-6.74833130,-2.82203062,0.16664633,-2.54499423

>  <Name>
ligand

>  <RI>
0

>  <Rbt.Current_Directory>
/home/itssahil/PROJECTS/Mol_Feturizer/New_Systems/rnas/4TZY

>  <Rbt.Executable>
rbdock ($Id: //depot/dev/client3/rdock/2013.1/src/exe/rbdock.cxx#4 $)

>  <Rbt.Library>
libRbt.so (2013.1, Build901 2013/11/27)

>  <Rbt.Parameter_File>
/export/apps/rDock/src/rDock_2013.1_src/data/scripts/dock_solv.prm

>  <Rbt.Receptor>
prm/blind_docking_80.prm

>  <SCORE>
-9.09305

>  <SCORE.INTER>
-9.09305

>  <SCORE.INTER.CONST>
1

>  <SCORE.INTER.POLAR>
0

>  <SCORE.INTER.ROT>
0

>  <SCORE.INTER.SOLV>
2.45944

>  <SCORE.INTER.VDW>
-10.4818

>  <SCORE.INTER.norm>
-0.909305

>  <SCORE.INTRA>
0

>  <SCORE.INTRA.DIHEDRAL>
0

>  <SCORE.INTRA.DIHEDRAL.0>
0

>  <SCORE.INTRA.POLAR>
0

>  <SCORE.INTRA.POLAR.0>
0

>  <SCORE.INTRA.REPUL>
0

>  <SCORE.INTRA.REPUL.0>
0

>  <SCORE.INTRA.SOLV>
0

>  <SCORE.INTRA.SOLV.lig_0>
-23.8941

>  <SCORE.INTRA.VDW>
0

>  <SCORE.INTRA.VDW.0>
0

>  <SCORE.INTRA.norm>
0

>  <SCORE.RESTR>
0

>  <SCORE.RESTR.CAVITY>
0

>  <SCORE.RESTR.norm>
0

>  <SCORE.SYSTEM>
0

>  <SCORE.SYSTEM.CONST>
0

>  <SCORE.SYSTEM.DIHEDRAL>
0

>  <SCORE.SYSTEM.SOLV>
0

>  <SCORE.SYSTEM.norm>
0

>  <SCORE.heavy>
10

>  <SCORE.norm>
-0.909305

>  <RMSD>
26.247

$$$$
ligand
 OpenBabel11021811513D
libRbt.so/2013.1/901 2013/11/27
 10 11  0  0  0  0  0  0  0  0999 V2000
  -10.4711   29.9282   -6.4357 N   0  0  0  0  0  0  0  0  0  0  0  0
   -9.5530   30.6132   -5.7428 C   0  0  0  0  0  0  0  0  0  0  0  0
   -8.2487   30.3744   -5.6171 N   0  0  0  0  0  0  0  0  0  0  0  0
   -7.8951   29.2810   -6.3105 C   0  0  0  0  0  0  0  0  0  0  0  0
   -8.7230   28.4746   -7.0666 C   0  0  0  0  0  0  0  0  0  0  0  0
  -10.0845   28.8337   -7.1224 C   0  0  0  0  0  0  0  0  0  0  0  0
  -10.9995   28.1468   -7.8152 N   0  0  0  0  0  0  0  0  0  0  0  0
   -8.0081   27.4367   -7.6401 N   0  0  0  0  0  0  0  0  0  0  0  0
   -6.7792   27.6337   -7.2226 C   0  0  0  0  0  0  0  0  0  0  0  0
   -6.6386   28.7287   -6.4163 N   0  0  0  0  0  0  0  0  0  0  0  0
  1  2  2  0  0  0  0
  1  6  1  0  0  0  0
  2  3  1  0  0  0  0
  3  4  2  0  0  0  0
  4  5  1  0  0  0  0
  4 10  1  0  0  0  0
  5  6  2  0  0  0  0
  5  8  1  0  0  0  0
  6  7  1  0  0  0  0
  8  9  1  0  0  0  0
  9 10  2  0  0  0  0
M  END
>  <CHROM.1>
-8.75028872,28.94340667,-6.74244135,-2.82104525,0.18277758,-2.52603377

>  <Name>
ligand

>  <RI>
0

>  <Rbt.Current_Directory>
/home/itssahil/PROJECTS/Mol_Feturizer/New_Systems/rnas/4TZY

>  <Rbt.Executable>
rbdock ($Id: //depot/dev/client3/rdock/2013.1/src/exe/rbdock.cxx#4 $)

>  <Rbt.Library>
libRbt.so (2013.1, Build901 2013/11/27)

>  <Rbt.Parameter_File>
/export/apps/rDock/src/rDock_2013.1_src/data/scripts/dock_solv.prm

>  <Rbt.Receptor>
prm/blind_docking_40.prm

>  <SCORE>
-9.16932

>  <SCORE.INTER>
-9.16932

>  <SCORE.INTER.CONST>
1

>  <SCORE.INTER.POLAR>
0

>  <SCORE.INTER.ROT>
0

>  <SCORE.INTER.SOLV>
2.57078

>  <SCORE.INTER.VDW>
-10.5698

>  <SCORE.INTER.norm>
-0.916932

>  <SCORE.INTRA>
0

>  <SCORE.INTRA.DIHEDRAL>
0

>  <SCORE.INTRA.DIHEDRAL.0>
0

>  <SCORE.INTRA.POLAR>
0

>  <SCORE.INTRA.POLAR.0>
0

>  <SCORE.INTRA.REPUL>
0

>  <SCORE.INTRA.REPUL.0>
0

>  <SCORE.INTRA.SOLV>
0

>  <SCORE.INTRA.SOLV.lig_0>
-23.8941

>  <SCORE.INTRA.VDW>
0

>  <SCORE.INTRA.VDW.0>
0

>  <SCORE.INTRA.norm>
0

>  <SCORE.RESTR>
0

>  <SCORE.RESTR.CAVITY>
0

>  <SCORE.RESTR.norm>
0

>  <SCORE.SYSTEM>
0

>  <SCORE.SYSTEM.CONST>
0

>  <SCORE.SYSTEM.DIHEDRAL>
0

>  <SCORE.SYSTEM.SOLV>
0

>  <SCORE.SYSTEM.norm>
0

>  <SCORE.heavy>
10

>  <SCORE.norm>
-0.916932

>  <RMSD>
26.252

$$$$
ligand
 OpenBabel11021811513D
libRbt.so/2013.1/901 2013/11/27
 10 11  0  0  0  0  0  0  0  0999 V2000
  -10.4697   29.9310   -6.4208 N   0  0  0  0  0  0  0  0  0  0  0  0
   -9.5471   30.6167   -5.7346 C   0  0  0  0  0  0  0  0  0  0  0  0
   -8.2424   30.3767   -5.6154 N   0  0  0  0  0  0  0  0  0  0  0  0
   -7.8937   29.2813   -6.3079 C   0  0  0  0  0  0  0  0  0  0  0  0
   -8.7266   28.4739   -7.0576 C   0  0  0  0  0  0  0  0  0  0  0  0
  -10.0880   28.8344   -7.1069 C   0  0  0  0  0  0  0  0  0  0  0  0
  -11.0075   28.1468   -7.7930 N   0  0  0  0  0  0  0  0  0  0  0  0
   -8.0160   27.4338   -7.6324 N   0  0  0  0  0  0  0  0  0  0  0  0
   -6.7847   27.6305   -7.2220 C   0  0  0  0  0  0  0  0  0  0  0  0
   -6.6385   28.7273   -6.4192 N   0  0  0  0  0  0  0  0  0  0  0  0
  1  2  2  0  0  0  0
  1  6  1  0  0  0  0
  2  3  1  0  0  0  0
  3  4  2  0  0  0  0
  4  5  1  0  0  0  0
  4 10  1  0  0  0  0
  5  6  2  0  0  0  0
  5  8  1  0  0  0  0
  6  7  1  0  0  0  0
  8  9  1  0  0  0  0
  9 10  2  0  0  0  0
M  END
>  <CHROM.1>
-8.75166106,28.94353665,-6.73445047,-2.81695119,0.17898334,-2.52923648

>  <Name>
ligand

>  <RI>
0

>  <Rbt.Current_Directory>
/home/itssahil/PROJECTS/Mol_Feturizer/New_Systems/rnas/4TZY

>  <Rbt.Executable>
rbdock ($Id: //depot/dev/client3/rdock/2013.1/src/exe/rbdock.cxx#4 $)

>  <Rbt.Library>
libRbt.so (2013.1, Build901 2013/11/27)

>  <Rbt.Parameter_File>
/export/apps/rDock/src/rDock_2013.1_src/data/scripts/dock_solv.prm

>  <Rbt.Receptor>
prm/blind_docking_100.prm

>  <SCORE>
-9.16298

>  <SCORE.INTER>
-9.16298

>  <SCORE.INTER.CONST>
1

>  <SCORE.INTER.POLAR>
0

>  <SCORE.INTER.ROT>
0

>  <SCORE.INTER.SOLV>
2.53514

>  <SCORE.INTER.VDW>
-10.5537

>  <SCORE.INTER.norm>
-0.916298

>  <SCORE.INTRA>
0

>  <SCORE.INTRA.DIHEDRAL>
0

>  <SCORE.INTRA.DIHEDRAL.0>
0

>  <SCORE.INTRA.POLAR>
0

>  <SCORE.INTRA.POLAR.0>
0

>  <SCORE.INTRA.REPUL>
0

>  <SCORE.INTRA.REPUL.0>
0

>  <SCORE.INTRA.SOLV>
0

>  <SCORE.INTRA.SOLV.lig_0>
-23.8941

>  <SCORE.INTRA.VDW>
0

>  <SCORE.INTRA.VDW.0>
0

>  <SCORE.INTRA.norm>
0

>  <SCORE.RESTR>
0

>  <SCORE.RESTR.CAVITY>
0

>  <SCORE.RESTR.norm>
0

>  <SCORE.SYSTEM>
0

>  <SCORE.SYSTEM.CONST>
0

>  <SCORE.SYSTEM.DIHEDRAL>
0

>  <SCORE.SYSTEM.SOLV>
0

>  <SCORE.SYSTEM.norm>
0

>  <SCORE.heavy>
10

>  <SCORE.norm>
-0.916298

>  <RMSD>
26.254

$$$$
ligand
 OpenBabel11021811513D
libRbt.so/2013.1/901 2013/11/27
 10 11  0  0  0  0  0  0  0  0999 V2000
  -10.4623   29.9320   -6.4372 N   0  0  0  0  0  0  0  0  0  0  0  0
   -9.5447   30.6144   -5.7412 C   0  0  0  0  0  0  0  0  0  0  0  0
   -8.2408   30.3741   -5.6141 N   0  0  0  0  0  0  0  0  0  0  0  0
   -7.8871   29.2821   -6.3097 C   0  0  0  0  0  0  0  0  0  0  0  0
   -8.7146   28.4784   -7.0692 C   0  0  0  0  0  0  0  0  0  0  0  0
  -10.0757   28.8389   -7.1260 C   0  0  0  0  0  0  0  0  0  0  0  0
  -10.9903   28.1546   -7.8220 N   0  0  0  0  0  0  0  0  0  0  0  0
   -7.9998   27.4412   -7.6441 N   0  0  0  0  0  0  0  0  0  0  0  0
   -6.7714   27.6360   -7.2243 C   0  0  0  0  0  0  0  0  0  0  0  0
   -6.6310   28.7289   -6.4150 N   0  0  0  0  0  0  0  0  0  0  0  0
  1  2  2  0  0  0  0
  1  6  1  0  0  0  0
  2  3  1  0  0  0  0
  3  4  2  0  0  0  0
  4  5  1  0  0  0  0
  4 10  1  0  0  0  0
  5  6  2  0  0  0  0
  5  8  1  0  0  0  0
  6  7  1  0  0  0  0
  8  9  1  0  0  0  0
  9 10  2  0  0  0  0
M  END
>  <CHROM.1>
-8.74198423,28.94637780,-6.74382915,-2.82115799,0.18454083,-2.52349091

>  <Name>
ligand

>  <RI>
0

>  <Rbt.Current_Directory>
/home/itssahil/PROJECTS/Mol_Feturizer/New_Systems/rnas/4TZY

>  <Rbt.Executable>
rbdock ($Id: //depot/dev/client3/rdock/2013.1/src/exe/rbdock.cxx#4 $)

>  <Rbt.Library>
libRbt.so (2013.1, Build901 2013/11/27)

>  <Rbt.Parameter_File>
/export/apps/rDock/src/rDock_2013.1_src/data/scripts/dock_solv.prm

>  <Rbt.Receptor>
prm/blind_docking_40.prm

>  <SCORE>
-9.16658

>  <SCORE.INTER>
-9.16658

>  <SCORE.INTER.CONST>
1

>  <SCORE.INTER.POLAR>
0

>  <SCORE.INTER.ROT>
0

>  <SCORE.INTER.SOLV>
2.60008

>  <SCORE.INTER.VDW>
-10.5777

>  <SCORE.INTER.norm>
-0.916658

>  <SCORE.INTRA>
0

>  <SCORE.INTRA.DIHEDRAL>
0

>  <SCORE.INTRA.DIHEDRAL.0>
0

>  <SCORE.INTRA.POLAR>
0

>  <SCORE.INTRA.POLAR.0>
0

>  <SCORE.INTRA.REPUL>
0

>  <SCORE.INTRA.REPUL.0>
0

>  <SCORE.INTRA.SOLV>
0

>  <SCORE.INTRA.SOLV.lig_0>
-23.8941

>  <SCORE.INTRA.VDW>
0

>  <SCORE.INTRA.VDW.0>
0

>  <SCORE.INTRA.norm>
0

>  <SCORE.RESTR>
0

>  <SCORE.RESTR.CAVITY>
0

>  <SCORE.RESTR.norm>
0

>  <SCORE.SYSTEM>
0

>  <SCORE.SYSTEM.CONST>
0

>  <SCORE.SYSTEM.DIHEDRAL>
0

>  <SCORE.SYSTEM.SOLV>
0

>  <SCORE.SYSTEM.norm>
0

>  <SCORE.heavy>
10

>  <SCORE.norm>
-0.916658

>  <RMSD>
26.259

$$$$
ligand
 OpenBabel11021811513D
libRbt.so/2013.1/901 2013/11/27
 10 11  0  0  0  0  0  0  0  0999 V2000
  -10.4940   29.9865   -6.4668 N   0  0  0  0  0  0  0  0  0  0  0  0
   -9.5701   30.7194   -5.8330 C   0  0  0  0  0  0  0  0  0  0  0  0
   -8.2608   30.5022   -5.7216 N   0  0  0  0  0  0  0  0  0  0  0  0
   -7.9083   29.3753   -6.3598 C   0  0  0  0  0  0  0  0  0  0  0  0
   -8.7419   28.5186   -7.0518 C   0  0  0  0  0  0  0  0  0  0  0  0
  -10.1084   28.8593   -7.0989 C   0  0  0  0  0  0  0  0  0  0  0  0
  -11.0291   28.1245   -7.7325 N   0  0  0  0  0  0  0  0  0  0  0  0
   -8.0265   27.4577   -7.5810 N   0  0  0  0  0  0  0  0  0  0  0  0
   -6.7918   27.6913   -7.2013 C   0  0  0  0  0  0  0  0  0  0  0  0
   -6.6478   28.8315   -6.4610 N   0  0  0  0  0  0  0  0  0  0  0  0
  1  2  2  0  0  0  0
  1  6  1  0  0  0  0
  2  3  1  0  0  0  0
  3  4  2  0  0  0  0
  4  5  1  0  0  0  0
  4 10  1  0  0  0  0
  5  6  2  0  0  0  0
  5  8  1  0  0  0  0
  6  7  1  0  0  0  0
  8  9  1  0  0  0  0
  9 10  2  0  0  0  0
M  END
>  <CHROM.1>
-8.76812399,29.00461654,-6.75397923,-2.81896777,0.15913001,-2.58273081

>  <Name>
ligand

>  <RI>
0

>  <Rbt.Current_Directory>
/home/itssahil/PROJECTS/Mol_Feturizer/New_Systems/rnas/4TZY

>  <Rbt.Executable>
rbdock ($Id: //depot/dev/client3/rdock/2013.1/src/exe/rbdock.cxx#4 $)

>  <Rbt.Library>
libRbt.so (2013.1, Build901 2013/11/27)

>  <Rbt.Parameter_File>
/export/apps/rDock/src/rDock_2013.1_src/data/scripts/dock_solv.prm

>  <Rbt.Receptor>
prm/blind_docking_40.prm

>  <SCORE>
-9.09586

>  <SCORE.INTER>
-9.09586

>  <SCORE.INTER.CONST>
1

>  <SCORE.INTER.POLAR>
0

>  <SCORE.INTER.ROT>
0

>  <SCORE.INTER.SOLV>
2.37548

>  <SCORE.INTER.VDW>
-10.4557

>  <SCORE.INTER.norm>
-0.909586

>  <SCORE.INTRA>
0

>  <SCORE.INTRA.DIHEDRAL>
0

>  <SCORE.INTRA.DIHEDRAL.0>
0

>  <SCORE.INTRA.POLAR>
0

>  <SCORE.INTRA.POLAR.0>
0

>  <SCORE.INTRA.REPUL>
0

>  <SCORE.INTRA.REPUL.0>
0

>  <SCORE.INTRA.SOLV>
0

>  <SCORE.INTRA.SOLV.lig_0>
-23.8941

>  <SCORE.INTRA.VDW>
0

>  <SCORE.INTRA.VDW.0>
0

>  <SCORE.INTRA.norm>
0

>  <SCORE.RESTR>
0

>  <SCORE.RESTR.CAVITY>
0

>  <SCORE.RESTR.norm>
0

>  <SCORE.SYSTEM>
0

>  <SCORE.SYSTEM.CONST>
0

>  <SCORE.SYSTEM.DIHEDRAL>
0

>  <SCORE.SYSTEM.SOLV>
0

>  <SCORE.SYSTEM.norm>
0

>  <SCORE.heavy>
10

>  <SCORE.norm>
-0.909586

>  <RMSD>
26.260

$$$$
ligand
 OpenBabel11021811513D
libRbt.so/2013.1/901 2013/11/27
 10 11  0  0  0  0  0  0  0  0999 V2000
  -10.4792   29.9715   -6.4199 N   0  0  0  0  0  0  0  0  0  0  0  0
   -9.5626   30.6500   -5.7187 C   0  0  0  0  0  0  0  0  0  0  0  0
   -8.2586   30.4097   -5.5921 N   0  0  0  0  0  0  0  0  0  0  0  0
   -7.9036   29.3227   -6.2947 C   0  0  0  0  0  0  0  0  0  0  0  0
   -8.7299   28.5234   -7.0601 C   0  0  0  0  0  0  0  0  0  0  0  0
  -10.0912   28.8833   -7.1157 C   0  0  0  0  0  0  0  0  0  0  0  0
  -11.0047   28.2029   -7.8169 N   0  0  0  0  0  0  0  0  0  0  0  0
   -8.0139   27.4906   -7.6413 N   0  0  0  0  0  0  0  0  0  0  0  0
   -6.7860   27.6835   -7.2192 C   0  0  0  0  0  0  0  0  0  0  0  0
   -6.6470   28.7710   -6.4026 N   0  0  0  0  0  0  0  0  0  0  0  0
  1  2  2  0  0  0  0
  1  6  1  0  0  0  0
  2  3  1  0  0  0  0
  3  4  2  0  0  0  0
  4  5  1  0  0  0  0
  4 10  1  0  0  0  0
  5  6  2  0  0  0  0
  5  8  1  0  0  0  0
  6  7  1  0  0  0  0
  8  9  1  0  0  0  0
  9 10  2  0  0  0  0
M  END
>  <CHROM.1>
-8.75788364,28.98919520,-6.73167488,-2.82224349,0.18477816,-2.51667678

>  <Name>
ligand

>  <RI>
0

>  <Rbt.Current_Directory>
/home/itssahil/PROJECTS/Mol_Feturizer/New_Systems/rnas/4TZY

>  <Rbt.Executable>
rbdock ($Id: //depot/dev/client3/rdock/2013.1/src/exe/rbdock.cxx#4 $)

>  <Rbt.Library>
libRbt.so (2013.1, Build901 2013/11/27)

>  <Rbt.Parameter_File>
/export/apps/rDock/src/rDock_2013.1_src/data/scripts/dock_solv.prm

>  <Rbt.Receptor>
prm/blind_docking_40.prm

>  <SCORE>
-9.12904

>  <SCORE.INTER>
-9.12904

>  <SCORE.INTER.CONST>
1

>  <SCORE.INTER.POLAR>
0

>  <SCORE.INTER.ROT>
0

>  <SCORE.INTER.SOLV>
2.57688

>  <SCORE.INTER.VDW>
-10.545

>  <SCORE.INTER.norm>
-0.912904

>  <SCORE.INTRA>
0

>  <SCORE.INTRA.DIHEDRAL>
0

>  <SCORE.INTRA.DIHEDRAL.0>
0

>  <SCORE.INTRA.POLAR>
0

>  <SCORE.INTRA.POLAR.0>
0

>  <SCORE.INTRA.REPUL>
0

>  <SCORE.INTRA.REPUL.0>
0

>  <SCORE.INTRA.SOLV>
0

>  <SCORE.INTRA.SOLV.lig_0>
-23.8941

>  <SCORE.INTRA.VDW>
0

>  <SCORE.INTRA.VDW.0>
0

>  <SCORE.INTRA.norm>
0

>  <SCORE.RESTR>
0

>  <SCORE.RESTR.CAVITY>
0

>  <SCORE.RESTR.norm>
0

>  <SCORE.SYSTEM>
0

>  <SCORE.SYSTEM.CONST>
0

>  <SCORE.SYSTEM.DIHEDRAL>
0

>  <SCORE.SYSTEM.SOLV>
0

>  <SCORE.SYSTEM.norm>
0

>  <SCORE.heavy>
10

>  <SCORE.norm>
-0.912904

>  <RMSD>
26.269

$$$$
ligand
 OpenBabel11021811513D
libRbt.so/2013.1/901 2013/11/27
 10 11  0  0  0  0  0  0  0  0999 V2000
  -10.4719   29.9491   -6.4350 N   0  0  0  0  0  0  0  0  0  0  0  0
   -9.5643   30.6340   -5.7281 C   0  0  0  0  0  0  0  0  0  0  0  0
   -8.2588   30.4051   -5.5969 N   0  0  0  0  0  0  0  0  0  0  0  0
   -7.8911   29.3233   -6.3009 C   0  0  0  0  0  0  0  0  0  0  0  0
   -8.7070   28.5187   -7.0719 C   0  0  0  0  0  0  0  0  0  0  0  0
  -10.0713   28.8664   -7.1321 C   0  0  0  0  0  0  0  0  0  0  0  0
  -10.9757   28.1798   -7.8390 N   0  0  0  0  0  0  0  0  0  0  0  0
   -7.9794   27.4940   -7.6531 N   0  0  0  0  0  0  0  0  0  0  0  0
   -6.7550   27.6968   -7.2254 C   0  0  0  0  0  0  0  0  0  0  0  0
   -6.6292   28.7833   -6.4053 N   0  0  0  0  0  0  0  0  0  0  0  0
  1  2  2  0  0  0  0
  1  6  1  0  0  0  0
  2  3  1  0  0  0  0
  3  4  2  0  0  0  0
  4  5  1  0  0  0  0
  4 10  1  0  0  0  0
  5  6  2  0  0  0  0
  5  8  1  0  0  0  0
  6  7  1  0  0  0  0
  8  9  1  0  0  0  0
  9 10  2  0  0  0  0
M  END
>  <CHROM.1>
-8.74054913,28.98329923,-6.74238871,-2.83212054,0.18279304,-2.51211147

>  <Name>
ligand

>  <RI>
0

>  <Rbt.Current_Directory>
/home/itssahil/PROJECTS/Mol_Feturizer/New_Systems/rnas/4TZY

>  <Rbt.Executable>
rbdock ($Id: //depot/dev/client3/rdock/2013.1/src/exe/rbdock.cxx#4 $)

>  <Rbt.Library>
libRbt.so (2013.1, Build901 2013/11/27)

>  <Rbt.Parameter_File>
/export/apps/rDock/src/rDock_2013.1_src/data/scripts/dock_solv.prm

>  <Rbt.Receptor>
prm/blind_docking_40.prm

>  <SCORE>
-9.15249

>  <SCORE.INTER>
-9.15249

>  <SCORE.INTER.CONST>
1

>  <SCORE.INTER.POLAR>
0

>  <SCORE.INTER.ROT>
0

>  <SCORE.INTER.SOLV>
2.64824

>  <SCORE.INTER.VDW>
-10.5844

>  <SCORE.INTER.norm>
-0.915249

>  <SCORE.INTRA>
0

>  <SCORE.INTRA.DIHEDRAL>
0

>  <SCORE.INTRA.DIHEDRAL.0>
0

>  <SCORE.INTRA.POLAR>
0

>  <SCORE.INTRA.POLAR.0>
0

>  <SCORE.INTRA.REPUL>
0

>  <SCORE.INTRA.REPUL.0>
0

>  <SCORE.INTRA.SOLV>
0

>  <SCORE.INTRA.SOLV.lig_0>
-23.8941

>  <SCORE.INTRA.VDW>
0

>  <SCORE.INTRA.VDW.0>
0

>  <SCORE.INTRA.norm>
0

>  <SCORE.RESTR>
0

>  <SCORE.RESTR.CAVITY>
0

>  <SCORE.RESTR.norm>
0

>  <SCORE.SYSTEM>
0

>  <SCORE.SYSTEM.CONST>
0

>  <SCORE.SYSTEM.DIHEDRAL>
0

>  <SCORE.SYSTEM.SOLV>
0

>  <SCORE.SYSTEM.norm>
0

>  <SCORE.heavy>
10

>  <SCORE.norm>
-0.915249

>  <RMSD>
26.276

$$$$
ligand
 OpenBabel11021811513D
libRbt.so/2013.1/901 2013/11/27
 10 11  0  0  0  0  0  0  0  0999 V2000
  -10.4489   29.9521   -6.4027 N   0  0  0  0  0  0  0  0  0  0  0  0
   -9.5281   30.6370   -5.7132 C   0  0  0  0  0  0  0  0  0  0  0  0
   -8.2227   30.4001   -5.5956 N   0  0  0  0  0  0  0  0  0  0  0  0
   -7.8711   29.3092   -6.2939 C   0  0  0  0  0  0  0  0  0  0  0  0
   -8.7019   28.5033   -7.0475 C   0  0  0  0  0  0  0  0  0  0  0  0
  -10.0643   28.8602   -7.0944 C   0  0  0  0  0  0  0  0  0  0  0  0
  -10.9821   28.1735   -7.7838 N   0  0  0  0  0  0  0  0  0  0  0  0
   -7.9885   27.4681   -7.6278 N   0  0  0  0  0  0  0  0  0  0  0  0
   -6.7577   27.6662   -7.2168 C   0  0  0  0  0  0  0  0  0  0  0  0
   -6.6143   28.7593   -6.4084 N   0  0  0  0  0  0  0  0  0  0  0  0
  1  2  2  0  0  0  0
  1  6  1  0  0  0  0
  2  3  1  0  0  0  0
  3  4  2  0  0  0  0
  4  5  1  0  0  0  0
  4 10  1  0  0  0  0
  5  6  2  0  0  0  0
  5  8  1  0  0  0  0
  6  7  1  0  0  0  0
  8  9  1  0  0  0  0
  9 10  2  0  0  0  0
M  END
>  <CHROM.1>
-8.72819315,28.97119662,-6.72189717,-2.81911902,0.17707431,-2.52372805

>  <Name>
ligand

>  <RI>
0

>  <Rbt.Current_Directory>
/home/itssahil/PROJECTS/Mol_Feturizer/New_Systems/rnas/4TZY

>  <Rbt.Executable>
rbdock ($Id: //depot/dev/client3/rdock/2013.1/src/exe/rbdock.cxx#4 $)

>  <Rbt.Library>
libRbt.so (2013.1, Build901 2013/11/27)

>  <Rbt.Parameter_File>
/export/apps/rDock/src/rDock_2013.1_src/data/scripts/dock_solv.prm

>  <Rbt.Receptor>
prm/blind_docking_40.prm

>  <SCORE>
-9.08554

>  <SCORE.INTER>
-9.08554

>  <SCORE.INTER.CONST>
1

>  <SCORE.INTER.POLAR>
0

>  <SCORE.INTER.ROT>
0

>  <SCORE.INTER.SOLV>
2.59336

>  <SCORE.INTER.VDW>
-10.5215

>  <SCORE.INTER.norm>
-0.908554

>  <SCORE.INTRA>
0

>  <SCORE.INTRA.DIHEDRAL>
0

>  <SCORE.INTRA.DIHEDRAL.0>
0

>  <SCORE.INTRA.POLAR>
0

>  <SCORE.INTRA.POLAR.0>
0

>  <SCORE.INTRA.REPUL>
0

>  <SCORE.INTRA.REPUL.0>
0

>  <SCORE.INTRA.SOLV>
0

>  <SCORE.INTRA.SOLV.lig_0>
-23.8941

>  <SCORE.INTRA.VDW>
0

>  <SCORE.INTRA.VDW.0>
0

>  <SCORE.INTRA.norm>
0

>  <SCORE.RESTR>
0

>  <SCORE.RESTR.CAVITY>
0

>  <SCORE.RESTR.norm>
0

>  <SCORE.SYSTEM>
0

>  <SCORE.SYSTEM.CONST>
0

>  <SCORE.SYSTEM.DIHEDRAL>
0

>  <SCORE.SYSTEM.SOLV>
0

>  <SCORE.SYSTEM.norm>
0

>  <SCORE.heavy>
10

>  <SCORE.norm>
-0.908554

>  <RMSD>
26.289

$$$$
ligand
 OpenBabel11021811513D
libRbt.so/2013.1/901 2013/11/27
 10 11  0  0  0  0  0  0  0  0999 V2000
  -10.0636   30.9726   -7.3914 N   0  0  0  0  0  0  0  0  0  0  0  0
   -8.8871   31.6013   -7.5048 C   0  0  0  0  0  0  0  0  0  0  0  0
   -7.6641   31.0805   -7.5886 N   0  0  0  0  0  0  0  0  0  0  0  0
   -7.7125   29.7400   -7.5446 C   0  0  0  0  0  0  0  0  0  0  0  0
   -8.8423   28.9542   -7.4285 C   0  0  0  0  0  0  0  0  0  0  0  0
  -10.0792   29.6247   -7.3499 C   0  0  0  0  0  0  0  0  0  0  0  0
  -11.2531   28.9936   -7.2361 N   0  0  0  0  0  0  0  0  0  0  0  0
   -8.5075   27.6107   -7.4163 N   0  0  0  0  0  0  0  0  0  0  0  0
   -7.1990   27.6124   -7.5221 C   0  0  0  0  0  0  0  0  0  0  0  0
   -6.6530   28.8630   -7.6036 N   0  0  0  0  0  0  0  0  0  0  0  0
  1  2  2  0  0  0  0
  1  6  1  0  0  0  0
  2  3  1  0  0  0  0
  3  4  2  0  0  0  0
  4  5  1  0  0  0  0
  4 10  1  0  0  0  0
  5  6  2  0  0  0  0
  5  8  1  0  0  0  0
  6  7  1  0  0  0  0
  8  9  1  0  0  0  0
  9 10  2  0  0  0  0
M  END
>  <CHROM.1>
-8.69703475,29.50520107,-7.45771554,-2.51358367,-0.08056939,3.11162561

>  <Name>
ligand

>  <RI>
0

>  <Rbt.Current_Directory>
/home/itssahil/PROJECTS/Mol_Feturizer/New_Systems/rnas/4TZY

>  <Rbt.Executable>
rbdock ($Id: //depot/dev/client3/rdock/2013.1/src/exe/rbdock.cxx#4 $)

>  <Rbt.Library>
libRbt.so (2013.1, Build901 2013/11/27)

>  <Rbt.Parameter_File>
/export/apps/rDock/src/rDock_2013.1_src/data/scripts/dock_solv.prm

>  <Rbt.Receptor>
prm/blind_docking_80.prm

>  <SCORE>
-8.89076

>  <SCORE.INTER>
-8.89076

>  <SCORE.INTER.CONST>
1

>  <SCORE.INTER.POLAR>
0

>  <SCORE.INTER.ROT>
0

>  <SCORE.INTER.SOLV>
0.941347

>  <SCORE.INTER.VDW>
-9.84095

>  <SCORE.INTER.norm>
-0.889076

>  <SCORE.INTRA>
0

>  <SCORE.INTRA.DIHEDRAL>
0

>  <SCORE.INTRA.DIHEDRAL.0>
0

>  <SCORE.INTRA.POLAR>
0

>  <SCORE.INTRA.POLAR.0>
0

>  <SCORE.INTRA.REPUL>
0

>  <SCORE.INTRA.REPUL.0>
0

>  <SCORE.INTRA.SOLV>
0

>  <SCORE.INTRA.SOLV.lig_0>
-23.8941

>  <SCORE.INTRA.VDW>
0

>  <SCORE.INTRA.VDW.0>
0

>  <SCORE.INTRA.norm>
0

>  <SCORE.RESTR>
0

>  <SCORE.RESTR.CAVITY>
0

>  <SCORE.RESTR.norm>
0

>  <SCORE.SYSTEM>
0

>  <SCORE.SYSTEM.CONST>
0

>  <SCORE.SYSTEM.DIHEDRAL>
0

>  <SCORE.SYSTEM.SOLV>
0

>  <SCORE.SYSTEM.norm>
0

>  <SCORE.heavy>
10

>  <SCORE.norm>
-0.889076

>  <RMSD>
26.331

$$$$
ligand
 OpenBabel11021811513D
libRbt.so/2013.1/901 2013/11/27
 10 11  0  0  0  0  0  0  0  0999 V2000
  -10.0611   30.8968   -7.2819 N   0  0  0  0  0  0  0  0  0  0  0  0
   -8.9158   31.5681   -7.4551 C   0  0  0  0  0  0  0  0  0  0  0  0
   -7.6839   31.0918   -7.6270 N   0  0  0  0  0  0  0  0  0  0  0  0
   -7.6847   29.7498   -7.6098 C   0  0  0  0  0  0  0  0  0  0  0  0
   -8.7780   28.9231   -7.4404 C   0  0  0  0  0  0  0  0  0  0  0  0
  -10.0291   29.5486   -7.2693 C   0  0  0  0  0  0  0  0  0  0  0  0
  -11.1716   28.8750   -7.0959 N   0  0  0  0  0  0  0  0  0  0  0  0
   -8.3984   27.5921   -7.4790 N   0  0  0  0  0  0  0  0  0  0  0  0
   -7.1001   27.6413   -7.6667 C   0  0  0  0  0  0  0  0  0  0  0  0
   -6.6024   28.9115   -7.7547 N   0  0  0  0  0  0  0  0  0  0  0  0
  1  2  2  0  0  0  0
  1  6  1  0  0  0  0
  2  3  1  0  0  0  0
  3  4  2  0  0  0  0
  4  5  1  0  0  0  0
  4 10  1  0  0  0  0
  5  6  2  0  0  0  0
  5  8  1  0  0  0  0
  6  7  1  0  0  0  0
  8  9  1  0  0  0  0
  9 10  2  0  0  0  0
M  END
>  <CHROM.1>
-8.65332840,29.47930130,-7.46642157,-2.54920116,-0.14311155,3.12875275

>  <Name>
ligand

>  <RI>
0

>  <Rbt.Current_Directory>
/home/itssahil/PROJECTS/Mol_Feturizer/New_Systems/rnas/4TZY

>  <Rbt.Executable>
rbdock ($Id: //depot/dev/client3/rdock/2013.1/src/exe/rbdock.cxx#4 $)

>  <Rbt.Library>
libRbt.so (2013.1, Build901 2013/11/27)

>  <Rbt.Parameter_File>
/export/apps/rDock/src/rDock_2013.1_src/data/scripts/dock_solv.prm

>  <Rbt.Receptor>
prm/blind_docking_40.prm

>  <SCORE>
-8.84187

>  <SCORE.INTER>
-8.84187

>  <SCORE.INTER.CONST>
1

>  <SCORE.INTER.POLAR>
0

>  <SCORE.INTER.ROT>
0

>  <SCORE.INTER.SOLV>
1.07545

>  <SCORE.INTER.VDW>
-9.85306

>  <SCORE.INTER.norm>
-0.884187

>  <SCORE.INTRA>
0

>  <SCORE.INTRA.DIHEDRAL>
0

>  <SCORE.INTRA.DIHEDRAL.0>
0

>  <SCORE.INTRA.POLAR>
0

>  <SCORE.INTRA.POLAR.0>
0

>  <SCORE.INTRA.REPUL>
0

>  <SCORE.INTRA.REPUL.0>
0

>  <SCORE.INTRA.SOLV>
0

>  <SCORE.INTRA.SOLV.lig_0>
-23.8941

>  <SCORE.INTRA.VDW>
0

>  <SCORE.INTRA.VDW.0>
0

>  <SCORE.INTRA.norm>
0

>  <SCORE.RESTR>
0

>  <SCORE.RESTR.CAVITY>
0

>  <SCORE.RESTR.norm>
0

>  <SCORE.SYSTEM>
0

>  <SCORE.SYSTEM.CONST>
0

>  <SCORE.SYSTEM.DIHEDRAL>
0

>  <SCORE.SYSTEM.SOLV>
0

>  <SCORE.SYSTEM.norm>
0

>  <SCORE.heavy>
10

>  <SCORE.norm>
-0.884187

>  <RMSD>
26.345

$$$$
ligand
 OpenBabel11021811513D
libRbt.so/2013.1/901 2013/11/27
 10 11  0  0  0  0  0  0  0  0999 V2000
   -9.9162   31.1552   -7.1698 N   0  0  0  0  0  0  0  0  0  0  0  0
   -8.7276   31.7274   -7.3981 C   0  0  0  0  0  0  0  0  0  0  0  0
   -7.5488   31.1488   -7.6212 N   0  0  0  0  0  0  0  0  0  0  0  0
   -7.6613   29.8117   -7.5949 C   0  0  0  0  0  0  0  0  0  0  0  0
   -8.8114   29.0803   -7.3716 C   0  0  0  0  0  0  0  0  0  0  0  0
   -9.9967   29.8091   -7.1495 C   0  0  0  0  0  0  0  0  0  0  0  0
  -11.1827   29.2344   -6.9211 N   0  0  0  0  0  0  0  0  0  0  0  0
   -8.5467   27.7219   -7.4179 N   0  0  0  0  0  0  0  0  0  0  0  0
   -7.2585   27.6614   -7.6634 C   0  0  0  0  0  0  0  0  0  0  0  0
   -6.6606   28.8850   -7.7819 N   0  0  0  0  0  0  0  0  0  0  0  0
  1  2  2  0  0  0  0
  1  6  1  0  0  0  0
  2  3  1  0  0  0  0
  3  4  2  0  0  0  0
  4  5  1  0  0  0  0
  4 10  1  0  0  0  0
  5  6  2  0  0  0  0
  5  8  1  0  0  0  0
  6  7  1  0  0  0  0
  8  9  1  0  0  0  0
  9 10  2  0  0  0  0
M  END
>  <CHROM.1>
-8.64179502,29.62395001,-7.40689272,-2.46441632,-0.18841985,3.13782867

>  <Name>
ligand

>  <RI>
0

>  <Rbt.Current_Directory>
/home/itssahil/PROJECTS/Mol_Feturizer/New_Systems/rnas/4TZY

>  <Rbt.Executable>
rbdock ($Id: //depot/dev/client3/rdock/2013.1/src/exe/rbdock.cxx#4 $)

>  <Rbt.Library>
libRbt.so (2013.1, Build901 2013/11/27)

>  <Rbt.Parameter_File>
/export/apps/rDock/src/rDock_2013.1_src/data/scripts/dock_solv.prm

>  <Rbt.Receptor>
prm/blind_docking_40.prm

>  <SCORE>
-8.72508

>  <SCORE.INTER>
-8.72508

>  <SCORE.INTER.CONST>
1

>  <SCORE.INTER.POLAR>
0

>  <SCORE.INTER.ROT>
0

>  <SCORE.INTER.SOLV>
2.11598

>  <SCORE.INTER.VDW>
-10.122

>  <SCORE.INTER.norm>
-0.872508

>  <SCORE.INTRA>
0

>  <SCORE.INTRA.DIHEDRAL>
0

>  <SCORE.INTRA.DIHEDRAL.0>
0

>  <SCORE.INTRA.POLAR>
0

>  <SCORE.INTRA.POLAR.0>
0

>  <SCORE.INTRA.REPUL>
0

>  <SCORE.INTRA.REPUL.0>
0

>  <SCORE.INTRA.SOLV>
0

>  <SCORE.INTRA.SOLV.lig_0>
-23.8941

>  <SCORE.INTRA.VDW>
0

>  <SCORE.INTRA.VDW.0>
0

>  <SCORE.INTRA.norm>
0

>  <SCORE.RESTR>
0

>  <SCORE.RESTR.CAVITY>
0

>  <SCORE.RESTR.norm>
0

>  <SCORE.SYSTEM>
0

>  <SCORE.SYSTEM.CONST>
0

>  <SCORE.SYSTEM.DIHEDRAL>
0

>  <SCORE.SYSTEM.SOLV>
0

>  <SCORE.SYSTEM.norm>
0

>  <SCORE.heavy>
10

>  <SCORE.norm>
-0.872508

>  <RMSD>
26.444

$$$$
ligand
 OpenBabel11021811513D
libRbt.so/2013.1/901 2013/11/27
 10 11  0  0  0  0  0  0  0  0999 V2000
   -9.8341   30.8579   -6.5621 N   0  0  0  0  0  0  0  0  0  0  0  0
  -10.3291   29.6792   -6.1646 C   0  0  0  0  0  0  0  0  0  0  0  0
   -9.8140   28.4604   -6.3174 N   0  0  0  0  0  0  0  0  0  0  0  0
   -8.6415   28.5163   -6.9681 C   0  0  0  0  0  0  0  0  0  0  0  0
   -8.0075   29.6492   -7.4392 C   0  0  0  0  0  0  0  0  0  0  0  0
   -8.6536   30.8811   -7.2138 C   0  0  0  0  0  0  0  0  0  0  0  0
   -8.1567   32.0571   -7.6127 N   0  0  0  0  0  0  0  0  0  0  0  0
   -6.8137   29.3222   -8.0599 N   0  0  0  0  0  0  0  0  0  0  0  0
   -6.7527   28.0152   -7.9540 C   0  0  0  0  0  0  0  0  0  0  0  0
   -7.8226   27.4628   -7.3066 N   0  0  0  0  0  0  0  0  0  0  0  0
  1  2  2  0  0  0  0
  1  6  1  0  0  0  0
  2  3  1  0  0  0  0
  3  4  2  0  0  0  0
  4  5  1  0  0  0  0
  4 10  1  0  0  0  0
  5  6  2  0  0  0  0
  5  8  1  0  0  0  0
  6  7  1  0  0  0  0
  8  9  1  0  0  0  0
  9 10  2  0  0  0  0
M  END
>  <CHROM.1>
-8.48298200,29.50103135,-7.16075653,2.25554015,0.50052784,-0.10626836

>  <Name>
ligand

>  <RI>
0

>  <Rbt.Current_Directory>
/home/itssahil/PROJECTS/Mol_Feturizer/New_Systems/rnas/4TZY

>  <Rbt.Executable>
rbdock ($Id: //depot/dev/client3/rdock/2013.1/src/exe/rbdock.cxx#4 $)

>  <Rbt.Library>
libRbt.so (2013.1, Build901 2013/11/27)

>  <Rbt.Parameter_File>
/export/apps/rDock/src/rDock_2013.1_src/data/scripts/dock_solv.prm

>  <Rbt.Receptor>
prm/blind_docking_40.prm

>  <SCORE>
-8.58512

>  <SCORE.INTER>
-8.58512

>  <SCORE.INTER.CONST>
1

>  <SCORE.INTER.POLAR>
0

>  <SCORE.INTER.ROT>
0

>  <SCORE.INTER.SOLV>
4.36713

>  <SCORE.INTER.VDW>
-10.7791

>  <SCORE.INTER.norm>
-0.858512

>  <SCORE.INTRA>
0

>  <SCORE.INTRA.DIHEDRAL>
0

>  <SCORE.INTRA.DIHEDRAL.0>
0

>  <SCORE.INTRA.POLAR>
0

>  <SCORE.INTRA.POLAR.0>
0

>  <SCORE.INTRA.REPUL>
0

>  <SCORE.INTRA.REPUL.0>
0

>  <SCORE.INTRA.SOLV>
0

>  <SCORE.INTRA.SOLV.lig_0>
-23.8941

>  <SCORE.INTRA.VDW>
0

>  <SCORE.INTRA.VDW.0>
0

>  <SCORE.INTRA.norm>
0

>  <SCORE.RESTR>
0

>  <SCORE.RESTR.CAVITY>
0

>  <SCORE.RESTR.norm>
0

>  <SCORE.SYSTEM>
0

>  <SCORE.SYSTEM.CONST>
0

>  <SCORE.SYSTEM.DIHEDRAL>
0

>  <SCORE.SYSTEM.SOLV>
0

>  <SCORE.SYSTEM.norm>
0

>  <SCORE.heavy>
10

>  <SCORE.norm>
-0.858512

>  <RMSD>
26.570

$$$$
ligand
 OpenBabel11021811513D
libRbt.so/2013.1/901 2013/11/27
 10 11  0  0  0  0  0  0  0  0999 V2000
   -8.6252   27.5639   -7.2358 N   0  0  0  0  0  0  0  0  0  0  0  0
   -7.3579   27.6430   -7.6600 C   0  0  0  0  0  0  0  0  0  0  0  0
   -6.6340   28.7259   -7.9378 N   0  0  0  0  0  0  0  0  0  0  0  0
   -7.3509   29.8429   -7.7384 C   0  0  0  0  0  0  0  0  0  0  0  0
   -8.6607   29.9219   -7.3074 C   0  0  0  0  0  0  0  0  0  0  0  0
   -9.3194   28.7043   -7.0448 C   0  0  0  0  0  0  0  0  0  0  0  0
  -10.5860   28.6286   -6.6215 N   0  0  0  0  0  0  0  0  0  0  0  0
   -9.0694   31.2418   -7.2167 N   0  0  0  0  0  0  0  0  0  0  0  0
   -8.0125   31.9241   -7.5916 C   0  0  0  0  0  0  0  0  0  0  0  0
   -6.9394   31.1438   -7.9209 N   0  0  0  0  0  0  0  0  0  0  0  0
  1  2  2  0  0  0  0
  1  6  1  0  0  0  0
  2  3  1  0  0  0  0
  3  4  2  0  0  0  0
  4  5  1  0  0  0  0
  4 10  1  0  0  0  0
  5  6  2  0  0  0  0
  5  8  1  0  0  0  0
  6  7  1  0  0  0  0
  8  9  1  0  0  0  0
  9 10  2  0  0  0  0
M  END
>  <CHROM.1>
-8.26439209,29.52840153,-7.42434216,-1.95191724,0.32056324,-0.03490066

>  <Name>
ligand

>  <RI>
0

>  <Rbt.Current_Directory>
/home/itssahil/PROJECTS/Mol_Feturizer/New_Systems/rnas/4TZY

>  <Rbt.Executable>
rbdock ($Id: //depot/dev/client3/rdock/2013.1/src/exe/rbdock.cxx#4 $)

>  <Rbt.Library>
libRbt.so (2013.1, Build901 2013/11/27)

>  <Rbt.Parameter_File>
/export/apps/rDock/src/rDock_2013.1_src/data/scripts/dock_solv.prm

>  <Rbt.Receptor>
prm/blind_docking_40.prm

>  <SCORE>
-9.60725

>  <SCORE.INTER>
-9.60725

>  <SCORE.INTER.CONST>
1

>  <SCORE.INTER.POLAR>
0

>  <SCORE.INTER.ROT>
0

>  <SCORE.INTER.SOLV>
2.59986

>  <SCORE.INTER.VDW>
-10.8715

>  <SCORE.INTER.norm>
-0.960725

>  <SCORE.INTRA>
0

>  <SCORE.INTRA.DIHEDRAL>
0

>  <SCORE.INTRA.DIHEDRAL.0>
0

>  <SCORE.INTRA.POLAR>
0

>  <SCORE.INTRA.POLAR.0>
0

>  <SCORE.INTRA.REPUL>
0

>  <SCORE.INTRA.REPUL.0>
0

>  <SCORE.INTRA.SOLV>
0

>  <SCORE.INTRA.SOLV.lig_0>
-23.8941

>  <SCORE.INTRA.VDW>
0

>  <SCORE.INTRA.VDW.0>
0

>  <SCORE.INTRA.norm>
0

>  <SCORE.RESTR>
0

>  <SCORE.RESTR.CAVITY>
0

>  <SCORE.RESTR.norm>
0

>  <SCORE.SYSTEM>
0

>  <SCORE.SYSTEM.CONST>
0

>  <SCORE.SYSTEM.DIHEDRAL>
0

>  <SCORE.SYSTEM.SOLV>
0

>  <SCORE.SYSTEM.norm>
0

>  <SCORE.heavy>
10

>  <SCORE.norm>
-0.960725

>  <RMSD>
26.682

$$$$
ligand
 OpenBabel11021811513D
libRbt.so/2013.1/901 2013/11/27
 10 11  0  0  0  0  0  0  0  0999 V2000
   -8.6273   27.5727   -7.2381 N   0  0  0  0  0  0  0  0  0  0  0  0
   -7.3596   27.6362   -7.6639 C   0  0  0  0  0  0  0  0  0  0  0  0
   -6.6229   28.7102   -7.9430 N   0  0  0  0  0  0  0  0  0  0  0  0
   -7.3260   29.8358   -7.7434 C   0  0  0  0  0  0  0  0  0  0  0  0
   -8.6343   29.9309   -7.3109 C   0  0  0  0  0  0  0  0  0  0  0  0
   -9.3074   28.7214   -7.0469 C   0  0  0  0  0  0  0  0  0  0  0  0
  -10.5743   28.6613   -6.6220 N   0  0  0  0  0  0  0  0  0  0  0  0
   -9.0269   31.2557   -7.2204 N   0  0  0  0  0  0  0  0  0  0  0  0
   -7.9622   31.9250   -7.5968 C   0  0  0  0  0  0  0  0  0  0  0  0
   -6.8991   31.1316   -7.9270 N   0  0  0  0  0  0  0  0  0  0  0  0
  1  2  2  0  0  0  0
  1  6  1  0  0  0  0
  2  3  1  0  0  0  0
  3  4  2  0  0  0  0
  4  5  1  0  0  0  0
  4 10  1  0  0  0  0
  5  6  2  0  0  0  0
  5  8  1  0  0  0  0
  6  7  1  0  0  0  0
  8  9  1  0  0  0  0
  9 10  2  0  0  0  0
M  END
>  <CHROM.1>
-8.24289690,29.53257394,-7.42808968,-1.96461374,0.32213881,-0.03139936

>  <Name>
ligand

>  <RI>
0

>  <Rbt.Current_Directory>
/home/itssahil/PROJECTS/Mol_Feturizer/New_Systems/rnas/4TZY

>  <Rbt.Executable>
rbdock ($Id: //depot/dev/client3/rdock/2013.1/src/exe/rbdock.cxx#4 $)

>  <Rbt.Library>
libRbt.so (2013.1, Build901 2013/11/27)

>  <Rbt.Parameter_File>
/export/apps/rDock/src/rDock_2013.1_src/data/scripts/dock_solv.prm

>  <Rbt.Receptor>
prm/blind_docking_100.prm

>  <SCORE>
-9.6135

>  <SCORE.INTER>
-9.6135

>  <SCORE.INTER.CONST>
1

>  <SCORE.INTER.POLAR>
0

>  <SCORE.INTER.ROT>
0

>  <SCORE.INTER.SOLV>
2.58625

>  <SCORE.INTER.VDW>
-10.8711

>  <SCORE.INTER.norm>
-0.96135

>  <SCORE.INTRA>
0

>  <SCORE.INTRA.DIHEDRAL>
0

>  <SCORE.INTRA.DIHEDRAL.0>
0

>  <SCORE.INTRA.POLAR>
0

>  <SCORE.INTRA.POLAR.0>
0

>  <SCORE.INTRA.REPUL>
0

>  <SCORE.INTRA.REPUL.0>
0

>  <SCORE.INTRA.SOLV>
0

>  <SCORE.INTRA.SOLV.lig_0>
-23.8941

>  <SCORE.INTRA.VDW>
0

>  <SCORE.INTRA.VDW.0>
0

>  <SCORE.INTRA.norm>
0

>  <SCORE.RESTR>
0

>  <SCORE.RESTR.CAVITY>
0

>  <SCORE.RESTR.norm>
0

>  <SCORE.SYSTEM>
0

>  <SCORE.SYSTEM.CONST>
0

>  <SCORE.SYSTEM.DIHEDRAL>
0

>  <SCORE.SYSTEM.SOLV>
0

>  <SCORE.SYSTEM.norm>
0

>  <SCORE.heavy>
10

>  <SCORE.norm>
-0.96135

>  <RMSD>
26.701

$$$$
ligand
 OpenBabel11021811513D
libRbt.so/2013.1/901 2013/11/27
 10 11  0  0  0  0  0  0  0  0999 V2000
   -8.6060   27.5666   -7.2418 N   0  0  0  0  0  0  0  0  0  0  0  0
   -7.3350   27.6442   -7.6553 C   0  0  0  0  0  0  0  0  0  0  0  0
   -6.6068   28.7264   -7.9249 N   0  0  0  0  0  0  0  0  0  0  0  0
   -7.3233   29.8443   -7.7294 C   0  0  0  0  0  0  0  0  0  0  0  0
   -8.6366   29.9249   -7.3092 C   0  0  0  0  0  0  0  0  0  0  0  0
   -9.2997   28.7079   -7.0545 C   0  0  0  0  0  0  0  0  0  0  0  0
  -10.5699   28.6337   -6.6420 N   0  0  0  0  0  0  0  0  0  0  0  0
   -9.0436   31.2453   -7.2194 N   0  0  0  0  0  0  0  0  0  0  0  0
   -7.9824   31.9264   -7.5841 C   0  0  0  0  0  0  0  0  0  0  0  0
   -6.9080   31.1448   -7.9059 N   0  0  0  0  0  0  0  0  0  0  0  0
  1  2  2  0  0  0  0
  1  6  1  0  0  0  0
  2  3  1  0  0  0  0
  3  4  2  0  0  0  0
  4  5  1  0  0  0  0
  4 10  1  0  0  0  0
  5  6  2  0  0  0  0
  5  8  1  0  0  0  0
  6  7  1  0  0  0  0
  8  9  1  0  0  0  0
  9 10  2  0  0  0  0
M  END
>  <CHROM.1>
-8.24000441,29.53083019,-7.42358399,-1.95412178,0.31223169,-0.03230012

>  <Name>
ligand

>  <RI>
0

>  <Rbt.Current_Directory>
/home/itssahil/PROJECTS/Mol_Feturizer/New_Systems/rnas/4TZY

>  <Rbt.Executable>
rbdock ($Id: //depot/dev/client3/rdock/2013.1/src/exe/rbdock.cxx#4 $)

>  <Rbt.Library>
libRbt.so (2013.1, Build901 2013/11/27)

>  <Rbt.Parameter_File>
/export/apps/rDock/src/rDock_2013.1_src/data/scripts/dock_solv.prm

>  <Rbt.Receptor>
prm/blind_docking_40.prm

>  <SCORE>
-9.61099

>  <SCORE.INTER>
-9.61099

>  <SCORE.INTER.CONST>
1

>  <SCORE.INTER.POLAR>
0

>  <SCORE.INTER.ROT>
0

>  <SCORE.INTER.SOLV>
2.5496

>  <SCORE.INTER.VDW>
-10.8572

>  <SCORE.INTER.norm>
-0.961099

>  <SCORE.INTRA>
0

>  <SCORE.INTRA.DIHEDRAL>
0

>  <SCORE.INTRA.DIHEDRAL.0>
0

>  <SCORE.INTRA.POLAR>
0

>  <SCORE.INTRA.POLAR.0>
0

>  <SCORE.INTRA.REPUL>
0

>  <SCORE.INTRA.REPUL.0>
0

>  <SCORE.INTRA.SOLV>
0

>  <SCORE.INTRA.SOLV.lig_0>
-23.8941

>  <SCORE.INTRA.VDW>
0

>  <SCORE.INTRA.VDW.0>
0

>  <SCORE.INTRA.norm>
0

>  <SCORE.RESTR>
0

>  <SCORE.RESTR.CAVITY>
0

>  <SCORE.RESTR.norm>
0

>  <SCORE.SYSTEM>
0

>  <SCORE.SYSTEM.CONST>
0

>  <SCORE.SYSTEM.DIHEDRAL>
0

>  <SCORE.SYSTEM.SOLV>
0

>  <SCORE.SYSTEM.norm>
0

>  <SCORE.heavy>
10

>  <SCORE.norm>
-0.961099

>  <RMSD>
26.704

$$$$
ligand
 OpenBabel11021811513D
libRbt.so/2013.1/901 2013/11/27
 10 11  0  0  0  0  0  0  0  0999 V2000
   -8.6058   27.5739   -7.2450 N   0  0  0  0  0  0  0  0  0  0  0  0
   -7.3369   27.6512   -7.6650 C   0  0  0  0  0  0  0  0  0  0  0  0
   -6.6089   28.7333   -7.9355 N   0  0  0  0  0  0  0  0  0  0  0  0
   -7.3232   29.8515   -7.7331 C   0  0  0  0  0  0  0  0  0  0  0  0
   -8.6340   29.9323   -7.3058 C   0  0  0  0  0  0  0  0  0  0  0  0
   -9.2972   28.7154   -7.0509 C   0  0  0  0  0  0  0  0  0  0  0  0
  -10.5653   28.6415   -6.6318 N   0  0  0  0  0  0  0  0  0  0  0  0
   -9.0392   31.2529   -7.2101 N   0  0  0  0  0  0  0  0  0  0  0  0
   -7.9791   31.9339   -7.5786 C   0  0  0  0  0  0  0  0  0  0  0  0
   -6.9073   31.1520   -7.9082 N   0  0  0  0  0  0  0  0  0  0  0  0
  1  2  2  0  0  0  0
  1  6  1  0  0  0  0
  2  3  1  0  0  0  0
  3  4  2  0  0  0  0
  4  5  1  0  0  0  0
  4 10  1  0  0  0  0
  5  6  2  0  0  0  0
  5  8  1  0  0  0  0
  6  7  1  0  0  0  0
  8  9  1  0  0  0  0
  9 10  2  0  0  0  0
M  END
>  <CHROM.1>
-8.23855285,29.53819001,-7.42331296,-1.95512256,0.31757369,-0.02922139

>  <Name>
ligand

>  <RI>
0

>  <Rbt.Current_Directory>
/home/itssahil/PROJECTS/Mol_Feturizer/New_Systems/rnas/4TZY

>  <Rbt.Executable>
rbdock ($Id: //depot/dev/client3/rdock/2013.1/src/exe/rbdock.cxx#4 $)

>  <Rbt.Library>
libRbt.so (2013.1, Build901 2013/11/27)

>  <Rbt.Parameter_File>
/export/apps/rDock/src/rDock_2013.1_src/data/scripts/dock_solv.prm

>  <Rbt.Receptor>
prm/blind_docking_40.prm

>  <SCORE>
-9.61282

>  <SCORE.INTER>
-9.61282

>  <SCORE.INTER.CONST>
1

>  <SCORE.INTER.POLAR>
0

>  <SCORE.INTER.ROT>
0

>  <SCORE.INTER.SOLV>
2.57638

>  <SCORE.INTER.VDW>
-10.8673

>  <SCORE.INTER.norm>
-0.961282

>  <SCORE.INTRA>
0

>  <SCORE.INTRA.DIHEDRAL>
0

>  <SCORE.INTRA.DIHEDRAL.0>
0

>  <SCORE.INTRA.POLAR>
0

>  <SCORE.INTRA.POLAR.0>
0

>  <SCORE.INTRA.REPUL>
0

>  <SCORE.INTRA.REPUL.0>
0

>  <SCORE.INTRA.SOLV>
0

>  <SCORE.INTRA.SOLV.lig_0>
-23.8941

>  <SCORE.INTRA.VDW>
0

>  <SCORE.INTRA.VDW.0>
0

>  <SCORE.INTRA.norm>
0

>  <SCORE.RESTR>
0

>  <SCORE.RESTR.CAVITY>
0

>  <SCORE.RESTR.norm>
0

>  <SCORE.SYSTEM>
0

>  <SCORE.SYSTEM.CONST>
0

>  <SCORE.SYSTEM.DIHEDRAL>
0

>  <SCORE.SYSTEM.SOLV>
0

>  <SCORE.SYSTEM.norm>
0

>  <SCORE.heavy>
10

>  <SCORE.norm>
-0.961282

>  <RMSD>
26.708

$$$$
ligand
 OpenBabel11021811513D
libRbt.so/2013.1/901 2013/11/27
 10 11  0  0  0  0  0  0  0  0999 V2000
   -8.6011   27.5815   -7.2387 N   0  0  0  0  0  0  0  0  0  0  0  0
   -7.3377   27.6539   -7.6756 C   0  0  0  0  0  0  0  0  0  0  0  0
   -6.6113   28.7329   -7.9621 N   0  0  0  0  0  0  0  0  0  0  0  0
   -7.3208   29.8536   -7.7572 C   0  0  0  0  0  0  0  0  0  0  0  0
   -8.6258   29.9396   -7.3133 C   0  0  0  0  0  0  0  0  0  0  0  0
   -9.2878   28.7255   -7.0425 C   0  0  0  0  0  0  0  0  0  0  0  0
  -10.5505   28.6565   -6.6065 N   0  0  0  0  0  0  0  0  0  0  0  0
   -9.0272   31.2616   -7.2204 N   0  0  0  0  0  0  0  0  0  0  0  0
   -7.9708   31.9383   -7.6067 C   0  0  0  0  0  0  0  0  0  0  0  0
   -6.9048   31.1523   -7.9455 N   0  0  0  0  0  0  0  0  0  0  0  0
  1  2  2  0  0  0  0
  1  6  1  0  0  0  0
  2  3  1  0  0  0  0
  3  4  2  0  0  0  0
  4  5  1  0  0  0  0
  4 10  1  0  0  0  0
  5  6  2  0  0  0  0
  5  8  1  0  0  0  0
  6  7  1  0  0  0  0
  8  9  1  0  0  0  0
  9 10  2  0  0  0  0
M  END
>  <CHROM.1>
-8.23261713,29.54400709,-7.43359612,-1.95667142,0.33064949,-0.03475393

>  <Name>
ligand

>  <RI>
0

>  <Rbt.Current_Directory>
/home/itssahil/PROJECTS/Mol_Feturizer/New_Systems/rnas/4TZY

>  <Rbt.Executable>
rbdock ($Id: //depot/dev/client3/rdock/2013.1/src/exe/rbdock.cxx#4 $)

>  <Rbt.Library>
libRbt.so (2013.1, Build901 2013/11/27)

>  <Rbt.Parameter_File>
/export/apps/rDock/src/rDock_2013.1_src/data/scripts/dock_solv.prm

>  <Rbt.Receptor>
prm/blind_docking_60.prm

>  <SCORE>
-9.60731

>  <SCORE.INTER>
-9.60731

>  <SCORE.INTER.CONST>
1

>  <SCORE.INTER.POLAR>
0

>  <SCORE.INTER.ROT>
0

>  <SCORE.INTER.SOLV>
2.63405

>  <SCORE.INTER.VDW>
-10.8829

>  <SCORE.INTER.norm>
-0.960731

>  <SCORE.INTRA>
0

>  <SCORE.INTRA.DIHEDRAL>
0

>  <SCORE.INTRA.DIHEDRAL.0>
0

>  <SCORE.INTRA.POLAR>
0

>  <SCORE.INTRA.POLAR.0>
0

>  <SCORE.INTRA.REPUL>
0

>  <SCORE.INTRA.REPUL.0>
0

>  <SCORE.INTRA.SOLV>
0

>  <SCORE.INTRA.SOLV.lig_0>
-23.8941

>  <SCORE.INTRA.VDW>
0

>  <SCORE.INTRA.VDW.0>
0

>  <SCORE.INTRA.norm>
0

>  <SCORE.RESTR>
0

>  <SCORE.RESTR.CAVITY>
0

>  <SCORE.RESTR.norm>
0

>  <SCORE.SYSTEM>
0

>  <SCORE.SYSTEM.CONST>
0

>  <SCORE.SYSTEM.DIHEDRAL>
0

>  <SCORE.SYSTEM.SOLV>
0

>  <SCORE.SYSTEM.norm>
0

>  <SCORE.heavy>
10

>  <SCORE.norm>
-0.960731

>  <RMSD>
26.712

$$$$
ligand
 OpenBabel11021811513D
libRbt.so/2013.1/901 2013/11/27
 10 11  0  0  0  0  0  0  0  0999 V2000
   -8.6311   27.5988   -7.2183 N   0  0  0  0  0  0  0  0  0  0  0  0
   -7.3705   27.6513   -7.6660 C   0  0  0  0  0  0  0  0  0  0  0  0
   -6.6319   28.7185   -7.9652 N   0  0  0  0  0  0  0  0  0  0  0  0
   -7.3245   29.8500   -7.7617 C   0  0  0  0  0  0  0  0  0  0  0  0
   -8.6245   29.9565   -7.3078 C   0  0  0  0  0  0  0  0  0  0  0  0
   -9.3007   28.7532   -7.0238 C   0  0  0  0  0  0  0  0  0  0  0  0
  -10.5605   28.7042   -6.5772 N   0  0  0  0  0  0  0  0  0  0  0  0
   -9.0072   31.2843   -7.2201 N   0  0  0  0  0  0  0  0  0  0  0  0
   -7.9450   31.9442   -7.6193 C   0  0  0  0  0  0  0  0  0  0  0  0
   -6.8925   31.1417   -7.9618 N   0  0  0  0  0  0  0  0  0  0  0  0
  1  2  2  0  0  0  0
  1  6  1  0  0  0  0
  2  3  1  0  0  0  0
  3  4  2  0  0  0  0
  4  5  1  0  0  0  0
  4 10  1  0  0  0  0
  5  6  2  0  0  0  0
  5  8  1  0  0  0  0
  6  7  1  0  0  0  0
  8  9  1  0  0  0  0
  9 10  2  0  0  0  0
M  END
>  <CHROM.1>
-8.23773010,29.55483960,-7.42877457,-1.97070964,0.33929807,-0.03649694

>  <Name>
ligand

>  <RI>
0

>  <Rbt.Current_Directory>
/home/itssahil/PROJECTS/Mol_Feturizer/New_Systems/rnas/4TZY

>  <Rbt.Executable>
rbdock ($Id: //depot/dev/client3/rdock/2013.1/src/exe/rbdock.cxx#4 $)

>  <Rbt.Library>
libRbt.so (2013.1, Build901 2013/11/27)

>  <Rbt.Parameter_File>
/export/apps/rDock/src/rDock_2013.1_src/data/scripts/dock_solv.prm

>  <Rbt.Receptor>
prm/blind_docking_100.prm

>  <SCORE>
-9.59597

>  <SCORE.INTER>
-9.59597

>  <SCORE.INTER.CONST>
1

>  <SCORE.INTER.POLAR>
0

>  <SCORE.INTER.ROT>
0

>  <SCORE.INTER.SOLV>
2.68115

>  <SCORE.INTER.VDW>
-10.891

>  <SCORE.INTER.norm>
-0.959597

>  <SCORE.INTRA>
0

>  <SCORE.INTRA.DIHEDRAL>
0

>  <SCORE.INTRA.DIHEDRAL.0>
0

>  <SCORE.INTRA.POLAR>
0

>  <SCORE.INTRA.POLAR.0>
0

>  <SCORE.INTRA.REPUL>
0

>  <SCORE.INTRA.REPUL.0>
0

>  <SCORE.INTRA.SOLV>
0

>  <SCORE.INTRA.SOLV.lig_0>
-23.8941

>  <SCORE.INTRA.VDW>
0

>  <SCORE.INTRA.VDW.0>
0

>  <SCORE.INTRA.norm>
0

>  <SCORE.RESTR>
0

>  <SCORE.RESTR.CAVITY>
0

>  <SCORE.RESTR.norm>
0

>  <SCORE.SYSTEM>
0

>  <SCORE.SYSTEM.CONST>
0

>  <SCORE.SYSTEM.DIHEDRAL>
0

>  <SCORE.SYSTEM.SOLV>
0

>  <SCORE.SYSTEM.norm>
0

>  <SCORE.heavy>
10

>  <SCORE.norm>
-0.959597

>  <RMSD>
26.714

$$$$
ligand
 OpenBabel11021811513D
libRbt.so/2013.1/901 2013/11/27
 10 11  0  0  0  0  0  0  0  0999 V2000
   -8.6238   27.5952   -7.2097 N   0  0  0  0  0  0  0  0  0  0  0  0
   -7.3610   27.6524   -7.6504 C   0  0  0  0  0  0  0  0  0  0  0  0
   -6.6255   28.7224   -7.9474 N   0  0  0  0  0  0  0  0  0  0  0  0
   -7.3241   29.8512   -7.7498 C   0  0  0  0  0  0  0  0  0  0  0  0
   -8.6271   29.9527   -7.3032 C   0  0  0  0  0  0  0  0  0  0  0  0
   -9.2995   28.7470   -7.0209 C   0  0  0  0  0  0  0  0  0  0  0  0
  -10.5616   28.6931   -6.5812 N   0  0  0  0  0  0  0  0  0  0  0  0
   -9.0161   31.2790   -7.2200 N   0  0  0  0  0  0  0  0  0  0  0  0
   -7.9545   31.9428   -7.6144 C   0  0  0  0  0  0  0  0  0  0  0  0
   -6.8967   31.1443   -7.9496 N   0  0  0  0  0  0  0  0  0  0  0  0
  1  2  2  0  0  0  0
  1  6  1  0  0  0  0
  2  3  1  0  0  0  0
  3  4  2  0  0  0  0
  4  5  1  0  0  0  0
  4 10  1  0  0  0  0
  5  6  2  0  0  0  0
  5  8  1  0  0  0  0
  6  7  1  0  0  0  0
  8  9  1  0  0  0  0
  9 10  2  0  0  0  0
M  END
>  <CHROM.1>
-8.23786046,29.55253791,-7.42136763,-1.96629603,0.33357836,-0.03966493

>  <Name>
ligand

>  <RI>
0

>  <Rbt.Current_Directory>
/home/itssahil/PROJECTS/Mol_Feturizer/New_Systems/rnas/4TZY

>  <Rbt.Executable>
rbdock ($Id: //depot/dev/client3/rdock/2013.1/src/exe/rbdock.cxx#4 $)

>  <Rbt.Library>
libRbt.so (2013.1, Build901 2013/11/27)

>  <Rbt.Parameter_File>
/export/apps/rDock/src/rDock_2013.1_src/data/scripts/dock_solv.prm

>  <Rbt.Receptor>
prm/blind_docking_40.prm

>  <SCORE>
-9.58999

>  <SCORE.INTER>
-9.58999

>  <SCORE.INTER.CONST>
1

>  <SCORE.INTER.POLAR>
0

>  <SCORE.INTER.ROT>
0

>  <SCORE.INTER.SOLV>
2.67918

>  <SCORE.INTER.VDW>
-10.8864

>  <SCORE.INTER.norm>
-0.958999

>  <SCORE.INTRA>
0

>  <SCORE.INTRA.DIHEDRAL>
0

>  <SCORE.INTRA.DIHEDRAL.0>
0

>  <SCORE.INTRA.POLAR>
0

>  <SCORE.INTRA.POLAR.0>
0

>  <SCORE.INTRA.REPUL>
0

>  <SCORE.INTRA.REPUL.0>
0

>  <SCORE.INTRA.SOLV>
0

>  <SCORE.INTRA.SOLV.lig_0>
-23.8941

>  <SCORE.INTRA.VDW>
0

>  <SCORE.INTRA.VDW.0>
0

>  <SCORE.INTRA.norm>
0

>  <SCORE.RESTR>
0

>  <SCORE.RESTR.CAVITY>
0

>  <SCORE.RESTR.norm>
0

>  <SCORE.SYSTEM>
0

>  <SCORE.SYSTEM.CONST>
0

>  <SCORE.SYSTEM.DIHEDRAL>
0

>  <SCORE.SYSTEM.SOLV>
0

>  <SCORE.SYSTEM.norm>
0

>  <SCORE.heavy>
10

>  <SCORE.norm>
-0.958999

>  <RMSD>
26.715

$$$$
ligand
 OpenBabel11021811513D
libRbt.so/2013.1/901 2013/11/27
 10 11  0  0  0  0  0  0  0  0999 V2000
   -9.3344   31.5488   -7.4718 N   0  0  0  0  0  0  0  0  0  0  0  0
   -8.0772   31.8566   -7.8138 C   0  0  0  0  0  0  0  0  0  0  0  0
   -7.0365   31.0455   -7.9958 N   0  0  0  0  0  0  0  0  0  0  0  0
   -7.3861   29.7668   -7.7865 C   0  0  0  0  0  0  0  0  0  0  0  0
   -8.6344   29.2960   -7.4293 C   0  0  0  0  0  0  0  0  0  0  0  0
   -9.6546   30.2546   -7.2683 C   0  0  0  0  0  0  0  0  0  0  0  0
  -10.9098   29.9438   -6.9260 N   0  0  0  0  0  0  0  0  0  0  0  0
   -8.6216   27.9173   -7.3014 N   0  0  0  0  0  0  0  0  0  0  0  0
   -7.3816   27.5879   -7.5787 C   0  0  0  0  0  0  0  0  0  0  0  0
   -6.5809   28.6542   -7.8801 N   0  0  0  0  0  0  0  0  0  0  0  0
  1  2  2  0  0  0  0
  1  6  1  0  0  0  0
  2  3  1  0  0  0  0
  3  4  2  0  0  0  0
  4  5  1  0  0  0  0
  4 10  1  0  0  0  0
  5  6  2  0  0  0  0
  5  8  1  0  0  0  0
  6  7  1  0  0  0  0
  8  9  1  0  0  0  0
  9 10  2  0  0  0  0
M  END
>  <CHROM.1>
-8.37206605,29.78981514,-7.54283751,-2.27811647,-0.24293741,3.04612599

>  <Name>
ligand

>  <RI>
0

>  <Rbt.Current_Directory>
/home/itssahil/PROJECTS/Mol_Feturizer/New_Systems/rnas/4TZY

>  <Rbt.Executable>
rbdock ($Id: //depot/dev/client3/rdock/2013.1/src/exe/rbdock.cxx#4 $)

>  <Rbt.Library>
libRbt.so (2013.1, Build901 2013/11/27)

>  <Rbt.Parameter_File>
/export/apps/rDock/src/rDock_2013.1_src/data/scripts/dock_solv.prm

>  <Rbt.Receptor>
prm/blind_docking_40.prm

>  <SCORE>
-8.73733

>  <SCORE.INTER>
-8.73733

>  <SCORE.INTER.CONST>
1

>  <SCORE.INTER.POLAR>
0

>  <SCORE.INTER.ROT>
0

>  <SCORE.INTER.SOLV>
3.14637

>  <SCORE.INTER.VDW>
-10.4737

>  <SCORE.INTER.norm>
-0.873733

>  <SCORE.INTRA>
0

>  <SCORE.INTRA.DIHEDRAL>
0

>  <SCORE.INTRA.DIHEDRAL.0>
0

>  <SCORE.INTRA.POLAR>
0

>  <SCORE.INTRA.POLAR.0>
0

>  <SCORE.INTRA.REPUL>
0

>  <SCORE.INTRA.REPUL.0>
0

>  <SCORE.INTRA.SOLV>
0

>  <SCORE.INTRA.SOLV.lig_0>
-23.8941

>  <SCORE.INTRA.VDW>
0

>  <SCORE.INTRA.VDW.0>
0

>  <SCORE.INTRA.norm>
0

>  <SCORE.RESTR>
0

>  <SCORE.RESTR.CAVITY>
0

>  <SCORE.RESTR.norm>
0

>  <SCORE.SYSTEM>
0

>  <SCORE.SYSTEM.CONST>
0

>  <SCORE.SYSTEM.DIHEDRAL>
0

>  <SCORE.SYSTEM.SOLV>
0

>  <SCORE.SYSTEM.norm>
0

>  <SCORE.heavy>
10

>  <SCORE.norm>
-0.873733

>  <RMSD>
26.715

$$$$
ligand
 OpenBabel11021811513D
libRbt.so/2013.1/901 2013/11/27
 10 11  0  0  0  0  0  0  0  0999 V2000
   -8.6253   27.5972   -7.2223 N   0  0  0  0  0  0  0  0  0  0  0  0
   -7.3640   27.6540   -7.6677 C   0  0  0  0  0  0  0  0  0  0  0  0
   -6.6280   28.7239   -7.9639 N   0  0  0  0  0  0  0  0  0  0  0  0
   -7.3242   29.8530   -7.7599 C   0  0  0  0  0  0  0  0  0  0  0  0
   -8.6253   29.9551   -7.3080 C   0  0  0  0  0  0  0  0  0  0  0  0
   -9.2985   28.7494   -7.0271 C   0  0  0  0  0  0  0  0  0  0  0  0
  -10.5589   28.6960   -6.5828 N   0  0  0  0  0  0  0  0  0  0  0  0
   -9.0120   31.2816   -7.2189 N   0  0  0  0  0  0  0  0  0  0  0  0
   -7.9509   31.9452   -7.6152 C   0  0  0  0  0  0  0  0  0  0  0  0
   -6.8956   31.1463   -7.9571 N   0  0  0  0  0  0  0  0  0  0  0  0
  1  2  2  0  0  0  0
  1  6  1  0  0  0  0
  2  3  1  0  0  0  0
  3  4  2  0  0  0  0
  4  5  1  0  0  0  0
  4 10  1  0  0  0  0
  5  6  2  0  0  0  0
  5  8  1  0  0  0  0
  6  7  1  0  0  0  0
  8  9  1  0  0  0  0
  9 10  2  0  0  0  0
M  END
>  <CHROM.1>
-8.23713661,29.55471387,-7.42896008,-1.96772643,0.33745992,-0.03589217

>  <Name>
ligand

>  <RI>
0

>  <Rbt.Current_Directory>
/home/itssahil/PROJECTS/Mol_Feturizer/New_Systems/rnas/4TZY

>  <Rbt.Executable>
rbdock ($Id: //depot/dev/client3/rdock/2013.1/src/exe/rbdock.cxx#4 $)

>  <Rbt.Library>
libRbt.so (2013.1, Build901 2013/11/27)

>  <Rbt.Parameter_File>
/export/apps/rDock/src/rDock_2013.1_src/data/scripts/dock_solv.prm

>  <Rbt.Receptor>
prm/blind_docking_40.prm

>  <SCORE>
-9.59422

>  <SCORE.INTER>
-9.59422

>  <SCORE.INTER.CONST>
1

>  <SCORE.INTER.POLAR>
0

>  <SCORE.INTER.ROT>
0

>  <SCORE.INTER.SOLV>
2.67181

>  <SCORE.INTER.VDW>
-10.8868

>  <SCORE.INTER.norm>
-0.959422

>  <SCORE.INTRA>
0

>  <SCORE.INTRA.DIHEDRAL>
0

>  <SCORE.INTRA.DIHEDRAL.0>
0

>  <SCORE.INTRA.POLAR>
0

>  <SCORE.INTRA.POLAR.0>
0

>  <SCORE.INTRA.REPUL>
0

>  <SCORE.INTRA.REPUL.0>
0

>  <SCORE.INTRA.SOLV>
0

>  <SCORE.INTRA.SOLV.lig_0>
-23.8941

>  <SCORE.INTRA.VDW>
0

>  <SCORE.INTRA.VDW.0>
0

>  <SCORE.INTRA.norm>
0

>  <SCORE.RESTR>
0

>  <SCORE.RESTR.CAVITY>
0

>  <SCORE.RESTR.norm>
0

>  <SCORE.SYSTEM>
0

>  <SCORE.SYSTEM.CONST>
0

>  <SCORE.SYSTEM.DIHEDRAL>
0

>  <SCORE.SYSTEM.SOLV>
0

>  <SCORE.SYSTEM.norm>
0

>  <SCORE.heavy>
10

>  <SCORE.norm>
-0.959422

>  <RMSD>
26.715

$$$$
ligand
 OpenBabel11021811513D
libRbt.so/2013.1/901 2013/11/27
 10 11  0  0  0  0  0  0  0  0999 V2000
   -8.5697   27.5730   -7.2488 N   0  0  0  0  0  0  0  0  0  0  0  0
   -7.3082   27.6415   -7.6920 C   0  0  0  0  0  0  0  0  0  0  0  0
   -6.5795   28.7183   -7.9807 N   0  0  0  0  0  0  0  0  0  0  0  0
   -7.2840   29.8412   -7.7709 C   0  0  0  0  0  0  0  0  0  0  0  0
   -8.5865   29.9312   -7.3203 C   0  0  0  0  0  0  0  0  0  0  0  0
   -9.2514   28.7191   -7.0477 C   0  0  0  0  0  0  0  0  0  0  0  0
  -10.5121   28.6540   -6.6054 N   0  0  0  0  0  0  0  0  0  0  0  0
   -8.9828   31.2544   -7.2237 N   0  0  0  0  0  0  0  0  0  0  0  0
   -7.9260   31.9279   -7.6145 C   0  0  0  0  0  0  0  0  0  0  0  0
   -6.8645   31.1386   -7.9597 N   0  0  0  0  0  0  0  0  0  0  0  0
  1  2  2  0  0  0  0
  1  6  1  0  0  0  0
  2  3  1  0  0  0  0
  3  4  2  0  0  0  0
  4  5  1  0  0  0  0
  4 10  1  0  0  0  0
  5  6  2  0  0  0  0
  5  8  1  0  0  0  0
  6  7  1  0  0  0  0
  8  9  1  0  0  0  0
  9 10  2  0  0  0  0
M  END
>  <CHROM.1>
-8.19530696,29.53439356,-7.44310897,-1.96019390,0.33579912,-0.03235524

>  <Name>
ligand

>  <RI>
0

>  <Rbt.Current_Directory>
/home/itssahil/PROJECTS/Mol_Feturizer/New_Systems/rnas/4TZY

>  <Rbt.Executable>
rbdock ($Id: //depot/dev/client3/rdock/2013.1/src/exe/rbdock.cxx#4 $)

>  <Rbt.Library>
libRbt.so (2013.1, Build901 2013/11/27)

>  <Rbt.Parameter_File>
/export/apps/rDock/src/rDock_2013.1_src/data/scripts/dock_solv.prm

>  <Rbt.Receptor>
prm/blind_docking_40.prm

>  <SCORE>
-9.55242

>  <SCORE.INTER>
-9.55242

>  <SCORE.INTER.CONST>
1

>  <SCORE.INTER.POLAR>
0

>  <SCORE.INTER.ROT>
0

>  <SCORE.INTER.SOLV>
2.65581

>  <SCORE.INTER.VDW>
-10.8536

>  <SCORE.INTER.norm>
-0.955242

>  <SCORE.INTRA>
0

>  <SCORE.INTRA.DIHEDRAL>
0

>  <SCORE.INTRA.DIHEDRAL.0>
0

>  <SCORE.INTRA.POLAR>
0

>  <SCORE.INTRA.POLAR.0>
0

>  <SCORE.INTRA.REPUL>
0

>  <SCORE.INTRA.REPUL.0>
0

>  <SCORE.INTRA.SOLV>
0

>  <SCORE.INTRA.SOLV.lig_0>
-23.8941

>  <SCORE.INTRA.VDW>
0

>  <SCORE.INTRA.VDW.0>
0

>  <SCORE.INTRA.norm>
0

>  <SCORE.RESTR>
0

>  <SCORE.RESTR.CAVITY>
0

>  <SCORE.RESTR.norm>
0

>  <SCORE.SYSTEM>
0

>  <SCORE.SYSTEM.CONST>
0

>  <SCORE.SYSTEM.DIHEDRAL>
0

>  <SCORE.SYSTEM.SOLV>
0

>  <SCORE.SYSTEM.norm>
0

>  <SCORE.heavy>
10

>  <SCORE.norm>
-0.955242

>  <RMSD>
26.735

$$$$
ligand
 OpenBabel11021811513D
libRbt.so/2013.1/901 2013/11/27
 10 11  0  0  0  0  0  0  0  0999 V2000
   -8.6203   27.6207   -7.2124 N   0  0  0  0  0  0  0  0  0  0  0  0
   -7.3559   27.6510   -7.6513 C   0  0  0  0  0  0  0  0  0  0  0  0
   -6.6045   28.7042   -7.9678 N   0  0  0  0  0  0  0  0  0  0  0  0
   -7.2871   29.8466   -7.7941 C   0  0  0  0  0  0  0  0  0  0  0  0
   -8.5894   29.9757   -7.3525 C   0  0  0  0  0  0  0  0  0  0  0  0
   -9.2797   28.7856   -7.0479 C   0  0  0  0  0  0  0  0  0  0  0  0
  -10.5432   28.7586   -6.6100 N   0  0  0  0  0  0  0  0  0  0  0  0
   -8.9595   31.3088   -7.2964 N   0  0  0  0  0  0  0  0  0  0  0  0
   -7.8877   31.9494   -7.7015 C   0  0  0  0  0  0  0  0  0  0  0  0
   -6.8408   31.1293   -8.0186 N   0  0  0  0  0  0  0  0  0  0  0  0
  1  2  2  0  0  0  0
  1  6  1  0  0  0  0
  2  3  1  0  0  0  0
  3  4  2  0  0  0  0
  4  5  1  0  0  0  0
  4 10  1  0  0  0  0
  5  6  2  0  0  0  0
  5  8  1  0  0  0  0
  6  7  1  0  0  0  0
  8  9  1  0  0  0  0
  9 10  2  0  0  0  0
M  END
>  <CHROM.1>
-8.20576741,29.56772439,-7.46186411,-1.98158084,0.33218916,-0.05448261

>  <Name>
ligand

>  <RI>
0

>  <Rbt.Current_Directory>
/home/itssahil/PROJECTS/Mol_Feturizer/New_Systems/rnas/4TZY

>  <Rbt.Executable>
rbdock ($Id: //depot/dev/client3/rdock/2013.1/src/exe/rbdock.cxx#4 $)

>  <Rbt.Library>
libRbt.so (2013.1, Build901 2013/11/27)

>  <Rbt.Parameter_File>
/export/apps/rDock/src/rDock_2013.1_src/data/scripts/dock_solv.prm

>  <Rbt.Receptor>
prm/blind_docking_60.prm

>  <SCORE>
-9.51706

>  <SCORE.INTER>
-9.51706

>  <SCORE.INTER.CONST>
1

>  <SCORE.INTER.POLAR>
0

>  <SCORE.INTER.ROT>
0

>  <SCORE.INTER.SOLV>
2.52697

>  <SCORE.INTER.VDW>
-10.787

>  <SCORE.INTER.norm>
-0.951706

>  <SCORE.INTRA>
0

>  <SCORE.INTRA.DIHEDRAL>
0

>  <SCORE.INTRA.DIHEDRAL.0>
0

>  <SCORE.INTRA.POLAR>
0

>  <SCORE.INTRA.POLAR.0>
0

>  <SCORE.INTRA.REPUL>
0

>  <SCORE.INTRA.REPUL.0>
0

>  <SCORE.INTRA.SOLV>
0

>  <SCORE.INTRA.SOLV.lig_0>
-23.8941

>  <SCORE.INTRA.VDW>
0

>  <SCORE.INTRA.VDW.0>
0

>  <SCORE.INTRA.norm>
0

>  <SCORE.RESTR>
0

>  <SCORE.RESTR.CAVITY>
0

>  <SCORE.RESTR.norm>
0

>  <SCORE.SYSTEM>
0

>  <SCORE.SYSTEM.CONST>
0

>  <SCORE.SYSTEM.DIHEDRAL>
0

>  <SCORE.SYSTEM.SOLV>
0

>  <SCORE.SYSTEM.norm>
0

>  <SCORE.heavy>
10

>  <SCORE.norm>
-0.951706

>  <RMSD>
26.735

$$$$
ligand
 OpenBabel11021811513D
libRbt.so/2013.1/901 2013/11/27
 10 11  0  0  0  0  0  0  0  0999 V2000
   -9.3418   31.3990   -6.5820 N   0  0  0  0  0  0  0  0  0  0  0  0
   -9.8623   30.3585   -5.9196 C   0  0  0  0  0  0  0  0  0  0  0  0
   -9.5034   29.0765   -5.9591 N   0  0  0  0  0  0  0  0  0  0  0  0
   -8.4750   28.8948   -6.8022 C   0  0  0  0  0  0  0  0  0  0  0  0
   -7.8368   29.8629   -7.5527 C   0  0  0  0  0  0  0  0  0  0  0  0
   -8.3089   31.1842   -7.4221 C   0  0  0  0  0  0  0  0  0  0  0  0
   -7.7870   32.2216   -8.0858 N   0  0  0  0  0  0  0  0  0  0  0  0
   -6.8183   29.3069   -8.3082 N   0  0  0  0  0  0  0  0  0  0  0  0
   -6.8627   28.0307   -8.0040 C   0  0  0  0  0  0  0  0  0  0  0  0
   -7.8385   27.7115   -7.1013 N   0  0  0  0  0  0  0  0  0  0  0  0
  1  2  2  0  0  0  0
  1  6  1  0  0  0  0
  2  3  1  0  0  0  0
  3  4  2  0  0  0  0
  4  5  1  0  0  0  0
  4 10  1  0  0  0  0
  5  6  2  0  0  0  0
  5  8  1  0  0  0  0
  6  7  1  0  0  0  0
  8  9  1  0  0  0  0
  9 10  2  0  0  0  0
M  END
>  <CHROM.1>
-8.26304605,29.81525848,-7.17626611,2.15839445,0.69799174,-0.20560170

>  <Name>
ligand

>  <RI>
0

>  <Rbt.Current_Directory>
/home/itssahil/PROJECTS/Mol_Feturizer/New_Systems/rnas/4TZY

>  <Rbt.Executable>
rbdock ($Id: //depot/dev/client3/rdock/2013.1/src/exe/rbdock.cxx#4 $)

>  <Rbt.Library>
libRbt.so (2013.1, Build901 2013/11/27)

>  <Rbt.Parameter_File>
/export/apps/rDock/src/rDock_2013.1_src/data/scripts/dock_solv.prm

>  <Rbt.Receptor>
prm/blind_docking_40.prm

>  <SCORE>
-9.1054

>  <SCORE.INTER>
-9.1054

>  <SCORE.INTER.CONST>
1

>  <SCORE.INTER.POLAR>
0

>  <SCORE.INTER.ROT>
0

>  <SCORE.INTER.SOLV>
4.82849

>  <SCORE.INTER.VDW>
-11.2798

>  <SCORE.INTER.norm>
-0.91054

>  <SCORE.INTRA>
0

>  <SCORE.INTRA.DIHEDRAL>
0

>  <SCORE.INTRA.DIHEDRAL.0>
0

>  <SCORE.INTRA.POLAR>
0

>  <SCORE.INTRA.POLAR.0>
0

>  <SCORE.INTRA.REPUL>
0

>  <SCORE.INTRA.REPUL.0>
0

>  <SCORE.INTRA.SOLV>
0

>  <SCORE.INTRA.SOLV.lig_0>
-23.8941

>  <SCORE.INTRA.VDW>
0

>  <SCORE.INTRA.VDW.0>
0

>  <SCORE.INTRA.norm>
0

>  <SCORE.RESTR>
0

>  <SCORE.RESTR.CAVITY>
0

>  <SCORE.RESTR.norm>
0

>  <SCORE.SYSTEM>
0

>  <SCORE.SYSTEM.CONST>
0

>  <SCORE.SYSTEM.DIHEDRAL>
0

>  <SCORE.SYSTEM.SOLV>
0

>  <SCORE.SYSTEM.norm>
0

>  <SCORE.heavy>
10

>  <SCORE.norm>
-0.91054

>  <RMSD>
26.883

$$$$
ligand
 OpenBabel11021811513D
libRbt.so/2013.1/901 2013/11/27
 10 11  0  0  0  0  0  0  0  0999 V2000
   -9.1306   31.5762   -6.6068 N   0  0  0  0  0  0  0  0  0  0  0  0
   -9.6404   30.5980   -5.8480 C   0  0  0  0  0  0  0  0  0  0  0  0
   -9.3251   29.3041   -5.8270 N   0  0  0  0  0  0  0  0  0  0  0  0
   -8.3587   29.0341   -6.7183 C   0  0  0  0  0  0  0  0  0  0  0  0
   -7.7394   29.9304   -7.5673 C   0  0  0  0  0  0  0  0  0  0  0  0
   -8.1605   31.2731   -7.4932 C   0  0  0  0  0  0  0  0  0  0  0  0
   -7.6495   32.2481   -8.2531 N   0  0  0  0  0  0  0  0  0  0  0  0
   -6.7890   29.2927   -8.3467 N   0  0  0  0  0  0  0  0  0  0  0  0
   -6.8540   28.0403   -7.9588 C   0  0  0  0  0  0  0  0  0  0  0  0
   -7.7800   27.8126   -6.9793 N   0  0  0  0  0  0  0  0  0  0  0  0
  1  2  2  0  0  0  0
  1  6  1  0  0  0  0
  2  3  1  0  0  0  0
  3  4  2  0  0  0  0
  4  5  1  0  0  0  0
  4 10  1  0  0  0  0
  5  6  2  0  0  0  0
  5  8  1  0  0  0  0
  6  7  1  0  0  0  0
  8  9  1  0  0  0  0
  9 10  2  0  0  0  0
M  END
>  <CHROM.1>
-8.14211946,29.92136346,-7.16311588,2.13371064,0.76657734,-0.25247602

>  <Name>
ligand

>  <RI>
0

>  <Rbt.Current_Directory>
/home/itssahil/PROJECTS/Mol_Feturizer/New_Systems/rnas/4TZY

>  <Rbt.Executable>
rbdock ($Id: //depot/dev/client3/rdock/2013.1/src/exe/rbdock.cxx#4 $)

>  <Rbt.Library>
libRbt.so (2013.1, Build901 2013/11/27)

>  <Rbt.Parameter_File>
/export/apps/rDock/src/rDock_2013.1_src/data/scripts/dock_solv.prm

>  <Rbt.Receptor>
prm/blind_docking_40.prm

>  <SCORE>
-9.20708

>  <SCORE.INTER>
-9.20708

>  <SCORE.INTER.CONST>
1

>  <SCORE.INTER.POLAR>
0

>  <SCORE.INTER.ROT>
0

>  <SCORE.INTER.SOLV>
5.27976

>  <SCORE.INTER.VDW>
-11.498

>  <SCORE.INTER.norm>
-0.920708

>  <SCORE.INTRA>
0

>  <SCORE.INTRA.DIHEDRAL>
0

>  <SCORE.INTRA.DIHEDRAL.0>
0

>  <SCORE.INTRA.POLAR>
0

>  <SCORE.INTRA.POLAR.0>
0

>  <SCORE.INTRA.REPUL>
0

>  <SCORE.INTRA.REPUL.0>
0

>  <SCORE.INTRA.SOLV>
0

>  <SCORE.INTRA.SOLV.lig_0>
-23.8941

>  <SCORE.INTRA.VDW>
0

>  <SCORE.INTRA.VDW.0>
0

>  <SCORE.INTRA.norm>
0

>  <SCORE.RESTR>
0

>  <SCORE.RESTR.CAVITY>
0

>  <SCORE.RESTR.norm>
0

>  <SCORE.SYSTEM>
0

>  <SCORE.SYSTEM.CONST>
0

>  <SCORE.SYSTEM.DIHEDRAL>
0

>  <SCORE.SYSTEM.SOLV>
0

>  <SCORE.SYSTEM.norm>
0

>  <SCORE.heavy>
10

>  <SCORE.norm>
-0.920708

>  <RMSD>
27.035

$$$$
ligand
 OpenBabel11021811513D
libRbt.so/2013.1/901 2013/11/27
 10 11  0  0  0  0  0  0  0  0999 V2000
   -9.1320   31.5765   -6.6050 N   0  0  0  0  0  0  0  0  0  0  0  0
   -9.6381   30.5960   -5.8468 C   0  0  0  0  0  0  0  0  0  0  0  0
   -9.3193   29.3029   -5.8278 N   0  0  0  0  0  0  0  0  0  0  0  0
   -8.3534   29.0366   -6.7207 C   0  0  0  0  0  0  0  0  0  0  0  0
   -7.7376   29.9356   -7.5694 C   0  0  0  0  0  0  0  0  0  0  0  0
   -8.1622   31.2771   -7.4931 C   0  0  0  0  0  0  0  0  0  0  0  0
   -7.6549   32.2544   -8.2525 N   0  0  0  0  0  0  0  0  0  0  0  0
   -6.7865   29.3015   -8.3507 N   0  0  0  0  0  0  0  0  0  0  0  0
   -6.8475   28.0484   -7.9644 C   0  0  0  0  0  0  0  0  0  0  0  0
   -7.7716   27.8171   -6.9838 N   0  0  0  0  0  0  0  0  0  0  0  0
  1  2  2  0  0  0  0
  1  6  1  0  0  0  0
  2  3  1  0  0  0  0
  3  4  2  0  0  0  0
  4  5  1  0  0  0  0
  4 10  1  0  0  0  0
  5  6  2  0  0  0  0
  5  8  1  0  0  0  0
  6  7  1  0  0  0  0
  8  9  1  0  0  0  0
  9 10  2  0  0  0  0
M  END
>  <CHROM.1>
-8.13976199,29.92504120,-7.16468321,2.13783058,0.76715691,-0.25413537

>  <Name>
ligand

>  <RI>
0

>  <Rbt.Current_Directory>
/home/itssahil/PROJECTS/Mol_Feturizer/New_Systems/rnas/4TZY

>  <Rbt.Executable>
rbdock ($Id: //depot/dev/client3/rdock/2013.1/src/exe/rbdock.cxx#4 $)

>  <Rbt.Library>
libRbt.so (2013.1, Build901 2013/11/27)

>  <Rbt.Parameter_File>
/export/apps/rDock/src/rDock_2013.1_src/data/scripts/dock_solv.prm

>  <Rbt.Receptor>
prm/blind_docking_40.prm

>  <SCORE>
-9.20698

>  <SCORE.INTER>
-9.20698

>  <SCORE.INTER.CONST>
1

>  <SCORE.INTER.POLAR>
0

>  <SCORE.INTER.ROT>
0

>  <SCORE.INTER.SOLV>
5.26224

>  <SCORE.INTER.VDW>
-11.4921

>  <SCORE.INTER.norm>
-0.920698

>  <SCORE.INTRA>
0

>  <SCORE.INTRA.DIHEDRAL>
0

>  <SCORE.INTRA.DIHEDRAL.0>
0

>  <SCORE.INTRA.POLAR>
0

>  <SCORE.INTRA.POLAR.0>
0

>  <SCORE.INTRA.REPUL>
0

>  <SCORE.INTRA.REPUL.0>
0

>  <SCORE.INTRA.SOLV>
0

>  <SCORE.INTRA.SOLV.lig_0>
-23.8941

>  <SCORE.INTRA.VDW>
0

>  <SCORE.INTRA.VDW.0>
0

>  <SCORE.INTRA.norm>
0

>  <SCORE.RESTR>
0

>  <SCORE.RESTR.CAVITY>
0

>  <SCORE.RESTR.norm>
0

>  <SCORE.SYSTEM>
0

>  <SCORE.SYSTEM.CONST>
0

>  <SCORE.SYSTEM.DIHEDRAL>
0

>  <SCORE.SYSTEM.SOLV>
0

>  <SCORE.SYSTEM.norm>
0

>  <SCORE.heavy>
10

>  <SCORE.norm>
-0.920698

>  <RMSD>
27.038

$$$$
ligand
 OpenBabel11021811513D
libRbt.so/2013.1/901 2013/11/27
 10 11  0  0  0  0  0  0  0  0999 V2000
   -9.1141   31.5710   -6.5903 N   0  0  0  0  0  0  0  0  0  0  0  0
   -9.6022   30.5913   -5.8192 C   0  0  0  0  0  0  0  0  0  0  0  0
   -9.2783   29.2995   -5.8018 N   0  0  0  0  0  0  0  0  0  0  0  0
   -8.3285   29.0336   -6.7120 C   0  0  0  0  0  0  0  0  0  0  0  0
   -7.7323   29.9318   -7.5753 C   0  0  0  0  0  0  0  0  0  0  0  0
   -8.1603   31.2720   -7.4956 C   0  0  0  0  0  0  0  0  0  0  0  0
   -7.6711   32.2485   -8.2678 N   0  0  0  0  0  0  0  0  0  0  0  0
   -6.7939   29.2984   -8.3725 N   0  0  0  0  0  0  0  0  0  0  0  0
   -6.8430   28.0465   -7.9807 C   0  0  0  0  0  0  0  0  0  0  0  0
   -7.7474   27.8153   -6.9820 N   0  0  0  0  0  0  0  0  0  0  0  0
  1  2  2  0  0  0  0
  1  6  1  0  0  0  0
  2  3  1  0  0  0  0
  3  4  2  0  0  0  0
  4  5  1  0  0  0  0
  4 10  1  0  0  0  0
  5  6  2  0  0  0  0
  5  8  1  0  0  0  0
  6  7  1  0  0  0  0
  8  9  1  0  0  0  0
  9 10  2  0  0  0  0
M  END
>  <CHROM.1>
-8.12664404,29.92120482,-7.16304982,2.14960519,0.78460117,-0.26583239

>  <Name>
ligand

>  <RI>
0

>  <Rbt.Current_Directory>
/home/itssahil/PROJECTS/Mol_Feturizer/New_Systems/rnas/4TZY

>  <Rbt.Executable>
rbdock ($Id: //depot/dev/client3/rdock/2013.1/src/exe/rbdock.cxx#4 $)

>  <Rbt.Library>
libRbt.so (2013.1, Build901 2013/11/27)

>  <Rbt.Parameter_File>
/export/apps/rDock/src/rDock_2013.1_src/data/scripts/dock_solv.prm

>  <Rbt.Receptor>
prm/blind_docking_60.prm

>  <SCORE>
-9.21206

>  <SCORE.INTER>
-9.21206

>  <SCORE.INTER.CONST>
1

>  <SCORE.INTER.POLAR>
0

>  <SCORE.INTER.ROT>
0

>  <SCORE.INTER.SOLV>
5.28416

>  <SCORE.INTER.VDW>
-11.5028

>  <SCORE.INTER.norm>
-0.921206

>  <SCORE.INTRA>
0

>  <SCORE.INTRA.DIHEDRAL>
0

>  <SCORE.INTRA.DIHEDRAL.0>
0

>  <SCORE.INTRA.POLAR>
0

>  <SCORE.INTRA.POLAR.0>
0

>  <SCORE.INTRA.REPUL>
0

>  <SCORE.INTRA.REPUL.0>
0

>  <SCORE.INTRA.SOLV>
0

>  <SCORE.INTRA.SOLV.lig_0>
-23.8941

>  <SCORE.INTRA.VDW>
0

>  <SCORE.INTRA.VDW.0>
0

>  <SCORE.INTRA.norm>
0

>  <SCORE.RESTR>
0

>  <SCORE.RESTR.CAVITY>
0

>  <SCORE.RESTR.norm>
0

>  <SCORE.SYSTEM>
0

>  <SCORE.SYSTEM.CONST>
0

>  <SCORE.SYSTEM.DIHEDRAL>
0

>  <SCORE.SYSTEM.SOLV>
0

>  <SCORE.SYSTEM.norm>
0

>  <SCORE.heavy>
10

>  <SCORE.norm>
-0.921206

>  <RMSD>
27.047

$$$$
ligand
 OpenBabel11021811513D
libRbt.so/2013.1/901 2013/11/27
 10 11  0  0  0  0  0  0  0  0999 V2000
   -9.1267   31.5558   -6.5944 N   0  0  0  0  0  0  0  0  0  0  0  0
   -9.6017   30.5733   -5.8189 C   0  0  0  0  0  0  0  0  0  0  0  0
   -9.2626   29.2854   -5.7974 N   0  0  0  0  0  0  0  0  0  0  0  0
   -8.3116   29.0273   -6.7086 C   0  0  0  0  0  0  0  0  0  0  0  0
   -7.7276   29.9294   -7.5763 C   0  0  0  0  0  0  0  0  0  0  0  0
   -8.1712   31.2647   -7.5005 C   0  0  0  0  0  0  0  0  0  0  0  0
   -7.6950   32.2441   -8.2772 N   0  0  0  0  0  0  0  0  0  0  0  0
   -6.7834   29.3041   -8.3731 N   0  0  0  0  0  0  0  0  0  0  0  0
   -6.8171   28.0531   -7.9767 C   0  0  0  0  0  0  0  0  0  0  0  0
   -7.7168   27.8149   -6.9754 N   0  0  0  0  0  0  0  0  0  0  0  0
  1  2  2  0  0  0  0
  1  6  1  0  0  0  0
  2  3  1  0  0  0  0
  3  4  2  0  0  0  0
  4  5  1  0  0  0  0
  4 10  1  0  0  0  0
  5  6  2  0  0  0  0
  5  8  1  0  0  0  0
  6  7  1  0  0  0  0
  8  9  1  0  0  0  0
  9 10  2  0  0  0  0
M  END
>  <CHROM.1>
-8.12102169,29.91562017,-7.16319783,2.16629690,0.78334103,-0.28121683

>  <Name>
ligand

>  <RI>
0

>  <Rbt.Current_Directory>
/home/itssahil/PROJECTS/Mol_Feturizer/New_Systems/rnas/4TZY

>  <Rbt.Executable>
rbdock ($Id: //depot/dev/client3/rdock/2013.1/src/exe/rbdock.cxx#4 $)

>  <Rbt.Library>
libRbt.so (2013.1, Build901 2013/11/27)

>  <Rbt.Parameter_File>
/export/apps/rDock/src/rDock_2013.1_src/data/scripts/dock_solv.prm

>  <Rbt.Receptor>
prm/blind_docking_40.prm

>  <SCORE>
-9.23998

>  <SCORE.INTER>
-9.23998

>  <SCORE.INTER.CONST>
1

>  <SCORE.INTER.POLAR>
0

>  <SCORE.INTER.ROT>
0

>  <SCORE.INTER.SOLV>
5.25987

>  <SCORE.INTER.VDW>
-11.5133

>  <SCORE.INTER.norm>
-0.923998

>  <SCORE.INTRA>
0

>  <SCORE.INTRA.DIHEDRAL>
0

>  <SCORE.INTRA.DIHEDRAL.0>
0

>  <SCORE.INTRA.POLAR>
0

>  <SCORE.INTRA.POLAR.0>
0

>  <SCORE.INTRA.REPUL>
0

>  <SCORE.INTRA.REPUL.0>
0

>  <SCORE.INTRA.SOLV>
0

>  <SCORE.INTRA.SOLV.lig_0>
-23.8941

>  <SCORE.INTRA.VDW>
0

>  <SCORE.INTRA.VDW.0>
0

>  <SCORE.INTRA.norm>
0

>  <SCORE.RESTR>
0

>  <SCORE.RESTR.CAVITY>
0

>  <SCORE.RESTR.norm>
0

>  <SCORE.SYSTEM>
0

>  <SCORE.SYSTEM.CONST>
0

>  <SCORE.SYSTEM.DIHEDRAL>
0

>  <SCORE.SYSTEM.SOLV>
0

>  <SCORE.SYSTEM.norm>
0

>  <SCORE.heavy>
10

>  <SCORE.norm>
-0.923998

>  <RMSD>
27.050

$$$$
ligand
 OpenBabel11021811513D
libRbt.so/2013.1/901 2013/11/27
 10 11  0  0  0  0  0  0  0  0999 V2000
   -9.1094   31.5401   -6.6046 N   0  0  0  0  0  0  0  0  0  0  0  0
   -9.5597   30.5744   -5.7940 C   0  0  0  0  0  0  0  0  0  0  0  0
   -9.2091   29.2904   -5.7460 N   0  0  0  0  0  0  0  0  0  0  0  0
   -8.2746   29.0163   -6.6696 C   0  0  0  0  0  0  0  0  0  0  0  0
   -7.7165   29.9001   -7.5725 C   0  0  0  0  0  0  0  0  0  0  0  0
   -8.1701   31.2333   -7.5224 C   0  0  0  0  0  0  0  0  0  0  0  0
   -7.7185   32.1957   -8.3340 N   0  0  0  0  0  0  0  0  0  0  0  0
   -6.7834   29.2619   -8.3720 N   0  0  0  0  0  0  0  0  0  0  0  0
   -6.7979   28.0215   -7.9426 C   0  0  0  0  0  0  0  0  0  0  0  0
   -7.6748   27.8023   -6.9170 N   0  0  0  0  0  0  0  0  0  0  0  0
  1  2  2  0  0  0  0
  1  6  1  0  0  0  0
  2  3  1  0  0  0  0
  3  4  2  0  0  0  0
  4  5  1  0  0  0  0
  4 10  1  0  0  0  0
  5  6  2  0  0  0  0
  5  8  1  0  0  0  0
  6  7  1  0  0  0  0
  8  9  1  0  0  0  0
  9 10  2  0  0  0  0
M  END
>  <CHROM.1>
-8.10121308,29.89392619,-7.15109749,2.18656326,0.80047357,-0.32181573

>  <Name>
ligand

>  <RI>
0

>  <Rbt.Current_Directory>
/home/itssahil/PROJECTS/Mol_Feturizer/New_Systems/rnas/4TZY

>  <Rbt.Executable>
rbdock ($Id: //depot/dev/client3/rdock/2013.1/src/exe/rbdock.cxx#4 $)

>  <Rbt.Library>
libRbt.so (2013.1, Build901 2013/11/27)

>  <Rbt.Parameter_File>
/export/apps/rDock/src/rDock_2013.1_src/data/scripts/dock_solv.prm

>  <Rbt.Receptor>
prm/blind_docking_40.prm

>  <SCORE>
-9.23355

>  <SCORE.INTER>
-9.23355

>  <SCORE.INTER.CONST>
1

>  <SCORE.INTER.POLAR>
0

>  <SCORE.INTER.ROT>
0

>  <SCORE.INTER.SOLV>
5.43037

>  <SCORE.INTER.VDW>
-11.5658

>  <SCORE.INTER.norm>
-0.923355

>  <SCORE.INTRA>
0

>  <SCORE.INTRA.DIHEDRAL>
0

>  <SCORE.INTRA.DIHEDRAL.0>
0

>  <SCORE.INTRA.POLAR>
0

>  <SCORE.INTRA.POLAR.0>
0

>  <SCORE.INTRA.REPUL>
0

>  <SCORE.INTRA.REPUL.0>
0

>  <SCORE.INTRA.SOLV>
0

>  <SCORE.INTRA.SOLV.lig_0>
-23.8941

>  <SCORE.INTRA.VDW>
0

>  <SCORE.INTRA.VDW.0>
0

>  <SCORE.INTRA.norm>
0

>  <SCORE.RESTR>
0

>  <SCORE.RESTR.CAVITY>
0

>  <SCORE.RESTR.norm>
0

>  <SCORE.SYSTEM>
0

>  <SCORE.SYSTEM.CONST>
0

>  <SCORE.SYSTEM.DIHEDRAL>
0

>  <SCORE.SYSTEM.SOLV>
0

>  <SCORE.SYSTEM.norm>
0

>  <SCORE.heavy>
10

>  <SCORE.norm>
-0.923355

>  <RMSD>
27.061

$$$$
ligand
 OpenBabel11021811513D
libRbt.so/2013.1/901 2013/11/27
 10 11  0  0  0  0  0  0  0  0999 V2000
   -9.1070   31.5593   -6.5886 N   0  0  0  0  0  0  0  0  0  0  0  0
   -9.5605   30.5827   -5.7931 C   0  0  0  0  0  0  0  0  0  0  0  0
   -9.2132   29.2972   -5.7642 N   0  0  0  0  0  0  0  0  0  0  0  0
   -8.2787   29.0347   -6.6911 C   0  0  0  0  0  0  0  0  0  0  0  0
   -7.7175   29.9305   -7.5800 C   0  0  0  0  0  0  0  0  0  0  0  0
   -8.1677   31.2639   -7.5102 C   0  0  0  0  0  0  0  0  0  0  0  0
   -7.7130   32.2374   -8.3068 N   0  0  0  0  0  0  0  0  0  0  0  0
   -6.7854   29.3021   -8.3884 N   0  0  0  0  0  0  0  0  0  0  0  0
   -6.8035   28.0554   -7.9777 C   0  0  0  0  0  0  0  0  0  0  0  0
   -7.6818   27.8229   -6.9562 N   0  0  0  0  0  0  0  0  0  0  0  0
  1  2  2  0  0  0  0
  1  6  1  0  0  0  0
  2  3  1  0  0  0  0
  3  4  2  0  0  0  0
  4  5  1  0  0  0  0
  4 10  1  0  0  0  0
  5  6  2  0  0  0  0
  5  8  1  0  0  0  0
  6  7  1  0  0  0  0
  8  9  1  0  0  0  0
  9 10  2  0  0  0  0
M  END
>  <CHROM.1>
-8.10261376,29.91898174,-7.15909214,2.18265446,0.80047678,-0.30390624

>  <Name>
ligand

>  <RI>
0

>  <Rbt.Current_Directory>
/home/itssahil/PROJECTS/Mol_Feturizer/New_Systems/rnas/4TZY

>  <Rbt.Executable>
rbdock ($Id: //depot/dev/client3/rdock/2013.1/src/exe/rbdock.cxx#4 $)

>  <Rbt.Library>
libRbt.so (2013.1, Build901 2013/11/27)

>  <Rbt.Parameter_File>
/export/apps/rDock/src/rDock_2013.1_src/data/scripts/dock_solv.prm

>  <Rbt.Receptor>
prm/blind_docking_40.prm

>  <SCORE>
-9.28399

>  <SCORE.INTER>
-9.28399

>  <SCORE.INTER.CONST>
1

>  <SCORE.INTER.POLAR>
0

>  <SCORE.INTER.ROT>
0

>  <SCORE.INTER.SOLV>
5.3258

>  <SCORE.INTER.VDW>
-11.5646

>  <SCORE.INTER.norm>
-0.928399

>  <SCORE.INTRA>
0

>  <SCORE.INTRA.DIHEDRAL>
0

>  <SCORE.INTRA.DIHEDRAL.0>
0

>  <SCORE.INTRA.POLAR>
0

>  <SCORE.INTRA.POLAR.0>
0

>  <SCORE.INTRA.REPUL>
0

>  <SCORE.INTRA.REPUL.0>
0

>  <SCORE.INTRA.SOLV>
0

>  <SCORE.INTRA.SOLV.lig_0>
-23.8941

>  <SCORE.INTRA.VDW>
0

>  <SCORE.INTRA.VDW.0>
0

>  <SCORE.INTRA.norm>
0

>  <SCORE.RESTR>
0

>  <SCORE.RESTR.CAVITY>
0

>  <SCORE.RESTR.norm>
0

>  <SCORE.SYSTEM>
0

>  <SCORE.SYSTEM.CONST>
0

>  <SCORE.SYSTEM.DIHEDRAL>
0

>  <SCORE.SYSTEM.SOLV>
0

>  <SCORE.SYSTEM.norm>
0

>  <SCORE.heavy>
10

>  <SCORE.norm>
-0.928399

>  <RMSD>
27.068

$$$$
ligand
 OpenBabel11021811513D
libRbt.so/2013.1/901 2013/11/27
 10 11  0  0  0  0  0  0  0  0999 V2000
   -9.1061   31.5631   -6.5864 N   0  0  0  0  0  0  0  0  0  0  0  0
   -9.5610   30.5858   -5.7924 C   0  0  0  0  0  0  0  0  0  0  0  0
   -9.2147   29.3000   -5.7647 N   0  0  0  0  0  0  0  0  0  0  0  0
   -8.2795   29.0379   -6.6911 C   0  0  0  0  0  0  0  0  0  0  0  0
   -7.7170   29.9344   -7.5786 C   0  0  0  0  0  0  0  0  0  0  0  0
   -8.1663   31.2680   -7.5076 C   0  0  0  0  0  0  0  0  0  0  0  0
   -7.7102   32.2421   -8.3027 N   0  0  0  0  0  0  0  0  0  0  0  0
   -6.7846   29.3062   -8.3868 N   0  0  0  0  0  0  0  0  0  0  0  0
   -6.8039   28.0591   -7.9776 C   0  0  0  0  0  0  0  0  0  0  0  0
   -7.6832   27.8261   -6.9571 N   0  0  0  0  0  0  0  0  0  0  0  0
  1  2  2  0  0  0  0
  1  6  1  0  0  0  0
  2  3  1  0  0  0  0
  3  4  2  0  0  0  0
  4  5  1  0  0  0  0
  4 10  1  0  0  0  0
  5  6  2  0  0  0  0
  5  8  1  0  0  0  0
  6  7  1  0  0  0  0
  8  9  1  0  0  0  0
  9 10  2  0  0  0  0
M  END
>  <CHROM.1>
-8.10242619,29.92264600,-7.15796404,2.18133870,0.79987180,-0.30182240

>  <Name>
ligand

>  <RI>
0

>  <Rbt.Current_Directory>
/home/itssahil/PROJECTS/Mol_Feturizer/New_Systems/rnas/4TZY

>  <Rbt.Executable>
rbdock ($Id: //depot/dev/client3/rdock/2013.1/src/exe/rbdock.cxx#4 $)

>  <Rbt.Library>
libRbt.so (2013.1, Build901 2013/11/27)

>  <Rbt.Parameter_File>
/export/apps/rDock/src/rDock_2013.1_src/data/scripts/dock_solv.prm

>  <Rbt.Receptor>
prm/blind_docking_40.prm

>  <SCORE>
-9.28495

>  <SCORE.INTER>
-9.28495

>  <SCORE.INTER.CONST>
1

>  <SCORE.INTER.POLAR>
0

>  <SCORE.INTER.ROT>
0

>  <SCORE.INTER.SOLV>
5.31689

>  <SCORE.INTER.VDW>
-11.5623

>  <SCORE.INTER.norm>
-0.928495

>  <SCORE.INTRA>
0

>  <SCORE.INTRA.DIHEDRAL>
0

>  <SCORE.INTRA.DIHEDRAL.0>
0

>  <SCORE.INTRA.POLAR>
0

>  <SCORE.INTRA.POLAR.0>
0

>  <SCORE.INTRA.REPUL>
0

>  <SCORE.INTRA.REPUL.0>
0

>  <SCORE.INTRA.SOLV>
0

>  <SCORE.INTRA.SOLV.lig_0>
-23.8941

>  <SCORE.INTRA.VDW>
0

>  <SCORE.INTRA.VDW.0>
0

>  <SCORE.INTRA.norm>
0

>  <SCORE.RESTR>
0

>  <SCORE.RESTR.CAVITY>
0

>  <SCORE.RESTR.norm>
0

>  <SCORE.SYSTEM>
0

>  <SCORE.SYSTEM.CONST>
0

>  <SCORE.SYSTEM.DIHEDRAL>
0

>  <SCORE.SYSTEM.SOLV>
0

>  <SCORE.SYSTEM.norm>
0

>  <SCORE.heavy>
10

>  <SCORE.norm>
-0.928495

>  <RMSD>
27.070

$$$$
ligand
 OpenBabel11021811513D
libRbt.so/2013.1/901 2013/11/27
 10 11  0  0  0  0  0  0  0  0999 V2000
   -9.1013   31.5752   -6.6058 N   0  0  0  0  0  0  0  0  0  0  0  0
   -9.5591   30.6038   -5.8064 C   0  0  0  0  0  0  0  0  0  0  0  0
   -9.2149   29.3176   -5.7700 N   0  0  0  0  0  0  0  0  0  0  0  0
   -8.2788   29.0481   -6.6932 C   0  0  0  0  0  0  0  0  0  0  0  0
   -7.7134   29.9379   -7.5854 C   0  0  0  0  0  0  0  0  0  0  0  0
   -8.1606   31.2728   -7.5236 C   0  0  0  0  0  0  0  0  0  0  0  0
   -7.7016   32.2410   -8.3242 N   0  0  0  0  0  0  0  0  0  0  0  0
   -6.7807   29.3031   -8.3882 N   0  0  0  0  0  0  0  0  0  0  0  0
   -6.8028   28.0586   -7.9711 C   0  0  0  0  0  0  0  0  0  0  0  0
   -7.6841   27.8336   -6.9506 N   0  0  0  0  0  0  0  0  0  0  0  0
  1  2  2  0  0  0  0
  1  6  1  0  0  0  0
  2  3  1  0  0  0  0
  3  4  2  0  0  0  0
  4  5  1  0  0  0  0
  4 10  1  0  0  0  0
  5  6  2  0  0  0  0
  5  8  1  0  0  0  0
  6  7  1  0  0  0  0
  8  9  1  0  0  0  0
  9 10  2  0  0  0  0
M  END
>  <CHROM.1>
-8.09947796,29.92952598,-7.16535568,2.17837761,0.79886063,-0.30604376

>  <Name>
ligand

>  <RI>
0

>  <Rbt.Current_Directory>
/home/itssahil/PROJECTS/Mol_Feturizer/New_Systems/rnas/4TZY

>  <Rbt.Executable>
rbdock ($Id: //depot/dev/client3/rdock/2013.1/src/exe/rbdock.cxx#4 $)

>  <Rbt.Library>
libRbt.so (2013.1, Build901 2013/11/27)

>  <Rbt.Parameter_File>
/export/apps/rDock/src/rDock_2013.1_src/data/scripts/dock_solv.prm

>  <Rbt.Receptor>
prm/blind_docking_40.prm

>  <SCORE>
-9.28021

>  <SCORE.INTER>
-9.28021

>  <SCORE.INTER.CONST>
1

>  <SCORE.INTER.POLAR>
0

>  <SCORE.INTER.ROT>
0

>  <SCORE.INTER.SOLV>
5.38253

>  <SCORE.INTER.VDW>
-11.581

>  <SCORE.INTER.norm>
-0.928021

>  <SCORE.INTRA>
0

>  <SCORE.INTRA.DIHEDRAL>
0

>  <SCORE.INTRA.DIHEDRAL.0>
0

>  <SCORE.INTRA.POLAR>
0

>  <SCORE.INTRA.POLAR.0>
0

>  <SCORE.INTRA.REPUL>
0

>  <SCORE.INTRA.REPUL.0>
0

>  <SCORE.INTRA.SOLV>
0

>  <SCORE.INTRA.SOLV.lig_0>
-23.8941

>  <SCORE.INTRA.VDW>
0

>  <SCORE.INTRA.VDW.0>
0

>  <SCORE.INTRA.norm>
0

>  <SCORE.RESTR>
0

>  <SCORE.RESTR.CAVITY>
0

>  <SCORE.RESTR.norm>
0

>  <SCORE.SYSTEM>
0

>  <SCORE.SYSTEM.CONST>
0

>  <SCORE.SYSTEM.DIHEDRAL>
0

>  <SCORE.SYSTEM.SOLV>
0

>  <SCORE.SYSTEM.norm>
0

>  <SCORE.heavy>
10

>  <SCORE.norm>
-0.928021

>  <RMSD>
27.073

$$$$
ligand
 OpenBabel11021811513D
libRbt.so/2013.1/901 2013/11/27
 10 11  0  0  0  0  0  0  0  0999 V2000
   -9.1024   31.5616   -6.5781 N   0  0  0  0  0  0  0  0  0  0  0  0
   -9.5617   30.5826   -5.7888 C   0  0  0  0  0  0  0  0  0  0  0  0
   -9.2180   29.2960   -5.7645 N   0  0  0  0  0  0  0  0  0  0  0  0
   -8.2807   29.0352   -6.6889 C   0  0  0  0  0  0  0  0  0  0  0  0
   -7.7137   29.9334   -7.5717 C   0  0  0  0  0  0  0  0  0  0  0  0
   -8.1605   31.2678   -7.4975 C   0  0  0  0  0  0  0  0  0  0  0  0
   -7.7000   32.2436   -8.2879 N   0  0  0  0  0  0  0  0  0  0  0  0
   -6.7802   29.3061   -8.3793 N   0  0  0  0  0  0  0  0  0  0  0  0
   -6.8033   28.0576   -7.9744 C   0  0  0  0  0  0  0  0  0  0  0  0
   -7.6861   27.8230   -6.9574 N   0  0  0  0  0  0  0  0  0  0  0  0
  1  2  2  0  0  0  0
  1  6  1  0  0  0  0
  2  3  1  0  0  0  0
  3  4  2  0  0  0  0
  4  5  1  0  0  0  0
  4 10  1  0  0  0  0
  5  6  2  0  0  0  0
  5  8  1  0  0  0  0
  6  7  1  0  0  0  0
  8  9  1  0  0  0  0
  9 10  2  0  0  0  0
M  END
>  <CHROM.1>
-8.10040301,29.92110457,-7.15225839,2.17723817,0.79765528,-0.29546584

>  <Name>
ligand

>  <RI>
0

>  <Rbt.Current_Directory>
/home/itssahil/PROJECTS/Mol_Feturizer/New_Systems/rnas/4TZY

>  <Rbt.Executable>
rbdock ($Id: //depot/dev/client3/rdock/2013.1/src/exe/rbdock.cxx#4 $)

>  <Rbt.Library>
libRbt.so (2013.1, Build901 2013/11/27)

>  <Rbt.Parameter_File>
/export/apps/rDock/src/rDock_2013.1_src/data/scripts/dock_solv.prm

>  <Rbt.Receptor>
prm/blind_docking_40.prm

>  <SCORE>
-9.28203

>  <SCORE.INTER>
-9.28203

>  <SCORE.INTER.CONST>
1

>  <SCORE.INTER.POLAR>
0

>  <SCORE.INTER.ROT>
0

>  <SCORE.INTER.SOLV>
5.30533

>  <SCORE.INTER.VDW>
-11.5565

>  <SCORE.INTER.norm>
-0.928203

>  <SCORE.INTRA>
0

>  <SCORE.INTRA.DIHEDRAL>
0

>  <SCORE.INTRA.DIHEDRAL.0>
0

>  <SCORE.INTRA.POLAR>
0

>  <SCORE.INTRA.POLAR.0>
0

>  <SCORE.INTRA.REPUL>
0

>  <SCORE.INTRA.REPUL.0>
0

>  <SCORE.INTRA.SOLV>
0

>  <SCORE.INTRA.SOLV.lig_0>
-23.8941

>  <SCORE.INTRA.VDW>
0

>  <SCORE.INTRA.VDW.0>
0

>  <SCORE.INTRA.norm>
0

>  <SCORE.RESTR>
0

>  <SCORE.RESTR.CAVITY>
0

>  <SCORE.RESTR.norm>
0

>  <SCORE.SYSTEM>
0

>  <SCORE.SYSTEM.CONST>
0

>  <SCORE.SYSTEM.DIHEDRAL>
0

>  <SCORE.SYSTEM.SOLV>
0

>  <SCORE.SYSTEM.norm>
0

>  <SCORE.heavy>
10

>  <SCORE.norm>
-0.928203

>  <RMSD>
27.073

$$$$
ligand
 OpenBabel11021811513D
libRbt.so/2013.1/901 2013/11/27
 10 11  0  0  0  0  0  0  0  0999 V2000
   -9.0795   31.5643   -6.5813 N   0  0  0  0  0  0  0  0  0  0  0  0
   -9.5481   30.5879   -5.7943 C   0  0  0  0  0  0  0  0  0  0  0  0
   -9.2143   29.2987   -5.7707 N   0  0  0  0  0  0  0  0  0  0  0  0
   -8.2768   29.0318   -6.6933 C   0  0  0  0  0  0  0  0  0  0  0  0
   -7.7009   29.9268   -7.5736 C   0  0  0  0  0  0  0  0  0  0  0  0
   -8.1377   31.2644   -7.4988 C   0  0  0  0  0  0  0  0  0  0  0  0
   -7.6679   32.2376   -8.2870 N   0  0  0  0  0  0  0  0  0  0  0  0
   -6.7703   29.2933   -8.3799 N   0  0  0  0  0  0  0  0  0  0  0  0
   -6.8039   28.0446   -7.9766 C   0  0  0  0  0  0  0  0  0  0  0  0
   -7.6909   27.8154   -6.9618 N   0  0  0  0  0  0  0  0  0  0  0  0
  1  2  2  0  0  0  0
  1  6  1  0  0  0  0
  2  3  1  0  0  0  0
  3  4  2  0  0  0  0
  4  5  1  0  0  0  0
  4 10  1  0  0  0  0
  5  6  2  0  0  0  0
  5  8  1  0  0  0  0
  6  7  1  0  0  0  0
  8  9  1  0  0  0  0
  9 10  2  0  0  0  0
M  END
>  <CHROM.1>
-8.08868664,29.91685718,-7.15514103,2.16584647,0.79760449,-0.28610289

>  <Name>
ligand

>  <RI>
0

>  <Rbt.Current_Directory>
/home/itssahil/PROJECTS/Mol_Feturizer/New_Systems/rnas/4TZY

>  <Rbt.Executable>
rbdock ($Id: //depot/dev/client3/rdock/2013.1/src/exe/rbdock.cxx#4 $)

>  <Rbt.Library>
libRbt.so (2013.1, Build901 2013/11/27)

>  <Rbt.Parameter_File>
/export/apps/rDock/src/rDock_2013.1_src/data/scripts/dock_solv.prm

>  <Rbt.Receptor>
prm/blind_docking_40.prm

>  <SCORE>
-9.26766

>  <SCORE.INTER>
-9.26766

>  <SCORE.INTER.CONST>
1

>  <SCORE.INTER.POLAR>
0

>  <SCORE.INTER.ROT>
0

>  <SCORE.INTER.SOLV>
5.38452

>  <SCORE.INTER.VDW>
-11.5733

>  <SCORE.INTER.norm>
-0.926766

>  <SCORE.INTRA>
0

>  <SCORE.INTRA.DIHEDRAL>
0

>  <SCORE.INTRA.DIHEDRAL.0>
0

>  <SCORE.INTRA.POLAR>
0

>  <SCORE.INTRA.POLAR.0>
0

>  <SCORE.INTRA.REPUL>
0

>  <SCORE.INTRA.REPUL.0>
0

>  <SCORE.INTRA.SOLV>
0

>  <SCORE.INTRA.SOLV.lig_0>
-23.8941

>  <SCORE.INTRA.VDW>
0

>  <SCORE.INTRA.VDW.0>
0

>  <SCORE.INTRA.norm>
0

>  <SCORE.RESTR>
0

>  <SCORE.RESTR.CAVITY>
0

>  <SCORE.RESTR.norm>
0

>  <SCORE.SYSTEM>
0

>  <SCORE.SYSTEM.CONST>
0

>  <SCORE.SYSTEM.DIHEDRAL>
0

>  <SCORE.SYSTEM.SOLV>
0

>  <SCORE.SYSTEM.norm>
0

>  <SCORE.heavy>
10

>  <SCORE.norm>
-0.926766

>  <RMSD>
27.079

$$$$
ligand
 OpenBabel11021811513D
libRbt.so/2013.1/901 2013/11/27
 10 11  0  0  0  0  0  0  0  0999 V2000
   -7.6075   31.4543   -6.2142 N   0  0  0  0  0  0  0  0  0  0  0  0
   -7.5618   30.6485   -5.1461 C   0  0  0  0  0  0  0  0  0  0  0  0
   -7.2863   29.3465   -5.0907 N   0  0  0  0  0  0  0  0  0  0  0  0
   -7.0338   28.8599   -6.3157 C   0  0  0  0  0  0  0  0  0  0  0  0
   -7.0441   29.5616   -7.5053 C   0  0  0  0  0  0  0  0  0  0  0  0
   -7.3489   30.9354   -7.4318 C   0  0  0  0  0  0  0  0  0  0  0  0
   -7.3942   31.7379   -8.5010 N   0  0  0  0  0  0  0  0  0  0  0  0
   -6.7356   28.7304   -8.5689 N   0  0  0  0  0  0  0  0  0  0  0  0
   -6.5494   27.5585   -8.0076 C   0  0  0  0  0  0  0  0  0  0  0  0
   -6.7135   27.5636   -6.6504 N   0  0  0  0  0  0  0  0  0  0  0  0
  1  2  2  0  0  0  0
  1  6  1  0  0  0  0
  2  3  1  0  0  0  0
  3  4  2  0  0  0  0
  4  5  1  0  0  0  0
  4 10  1  0  0  0  0
  5  6  2  0  0  0  0
  5  8  1  0  0  0  0
  6  7  1  0  0  0  0
  8  9  1  0  0  0  0
  9 10  2  0  0  0  0
M  END
>  <CHROM.1>
-7.12904523,29.64940615,-6.94791245,2.83414979,1.32826561,-1.06419015

>  <Name>
ligand

>  <RI>
0

>  <Rbt.Current_Directory>
/home/itssahil/PROJECTS/Mol_Feturizer/New_Systems/rnas/4TZY

>  <Rbt.Executable>
rbdock ($Id: //depot/dev/client3/rdock/2013.1/src/exe/rbdock.cxx#4 $)

>  <Rbt.Library>
libRbt.so (2013.1, Build901 2013/11/27)

>  <Rbt.Parameter_File>
/export/apps/rDock/src/rDock_2013.1_src/data/scripts/dock_solv.prm

>  <Rbt.Receptor>
prm/blind_docking_40.prm

>  <SCORE>
-8.75453

>  <SCORE.INTER>
-8.75453

>  <SCORE.INTER.CONST>
1

>  <SCORE.INTER.POLAR>
0

>  <SCORE.INTER.ROT>
0

>  <SCORE.INTER.SOLV>
8.72887

>  <SCORE.INTER.VDW>
-12.346

>  <SCORE.INTER.norm>
-0.875453

>  <SCORE.INTRA>
0

>  <SCORE.INTRA.DIHEDRAL>
0

>  <SCORE.INTRA.DIHEDRAL.0>
0

>  <SCORE.INTRA.POLAR>
0

>  <SCORE.INTRA.POLAR.0>
0

>  <SCORE.INTRA.REPUL>
0

>  <SCORE.INTRA.REPUL.0>
0

>  <SCORE.INTRA.SOLV>
0

>  <SCORE.INTRA.SOLV.lig_0>
-23.8941

>  <SCORE.INTRA.VDW>
0

>  <SCORE.INTRA.VDW.0>
0

>  <SCORE.INTRA.norm>
0

>  <SCORE.RESTR>
0

>  <SCORE.RESTR.CAVITY>
0

>  <SCORE.RESTR.norm>
0

>  <SCORE.SYSTEM>
0

>  <SCORE.SYSTEM.CONST>
0

>  <SCORE.SYSTEM.DIHEDRAL>
0

>  <SCORE.SYSTEM.SOLV>
0

>  <SCORE.SYSTEM.norm>
0

>  <SCORE.heavy>
10

>  <SCORE.norm>
-0.875453

>  <RMSD>
27.825

$$$$
ligand
 OpenBabel11021811513D
libRbt.so/2013.1/901 2013/11/27
 10 11  0  0  0  0  0  0  0  0999 V2000
   -7.6055   31.4594   -6.2226 N   0  0  0  0  0  0  0  0  0  0  0  0
   -7.5386   30.6623   -5.1490 C   0  0  0  0  0  0  0  0  0  0  0  0
   -7.2522   29.3630   -5.0874 N   0  0  0  0  0  0  0  0  0  0  0  0
   -7.0133   28.8687   -6.3121 C   0  0  0  0  0  0  0  0  0  0  0  0
   -7.0458   29.5609   -7.5068 C   0  0  0  0  0  0  0  0  0  0  0  0
   -7.3602   30.9329   -7.4397 C   0  0  0  0  0  0  0  0  0  0  0  0
   -7.4268   31.7265   -8.5144 N   0  0  0  0  0  0  0  0  0  0  0  0
   -6.7460   28.7237   -8.5682 N   0  0  0  0  0  0  0  0  0  0  0  0
   -6.5428   27.5577   -8.0005 C   0  0  0  0  0  0  0  0  0  0  0  0
   -6.6877   27.5723   -6.6412 N   0  0  0  0  0  0  0  0  0  0  0  0
  1  2  2  0  0  0  0
  1  6  1  0  0  0  0
  2  3  1  0  0  0  0
  3  4  2  0  0  0  0
  4  5  1  0  0  0  0
  4 10  1  0  0  0  0
  5  6  2  0  0  0  0
  5  8  1  0  0  0  0
  6  7  1  0  0  0  0
  8  9  1  0  0  0  0
  9 10  2  0  0  0  0
M  END
>  <CHROM.1>
-7.12355406,29.65240523,-6.94899438,2.90113025,1.32782309,-1.13703478

>  <Name>
ligand

>  <RI>
0

>  <Rbt.Current_Directory>
/home/itssahil/PROJECTS/Mol_Feturizer/New_Systems/rnas/4TZY

>  <Rbt.Executable>
rbdock ($Id: //depot/dev/client3/rdock/2013.1/src/exe/rbdock.cxx#4 $)

>  <Rbt.Library>
libRbt.so (2013.1, Build901 2013/11/27)

>  <Rbt.Parameter_File>
/export/apps/rDock/src/rDock_2013.1_src/data/scripts/dock_solv.prm

>  <Rbt.Receptor>
prm/blind_docking_40.prm

>  <SCORE>
-8.76003

>  <SCORE.INTER>
-8.76003

>  <SCORE.INTER.CONST>
1

>  <SCORE.INTER.POLAR>
0

>  <SCORE.INTER.ROT>
0

>  <SCORE.INTER.SOLV>
8.72111

>  <SCORE.INTER.VDW>
-12.3471

>  <SCORE.INTER.norm>
-0.876003

>  <SCORE.INTRA>
0

>  <SCORE.INTRA.DIHEDRAL>
0

>  <SCORE.INTRA.DIHEDRAL.0>
0

>  <SCORE.INTRA.POLAR>
0

>  <SCORE.INTRA.POLAR.0>
0

>  <SCORE.INTRA.REPUL>
0

>  <SCORE.INTRA.REPUL.0>
0

>  <SCORE.INTRA.SOLV>
0

>  <SCORE.INTRA.SOLV.lig_0>
-23.8941

>  <SCORE.INTRA.VDW>
0

>  <SCORE.INTRA.VDW.0>
0

>  <SCORE.INTRA.norm>
0

>  <SCORE.RESTR>
0

>  <SCORE.RESTR.CAVITY>
0

>  <SCORE.RESTR.norm>
0

>  <SCORE.SYSTEM>
0

>  <SCORE.SYSTEM.CONST>
0

>  <SCORE.SYSTEM.DIHEDRAL>
0

>  <SCORE.SYSTEM.SOLV>
0

>  <SCORE.SYSTEM.norm>
0

>  <SCORE.heavy>
10

>  <SCORE.norm>
-0.876003

>  <RMSD>
27.831

$$$$
ligand
 OpenBabel11021811513D
libRbt.so/2013.1/901 2013/11/27
 10 11  0  0  0  0  0  0  0  0999 V2000
   -7.5769   31.4685   -6.2259 N   0  0  0  0  0  0  0  0  0  0  0  0
   -7.5338   30.6684   -5.1533 C   0  0  0  0  0  0  0  0  0  0  0  0
   -7.2710   29.3642   -5.0916 N   0  0  0  0  0  0  0  0  0  0  0  0
   -7.0296   28.8679   -6.3150 C   0  0  0  0  0  0  0  0  0  0  0  0
   -7.0391   29.5627   -7.5086 C   0  0  0  0  0  0  0  0  0  0  0  0
   -7.3297   30.9399   -7.4417 C   0  0  0  0  0  0  0  0  0  0  0  0
   -7.3726   31.7364   -8.5154 N   0  0  0  0  0  0  0  0  0  0  0  0
   -6.7443   28.7222   -8.5688 N   0  0  0  0  0  0  0  0  0  0  0  0
   -6.5670   27.5517   -8.0015 C   0  0  0  0  0  0  0  0  0  0  0  0
   -6.7240   27.5665   -6.6436 N   0  0  0  0  0  0  0  0  0  0  0  0
  1  2  2  0  0  0  0
  1  6  1  0  0  0  0
  2  3  1  0  0  0  0
  3  4  2  0  0  0  0
  4  5  1  0  0  0  0
  4 10  1  0  0  0  0
  5  6  2  0  0  0  0
  5  8  1  0  0  0  0
  6  7  1  0  0  0  0
  8  9  1  0  0  0  0
  9 10  2  0  0  0  0
M  END
>  <CHROM.1>
-7.12025145,29.65455878,-6.95131946,2.83262117,1.33948102,-1.06859172

>  <Name>
ligand

>  <RI>
0

>  <Rbt.Current_Directory>
/home/itssahil/PROJECTS/Mol_Feturizer/New_Systems/rnas/4TZY

>  <Rbt.Executable>
rbdock ($Id: //depot/dev/client3/rdock/2013.1/src/exe/rbdock.cxx#4 $)

>  <Rbt.Library>
libRbt.so (2013.1, Build901 2013/11/27)

>  <Rbt.Parameter_File>
/export/apps/rDock/src/rDock_2013.1_src/data/scripts/dock_solv.prm

>  <Rbt.Receptor>
prm/blind_docking_40.prm

>  <SCORE>
-8.74735

>  <SCORE.INTER>
-8.74735

>  <SCORE.INTER.CONST>
1

>  <SCORE.INTER.POLAR>
0

>  <SCORE.INTER.ROT>
0

>  <SCORE.INTER.SOLV>
8.84548

>  <SCORE.INTER.VDW>
-12.3801

>  <SCORE.INTER.norm>
-0.874735

>  <SCORE.INTRA>
0

>  <SCORE.INTRA.DIHEDRAL>
0

>  <SCORE.INTRA.DIHEDRAL.0>
0

>  <SCORE.INTRA.POLAR>
0

>  <SCORE.INTRA.POLAR.0>
0

>  <SCORE.INTRA.REPUL>
0

>  <SCORE.INTRA.REPUL.0>
0

>  <SCORE.INTRA.SOLV>
0

>  <SCORE.INTRA.SOLV.lig_0>
-23.8941

>  <SCORE.INTRA.VDW>
0

>  <SCORE.INTRA.VDW.0>
0

>  <SCORE.INTRA.norm>
0

>  <SCORE.RESTR>
0

>  <SCORE.RESTR.CAVITY>
0

>  <SCORE.RESTR.norm>
0

>  <SCORE.SYSTEM>
0

>  <SCORE.SYSTEM.CONST>
0

>  <SCORE.SYSTEM.DIHEDRAL>
0

>  <SCORE.SYSTEM.SOLV>
0

>  <SCORE.SYSTEM.norm>
0

>  <SCORE.heavy>
10

>  <SCORE.norm>
-0.874735

>  <RMSD>
27.833

$$$$
ligand
 OpenBabel11021811513D
libRbt.so/2013.1/901 2013/11/27
 10 11  0  0  0  0  0  0  0  0999 V2000
   -7.5508   31.4728   -6.2927 N   0  0  0  0  0  0  0  0  0  0  0  0
   -7.5671   30.6967   -5.2019 C   0  0  0  0  0  0  0  0  0  0  0  0
   -7.3353   29.3889   -5.1013 N   0  0  0  0  0  0  0  0  0  0  0  0
   -7.0573   28.8600   -6.3030 C   0  0  0  0  0  0  0  0  0  0  0  0
   -7.0049   29.5274   -7.5110 C   0  0  0  0  0  0  0  0  0  0  0  0
   -7.2679   30.9116   -7.4859 C   0  0  0  0  0  0  0  0  0  0  0  0
   -7.2514   31.6842   -8.5776 N   0  0  0  0  0  0  0  0  0  0  0  0
   -6.6874   28.6570   -8.5400 N   0  0  0  0  0  0  0  0  0  0  0  0
   -6.5579   27.4964   -7.9407 C   0  0  0  0  0  0  0  0  0  0  0  0
   -6.7675   27.5453   -6.5907 N   0  0  0  0  0  0  0  0  0  0  0  0
  1  2  2  0  0  0  0
  1  6  1  0  0  0  0
  2  3  1  0  0  0  0
  3  4  2  0  0  0  0
  4  5  1  0  0  0  0
  4 10  1  0  0  0  0
  5  6  2  0  0  0  0
  5  8  1  0  0  0  0
  6  7  1  0  0  0  0
  8  9  1  0  0  0  0
  9 10  2  0  0  0  0
M  END
>  <CHROM.1>
-7.10581742,29.63367160,-6.95954073,2.63953928,1.33556390,-0.90307979

>  <Name>
ligand

>  <RI>
0

>  <Rbt.Current_Directory>
/home/itssahil/PROJECTS/Mol_Feturizer/New_Systems/rnas/4TZY

>  <Rbt.Executable>
rbdock ($Id: //depot/dev/client3/rdock/2013.1/src/exe/rbdock.cxx#4 $)

>  <Rbt.Library>
libRbt.so (2013.1, Build901 2013/11/27)

>  <Rbt.Parameter_File>
/export/apps/rDock/src/rDock_2013.1_src/data/scripts/dock_solv.prm

>  <Rbt.Receptor>
prm/blind_docking_40.prm

>  <SCORE>
-8.67944

>  <SCORE.INTER>
-8.67944

>  <SCORE.INTER.CONST>
1

>  <SCORE.INTER.POLAR>
0

>  <SCORE.INTER.ROT>
0

>  <SCORE.INTER.SOLV>
9.43236

>  <SCORE.INTER.VDW>
-12.5304

>  <SCORE.INTER.norm>
-0.867944

>  <SCORE.INTRA>
0

>  <SCORE.INTRA.DIHEDRAL>
0

>  <SCORE.INTRA.DIHEDRAL.0>
0

>  <SCORE.INTRA.POLAR>
0

>  <SCORE.INTRA.POLAR.0>
0

>  <SCORE.INTRA.REPUL>
0

>  <SCORE.INTRA.REPUL.0>
0

>  <SCORE.INTRA.SOLV>
0

>  <SCORE.INTRA.SOLV.lig_0>
-23.8941

>  <SCORE.INTRA.VDW>
0

>  <SCORE.INTRA.VDW.0>
0

>  <SCORE.INTRA.norm>
0

>  <SCORE.RESTR>
0

>  <SCORE.RESTR.CAVITY>
0

>  <SCORE.RESTR.norm>
0

>  <SCORE.SYSTEM>
0

>  <SCORE.SYSTEM.CONST>
0

>  <SCORE.SYSTEM.DIHEDRAL>
0

>  <SCORE.SYSTEM.SOLV>
0

>  <SCORE.SYSTEM.norm>
0

>  <SCORE.heavy>
10

>  <SCORE.norm>
-0.867944

>  <RMSD>
27.833

$$$$
ligand
 OpenBabel11021811513D
libRbt.so/2013.1/901 2013/11/27
 10 11  0  0  0  0  0  0  0  0999 V2000
   -7.5761   31.4485   -6.2202 N   0  0  0  0  0  0  0  0  0  0  0  0
   -7.5273   30.6432   -5.1518 C   0  0  0  0  0  0  0  0  0  0  0  0
   -7.2566   29.3403   -5.0971 N   0  0  0  0  0  0  0  0  0  0  0  0
   -7.0134   28.8518   -6.3233 C   0  0  0  0  0  0  0  0  0  0  0  0
   -7.0281   29.5527   -7.5133 C   0  0  0  0  0  0  0  0  0  0  0  0
   -7.3269   30.9278   -7.4390 C   0  0  0  0  0  0  0  0  0  0  0  0
   -7.3755   31.7296   -8.5085 N   0  0  0  0  0  0  0  0  0  0  0  0
   -6.7293   28.7195   -8.5781 N   0  0  0  0  0  0  0  0  0  0  0  0
   -6.5444   27.5472   -8.0171 C   0  0  0  0  0  0  0  0  0  0  0  0
   -6.7003   27.5540   -6.6589 N   0  0  0  0  0  0  0  0  0  0  0  0
  1  2  2  0  0  0  0
  1  6  1  0  0  0  0
  2  3  1  0  0  0  0
  3  4  2  0  0  0  0
  4  5  1  0  0  0  0
  4 10  1  0  0  0  0
  5  6  2  0  0  0  0
  5  8  1  0  0  0  0
  6  7  1  0  0  0  0
  8  9  1  0  0  0  0
  9 10  2  0  0  0  0
M  END
>  <CHROM.1>
-7.10931075,29.64119134,-6.95546094,2.84825510,1.33462925,-1.07860407

>  <Name>
ligand

>  <RI>
0

>  <Rbt.Current_Directory>
/home/itssahil/PROJECTS/Mol_Feturizer/New_Systems/rnas/4TZY

>  <Rbt.Executable>
rbdock ($Id: //depot/dev/client3/rdock/2013.1/src/exe/rbdock.cxx#4 $)

>  <Rbt.Library>
libRbt.so (2013.1, Build901 2013/11/27)

>  <Rbt.Parameter_File>
/export/apps/rDock/src/rDock_2013.1_src/data/scripts/dock_solv.prm

>  <Rbt.Receptor>
prm/blind_docking_80.prm

>  <SCORE>
-8.69716

>  <SCORE.INTER>
-8.69716

>  <SCORE.INTER.CONST>
1

>  <SCORE.INTER.POLAR>
0

>  <SCORE.INTER.ROT>
0

>  <SCORE.INTER.SOLV>
8.84224

>  <SCORE.INTER.VDW>
-12.3455

>  <SCORE.INTER.norm>
-0.869716

>  <SCORE.INTRA>
0

>  <SCORE.INTRA.DIHEDRAL>
0

>  <SCORE.INTRA.DIHEDRAL.0>
0

>  <SCORE.INTRA.POLAR>
0

>  <SCORE.INTRA.POLAR.0>
0

>  <SCORE.INTRA.REPUL>
0

>  <SCORE.INTRA.REPUL.0>
0

>  <SCORE.INTRA.SOLV>
0

>  <SCORE.INTRA.SOLV.lig_0>
-23.8941

>  <SCORE.INTRA.VDW>
0

>  <SCORE.INTRA.VDW.0>
0

>  <SCORE.INTRA.norm>
0

>  <SCORE.RESTR>
0

>  <SCORE.RESTR.CAVITY>
0

>  <SCORE.RESTR.norm>
0

>  <SCORE.SYSTEM>
0

>  <SCORE.SYSTEM.CONST>
0

>  <SCORE.SYSTEM.DIHEDRAL>
0

>  <SCORE.SYSTEM.SOLV>
0

>  <SCORE.SYSTEM.norm>
0

>  <SCORE.heavy>
10

>  <SCORE.norm>
-0.869716

>  <RMSD>
27.835

$$$$
ligand
 OpenBabel11021811513D
libRbt.so/2013.1/901 2013/11/27
 10 11  0  0  0  0  0  0  0  0999 V2000
   -7.5733   31.4670   -6.2228 N   0  0  0  0  0  0  0  0  0  0  0  0
   -7.5239   30.6705   -5.1479 C   0  0  0  0  0  0  0  0  0  0  0  0
   -7.2569   29.3672   -5.0831 N   0  0  0  0  0  0  0  0  0  0  0  0
   -7.0185   28.8678   -6.3059 C   0  0  0  0  0  0  0  0  0  0  0  0
   -7.0344   29.5589   -7.5016 C   0  0  0  0  0  0  0  0  0  0  0  0
   -7.3290   30.9354   -7.4379 C   0  0  0  0  0  0  0  0  0  0  0  0
   -7.3781   31.7285   -8.5139 N   0  0  0  0  0  0  0  0  0  0  0  0
   -6.7410   28.7160   -8.5603 N   0  0  0  0  0  0  0  0  0  0  0  0
   -6.5580   27.5479   -7.9901 C   0  0  0  0  0  0  0  0  0  0  0  0
   -6.7102   27.5664   -6.6316 N   0  0  0  0  0  0  0  0  0  0  0  0
  1  2  2  0  0  0  0
  1  6  1  0  0  0  0
  2  3  1  0  0  0  0
  3  4  2  0  0  0  0
  4  5  1  0  0  0  0
  4 10  1  0  0  0  0
  5  6  2  0  0  0  0
  5  8  1  0  0  0  0
  6  7  1  0  0  0  0
  8  9  1  0  0  0  0
  9 10  2  0  0  0  0
M  END
>  <CHROM.1>
-7.11382738,29.65226293,-6.94433900,2.85282473,1.33853962,-1.09134110

>  <Name>
ligand

>  <RI>
0

>  <Rbt.Current_Directory>
/home/itssahil/PROJECTS/Mol_Feturizer/New_Systems/rnas/4TZY

>  <Rbt.Executable>
rbdock ($Id: //depot/dev/client3/rdock/2013.1/src/exe/rbdock.cxx#4 $)

>  <Rbt.Library>
libRbt.so (2013.1, Build901 2013/11/27)

>  <Rbt.Parameter_File>
/export/apps/rDock/src/rDock_2013.1_src/data/scripts/dock_solv.prm

>  <Rbt.Receptor>
prm/blind_docking_60.prm

>  <SCORE>
-8.7532

>  <SCORE.INTER>
-8.7532

>  <SCORE.INTER.CONST>
1

>  <SCORE.INTER.POLAR>
0

>  <SCORE.INTER.ROT>
0

>  <SCORE.INTER.SOLV>
8.85677

>  <SCORE.INTER.VDW>
-12.3877

>  <SCORE.INTER.norm>
-0.87532

>  <SCORE.INTRA>
0

>  <SCORE.INTRA.DIHEDRAL>
0

>  <SCORE.INTRA.DIHEDRAL.0>
0

>  <SCORE.INTRA.POLAR>
0

>  <SCORE.INTRA.POLAR.0>
0

>  <SCORE.INTRA.REPUL>
0

>  <SCORE.INTRA.REPUL.0>
0

>  <SCORE.INTRA.SOLV>
0

>  <SCORE.INTRA.SOLV.lig_0>
-23.8941

>  <SCORE.INTRA.VDW>
0

>  <SCORE.INTRA.VDW.0>
0

>  <SCORE.INTRA.norm>
0

>  <SCORE.RESTR>
0

>  <SCORE.RESTR.CAVITY>
0

>  <SCORE.RESTR.norm>
0

>  <SCORE.SYSTEM>
0

>  <SCORE.SYSTEM.CONST>
0

>  <SCORE.SYSTEM.DIHEDRAL>
0

>  <SCORE.SYSTEM.SOLV>
0

>  <SCORE.SYSTEM.norm>
0

>  <SCORE.heavy>
10

>  <SCORE.norm>
-0.87532

>  <RMSD>
27.840

$$$$
ligand
 OpenBabel11021811513D
libRbt.so/2013.1/901 2013/11/27
 10 11  0  0  0  0  0  0  0  0999 V2000
   -7.5749   31.4656   -6.2195 N   0  0  0  0  0  0  0  0  0  0  0  0
   -7.5258   30.6677   -5.1455 C   0  0  0  0  0  0  0  0  0  0  0  0
   -7.2577   29.3646   -5.0822 N   0  0  0  0  0  0  0  0  0  0  0  0
   -7.0178   28.8670   -6.3053 C   0  0  0  0  0  0  0  0  0  0  0  0
   -7.0331   29.5595   -7.5002 C   0  0  0  0  0  0  0  0  0  0  0  0
   -7.3290   30.9357   -7.4350 C   0  0  0  0  0  0  0  0  0  0  0  0
   -7.3779   31.7302   -8.5100 N   0  0  0  0  0  0  0  0  0  0  0  0
   -6.7380   28.7183   -8.5596 N   0  0  0  0  0  0  0  0  0  0  0  0
   -6.5545   27.5496   -7.9907 C   0  0  0  0  0  0  0  0  0  0  0  0
   -6.7080   27.5662   -6.6324 N   0  0  0  0  0  0  0  0  0  0  0  0
  1  2  2  0  0  0  0
  1  6  1  0  0  0  0
  2  3  1  0  0  0  0
  3  4  2  0  0  0  0
  4  5  1  0  0  0  0
  4 10  1  0  0  0  0
  5  6  2  0  0  0  0
  5  8  1  0  0  0  0
  6  7  1  0  0  0  0
  8  9  1  0  0  0  0
  9 10  2  0  0  0  0
M  END
>  <CHROM.1>
-7.11317935,29.65215026,-6.94286708,2.85107648,1.33732872,-1.08838470

>  <Name>
ligand

>  <RI>
0

>  <Rbt.Current_Directory>
/home/itssahil/PROJECTS/Mol_Feturizer/New_Systems/rnas/4TZY

>  <Rbt.Executable>
rbdock ($Id: //depot/dev/client3/rdock/2013.1/src/exe/rbdock.cxx#4 $)

>  <Rbt.Library>
libRbt.so (2013.1, Build901 2013/11/27)

>  <Rbt.Parameter_File>
/export/apps/rDock/src/rDock_2013.1_src/data/scripts/dock_solv.prm

>  <Rbt.Receptor>
prm/blind_docking_40.prm

>  <SCORE>
-8.75265

>  <SCORE.INTER>
-8.75265

>  <SCORE.INTER.CONST>
1

>  <SCORE.INTER.POLAR>
0

>  <SCORE.INTER.ROT>
0

>  <SCORE.INTER.SOLV>
8.84407

>  <SCORE.INTER.VDW>
-12.3831

>  <SCORE.INTER.norm>
-0.875265

>  <SCORE.INTRA>
0

>  <SCORE.INTRA.DIHEDRAL>
0

>  <SCORE.INTRA.DIHEDRAL.0>
0

>  <SCORE.INTRA.POLAR>
0

>  <SCORE.INTRA.POLAR.0>
0

>  <SCORE.INTRA.REPUL>
0

>  <SCORE.INTRA.REPUL.0>
0

>  <SCORE.INTRA.SOLV>
0

>  <SCORE.INTRA.SOLV.lig_0>
-23.8941

>  <SCORE.INTRA.VDW>
0

>  <SCORE.INTRA.VDW.0>
0

>  <SCORE.INTRA.norm>
0

>  <SCORE.RESTR>
0

>  <SCORE.RESTR.CAVITY>
0

>  <SCORE.RESTR.norm>
0

>  <SCORE.SYSTEM>
0

>  <SCORE.SYSTEM.CONST>
0

>  <SCORE.SYSTEM.DIHEDRAL>
0

>  <SCORE.SYSTEM.SOLV>
0

>  <SCORE.SYSTEM.norm>
0

>  <SCORE.heavy>
10

>  <SCORE.norm>
-0.875265

>  <RMSD>
27.841

$$$$
ligand
 OpenBabel11021811513D
libRbt.so/2013.1/901 2013/11/27
 10 11  0  0  0  0  0  0  0  0999 V2000
   -7.5840   31.4669   -6.2170 N   0  0  0  0  0  0  0  0  0  0  0  0
   -7.5260   30.6676   -5.1445 C   0  0  0  0  0  0  0  0  0  0  0  0
   -7.2504   29.3659   -5.0844 N   0  0  0  0  0  0  0  0  0  0  0  0
   -7.0126   28.8717   -6.3094 C   0  0  0  0  0  0  0  0  0  0  0  0
   -7.0368   29.5661   -7.5030 C   0  0  0  0  0  0  0  0  0  0  0  0
   -7.3401   30.9405   -7.4344 C   0  0  0  0  0  0  0  0  0  0  0  0
   -7.3978   31.7363   -8.5078 N   0  0  0  0  0  0  0  0  0  0  0  0
   -6.7413   28.7282   -8.5650 N   0  0  0  0  0  0  0  0  0  0  0  0
   -6.5489   27.5596   -7.9988 C   0  0  0  0  0  0  0  0  0  0  0  0
   -6.6969   27.5732   -6.6398 N   0  0  0  0  0  0  0  0  0  0  0  0
  1  2  2  0  0  0  0
  1  6  1  0  0  0  0
  2  3  1  0  0  0  0
  3  4  2  0  0  0  0
  4  5  1  0  0  0  0
  4 10  1  0  0  0  0
  5  6  2  0  0  0  0
  5  8  1  0  0  0  0
  6  7  1  0  0  0  0
  8  9  1  0  0  0  0
  9 10  2  0  0  0  0
M  END
>  <CHROM.1>
-7.11504632,29.65730563,-6.94520031,2.87755879,1.33416262,-1.11249522

>  <Name>
ligand

>  <RI>
0

>  <Rbt.Current_Directory>
/home/itssahil/PROJECTS/Mol_Feturizer/New_Systems/rnas/4TZY

>  <Rbt.Executable>
rbdock ($Id: //depot/dev/client3/rdock/2013.1/src/exe/rbdock.cxx#4 $)

>  <Rbt.Library>
libRbt.so (2013.1, Build901 2013/11/27)

>  <Rbt.Parameter_File>
/export/apps/rDock/src/rDock_2013.1_src/data/scripts/dock_solv.prm

>  <Rbt.Receptor>
prm/blind_docking_40.prm

>  <SCORE>
-8.77497

>  <SCORE.INTER>
-8.77497

>  <SCORE.INTER.CONST>
1

>  <SCORE.INTER.POLAR>
0

>  <SCORE.INTER.ROT>
0

>  <SCORE.INTER.SOLV>
8.77306

>  <SCORE.INTER.VDW>
-12.3743

>  <SCORE.INTER.norm>
-0.877497

>  <SCORE.INTRA>
0

>  <SCORE.INTRA.DIHEDRAL>
0

>  <SCORE.INTRA.DIHEDRAL.0>
0

>  <SCORE.INTRA.POLAR>
0

>  <SCORE.INTRA.POLAR.0>
0

>  <SCORE.INTRA.REPUL>
0

>  <SCORE.INTRA.REPUL.0>
0

>  <SCORE.INTRA.SOLV>
0

>  <SCORE.INTRA.SOLV.lig_0>
-23.8941

>  <SCORE.INTRA.VDW>
0

>  <SCORE.INTRA.VDW.0>
0

>  <SCORE.INTRA.norm>
0

>  <SCORE.RESTR>
0

>  <SCORE.RESTR.CAVITY>
0

>  <SCORE.RESTR.norm>
0

>  <SCORE.SYSTEM>
0

>  <SCORE.SYSTEM.CONST>
0

>  <SCORE.SYSTEM.DIHEDRAL>
0

>  <SCORE.SYSTEM.SOLV>
0

>  <SCORE.SYSTEM.norm>
0

>  <SCORE.heavy>
10

>  <SCORE.norm>
-0.877497

>  <RMSD>
27.841

$$$$
ligand
 OpenBabel11021811513D
libRbt.so/2013.1/901 2013/11/27
 10 11  0  0  0  0  0  0  0  0999 V2000
   -7.5673   31.4760   -6.2283 N   0  0  0  0  0  0  0  0  0  0  0  0
   -7.5253   30.6760   -5.1556 C   0  0  0  0  0  0  0  0  0  0  0  0
   -7.2638   29.3715   -5.0938 N   0  0  0  0  0  0  0  0  0  0  0  0
   -7.0228   28.8748   -6.3171 C   0  0  0  0  0  0  0  0  0  0  0  0
   -7.0312   29.5695   -7.5108 C   0  0  0  0  0  0  0  0  0  0  0  0
   -7.3205   30.9470   -7.4441 C   0  0  0  0  0  0  0  0  0  0  0  0
   -7.3623   31.7435   -8.5178 N   0  0  0  0  0  0  0  0  0  0  0  0
   -6.7372   28.7286   -8.5708 N   0  0  0  0  0  0  0  0  0  0  0  0
   -6.5611   27.5580   -8.0034 C   0  0  0  0  0  0  0  0  0  0  0  0
   -6.7185   27.5731   -6.6455 N   0  0  0  0  0  0  0  0  0  0  0  0
  1  2  2  0  0  0  0
  1  6  1  0  0  0  0
  2  3  1  0  0  0  0
  3  4  2  0  0  0  0
  4  5  1  0  0  0  0
  4 10  1  0  0  0  0
  5  6  2  0  0  0  0
  5  8  1  0  0  0  0
  6  7  1  0  0  0  0
  8  9  1  0  0  0  0
  9 10  2  0  0  0  0
M  END
>  <CHROM.1>
-7.11245235,29.66153101,-6.95352397,2.82966853,1.34029644,-1.06581765

>  <Name>
ligand

>  <RI>
0

>  <Rbt.Current_Directory>
/home/itssahil/PROJECTS/Mol_Feturizer/New_Systems/rnas/4TZY

>  <Rbt.Executable>
rbdock ($Id: //depot/dev/client3/rdock/2013.1/src/exe/rbdock.cxx#4 $)

>  <Rbt.Library>
libRbt.so (2013.1, Build901 2013/11/27)

>  <Rbt.Parameter_File>
/export/apps/rDock/src/rDock_2013.1_src/data/scripts/dock_solv.prm

>  <Rbt.Receptor>
prm/blind_docking_40.prm

>  <SCORE>
-8.75243

>  <SCORE.INTER>
-8.75243

>  <SCORE.INTER.CONST>
1

>  <SCORE.INTER.POLAR>
0

>  <SCORE.INTER.ROT>
0

>  <SCORE.INTER.SOLV>
8.87945

>  <SCORE.INTER.VDW>
-12.3948

>  <SCORE.INTER.norm>
-0.875243

>  <SCORE.INTRA>
0

>  <SCORE.INTRA.DIHEDRAL>
0

>  <SCORE.INTRA.DIHEDRAL.0>
0

>  <SCORE.INTRA.POLAR>
0

>  <SCORE.INTRA.POLAR.0>
0

>  <SCORE.INTRA.REPUL>
0

>  <SCORE.INTRA.REPUL.0>
0

>  <SCORE.INTRA.SOLV>
0

>  <SCORE.INTRA.SOLV.lig_0>
-23.8941

>  <SCORE.INTRA.VDW>
0

>  <SCORE.INTRA.VDW.0>
0

>  <SCORE.INTRA.norm>
0

>  <SCORE.RESTR>
0

>  <SCORE.RESTR.CAVITY>
0

>  <SCORE.RESTR.norm>
0

>  <SCORE.SYSTEM>
0

>  <SCORE.SYSTEM.CONST>
0

>  <SCORE.SYSTEM.DIHEDRAL>
0

>  <SCORE.SYSTEM.SOLV>
0

>  <SCORE.SYSTEM.norm>
0

>  <SCORE.heavy>
10

>  <SCORE.norm>
-0.875243

>  <RMSD>
27.842

$$$$
ligand
 OpenBabel11021811513D
libRbt.so/2013.1/901 2013/11/27
 10 11  0  0  0  0  0  0  0  0999 V2000
   -7.5658   31.4761   -6.2251 N   0  0  0  0  0  0  0  0  0  0  0  0
   -7.5256   30.6741   -5.1538 C   0  0  0  0  0  0  0  0  0  0  0  0
   -7.2659   29.3691   -5.0942 N   0  0  0  0  0  0  0  0  0  0  0  0
   -7.0245   28.8744   -6.3182 C   0  0  0  0  0  0  0  0  0  0  0  0
   -7.0312   29.5713   -7.5106 C   0  0  0  0  0  0  0  0  0  0  0  0
   -7.3187   30.9490   -7.4416 C   0  0  0  0  0  0  0  0  0  0  0  0
   -7.3587   31.7476   -8.5139 N   0  0  0  0  0  0  0  0  0  0  0  0
   -6.7374   28.7319   -8.5720 N   0  0  0  0  0  0  0  0  0  0  0  0
   -6.5633   27.5601   -8.0066 C   0  0  0  0  0  0  0  0  0  0  0  0
   -6.7217   27.5729   -6.6488 N   0  0  0  0  0  0  0  0  0  0  0  0
  1  2  2  0  0  0  0
  1  6  1  0  0  0  0
  2  3  1  0  0  0  0
  3  4  2  0  0  0  0
  4  5  1  0  0  0  0
  4 10  1  0  0  0  0
  5  6  2  0  0  0  0
  5  8  1  0  0  0  0
  6  7  1  0  0  0  0
  8  9  1  0  0  0  0
  9 10  2  0  0  0  0
M  END
>  <CHROM.1>
-7.11270019,29.66236216,-6.95327458,2.82398828,1.34105433,-1.05843766

>  <Name>
ligand

>  <RI>
0

>  <Rbt.Current_Directory>
/home/itssahil/PROJECTS/Mol_Feturizer/New_Systems/rnas/4TZY

>  <Rbt.Executable>
rbdock ($Id: //depot/dev/client3/rdock/2013.1/src/exe/rbdock.cxx#4 $)

>  <Rbt.Library>
libRbt.so (2013.1, Build901 2013/11/27)

>  <Rbt.Parameter_File>
/export/apps/rDock/src/rDock_2013.1_src/data/scripts/dock_solv.prm

>  <Rbt.Receptor>
prm/blind_docking_60.prm

>  <SCORE>
-8.75354

>  <SCORE.INTER>
-8.75354

>  <SCORE.INTER.CONST>
1

>  <SCORE.INTER.POLAR>
0

>  <SCORE.INTER.ROT>
0

>  <SCORE.INTER.SOLV>
8.86794

>  <SCORE.INTER.VDW>
-12.3917

>  <SCORE.INTER.norm>
-0.875354

>  <SCORE.INTRA>
0

>  <SCORE.INTRA.DIHEDRAL>
0

>  <SCORE.INTRA.DIHEDRAL.0>
0

>  <SCORE.INTRA.POLAR>
0

>  <SCORE.INTRA.POLAR.0>
0

>  <SCORE.INTRA.REPUL>
0

>  <SCORE.INTRA.REPUL.0>
0

>  <SCORE.INTRA.SOLV>
0

>  <SCORE.INTRA.SOLV.lig_0>
-23.8941

>  <SCORE.INTRA.VDW>
0

>  <SCORE.INTRA.VDW.0>
0

>  <SCORE.INTRA.norm>
0

>  <SCORE.RESTR>
0

>  <SCORE.RESTR.CAVITY>
0

>  <SCORE.RESTR.norm>
0

>  <SCORE.SYSTEM>
0

>  <SCORE.SYSTEM.CONST>
0

>  <SCORE.SYSTEM.DIHEDRAL>
0

>  <SCORE.SYSTEM.SOLV>
0

>  <SCORE.SYSTEM.norm>
0

>  <SCORE.heavy>
10

>  <SCORE.norm>
-0.875354

>  <RMSD>
27.842

$$$$
ligand
 OpenBabel11021811513D
libRbt.so/2013.1/901 2013/11/27
 10 11  0  0  0  0  0  0  0  0999 V2000
   -7.5792   31.4678   -6.2128 N   0  0  0  0  0  0  0  0  0  0  0  0
   -7.5209   30.6678   -5.1409 C   0  0  0  0  0  0  0  0  0  0  0  0
   -7.2470   29.3657   -5.0819 N   0  0  0  0  0  0  0  0  0  0  0  0
   -7.0117   28.8718   -6.3074 C   0  0  0  0  0  0  0  0  0  0  0  0
   -7.0365   29.5669   -7.5007 C   0  0  0  0  0  0  0  0  0  0  0  0
   -7.3378   30.9417   -7.4308 C   0  0  0  0  0  0  0  0  0  0  0  0
   -7.3959   31.7382   -8.5038 N   0  0  0  0  0  0  0  0  0  0  0  0
   -6.7437   28.7292   -8.5636 N   0  0  0  0  0  0  0  0  0  0  0  0
   -6.5522   27.5600   -7.9983 C   0  0  0  0  0  0  0  0  0  0  0  0
   -6.6982   27.5730   -6.6391 N   0  0  0  0  0  0  0  0  0  0  0  0
  1  2  2  0  0  0  0
  1  6  1  0  0  0  0
  2  3  1  0  0  0  0
  3  4  2  0  0  0  0
  4  5  1  0  0  0  0
  4 10  1  0  0  0  0
  5  6  2  0  0  0  0
  5  8  1  0  0  0  0
  6  7  1  0  0  0  0
  8  9  1  0  0  0  0
  9 10  2  0  0  0  0
M  END
>  <CHROM.1>
-7.11387910,29.65790884,-6.94270046,2.88029258,1.33606526,-1.11458916

>  <Name>
ligand

>  <RI>
0

>  <Rbt.Current_Directory>
/home/itssahil/PROJECTS/Mol_Feturizer/New_Systems/rnas/4TZY

>  <Rbt.Executable>
rbdock ($Id: //depot/dev/client3/rdock/2013.1/src/exe/rbdock.cxx#4 $)

>  <Rbt.Library>
libRbt.so (2013.1, Build901 2013/11/27)

>  <Rbt.Parameter_File>
/export/apps/rDock/src/rDock_2013.1_src/data/scripts/dock_solv.prm

>  <Rbt.Receptor>
prm/blind_docking_40.prm

>  <SCORE>
-8.77503

>  <SCORE.INTER>
-8.77503

>  <SCORE.INTER.CONST>
1

>  <SCORE.INTER.POLAR>
0

>  <SCORE.INTER.ROT>
0

>  <SCORE.INTER.SOLV>
8.76488

>  <SCORE.INTER.VDW>
-12.3716

>  <SCORE.INTER.norm>
-0.877503

>  <SCORE.INTRA>
0

>  <SCORE.INTRA.DIHEDRAL>
0

>  <SCORE.INTRA.DIHEDRAL.0>
0

>  <SCORE.INTRA.POLAR>
0

>  <SCORE.INTRA.POLAR.0>
0

>  <SCORE.INTRA.REPUL>
0

>  <SCORE.INTRA.REPUL.0>
0

>  <SCORE.INTRA.SOLV>
0

>  <SCORE.INTRA.SOLV.lig_0>
-23.8941

>  <SCORE.INTRA.VDW>
0

>  <SCORE.INTRA.VDW.0>
0

>  <SCORE.INTRA.norm>
0

>  <SCORE.RESTR>
0

>  <SCORE.RESTR.CAVITY>
0

>  <SCORE.RESTR.norm>
0

>  <SCORE.SYSTEM>
0

>  <SCORE.SYSTEM.CONST>
0

>  <SCORE.SYSTEM.DIHEDRAL>
0

>  <SCORE.SYSTEM.SOLV>
0

>  <SCORE.SYSTEM.norm>
0

>  <SCORE.heavy>
10

>  <SCORE.norm>
-0.877503

>  <RMSD>
27.843

$$$$
ligand
 OpenBabel11021811513D
libRbt.so/2013.1/901 2013/11/27
 10 11  0  0  0  0  0  0  0  0999 V2000
   -7.5627   31.4791   -6.2316 N   0  0  0  0  0  0  0  0  0  0  0  0
   -7.5273   30.6780   -5.1595 C   0  0  0  0  0  0  0  0  0  0  0  0
   -7.2692   29.3728   -5.0977 N   0  0  0  0  0  0  0  0  0  0  0  0
   -7.0239   28.8767   -6.3204 C   0  0  0  0  0  0  0  0  0  0  0  0
   -7.0255   29.5725   -7.5135 C   0  0  0  0  0  0  0  0  0  0  0  0
   -7.3117   30.9507   -7.4467 C   0  0  0  0  0  0  0  0  0  0  0  0
   -7.3469   31.7483   -8.5199 N   0  0  0  0  0  0  0  0  0  0  0  0
   -6.7287   28.7319   -8.5730 N   0  0  0  0  0  0  0  0  0  0  0  0
   -6.5580   27.5604   -8.0059 C   0  0  0  0  0  0  0  0  0  0  0  0
   -6.7213   27.5746   -6.6487 N   0  0  0  0  0  0  0  0  0  0  0  0
  1  2  2  0  0  0  0
  1  6  1  0  0  0  0
  2  3  1  0  0  0  0
  3  4  2  0  0  0  0
  4  5  1  0  0  0  0
  4 10  1  0  0  0  0
  5  6  2  0  0  0  0
  5  8  1  0  0  0  0
  6  7  1  0  0  0  0
  8  9  1  0  0  0  0
  9 10  2  0  0  0  0
M  END
>  <CHROM.1>
-7.10891928,29.66421583,-6.95648183,2.80767404,1.34019239,-1.04345031

>  <Name>
ligand

>  <RI>
0

>  <Rbt.Current_Directory>
/home/itssahil/PROJECTS/Mol_Feturizer/New_Systems/rnas/4TZY

>  <Rbt.Executable>
rbdock ($Id: //depot/dev/client3/rdock/2013.1/src/exe/rbdock.cxx#4 $)

>  <Rbt.Library>
libRbt.so (2013.1, Build901 2013/11/27)

>  <Rbt.Parameter_File>
/export/apps/rDock/src/rDock_2013.1_src/data/scripts/dock_solv.prm

>  <Rbt.Receptor>
prm/blind_docking_40.prm

>  <SCORE>
-8.7518

>  <SCORE.INTER>
-8.7518

>  <SCORE.INTER.CONST>
1

>  <SCORE.INTER.POLAR>
0

>  <SCORE.INTER.ROT>
0

>  <SCORE.INTER.SOLV>
8.91942

>  <SCORE.INTER.VDW>
-12.4077

>  <SCORE.INTER.norm>
-0.87518

>  <SCORE.INTRA>
0

>  <SCORE.INTRA.DIHEDRAL>
0

>  <SCORE.INTRA.DIHEDRAL.0>
0

>  <SCORE.INTRA.POLAR>
0

>  <SCORE.INTRA.POLAR.0>
0

>  <SCORE.INTRA.REPUL>
0

>  <SCORE.INTRA.REPUL.0>
0

>  <SCORE.INTRA.SOLV>
0

>  <SCORE.INTRA.SOLV.lig_0>
-23.8941

>  <SCORE.INTRA.VDW>
0

>  <SCORE.INTRA.VDW.0>
0

>  <SCORE.INTRA.norm>
0

>  <SCORE.RESTR>
0

>  <SCORE.RESTR.CAVITY>
0

>  <SCORE.RESTR.norm>
0

>  <SCORE.SYSTEM>
0

>  <SCORE.SYSTEM.CONST>
0

>  <SCORE.SYSTEM.DIHEDRAL>
0

>  <SCORE.SYSTEM.SOLV>
0

>  <SCORE.SYSTEM.norm>
0

>  <SCORE.heavy>
10

>  <SCORE.norm>
-0.87518

>  <RMSD>
27.845

$$$$
ligand
 OpenBabel11021811513D
libRbt.so/2013.1/901 2013/11/27
 10 11  0  0  0  0  0  0  0  0999 V2000
   -7.5777   31.4702   -6.2157 N   0  0  0  0  0  0  0  0  0  0  0  0
   -7.5234   30.6701   -5.1436 C   0  0  0  0  0  0  0  0  0  0  0  0
   -7.2508   29.3678   -5.0837 N   0  0  0  0  0  0  0  0  0  0  0  0
   -7.0120   28.8737   -6.3085 C   0  0  0  0  0  0  0  0  0  0  0  0
   -7.0325   29.5688   -7.5018 C   0  0  0  0  0  0  0  0  0  0  0  0
   -7.3329   30.9438   -7.4330 C   0  0  0  0  0  0  0  0  0  0  0  0
   -7.3869   31.7404   -8.5061 N   0  0  0  0  0  0  0  0  0  0  0  0
   -6.7371   28.7308   -8.5638 N   0  0  0  0  0  0  0  0  0  0  0  0
   -6.5483   27.5615   -7.9979 C   0  0  0  0  0  0  0  0  0  0  0  0
   -6.6986   27.5747   -6.6392 N   0  0  0  0  0  0  0  0  0  0  0  0
  1  2  2  0  0  0  0
  1  6  1  0  0  0  0
  2  3  1  0  0  0  0
  3  4  2  0  0  0  0
  4  5  1  0  0  0  0
  4 10  1  0  0  0  0
  5  6  2  0  0  0  0
  5  8  1  0  0  0  0
  6  7  1  0  0  0  0
  8  9  1  0  0  0  0
  9 10  2  0  0  0  0
M  END
>  <CHROM.1>
-7.11158585,29.65988070,-6.94410224,2.86663675,1.33539584,-1.10132375

>  <Name>
ligand

>  <RI>
0

>  <Rbt.Current_Directory>
/home/itssahil/PROJECTS/Mol_Feturizer/New_Systems/rnas/4TZY

>  <Rbt.Executable>
rbdock ($Id: //depot/dev/client3/rdock/2013.1/src/exe/rbdock.cxx#4 $)

>  <Rbt.Library>
libRbt.so (2013.1, Build901 2013/11/27)

>  <Rbt.Parameter_File>
/export/apps/rDock/src/rDock_2013.1_src/data/scripts/dock_solv.prm

>  <Rbt.Receptor>
prm/blind_docking_40.prm

>  <SCORE>
-8.77288

>  <SCORE.INTER>
-8.77288

>  <SCORE.INTER.CONST>
1

>  <SCORE.INTER.POLAR>
0

>  <SCORE.INTER.ROT>
0

>  <SCORE.INTER.SOLV>
8.79408

>  <SCORE.INTER.VDW>
-12.3799

>  <SCORE.INTER.norm>
-0.877288

>  <SCORE.INTRA>
0

>  <SCORE.INTRA.DIHEDRAL>
0

>  <SCORE.INTRA.DIHEDRAL.0>
0

>  <SCORE.INTRA.POLAR>
0

>  <SCORE.INTRA.POLAR.0>
0

>  <SCORE.INTRA.REPUL>
0

>  <SCORE.INTRA.REPUL.0>
0

>  <SCORE.INTRA.SOLV>
0

>  <SCORE.INTRA.SOLV.lig_0>
-23.8941

>  <SCORE.INTRA.VDW>
0

>  <SCORE.INTRA.VDW.0>
0

>  <SCORE.INTRA.norm>
0

>  <SCORE.RESTR>
0

>  <SCORE.RESTR.CAVITY>
0

>  <SCORE.RESTR.norm>
0

>  <SCORE.SYSTEM>
0

>  <SCORE.SYSTEM.CONST>
0

>  <SCORE.SYSTEM.DIHEDRAL>
0

>  <SCORE.SYSTEM.SOLV>
0

>  <SCORE.SYSTEM.norm>
0

>  <SCORE.heavy>
10

>  <SCORE.norm>
-0.877288

>  <RMSD>
27.845

$$$$
