@<TRIPOS>MOLECULE
4tzy_rdock.pdb
 1502 1677 0 0 0
SMALL
GASTEIGER

@<TRIPOS>ATOM
      1  P        -48.2770    8.2110  -12.3130 P.3    13  G13         0.1280
      2  C5'      -49.2870    7.5610   -9.9840 C.3    13  G13         0.1795
      3  O5'      -48.5330    7.1810  -11.1250 O.3    13  G13        -0.3259
      4  C4'      -49.1660    6.5360   -8.8880 C.3    13  G13         0.1772
      5  O4'      -49.8750    5.3290   -9.2690 O.3    13  G13        -0.3307
      6  C3'      -47.7550    6.0580   -8.5870 C.3    13  G13         0.1860
      7  O3'      -47.0460    6.9430   -7.7380 O.3    13  G13        -0.3112
      8  C2'      -47.9870    4.6830   -7.9760 C.3    13  G13         0.2309
      9  O2'      -48.3620    4.7940   -6.6120 O.3    13  G13        -0.2156
     10  C1'      -49.1970    4.1950   -8.7720 C.3    13  G13         0.2408
     11  N1       -47.3120   -0.3050  -10.1320 N.ar   13  G13        -0.1709
     12  C2       -47.5550    0.2000   -8.8800 C.ar   13  G13         0.2606
     13  N2       -47.2540   -0.6030   -7.8500 N.pl3  13  G13        -0.0859
     14  N3       -48.0550    1.4030   -8.6600 N.ar   13  G13        -0.1918
     15  C4       -48.2950    2.0670   -9.8100 C.ar   13  G13         0.1723
     16  C5       -48.0900    1.6560  -11.1090 C.ar   13  G13         0.1748
     17  C6       -47.5520    0.3620  -11.3300 C.ar   13  G13         0.3023
     18  O6       -47.2940   -0.1950  -12.4030 O.2    13  G13        -0.2633
     19  N7       -48.4710    2.6470  -12.0040 N.ar   13  G13        -0.2173
     20  C8       -48.8920    3.6240  -11.2460 C.ar   13  G13         0.1817
     21  N9       -48.8090    3.3360   -9.9060 N.ar   13  G13        -0.2693
     22  OP1      -47.5230    9.3730  -11.7750 O.3    13  G13        -0.1955
     23  OP2      -47.7340    7.4620  -13.4750 O.co2  13  G13        -0.7863
     24  P        -45.4520    7.0880   -7.8730 P.3    14  G14         0.2141
     25  C5'      -45.0190    5.5880   -5.7650 C.3    14  G14         0.1812
     26  O5'      -44.8820    5.7790   -7.1650 O.3    14  G14        -0.3114
     27  C4'      -44.5270    4.2260   -5.3380 C.3    14  G14         0.1773
     28  O4'      -45.3730    3.1950   -5.9110 O.3    14  G14        -0.3307
     29  C3'      -43.1270    3.8460   -5.7940 C.3    14  G14         0.1860
     30  O3'      -42.1030    4.4040   -4.9910 O.3    14  G14        -0.3112
     31  C2'      -43.1700    2.3260   -5.7590 C.3    14  G14         0.2309
     32  O2'      -43.0450    1.8500   -4.4270 O.3    14  G14        -0.2156
     33  C1'      -44.5970    2.0600   -6.2350 C.3    14  G14         0.2408
     34  N1       -43.5460   -1.0810  -10.0930 N.ar   14  G14        -0.1709
     35  C2       -43.3370   -1.2530   -8.7460 C.ar   14  G14         0.2606
     36  N2       -42.7740   -2.4130   -8.3780 N.pl3  14  G14        -0.0859
     37  N3       -43.6560   -0.3550   -7.8300 N.ar   14  G14        -0.1918
     38  C4       -44.2110    0.7480   -8.3780 C.ar   14  G14         0.1723
     39  C5       -44.4620    1.0180   -9.7070 C.ar   14  G14         0.1748
     40  C6       -44.1160    0.0450  -10.6790 C.ar   14  G14         0.3023
     41  O6       -44.2590    0.0970  -11.9060 O.2    14  G14        -0.2633
     42  N7       -45.0450    2.2690   -9.8540 N.ar   14  G14        -0.2173
     43  C8       -45.1360    2.7300   -8.6370 C.ar   14  G14         0.1817
     44  N9       -44.6510    1.8560   -7.6940 N.ar   14  G14        -0.2693
     45  OP1      -45.0300    8.2630   -7.0700 O.3    14  G14        -0.4373
     46  OP2      -45.1080    7.0190   -9.3150 O.co2  14  G14        -0.5172
     47  P        -40.6990    4.8140   -5.6580 P.3    15  G15         0.2141
     48  C5'      -39.6020    2.5160   -5.0390 C.3    15  G15         0.1812
     49  O5'      -40.0320    3.4200   -6.0450 O.3    15  G15        -0.3114
     50  C4'      -39.1320    1.2090   -5.6270 C.3    15  G15         0.1773
     51  O4'      -40.2220    0.5580   -6.3310 O.3    15  G15        -0.3307
     52  C3'      -38.0310    1.2950   -6.6720 C.3    15  G15         0.1860
     53  O3'      -36.7400    1.4800   -6.1190 O.3    15  G15        -0.3112
     54  C2'      -38.1940   -0.0190   -7.4220 C.3    15  G15         0.2309
     55  O2'      -37.6500   -1.0960   -6.6740 O.3    15  G15        -0.2156
     56  C1'      -39.7150   -0.1640   -7.4360 C.3    15  G15         0.2408
     57  N1       -40.5520   -1.0000  -12.3660 N.ar   15  G15        -0.1709
     58  C2       -39.9370   -1.7970  -11.4310 C.ar   15  G15         0.2606
     59  N2       -39.4790   -2.9810  -11.8630 N.pl3  15  G15        -0.0859
     60  N3       -39.7810   -1.4580  -10.1630 N.ar   15  G15        -0.1918
     61  C4       -40.2980   -0.2390   -9.9000 C.ar   15  G15         0.1723
     62  C5       -40.9300    0.6350  -10.7570 C.ar   15  G15         0.1748
     63  C6       -41.0920    0.2590  -12.1170 C.ar   15  G15         0.3023
     64  O6       -41.6270    0.8930  -13.0360 O.2    15  G15        -0.2633
     65  N7       -41.3150    1.7870  -10.0840 N.ar   15  G15        -0.2173
     66  C8       -40.9170    1.5970   -8.8550 C.ar   15  G15         0.1817
     67  N9       -40.2970    0.3840   -8.6750 N.ar   15  G15        -0.2693
     68  OP1      -39.8580    5.4540   -4.6150 O.3    15  G15        -0.4373
     69  OP2      -40.9920    5.5420   -6.9180 O.co2  15  G15        -0.5172
     70  P        -35.6320    2.3080   -6.9390 P.3    16  A16         0.2141
     71  C5'      -34.5340    0.0840   -7.7810 C.3    16  A16         0.1812
     72  O5'      -35.1790    1.3090   -8.0950 O.3    16  A16        -0.3114
     73  C4'      -34.4480   -0.8300   -8.9790 C.3    16  A16         0.1773
     74  O4'      -35.7790   -1.1510   -9.4600 O.3    16  A16        -0.3307
     75  C3'      -33.7450   -0.2770  -10.2070 C.3    16  A16         0.1860
     76  O3'      -32.3310   -0.3120  -10.1060 O.3    16  A16        -0.3112
     77  C2'      -34.3020   -1.1530  -11.3200 C.3    16  A16         0.2309
     78  O2'      -33.6740   -2.4270  -11.3180 O.3    16  A16        -0.2156
     79  C1'      -35.7500   -1.3300  -10.8620 C.3    16  A16         0.2408
     80  N1       -38.2270    0.0040  -15.1630 N.ar   16  A16        -0.2040
     81  C2       -37.4350   -1.0320  -14.8610 C.ar   16  A16         0.2016
     82  N3       -36.8220   -1.3160  -13.7140 N.ar   16  A16        -0.2048
     83  C4       -37.0940   -0.3800  -12.7880 C.ar   16  A16         0.1692
     84  C5       -37.8880    0.7400  -12.9460 C.ar   16  A16         0.1518
     85  C6       -38.4800    0.9260  -14.2090 C.ar   16  A16         0.1919
     86  N6       -39.2710    1.9570  -14.5130 N.pl3  16  A16        -0.1054
     87  N7       -37.9370    1.4760  -11.7700 N.ar   16  A16        -0.2193
     88  C8       -37.1820    0.7960  -10.9400 C.ar   16  A16         0.1816
     89  N9       -36.6430   -0.3400  -11.4910 N.ar   16  A16        -0.2693
     90  OP1      -34.4710    2.5380   -6.0420 O.3    16  A16        -0.4373
     91  OP2      -36.3080    3.4660   -7.5760 O.co2  16  A16        -0.5172
     92  P        -31.4400    0.8110  -10.8340 P.3    17  A17         0.2141
     93  C5'      -30.8800   -0.9070  -12.7290 C.3    17  A17         0.1812
     94  O5'      -31.4170    0.3550  -12.3600 O.3    17  A17        -0.3114
     95  C4'      -31.2700   -1.2910  -14.1340 C.3    17  A17         0.1773
     96  O4'      -32.7110   -1.4310  -14.2310 O.3    17  A17        -0.3307
     97  C3'      -30.9290   -0.2870  -15.2230 C.3    17  A17         0.1860
     98  O3'      -29.5710   -0.3350  -15.6200 O.3    17  A17        -0.3112
     99  C2'      -31.9050   -0.6640  -16.3280 C.3    17  A17         0.2309
    100  O2'      -31.4600   -1.8210  -17.0200 O.3    17  A17        -0.2156
    101  C1'      -33.1460   -1.0330  -15.5160 C.3    17  A17         0.2408
    102  N1       -36.6410    1.9190  -17.8670 N.ar   17  A17        -0.2040
    103  C2       -35.9270    0.8630  -18.2790 C.ar   17  A17         0.2016
    104  N3       -35.0330    0.1410  -17.6080 N.ar   17  A17        -0.2048
    105  C4       -34.8890    0.6060  -16.3550 C.ar   17  A17         0.1692
    106  C5       -35.5510    1.6780  -15.7860 C.ar   17  A17         0.1518
    107  C6       -36.4730    2.3600  -16.6000 C.ar   17  A17         0.1919
    108  N6       -37.1860    3.4120  -16.1920 N.pl3  17  A17        -0.1054
    109  N7       -35.1450    1.8620  -14.4710 N.ar   17  A17        -0.2193
    110  C8       -34.2620    0.9120  -14.2760 C.ar   17  A17         0.1816
    111  N9       -34.0620    0.1140  -15.3740 N.ar   17  A17        -0.2693
    112  OP1      -30.0570    0.7050  -10.3040 O.3    17  A17        -0.4373
    113  OP2      -32.1590    2.1080  -10.7520 O.co2  17  A17        -0.5172
    114  P        -28.8230    1.0090  -16.0840 P.3    18  G18         0.2141
    115  C5'      -29.2530    0.2750  -18.5640 C.3    18  G18         0.1812
    116  O5'      -29.3750    1.2680  -17.5560 O.3    18  G18        -0.3114
    117  C4'      -30.1550    0.5590  -19.7400 C.3    18  G18         0.1773
    118  O4'      -31.5460    0.5120  -19.3270 O.3    18  G18        -0.3307
    119  C3'      -30.0110    1.9290  -20.3800 C.3    18  G18         0.1860
    120  O3'      -28.9000    2.0160  -21.2540 O.3    18  G18        -0.3112
    121  C2'      -31.3530    2.1110  -21.0760 C.3    18  G18         0.2309
    122  O2'      -31.3920    1.3760  -22.2900 O.3    18  G18        -0.2156
    123  C1'      -32.3010    1.4420  -20.0780 C.3    18  G18         0.2408
    124  N1       -35.7130    5.1910  -19.5030 N.ar   18  G18        -0.1709
    125  C2       -35.4070    4.4580  -20.6230 C.ar   18  G18         0.2606
    126  N2       -36.0970    4.7620  -21.7320 N.pl3  18  G18        -0.0859
    127  N3       -34.4930    3.5000  -20.6520 N.ar   18  G18        -0.1918
    128  C4       -33.8980    3.3300  -19.4510 C.ar   18  G18         0.1723
    129  C5       -34.1330    4.0100  -18.2740 C.ar   18  G18         0.1748
    130  C6       -35.1150    5.0340  -18.2570 C.ar   18  G18         0.3023
    131  O6       -35.4660    5.7490  -17.3100 O.2    18  G18        -0.2633
    132  N7       -33.3130    3.5380  -17.2590 N.ar   18  G18        -0.2173
    133  C8       -32.6070    2.5960  -17.8250 C.ar   18  G18         0.1817
    134  N9       -32.9100    2.4170  -19.1530 N.ar   18  G18        -0.2693
    135  OP1      -27.3680    0.7240  -16.1770 O.2    18  G18        -0.5172
    136  OP2      -29.2980    2.1160  -15.2160 O.co2  18  G18        -0.4373
    137  P        -28.0820    3.3920  -21.3790 P.3    19  A19         0.2141
    138  C5'      -29.2690    3.7560  -23.6880 C.3    19  A19         0.1812
    139  O5'      -28.9430    4.2580  -22.4010 O.3    19  A19        -0.3114
    140  C4'      -30.4200    4.5140  -24.3000 C.3    19  A19         0.1773
    141  O4'      -31.6160    4.3240  -23.4990 O.3    19  A19        -0.3307
    142  C3'      -30.2630    6.0240  -24.3660 C.3    19  A19         0.1860
    143  O3'      -29.4630    6.4550  -25.4530 O.3    19  A19        -0.3112
    144  C2'      -31.7060    6.5060  -24.4370 C.3    19  A19         0.2309
    145  O2'      -32.2220    6.3560  -25.7520 O.3    19  A19        -0.2156
    146  C1'      -32.4040    5.4960  -23.5250 C.3    19  A19         0.2408
    147  N1       -35.0100    8.6610  -20.4200 N.ar   19  A19        -0.2040
    148  C2       -35.1130    8.3910  -21.7280 C.ar   19  A19         0.2016
    149  N3       -34.3960    7.5520  -22.4720 N.ar   19  A19        -0.2048
    150  C4       -33.4650    6.9340  -21.7250 C.ar   19  A19         0.1692
    151  C5       -33.2370    7.1030  -20.3720 C.ar   19  A19         0.1518
    152  C6       -34.0640    8.0210  -19.6980 C.ar   19  A19         0.1919
    153  N6       -33.9640    8.2930  -18.3950 N.pl3  19  A19        -0.1054
    154  N7       -32.1920    6.2950  -19.9470 N.ar   19  A19        -0.2193
    155  C8       -31.8190    5.6640  -21.0340 C.ar   19  A19         0.1816
    156  N9       -32.5480    6.0030  -22.1470 N.ar   19  A19        -0.2693
    157  OP1      -26.7710    3.0950  -22.0080 O.2    19  A19        -0.5172
    158  OP2      -28.1260    4.0730  -20.0590 O.co2  19  A19        -0.4373
    159  P        -28.5030    7.7320  -25.2850 P.3    20  U20         0.2141
    160  C5'      -30.2840    9.2080  -26.5140 C.3    20  U20         0.1812
    161  O5'      -29.4990    8.9710  -25.3560 O.3    20  U20        -0.3114
    162  C4'      -31.2470   10.3470  -26.3000 C.3    20  U20         0.1773
    163  O4'      -32.2760    9.9550  -25.3540 O.3    20  U20        -0.3307
    164  C3'      -30.6600   11.6100  -25.6930 C.3    20  U20         0.1860
    165  O3'      -29.9620   12.4130  -26.6270 O.3    20  U20        -0.3112
    166  C2'      -31.8870   12.2830  -25.0920 C.3    20  U20         0.2309
    167  O2'      -32.6600   12.9150  -26.1010 O.3    20  U20        -0.2156
    168  C1'      -32.6640   11.0710  -24.5780 C.3    20  U20         0.2420
    169  N1       -32.3640   10.7930  -23.1550 N.ar   20  U20        -0.2534
    170  C2       -33.0210   11.5610  -22.2150 C.ar   20  U20         0.3546
    171  O2       -33.8210   12.4290  -22.5160 O.2    20  U20        -0.2443
    172  N3       -32.7100   11.2770  -20.9090 N.ar   20  U20        -0.1530
    173  C4       -31.8240   10.3230  -20.4570 C.ar   20  U20         0.2846
    174  O4       -31.6540   10.1860  -19.2450 O.2    20  U20        -0.2650
    175  C5       -31.1820    9.5690  -21.4910 C.ar   20  U20         0.0814
    176  C6       -31.4660    9.8240  -22.7730 C.ar   20  U20         0.0870
    177  OP1      -27.6060    7.8040  -26.4650 O.2    20  U20        -0.5172
    178  OP2      -27.9270    7.6890  -23.9170 O.co2  20  U20        -0.4373
    179  P        -28.5980   13.1450  -26.1940 P.3    21  A21         0.2141
    180  C5'      -29.9310   15.3130  -25.5810 C.3    21  A21         0.1812
    181  O5'      -29.0750   14.2620  -25.1640 O.3    21  A21        -0.3114
    182  C4'      -30.2910   16.2260  -24.4380 C.3    21  A21         0.1773
    183  O4'      -31.1660   15.5450  -23.5050 O.3    21  A21        -0.3307
    184  C3'      -29.1430   16.7060  -23.5680 C.3    21  A21         0.1860
    185  O3'      -28.4090   17.7620  -24.1640 O.3    21  A21        -0.3112
    186  C2'      -29.8500   17.1060  -22.2760 C.3    21  A21         0.2309
    187  O2'      -30.4170   18.3990  -22.3920 O.3    21  A21        -0.2156
    188  C1'      -30.9920   16.0850  -22.2120 C.3    21  A21         0.2408
    189  N1       -31.9070   14.4580  -17.4420 N.ar   21  A21        -0.2040
    190  C2       -32.3030   15.5370  -18.1270 C.ar   21  A21         0.2016
    191  N3       -32.0160   15.8880  -19.3780 N.ar   21  A21        -0.2048
    192  C4       -31.2140   14.9770  -19.9600 C.ar   21  A21         0.1692
    193  C5       -30.7270   13.8170  -19.3920 C.ar   21  A21         0.1518
    194  C6       -31.1030   13.5620  -18.0590 C.ar   21  A21         0.1919
    195  N6       -30.7130   12.4870  -17.3720 N.pl3  21  A21        -0.1054
    196  N7       -29.9330   13.1280  -20.3010 N.ar   21  A21        -0.2193
    197  C8       -29.9610   13.8740  -21.3810 C.ar   21  A21         0.1816
    198  N9       -30.7260   15.0050  -21.2440 N.ar   21  A21        -0.2693
    199  OP1      -28.0430   13.8270  -27.3910 O.2    21  A21        -0.5172
    200  OP2      -27.7620   12.1710  -25.4470 O.co2  21  A21        -0.4373
    201  P        -26.8330   17.5990  -24.4400 P.3    22  U22         0.2141
    202  C5'      -24.9460   16.8900  -22.7510 C.3    22  U22         0.1812
    203  O5'      -26.1970   17.5280  -22.9830 O.3    22  U22        -0.3114
    204  C4'      -24.7960   16.4850  -21.3050 C.3    22  U22         0.1773
    205  O4'      -24.9530   17.6640  -20.4700 O.3    22  U22        -0.3307
    206  C3'      -25.8250   15.4720  -20.8090 C.3    22  U22         0.1860
    207  O3'      -25.2350   14.6420  -19.8120 O.3    22  U22        -0.3112
    208  C2'      -26.8870   16.3580  -20.1680 C.3    22  U22         0.2309
    209  O2'      -27.6660   15.7160  -19.1810 O.3    22  U22        -0.2156
    210  C1'      -26.0400   17.4840  -19.5800 C.3    22  U22         0.2420
    211  N1       -26.7610   18.7590  -19.4850 N.ar   22  U22        -0.2534
    212  C2       -27.0180   19.2660  -18.2290 C.ar   22  U22         0.3546
    213  O2       -26.6680   18.7010  -17.2070 O.2    22  U22        -0.2443
    214  N3       -27.6990   20.4570  -18.2180 N.ar   22  U22        -0.1530
    215  C4       -28.1420   21.1710  -19.3150 C.ar   22  U22         0.2846
    216  O4       -28.7460   22.2310  -19.1470 O.2    22  U22        -0.2650
    217  C5       -27.8360   20.5760  -20.5790 C.ar   22  U22         0.0814
    218  C6       -27.1740   19.4170  -20.6190 C.ar   22  U22         0.0870
    219  OP1      -26.3490   18.8470  -25.0810 O.3    22  U22        -0.4373
    220  OP2      -26.6090   16.2910  -25.1070 O.co2  22  U22        -0.5172
    221  P        -24.4160   13.3270  -20.2380 P.3    23  A23         0.2141
    222  C5'      -22.5320   14.4240  -18.7990 C.3    23  A23         0.1812
    223  O5'      -22.8990   13.7350  -19.9830 O.3    23  A23        -0.3114
    224  C4'      -21.2310   15.1630  -18.9630 C.3    23  A23         0.1773
    225  O4'      -21.3010   16.0170  -20.1310 O.3    23  A23        -0.3307
    226  C3'      -20.8600   16.1100  -17.8320 C.3    23  A23         0.1860
    227  O3'      -20.2620   15.4510  -16.7260 O.3    23  A23        -0.3112
    228  C2'      -19.9310   17.1100  -18.5160 C.3    23  A23         0.2309
    229  O2'      -18.6120   16.5940  -18.6010 O.3    23  A23        -0.2156
    230  C1'      -20.5180   17.1740  -19.9300 C.3    23  A23         0.2408
    231  N1       -24.0860   20.6360  -18.2630 N.ar   23  A23        -0.2040
    232  C2       -23.5500   19.5700  -17.6590 C.ar   23  A23         0.2016
    233  N3       -22.6440   18.7120  -18.1180 N.ar   23  A23        -0.2048
    234  C4       -22.2580   19.0230  -19.3690 C.ar   23  A23         0.1692
    235  C5       -22.7260   20.0940  -20.1140 C.ar   23  A23         0.1518
    236  C6       -23.6870   20.9290  -19.5190 C.ar   23  A23         0.1919
    237  N6       -24.2210   21.9910  -20.1270 N.pl3  23  A23        -0.1054
    238  N7       -22.1300   20.1290  -21.3630 N.ar   23  A23        -0.2193
    239  C8       -21.3260   19.0980  -21.3490 C.ar   23  A23         0.1816
    240  N9       -21.3410   18.3780  -20.1790 N.ar   23  A23        -0.2693
    241  OP1      -24.6010   13.0930  -21.6940 O.2    23  A23        -0.5172
    242  OP2      -24.7690   12.2520  -19.2750 O.co2  23  A23        -0.4373
    243  P        -21.0940   15.1550  -15.3790 P.3    24  A24         0.2141
    244  C5'      -21.9640   17.6080  -14.9910 C.3    24  A24         0.1812
    245  O5'      -21.1060   16.5460  -14.5970 O.3    24  A24        -0.3114
    246  C4'      -22.7680   18.1380  -13.8320 C.3    24  A24         0.1773
    247  O4'      -23.7670   17.1670  -13.4410 O.3    24  A24        -0.3307
    248  C3'      -21.9980   18.4200  -12.5520 C.3    24  A24         0.1860
    249  O3'      -21.3600   19.6850  -12.5830 O.3    24  A24        -0.3112
    250  C2'      -23.0740   18.3220  -11.4770 C.3    24  A24         0.2309
    251  O2'      -23.7990   19.5390  -11.3820 O.3    24  A24        -0.2156
    252  C1'      -24.0040   17.2510  -12.0540 C.3    24  A24         0.2408
    253  N1       -24.4010   14.3810   -7.7950 N.ar   24  A24        -0.2040
    254  C2       -24.6650   15.6710   -8.0370 C.ar   24  A24         0.2016
    255  N3       -24.5370   16.3570   -9.1700 N.ar   24  A24        -0.2048
    256  C4       -24.0720   15.5660  -10.1530 C.ar   24  A24         0.1692
    257  C5       -23.7530   14.2230  -10.0580 C.ar   24  A24         0.1518
    258  C6       -23.9330   13.6150   -8.8040 C.ar   24  A24         0.1919
    259  N6       -23.6710   12.3290   -8.5640 N.pl3  24  A24        -0.1054
    260  N7       -23.3020   13.7350  -11.2760 N.ar   24  A24        -0.2193
    261  C8       -23.3570   14.7770  -12.0690 C.ar   24  A24         0.1816
    262  N9       -23.8030   15.9190  -11.4530 N.ar   24  A24        -0.2693
    263  OP1      -20.2940   14.1960  -14.5780 O.3    24  A24        -0.4373
    264  OP2      -22.4960   14.8100  -15.7240 O.co2  24  A24        -0.5172
    265  P        -19.8010   19.8290  -12.2330 P.3    25  U25         0.2141
    266  C5'      -18.7340   19.2810  -14.5630 C.3    25  U25         0.1812
    267  O5'      -19.1360   20.2590  -13.6150 O.3    25  U25        -0.3114
    268  C4'      -18.7950   19.8140  -15.9710 C.3    25  U25         0.1773
    269  O4'      -20.1770   19.9420  -16.3920 O.3    25  U25        -0.3307
    270  C3'      -18.2130   21.2020  -16.1850 C.3    25  U25         0.1860
    271  O3'      -16.8010   21.1990  -16.3040 O.3    25  U25        -0.3112
    272  C2'      -18.9340   21.6680  -17.4420 C.3    25  U25         0.2309
    273  O2'      -18.3690   21.0640  -18.5960 O.3    25  U25        -0.2156
    274  C1'      -20.3260   21.0740  -17.2240 C.3    25  U25         0.2420
    275  N1       -21.2410   22.0280  -16.5560 N.ar   25  U25        -0.2534
    276  C2       -21.7430   23.0860  -17.2920 C.ar   25  U25         0.3546
    277  O2       -21.4680   23.2760  -18.4630 O.2    25  U25        -0.2443
    278  N3       -22.5810   23.9260  -16.6020 N.ar   25  U25        -0.1530
    279  C4       -22.9670   23.8170  -15.2830 C.ar   25  U25         0.2846
    280  O4       -23.7310   24.6540  -14.8020 O.2    25  U25        -0.2650
    281  C5       -22.4110   22.6960  -14.5910 C.ar   25  U25         0.0814
    282  C6       -21.5900   21.8620  -15.2350 C.ar   25  U25         0.0870
    283  OP1      -19.2760   18.4890  -11.8680 O.2    25  U25        -0.5172
    284  OP2      -19.6540   20.9610  -11.2840 O.co2  25  U25        -0.4373
    285  P        -15.9340   22.4260  -15.7290 P.3    26  C26         0.2141
    286  C5'      -15.8140   23.4320  -18.1390 C.3    26  C26         0.1812
    287  O5'      -16.1820   23.5930  -16.7790 O.3    26  C26        -0.3114
    288  C4'      -16.4240   24.5070  -18.9980 C.3    26  C26         0.1773
    289  O4'      -17.8730   24.4100  -18.9470 O.3    26  C26        -0.3307
    290  C3'      -16.1430   25.9360  -18.5680 C.3    26  C26         0.1860
    291  O3'      -14.8640   26.4040  -18.9580 O.3    26  C26        -0.3112
    292  C2'      -17.2990   26.6980  -19.1980 C.3    26  C26         0.2309
    293  O2'      -17.0840   26.8700  -20.5920 O.3    26  C26        -0.2156
    294  C1'      -18.4420   25.7020  -19.0110 C.3    26  C26         0.2420
    295  N1       -19.1970   25.9560  -17.7610 N.ar   26  C26        -0.2535
    296  C2       -20.1020   27.0220  -17.7320 C.ar   26  C26         0.3532
    297  O2       -20.2450   27.7190  -18.7490 O.2    26  C26        -0.2443
    298  N3       -20.8000   27.2730  -16.6010 N.ar   26  C26        -0.1739
    299  C4       -20.6230   26.5070  -15.5250 C.ar   26  C26         0.1759
    300  N4       -21.3360   26.7960  -14.4340 N.pl3  26  C26        -0.1070
    301  C5       -19.7090   25.4130  -15.5240 C.ar   26  C26         0.0566
    302  C6       -19.0240   25.1770  -16.6510 C.ar   26  C26         0.0850
    303  OP1      -14.5010   22.0520  -15.8120 O.2    26  C26        -0.5172
    304  OP2      -16.5120   22.8530  -14.4300 O.co2  26  C26        -0.4373
    305  P        -14.1380   27.5510  -18.0960 P.3    27  C27         0.2141
    306  C5'      -14.9160   29.2880  -19.9000 C.3    27  C27         0.1812
    307  O5'      -14.8750   28.8910  -18.5380 O.3    27  C27        -0.3114
    308  C4'      -15.8330   30.4670  -20.0990 C.3    27  C27         0.1773
    309  O4'      -17.2030   30.0900  -19.7910 O.3    27  C27        -0.3307
    310  C3'      -15.5770   31.6670  -19.2040 C.3    27  C27         0.1860
    311  O3'      -14.5010   32.4730  -19.6480 O.3    27  C27        -0.3112
    312  C2'      -16.9240   32.3770  -19.2130 C.3    27  C27         0.2309
    313  O2'      -17.0980   33.1070  -20.4180 O.3    27  C27        -0.2156
    314  C1'      -17.8870   31.1900  -19.2270 C.3    27  C27         0.2420
    315  N1       -18.3430   30.8270  -17.8640 N.ar   27  C27        -0.2535
    316  C2       -19.3060   31.6260  -17.2360 C.ar   27  C27         0.3532
    317  O2       -19.7540   32.6210  -17.8290 O.2    27  C27        -0.2443
    318  N3       -19.7280   31.3010  -15.9920 N.ar   27  C27        -0.1739
    319  C4       -19.2300   30.2290  -15.3750 C.ar   27  C27         0.1759
    320  N4       -19.6770   29.9490  -14.1480 N.pl3  27  C27        -0.1070
    321  C5       -18.2500   29.3970  -15.9900 C.ar   27  C27         0.0566
    322  C6       -17.8410   29.7290  -17.2210 C.ar   27  C27         0.0850
    323  OP1      -12.7190   27.6370  -18.5260 O.2    27  C27        -0.5172
    324  OP2      -14.4680   27.3210  -16.6670 O.co2  27  C27        -0.4373
    325  P        -13.5300   33.1800  -18.5790 P.3    28  U28         0.2141
    326  C5'      -14.9780   35.3330  -18.9280 C.3    28  U28         0.1812
    327  O5'      -14.3900   34.4030  -18.0340 O.3    28  U28        -0.3114
    328  C4'      -16.0300   36.1620  -18.2400 C.3    28  U28         0.1773
    329  O4'      -17.1570   35.3270  -17.8680 O.3    28  U28        -0.3307
    330  C3'      -15.6090   36.8100  -16.9340 C.3    28  U28         0.1860
    331  O3'      -14.8530   37.9910  -17.1290 O.3    28  U28        -0.3112
    332  C2'      -16.9420   37.0360  -16.2310 C.3    28  U28         0.2309
    333  O2'      -17.5980   38.1840  -16.7500 O.3    28  U28        -0.2156
    334  C1'      -17.7240   35.7930  -16.6620 C.3    28  U28         0.2420
    335  N1       -17.6520   34.7120  -15.6530 N.ar   28  U28        -0.2534
    336  C2       -18.4970   34.8020  -14.5660 C.ar   28  U28         0.3546
    337  O2       -19.2810   35.7210  -14.4150 O.2    28  U28        -0.2443
    338  N3       -18.3910   33.7760  -13.6600 N.ar   28  U28        -0.1530
    339  C4       -17.5420   32.6910  -13.7330 C.ar   28  U28         0.2846
    340  O4       -17.5650   31.8480  -12.8360 O.2    28  U28        -0.2650
    341  C5       -16.6980   32.6680  -14.8880 C.ar   28  U28         0.0814
    342  C6       -16.7810   33.6550  -15.7870 C.ar   28  U28         0.0870
    343  OP1      -12.3580   33.7320  -19.3050 O.2    28  U28        -0.5172
    344  OP2      -13.3160   32.2370  -17.4520 O.co2  28  U28        -0.4373
    345  P        -13.7100   38.3980  -16.0790 P.3    29  A29         0.2141
    346  C5'      -15.3390   40.3480  -15.4550 C.3    29  A29         0.1812
    347  O5'      -14.4760   39.3080  -15.0230 O.3    29  A29        -0.3114
    348  C4'      -16.2250   40.8220  -14.3330 C.3    29  A29         0.1773
    349  O4'      -17.2500   39.8310  -14.0620 O.3    29  A29        -0.3307
    350  C3'      -15.5360   41.0170  -12.9930 C.3    29  A29         0.1860
    351  O3'      -14.8520   42.2550  -12.9060 O.3    29  A29        -0.3112
    352  C2'      -16.6840   40.8740  -12.0040 C.3    29  A29         0.2309
    353  O2'      -17.4470   42.0700  -11.9470 O.3    29  A29        -0.2156
    354  C1'      -17.5300   39.7930  -12.6790 C.3    29  A29         0.2408
    355  N1       -18.2840   36.3210   -8.9350 N.ar   29  A29        -0.2040
    356  C2       -18.7490   37.5640   -9.1140 C.ar   29  A29         0.2016
    357  N3       -18.5120   38.4140  -10.1120 N.ar   29  A29        -0.2048
    358  C4       -17.6820   37.8670  -11.0180 C.ar   29  A29         0.1692
    359  C5       -17.1250   36.6030  -10.9720 C.ar   29  A29         0.1518
    360  C6       -17.4520   35.8000   -9.8650 C.ar   29  A29         0.1919
    361  N6       -16.9870   34.5600   -9.6860 N.pl3  29  A29        -0.1054
    362  N7       -16.3210   36.3820  -12.0810 N.ar   29  A29        -0.2193
    363  C8       -16.4080   37.4980  -12.7620 C.ar   29  A29         0.1816
    364  N9       -17.2150   38.4420  -12.1760 N.ar   29  A29        -0.2693
    365  OP1      -12.7220   39.2500  -16.7870 O.2    29  A29        -0.5172
    366  OP2      -13.2610   37.1680  -15.3770 O.co2  29  A29        -0.4373
    367  P        -13.5130   42.3800  -12.0260 P.3    30  A30         0.2141
    368  C5'      -13.6790   42.1660   -9.4200 C.3    30  A30         0.1812
    369  O5'      -14.0440   42.8570  -10.6030 O.3    30  A30        -0.3114
    370  C4'      -14.8600   41.9940   -8.5020 C.3    30  A30         0.1773
    371  O4'      -15.7030   40.9120   -8.9810 O.3    30  A30        -0.3307
    372  C3'      -14.5330   41.5940   -7.0750 C.3    30  A30         0.1860
    373  O3'      -14.1240   42.6830   -6.2690 O.3    30  A30        -0.3112
    374  C2'      -15.8260   40.9390   -6.6160 C.3    30  A30         0.2309
    375  O2'      -16.8060   41.9240   -6.3290 O.3    30  A30        -0.2156
    376  C1'      -16.2430   40.2020   -7.8850 C.3    30  A30         0.2408
    377  N1       -16.2580   35.5510   -5.6520 N.ar   30  A30        -0.2040
    378  C2       -16.9090   36.6860   -5.3690 C.ar   30  A30         0.2016
    379  N3       -16.8620   37.8610   -5.9920 N.ar   30  A30        -0.2048
    380  C4       -16.0160   37.8130   -7.0370 C.ar   30  A30         0.1692
    381  C5       -15.2760   36.7210   -7.4520 C.ar   30  A30         0.1518
    382  C6       -15.4160   35.5340   -6.7090 C.ar   30  A30         0.1919
    383  N6       -14.7650   34.4020   -6.9890 N.pl3  30  A30        -0.1054
    384  N7       -14.5130   37.0400   -8.5670 N.ar   30  A30        -0.2193
    385  C8       -14.8020   38.2980   -8.7980 C.ar   30  A30         0.1816
    386  N9       -15.7070   38.8280   -7.9130 N.ar   30  A30        -0.2693
    387  OP1      -12.6880   43.4720  -12.5980 O.2    30  A30        -0.5172
    388  OP2      -12.9290   41.0240  -11.8620 O.co2  30  A30        -0.4373
    389  P        -12.7930   42.5590   -5.3810 P.3    31  U31         0.2141
    390  C5'      -14.2560   41.5280   -3.4620 C.3    31  U31         0.1812
    391  O5'      -13.1390   41.4140   -4.3300 O.3    31  U31        -0.3114
    392  C4'      -14.4740   40.2520   -2.6910 C.3    31  U31         0.1773
    393  O4'      -14.9300   39.2050   -3.5880 O.3    31  U31        -0.3307
    394  C3'      -13.2340   39.6640   -2.0440 C.3    31  U31         0.1860
    395  O3'      -12.8900   40.2940   -0.8250 O.3    31  U31        -0.3112
    396  C2'      -13.5980   38.1930   -1.9030 C.3    31  U31         0.2309
    397  O2'      -14.4600   37.9900   -0.7930 O.3    31  U31        -0.2156
    398  C1'      -14.3950   37.9600   -3.1860 C.3    31  U31         0.2420
    399  N1       -13.5440   37.4310   -4.2770 N.ar   31  U31        -0.2534
    400  C2       -13.2430   36.0820   -4.2550 C.ar   31  U31         0.3546
    401  O2       -13.6460   35.3230   -3.3890 O.2    31  U31        -0.2443
    402  N3       -12.4510   35.6470   -5.2880 N.ar   31  U31        -0.1530
    403  C4       -11.9420   36.4090   -6.3180 C.ar   31  U31         0.2846
    404  O4       -11.2430   35.8710   -7.1780 O.2    31  U31        -0.2650
    405  C5       -12.2960   37.7940   -6.2690 C.ar   31  U31         0.0814
    406  C6       -13.0650   38.2460   -5.2760 C.ar   31  U31         0.0870
    407  OP1      -12.6040   43.8320   -4.6390 O.3    31  U31        -0.4373
    408  OP2      -11.7100   42.0440   -6.2580 O.co2  31  U31        -0.5172
    409  P        -11.3450   40.4700   -0.4330 P.3    32  G32         0.2141
    410  C5'      -11.6760   38.3800    1.0990 C.3    32  G32         0.1812
    411  O5'      -10.9290   39.0210    0.0780 O.3    32  G32        -0.3114
    412  C4'      -11.3020   36.9270    1.2400 C.3    32  G32         0.1773
    413  O4'      -11.7780   36.1680    0.0990 O.3    32  G32        -0.3307
    414  C3'       -9.8170   36.6180    1.2860 C.3    32  G32         0.1860
    415  O3'       -9.2380   36.8860    2.5490 O.3    32  G32        -0.3112
    416  C2'       -9.7820   35.1480    0.8890 C.3    32  G32         0.2309
    417  O2'      -10.1650   34.3280    1.9840 O.3    32  G32        -0.2156
    418  C1'      -10.8940   35.0950   -0.1610 C.3    32  G32         0.2408
    419  N1        -8.6110   32.7330   -4.0500 N.ar   32  G32        -0.1709
    420  C2        -8.9730   32.2420   -2.8210 C.ar   32  G32         0.2606
    421  N2        -8.6920   30.9500   -2.5930 N.pl3  32  G32        -0.0859
    422  N3        -9.5670   32.9630   -1.8830 N.ar   32  G32        -0.1918
    423  C4        -9.7730   34.2370   -2.2790 C.ar   32  G32         0.1723
    424  C5        -9.4500   34.8270   -3.4830 C.ar   32  G32         0.1748
    425  C6        -8.8130   34.0410   -4.4790 C.ar   32  G32         0.3023
    426  O6        -8.4470   34.3790   -5.6100 O.2    32  G32        -0.2633
    427  N7        -9.8340   36.1610   -3.4960 N.ar   32  G32        -0.2173
    428  C8       -10.3720   36.3550   -2.3220 C.ar   32  G32         0.1817
    429  N9       -10.3690   35.2290   -1.5340 N.ar   32  G32        -0.2693
    430  OP1      -11.2540   41.4110    0.7140 O.3    32  G32        -0.4373
    431  OP2      -10.5960   40.7620   -1.6820 O.co2  32  G32        -0.5172
    432  P         -7.6410   36.8950    2.7190 P.3    33  A33         0.2141
    433  C5'       -5.9850   34.8670    2.5550 C.3    33  A33         0.1812
    434  O5'       -7.2780   35.3540    2.8750 O.3    33  A33        -0.3114
    435  C4'       -5.9710   33.3610    2.5280 C.3    33  A33         0.1773
    436  O4'       -6.8210   32.8760    1.4570 O.3    33  A33        -0.3307
    437  C3'       -4.6270   32.7100    2.2550 C.3    33  A33         0.1860
    438  O3'       -3.8070   32.6530    3.4090 O.3    33  A33        -0.3112
    439  C2'       -5.0280   31.3400    1.7240 C.3    33  A33         0.2309
    440  O2'       -5.3940   30.4790    2.7910 O.3    33  A33        -0.2156
    441  C1'       -6.2890   31.6800    0.9280 C.3    33  A33         0.2408
    442  N1        -4.6710   29.4780   -3.4430 N.ar   33  A33        -0.2040
    443  C2        -4.8310   29.0070   -2.2000 C.ar   33  A33         0.2016
    444  N3        -5.2610   29.6350   -1.1080 N.ar   33  A33        -0.2048
    445  C4        -5.5480   30.9190   -1.3800 C.ar   33  A33         0.1692
    446  C5        -5.4340   31.5500   -2.6060 C.ar   33  A33         0.1518
    447  C6        -4.9740   30.7720   -3.6850 C.ar   33  A33         0.1919
    448  N6        -4.8100   31.2430   -4.9230 N.pl3  33  A33        -0.1054
    449  N7        -5.8170   32.8810   -2.5100 N.ar   33  A33        -0.2193
    450  C8        -6.1490   33.0230   -1.2490 C.ar   33  A33         0.1816
    451  N9        -6.0070   31.8760   -0.5070 N.ar   33  A33        -0.2693
    452  OP1       -7.3240   37.5730    4.0020 O.3    33  A33        -0.4373
    453  OP2       -7.0340   37.3890    1.4580 O.co2  33  A33        -0.5172
    454  P         -2.2340   32.9630    3.3090 P.3    34  U34         0.2141
    455  C5'       -1.9660   30.3580    3.2760 C.3    34  U34         0.1812
    456  O5'       -1.6170   31.6200    2.7200 O.3    34  U34        -0.3114
    457  C4'       -1.6380   29.2210    2.3410 C.3    34  U34         0.1773
    458  O4'       -2.2830   29.4500    1.0560 O.3    34  U34        -0.3307
    459  C3'       -0.1500   29.0300    2.0500 C.3    34  U34         0.1860
    460  O3'        0.1510   27.6410    1.9660 O.3    34  U34        -0.3112
    461  C2'        0.0220   29.6800    0.6810 C.3    34  U34         0.2309
    462  O2'        1.0960   29.1700   -0.0790 O.3    34  U34        -0.2156
    463  C1'       -1.3210   29.3870    0.0220 C.3    34  U34         0.2420
    464  N1        -1.6750   30.3670   -1.0120 N.ar   34  U34        -0.2534
    465  C2        -1.6130   29.9610   -2.3300 C.ar   34  U34         0.3546
    466  O2        -1.3050   28.8280   -2.6610 O.2    34  U34        -0.2443
    467  N3        -1.9350   30.9310   -3.2460 N.ar   34  U34        -0.1530
    468  C4        -2.2940   32.2370   -2.9810 C.ar   34  U34         0.2846
    469  O4        -2.5590   32.9910   -3.9180 O.2    34  U34        -0.2650
    470  C5        -2.3290   32.5780   -1.5920 C.ar   34  U34         0.0814
    471  C6        -2.0200   31.6540   -0.6780 C.ar   34  U34         0.0870
    472  OP1       -1.7240   33.1340    4.6930 O.3    34  U34        -0.4373
    473  OP2       -2.0190   34.0410    2.3110 O.co2  34  U34        -0.5172
    474  P          1.1190   26.9750    3.0600 P.3    35  A35         0.2141
    475  C5'       -0.2580   24.7430    3.2130 C.3    35  A35         0.1812
    476  O5'        0.9390   25.4120    2.8300 O.3    35  A35        -0.3114
    477  C4'       -0.1900   23.2690    2.8990 C.3    35  A35         0.1773
    478  O4'       -0.0580   23.1010    1.4620 O.3    35  A35        -0.3307
    479  C3'        0.9890   22.5300    3.5240 C.3    35  A35         0.1860
    480  O3'        0.6080   21.1860    3.8130 O.3    35  A35        -0.3112
    481  C2'        2.0270   22.5440    2.4050 C.3    35  A35         0.2309
    482  O2'        2.9770   21.5010    2.4730 O.3    35  A35        -0.2156
    483  C1'        1.1500   22.4270    1.1610 C.3    35  A35         0.2408
    484  N1         4.1700   21.8760   -2.9920 N.ar   35  A35        -0.2040
    485  C2         3.8390   21.0320   -2.0060 C.ar   35  A35         0.2016
    486  N3         3.0500   21.2330   -0.9510 N.ar   35  A35        -0.2048
    487  C4         2.5570   22.4830   -0.9590 C.ar   35  A35         0.1692
    488  C5         2.8070   23.4650   -1.9020 C.ar   35  A35         0.1518
    489  C6         3.6600   23.1270   -2.9680 C.ar   35  A35         0.1919
    490  N6         3.9870   23.9690   -3.9510 N.pl3  35  A35        -0.1054
    491  N7         2.1320   24.6350   -1.5830 N.ar   35  A35        -0.2193
    492  C8         1.5020   24.3390   -0.4730 C.ar   35  A35         0.1816
    493  N9         1.7210   23.0580   -0.0320 N.ar   35  A35        -0.2693
    494  OP1        0.5870   27.3130    4.4060 O.3    35  A35        -0.4373
    495  OP2        2.5190   27.3330    2.7160 O.co2  35  A35        -0.5172
    496  P          0.1410   20.7790    5.2960 P.3    36  U36         0.2141
    497  C5'       -2.4210   21.0990    5.7710 C.3    36  U36         0.1812
    498  O5'       -1.1400   21.6870    5.5680 O.3    36  U36        -0.3114
    499  C4'       -3.2490   21.8690    6.7720 C.3    36  U36         0.1773
    500  O4'       -2.6270   21.7830    8.0830 O.3    36  U36        -0.3307
    501  C3'       -3.4240   23.3590    6.4780 C.3    36  U36         0.1860
    502  O3'       -4.7200   23.7760    6.9060 O.3    36  U36        -0.3112
    503  C2'       -2.3710   24.0030    7.3730 C.3    36  U36         0.2309
    504  O2'       -2.6390   25.3450    7.7200 O.3    36  U36        -0.2156
    505  C1'       -2.4060   23.0840    8.5910 C.3    36  U36         0.2420
    506  N1        -1.1600   23.0690    9.3710 N.ar   36  U36        -0.2534
    507  C2        -1.2620   23.2490   10.7370 C.ar   36  U36         0.3546
    508  O2        -2.3290   23.4120   11.3030 O.2    36  U36        -0.2443
    509  N3        -0.0690   23.2240   11.4170 N.ar   36  U36        -0.1530
    510  C4         1.1880   23.0460   10.8770 C.ar   36  U36         0.2846
    511  O4         2.1710   23.0500   11.6210 O.2    36  U36        -0.2650
    512  C5         1.2090   22.8690    9.4570 C.ar   36  U36         0.0814
    513  C6         0.0620   22.8870    8.7690 C.ar   36  U36         0.0870
    514  OP1        1.2020   21.2010    6.2440 O.3    36  U36        -0.4373
    515  OP2       -0.3000   19.3620    5.2650 O.co2  36  U36        -0.5172
    516  P         -5.9500   23.7910    5.8730 P.3    37  G37         0.2141
    517  C5'       -5.4610   26.2000    4.9470 C.3    37  G37         0.1812
    518  O5'       -5.4820   24.7960    4.7290 O.3    37  G37        -0.3114
    519  C4'       -5.3480   26.9540    3.6460 C.3    37  G37         0.1773
    520  O4'       -4.0540   26.6970    3.0460 O.3    37  G37        -0.3307
    521  C3'       -6.3470   26.5600    2.5710 C.3    37  G37         0.1860
    522  O3'       -7.5960   27.2100    2.7270 O.3    37  G37        -0.3112
    523  C2'       -5.6280   26.9300    1.2810 C.3    37  G37         0.2309
    524  O2'       -5.7550   28.3190    1.0150 O.3    37  G37        -0.2156
    525  C1'       -4.1720   26.6340    1.6420 C.3    37  G37         0.2408
    526  N1        -1.6170   23.9470   -1.8510 N.ar   37  G37        -0.1709
    527  C2        -1.8240   25.3020   -1.7760 C.ar   37  G37         0.2606
    528  N2        -1.2810   26.0380   -2.7570 N.pl3  37  G37        -0.0859
    529  N3        -2.5140   25.8900   -0.8110 N.ar   37  G37        -0.1918
    530  C4        -2.9890   25.0000    0.0870 C.ar   37  G37         0.1723
    531  C5        -2.8360   23.6310    0.1020 C.ar   37  G37         0.1748
    532  C6        -2.0930   23.0130   -0.9370 C.ar   37  G37         0.3023
    533  O6        -1.8480   21.8110   -1.1000 O.2    37  G37        -0.2633
    534  N7        -3.4750   23.0750    1.2000 N.ar   37  G37        -0.2173
    535  C8        -3.9950   24.0960    1.8230 C.ar   37  G37         0.1817
    536  N9        -3.7400   25.2940    1.2010 N.ar   37  G37        -0.2693
    537  OP1       -7.1200   24.3850    6.5680 O.3    37  G37        -0.4373
    538  OP2       -6.0710   22.4380    5.2720 O.co2  37  G37        -0.5172
    539  P         -8.9490   26.4800    2.2660 P.3    38  G38         0.2141
    540  C5'       -8.9470   27.7090   -0.0490 C.3    38  G38         0.1812
    541  O5'       -8.8720   26.4910    0.6750 O.3    38  G38        -0.3114
    542  C4'       -8.5360   27.5260   -1.4880 C.3    38  G38         0.1773
    543  O4'       -7.1690   27.0490   -1.5530 O.3    38  G38        -0.3307
    544  C3'       -9.3190   26.5000   -2.2920 C.3    38  G38         0.1860
    545  O3'      -10.5590   27.0010   -2.7620 O.3    38  G38        -0.3112
    546  C2'       -8.3470   26.1470   -3.4110 C.3    38  G38         0.2309
    547  O2'       -8.3590   27.1450   -4.4210 O.3    38  G38        -0.2156
    548  C1'       -7.0030   26.2170   -2.6810 C.3    38  G38         0.2408
    549  N1        -4.0020   22.2600   -3.7280 N.ar   38  G38        -0.1709
    550  C2        -4.1880   23.4290   -4.4240 C.ar   38  G38         0.2606
    551  N2        -3.4830   23.5650   -5.5550 N.pl3  38  G38        -0.0859
    552  N3        -5.0070   24.3930   -4.0410 N.ar   38  G38        -0.1918
    553  C4        -5.6390   24.0900   -2.8880 C.ar   38  G38         0.1723
    554  C5        -5.5240   22.9550   -2.1140 C.ar   38  G38         0.1748
    555  C6        -4.6420   21.9280   -2.5390 C.ar   38  G38         0.3023
    556  O6        -4.3990   20.8440   -1.9950 O.2    38  G38        -0.2633
    557  N7        -6.3470   23.0360   -0.9990 N.ar   38  G38        -0.2173
    558  C8        -6.9330   24.1980   -1.1120 C.ar   38  G38         0.1817
    559  N9        -6.5450   24.8890   -2.2340 N.ar   38  G38        -0.2693
    560  OP1      -10.0920   27.3340    2.6760 O.2    38  G38        -0.5172
    561  OP2       -8.8800   25.0670    2.7190 O.co2  38  G38        -0.4373
    562  P        -11.8890   26.1000   -2.6880 P.3    39  U39         0.2141
    563  C5'      -12.4490   26.8330   -0.2350 C.3    39  U39         0.1812
    564  O5'      -12.7950   26.8460   -1.6120 O.3    39  U39        -0.3114
    565  C4'      -12.7810   28.1430    0.4370 C.3    39  U39         0.1773
    566  O4'      -11.8840   29.1830   -0.0300 O.3    39  U39        -0.3307
    567  C3'      -14.1680   28.7040    0.1660 C.3    39  U39         0.1860
    568  O3'      -15.1710   28.0990    0.9650 O.3    39  U39        -0.3112
    569  C2'      -13.9860   30.1900    0.4470 C.3    39  U39         0.2309
    570  O2'      -14.0260   30.4420    1.8440 O.3    39  U39        -0.2156
    571  C1'      -12.5570   30.4250   -0.0480 C.3    39  U39         0.2420
    572  N1       -12.5130   30.9730   -1.4240 N.ar   39  U39        -0.2534
    573  C2       -12.9250   32.2800   -1.6260 C.ar   39  U39         0.3546
    574  O2       -13.3330   33.0020   -0.7330 O.2    39  U39        -0.2443
    575  N3       -12.8500   32.7200   -2.9240 N.ar   39  U39        -0.1530
    576  C4       -12.4090   32.0070   -4.0180 C.ar   39  U39         0.2846
    577  O4       -12.4010   32.5470   -5.1250 O.2    39  U39        -0.2650
    578  C5       -11.9970   30.6670   -3.7280 C.ar   39  U39         0.0814
    579  C6       -12.0590   30.2100   -2.4730 C.ar   39  U39         0.0870
    580  OP1      -11.5330   24.7650   -2.1420 O.3    39  U39        -0.4373
    581  OP2      -12.5710   26.1950   -4.0030 O.co2  39  U39        -0.5172
    582  P        -16.6870   28.0000    0.4390 P.3    40  U40         0.2141
    583  C5'      -17.3390   30.3020    1.5070 C.3    40  U40         0.1812
    584  O5'      -17.1580   29.5170    0.3380 O.3    40  U40        -0.3114
    585  C4'      -17.7930   31.6980    1.1660 C.3    40  U40         0.1773
    586  O4'      -16.7320   32.4080    0.4750 O.3    40  U40        -0.3307
    587  C3'      -18.9770   31.7910    0.2180 C.3    40  U40         0.1860
    588  O3'      -20.2190   31.5950    0.8690 O.3    40  U40        -0.3112
    589  C2'      -18.8080   33.1770   -0.3910 C.3    40  U40         0.2309
    590  O2'      -19.2720   34.1800    0.5020 O.3    40  U40        -0.2156
    591  C1'      -17.2850   33.2800   -0.4890 C.3    40  U40         0.2420
    592  N1       -16.7840   32.8880   -1.8270 N.ar   40  U40        -0.2534
    593  C2       -16.8220   33.8410   -2.8260 C.ar   40  U40         0.3546
    594  O2       -17.2460   34.9700   -2.6440 O.2    40  U40        -0.2443
    595  N3       -16.3450   33.4270   -4.0450 N.ar   40  U40        -0.1530
    596  C4       -15.8420   32.1820   -4.3610 C.ar   40  U40         0.2846
    597  O4       -15.4470   31.9600   -5.5070 O.2    40  U40        -0.2650
    598  C5       -15.8360   31.2510   -3.2740 C.ar   40  U40         0.0814
    599  C6       -16.2940   31.6270   -2.0760 C.ar   40  U40         0.0870
    600  OP1      -17.4950   27.3570    1.5050 O.3    40  U40        -0.4373
    601  OP2      -16.6800   27.4170   -0.9270 O.co2  40  U40        -0.5172
    602  P        -21.5350   31.2520    0.0130 P.3    41  U41         0.2141
    603  C5'      -22.5430   32.6350   -1.9740 C.3    41  U41         0.1812
    604  O5'      -21.8490   32.6180   -0.7390 O.3    41  U41        -0.3114
    605  C4'      -22.4960   34.0080   -2.5900 C.3    41  U41         0.1773
    606  O4'      -21.1180   34.3830   -2.8480 O.3    41  U41        -0.3307
    607  C3'      -23.1790   34.1580   -3.9370 C.3    41  U41         0.1860
    608  O3'      -24.5810   34.3190   -3.8170 O.3    41  U41        -0.3112
    609  C2'      -22.4700   35.3670   -4.5310 C.3    41  U41         0.2309
    610  O2'      -22.9680   36.5690   -3.9610 O.3    41  U41        -0.2156
    611  C1'      -21.0420   35.1550   -4.0260 C.3    41  U41         0.2420
    612  N1       -20.2020   34.4320   -5.0080 N.ar   41  U41        -0.2534
    613  C2       -19.7520   35.1290   -6.1130 C.ar   41  U41         0.3546
    614  O2       -20.0160   36.3020   -6.3140 O.2    41  U41        -0.2443
    615  N3       -18.9780   34.4000   -6.9810 N.ar   41  U41        -0.1530
    616  C4       -18.6140   33.0750   -6.8600 C.ar   41  U41         0.2846
    617  O4       -17.9090   32.5590   -7.7280 O.2    41  U41        -0.2650
    618  C5       -19.1170   32.4240   -5.6890 C.ar   41  U41         0.0814
    619  C6       -19.8740   33.1090   -4.8260 C.ar   41  U41         0.0870
    620  OP1      -22.6490   31.0150    0.9640 O.3    41  U41        -0.4373
    621  OP2      -21.1880   30.2180   -0.9960 O.co2  41  U41        -0.5172
    622  P        -25.5610   33.8230   -4.9880 P.3    42  G42         0.2141
    623  C5'      -25.7220   36.3370   -5.7030 C.3    42  G42         0.1812
    624  O5'      -25.4700   34.9890   -6.0700 O.3    42  G42        -0.3114
    625  C4'      -25.4120   37.2880   -6.8290 C.3    42  G42         0.1773
    626  O4'      -23.9760   37.4460   -6.9760 O.3    42  G42        -0.3307
    627  C3'      -25.8710   36.8560   -8.2110 C.3    42  G42         0.1860
    628  O3'      -27.2510   37.0730   -8.4350 O.3    42  G42        -0.3112
    629  C2'      -24.9640   37.6690   -9.1230 C.3    42  G42         0.2309
    630  O2'      -25.4080   39.0150   -9.1980 O.3    42  G42        -0.2156
    631  C1'      -23.6520   37.6360   -8.3390 C.3    42  G42         0.2408
    632  N1       -20.5250   35.9090  -11.9540 N.ar   42  G42        -0.1709
    633  C2       -21.1920   37.1050  -11.8750 C.ar   42  G42         0.2606
    634  N2       -21.0010   37.9570  -12.8930 N.pl3  42  G42        -0.0859
    635  N3       -21.9850   37.4430  -10.8720 N.ar   42  G42        -0.1918
    636  C4       -22.0580   36.4720   -9.9390 C.ar   42  G42         0.1723
    637  C5       -21.4340   35.2430   -9.9240 C.ar   42  G42         0.1748
    638  C6       -20.5850   34.8950  -11.0050 C.ar   42  G42         0.3023
    639  O6       -19.9410   33.8530  -11.1780 O.2    42  G42        -0.2633
    640  N7       -21.7750   34.5330   -8.7810 N.ar   42  G42        -0.2173
    641  C8       -22.5830   35.3270   -8.1330 C.ar   42  G42         0.1817
    642  N9       -22.7930   36.5210   -8.7790 N.ar   42  G42        -0.2693
    643  OP1      -26.9400   33.8110   -4.4410 O.3    42  G42        -0.4373
    644  OP2      -25.0010   32.5830   -5.5840 O.co2  42  G42        -0.5172
    645  P        -28.0930   36.0300   -9.3190 P.3    43  G43         0.2141
    646  C5'      -27.7050   37.5660  -11.4060 C.3    43  G43         0.1812
    647  O5'      -27.5770   36.2860  -10.8050 O.3    43  G43        -0.3114
    648  C4'      -26.9050   37.6630  -12.6800 C.3    43  G43         0.1773
    649  O4'      -25.4870   37.5380  -12.3880 O.3    43  G43        -0.3307
    650  C3'      -27.1590   36.5770  -13.7100 C.3    43  G43         0.1860
    651  O3'      -28.3350   36.7850  -14.4690 O.3    43  G43        -0.3112
    652  C2'      -25.8810   36.6050  -14.5350 C.3    43  G43         0.2309
    653  O2'      -25.8870   37.7000  -15.4370 O.3    43  G43        -0.2156
    654  C1'      -24.8370   36.8720  -13.4520 C.3    43  G43         0.2408
    655  N1       -21.5920   33.1260  -14.4460 N.ar   43  G43        -0.1709
    656  C2       -21.8990   34.2440  -15.1810 C.ar   43  G43         0.2606
    657  N2       -21.2530   34.3870  -16.3460 N.pl3  43  G43        -0.0859
    658  N3       -22.7750   35.1570  -14.8010 N.ar   43  G43        -0.1918
    659  C4       -23.3300   34.8550  -13.6090 C.ar   43  G43         0.1723
    660  C5       -23.0980   33.7700  -12.7950 C.ar   43  G43         0.1748
    661  C6       -22.1530   32.7970  -13.2150 C.ar   43  G43         0.3023
    662  O6       -21.8040   31.7620  -12.6370 O.2    43  G43        -0.2633
    663  N7       -23.8790   33.8410  -11.6480 N.ar   43  G43        -0.2173
    664  C8       -24.5610   34.9470  -11.7850 C.ar   43  G43         0.1817
    665  N9       -24.2650   35.6110  -12.9500 N.ar   43  G43        -0.2693
    666  OP1      -29.5250   36.4220   -9.2500 O.2    43  G43        -0.5172
    667  OP2      -27.6870   34.6570   -8.9210 O.co2  43  G43        -0.4373
    668  P        -29.1270   35.5250  -15.0740 P.3    44  G44         0.2141
    669  C5'      -27.9590   35.9790  -17.3760 C.3    44  G44         0.1812
    670  O5'      -28.2370   35.0740  -16.3170 O.3    44  G44        -0.3114
    671  C4'      -26.8340   35.4860  -18.2520 C.3    44  G44         0.1773
    672  O4'      -25.6220   35.3310  -17.4690 O.3    44  G44        -0.3307
    673  C3'      -27.0280   34.1230  -18.8940 C.3    44  G44         0.1860
    674  O3'      -27.8630   34.1610  -20.0370 O.3    44  G44        -0.3112
    675  C2'      -25.5970   33.6970  -19.1910 C.3    44  G44         0.2309
    676  O2'      -25.1040   34.3600  -20.3460 O.3    44  G44        -0.2156
    677  C1'      -24.8630   34.2490  -17.9700 C.3    44  G44         0.2408
    678  N1       -22.6760   29.8680  -16.6550 N.ar   44  G44        -0.1709
    679  C2       -22.5580   30.5930  -17.8150 C.ar   44  G44         0.2606
    680  N2       -21.7490   30.0840  -18.7570 N.pl3  44  G44        -0.0859
    681  N3       -23.1870   31.7350  -18.0360 N.ar   44  G44        -0.1918
    682  C4       -23.9570   32.0970  -16.9890 C.ar   44  G44         0.1723
    683  C5       -24.1440   31.4470  -15.7890 C.ar   44  G44         0.1748
    684  C6       -23.4620   30.2230  -15.5630 C.ar   44  G44         0.3023
    685  O6       -23.4940   29.4930  -14.5630 O.2    44  G44        -0.2633
    686  N7       -25.0180   32.1580  -14.9770 N.ar   44  G44        -0.2173
    687  C8       -25.3420   33.2070  -15.6840 C.ar   44  G44         0.1817
    688  N9       -24.7300   33.2310  -16.9140 N.ar   44  G44        -0.2693
    689  OP1      -30.4370   36.0000  -15.5880 O.2    44  G44        -0.5172
    690  OP2      -29.0850   34.4390  -14.0600 O.co2  44  G44        -0.4373
    691  P        -28.6990   32.8590  -20.4690 P.3    45  A45         0.2141
    692  C5'      -26.8490   32.4060  -22.2630 C.3    45  A45         0.1812
    693  O5'      -27.6130   31.9300  -21.1670 O.3    45  A45        -0.3114
    694  C4'      -25.7390   31.4510  -22.6030 C.3    45  A45         0.1773
    695  O4'      -24.8350   31.3290  -21.4740 O.3    45  A45        -0.3307
    696  C3'      -26.1700   30.0230  -22.8830 C.3    45  A45         0.1860
    697  O3'      -26.6550   29.8440  -24.2020 O.3    45  A45        -0.3112
    698  C2'      -24.9070   29.2300  -22.5790 C.3    45  A45         0.2309
    699  O2'      -23.9870   29.3240  -23.6550 O.3    45  A45        -0.2156
    700  C1'      -24.3430   30.0090  -21.3920 C.3    45  A45         0.2408
    701  N1       -23.7110   26.1100  -18.1060 N.ar   45  A45        -0.2040
    702  C2       -23.1530   26.3970  -19.2880 C.ar   45  A45         0.2016
    703  N3       -23.3670   27.4370  -20.0910 N.ar   45  A45        -0.2048
    704  C4       -24.2890   28.2580  -19.5630 C.ar   45  A45         0.1692
    705  C5       -24.9540   28.1000  -18.3630 C.ar   45  A45         0.1518
    706  C6       -24.6340   26.9580  -17.6050 C.ar   45  A45         0.1919
    707  N6       -25.1890   26.6650  -16.4260 N.pl3  45  A45        -0.1054
    708  N7       -25.8330   29.1540  -18.1510 N.ar   45  A45        -0.2193
    709  C8       -25.6840   29.9120  -19.2100 C.ar   45  A45         0.1816
    710  N9       -24.7630   29.4270  -20.1050 N.ar   45  A45        -0.2693
    711  OP1      -29.6840   33.2590  -21.5070 O.2    45  A45        -0.5172
    712  OP2      -29.1670   32.1790  -19.2360 O.co2  45  A45        -0.4373
    713  P        -27.9200   28.8920  -24.4750 P.3    46  G46         0.2141
    714  C5'      -26.2490   26.8970  -24.8200 C.3    46  G46         0.1812
    715  O5'      -27.3800   27.4310  -24.1470 O.3    46  G46        -0.3114
    716  C4'      -25.7840   25.6250  -24.1630 C.3    46  G46         0.1773
    717  O4'      -25.2860   25.9100  -22.8300 O.3    46  G46        -0.3307
    718  C3'      -26.8610   24.5780  -23.9380 C.3    46  G46         0.1860
    719  O3'      -27.1290   23.8180  -25.1020 O.3    46  G46        -0.3112
    720  C2'      -26.3010   23.7620  -22.7820 C.3    46  G46         0.2309
    721  O2'      -25.3170   22.8500  -23.2470 O.3    46  G46        -0.2156
    722  C1'      -25.6040   24.8460  -21.9570 C.3    46  G46         0.2408
    723  N1       -27.1170   24.3560  -17.1020 N.ar   46  G46        -0.1709
    724  C2       -26.2220   23.6000  -17.8140 C.ar   46  G46         0.2606
    725  N2       -25.6580   22.5820  -17.1510 N.pl3  46  G46        -0.0859
    726  N3       -25.9060   23.8220  -19.0810 N.ar   46  G46        -0.1918
    727  C4       -26.5680   24.8820  -19.5910 C.ar   46  G46         0.1723
    728  C5       -27.4790   25.7030  -18.9620 C.ar   46  G46         0.1748
    729  C6       -27.8110   25.4500  -17.6060 C.ar   46  G46         0.3023
    730  O6       -28.5960   26.0660  -16.8770 O.2    46  G46        -0.2633
    731  N7       -27.9370   26.6840  -19.8270 N.ar   46  G46        -0.2173
    732  C8       -27.3070   26.4490  -20.9460 C.ar   46  G46         0.1817
    733  N9       -26.4610   25.3690  -20.8750 N.ar   46  G46        -0.2693
    734  OP1      -28.2400   28.9520  -25.9240 O.2    46  G46        -0.5172
    735  OP2      -28.9680   29.2150  -23.4740 O.co2  46  G46        -0.4373
    736  P        -28.5190   24.0070  -25.8840 P.3    47  U47         0.2141
    737  C5'      -29.0920   21.5200  -25.2980 C.3    47  U47         0.1812
    738  O5'      -29.4580   22.8940  -25.2450 O.3    47  U47        -0.3114
    739  C4'      -30.1410   20.6340  -24.6750 C.3    47  U47         0.1773
    740  O4'      -30.1990   20.8870  -23.2450 O.3    47  U47        -0.3307
    741  C3'      -31.5620   20.8270  -25.1990 C.3    47  U47         0.1860
    742  O3'      -32.2370   19.5700  -25.1910 O.3    47  U47        -0.3112
    743  C2'      -32.1840   21.7430  -24.1480 C.3    47  U47         0.2309
    744  O2'      -33.5920   21.6790  -24.0720 O.3    47  U47        -0.2156
    745  C1'      -31.5200   21.2290  -22.8750 C.3    47  U47         0.2420
    746  N1       -31.4480   22.2010  -21.7750 N.ar   47  U47        -0.2534
    747  C2       -31.8110   21.7400  -20.5260 C.ar   47  U47         0.3546
    748  O2       -32.1790   20.5940  -20.3310 O.2    47  U47        -0.2443
    749  N3       -31.7270   22.6650  -19.5160 N.ar   47  U47        -0.1530
    750  C4       -31.3220   23.9780  -19.6320 C.ar   47  U47         0.2846
    751  O4       -31.3010   24.6900  -18.6280 O.2    47  U47        -0.2650
    752  C5       -30.9620   24.3800  -20.9590 C.ar   47  U47         0.0814
    753  C6       -31.0330   23.4980  -21.9620 C.ar   47  U47         0.0870
    754  OP1      -28.3020   23.6540  -27.3110 O.2    47  U47        -0.5172
    755  OP2      -29.0750   25.3390  -25.5350 O.co2  47  U47        -0.4373
    756  P        -32.2680   18.6570  -26.5140 P.3    48  U48         0.2141
    757  C5'      -34.6760   19.5780  -26.9470 C.3    48  U48         0.1812
    758  O5'      -33.3560   19.3660  -27.4310 O.3    48  U48        -0.3114
    759  C4'      -35.2880   20.8240  -27.5310 C.3    48  U48         0.1773
    760  O4'      -35.6620   20.5670  -28.9120 O.3    48  U48        -0.3307
    761  C3'      -36.5550   21.3010  -26.8290 C.3    48  U48         0.1860
    762  O3'      -36.6170   22.7260  -26.8780 O.3    48  U48        -0.3112
    763  C2'      -37.6600   20.7090  -27.6940 C.3    48  U48         0.2309
    764  O2'      -38.8900   21.3920  -27.6160 O.3    48  U48        -0.2156
    765  C1'      -37.0440   20.8120  -29.0860 C.3    48  U48         0.2420
    766  N1       -37.5710   19.8280  -30.0440 N.ar   48  U48        -0.2534
    767  C2       -37.9340   20.2790  -31.2990 C.ar   48  U48         0.3546
    768  O2       -37.8280   21.4440  -31.6410 O.2    48  U48        -0.2443
    769  N3       -38.4200   19.3110  -32.1430 N.ar   48  U48        -0.1530
    770  C4       -38.5800   17.9680  -31.8630 C.ar   48  U48         0.2846
    771  O4       -39.0340   17.2190  -32.7290 O.2    48  U48        -0.2650
    772  C5       -38.1870   17.5830  -30.5420 C.ar   48  U48         0.0814
    773  C6       -37.7090   18.5040  -29.6990 C.ar   48  U48         0.0870
    774  OP1      -32.8050   17.3230  -26.1450 O.3    48  U48        -0.4373
    775  OP2      -30.9540   18.7620  -27.1970 O.co2  48  U48        -0.5172
    776  P        -35.9640   23.5970  -25.6950 P.3    49  U49         0.2141
    777  C5'      -37.7070   22.8950  -23.8650 C.3    49  U49         0.1812
    778  O5'      -36.3820   22.8130  -24.3740 O.3    49  U49        -0.3114
    779  C4'      -37.7580   22.5680  -22.3950 C.3    49  U49         0.1773
    780  O4'      -37.6850   21.1260  -22.2160 O.3    49  U49        -0.3307
    781  C3'      -36.6270   23.1620  -21.5530 C.3    49  U49         0.1860
    782  O3'      -37.1330   23.5440  -20.2760 O.3    49  U49        -0.3112
    783  C2'      -35.6720   21.9830  -21.3860 C.3    49  U49         0.2309
    784  O2'      -34.8480   22.0550  -20.2420 O.3    49  U49        -0.2156
    785  C1'      -36.6460   20.8140  -21.3090 C.3    49  U49         0.2420
    786  N1       -36.0670   19.5140  -21.6800 N.ar   49  U49        -0.2534
    787  C2       -36.3170   18.4500  -20.8340 C.ar   49  U49         0.3546
    788  O2       -36.9920   18.5550  -19.8250 O.2    49  U49        -0.2443
    789  N3       -35.7550   17.2570  -21.2110 N.ar   49  U49        -0.1530
    790  C4       -34.9770   17.0260  -22.3240 C.ar   49  U49         0.2846
    791  O4       -34.5390   15.8930  -22.5300 O.2    49  U49        -0.2650
    792  C5       -34.7590   18.1770  -23.1470 C.ar   49  U49         0.0814
    793  C6       -35.2950   19.3530  -22.8050 C.ar   49  U49         0.0870
    794  OP1      -36.6220   24.9270  -25.6750 O.3    49  U49        -0.4373
    795  OP2      -34.4860   23.5130  -25.8130 O.co2  49  U49        -0.5172
    796  P        -36.5790   24.8690  -19.5580 P.3    50  C50         0.2141
    797  C5'      -38.6040   25.1390  -17.9090 C.3    50  C50         0.1812
    798  O5'      -37.2340   24.8230  -18.1060 O.3    50  C50        -0.3114
    799  C4'      -39.1670   24.4250  -16.7060 C.3    50  C50         0.1773
    800  O4'      -39.3710   23.0200  -17.0150 O.3    50  C50        -0.3307
    801  C3'      -38.2800   24.4060  -15.4720 C.3    50  C50         0.1860
    802  O3'      -38.3450   25.6060  -14.7210 O.3    50  C50        -0.3112
    803  C2'      -38.7830   23.1830  -14.7180 C.3    50  C50         0.2309
    804  O2'      -39.9840   23.4800  -14.0230 O.3    50  C50        -0.2156
    805  C1'      -39.1130   22.2330  -15.8710 C.3    50  C50         0.2420
    806  N1       -37.9930   21.3130  -16.1710 N.ar   50  C50        -0.2535
    807  C2       -37.7340   20.2480  -15.3010 C.ar   50  C50         0.3532
    808  O2       -38.4460   20.0950  -14.2970 O.2    50  C50        -0.2443
    809  N3       -36.7090   19.4090  -15.5710 N.ar   50  C50        -0.1739
    810  C4       -35.9610   19.5930  -16.6590 C.ar   50  C50         0.1759
    811  N4       -34.9630   18.7350  -16.8830 N.pl3  50  C50        -0.1070
    812  C5       -36.2030   20.6660  -17.5650 C.ar   50  C50         0.0566
    813  C6       -37.2180   21.4940  -17.2830 C.ar   50  C50         0.0850
    814  OP1      -37.1210   26.0470  -20.2820 O.2    50  C50        -0.5172
    815  OP2      -35.1080   24.7190  -19.4100 O.co2  50  C50        -0.4373
    816  P        -36.9910   26.3480  -14.2740 P.3    51  U51         0.2141
    817  C5'      -36.9700   25.0060  -12.0180 C.3    51  U51         0.1812
    818  O5'      -36.3210   25.3400  -13.2370 O.3    51  U51        -0.3114
    819  C4'      -36.4440   23.7150  -11.4440 C.3    51  U51         0.1773
    820  O4'      -36.5680   22.6570  -12.4300 O.3    51  U51        -0.3307
    821  C3'      -34.9700   23.7010  -11.0680 C.3    51  U51         0.1860
    822  O3'      -34.7220   24.2730   -9.7960 O.3    51  U51        -0.3112
    823  C2'      -34.6170   22.2220  -11.1470 C.3    51  U51         0.2309
    824  O2'      -35.0470   21.5390   -9.9790 O.3    51  U51        -0.2156
    825  C1'      -35.4800   21.7640  -12.3230 C.3    51  U51         0.2420
    826  N1       -34.7380   21.7720  -13.6040 N.ar   51  U51        -0.2534
    827  C2       -33.7970   20.7820  -13.8250 C.ar   51  U51         0.3546
    828  O2       -33.5440   19.9080  -13.0130 O.2    51  U51        -0.2443
    829  N3       -33.1540   20.8530  -15.0370 N.ar   51  U51        -0.1530
    830  C4       -33.3530   21.7910  -16.0300 C.ar   51  U51         0.2846
    831  O4       -32.6960   21.7200  -17.0700 O.2    51  U51        -0.2650
    832  C5       -34.3420   22.7790  -15.7260 C.ar   51  U51         0.0814
    833  C6       -34.9860   22.7330  -14.5560 C.ar   51  U51         0.0870
    834  OP1      -37.3590   27.5840  -13.5370 O.3    51  U51        -0.4373
    835  OP2      -36.1150   26.4380  -15.4690 O.co2  51  U51        -0.5172
    836  P        -33.3800   25.1160   -9.5360 P.3    52  A52         0.2141
    837  C5'      -32.2180   22.9930   -8.5200 C.3    52  A52         0.1812
    838  O5'      -32.2310   24.0150   -9.5060 O.3    52  A52        -0.3114
    839  C4'      -31.2610   21.8900   -8.8920 C.3    52  A52         0.1773
    840  O4'      -31.6660   21.3030  -10.1550 O.3    52  A52        -0.3307
    841  C3'      -29.8180   22.3170   -9.1220 C.3    52  A52         0.1860
    842  O3'      -29.0840   22.4190   -7.9130 O.3    52  A52        -0.3112
    843  C2'      -29.2910   21.2390  -10.0620 C.3    52  A52         0.2309
    844  O2'      -28.9390   20.0710   -9.3360 O.3    52  A52        -0.2156
    845  C1'      -30.5300   20.9290  -10.9040 C.3    52  A52         0.2408
    846  N1       -28.7780   21.1470  -15.7580 N.ar   52  A52        -0.2040
    847  C2       -28.5530   20.2860  -14.7580 C.ar   52  A52         0.2016
    848  N3       -29.0410   20.2880  -13.5180 N.ar   52  A52        -0.2048
    849  C4       -29.8640   21.3340  -13.3300 C.ar   52  A52         0.1692
    850  C5       -30.1920   22.3040  -14.2600 C.ar   52  A52         0.1518
    851  C6       -29.6100   22.1890  -15.5360 C.ar   52  A52         0.1919
    852  N6       -29.8330   23.0500  -16.5310 N.pl3  52  A52        -0.1054
    853  N7       -31.0680   23.2290  -13.7130 N.ar   52  A52        -0.2193
    854  C8       -31.2480   22.8060  -12.4850 C.ar   52  A52         0.1816
    855  N9       -30.5470   21.6660  -12.1830 N.ar   52  A52        -0.2693
    856  OP1      -33.4610   25.7210   -8.1820 O.3    52  A52        -0.4373
    857  OP2      -33.1540   25.9870  -10.7160 O.co2  52  A52        -0.5172
    858  P        -28.2750   23.7610   -7.5510 P.3    53  C53         0.2141
    859  C5'      -26.0030   22.5780   -8.1260 C.3    53  C53         0.1812
    860  O5'      -26.9210   23.6320   -8.3810 O.3    53  C53        -0.3114
    861  C4'      -25.2290   22.2070   -9.3660 C.3    53  C53         0.1773
    862  O4'      -26.1550   21.8750  -10.4290 O.3    53  C53        -0.3307
    863  C3'      -24.3520   23.3010   -9.9600 C.3    53  C53         0.1860
    864  O3'      -23.0850   23.3900   -9.3310 O.3    53  C53        -0.3112
    865  C2'      -24.2550   22.8980  -11.4270 C.3    53  C53         0.2309
    866  O2'      -23.2740   21.8860  -11.6020 O.3    53  C53        -0.2156
    867  C1'      -25.6330   22.2830  -11.6740 C.3    53  C53         0.2420
    868  N1       -26.5770   23.2370  -12.3000 N.ar   53  C53        -0.2535
    869  C2       -26.6440   23.2930  -13.6950 C.ar   53  C53         0.3532
    870  O2       -25.9120   22.5470  -14.3620 O.2    53  C53        -0.2443
    871  N3       -27.5030   24.1550  -14.2830 N.ar   53  C53        -0.1739
    872  C4       -28.2760   24.9410  -13.5340 C.ar   53  C53         0.1759
    873  N4       -29.1100   25.7750  -14.1590 N.pl3  53  C53        -0.1070
    874  C5       -28.2310   24.9050  -12.1100 C.ar   53  C53         0.0566
    875  C6       -27.3780   24.0460  -11.5400 C.ar   53  C53         0.0850
    876  OP1      -27.9340   23.7000   -6.1050 O.3    53  C53        -0.4373
    877  OP2      -29.0330   24.9280   -8.0710 O.co2  53  C53        -0.5172
    878  P        -22.8320   24.4090   -8.1140 P.3    54  C54         0.2141
    879  C5'      -23.3980   23.5030   -5.7230 C.3    54  C54         0.1812
    880  O5'      -22.5680   23.4480   -6.8710 O.3    54  C54        -0.3114
    881  C4'      -23.5850   22.1430   -5.0930 C.3    54  C54         0.1773
    882  O4'      -23.9420   21.1630   -6.1020 O.3    54  C54        -0.3307
    883  C3'      -22.3740   21.5270   -4.4150 C.3    54  C54         0.1860
    884  O3'      -22.0980   22.0780   -3.1400 O.3    54  C54        -0.3112
    885  C2'      -22.7510   20.0530   -4.3700 C.3    54  C54         0.2309
    886  O2'      -23.6860   19.8090   -3.3300 O.3    54  C54        -0.2156
    887  C1'      -23.4720   19.8870   -5.7090 C.3    54  C54         0.2420
    888  N1       -22.5770   19.3410   -6.7560 N.ar   54  C54        -0.2535
    889  C2       -22.3350   17.9630   -6.7590 C.ar   54  C54         0.3532
    890  O2       -22.8770   17.2540   -5.8980 O.2    54  C54        -0.2443
    891  N3       -21.5180   17.4310   -7.6970 N.ar   54  C54        -0.1739
    892  C4       -20.9490   18.2180   -8.6100 C.ar   54  C54         0.1759
    893  N4       -20.1530   17.6450   -9.5160 N.pl3  54  C54        -0.1070
    894  C5       -21.1750   19.6260   -8.6300 C.ar   54  C54         0.0566
    895  C6       -21.9870   20.1410   -7.6940 C.ar   54  C54         0.0850
    896  OP1      -24.0740   25.1810   -7.8570 O.3    54  C54        -0.4373
    897  OP2      -21.5700   25.1370   -8.4000 O.co2  54  C54        -0.5172
    898  P        -20.6120   21.9810   -2.5340 P.3    55  A55         0.2141
    899  C5'      -21.2960   19.9420   -1.0310 C.3    55  A55         0.1812
    900  O5'      -20.4800   20.4620   -2.0690 O.3    55  A55        -0.3114
    901  C4'      -21.0910   18.4570   -0.8580 C.3    55  A55         0.1773
    902  O4'      -21.4760   17.7650   -2.0730 O.3    55  A55        -0.3307
    903  C3'      -19.6590   18.0080   -0.6120 C.3    55  A55         0.1860
    904  O3'      -19.2670   18.1480    0.7420 O.3    55  A55        -0.3112
    905  C2'      -19.6710   16.5640   -1.0980 C.3    55  A55         0.2309
    906  O2'      -20.2390   15.7100   -0.1170 O.3    55  A55        -0.2156
    907  C1'      -20.6360   16.6490   -2.2810 C.3    55  A55         0.2408
    908  N1       -18.0040   14.3340   -6.0630 N.ar   55  A55        -0.2040
    909  C2       -18.5470   13.8720   -4.9320 C.ar   55  A55         0.2016
    910  N3       -19.2200   14.5290   -3.9900 N.ar   55  A55        -0.2048
    911  C4       -19.3160   15.8350   -4.2980 C.ar   55  A55         0.1692
    912  C5       -18.8070   16.4590   -5.4220 C.ar   55  A55         0.1518
    913  C6       -18.1170   15.6500   -6.3430 C.ar   55  A55         0.1919
    914  N6       -17.5730   16.1080   -7.4710 N.pl3  55  A55        -0.1054
    915  N7       -19.1000   17.8140   -5.4050 N.ar   55  A55        -0.2193
    916  C8       -19.7670   17.9790   -4.2880 C.ar   55  A55         0.1816
    917  N9       -19.9340   16.8220   -3.5680 N.ar   55  A55        -0.2693
    918  OP1      -20.5380   22.8510   -1.3320 O.3    55  A55        -0.4373
    919  OP2      -19.6610   22.1900   -3.6560 O.co2  55  A55        -0.5172
    920  P        -17.7220   18.3750    1.1210 P.3    56  A56         0.2141
    921  C5'      -17.4350   15.8560    1.7730 C.3    56  A56         0.1812
    922  O5'      -17.0680   16.9350    0.9250 O.3    56  A56        -0.3114
    923  C4'      -16.9510   14.5310    1.2390 C.3    56  A56         0.1773
    924  O4'      -17.5070   14.2990   -0.0800 O.3    56  A56        -0.3307
    925  C3'      -15.4510   14.3940    1.0300 C.3    56  A56         0.1860
    926  O3'      -14.7370   14.1210    2.2210 O.3    56  A56        -0.3112
    927  C2'      -15.3680   13.2770    0.0010 C.3    56  A56         0.2309
    928  O2'      -15.5790   12.0140    0.6140 O.3    56  A56        -0.2156
    929  C1'      -16.5750   13.5970   -0.8780 C.3    56  A56         0.2408
    930  N1       -14.6640   13.7280   -5.6510 N.ar   56  A56        -0.2040
    931  C2       -14.9260   12.7170   -4.8140 C.ar   56  A56         0.2016
    932  N3       -15.4260   12.7550   -3.5810 N.ar   56  A56        -0.2048
    933  C4       -15.6710   14.0240   -3.2080 C.ar   56  A56         0.1692
    934  C5       -15.4570   15.1660   -3.9570 C.ar   56  A56         0.1518
    935  C6       -14.9240   14.9900   -5.2450 C.ar   56  A56         0.1919
    936  N6       -14.6660   15.9970   -6.0830 N.pl3  56  A56        -0.1054
    937  N7       -15.8310   16.2960   -3.2440 N.ar   56  A56        -0.2193
    938  C8       -16.2570   15.8210   -2.0990 C.ar   56  A56         0.1816
    939  N9       -16.1930   14.4530   -2.0140 N.ar   56  A56        -0.2693
    940  OP1      -17.6500   18.7040    2.5680 O.3    56  A56        -0.4373
    941  OP2      -17.1370   19.3170    0.1330 O.co2  56  A56        -0.5172
    942  P        -13.2350   14.6660    2.3940 P.3    57  G57         0.2141
    943  C5'      -12.2400   12.3820    1.5720 C.3    57  G57         0.1812
    944  O5'      -12.3810   13.7820    1.3780 O.3    57  G57        -0.3114
    945  C4'      -11.7370   11.6860    0.3300 C.3    57  G57         0.1773
    946  O4'      -12.6050   11.9820   -0.7970 O.3    57  G57        -0.3307
    947  C3'      -10.3590   12.0930   -0.1660 C.3    57  G57         0.1860
    948  O3'       -9.2950   11.5140    0.5670 O.3    57  G57        -0.3112
    949  C2'      -10.4050   11.6640   -1.6250 C.3    57  G57         0.2309
    950  O2'      -10.2560   10.2570   -1.7410 O.3    57  G57        -0.2156
    951  C1'      -11.8440   12.0230   -1.9890 C.3    57  G57         0.2408
    952  N1       -11.0120   14.8890   -6.1060 N.ar   57  G57        -0.1709
    953  C2       -10.8040   13.5440   -5.9180 C.ar   57  G57         0.2606
    954  N2       -10.3080   12.8720   -6.9680 N.pl3  57  G57        -0.0859
    955  N3       -11.0650   12.9060   -4.7880 N.ar   57  G57        -0.1918
    956  C4       -11.5570   13.7340   -3.8420 C.ar   57  G57         0.1723
    957  C5       -11.8010   15.0890   -3.9270 C.ar   57  G57         0.1748
    958  C6       -11.5180   15.7600   -5.1470 C.ar   57  G57         0.3023
    959  O6       -11.6680   16.9570   -5.4230 O.2    57  G57        -0.2633
    960  N7       -12.3120   15.5730   -2.7300 N.ar   57  G57        -0.2173
    961  C8       -12.3660   14.5250   -1.9520 C.ar   57  G57         0.1817
    962  N9       -11.9280   13.3770   -2.5670 N.ar   57  G57        -0.2693
    963  OP1      -12.7870   14.3560    3.7760 O.3    57  G57        -0.4373
    964  OP2      -13.2090   16.0700    1.9120 O.co2  57  G57        -0.5172
    965  P         -7.9400   12.3490    0.7910 P.3    58  A58         0.2141
    966  C5'       -6.7460   11.0620   -1.1580 C.3    58  A58         0.1812
    967  O5'       -7.2110   12.2940   -0.6260 O.3    58  A58        -0.3114
    968  C4'       -6.5230   11.1430   -2.6480 C.3    58  A58         0.1773
    969  O4'       -7.6980   11.7010   -3.2940 O.3    58  A58        -0.3307
    970  C3'       -5.3910   12.0440   -3.1170 C.3    58  A58         0.1860
    971  O3'       -4.1110   11.4470   -2.9990 O.3    58  A58        -0.3112
    972  C2'       -5.7910   12.3450   -4.5540 C.3    58  A58         0.2309
    973  O2'       -5.4920   11.2430   -5.3980 O.3    58  A58        -0.2156
    974  C1'       -7.3100   12.4580   -4.4230 C.3    58  A58         0.2408
    975  N1        -7.9720   17.0130   -6.6990 N.ar   58  A58        -0.2040
    976  C2        -7.5520   15.8280   -7.1560 C.ar   58  A58         0.2016
    977  N3        -7.4070   14.6810   -6.4980 N.ar   58  A58        -0.2048
    978  C4        -7.7530   14.8240   -5.2070 C.ar   58  A58         0.1692
    979  C5        -8.2040   15.9760   -4.5910 C.ar   58  A58         0.1518
    980  C6        -8.3130   17.1230   -5.3960 C.ar   58  A58         0.1919
    981  N6        -8.7350   18.3060   -4.9470 N.pl3  58  A58        -0.1054
    982  N7        -8.4630   15.7430   -3.2480 N.ar   58  A58        -0.2193
    983  C8        -8.1670   14.4750   -3.0840 C.ar   58  A58         0.1816
    984  N9        -7.7350   13.8570   -4.2320 N.ar   58  A58        -0.2693
    985  OP1       -7.1000   11.6210    1.7760 O.3    58  A58        -0.4373
    986  OP2       -8.3220   13.7600    1.0490 O.co2  58  A58        -0.5172
    987  P         -2.8070   12.3650   -2.7960 P.3    59  G59         0.2141
    988  C5'       -2.2550   12.2260   -5.3570 C.3    59  G59         0.1812
    989  O5'       -2.5660   13.0270   -4.2260 O.3    59  G59        -0.3114
    990  C4'       -2.4640   12.9800   -6.6470 C.3    59  G59         0.1773
    991  O4'       -3.7960   13.5560   -6.6670 O.3    59  G59        -0.3307
    992  C3'       -1.5440   14.1670   -6.8860 C.3    59  G59         0.1860
    993  O3'       -0.2790   13.7830   -7.3990 O.3    59  G59        -0.3112
    994  C2'       -2.3530   15.0280   -7.8480 C.3    59  G59         0.2309
    995  O2'       -2.2600   14.5260   -9.1720 O.3    59  G59        -0.2156
    996  C1'       -3.7770   14.7940   -7.3430 C.3    59  G59         0.2408
    997  N1        -5.1530   19.6720   -6.8080 N.ar   59  G59        -0.1709
    998  C2        -4.7650   18.9950   -7.9370 C.ar   59  G59         0.2606
    999  N2        -4.7380   19.7070   -9.0730 N.pl3  59  G59        -0.0859
   1000  N3        -4.4270   17.7160   -7.9520 N.ar   59  G59        -0.1918
   1001  C4        -4.5090   17.1550   -6.7260 C.ar   59  G59         0.1723
   1002  C5        -4.8850   17.7430   -5.5360 C.ar   59  G59         0.1748
   1003  C6        -5.2450   19.1170   -5.5360 C.ar   59  G59         0.3023
   1004  O6        -5.6070   19.8170   -4.5830 O.2    59  G59        -0.2633
   1005  N7        -4.8370   16.8260   -4.4960 N.ar   59  G59        -0.2173
   1006  C8        -4.4420   15.7170   -5.0600 C.ar   59  G59         0.1817
   1007  N9        -4.2220   15.8470   -6.4100 N.ar   59  G59        -0.2693
   1008  OP1       -1.6570   11.4690   -2.5110 O.2    59  G59        -0.5172
   1009  OP2       -3.1460   13.4490   -1.8400 O.co2  59  G59        -0.4373
   1010  P          1.0620   14.5170   -6.9020 P.3    60  C60         0.2141
   1011  C5'        0.9280   16.0950   -8.9960 C.3    60  C60         0.1812
   1012  O5'        0.9940   15.9550   -7.5840 O.3    60  C60        -0.3114
   1013  C4'        0.4510   17.4710   -9.3860 C.3    60  C60         0.1773
   1014  O4'       -0.8870   17.6850   -8.8670 O.3    60  C60        -0.3307
   1015  C3'        1.2610   18.6300   -8.8260 C.3    60  C60         0.1860
   1016  O3'        2.4160   18.9130   -9.5950 O.3    60  C60        -0.3112
   1017  C2'        0.2510   19.7700   -8.8030 C.3    60  C60         0.2309
   1018  O2'        0.1140   20.3440  -10.0950 O.3    60  C60        -0.2156
   1019  C1'       -1.0410   19.0280   -8.4600 C.3    60  C60         0.2420
   1020  N1        -1.3400   19.0470   -7.0090 N.ar   60  C60        -0.2535
   1021  C2        -1.9180   20.1890   -6.4450 C.ar   60  C60         0.3532
   1022  O2        -2.1570   21.1650   -7.1720 O.2    60  C60        -0.2443
   1023  N3        -2.1960   20.2050   -5.1200 N.ar   60  C60        -0.1739
   1024  C4        -1.9240   19.1380   -4.3660 C.ar   60  C60         0.1759
   1025  N4        -2.2180   19.1980   -3.0650 N.pl3  60  C60        -0.1070
   1026  C5        -1.3410   17.9600   -4.9130 C.ar   60  C60         0.0566
   1027  C6        -1.0710   17.9590   -6.2240 C.ar   60  C60         0.0850
   1028  OP1        2.2180   13.7900   -7.4840 O.2    60  C60        -0.5172
   1029  OP2        0.9760   14.7010   -5.4300 O.co2  60  C60        -0.4373
   1030  P          3.7500   19.4510   -8.8810 P.3    61  C61         0.2141
   1031  C5'        3.1330   21.8640   -9.7110 C.3    61  C61         0.1812
   1032  O5'        3.4590   20.9980   -8.6330 O.3    61  C61        -0.3114
   1033  C4'        2.5350   23.1570   -9.2150 C.3    61  C61         0.1773
   1034  O4'        1.2820   22.8890   -8.5360 O.3    61  C61        -0.3307
   1035  C3'        3.3620   23.9180   -8.1910 C.3    61  C61         0.1860
   1036  O3'        4.3670   24.7140   -8.7940 O.3    61  C61        -0.3112
   1037  C2'        2.3130   24.7350   -7.4450 C.3    61  C61         0.2309
   1038  O2'        1.9800   25.9060   -8.1740 O.3    61  C61        -0.2156
   1039  C1'        1.1080   23.7910   -7.4660 C.3    61  C61         0.2420
   1040  N1         0.9650   23.0180   -6.2100 N.ar   61  C61        -0.2535
   1041  C2         0.3300   23.6170   -5.1200 C.ar   61  C61         0.3532
   1042  O2        -0.0870   24.7790   -5.2310 O.2    61  C61        -0.2443
   1043  N3         0.1890   22.9180   -3.9700 N.ar   61  C61        -0.1739
   1044  C4         0.6500   21.6700   -3.8880 C.ar   61  C61         0.1759
   1045  N4         0.4870   21.0170   -2.7350 N.pl3  61  C61        -0.1070
   1046  C5         1.2980   21.0320   -4.9840 C.ar   61  C61         0.0566
   1047  C6         1.4310   21.7360   -6.1150 C.ar   61  C61         0.0850
   1048  OP1        4.8700   19.3420   -9.8510 O.2    61  C61        -0.5172
   1049  OP2        3.8550   18.7840   -7.5580 O.co2  61  C61        -0.4373
   1050  P          5.9200   24.4060   -8.5280 P.3    62  U62         0.2141
   1051  C5'        7.5490   25.3660   -6.7070 C.3    62  U62         0.1812
   1052  O5'        6.2140   25.1040   -7.1280 O.3    62  U62        -0.3114
   1053  C4'        7.6040   25.7450   -5.2480 C.3    62  U62         0.1773
   1054  O4'        7.0520   24.6570   -4.4570 O.3    62  U62        -0.3307
   1055  C3'        9.0010   26.0060   -4.6930 C.3    62  U62         0.1860
   1056  O3'        8.9190   26.9950   -3.6680 O.3    62  U62        -0.3112
   1057  C2'        9.3680   24.6620   -4.0740 C.3    62  U62         0.2309
   1058  O2'       10.3500   24.7300   -3.0610 O.3    62  U62        -0.2156
   1059  C1'        8.0190   24.2020   -3.5290 C.3    62  U62         0.2420
   1060  N1         7.8840   22.7420   -3.4150 N.ar   62  U62        -0.2534
   1061  C2         7.6660   22.2070   -2.1590 C.ar   62  U62         0.3546
   1062  O2         7.5880   22.8890   -1.1520 O.2    62  U62        -0.2443
   1063  N3         7.5540   20.8390   -2.1270 N.ar   62  U62        -0.1530
   1064  C4         7.6290   19.9730   -3.2000 C.ar   62  U62         0.2846
   1065  O4         7.5050   18.7620   -3.0120 O.2    62  U62        -0.2650
   1066  C5         7.8520   20.6060   -4.4640 C.ar   62  U62         0.0814
   1067  C6         7.9690   21.9370   -4.5260 C.ar   62  U62         0.0870
   1068  OP1        6.7070   25.1190   -9.5660 O.2    62  U62        -0.5172
   1069  OP2        6.0810   22.9380   -8.3620 O.co2  62  U62        -0.4373
   1070  P          9.4760   28.4790   -3.9270 P.3    63  U63         0.2141
   1071  C5'        7.3550   29.9740   -4.3400 C.3    63  U63         0.1812
   1072  O5'        8.2980   29.4270   -3.4230 O.3    63  U63        -0.3114
   1073  C4'        6.1390   30.5380   -3.6420 C.3    63  U63         0.1773
   1074  O4'        5.2870   29.4480   -3.1990 O.3    63  U63        -0.3307
   1075  C3'        6.4190   31.3920   -2.4050 C.3    63  U63         0.1860
   1076  O3'        5.4560   32.4430   -2.3300 O.3    63  U63        -0.3112
   1077  C2'        6.1890   30.4110   -1.2590 C.3    63  U63         0.2309
   1078  O2'        5.8450   31.0130   -0.0290 O.3    63  U63        -0.2156
   1079  C1'        5.0480   29.5620   -1.8090 C.3    63  U63         0.2420
   1080  N1         4.9770   28.2060   -1.2460 N.ar   63  U63        -0.2534
   1081  C2         4.1380   27.9970   -0.1690 C.ar   63  U63         0.3546
   1082  O2         3.4740   28.8870    0.3330 O.2    63  U63        -0.2443
   1083  N3         4.1150   26.7090    0.3040 N.ar   63  U63        -0.1530
   1084  C4         4.8240   25.6310   -0.1860 C.ar   63  U63         0.2846
   1085  O4         4.6950   24.5270    0.3470 O.2    63  U63        -0.2650
   1086  C5         5.6640   25.9290   -1.3040 C.ar   63  U63         0.0814
   1087  C6         5.7090   27.1760   -1.7850 C.ar   63  U63         0.0870
   1088  OP1        9.6260   28.6640   -5.3930 O.2    63  U63        -0.5172
   1089  OP2       10.6470   28.6900   -3.0400 O.co2  63  U63        -0.4373
   1090  P          5.8410   33.9290   -2.8030 P.3    64  A64         0.2141
   1091  C5'        4.7590   34.4530   -5.1320 C.3    64  A64         0.1812
   1092  O5'        5.8100   33.8490   -4.3940 O.3    64  A64        -0.3114
   1093  C4'        4.5280   33.7470   -6.4440 C.3    64  A64         0.1773
   1094  O4'        4.9590   32.3700   -6.3360 O.3    64  A64        -0.3307
   1095  C3'        3.0790   33.6650   -6.8980 C.3    64  A64         0.1860
   1096  O3'        2.6770   34.8340   -7.5920 O.3    64  A64        -0.3112
   1097  C2'        3.0460   32.4050   -7.7620 C.3    64  A64         0.2309
   1098  O2'        3.4350   32.7010   -9.0950 O.3    64  A64        -0.2156
   1099  C1'        4.1340   31.5370   -7.1190 C.3    64  A64         0.2408
   1100  N1         1.5620   30.1600   -2.8170 N.ar   64  A64        -0.2040
   1101  C2         1.8440   31.3620   -3.3390 C.ar   64  A64         0.2016
   1102  N3         2.5100   31.6580   -4.4550 N.ar   64  A64        -0.2048
   1103  C4         2.9150   30.5400   -5.0830 C.ar   64  A64         0.1692
   1104  C5         2.6970   29.2360   -4.6670 C.ar   64  A64         0.1518
   1105  C6         1.9850   29.0550   -3.4700 C.ar   64  A64         0.1919
   1106  N6         1.7030   27.8600   -2.9500 N.pl3  64  A64        -0.1054
   1107  N7         3.2620   28.3360   -5.5560 N.ar   64  A64        -0.2193
   1108  C8         3.7960   29.1010   -6.4760 C.ar   64  A64         0.1816
   1109  N9         3.6180   30.4460   -6.2650 N.ar   64  A64        -0.2693
   1110  OP1        7.2420   34.1960   -2.3900 O.2    64  A64        -0.5172
   1111  OP2        4.7580   34.8450   -2.3640 O.co2  64  A64        -0.4373
   1112  P          1.3890   35.6710   -7.1210 P.3    65  A65         0.2141
   1113  C5'        0.4580   35.0660   -9.4970 C.3    65  A65         0.1812
   1114  O5'        0.2350   35.1620   -8.0930 O.3    65  A65        -0.3114
   1115  C4'       -0.4520   34.0510  -10.1460 C.3    65  A65         0.1773
   1116  O4'       -0.2230   32.7400   -9.5520 O.3    65  A65        -0.3307
   1117  C3'       -1.9510   34.3210  -10.0020 C.3    65  A65         0.1860
   1118  O3'       -2.6190   33.8340  -11.1660 O.3    65  A65        -0.3112
   1119  C2'       -2.3260   33.4420   -8.8160 C.3    65  A65         0.2309
   1120  O2'       -3.6950   33.1060   -8.7370 O.3    65  A65        -0.2156
   1121  C1'       -1.4510   32.2230   -9.0800 C.3    65  A65         0.2408
   1122  N1         0.0500   27.5840   -7.5200 N.ar   65  A65        -0.2040
   1123  C2        -0.0660   28.1370   -8.7340 C.ar   65  A65         0.2016
   1124  N3        -0.4640   29.3630   -9.0620 N.ar   65  A65        -0.2048
   1125  C4        -0.7720   30.0710   -7.9620 C.ar   65  A65         0.1692
   1126  C5        -0.7050   29.6450   -6.6490 C.ar   65  A65         0.1518
   1127  C6        -0.2680   28.3250   -6.4350 C.ar   65  A65         0.1919
   1128  N6        -0.1540   27.7670   -5.2290 N.pl3  65  A65        -0.1054
   1129  N7        -1.1050   30.6550   -5.7850 N.ar   65  A65        -0.2193
   1130  C8        -1.3980   31.6550   -6.5830 C.ar   65  A65         0.1816
   1131  N9        -1.2110   31.3710   -7.9130 N.ar   65  A65        -0.2693
   1132  OP1        1.6300   37.1040   -7.4220 O.2    65  A65        -0.5172
   1133  OP2        1.0520   35.2590   -5.7340 O.co2  65  A65        -0.4373
   1134  P         -3.9530   34.5470  -11.7060 P.3    66  A66         0.2141
   1135  C5'       -5.3930   32.3740  -11.3750 C.3    66  A66         0.1812
   1136  O5'       -4.8410   33.3430  -12.2550 O.3    66  A66        -0.3114
   1137  C4'       -4.9530   30.9820  -11.7500 C.3    66  A66         0.1773
   1138  O4'       -3.7350   30.6410  -11.0330 O.3    66  A66        -0.3307
   1139  C3'       -5.9060   29.8520  -11.3950 C.3    66  A66         0.1860
   1140  O3'       -6.9900   29.7160  -12.2980 O.3    66  A66        -0.3112
   1141  C2'       -4.9730   28.6510  -11.3660 C.3    66  A66         0.2309
   1142  O2'       -4.6280   28.2530  -12.6840 O.3    66  A66        -0.2156
   1143  C1'       -3.7400   29.2640  -10.7110 C.3    66  A66         0.2408
   1144  N1        -3.4420   26.0080   -6.7440 N.ar   66  A66        -0.2040
   1145  C2        -3.3190   25.8330   -8.0660 C.ar   66  A66         0.2016
   1146  N3        -3.4080   26.7320   -9.0430 N.ar   66  A66        -0.2048
   1147  C4        -3.6550   27.9550   -8.5430 C.ar   66  A66         0.1692
   1148  C5        -3.8060   28.2930   -7.2110 C.ar   66  A66         0.1518
   1149  C6        -3.6900   27.2510   -6.2750 C.ar   66  A66         0.1919
   1150  N6        -3.8110   27.4240   -4.9570 N.pl3  66  A66        -0.1054
   1151  N7        -4.0500   29.6530   -7.0740 N.ar   66  A66        -0.2193
   1152  C8        -4.0460   30.0970   -8.3060 C.ar   66  A66         0.1816
   1153  N9        -3.8030   29.1250   -9.2450 N.ar   66  A66        -0.2693
   1154  OP1       -3.5750   35.3890  -12.8680 O.2    66  A66        -0.5172
   1155  OP2       -4.6600   35.1540  -10.5490 O.co2  66  A66        -0.4373
   1156  P         -8.5020   29.6660  -11.7460 P.3    67  C67         0.2141
   1157  C5'       -8.4730   27.2880  -10.6330 C.3    67  C67         0.1812
   1158  O5'       -8.8640   28.1140  -11.7210 O.3    67  C67        -0.3114
   1159  C4'       -7.4580   26.2560  -11.0590 C.3    67  C67         0.1773
   1160  O4'       -6.5380   25.9930   -9.9690 O.3    67  C67        -0.3307
   1161  C3'       -7.9970   24.8840  -11.4350 C.3    67  C67         0.1860
   1162  O3'       -8.4900   24.8360  -12.7630 O.3    67  C67        -0.3112
   1163  C2'       -6.7930   23.9790  -11.2040 C.3    67  C67         0.2309
   1164  O2'       -5.8910   24.0560  -12.2980 O.3    67  C67        -0.2156
   1165  C1'       -6.1350   24.6430   -9.9930 C.3    67  C67         0.2420
   1166  N1        -6.5270   24.0130   -8.7110 N.ar   67  C67        -0.2535
   1167  C2        -5.9270   22.8070   -8.3370 C.ar   67  C67         0.3532
   1168  O2        -5.0940   22.2880   -9.0940 O.2    67  C67        -0.2443
   1169  N3        -6.2740   22.2310   -7.1620 N.ar   67  C67        -0.1739
   1170  C4        -7.1740   22.8170   -6.3700 C.ar   67  C67         0.1759
   1171  N4        -7.4820   22.2110   -5.2210 N.pl3  67  C67        -0.1070
   1172  C5        -7.7950   24.0500   -6.7230 C.ar   67  C67         0.0566
   1173  C6        -7.4430   24.6080   -7.8890 C.ar   67  C67         0.0850
   1174  OP1       -9.3810   30.3170  -12.7500 O.2    67  C67        -0.5172
   1175  OP2       -8.4930   30.1600  -10.3460 O.co2  67  C67        -0.4373
   1176  P         -9.6460   23.7950  -13.1660 P.3    68  U68         0.2141
   1177  C5'       -7.8970   22.1090  -14.1590 C.3    68  U68         0.1812
   1178  O5'       -8.9030   22.3870  -13.1970 O.3    68  U68        -0.3114
   1179  C4'       -7.2800   20.7560  -13.9200 C.3    68  U68         0.1773
   1180  O4'       -6.6240   20.7430  -12.6240 O.3    68  U68        -0.3307
   1181  C3'       -8.2540   19.5890  -13.8490 C.3    68  U68         0.1860
   1182  O3'       -8.6480   19.1130  -15.1240 O.3    68  U68        -0.3112
   1183  C2'       -7.4860   18.5670  -13.0240 C.3    68  U68         0.2309
   1184  O2'       -6.5140   17.9070  -13.8210 O.3    68  U68        -0.2156
   1185  C1'       -6.7590   19.4700  -12.0280 C.3    68  U68         0.2420
   1186  N1        -7.5060   19.6130  -10.7550 N.ar   68  U68        -0.2534
   1187  C2        -7.4770   18.5530   -9.8680 C.ar   68  U68         0.3546
   1188  O2        -6.8730   17.5170  -10.0880 O.2    68  U68        -0.2443
   1189  N3        -8.1800   18.7460   -8.7070 N.ar   68  U68        -0.1530
   1190  C4        -8.8970   19.8660   -8.3440 C.ar   68  U68         0.2846
   1191  O4        -9.4810   19.8850   -7.2580 O.2    68  U68        -0.2650
   1192  C5        -8.8790   20.9200   -9.3120 C.ar   68  U68         0.0814
   1193  C6        -8.2010   20.7620  -10.4540 C.ar   68  U68         0.0870
   1194  OP1      -10.0890   24.1060  -14.5500 O.2    68  U68        -0.5172
   1195  OP2      -10.6380   23.7550  -12.0620 O.co2  68  U68        -0.4373
   1196  P        -10.1050   18.4650  -15.3290 P.3    69  C69         0.2141
   1197  C5'       -9.0640   16.0690  -15.1420 C.3    69  C69         0.1812
   1198  O5'       -9.9880   17.0280  -14.6510 O.3    69  C69        -0.3114
   1199  C4'       -8.8290   14.9570  -14.1500 C.3    69  C69         0.1773
   1200  O4'       -8.3490   15.5020  -12.8940 O.3    69  C69        -0.3307
   1201  C3'      -10.0490   14.1420  -13.7560 C.3    69  C69         0.1860
   1202  O3'      -10.3770   13.1530  -14.7170 O.3    69  C69        -0.3112
   1203  C2'       -9.6410   13.5680  -12.4030 C.3    69  C69         0.2309
   1204  O2'       -8.7890   12.4450  -12.5700 O.3    69  C69        -0.2156
   1205  C1'       -8.8160   14.7160  -11.8190 C.3    69  C69         0.2420
   1206  N1        -9.6000   15.5760  -10.9010 N.ar   69  C69        -0.2535
   1207  C2        -9.8410   15.1430   -9.5910 C.ar   69  C69         0.3532
   1208  O2        -9.4050   14.0410   -9.2250 O.2    69  C69        -0.2443
   1209  N3       -10.5500   15.9300   -8.7490 N.ar   69  C69        -0.1739
   1210  C4       -11.0090   17.1100   -9.1690 C.ar   69  C69         0.1759
   1211  N4       -11.7030   17.8570   -8.3050 N.pl3  69  C69        -0.1070
   1212  C5       -10.7760   17.5790  -10.4940 C.ar   69  C69         0.0566
   1213  C6       -10.0730   16.7890  -11.3160 C.ar   69  C69         0.0850
   1214  OP1      -10.3110   18.2700  -16.7870 O.2    69  C69        -0.5172
   1215  OP2      -11.0860   19.2650  -14.5520 O.co2  69  C69        -0.4373
   1216  P        -11.8850   12.6110  -14.8510 P.3    70  U70         0.2141
   1217  C5'      -11.1460   10.4770  -13.5220 C.3    70  U70         0.1812
   1218  O5'      -12.0290   11.5830  -13.6440 O.3    70  U70        -0.3114
   1219  C4'      -11.2830    9.8070  -12.1780 C.3    70  U70         0.1773
   1220  O4'      -10.8550   10.7110  -11.1270 O.3    70  U70        -0.3307
   1221  C3'      -12.6940    9.4130  -11.7740 C.3    70  U70         0.1860
   1222  O3'      -13.1130    8.1960  -12.3650 O.3    70  U70        -0.3112
   1223  C2'      -12.6040    9.3560  -10.2550 C.3    70  U70         0.2309
   1224  O2'      -12.0090    8.1390   -9.8300 O.3    70  U70        -0.2156
   1225  C1'      -11.6290   10.4980   -9.9640 C.3    70  U70         0.2420
   1226  N1       -12.3190   11.7610   -9.6130 N.ar   70  U70        -0.2534
   1227  C2       -12.8930   11.8720   -8.3580 C.ar   70  U70         0.3546
   1228  O2       -12.8700   10.9780   -7.5290 O.2    70  U70        -0.2443
   1229  N3       -13.5030   13.0770   -8.1070 N.ar   70  U70        -0.1530
   1230  C4       -13.5910   14.1590   -8.9570 C.ar   70  U70         0.2846
   1231  O4       -14.1750   15.1770   -8.5840 O.2    70  U70        -0.2650
   1232  C5       -12.9720   13.9680  -10.2310 C.ar   70  U70         0.0814
   1233  C6       -12.3740   12.8060  -10.5030 C.ar   70  U70         0.0870
   1234  OP1      -11.9770   11.8400  -16.1180 O.2    70  U70        -0.5172
   1235  OP2      -12.8140   13.7450  -14.6130 O.co2  70  U70        -0.4373
   1236  P        -14.6390    8.0070  -12.8270 P.3    71  U71         0.2141
   1237  C5'      -15.0800    6.7590  -10.5680 C.3    71  U71         0.1812
   1238  O5'      -15.4270    7.8080  -11.4600 O.3    71  U71        -0.3114
   1239  C4'      -15.7450    6.9440   -9.2300 C.3    71  U71         0.1773
   1240  O4'      -15.1700    8.0900   -8.5520 O.3    71  U71        -0.3307
   1241  C3'      -17.2320    7.2500   -9.2770 C.3    71  U71         0.1860
   1242  O3'      -18.0290    6.0930   -9.4500 O.3    71  U71        -0.3112
   1243  C2'      -17.4670    7.9710   -7.9570 C.3    71  U71         0.2309
   1244  O2'      -17.5510    7.0410   -6.8870 O.3    71  U71        -0.2156
   1245  C1'      -16.1660    8.7600   -7.8070 C.3    71  U71         0.2420
   1246  N1       -16.2870   10.1470   -8.3150 N.ar   71  U71        -0.2534
   1247  C2       -16.8800   11.0870   -7.4940 C.ar   71  U71         0.3546
   1248  O2       -17.3090   10.8230   -6.3840 O.2    71  U71        -0.2443
   1249  N3       -16.9570   12.3530   -8.0200 N.ar   71  U71        -0.1530
   1250  C4       -16.5100   12.7680   -9.2560 C.ar   71  U71         0.2846
   1251  O4       -16.6480   13.9470   -9.5880 O.2    71  U71        -0.2650
   1252  C5       -15.9060   11.7390  -10.0450 C.ar   71  U71         0.0814
   1253  C6       -15.8170   10.4970   -9.5590 C.ar   71  U71         0.0870
   1254  OP1      -14.7370    6.7400  -13.5960 O.2    71  U71        -0.5172
   1255  OP2      -15.0970    9.2810  -13.4380 O.co2  71  U71        -0.4373
   1256  P        -19.4600    6.1990  -10.1740 P.3    72  G72         0.2141
   1257  C5'      -20.5840    6.2320   -7.8100 C.3    72  G72         0.1812
   1258  O5'      -20.3940    6.8610   -9.0690 O.3    72  G72        -0.3114
   1259  C4'      -21.3250    7.1330   -6.8570 C.3    72  G72         0.1773
   1260  O4'      -20.5070    8.2840   -6.5260 O.3    72  G72        -0.3307
   1261  C3'      -22.6130    7.7380   -7.3860 C.3    72  G72         0.1860
   1262  O3'      -23.7050    6.8360   -7.3260 O.3    72  G72        -0.3112
   1263  C2'      -22.7820    8.9760   -6.5120 C.3    72  G72         0.2309
   1264  O2'      -23.3100    8.6240   -5.2420 O.3    72  G72        -0.2156
   1265  C1'      -21.3280    9.4150   -6.3220 C.3    72  G72         0.2408
   1266  N1       -21.1290   14.4280   -7.2680 N.ar   72  G72        -0.1709
   1267  C2       -21.6220   13.7660   -6.1720 C.ar   72  G72         0.2606
   1268  N2       -22.1250   14.5360   -5.1960 N.pl3  72  G72        -0.0859
   1269  N3       -21.6180   12.4490   -6.0390 N.ar   72  G72        -0.1918
   1270  C4       -21.0730   11.8300   -7.1080 C.ar   72  G72         0.1723
   1271  C5       -20.5550   12.4010   -8.2520 C.ar   72  G72         0.1748
   1272  C6       -20.5650   13.8160   -8.3810 C.ar   72  G72         0.3023
   1273  O6       -20.1520   14.5100   -9.3180 O.2    72  G72        -0.2633
   1274  N7       -20.0900   11.4230   -9.1190 N.ar   72  G72        -0.2173
   1275  C8       -20.3300   10.2980   -8.5010 C.ar   72  G72         0.1817
   1276  N9       -20.9280   10.4700   -7.2750 N.ar   72  G72        -0.2693
   1277  OP1      -19.9560    4.8200  -10.4210 O.3    72  G72        -0.4373
   1278  OP2      -19.3420    7.1500  -11.3070 O.co2  72  G72        -0.5172
   1279  P        -24.9370    6.9770   -8.3490 P.3    73  A73         0.2141
   1280  C5'      -26.9430    8.6640   -8.2490 C.3    73  A73         0.1812
   1281  O5'      -25.5900    8.3700   -7.9480 O.3    73  A73        -0.3114
   1282  C4'      -27.3740    9.9300   -7.5570 C.3    73  A73         0.1773
   1283  O4'      -26.4310   10.9910   -7.8610 O.3    73  A73        -0.3307
   1284  C3'      -28.7200   10.4970   -7.9740 C.3    73  A73         0.1860
   1285  O3'      -29.8070    9.8640   -7.3220 O.3    73  A73        -0.3112
   1286  C2'      -28.5750   11.9720   -7.6290 C.3    73  A73         0.2309
   1287  O2'      -28.7380   12.1770   -6.2330 O.3    73  A73        -0.2156
   1288  C1'      -27.1110   12.2190   -7.9840 C.3    73  A73         0.2408
   1289  N1       -27.4940   16.2180  -11.2210 N.ar   73  A73        -0.2040
   1290  C2       -27.7350   16.0970   -9.9080 C.ar   73  A73         0.2016
   1291  N3       -27.6170   15.0280   -9.1250 N.ar   73  A73        -0.2048
   1292  C4       -27.1890   13.9680   -9.8330 C.ar   73  A73         0.1692
   1293  C5       -26.8990   13.9350  -11.1860 C.ar   73  A73         0.1518
   1294  C6       -27.0650   15.1330  -11.9020 C.ar   73  A73         0.1919
   1295  N6       -26.8200   15.2560  -13.2090 N.pl3  73  A73        -0.1054
   1296  N7       -26.4830   12.6670  -11.5680 N.ar   73  A73        -0.2193
   1297  C8       -26.5310   11.9730  -10.4580 C.ar   73  A73         0.1816
   1298  N9       -26.9510   12.6970   -9.3700 N.ar   73  A73        -0.2693
   1299  OP1      -25.9180    5.9050   -8.0460 O.3    73  A73        -0.4373
   1300  OP2      -24.3910    7.1070   -9.7230 O.co2  73  A73        -0.5172
   1301  P        -31.1970    9.6340   -8.0970 P.3    74  U74         0.2141
   1302  C5'      -32.0920   11.8540   -7.0220 C.3    74  U74         0.1812
   1303  O5'      -31.8300   11.0920   -8.1910 O.3    74  U74        -0.3114
   1304  C4'      -32.2990   13.3090   -7.3560 C.3    74  U74         0.1773
   1305  O4'      -31.0820   13.8530   -7.9310 O.3    74  U74        -0.3307
   1306  C3'      -33.3620   13.5970   -8.4030 C.3    74  U74         0.1860
   1307  O3'      -34.6750   13.6040   -7.8740 O.3    74  U74        -0.3112
   1308  C2'      -32.9190   14.9390   -8.9680 C.3    74  U74         0.2309
   1309  O2'      -33.2810   15.9990   -8.0950 O.3    74  U74        -0.2156
   1310  C1'      -31.4000   14.7880   -8.9400 C.3    74  U74         0.2420
   1311  N1       -30.8730   14.2890  -10.2300 N.ar   74  U74        -0.2534
   1312  C2       -30.7510   15.2020  -11.2570 C.ar   74  U74         0.3546
   1313  O2       -31.0530   16.3760  -11.1310 O.2    74  U74        -0.2443
   1314  N3       -30.2600   14.6920  -12.4330 N.ar   74  U74        -0.1530
   1315  C4       -29.8850   13.3880  -12.6810 C.ar   74  U74         0.2846
   1316  O4       -29.4580   13.0840  -13.7960 O.2    74  U74        -0.2650
   1317  C5       -30.0430   12.5010  -11.5680 C.ar   74  U74         0.0814
   1318  C6       -30.5190   12.9710  -10.4100 C.ar   74  U74         0.0870
   1319  OP1      -32.0760    8.8120   -7.2280 O.3    74  U74        -0.4373
   1320  OP2      -30.8890    9.1750   -9.4760 O.co2  74  U74        -0.5172
   1321  P        -35.8900   13.0140   -8.7400 P.3    75  U75         0.2141
   1322  C5'      -36.4380   15.4560   -9.5140 C.3    75  U75         0.1812
   1323  O5'      -36.1280   14.1170   -9.8630 O.3    75  U75        -0.3114
   1324  C4'      -36.3700   16.3610  -10.7160 C.3    75  U75         0.1773
   1325  O4'      -34.9970   16.4630  -11.1780 O.3    75  U75        -0.3307
   1326  C3'      -37.1320   15.8880  -11.9420 C.3    75  U75         0.1860
   1327  O3'      -38.5210   16.1510  -11.8710 O.3    75  U75        -0.3112
   1328  C2'      -36.4200   16.6150  -13.0740 C.3    75  U75         0.2309
   1329  O2'      -36.8360   17.9710  -13.1390 O.3    75  U75        -0.2156
   1330  C1'      -34.9710   16.5810  -12.5860 C.3    75  U75         0.2420
   1331  N1       -34.2160   15.4370  -13.1500 N.ar   75  U75        -0.2534
   1332  C2       -33.7450   15.5610  -14.4430 C.ar   75  U75         0.3546
   1333  O2       -33.9270   16.5580  -15.1200 O.2    75  U75        -0.2443
   1334  N3       -33.0510   14.4750  -14.9200 N.ar   75  U75        -0.1530
   1335  C4       -32.7850   13.3000  -14.2490 C.ar   75  U75         0.2846
   1336  O4       -32.1450   12.4110  -14.8140 O.2    75  U75        -0.2650
   1337  C5       -33.3060   13.2470  -12.9160 C.ar   75  U75         0.0814
   1338  C6       -33.9850   14.2900  -12.4250 C.ar   75  U75         0.0870
   1339  OP1      -37.0940   12.9660   -7.8730 O.3    75  U75        -0.4373
   1340  OP2      -35.4180   11.7810   -9.4200 O.co2  75  U75        -0.5172
   1341  P        -39.5630   15.1430  -12.5640 P.3    76  A76         0.2141
   1342  C5'      -39.7600   16.8090  -14.5760 C.3    76  A76         0.1812
   1343  O5'      -39.4640   15.5010  -14.1120 O.3    76  A76        -0.3114
   1344  C4'      -39.3930   16.9720  -16.0290 C.3    76  A76         0.1773
   1345  O4'      -37.9510   16.9220  -16.1830 O.3    76  A76        -0.3307
   1346  C3'      -39.9020   15.8910  -16.9670 C.3    76  A76         0.1860
   1347  O3'      -41.2550   16.0850  -17.3390 O.3    76  A76        -0.3112
   1348  C2'      -38.9270   15.9780  -18.1340 C.3    76  A76         0.2309
   1349  O2'      -39.2590   17.0660  -18.9840 O.3    76  A76        -0.2156
   1350  C1'      -37.6200   16.3130  -17.4120 C.3    76  A76         0.2408
   1351  N1       -34.3230   12.8740  -19.3600 N.ar   76  A76        -0.2040
   1352  C2       -34.9430   13.9330  -19.8960 C.ar   76  A76         0.2016
   1353  N3       -35.7930   14.7870  -19.3300 N.ar   76  A76        -0.2048
   1354  C4       -35.9970   14.4640  -18.0410 C.ar   76  A76         0.1692
   1355  C5       -35.4340   13.4080  -17.3480 C.ar   76  A76         0.1518
   1356  C6       -34.5510   12.5770  -18.0620 C.ar   76  A76         0.1919
   1357  N6       -33.9330   11.5190  -17.5310 N.pl3  76  A76        -0.1054
   1358  N7       -35.8810   13.3900  -16.0330 N.ar   76  A76        -0.2193
   1359  C8       -36.6880   14.4210  -15.9610 C.ar   76  A76         0.1816
   1360  N9       -36.8060   15.1130  -17.1410 N.ar   76  A76        -0.2693
   1361  OP1      -40.9300   15.4880  -12.0980 O.3    76  A76        -0.4373
   1362  OP2      -39.0520   13.7610  -12.3840 O.co2  76  A76        -0.5172
   1363  P        -42.2480   14.8300  -17.4890 P.3    77  U77         0.2141
   1364  C5'      -41.8520   14.8940  -20.0760 C.3    77  U77         0.1812
   1365  O5'      -41.8070   14.1590  -18.8630 O.3    77  U77        -0.3114
   1366  C4'      -41.1990   14.1330  -21.2020 C.3    77  U77         0.1773
   1367  O4'      -39.7580   14.1250  -21.0220 O.3    77  U77        -0.3307
   1368  C3'      -41.5600   12.6610  -21.3030 C.3    77  U77         0.1860
   1369  O3'      -42.8130   12.4310  -21.9180 O.3    77  U77        -0.3112
   1370  C2'      -40.3770   12.0850  -22.0690 C.3    77  U77         0.2309
   1371  O2'      -40.4840   12.3750  -23.4540 O.3    77  U77        -0.2156
   1372  C1'      -39.2230   12.9040  -21.4910 C.3    77  U77         0.2420
   1373  N1       -38.5660   12.2030  -20.3630 N.ar   77  U77        -0.2534
   1374  C2       -37.5900   11.2800  -20.6820 C.ar   77  U77         0.3546
   1375  O2       -37.2570   11.0430  -21.8300 O.2    77  U77        -0.2443
   1376  N3       -37.0130   10.6500  -19.6080 N.ar   77  U77        -0.1530
   1377  C4       -37.3120   10.8410  -18.2750 C.ar   77  U77         0.2846
   1378  O4       -36.7030   10.1950  -17.4220 O.2    77  U77        -0.2650
   1379  C5       -38.3360   11.8090  -18.0260 C.ar   77  U77         0.0814
   1380  C6       -38.9140   12.4400  -19.0530 C.ar   77  U77         0.0870
   1381  OP1      -43.6220   15.3670  -17.6610 O.2    77  U77        -0.5172
   1382  OP2      -41.9730   13.8660  -16.3950 O.co2  77  U77        -0.4373
   1383  P        -43.7230   11.1980  -21.4360 P.3    78  C78         0.2141
   1384  C5'      -42.8920    9.8910  -23.5450 C.3    78  C78         0.1812
   1385  O5'      -43.0520    9.9340  -22.1360 O.3    78  C78        -0.3114
   1386  C4'      -41.8970    8.8390  -23.9680 C.3    78  C78         0.1773
   1387  O4'      -40.5740    9.1650  -23.4670 O.3    78  C78        -0.3307
   1388  C3'      -42.1400    7.4320  -23.4490 C.3    78  C78         0.1860
   1389  O3'      -43.1560    6.7420  -24.1540 O.3    78  C78        -0.3112
   1390  C2'      -40.7620    6.7980  -23.5820 C.3    78  C78         0.2309
   1391  O2'      -40.5040    6.4430  -24.9330 O.3    78  C78        -0.2156
   1392  C1'      -39.8550    7.9740  -23.2120 C.3    78  C78         0.2420
   1393  N1       -39.4560    7.9390  -21.7850 N.ar   78  C78        -0.2535
   1394  C2       -38.3550    7.1530  -21.4230 C.ar   78  C78         0.3532
   1395  O2       -37.7500    6.5210  -22.3020 O.2    78  C78        -0.2443
   1396  N3       -37.9720    7.1020  -20.1250 N.ar   78  C78        -0.1739
   1397  C4       -38.6450    7.7940  -19.2050 C.ar   78  C78         0.1759
   1398  N4       -38.2330    7.7140  -17.9370 N.pl3  78  C78        -0.1070
   1399  C5       -39.7720    8.6000  -19.5440 C.ar   78  C78         0.0566
   1400  C6       -40.1390    8.6420  -20.8320 C.ar   78  C78         0.0850
   1401  OP1      -45.0830   11.3790  -22.0050 O.2    78  C78        -0.5172
   1402  OP2      -43.5550   11.0510  -19.9680 O.co2  78  C78        -0.4373
   1403  P        -43.9480    5.5360  -23.4450 P.3    79  U79         0.2141
   1404  C5'      -42.5270    3.8490  -24.8590 C.3    79  U79         0.1812
   1405  O5'      -42.9570    4.2960  -23.5830 O.3    79  U79        -0.3114
   1406  C4'      -41.3810    2.8750  -24.7490 C.3    79  U79         0.1773
   1407  O4'      -40.2220    3.5350  -24.1790 O.3    79  U79        -0.3307
   1408  C3'      -41.6050    1.6810  -23.8370 C.3    79  U79         0.1860
   1409  O3'      -42.3730    0.6550  -24.4400 O.3    79  U79        -0.3112
   1410  C2'      -40.1830    1.2610  -23.4910 C.3    79  U79         0.2309
   1411  O2'      -39.6020    0.5290  -24.5590 O.3    79  U79        -0.2156
   1412  C1'      -39.4820    2.6170  -23.3990 C.3    79  U79         0.2420
   1413  N1       -39.4110    3.1140  -22.0050 N.ar   79  U79        -0.2534
   1414  C2       -38.3900    2.6250  -21.2130 C.ar   79  U79         0.3546
   1415  O2       -37.5690    1.8200  -21.6180 O.2    79  U79        -0.2443
   1416  N3       -38.3630    3.1130  -19.9300 N.ar   79  U79        -0.1530
   1417  C4       -39.2350    4.0210  -19.3680 C.ar   79  U79         0.2846
   1418  O4       -39.0790    4.3640  -18.1950 O.2    79  U79        -0.2650
   1419  C5       -40.2650    4.4800  -20.2490 C.ar   79  U79         0.0814
   1420  C6       -40.3160    4.0210  -21.5050 C.ar   79  U79         0.0870
   1421  OP1      -45.1630    5.2460  -24.2480 O.2    79  U79        -0.5172
   1422  OP2      -44.0810    5.8560  -22.0000 O.co2  79  U79        -0.4373
   1423  P        -43.3660   -0.2360  -23.5450 P.3    80  U80         0.2141
   1424  C5'      -41.5400   -2.1160  -23.4880 C.3    80  U80         0.1812
   1425  O5'      -42.3940   -1.2350  -22.7740 O.3    80  U80        -0.3114
   1426  C4'      -40.4870   -2.7150  -22.5910 C.3    80  U80         0.1773
   1427  O4'      -39.6110   -1.6710  -22.0880 O.3    80  U80        -0.3307
   1428  C3'      -40.9920   -3.4020  -21.3330 C.3    80  U80         0.1860
   1429  O3'      -41.4850   -4.7100  -21.5680 O.3    80  U80        -0.3112
   1430  C2'      -39.7720   -3.3590  -20.4230 C.3    80  U80         0.2309
   1431  O2'      -38.8360   -4.3610  -20.7910 O.3    80  U80        -0.2156
   1432  C1'      -39.1830   -1.9940  -20.7800 C.3    80  U80         0.2420
   1433  N1       -39.6400   -0.9350  -19.8520 N.ar   80  U80        -0.2534
   1434  C2       -39.0270   -0.8630  -18.6160 C.ar   80  U80         0.3546
   1435  O2       -38.1390   -1.6240  -18.2720 O.2    80  U80        -0.2443
   1436  N3       -39.4910    0.1330  -17.7930 N.ar   80  U80        -0.1530
   1437  C4       -40.4840    1.0470  -18.0740 C.ar   80  U80         0.2846
   1438  O4       -40.7880    1.8880  -17.2260 O.2    80  U80        -0.2650
   1439  C5       -41.0690    0.9080  -19.3720 C.ar   80  U80         0.0814
   1440  C6       -40.6390   -0.0540  -20.1950 C.ar   80  U80         0.0870
   1441  OP1      -44.2230   -1.0350  -24.4580 O.2    80  U80        -0.5172
   1442  OP2      -43.9950    0.6550  -22.5360 O.co2  80  U80        -0.4373
   1443  P        -42.6670   -5.3000  -20.6530 P.3    81  C81         0.2141
   1444  C5'      -40.8760   -6.6740  -19.3220 C.3    81  C81         0.1812
   1445  O5'      -41.9310   -5.7240  -19.3060 O.3    81  C81        -0.3114
   1446  C4'      -40.1680   -6.7360  -17.9930 C.3    81  C81         0.1773
   1447  O4'      -39.4980   -5.4750  -17.7320 O.3    81  C81        -0.3307
   1448  C3'      -41.0570   -6.9370  -16.7750 C.3    81  C81         0.1860
   1449  O3'      -41.4370   -8.2870  -16.5810 O.3    81  C81        -0.3112
   1450  C2'      -40.2050   -6.3690  -15.6480 C.3    81  C81         0.2309
   1451  O2'      -39.2000   -7.2950  -15.2630 O.3    81  C81        -0.2156
   1452  C1'      -39.5320   -5.1890  -16.3490 C.3    81  C81         0.2420
   1453  N1       -40.2750   -3.9240  -16.1450 N.ar   81  C81        -0.2535
   1454  C2       -40.1100   -3.2330  -14.9410 C.ar   81  C81         0.3532
   1455  O2       -39.3470   -3.6980  -14.0810 O.2    81  C81        -0.2443
   1456  N3       -40.7850   -2.0780  -14.7430 N.ar   81  C81        -0.1739
   1457  C4       -41.5970   -1.6070  -15.6910 C.ar   81  C81         0.1759
   1458  N4       -42.2410   -0.4620  -15.4510 N.pl3  81  C81        -0.1070
   1459  C5       -41.7840   -2.2890  -16.9270 C.ar   81  C81         0.0566
   1460  C6       -41.1100   -3.4310  -17.1090 C.ar   81  C81         0.0850
   1461  OP1      -43.1780   -6.5340  -21.3000 O.2    81  C81        -0.5172
   1462  OP2      -43.6060   -4.1940  -20.3360 O.co2  81  C81        -0.4373
   1463  P        -42.8800   -8.6350  -15.9650 P.3    82  C82         0.2141
   1464  C5'      -41.7050   -9.1700  -13.6860 C.3    82  C82         0.1812
   1465  O5'      -42.6870   -8.4310  -14.3980 O.3    82  C82        -0.3114
   1466  C4'      -41.5080   -8.6330  -12.2920 C.3    82  C82         0.1773
   1467  O4'      -40.9110   -7.3120  -12.3480 O.3    82  C82        -0.3307
   1468  C3'      -42.7690   -8.4300  -11.4690 C.3    82  C82         0.1860
   1469  O3'      -43.2550   -9.6300  -10.8930 O.3    82  C82        -0.3112
   1470  C2'      -42.3300   -7.3920  -10.4440 C.3    82  C82         0.2309
   1471  O2'      -41.5690   -8.0000   -9.4110 O.3    82  C82        -0.2156
   1472  C1'      -41.3940   -6.5200  -11.2830 C.3    82  C82         0.2420
   1473  N1       -42.0870   -5.3380  -11.8450 N.ar   82  C82        -0.2535
   1474  C2       -42.3120   -4.2300  -11.0220 C.ar   82  C82         0.3532
   1475  O2       -41.9260   -4.2640   -9.8440 O.2    82  C82        -0.2443
   1476  N3       -42.9460   -3.1470  -11.5300 N.ar   82  C82        -0.1739
   1477  C4       -43.3470   -3.1430  -12.8030 C.ar   82  C82         0.1759
   1478  N4       -43.9660   -2.0520  -13.2610 N.pl3  82  C82        -0.1070
   1479  C5       -43.1310   -4.2570  -13.6640 C.ar   82  C82         0.0566
   1480  C6       -42.5030   -5.3200  -13.1480 C.ar   82  C82         0.0850
   1481  OP1      -43.1500  -10.0750  -16.2110 O.3    82  C82        -0.4373
   1482  OP2      -43.8460   -7.6150  -16.4440 O.co2  82  C82        -0.5172
   1483  P        -44.8370   -9.8810  -10.7580 P.3    83  C83         0.2141
   1484  C5'      -44.7220   -9.3240   -8.1970 C.3    83  C83         0.1813
   1485  O5'      -45.2550   -9.0280   -9.4800 O.3    83  C83        -0.3114
   1486  C4'      -45.0300   -8.2300   -7.2060 C.3    83  C83         0.1801
   1487  O4'      -44.3690   -7.0040   -7.6120 O.3    83  C83        -0.3306
   1488  C3'      -46.4950   -7.8370   -7.0850 C.3    83  C83         0.2161
   1489  O3'      -47.2390   -8.7080   -6.2500 O.3    83  C83        -0.2175
   1490  C2'      -46.4170   -6.4080   -6.5640 C.3    83  C83         0.2338
   1491  O2'      -46.1580   -6.3970   -5.1680 O.3    83  C83        -0.2155
   1492  C1'      -45.1740   -5.8890   -7.2900 C.3    83  C83         0.2421
   1493  N1       -45.5150   -5.1710   -8.5410 N.ar   83  C83        -0.2535
   1494  C2       -45.8880   -3.8270   -8.4620 C.ar   83  C83         0.3532
   1495  O2       -45.9240   -3.2780   -7.3510 O.2    83  C83        -0.2443
   1496  N3       -46.2000   -3.1600   -9.5980 N.ar   83  C83        -0.1739
   1497  C4       -46.1500   -3.7830  -10.7770 C.ar   83  C83         0.1759
   1498  N4       -46.4680   -3.0850  -11.8690 N.pl3  83  C83        -0.1070
   1499  C5       -45.7730   -5.1520  -10.8880 C.ar   83  C83         0.0566
   1500  C6       -45.4670   -5.7990   -9.7570 C.ar   83  C83         0.0850
   1501  OP1      -45.0410  -11.3170  -10.4410 O.3    83  C83        -0.4373
   1502  OP2      -45.5100   -9.2890  -11.9430 O.co2  83  C83        -0.5172
@<TRIPOS>BOND
     1   771   770    2
     2   769   770   ar
     3   769   767   ar
     4   770   772   ar
     5   768   767    2
     6   767   766   ar
     7   772   773   ar
     8   766   773   ar
     9   766   765    1
    10   765   760    1
    11   765   763    1
    12   760   759    1
    13   763   764    1
    14   763   761    1
    15   759   757    1
    16   759   761    1
    17   758   757    1
    18   758   756    1
    19   199   179    2
    20   754   736    2
    21   775   756    2
    22   762   761    1
    23   762   776    1
    24   165   179    1
    25   165   164    1
    26   756   774    1
    27   756   742    1
    28   160   162    1
    29   160   161    1
    30   177   159    2
    31   162   164    1
    32   162   163    1
    33   179   200    1
    34   179   181    1
    35   167   166    1
    36   734   713    2
    37   736   755    1
    38   736   738    1
    39   736   719    1
    40   795   776    2
    41   145   144    1
    42   776   794    1
    43   776   778    1
    44   164   166    1
    45   180   181    1
    46   180   182    1
    47   143   159    1
    48   143   142    1
    49   161   159    1
    50   163   168    1
    51   737   738    1
    52   737   739    1
    53   159   178    1
    54   741   742    1
    55   741   739    1
    56   741   743    1
    57   220   201    2
    58   719   718    1
    59   166   168    1
    60   219   201    1
    61  1391  1390    1
    62  1404  1406    1
    63  1404  1405    1
    64   714   716    1
    65   714   715    1
    66  1406  1407    1
    67  1406  1408    1
    68   739   740    1
    69   168   169    1
    70  1411  1410    1
    71   713   697    1
    72   713   715    1
    73   713   735    1
    74  1441  1423    2
    75   201   185    1
    76   201   203    1
    77  1409  1408    1
    78  1409  1423    1
    79   182   184    1
    80   182   183    1
    81   144   142    1
    82   144   146    1
    83   778   777    1
    84   142   140    1
    85   140   138    1
    86   140   141    1
    87  1421  1403    2
    88   697   696    1
    89  1407  1412    1
    90   185   184    1
    91   716   718    1
    92   716   717    1
    93  1389  1388    1
    94  1389  1403    1
    95   743   744    1
    96   743   745    1
    97  1386  1384    1
    98  1386  1387    1
    99  1386  1388    1
   100   718   720    1
   101   777   779    1
   102  1408  1410    1
   103   138   139    1
   104   699   698    1
   105  1405  1403    1
   106  1390  1388    1
   107  1390  1392    1
   108   184   186    1
   109  1423  1425    1
   110  1423  1442    1
   111  1384  1385    1
   112   146   141    1
   113   146   156    1
   114   183   188    1
   115  1410  1412    1
   116  1424  1425    1
   117  1424  1426    1
   118  1387  1392    1
   119  1371  1370    1
   120  1403  1422    1
   121  1412  1413    1
   122   721   720    1
   123   740   745    1
   124  1392  1393    1
   125   169   176   ar
   126   169   170   ar
   127   792   793   ar
   128   792   790   ar
   129   203   202    1
   130   696   694    1
   131   696   698    1
   132   745   746    1
   133   717   722    1
   134   793   786   ar
   135   720   722    1
   136   176   175   ar
   137   202   204    1
   138   694   692    1
   139   694   695    1
   140  1426  1427    1
   141  1426  1428    1
   142   698   700    1
   143   791   790    2
   144   171   170    2
   145   149   148   ar
   146   149   150   ar
   147   139   137    1
   148   779   780    1
   149   779   781    1
   150   187   186    1
   151   790   789   ar
   152  1395  1394    2
   153   122   121    1
   154   186   188    1
   155   692   693    1
   156   780   785    1
   157   170   172   ar
   158   188   198    1
   159   156   150   ar
   160   156   155   ar
   161  1385  1383    1
   162  1427  1432    1
   163  1370  1372    1
   164  1370  1368    1
   165   157   137    2
   166  1413  1420   ar
   167  1413  1414   ar
   168  1401  1383    2
   169   753   746   ar
   170   753   752   ar
   171   722   733    1
   172  1369  1383    1
   173  1369  1368    1
   174  1375  1374    2
   175  1393  1394   ar
   176  1393  1400   ar
   177   746   747   ar
   178   126   125    1
   179   148   147   ar
   180   150   151   ar
   181   241   221    2
   182   786   785    1
   183   786   787   ar
   184  1415  1414    2
   185  1429  1428    1
   186  1429  1443    1
   187   781   783    1
   188   781   782    1
   189   711   691    2
   190  1420  1419   ar
   191   175   173   ar
   192  1372  1367    1
   193  1372  1373    1
   194   695   700    1
   195  1383  1402    1
   196  1394  1396   ar
   197   700   710    1
   198   783   785    1
   199   783   784    1
   200   197   198   ar
   201   197   196   ar
   202   137   120    1
   203   137   158    1
   204   238   239   ar
   205   238   235   ar
   206   239   240   ar
   207  1428  1430    1
   208   204   206    1
   209   204   205    1
   210  1368  1366    1
   211  1461  1443    2
   212   120   119    1
   213   198   192   ar
   214  1414  1416   ar
   215   789   787   ar
   216  1366  1367    1
   217  1366  1364    1
   218   693   691    1
   219   121   119    1
   220   121   123    1
   221   155   154   ar
   222   752   750   ar
   223   732   733   ar
   224   732   731   ar
   225   172   173   ar
   226   733   727   ar
   227   787   788    2
   228  1400  1399   ar
   229   206   208    1
   230   206   207    1
   231  1431  1430    1
   232  1432  1430    1
   233  1432  1433    1
   234  1374  1373   ar
   235  1374  1376   ar
   236  1443  1462    1
   237  1443  1445    1
   238   127   125   ar
   239   127   128   ar
   240   125   124   ar
   241   218   217   ar
   242   218   211   ar
   243   293   292    1
   244   217   215   ar
   245   747   748    2
   246   747   749   ar
   247   205   210    1
   248   691   674    1
   249   691   712    1
   250   173   174    2
   251   147   152   ar
   252   313   312    1
   253   119   117    1
   254   151   154   ar
   255   151   152   ar
   256  1373  1380   ar
   257   676   675    1
   258   196   193   ar
   259   814   796    2
   260   782   796    1
   261  1419  1417   ar
   262   221   223    1
   263   221   207    1
   264   221   242    1
   265  1440  1433   ar
   266  1440  1439   ar
   267   240   230    1
   268   240   234   ar
   269   208   210    1
   270   208   209    1
   271   225   230    1
   272   225   224    1
   273   237   236    1
   274  1396  1397   ar
   275   235   236   ar
   276   235   234   ar
   277   710   704   ar
   278   710   709   ar
   279   308   306    1
   280   308   309    1
   281   308   310    1
   282   703   704   ar
   283   703   702   ar
   284   123   118    1
   285   123   134    1
   286  1364  1365    1
   287   674   673    1
   288   223   222    1
   289   192   193   ar
   290   192   191   ar
   291  1416  1417   ar
   292   230   228    1
   293   306   307    1
   294  1352  1351   ar
   295  1352  1353   ar
   296  1433  1434   ar
   297   731   728   ar
   298   309   314    1
   299   117   118    1
   300   117   115    1
   301   152   153    1
   302   311   310    1
   303   311   325    1
   304   750   749   ar
   305   750   751    2
   306  1376  1377   ar
   307   727   726   ar
   308   727   728   ar
   309   210   211    1
   310   704   705   ar
   311   796   815    1
   312   796   798    1
   313  1399  1397   ar
   314   236   231   ar
   315   124   130   ar
   316   211   212   ar
   317   128   134   ar
   318   128   129   ar
   319   193   194   ar
   320   191   190   ar
   321  1439  1437   ar
   322   234   233   ar
   323  1417  1418    2
   324  1351  1356   ar
   325  1353  1354   ar
   326  1444  1445    1
   327  1444  1446    1
   328   215   216    2
   329   215   214   ar
   330   343   325    2
   331   702   701   ar
   332   314   312    1
   333   314   315    1
   334   312   310    1
   335   709   708   ar
   336  1397  1398    1
   337   292   294    1
   338   292   290    1
   339   675   673    1
   340   675   677    1
   341   134   133   ar
   342   726   724   ar
   343  1380  1379   ar
   344   294   289    1
   345   294   295    1
   346   288   289    1
   347   288   290    1
   348   288   286    1
   349  1349  1348    1
   350   224   222    1
   351   224   226    1
   352   728   729   ar
   353   291   290    1
   354   291   305    1
   355   326   328    1
   356   326   327    1
   357   673   671    1
   358  1365  1363    1
   359   680   679    1
   360   297   296    2
   361  1434  1435    2
   362  1434  1436   ar
   363   229   228    1
   364   273   272    1
   365   325   327    1
   366   325   344    1
   367   115   116    1
   368   307   305    1
   369   323   305    2
   370   228   226    1
   371   277   276    2
   372   705   708   ar
   373   705   706   ar
   374   103   102   ar
   375   103   104   ar
   376  1377  1379   ar
   377  1377  1378    2
   378   129   130   ar
   379   129   132   ar
   380   231   232   ar
   381   130   131    2
   382   671   672    1
   383   671   669    1
   384   328   329    1
   385   328   330    1
   386   212   214   ar
   387   212   213    2
   388   286   287    1
   389  1348  1350    1
   390  1348  1346    1
   391   190   189   ar
   392   233   232   ar
   393   798   797    1
   394   701   706   ar
   395   305   324    1
   396  1437  1436   ar
   397  1437  1438    2
   398  1356  1357    1
   399  1356  1355   ar
   400   194   189   ar
   401   194   195    1
   402  1354  1355   ar
   403  1354  1360   ar
   404   681   679   ar
   405   681   682   ar
   406  1446  1447    1
   407  1446  1448    1
   408   677   672    1
   409   677   688    1
   410   797   799    1
   411   329   334    1
   412   102   107   ar
   413   315   316   ar
   414   315   322   ar
   415   226   227    1
   416   317   316    2
   417   133   132   ar
   418   679   678   ar
   419   724   725    1
   420   724   723   ar
   421   295   296   ar
   422   295   302   ar
   423  1447  1452    1
   424   296   298   ar
   425  1381  1363    2
   426   104   105   ar
   427   729   723   ar
   428   729   730    2
   429   706   707    1
   430   812   813   ar
   431   812   810   ar
   432   116   114    1
   433  1363  1347    1
   434  1363  1382    1
   435   272   274    1
   436   272   270    1
   437  1350  1360    1
   438  1350  1345    1
   439   669   670    1
   440  1355  1358   ar
   441  1347  1346    1
   442   276   278   ar
   443   276   275   ar
   444   813   806   ar
   445   316   318   ar
   446   274   275    1
   447   274   269    1
   448   322   321   ar
   449  1360  1359   ar
   450   331   330    1
   451   331   345    1
   452  1460  1459   ar
   453  1460  1453   ar
   454   831   830    2
   455   100    99    1
   456   800   799    1
   457   800   805    1
   458   682   688   ar
   459   682   683   ar
   460  1346  1344    1
   461   330   332    1
   462  1459  1457   ar
   463   688   687   ar
   464   811   810    1
   465   365   345    2
   466  1214  1196    2
   467   287   285    1
   468  1448  1449    1
   469  1448  1450    1
   470   333   332    1
   471   227   243    1
   472   799   801    1
   473   334   332    1
   474   334   335    1
   475   810   809   ar
   476   678   684   ar
   477   302   301   ar
   478   278   279   ar
   479   298   299   ar
   480   107   108    1
   481   107   106   ar
   482  1449  1463    1
   483   275   282   ar
   484   852   851    1
   485  1482  1463    2
   486   269   268    1
   487   105   106   ar
   488   105   111   ar
   489  1452  1453    1
   490  1452  1450    1
   491   657   656    1
   492    99   101    1
   493    99    97    1
   494   670   668    1
   495   271   270    1
   496   271   285    1
   497  1481  1463    1
   498   270   268    1
   499  1345  1344    1
   500   135   114    2
   501   806   805    1
   502   806   807   ar
   503  1453  1454   ar
   504  1234  1216    2
   505   114    98    1
   506   114   136    1
   507   345   366    1
   508   345   347    1
   509  1358  1359   ar
   510   830   832   ar
   511   830   829   ar
   512  1344  1342    1
   513   318   319   ar
   514   321   319   ar
   515   268   266    1
   516  1463  1465    1
   517   805   803    1
   518   303   285    2
   519   683   684   ar
   520   683   686   ar
   521   342   335   ar
   522   342   341   ar
   523   106   109   ar
   524   846   851   ar
   525   846   847   ar
   526   285   304    1
   527   832   833   ar
   528   264   243    2
   529  1457  1458    1
   530  1457  1456   ar
   531   687   686   ar
   532   335   336   ar
   533  1450  1451    1
   534    98    97    1
   535   689   668    2
   536   809   807   ar
   537   684   685    2
   538   851   850   ar
   539   299   301   ar
   540   299   300    1
   541   101   111    1
   542   101    96    1
   543   801   802    1
   544   801   803    1
   545   835   816    2
   546   346   347    1
   547   346   348    1
   548   653   652    1
   549   243   245    1
   550   243   263    1
   551   319   320    1
   552   111   110   ar
   553  1196  1182    1
   554  1196  1198    1
   555  1196  1215    1
   556   807   808    2
   557   279   280    2
   558   279   281   ar
   559   282   281   ar
   560    97    95    1
   561   656   658   ar
   562   656   655   ar
   563    80    81   ar
   564    80    85   ar
   565  1197  1198    1
   566  1197  1199    1
   567  1182  1181    1
   568  1333  1332    2
   569   668   651    1
   570   668   690    1
   571   829   827   ar
   572   244   245    1
   573   244   246    1
   574  1454  1456   ar
   575  1454  1455    2
   576  1334  1332   ar
   577  1334  1335   ar
   578   341   339   ar
   579    81    82   ar
   580  1216  1202    1
   581  1216  1235    1
   582  1216  1218    1
   583  1336  1335    2
   584   658   659   ar
   585   847   848   ar
   586   802   816    1
   587   803   804    1
   588  1202  1201    1
   589  1342  1343    1
   590   336   337    2
   591   336   338   ar
   592   266   267    1
   593   833   826   ar
   594  1194  1176    2
   595   652   650    1
   596   652   654    1
   597    86    85    1
   598   109   110   ar
   599   651   650    1
   600   655   661   ar
   601  1332  1331   ar
   602  1465  1464    1
   603   870   869    2
   604   348   349    1
   605   348   350    1
   606   871   869   ar
   607   871   872   ar
   608   816   834    1
   609   816   818    1
   610   850   853   ar
   611   850   849   ar
   612  1335  1337   ar
   613    96    95    1
   614    85    84   ar
   615   873   872    1
   616  1177  1179    1
   617  1177  1178    1
   618  1199  1201    1
   619  1199  1200    1
   620    95    93    1
   621  1343  1341    1
   622   349   354    1
   623  1179  1181    1
   624  1179  1180    1
   625  1181  1183    1
   626   246   247    1
   627   246   248    1
   628   827   826   ar
   629   827   828    2
   630  1184  1183    1
   631  1316  1315    2
   632  1201  1203    1
   633   339   338   ar
   634   339   340    2
   635    82    83   ar
   636   853   854   ar
   637   650   648    1
   638   869   868   ar
   639  1464  1466    1
   640  1479  1480   ar
   641  1479  1477   ar
   642  1218  1217    1
   643   267   265    1
   644   659   665   ar
   645   659   660   ar
   646   826   825    1
   647  1254  1236    2
   648   872   874   ar
   649  1217  1219    1
   650   848   849   ar
   651    23     1    1
   652   654   665    1
   653   654   649    1
   654   247   252    1
   655  1255  1236    1
   656   849   855   ar
   657  1478  1477    1
   658   818   817    1
   659   661   660   ar
   660   661   662    2
   661  1295  1294    1
   662  1178  1176    1
   663  1176  1162    1
   664  1176  1195    1
   665  1331  1330    1
   666  1331  1338   ar
   667  1480  1473   ar
   668  1329  1328    1
   669  1328  1330    1
   670  1328  1326    1
   671    64    63    2
   672  1183  1185    1
   673   350   351    1
   674   350   352    1
   675   665   664   ar
   676    84    83   ar
   677    84    87   ar
   678  1337  1338   ar
   679   351   367    1
   680  1200  1205    1
   681   634   633    1
   682  1154  1134    2
   683  1236  1222    1
   684  1236  1238    1
   685  1477  1476   ar
   686   660   663   ar
   687    83    89   ar
   688  1162  1161    1
   689   363   364   ar
   690   363   362   ar
   691  1174  1156    2
   692    93    94    1
   693  1142  1141    1
   694  1315  1314   ar
   695  1315  1317   ar
   696   648   649    1
   697   648   646    1
   698   354   364    1
   699   354   352    1
   700  1180  1185    1
   701   387   367    2
   702  1330  1325    1
   703   249   248    1
   704   249   265    1
   705  1204  1203    1
   706  1341  1362    2
   707  1341  1361    1
   708  1341  1327    1
   709   248   250    1
   710   854   855   ar
   711  1314  1312   ar
   712   820   825    1
   713   820   819    1
   714  1203  1205    1
   715    18    17    2
   716    57    63   ar
   717    57    58   ar
   718  1222  1221    1
   719    94    92    1
   720  1467  1466    1
   721  1467  1472    1
   722   825   823    1
   723     1    22    1
   724     1     3    1
   725   868   867    1
   726   868   875   ar
   727  1164  1163    1
   728  1140  1156    1
   729  1140  1139    1
   730  1466  1468    1
   731  1136  1134    1
   732  1136  1135    1
   733   265   283    2
   734   265   284    1
   735   855   845    1
   736  1219  1221    1
   737  1219  1220    1
   738   364   358   ar
   739    63    62   ar
   740   874   875   ar
   741   362   359   ar
   742   261   262   ar
   743   261   260   ar
   744   252   250    1
   745   252   262    1
   746  1185  1186    1
   747   367   388    1
   748   367   369    1
   749   817   819    1
   750   352   353    1
   751    19    20   ar
   752    19    16   ar
   753   632   633   ar
   754   632   638   ar
   755  1502  1483    2
   756  1326  1327    1
   757  1326  1324    1
   758    41    40    2
   759  1294  1289   ar
   760  1294  1293   ar
   761   633   635   ar
   762  1498  1497    1
   763    59    58    1
   764  1473  1472    1
   765  1473  1474   ar
   766  1205  1206    1
   767   664   663   ar
   768  1221  1223    1
   769    87    88   ar
   770  1137  1139    1
   771  1137  1135    1
   772  1137  1138    1
   773  1156  1158    1
   774  1156  1175    1
   775  1158  1157    1
   776  1134  1118    1
   777  1134  1155    1
   778   867   865    1
   779   867   862    1
   780   866   865    1
   781  1296  1293   ar
   782  1296  1297   ar
   783  1317  1318   ar
   784  1476  1474   ar
   785    89    88   ar
   786    89    79    1
   787   250   251    1
   788  1468  1469    1
   789  1468  1470    1
   790  1238  1237    1
   791   262   256   ar
   792   819   821    1
   793  1161  1163    1
   794  1161  1159    1
   795    58    60   ar
   796   865   863    1
   797   646   647    1
   798  1139  1141    1
   799  1141  1143    1
   800    17    16   ar
   801    17    11   ar
   802    77    78    1
   803    77    79    1
   804    77    75    1
   805  1213  1206   ar
   806  1213  1212   ar
   807  1278  1256    2
   808  1472  1470    1
   809   260   257   ar
   810  1312  1313    2
   811  1312  1311   ar
   812    20    21   ar
   813  1289  1290   ar
   814  1163  1165    1
   815  1293  1292   ar
   816   639   638    2
   817  1325  1324    1
   818  1118  1117    1
   819   823   821    1
   820   823   824    1
   821  1220  1225    1
   822     3     2    1
   823    16    15   ar
   824   821   822    1
   825  1159  1157    1
   826  1159  1160    1
   827  1138  1143    1
   828  1474  1475    2
   829   358   359   ar
   830   358   357   ar
   831   638   637   ar
   832   359   360   ar
   833   845   840    1
   834   845   843    1
   835  1206  1207   ar
   836  1469  1483    1
   837  1499  1497   ar
   838  1499  1500   ar
   839   635   636   ar
   840    79    74    1
   841    92   113    2
   842    92   112    1
   843    92    76    1
   844   647   645    1
   845  1497  1496   ar
   846  1483  1501    1
   847  1483  1485    1
   848    62    65   ar
   849    62    61   ar
   850  1186  1193   ar
   851  1186  1187   ar
   852   857   836    2
   853  1324  1322    1
   854  1143  1153    1
   855    40    34   ar
   856    40    39   ar
   857   369   368    1
   858  1237  1239    1
   859  1233  1232   ar
   860  1233  1226   ar
   861  1212  1210   ar
   862  1297  1298   ar
   863  1193  1192   ar
   864  1470  1471    1
   865   862   861    1
   866  1277  1256    1
   867  1318  1311   ar
   868  1223  1225    1
   869  1223  1224    1
   870  1232  1230   ar
   871  1311  1310    1
   872    75    76    1
   873    75    73    1
   874  1256  1242    1
   875  1256  1258    1
   876    60    61   ar
   877   840   839    1
   878   256   257   ar
   879   256   255   ar
   880  1115  1117    1
   881  1115  1116    1
   882  1115  1113    1
   883    11    12   ar
   884   357   356   ar
   885  1018  1017    1
   886    34    35   ar
   887  1188  1187    2
   888    65    66   ar
   889   843   844    1
   890   843   841    1
   891   257   258   ar
   892  1252  1253   ar
   893  1252  1250   ar
   894  1117  1119    1
   895  1165  1160    1
   896  1165  1166    1
   897     2     4    1
   898  1225  1226    1
   899   863   861    1
   900   863   864    1
   901   636   637   ar
   902   636   642   ar
   903   637   640   ar
   904  1290  1291   ar
   905    21    15   ar
   906    21    10    1
   907    61    67   ar
   908  1187  1189   ar
   909   360   361    1
   910   360   355   ar
   911  1323  1322    1
   912  1323  1321    1
   913    42    39   ar
   914    42    43   ar
   915  1048  1030    2
   916  1292  1298   ar
   917  1292  1291   ar
   918    15    14   ar
   919   822   836    1
   920  1500  1493   ar
   921  1300  1279    2
   922  1031  1033    1
   923  1031  1032    1
   924    39    38   ar
   925  1226  1227   ar
   926  1496  1494   ar
   927  1016  1030    1
   928  1016  1015    1
   929  1207  1208    2
   930  1207  1209   ar
   931  1251  1250    2
   932  1068  1050    2
   933  1253  1246   ar
   934  1116  1121    1
   935   836   838    1
   936   836   856    1
   937   893   892    1
   938   838   837    1
   939  1113  1114    1
   940  1485  1484    1
   941  1320  1301    2
   942    74    73    1
   943  1242  1241    1
   944  1340  1321    2
   945   368   370    1
   946  1013  1011    1
   947  1013  1014    1
   948  1013  1015    1
   949  1298  1288    1
   950   861   859    1
   951   864   878    1
   952   645   666    2
   953   645   667    1
   954   645   628    1
   955  1273  1272    2
   956    46    24    2
   957  1192  1190   ar
   958  1241  1239    1
   959  1241  1243    1
   960     5     4    1
   961     5    10    1
   962  1250  1249   ar
   963  1153  1147   ar
   964  1153  1152   ar
   965  1239  1240    1
   966  1033  1034    1
   967  1033  1035    1
   968   630   629    1
   969   995   994    1
   970   255   254   ar
   971  1210  1209   ar
   972  1210  1211    1
   973   629   631    1
   974   629   627    1
   975   841   839    1
   976   841   842    1
   977  1274  1275   ar
   978  1274  1271   ar
   979   356   355   ar
   980  1098  1097    1
   981  1168  1167    2
   982  1121  1119    1
   983  1121  1131    1
   984   999   998    1
   985  1258  1257    1
   986  1124  1123   ar
   987  1124  1125   ar
   988  1146  1147   ar
   989  1146  1145   ar
   990  1011  1012    1
   991   371   370    1
   992   371   376    1
   993    73    71    1
   994  1308  1310    1
   995  1308  1306    1
   996  1308  1309    1
   997  1230  1231    2
   998  1230  1229   ar
   999  1310  1305    1
  1000   839   837    1
  1001     4     6    1
  1002  1030  1032    1
  1003  1030  1049    1
  1004    12    14   ar
  1005    12    13    1
  1006  1014  1019    1
  1007    66    67   ar
  1008  1015  1017    1
  1009  1119  1120    1
  1010   258   259    1
  1011   258   253   ar
  1012  1017  1019    1
  1013   385   384   ar
  1014   385   386   ar
  1015  1036  1050    1
  1016  1036  1035    1
  1017   640   641   ar
  1018   642   631    1
  1019   642   641   ar
  1020    10     8    1
  1021    35    36    1
  1022    35    37   ar
  1023  1321  1307    1
  1024  1321  1339    1
  1025  1123  1122   ar
  1026  1166  1167   ar
  1027  1166  1173   ar
  1028  1189  1190   ar
  1029    67    56    1
  1030    43    44   ar
  1031   894   892   ar
  1032   894   895   ar
  1033   892   891   ar
  1034     6     8    1
  1035     6     7    1
  1036   384   381   ar
  1037  1240  1245    1
  1038  1147  1148   ar
  1039  1493  1494   ar
  1040  1493  1492    1
  1041  1034  1039    1
  1042  1050  1069    1
  1043  1050  1052    1
  1044   370   372    1
  1045  1275  1276   ar
  1046  1494  1495    2
  1047  1019  1020    1
  1048   628   627    1
  1049  1306  1307    1
  1050  1306  1304    1
  1051   897   878    2
  1052   860   859    1
  1053   860   858    1
  1054  1272  1271   ar
  1055  1272  1266   ar
  1056    38    37   ar
  1057    38    44   ar
  1058  1227  1229   ar
  1059  1227  1228    2
  1060  1279  1299    1
  1061  1279  1281    1
  1062  1279  1262    1
  1063  1190  1191    2
  1064   631   626    1
  1065  1167  1169   ar
  1066  1246  1245    1
  1067  1246  1247   ar
  1068  1152  1151   ar
  1069  1271  1270   ar
  1070  1280  1281    1
  1071  1280  1282    1
  1072   627   625    1
  1073  1484  1486    1
  1074  1303  1301    1
  1075  1303  1302    1
  1076  1035  1037    1
  1077  1038  1037    1
  1078   878   896    1
  1079   878   880    1
  1080  1301  1285    1
  1081  1301  1319    1
  1082    72    71    1
  1083    72    70    1
  1084  1114  1112    1
  1085   877   858    2
  1086  1145  1144   ar
  1087   254   253   ar
  1088  1249  1247   ar
  1089  1288  1283    1
  1090  1288  1286    1
  1091     8     9    1
  1092  1284  1286    1
  1093  1284  1282    1
  1094  1284  1285    1
  1095  1125  1131   ar
  1096  1125  1126   ar
  1097  1243  1245    1
  1098  1243  1244    1
  1099  1000   998   ar
  1100  1000  1001   ar
  1101   998   997   ar
  1102  1305  1304    1
  1103  1131  1130   ar
  1104   386   376    1
  1105   386   380   ar
  1106   842   858    1
  1107  1173  1172   ar
  1108   376   374    1
  1109    24     7    1
  1110    24    26    1
  1111    24    45    1
  1112  1283  1282    1
  1113   994   996    1
  1114   994   992    1
  1115  1257  1259    1
  1116  1097  1099    1
  1117  1097  1095    1
  1118   617   616    2
  1119   891   889   ar
  1120    44    33    1
  1121   895   888   ar
  1122  1286  1287    1
  1123  1487  1492    1
  1124  1487  1486    1
  1125  1096  1112    1
  1126  1096  1095    1
  1127  1012  1010    1
  1128    91    70    2
  1129   858   876    1
  1130  1122  1127   ar
  1131  1247  1248    2
  1132  1028  1010    2
  1133   914   913    1
  1134  1039  1037    1
  1135  1039  1040    1
  1136   381   380   ar
  1137   381   382   ar
  1138    56    54    1
  1139    56    51    1
  1140  1132  1112    2
  1141    54    55    1
  1142    54    52    1
  1143   993  1010    1
  1144   993   992    1
  1145  1261  1262    1
  1146  1261  1259    1
  1147  1261  1263    1
  1148  1304  1302    1
  1149   996   991    1
  1150   996  1007    1
  1151  1492  1490    1
  1152  1276  1270   ar
  1153  1276  1265    1
  1154  1266  1267   ar
  1155  1148  1151   ar
  1156  1148  1149   ar
  1157  1486  1488    1
  1158   404   403    2
  1159  1022  1021    2
  1160    26    25    1
  1161  1169  1170   ar
  1162   976   975   ar
  1163   976   977   ar
  1164  1052  1051    1
  1165  1112  1133    1
  1166  1099  1094    1
  1167  1099  1109    1
  1168  1270  1269   ar
  1169  1488  1490    1
  1170  1488  1489    1
  1171   372   374    1
  1172   372   373    1
  1173   380   379   ar
  1174  1020  1021   ar
  1175  1020  1027   ar
  1176   383   382    1
  1177   615   616   ar
  1178   615   613   ar
  1179   626   625    1
  1180   954   953    1
  1181    70    53    1
  1182    70    90    1
  1183    69    47    2
  1184  1010  1029    1
  1185  1095  1093    1
  1186   992   990    1
  1187   880   879    1
  1188   616   618   ar
  1189  1259  1260    1
  1190   625   623    1
  1191   997  1003   ar
  1192   889   888   ar
  1193   889   890    2
  1194   888   887    1
  1195  1144  1149   ar
  1196  1001  1007   ar
  1197  1001  1002   ar
  1198  1172  1170   ar
  1199   382   377   ar
  1200  1051  1053    1
  1201   975   980   ar
  1202    52    53    1
  1203    52    50    1
  1204   991   990    1
  1205  1126  1127   ar
  1206  1126  1129   ar
  1207   990   988    1
  1208   374   375    1
  1209  1130  1129   ar
  1210  1490  1491    1
  1211  1260  1265    1
  1212  1263  1265    1
  1213  1263  1264    1
  1214   977   978   ar
  1215  1108  1109   ar
  1216  1108  1107   ar
  1217  1021  1023   ar
  1218  1093  1094    1
  1219  1093  1091    1
  1220  1127  1128    1
  1221  1007  1006   ar
  1222  1170  1171    1
  1223   913   908   ar
  1224   913   912   ar
  1225    51    50    1
  1226   403   405   ar
  1227   403   402   ar
  1228   614   613    2
  1229  1149  1150    1
  1230   373   389    1
  1231   405   406   ar
  1232  1109  1103   ar
  1233   408   389    2
  1234    33    28    1
  1235    33    31    1
  1236  1027  1026   ar
  1237  1040  1047   ar
  1238  1040  1041   ar
  1239  1267  1269   ar
  1240  1267  1268    1
  1241  1047  1046   ar
  1242   613   612   ar
  1243   952   953   ar
  1244   952   958   ar
  1245   882   887    1
  1246   882   881    1
  1247   936   935    1
  1248   624   623    1
  1249   624   622    1
  1250   908   909   ar
  1251    49    47    1
  1252    49    48    1
  1253   379   378   ar
  1254   953   955   ar
  1255    28    27    1
  1256    29    31    1
  1257    29    27    1
  1258    29    30    1
  1259    25    27    1
  1260    31    32    1
  1261   879   881    1
  1262   887   885    1
  1263   618   619   ar
  1264    47    30    1
  1265    47    68    1
  1266   377   378   ar
  1267   930   935   ar
  1268   930   931   ar
  1269    50    48    1
  1270   426   425    2
  1271   644   622    2
  1272  1107  1104   ar
  1273   551   550    1
  1274  1002  1003   ar
  1275  1002  1005   ar
  1276  1003  1004    2
  1277   597   596    2
  1278   959   958    2
  1279   912   915   ar
  1280   912   911   ar
  1281   915   916   ar
  1282   973   972    1
  1283   980   981    1
  1284   980   979   ar
  1285  1088  1070    2
  1286   389   407    1
  1287   389   391    1
  1288   988   989    1
  1289   402   400   ar
  1290   406   399   ar
  1291  1053  1055    1
  1292  1053  1054    1
  1293   935   934   ar
  1294  1042  1041    2
  1295   978   979   ar
  1296   978   984   ar
  1297   958   957   ar
  1298  1091  1092    1
  1299   577   576    2
  1300  1041  1043   ar
  1301  1023  1024   ar
  1302   881   883    1
  1303  1103  1104   ar
  1304  1103  1102   ar
  1305  1006  1005   ar
  1306   612   619   ar
  1307   612   611    1
  1308   622   643    1
  1309   622   608    1
  1310  1046  1044   ar
  1311   909   910   ar
  1312   448   447    1
  1313  1026  1024   ar
  1314   931   932   ar
  1315   955   956   ar
  1316  1055  1057    1
  1317  1055  1056    1
  1318  1104  1105   ar
  1319   979   982   ar
  1320   972   974    1
  1321   972   970    1
  1322   609   611    1
  1323   609   610    1
  1324   609   607    1
  1325  1067  1066   ar
  1326  1067  1060   ar
  1327   425   419   ar
  1328   425   424   ar
  1329  1066  1064   ar
  1330  1054  1059    1
  1331  1102  1101   ar
  1332   550   552   ar
  1333   550   549   ar
  1334   974   984    1
  1335   974   969    1
  1336   547   546    1
  1337   883   885    1
  1338   883   884    1
  1339  1092  1090    1
  1340   885   886    1
  1341  1024  1025    1
  1342   596   595   ar
  1343   596   598   ar
  1344  1071  1073    1
  1345  1071  1072    1
  1346   391   390    1
  1347   911   910   ar
  1348   911   917   ar
  1349   916   917   ar
  1350   399   400   ar
  1351   399   398    1
  1352   400   401    2
  1353   984   983   ar
  1354   989   987    1
  1355  1057  1059    1
  1356  1057  1058    1
  1357   419   420   ar
  1358   595   593   ar
  1359   552   553   ar
  1360   611   606    1
  1361   576   578   ar
  1362   576   575   ar
  1363   581   562    2
  1364  1043  1044   ar
  1365   934   937   ar
  1366   934   933   ar
  1367   490   489    1
  1368   607   608    1
  1369   607   605    1
  1370   957   956   ar
  1371   957   960   ar
  1372  1070  1056    1
  1373  1070  1072    1
  1374  1070  1089    1
  1375   469   468    2
  1376  1044  1045    1
  1377   956   962   ar
  1378   578   579   ar
  1379   549   555   ar
  1380   447   442   ar
  1381   447   446   ar
  1382   919   898    2
  1383  1073  1074    1
  1384  1073  1075    1
  1385   393   398    1
  1386   393   392    1
  1387   932   933   ar
  1388   917   907    1
  1389  1059  1060    1
  1390   427   424   ar
  1391   427   428   ar
  1392   424   423   ar
  1393  1105  1106    1
  1394  1105  1100   ar
  1395   390   392    1
  1396   442   443   ar
  1397  1060  1061   ar
  1398   546   548    1
  1399   546   544    1
  1400  1101  1100   ar
  1401   969   968    1
  1402   598   599   ar
  1403   982   983   ar
  1404   467   468   ar
  1405   467   465   ar
  1406   937   938   ar
  1407   933   939   ar
  1408  1064  1065    2
  1409  1064  1063   ar
  1410  1074  1079    1
  1411   398   396    1
  1412   884   898    1
  1413   970   971    1
  1414   970   968    1
  1415   971   987    1
  1416   484   489   ar
  1417   484   485   ar
  1418   468   470   ar
  1419   489   488   ar
  1420   575   573   ar
  1421   553   559   ar
  1422   553   554   ar
  1423   606   605    1
  1424   593   594    2
  1425   593   592   ar
  1426   420   421    1
  1427   420   422   ar
  1428  1090  1110    2
  1429  1090  1111    1
  1430  1090  1076    1
  1431   987  1008    2
  1432   987  1009    1
  1433   545   562    1
  1434   545   544    1
  1435   528   527    1
  1436   960   961   ar
  1437   392   394    1
  1438   562   580    1
  1439   562   564    1
  1440   548   559    1
  1441   548   543    1
  1442   466   465    2
  1443   968   966    1
  1444   446   449   ar
  1445   446   445   ar
  1446   605   603    1
  1447   962   951    1
  1448   962   961   ar
  1449   555   554   ar
  1450   555   556    2
  1451   898   900    1
  1452   898   918    1
  1453   449   450   ar
  1454   579   572   ar
  1455  1075  1076    1
  1456  1075  1077    1
  1457   465   464   ar
  1458   428   429   ar
  1459   544   542    1
  1460   907   902    1
  1461   907   905    1
  1462   423   422   ar
  1463   423   429   ar
  1464   559   558   ar
  1465   443   444   ar
  1466  1061  1063   ar
  1467  1061  1062    2
  1468   554   557   ar
  1469   938   939   ar
  1470   599   592   ar
  1471   902   901    1
  1472   900   899    1
  1473   394   396    1
  1474   394   395    1
  1475   939   929    1
  1476   485   486   ar
  1477   951   949    1
  1478   951   946    1
  1479   603   604    1
  1480   396   397    1
  1481   488   491   ar
  1482   488   487   ar
  1483   526   527   ar
  1484   526   532   ar
  1485   592   591    1
  1486  1079  1077    1
  1487  1079  1080    1
  1488  1087  1086   ar
  1489  1087  1080   ar
  1490   527   529   ar
  1491   950   949    1
  1492   431   409    2
  1493   573   572   ar
  1494   573   574    2
  1495   949   947    1
  1496   564   563    1
  1497   470   471   ar
  1498   491   492   ar
  1499   543   542    1
  1500   429   418    1
  1501   542   540    1
  1502   572   571    1
  1503   445   444   ar
  1504   445   451   ar
  1505  1086  1084   ar
  1506  1077  1078    1
  1507   450   451   ar
  1508  1080  1081   ar
  1509   966   967    1
  1510   558   557   ar
  1511   533   532    2
  1512   905   903    1
  1513   905   906    1
  1514   899   901    1
  1515   464   471   ar
  1516   464   463    1
  1517   621   602    2
  1518   487   486   ar
  1519   487   493   ar
  1520   532   531   ar
  1521   601   582    2
  1522   929   924    1
  1523   929   927    1
  1524   901   903    1
  1525   395   409    1
  1526   529   530   ar
  1527   946   945    1
  1528   604   602    1
  1529   967   965    1
  1530   903   904    1
  1531   451   441    1
  1532   591   589    1
  1533   591   586    1
  1534   492   493   ar
  1535   409   411    1
  1536   409   430    1
  1537   589   587    1
  1538   589   590    1
  1539   563   565    1
  1540  1084  1083   ar
  1541  1084  1085    2
  1542  1081  1083   ar
  1543  1081  1082    2
  1544   947   945    1
  1545   947   948    1
  1546   418   413    1
  1547   418   416    1
  1548   924   923    1
  1549   462   461    1
  1550   540   541    1
  1551   571   566    1
  1552   571   569    1
  1553   493   483    1
  1554   566   565    1
  1555   927   928    1
  1556   927   925    1
  1557   602   588    1
  1558   602   620    1
  1559   463   461    1
  1560   463   458    1
  1561   411   410    1
  1562   530   531   ar
  1563   530   536   ar
  1564   413   412    1
  1565   531   534   ar
  1566   941   920    2
  1567   567   565    1
  1568   567   569    1
  1569   567   568    1
  1570   587   588    1
  1571   587   585    1
  1572   945   943    1
  1573   584   582    1
  1574   584   583    1
  1575   582   568    1
  1576   582   600    1
  1577   569   570    1
  1578   586   585    1
  1579   948   965    1
  1580   541   539    1
  1581   461   459    1
  1582   904   920    1
  1583   965   986    2
  1584   965   985    1
  1585   416   414    1
  1586   416   417    1
  1587   922   920    1
  1588   922   921    1
  1589   441   436    1
  1590   441   439    1
  1591   524   523    1
  1592   925   923    1
  1593   925   926    1
  1594   458   457    1
  1595   410   412    1
  1596   920   940    1
  1597   483   478    1
  1598   483   481    1
  1599   585   583    1
  1600   534   535   ar
  1601   536   525    1
  1602   536   535   ar
  1603   923   921    1
  1604   412   414    1
  1605   523   525    1
  1606   523   521    1
  1607   414   415    1
  1608   944   943    1
  1609   944   942    1
  1610   436   435    1
  1611   453   432    2
  1612   478   477    1
  1613   525   520    1
  1614   439   437    1
  1615   439   440    1
  1616   964   942    2
  1617   460   459    1
  1618   460   474    1
  1619   459   457    1
  1620   926   942    1
  1621   437   435    1
  1622   437   438    1
  1623   539   560    2
  1624   539   561    1
  1625   539   522    1
  1626   473   454    2
  1627   457   455    1
  1628   942   963    1
  1629   481   482    1
  1630   481   479    1
  1631   435   433    1
  1632   415   432    1
  1633   433   434    1
  1634   521   522    1
  1635   521   519    1
  1636   495   474    2
  1637   432   434    1
  1638   432   452    1
  1639   456   455    1
  1640   456   454    1
  1641   476   474    1
  1642   476   475    1
  1643   477   475    1
  1644   477   479    1
  1645   520   519    1
  1646   474   494    1
  1647   454   438    1
  1648   454   472    1
  1649   479   480    1
  1650   519   517    1
  1651   480   496    1
  1652   518   517    1
  1653   518   516    1
  1654   515   496    2
  1655   538   516    2
  1656   496   498    1
  1657   496   514    1
  1658   498   497    1
  1659   497   499    1
  1660   516   537    1
  1661   516   502    1
  1662   501   499    1
  1663   501   502    1
  1664   501   503    1
  1665   499   500    1
  1666   503   504    1
  1667   503   505    1
  1668   500   505    1
  1669   505   506    1
  1670   513   506   ar
  1671   513   512   ar
  1672   506   507   ar
  1673   512   510   ar
  1674   507   508    2
  1675   507   509   ar
  1676   510   509   ar
  1677   510   511    2
