ligand
 OpenBabel11021811493D
libRbt.so/2013.1/901 2013/11/27
 12 12  0  0  0  0  0  0  0  0999 V2000
   31.0769  -22.4001    5.0596 N   0  0  0  0  0  0  0  0  0  0  0  0
   30.9325  -18.2283    8.0729 O   0  0  0  0  0  0  0  0  0  0  0  0
   30.6776  -21.7782    3.7733 C   0  0  0  0  0  0  0  0  0  0  0  0
   28.8594  -19.1506    7.4224 O   0  0  0  0  0  0  0  0  0  0  0  0
   31.3700  -22.5294    2.6409 C   0  0  0  0  0  0  0  0  0  0  0  0
   30.0900  -20.1643    9.2913 O   0  0  0  0  0  0  0  0  0  0  0  0
   30.8863  -23.9127    2.6020 N   0  0  0  0  0  0  0  0  0  0  0  0
   29.9434  -24.0956    3.7082 C   0  0  0  0  0  0  0  0  0  0  0  0
   30.7128  -23.8290    4.9907 C   0  0  0  0  0  0  0  0  0  0  0  0
   30.5123  -21.7526    6.3098 C   0  0  0  0  0  0  0  0  0  0  0  0
   30.9826  -20.3067    6.6165 C   0  0  0  0  0  0  0  0  0  0  0  0
   30.2046  -19.4417    7.8453 S   0  0  0  0  0  0  0  0  0  0  0  0
  1  3  1  0  0  0  0
  1  9  1  0  0  0  0
  1 10  1  0  0  0  0
  2 12  1  0  0  0  0
  3  5  1  0  0  0  0
  4 12  2  0  0  0  0
  5  7  1  0  0  0  0
  6 12  2  0  0  0  0
  7  8  1  0  0  0  0
  8  9  1  0  0  0  0
 10 11  1  0  0  0  0
 11 12  1  0  0  0  0
M  END
>  <CHROM.1>
-65.56940223,170.16920199,171.59013474,30.47371157,-21.20520828,5.97561870
1.21273793,-1.28643477,-2.63521023

>  <Name>
ligand

>  <RI>
0

>  <Rbt.Current_Directory>
/home/itssahil/PROJECTS/Mol_Feturizer/New_Systems/rnas/4E8N

>  <Rbt.Executable>
rbdock ($Id: //depot/dev/client3/rdock/2013.1/src/exe/rbdock.cxx#4 $)

>  <Rbt.Library>
libRbt.so (2013.1, Build901 2013/11/27)

>  <Rbt.Parameter_File>
/export/apps/rDock/src/rDock_2013.1_src/data/scripts/dock_solv.prm

>  <Rbt.Receptor>
prm/pocket_docking_2.prm

>  <SCORE>
-6.55489

>  <SCORE.INTER>
-2.7457

>  <SCORE.INTER.CONST>
1

>  <SCORE.INTER.POLAR>
0

>  <SCORE.INTER.ROT>
3

>  <SCORE.INTER.SOLV>
5.34884

>  <SCORE.INTER.VDW>
-9.21342

>  <SCORE.INTER.norm>
-0.228809

>  <SCORE.INTRA>
-3.80918

>  <SCORE.INTRA.DIHEDRAL>
-4.41634

>  <SCORE.INTRA.DIHEDRAL.0>
5.0186

>  <SCORE.INTRA.POLAR>
0

>  <SCORE.INTRA.POLAR.0>
0

>  <SCORE.INTRA.REPUL>
0

>  <SCORE.INTRA.REPUL.0>
0

>  <SCORE.INTRA.SOLV>
0.0752133

>  <SCORE.INTRA.SOLV.lig_0>
-16.1608

>  <SCORE.INTRA.VDW>
-1.63862

>  <SCORE.INTRA.VDW.0>
1.14169

>  <SCORE.INTRA.norm>
-0.317432

>  <SCORE.RESTR>
0

>  <SCORE.RESTR.CAVITY>
0

>  <SCORE.RESTR.norm>
0

>  <SCORE.SYSTEM>
0

>  <SCORE.SYSTEM.CONST>
0

>  <SCORE.SYSTEM.DIHEDRAL>
0

>  <SCORE.SYSTEM.SOLV>
0

>  <SCORE.SYSTEM.norm>
0

>  <SCORE.heavy>
12

>  <SCORE.norm>
-0.546241

>  <RMSD>
0.973

$$$$
ligand
 OpenBabel11021811493D
libRbt.so/2013.1/901 2013/11/27
 12 12  0  0  0  0  0  0  0  0999 V2000
   31.0773  -22.4153    5.0728 N   0  0  0  0  0  0  0  0  0  0  0  0
   30.9309  -18.2352    8.0743 O   0  0  0  0  0  0  0  0  0  0  0  0
   30.6860  -21.7877    3.7867 C   0  0  0  0  0  0  0  0  0  0  0  0
   28.8607  -19.1671    7.4281 O   0  0  0  0  0  0  0  0  0  0  0  0
   31.3760  -22.5415    2.6546 C   0  0  0  0  0  0  0  0  0  0  0  0
   30.0935  -20.1669    9.3030 O   0  0  0  0  0  0  0  0  0  0  0  0
   30.8822  -23.9212    2.6114 N   0  0  0  0  0  0  0  0  0  0  0  0
   29.9351  -24.0996    3.7147 C   0  0  0  0  0  0  0  0  0  0  0  0
   30.7030  -23.8413    4.9998 C   0  0  0  0  0  0  0  0  0  0  0  0
   30.5141  -21.7663    6.3229 C   0  0  0  0  0  0  0  0  0  0  0  0
   30.9876  -20.3214    6.6294 C   0  0  0  0  0  0  0  0  0  0  0  0
   30.2066  -19.4519    7.8531 S   0  0  0  0  0  0  0  0  0  0  0  0
  1  3  1  0  0  0  0
  1  9  1  0  0  0  0
  1 10  1  0  0  0  0
  2 12  1  0  0  0  0
  3  5  1  0  0  0  0
  4 12  2  0  0  0  0
  5  7  1  0  0  0  0
  6 12  2  0  0  0  0
  7  8  1  0  0  0  0
  8  9  1  0  0  0  0
 10 11  1  0  0  0  0
 11 12  1  0  0  0  0
M  END
>  <CHROM.1>
-65.21221783,169.88435459,172.06759724,30.47427416,-21.21563142,5.98515563
1.22137177,-1.28136130,-2.62668197

>  <Name>
ligand

>  <RI>
0

>  <Rbt.Current_Directory>
/home/itssahil/PROJECTS/Mol_Feturizer/New_Systems/rnas/4E8N

>  <Rbt.Executable>
rbdock ($Id: //depot/dev/client3/rdock/2013.1/src/exe/rbdock.cxx#4 $)

>  <Rbt.Library>
libRbt.so (2013.1, Build901 2013/11/27)

>  <Rbt.Parameter_File>
/export/apps/rDock/src/rDock_2013.1_src/data/scripts/dock_solv.prm

>  <Rbt.Receptor>
prm/pocket_docking_2.prm

>  <SCORE>
-6.5538

>  <SCORE.INTER>
-2.74805

>  <SCORE.INTER.CONST>
1

>  <SCORE.INTER.POLAR>
0

>  <SCORE.INTER.ROT>
3

>  <SCORE.INTER.SOLV>
5.36458

>  <SCORE.INTER.VDW>
-9.22023

>  <SCORE.INTER.norm>
-0.229004

>  <SCORE.INTRA>
-3.80575

>  <SCORE.INTRA.DIHEDRAL>
-4.42175

>  <SCORE.INTRA.DIHEDRAL.0>
5.0186

>  <SCORE.INTRA.POLAR>
0

>  <SCORE.INTRA.POLAR.0>
0

>  <SCORE.INTRA.REPUL>
0

>  <SCORE.INTRA.REPUL.0>
0

>  <SCORE.INTRA.SOLV>
0.0755448

>  <SCORE.INTRA.SOLV.lig_0>
-16.1608

>  <SCORE.INTRA.VDW>
-1.63265

>  <SCORE.INTRA.VDW.0>
1.14169

>  <SCORE.INTRA.norm>
-0.317146

>  <SCORE.RESTR>
0

>  <SCORE.RESTR.CAVITY>
0

>  <SCORE.RESTR.norm>
0

>  <SCORE.SYSTEM>
0

>  <SCORE.SYSTEM.CONST>
0

>  <SCORE.SYSTEM.DIHEDRAL>
0

>  <SCORE.SYSTEM.SOLV>
0

>  <SCORE.SYSTEM.norm>
0

>  <SCORE.heavy>
12

>  <SCORE.norm>
-0.54615

>  <RMSD>
0.980

$$$$
ligand
 OpenBabel11021811493D
libRbt.so/2013.1/901 2013/11/27
 12 12  0  0  0  0  0  0  0  0999 V2000
   31.0960  -22.3172    5.0340 N   0  0  0  0  0  0  0  0  0  0  0  0
   31.9656  -20.0794    8.9548 O   0  0  0  0  0  0  0  0  0  0  0  0
   30.4524  -21.6980    3.8493 C   0  0  0  0  0  0  0  0  0  0  0  0
   30.8721  -18.1720    8.0960 O   0  0  0  0  0  0  0  0  0  0  0  0
   31.0035  -22.3709    2.5965 C   0  0  0  0  0  0  0  0  0  0  0  0
   29.5293  -20.0160    9.0074 O   0  0  0  0  0  0  0  0  0  0  0  0
   30.6168  -23.7849    2.5885 N   0  0  0  0  0  0  0  0  0  0  0  0
   29.8796  -24.0613    3.8240 C   0  0  0  0  0  0  0  0  0  0  0  0
   30.8254  -23.7671    4.9758 C   0  0  0  0  0  0  0  0  0  0  0  0
   30.6969  -21.7409    6.3793 C   0  0  0  0  0  0  0  0  0  0  0  0
   31.0049  -20.2384    6.6106 C   0  0  0  0  0  0  0  0  0  0  0  0
   30.8589  -19.6096    8.1748 S   0  0  0  0  0  0  0  0  0  0  0  0
  1  3  1  0  0  0  0
  1  9  1  0  0  0  0
  1 10  1  0  0  0  0
  2 12  1  0  0  0  0
  3  5  1  0  0  0  0
  4 12  2  0  0  0  0
  5  7  1  0  0  0  0
  6 12  2  0  0  0  0
  7  8  1  0  0  0  0
  8  9  1  0  0  0  0
 10 11  1  0  0  0  0
 11 12  1  0  0  0  0
M  END
>  <CHROM.1>
-60.67758461,-168.51894996,73.65559529,30.74690404,-21.24785035,6.14788025
1.76903809,-1.37411208,-2.02736566

>  <Name>
ligand

>  <RI>
0

>  <Rbt.Current_Directory>
/home/itssahil/PROJECTS/Mol_Feturizer/New_Systems/rnas/4E8N

>  <Rbt.Executable>
rbdock ($Id: //depot/dev/client3/rdock/2013.1/src/exe/rbdock.cxx#4 $)

>  <Rbt.Library>
libRbt.so (2013.1, Build901 2013/11/27)

>  <Rbt.Parameter_File>
/export/apps/rDock/src/rDock_2013.1_src/data/scripts/dock_solv.prm

>  <Rbt.Receptor>
prm/pocket_docking_2.prm

>  <SCORE>
-6.56979

>  <SCORE.INTER>
-3.00902

>  <SCORE.INTER.CONST>
1

>  <SCORE.INTER.POLAR>
0

>  <SCORE.INTER.ROT>
3

>  <SCORE.INTER.SOLV>
4.40249

>  <SCORE.INTER.VDW>
-9.07351

>  <SCORE.INTER.norm>
-0.250752

>  <SCORE.INTRA>
-3.59087

>  <SCORE.INTRA.DIHEDRAL>
-4.06711

>  <SCORE.INTRA.DIHEDRAL.0>
5.0186

>  <SCORE.INTRA.POLAR>
0

>  <SCORE.INTRA.POLAR.0>
0

>  <SCORE.INTRA.REPUL>
0

>  <SCORE.INTRA.REPUL.0>
0

>  <SCORE.INTRA.SOLV>
-0.0754553

>  <SCORE.INTRA.SOLV.lig_0>
-16.1608

>  <SCORE.INTRA.VDW>
-1.51959

>  <SCORE.INTRA.VDW.0>
1.14169

>  <SCORE.INTRA.norm>
-0.299239

>  <SCORE.RESTR>
0.0300986

>  <SCORE.RESTR.CAVITY>
0.0300986

>  <SCORE.RESTR.norm>
0.00250821

>  <SCORE.SYSTEM>
0

>  <SCORE.SYSTEM.CONST>
0

>  <SCORE.SYSTEM.DIHEDRAL>
0

>  <SCORE.SYSTEM.SOLV>
0

>  <SCORE.SYSTEM.norm>
0

>  <SCORE.heavy>
12

>  <SCORE.norm>
-0.547483

>  <RMSD>
1.119

$$$$
ligand
 OpenBabel11021811493D
libRbt.so/2013.1/901 2013/11/27
 12 12  0  0  0  0  0  0  0  0999 V2000
   30.6006  -22.1495    4.7546 N   0  0  0  0  0  0  0  0  0  0  0  0
   31.4307  -18.9943    7.5672 O   0  0  0  0  0  0  0  0  0  0  0  0
   30.7833  -23.5943    4.4718 C   0  0  0  0  0  0  0  0  0  0  0  0
   29.2757  -19.8924    7.2193 O   0  0  0  0  0  0  0  0  0  0  0  0
   29.6518  -24.0518    3.5571 C   0  0  0  0  0  0  0  0  0  0  0  0
   30.3060  -20.0727    9.4420 O   0  0  0  0  0  0  0  0  0  0  0  0
   29.7521  -23.3597    2.2687 N   0  0  0  0  0  0  0  0  0  0  0  0
   30.8803  -22.4279    2.3401 C   0  0  0  0  0  0  0  0  0  0  0  0
   30.5701  -21.4462    3.4571 C   0  0  0  0  0  0  0  0  0  0  0  0
   31.6188  -21.5254    5.6900 C   0  0  0  0  0  0  0  0  0  0  0  0
   31.2534  -21.4993    7.1973 C   0  0  0  0  0  0  0  0  0  0  0  0
   30.5579  -20.0975    7.8413 S   0  0  0  0  0  0  0  0  0  0  0  0
  1  3  1  0  0  0  0
  1  9  1  0  0  0  0
  1 10  1  0  0  0  0
  2 12  1  0  0  0  0
  3  5  1  0  0  0  0
  4 12  2  0  0  0  0
  5  7  1  0  0  0  0
  6 12  2  0  0  0  0
  7  8  1  0  0  0  0
  8  9  1  0  0  0  0
 10 11  1  0  0  0  0
 11 12  1  0  0  0  0
M  END
>  <CHROM.1>
-92.53574687,-96.17127784,-55.82555691,30.55017561,-21.39236881,5.78526053
1.70980405,-1.24978028,-1.99851100

>  <Name>
ligand

>  <RI>
0

>  <Rbt.Current_Directory>
/home/itssahil/PROJECTS/Mol_Feturizer/New_Systems/rnas/4E8N

>  <Rbt.Executable>
rbdock ($Id: //depot/dev/client3/rdock/2013.1/src/exe/rbdock.cxx#4 $)

>  <Rbt.Library>
libRbt.so (2013.1, Build901 2013/11/27)

>  <Rbt.Parameter_File>
/export/apps/rDock/src/rDock_2013.1_src/data/scripts/dock_solv.prm

>  <Rbt.Receptor>
prm/pocket_docking_2.prm

>  <SCORE>
-5.61265

>  <SCORE.INTER>
-3.71015

>  <SCORE.INTER.CONST>
1

>  <SCORE.INTER.POLAR>
0

>  <SCORE.INTER.ROT>
3

>  <SCORE.INTER.SOLV>
6.62723

>  <SCORE.INTER.VDW>
-10.2825

>  <SCORE.INTER.norm>
-0.309179

>  <SCORE.INTRA>
-1.90251

>  <SCORE.INTRA.DIHEDRAL>
0.112966

>  <SCORE.INTRA.DIHEDRAL.0>
5.0186

>  <SCORE.INTRA.POLAR>
0

>  <SCORE.INTRA.POLAR.0>
0

>  <SCORE.INTRA.REPUL>
0

>  <SCORE.INTRA.REPUL.0>
0

>  <SCORE.INTRA.SOLV>
0.185059

>  <SCORE.INTRA.SOLV.lig_0>
-16.1608

>  <SCORE.INTRA.VDW>
-2.05152

>  <SCORE.INTRA.VDW.0>
1.14169

>  <SCORE.INTRA.norm>
-0.158542

>  <SCORE.RESTR>
0

>  <SCORE.RESTR.CAVITY>
0

>  <SCORE.RESTR.norm>
0

>  <SCORE.SYSTEM>
0

>  <SCORE.SYSTEM.CONST>
0

>  <SCORE.SYSTEM.DIHEDRAL>
0

>  <SCORE.SYSTEM.SOLV>
0

>  <SCORE.SYSTEM.norm>
0

>  <SCORE.heavy>
12

>  <SCORE.norm>
-0.467721

>  <RMSD>
1.278

$$$$
ligand
 OpenBabel11021811493D
libRbt.so/2013.1/901 2013/11/27
 12 12  0  0  0  0  0  0  0  0999 V2000
   31.0895  -22.4232    5.0857 N   0  0  0  0  0  0  0  0  0  0  0  0
   28.7839  -19.2176    7.3937 O   0  0  0  0  0  0  0  0  0  0  0  0
   30.6883  -21.7741    3.8135 C   0  0  0  0  0  0  0  0  0  0  0  0
   30.0148  -20.3568    9.0547 O   0  0  0  0  0  0  0  0  0  0  0  0
   31.3965  -22.4868    2.6661 C   0  0  0  0  0  0  0  0  0  0  0  0
   30.7238  -18.1075    8.3670 O   0  0  0  0  0  0  0  0  0  0  0  0
   30.9318  -23.8751    2.5895 N   0  0  0  0  0  0  0  0  0  0  0  0
   29.9860  -24.0988    3.6856 C   0  0  0  0  0  0  0  0  0  0  0  0
   30.7453  -23.8546    4.9786 C   0  0  0  0  0  0  0  0  0  0  0  0
   30.5100  -21.8154    6.3490 C   0  0  0  0  0  0  0  0  0  0  0  0
   30.9346  -20.3603    6.6782 C   0  0  0  0  0  0  0  0  0  0  0  0
   30.0956  -19.5214    7.8847 S   0  0  0  0  0  0  0  0  0  0  0  0
  1  3  1  0  0  0  0
  1  9  1  0  0  0  0
  1 10  1  0  0  0  0
  2 12  1  0  0  0  0
  3  5  1  0  0  0  0
  4 12  2  0  0  0  0
  5  7  1  0  0  0  0
  6 12  2  0  0  0  0
  7  8  1  0  0  0  0
  8  9  1  0  0  0  0
 10 11  1  0  0  0  0
 11 12  1  0  0  0  0
M  END
>  <CHROM.1>
-64.25826981,167.87928364,-70.66483758,30.43437919,-21.23617127,5.99519113
1.09427565,-1.30680212,-2.74922124

>  <Name>
ligand

>  <RI>
0

>  <Rbt.Current_Directory>
/home/itssahil/PROJECTS/Mol_Feturizer/New_Systems/rnas/4E8N

>  <Rbt.Executable>
rbdock ($Id: //depot/dev/client3/rdock/2013.1/src/exe/rbdock.cxx#4 $)

>  <Rbt.Library>
libRbt.so (2013.1, Build901 2013/11/27)

>  <Rbt.Parameter_File>
/export/apps/rDock/src/rDock_2013.1_src/data/scripts/dock_solv.prm

>  <Rbt.Receptor>
prm/pocket_docking_2.prm

>  <SCORE>
-7.25569

>  <SCORE.INTER>
-3.57499

>  <SCORE.INTER.CONST>
1

>  <SCORE.INTER.POLAR>
0

>  <SCORE.INTER.ROT>
3

>  <SCORE.INTER.SOLV>
4.4823

>  <SCORE.INTER.VDW>
-9.47743

>  <SCORE.INTER.norm>
-0.297916

>  <SCORE.INTRA>
-3.6807

>  <SCORE.INTRA.DIHEDRAL>
-4.16416

>  <SCORE.INTRA.DIHEDRAL.0>
5.0186

>  <SCORE.INTRA.POLAR>
0

>  <SCORE.INTRA.POLAR.0>
0

>  <SCORE.INTRA.REPUL>
0

>  <SCORE.INTRA.REPUL.0>
0

>  <SCORE.INTRA.SOLV>
-0.0827492

>  <SCORE.INTRA.SOLV.lig_0>
-16.1608

>  <SCORE.INTRA.VDW>
-1.55724

>  <SCORE.INTRA.VDW.0>
1.14169

>  <SCORE.INTRA.norm>
-0.306725

>  <SCORE.RESTR>
0

>  <SCORE.RESTR.CAVITY>
0

>  <SCORE.RESTR.norm>
0

>  <SCORE.SYSTEM>
0

>  <SCORE.SYSTEM.CONST>
0

>  <SCORE.SYSTEM.DIHEDRAL>
0

>  <SCORE.SYSTEM.SOLV>
0

>  <SCORE.SYSTEM.norm>
0

>  <SCORE.heavy>
12

>  <SCORE.norm>
-0.604641

>  <RMSD>
1.319

$$$$
ligand
 OpenBabel11021811493D
libRbt.so/2013.1/901 2013/11/27
 12 12  0  0  0  0  0  0  0  0999 V2000
   31.2137  -21.8563    5.2084 N   0  0  0  0  0  0  0  0  0  0  0  0
   32.0065  -19.6592    9.7925 O   0  0  0  0  0  0  0  0  0  0  0  0
   30.6293  -21.6806    3.8562 C   0  0  0  0  0  0  0  0  0  0  0  0
   31.1030  -18.3176    8.0733 O   0  0  0  0  0  0  0  0  0  0  0  0
   31.3350  -22.6363    2.8998 C   0  0  0  0  0  0  0  0  0  0  0  0
   29.6072  -19.7680    9.3747 O   0  0  0  0  0  0  0  0  0  0  0  0
   31.0581  -24.0203    3.2960 N   0  0  0  0  0  0  0  0  0  0  0  0
   30.2406  -23.9900    4.5113 C   0  0  0  0  0  0  0  0  0  0  0  0
   31.0592  -23.2779    5.5746 C   0  0  0  0  0  0  0  0  0  0  0  0
   30.6583  -20.9503    6.2909 C   0  0  0  0  0  0  0  0  0  0  0  0
   31.5250  -20.7789    7.5659 C   0  0  0  0  0  0  0  0  0  0  0  0
   31.0745  -19.6113    8.7047 S   0  0  0  0  0  0  0  0  0  0  0  0
  1  3  1  0  0  0  0
  1  9  1  0  0  0  0
  1 10  1  0  0  0  0
  2 12  1  0  0  0  0
  3  5  1  0  0  0  0
  4 12  2  0  0  0  0
  5  7  1  0  0  0  0
  6 12  2  0  0  0  0
  7  8  1  0  0  0  0
  8  9  1  0  0  0  0
 10 11  1  0  0  0  0
 11 12  1  0  0  0  0
M  END
>  <CHROM.1>
-161.03449364,171.10302135,179.01479111,30.96832104,-21.14713449,6.57865021
-1.68557890,1.40625244,1.05173478

>  <Name>
ligand

>  <RI>
0

>  <Rbt.Current_Directory>
/home/itssahil/PROJECTS/Mol_Feturizer/New_Systems/rnas/4E8N

>  <Rbt.Executable>
rbdock ($Id: //depot/dev/client3/rdock/2013.1/src/exe/rbdock.cxx#4 $)

>  <Rbt.Library>
libRbt.so (2013.1, Build901 2013/11/27)

>  <Rbt.Parameter_File>
/export/apps/rDock/src/rDock_2013.1_src/data/scripts/dock_solv.prm

>  <Rbt.Receptor>
prm/pocket_docking_2.prm

>  <SCORE>
-7.06552

>  <SCORE.INTER>
-3.37283

>  <SCORE.INTER.CONST>
1

>  <SCORE.INTER.POLAR>
0

>  <SCORE.INTER.ROT>
3

>  <SCORE.INTER.SOLV>
3.83446

>  <SCORE.INTER.VDW>
-9.12671

>  <SCORE.INTER.norm>
-0.281069

>  <SCORE.INTRA>
-3.69269

>  <SCORE.INTRA.DIHEDRAL>
-4.24965

>  <SCORE.INTRA.DIHEDRAL.0>
5.0186

>  <SCORE.INTRA.POLAR>
0

>  <SCORE.INTRA.POLAR.0>
0

>  <SCORE.INTRA.REPUL>
0

>  <SCORE.INTRA.REPUL.0>
0

>  <SCORE.INTRA.SOLV>
0.0722829

>  <SCORE.INTRA.SOLV.lig_0>
-16.1608

>  <SCORE.INTRA.VDW>
-1.60401

>  <SCORE.INTRA.VDW.0>
1.14169

>  <SCORE.INTRA.norm>
-0.307725

>  <SCORE.RESTR>
0

>  <SCORE.RESTR.CAVITY>
0

>  <SCORE.RESTR.norm>
0

>  <SCORE.SYSTEM>
0

>  <SCORE.SYSTEM.CONST>
0

>  <SCORE.SYSTEM.DIHEDRAL>
0

>  <SCORE.SYSTEM.SOLV>
0

>  <SCORE.SYSTEM.norm>
0

>  <SCORE.heavy>
12

>  <SCORE.norm>
-0.588794

>  <RMSD>
1.323

$$$$
ligand
 OpenBabel11021811493D
libRbt.so/2013.1/901 2013/11/27
 12 12  0  0  0  0  0  0  0  0999 V2000
   30.6447  -21.7269    4.9943 N   0  0  0  0  0  0  0  0  0  0  0  0
   29.1257  -19.7596    7.2467 O   0  0  0  0  0  0  0  0  0  0  0  0
   30.5465  -23.1232    4.5029 C   0  0  0  0  0  0  0  0  0  0  0  0
   29.9376  -20.0837    9.4393 O   0  0  0  0  0  0  0  0  0  0  0  0
   29.4896  -23.1729    3.4045 C   0  0  0  0  0  0  0  0  0  0  0  0
   31.1722  -18.6120    7.9082 O   0  0  0  0  0  0  0  0  0  0  0  0
   29.9274  -22.3607    2.2653 N   0  0  0  0  0  0  0  0  0  0  0  0
   31.2090  -21.7426    2.6138 C   0  0  0  0  0  0  0  0  0  0  0  0
   30.9602  -20.8716    3.8334 C   0  0  0  0  0  0  0  0  0  0  0  0
   31.6257  -21.4928    6.1275 C   0  0  0  0  0  0  0  0  0  0  0  0
   31.0293  -21.4098    7.5570 C   0  0  0  0  0  0  0  0  0  0  0  0
   30.2948  -19.9672    8.0494 S   0  0  0  0  0  0  0  0  0  0  0  0
  1  3  1  0  0  0  0
  1  9  1  0  0  0  0
  1 10  1  0  0  0  0
  2 12  1  0  0  0  0
  3  5  1  0  0  0  0
  4 12  2  0  0  0  0
  5  7  1  0  0  0  0
  6 12  2  0  0  0  0
  7  8  1  0  0  0  0
  8  9  1  0  0  0  0
 10 11  1  0  0  0  0
 11 12  1  0  0  0  0
M  END
>  <CHROM.1>
-99.65940457,-79.18217881,65.44002690,30.46509950,-21.02576489,5.96433506
1.53342314,-1.14285908,-2.06836249

>  <Name>
ligand

>  <RI>
0

>  <Rbt.Current_Directory>
/home/itssahil/PROJECTS/Mol_Feturizer/New_Systems/rnas/4E8N

>  <Rbt.Executable>
rbdock ($Id: //depot/dev/client3/rdock/2013.1/src/exe/rbdock.cxx#4 $)

>  <Rbt.Library>
libRbt.so (2013.1, Build901 2013/11/27)

>  <Rbt.Parameter_File>
/export/apps/rDock/src/rDock_2013.1_src/data/scripts/dock_solv.prm

>  <Rbt.Receptor>
prm/pocket_docking_2.prm

>  <SCORE>
-6.42793

>  <SCORE.INTER>
-3.32304

>  <SCORE.INTER.CONST>
1

>  <SCORE.INTER.POLAR>
0

>  <SCORE.INTER.ROT>
3

>  <SCORE.INTER.SOLV>
6.00449

>  <SCORE.INTER.VDW>
-9.81686

>  <SCORE.INTER.norm>
-0.27692

>  <SCORE.INTRA>
-3.1306

>  <SCORE.INTRA.DIHEDRAL>
-1.80351

>  <SCORE.INTRA.DIHEDRAL.0>
5.0186

>  <SCORE.INTRA.POLAR>
0

>  <SCORE.INTRA.POLAR.0>
0

>  <SCORE.INTRA.REPUL>
0

>  <SCORE.INTRA.REPUL.0>
0

>  <SCORE.INTRA.SOLV>
0.0271963

>  <SCORE.INTRA.SOLV.lig_0>
-16.1608

>  <SCORE.INTRA.VDW>
-2.24245

>  <SCORE.INTRA.VDW.0>
1.14169

>  <SCORE.INTRA.norm>
-0.260884

>  <SCORE.RESTR>
0.0257228

>  <SCORE.RESTR.CAVITY>
0.0257228

>  <SCORE.RESTR.norm>
0.00214356

>  <SCORE.SYSTEM>
0

>  <SCORE.SYSTEM.CONST>
0

>  <SCORE.SYSTEM.DIHEDRAL>
0

>  <SCORE.SYSTEM.SOLV>
0

>  <SCORE.SYSTEM.norm>
0

>  <SCORE.heavy>
12

>  <SCORE.norm>
-0.53566

>  <RMSD>
1.325

$$$$
ligand
 OpenBabel11021811493D
libRbt.so/2013.1/901 2013/11/27
 12 12  0  0  0  0  0  0  0  0999 V2000
   31.0764  -22.4651    5.0932 N   0  0  0  0  0  0  0  0  0  0  0  0
   28.8433  -19.2299    7.4165 O   0  0  0  0  0  0  0  0  0  0  0  0
   30.6935  -21.7830    3.8326 C   0  0  0  0  0  0  0  0  0  0  0  0
   29.9696  -20.4610    9.0861 O   0  0  0  0  0  0  0  0  0  0  0  0
   31.3962  -22.4838    2.6744 C   0  0  0  0  0  0  0  0  0  0  0  0
   30.7932  -18.2270    8.4816 O   0  0  0  0  0  0  0  0  0  0  0  0
   30.9086  -23.8621    2.5664 N   0  0  0  0  0  0  0  0  0  0  0  0
   29.9529  -24.0923    3.6526 C   0  0  0  0  0  0  0  0  0  0  0  0
   30.7087  -23.8879    4.9544 C   0  0  0  0  0  0  0  0  0  0  0  0
   30.5000  -21.8738    6.3657 C   0  0  0  0  0  0  0  0  0  0  0  0
   30.9681  -20.4436    6.7416 C   0  0  0  0  0  0  0  0  0  0  0  0
   30.1241  -19.6007    7.9418 S   0  0  0  0  0  0  0  0  0  0  0  0
  1  3  1  0  0  0  0
  1  9  1  0  0  0  0
  1 10  1  0  0  0  0
  2 12  1  0  0  0  0
  3  5  1  0  0  0  0
  4 12  2  0  0  0  0
  5  7  1  0  0  0  0
  6 12  2  0  0  0  0
  7  8  1  0  0  0  0
  8  9  1  0  0  0  0
 10 11  1  0  0  0  0
 11 12  1  0  0  0  0
M  END
>  <CHROM.1>
-65.38777028,166.82716142,-70.98511740,30.44041550,-21.28386702,6.02129500
1.14956291,-1.29470060,-2.67628960

>  <Name>
ligand

>  <RI>
0

>  <Rbt.Current_Directory>
/home/itssahil/PROJECTS/Mol_Feturizer/New_Systems/rnas/4E8N

>  <Rbt.Executable>
rbdock ($Id: //depot/dev/client3/rdock/2013.1/src/exe/rbdock.cxx#4 $)

>  <Rbt.Library>
libRbt.so (2013.1, Build901 2013/11/27)

>  <Rbt.Parameter_File>
/export/apps/rDock/src/rDock_2013.1_src/data/scripts/dock_solv.prm

>  <Rbt.Receptor>
prm/pocket_docking_2.prm

>  <SCORE>
-7.28873

>  <SCORE.INTER>
-3.65554

>  <SCORE.INTER.CONST>
1

>  <SCORE.INTER.POLAR>
0

>  <SCORE.INTER.ROT>
3

>  <SCORE.INTER.SOLV>
4.65904

>  <SCORE.INTER.VDW>
-9.59004

>  <SCORE.INTER.norm>
-0.304628

>  <SCORE.INTRA>
-3.63365

>  <SCORE.INTRA.DIHEDRAL>
-4.03207

>  <SCORE.INTRA.DIHEDRAL.0>
5.0186

>  <SCORE.INTRA.POLAR>
0

>  <SCORE.INTRA.POLAR.0>
0

>  <SCORE.INTRA.REPUL>
0

>  <SCORE.INTRA.REPUL.0>
0

>  <SCORE.INTRA.SOLV>
-0.0816639

>  <SCORE.INTRA.SOLV.lig_0>
-16.1608

>  <SCORE.INTRA.VDW>
-1.57678

>  <SCORE.INTRA.VDW.0>
1.14169

>  <SCORE.INTRA.norm>
-0.302804

>  <SCORE.RESTR>
0.00045056

>  <SCORE.RESTR.CAVITY>
0.00045056

>  <SCORE.RESTR.norm>
3.75467e-05

>  <SCORE.SYSTEM>
0

>  <SCORE.SYSTEM.CONST>
0

>  <SCORE.SYSTEM.DIHEDRAL>
0

>  <SCORE.SYSTEM.SOLV>
0

>  <SCORE.SYSTEM.norm>
0

>  <SCORE.heavy>
12

>  <SCORE.norm>
-0.607395

>  <RMSD>
1.327

$$$$
ligand
 OpenBabel11021811493D
libRbt.so/2013.1/901 2013/11/27
 12 12  0  0  0  0  0  0  0  0999 V2000
   31.0861  -22.4601    5.0982 N   0  0  0  0  0  0  0  0  0  0  0  0
   28.7806  -19.2531    7.3991 O   0  0  0  0  0  0  0  0  0  0  0  0
   30.6963  -21.7818    3.8377 C   0  0  0  0  0  0  0  0  0  0  0  0
   29.9428  -20.4481    9.0703 O   0  0  0  0  0  0  0  0  0  0  0  0
   31.4023  -22.4784    2.6789 C   0  0  0  0  0  0  0  0  0  0  0  0
   30.7117  -18.1992    8.4493 O   0  0  0  0  0  0  0  0  0  0  0  0
   30.9245  -23.8602    2.5728 N   0  0  0  0  0  0  0  0  0  0  0  0
   29.9721  -24.0965    3.6606 C   0  0  0  0  0  0  0  0  0  0  0  0
   30.7285  -23.8857    4.9611 C   0  0  0  0  0  0  0  0  0  0  0  0
   30.5073  -21.8720    6.3711 C   0  0  0  0  0  0  0  0  0  0  0  0
   30.9298  -20.4212    6.7211 C   0  0  0  0  0  0  0  0  0  0  0  0
   30.0721  -19.5911    7.9205 S   0  0  0  0  0  0  0  0  0  0  0  0
  1  3  1  0  0  0  0
  1  9  1  0  0  0  0
  1 10  1  0  0  0  0
  2 12  1  0  0  0  0
  3  5  1  0  0  0  0
  4 12  2  0  0  0  0
  5  7  1  0  0  0  0
  6 12  2  0  0  0  0
  7  8  1  0  0  0  0
  8  9  1  0  0  0  0
 10 11  1  0  0  0  0
 11 12  1  0  0  0  0
M  END
>  <CHROM.1>
-63.46972779,166.72270874,-71.93379984,30.42060820,-21.27819601,6.01378588
1.09258876,-1.30010626,-2.73675157

>  <Name>
ligand

>  <RI>
0

>  <Rbt.Current_Directory>
/home/itssahil/PROJECTS/Mol_Feturizer/New_Systems/rnas/4E8N

>  <Rbt.Executable>
rbdock ($Id: //depot/dev/client3/rdock/2013.1/src/exe/rbdock.cxx#4 $)

>  <Rbt.Library>
libRbt.so (2013.1, Build901 2013/11/27)

>  <Rbt.Parameter_File>
/export/apps/rDock/src/rDock_2013.1_src/data/scripts/dock_solv.prm

>  <Rbt.Receptor>
prm/pocket_docking_2.prm

>  <SCORE>
-7.23802

>  <SCORE.INTER>
-3.6526

>  <SCORE.INTER.CONST>
1

>  <SCORE.INTER.POLAR>
0

>  <SCORE.INTER.ROT>
3

>  <SCORE.INTER.SOLV>
4.62489

>  <SCORE.INTER.VDW>
-9.5767

>  <SCORE.INTER.norm>
-0.304383

>  <SCORE.INTRA>
-3.58542

>  <SCORE.INTRA.DIHEDRAL>
-4.00923

>  <SCORE.INTRA.DIHEDRAL.0>
5.0186

>  <SCORE.INTRA.POLAR>
0

>  <SCORE.INTRA.POLAR.0>
0

>  <SCORE.INTRA.REPUL>
0

>  <SCORE.INTRA.REPUL.0>
0

>  <SCORE.INTRA.SOLV>
-0.079047

>  <SCORE.INTRA.SOLV.lig_0>
-16.1608

>  <SCORE.INTRA.VDW>
-1.54128

>  <SCORE.INTRA.VDW.0>
1.14169

>  <SCORE.INTRA.norm>
-0.298785

>  <SCORE.RESTR>
0

>  <SCORE.RESTR.CAVITY>
0

>  <SCORE.RESTR.norm>
0

>  <SCORE.SYSTEM>
0

>  <SCORE.SYSTEM.CONST>
0

>  <SCORE.SYSTEM.DIHEDRAL>
0

>  <SCORE.SYSTEM.SOLV>
0

>  <SCORE.SYSTEM.norm>
0

>  <SCORE.heavy>
12

>  <SCORE.norm>
-0.603168

>  <RMSD>
1.327

$$$$
ligand
 OpenBabel11021811493D
libRbt.so/2013.1/901 2013/11/27
 12 12  0  0  0  0  0  0  0  0999 V2000
   31.0821  -22.4654    5.0982 N   0  0  0  0  0  0  0  0  0  0  0  0
   29.8893  -20.5040    9.0409 O   0  0  0  0  0  0  0  0  0  0  0  0
   30.7007  -21.7813    3.8383 C   0  0  0  0  0  0  0  0  0  0  0  0
   30.9532  -18.4989    8.3933 O   0  0  0  0  0  0  0  0  0  0  0  0
   31.4017  -22.4826    2.6794 C   0  0  0  0  0  0  0  0  0  0  0  0
   28.6984  -18.9874    7.5495 O   0  0  0  0  0  0  0  0  0  0  0  0
   30.9109  -23.8597    2.5702 N   0  0  0  0  0  0  0  0  0  0  0  0
   29.9548  -24.0888    3.6562 C   0  0  0  0  0  0  0  0  0  0  0  0
   30.7112  -23.8873    4.9582 C   0  0  0  0  0  0  0  0  0  0  0  0
   30.5071  -21.8740    6.3713 C   0  0  0  0  0  0  0  0  0  0  0  0
   30.9797  -20.4459    6.7494 C   0  0  0  0  0  0  0  0  0  0  0  0
   30.1414  -19.6041    7.9543 S   0  0  0  0  0  0  0  0  0  0  0  0
  1  3  1  0  0  0  0
  1  9  1  0  0  0  0
  1 10  1  0  0  0  0
  2 12  1  0  0  0  0
  3  5  1  0  0  0  0
  4 12  2  0  0  0  0
  5  7  1  0  0  0  0
  6 12  2  0  0  0  0
  7  8  1  0  0  0  0
  8  9  1  0  0  0  0
 10 11  1  0  0  0  0
 11 12  1  0  0  0  0
M  END
>  <CHROM.1>
-65.45462514,167.04168771,44.05931245,30.44107650,-21.28996834,6.02627334
1.13837419,-1.28390868,-2.68306647

>  <Name>
ligand

>  <RI>
0

>  <Rbt.Current_Directory>
/home/itssahil/PROJECTS/Mol_Feturizer/New_Systems/rnas/4E8N

>  <Rbt.Executable>
rbdock ($Id: //depot/dev/client3/rdock/2013.1/src/exe/rbdock.cxx#4 $)

>  <Rbt.Library>
libRbt.so (2013.1, Build901 2013/11/27)

>  <Rbt.Parameter_File>
/export/apps/rDock/src/rDock_2013.1_src/data/scripts/dock_solv.prm

>  <Rbt.Receptor>
prm/pocket_docking_2.prm

>  <SCORE>
-7.52384

>  <SCORE.INTER>
-4.04221

>  <SCORE.INTER.CONST>
1

>  <SCORE.INTER.POLAR>
0

>  <SCORE.INTER.ROT>
3

>  <SCORE.INTER.SOLV>
3.92412

>  <SCORE.INTER.VDW>
-9.60285

>  <SCORE.INTER.norm>
-0.336851

>  <SCORE.INTRA>
-3.48185

>  <SCORE.INTRA.DIHEDRAL>
-3.75324

>  <SCORE.INTRA.DIHEDRAL.0>
5.0186

>  <SCORE.INTRA.POLAR>
0

>  <SCORE.INTRA.POLAR.0>
0

>  <SCORE.INTRA.REPUL>
0

>  <SCORE.INTRA.REPUL.0>
0

>  <SCORE.INTRA.SOLV>
-0.133062

>  <SCORE.INTRA.SOLV.lig_0>
-16.1608

>  <SCORE.INTRA.VDW>
-1.5387

>  <SCORE.INTRA.VDW.0>
1.14169

>  <SCORE.INTRA.norm>
-0.290154

>  <SCORE.RESTR>
0.000221964

>  <SCORE.RESTR.CAVITY>
0.000221964

>  <SCORE.RESTR.norm>
1.8497e-05

>  <SCORE.SYSTEM>
0

>  <SCORE.SYSTEM.CONST>
0

>  <SCORE.SYSTEM.DIHEDRAL>
0

>  <SCORE.SYSTEM.SOLV>
0

>  <SCORE.SYSTEM.norm>
0

>  <SCORE.heavy>
12

>  <SCORE.norm>
-0.626986

>  <RMSD>
1.347

$$$$
ligand
 OpenBabel11021811493D
libRbt.so/2013.1/901 2013/11/27
 12 12  0  0  0  0  0  0  0  0999 V2000
   31.1026  -22.4964    5.1226 N   0  0  0  0  0  0  0  0  0  0  0  0
   29.9831  -20.5040    9.0992 O   0  0  0  0  0  0  0  0  0  0  0  0
   30.7984  -21.8066    3.8449 C   0  0  0  0  0  0  0  0  0  0  0  0
   31.1029  -18.5370    8.4293 O   0  0  0  0  0  0  0  0  0  0  0  0
   31.5173  -22.5421    2.7187 C   0  0  0  0  0  0  0  0  0  0  0  0
   28.8358  -18.9722    7.5892 O   0  0  0  0  0  0  0  0  0  0  0  0
   30.9784  -23.9000    2.5970 N   0  0  0  0  0  0  0  0  0  0  0  0
   29.9715  -24.0848    3.6450 C   0  0  0  0  0  0  0  0  0  0  0  0
   30.6827  -23.9038    4.9752 C   0  0  0  0  0  0  0  0  0  0  0  0
   30.5006  -21.8747    6.3685 C   0  0  0  0  0  0  0  0  0  0  0  0
   31.0759  -20.5030    6.8081 C   0  0  0  0  0  0  0  0  0  0  0  0
   30.2607  -19.6241    8.0025 S   0  0  0  0  0  0  0  0  0  0  0  0
  1  3  1  0  0  0  0
  1  9  1  0  0  0  0
  1 10  1  0  0  0  0
  2 12  1  0  0  0  0
  3  5  1  0  0  0  0
  4 12  2  0  0  0  0
  5  7  1  0  0  0  0
  6 12  2  0  0  0  0
  7  8  1  0  0  0  0
  8  9  1  0  0  0  0
 10 11  1  0  0  0  0
 11 12  1  0  0  0  0
M  END
>  <CHROM.1>
-69.17037829,168.55066535,48.71942309,30.52035501,-21.31173674,6.05704877
1.25613699,-1.22010523,-2.56059154

>  <Name>
ligand

>  <RI>
0

>  <Rbt.Current_Directory>
/home/itssahil/PROJECTS/Mol_Feturizer/New_Systems/rnas/4E8N

>  <Rbt.Executable>
rbdock ($Id: //depot/dev/client3/rdock/2013.1/src/exe/rbdock.cxx#4 $)

>  <Rbt.Library>
libRbt.so (2013.1, Build901 2013/11/27)

>  <Rbt.Parameter_File>
/export/apps/rDock/src/rDock_2013.1_src/data/scripts/dock_solv.prm

>  <Rbt.Receptor>
prm/pocket_docking_2.prm

>  <SCORE>
-7.45344

>  <SCORE.INTER>
-3.74014

>  <SCORE.INTER.CONST>
1

>  <SCORE.INTER.POLAR>
0

>  <SCORE.INTER.ROT>
3

>  <SCORE.INTER.SOLV>
3.71331

>  <SCORE.INTER.VDW>
-9.3312

>  <SCORE.INTER.norm>
-0.311679

>  <SCORE.INTRA>
-3.71329

>  <SCORE.INTRA.DIHEDRAL>
-4.06247

>  <SCORE.INTRA.DIHEDRAL.0>
5.0186

>  <SCORE.INTRA.POLAR>
0

>  <SCORE.INTRA.POLAR.0>
0

>  <SCORE.INTRA.REPUL>
0

>  <SCORE.INTRA.REPUL.0>
0

>  <SCORE.INTRA.SOLV>
-0.126216

>  <SCORE.INTRA.SOLV.lig_0>
-16.1608

>  <SCORE.INTRA.VDW>
-1.61895

>  <SCORE.INTRA.VDW.0>
1.14169

>  <SCORE.INTRA.norm>
-0.309441

>  <SCORE.RESTR>
0

>  <SCORE.RESTR.CAVITY>
0

>  <SCORE.RESTR.norm>
0

>  <SCORE.SYSTEM>
0

>  <SCORE.SYSTEM.CONST>
0

>  <SCORE.SYSTEM.DIHEDRAL>
0

>  <SCORE.SYSTEM.SOLV>
0

>  <SCORE.SYSTEM.norm>
0

>  <SCORE.heavy>
12

>  <SCORE.norm>
-0.62112

>  <RMSD>
1.349

$$$$
ligand
 OpenBabel11021811493D
libRbt.so/2013.1/901 2013/11/27
 12 12  0  0  0  0  0  0  0  0999 V2000
   31.0922  -22.4917    5.1060 N   0  0  0  0  0  0  0  0  0  0  0  0
   29.9315  -20.5046    9.0530 O   0  0  0  0  0  0  0  0  0  0  0  0
   30.7574  -21.8035    3.8351 C   0  0  0  0  0  0  0  0  0  0  0  0
   31.0013  -18.5098    8.3838 O   0  0  0  0  0  0  0  0  0  0  0  0
   31.4690  -22.5255    2.6956 C   0  0  0  0  0  0  0  0  0  0  0  0
   28.7384  -18.9926    7.5587 O   0  0  0  0  0  0  0  0  0  0  0  0
   30.9483  -23.8909    2.5790 N   0  0  0  0  0  0  0  0  0  0  0  0
   29.9613  -24.0932    3.6425 C   0  0  0  0  0  0  0  0  0  0  0  0
   30.6910  -23.9049    4.9616 C   0  0  0  0  0  0  0  0  0  0  0  0
   30.5011  -21.8821    6.3630 C   0  0  0  0  0  0  0  0  0  0  0  0
   31.0066  -20.4687    6.7539 C   0  0  0  0  0  0  0  0  0  0  0  0
   30.1808  -19.6139    7.9583 S   0  0  0  0  0  0  0  0  0  0  0  0
  1  3  1  0  0  0  0
  1  9  1  0  0  0  0
  1 10  1  0  0  0  0
  2 12  1  0  0  0  0
  3  5  1  0  0  0  0
  4 12  2  0  0  0  0
  5  7  1  0  0  0  0
  6 12  2  0  0  0  0
  7  8  1  0  0  0  0
  8  9  1  0  0  0  0
 10 11  1  0  0  0  0
 11 12  1  0  0  0  0
M  END
>  <CHROM.1>
-65.91230465,168.28676290,45.65603224,30.47152103,-21.30579895,6.02905143
1.19877438,-1.24464328,-2.62210267

>  <Name>
ligand

>  <RI>
0

>  <Rbt.Current_Directory>
/home/itssahil/PROJECTS/Mol_Feturizer/New_Systems/rnas/4E8N

>  <Rbt.Executable>
rbdock ($Id: //depot/dev/client3/rdock/2013.1/src/exe/rbdock.cxx#4 $)

>  <Rbt.Library>
libRbt.so (2013.1, Build901 2013/11/27)

>  <Rbt.Parameter_File>
/export/apps/rDock/src/rDock_2013.1_src/data/scripts/dock_solv.prm

>  <Rbt.Receptor>
prm/pocket_docking_2.prm

>  <SCORE>
-7.52709

>  <SCORE.INTER>
-3.93442

>  <SCORE.INTER.CONST>
1

>  <SCORE.INTER.POLAR>
0

>  <SCORE.INTER.ROT>
3

>  <SCORE.INTER.SOLV>
3.84798

>  <SCORE.INTER.VDW>
-9.50561

>  <SCORE.INTER.norm>
-0.327868

>  <SCORE.INTRA>
-3.59797

>  <SCORE.INTRA.DIHEDRAL>
-3.95681

>  <SCORE.INTRA.DIHEDRAL.0>
5.0186

>  <SCORE.INTRA.POLAR>
0

>  <SCORE.INTRA.POLAR.0>
0

>  <SCORE.INTRA.REPUL>
0

>  <SCORE.INTRA.REPUL.0>
0

>  <SCORE.INTRA.SOLV>
-0.13102

>  <SCORE.INTRA.SOLV.lig_0>
-16.1608

>  <SCORE.INTRA.VDW>
-1.55405

>  <SCORE.INTRA.VDW.0>
1.14169

>  <SCORE.INTRA.norm>
-0.299831

>  <SCORE.RESTR>
0.00530601

>  <SCORE.RESTR.CAVITY>
0.00530601

>  <SCORE.RESTR.norm>
0.000442167

>  <SCORE.SYSTEM>
0

>  <SCORE.SYSTEM.CONST>
0

>  <SCORE.SYSTEM.DIHEDRAL>
0

>  <SCORE.SYSTEM.SOLV>
0

>  <SCORE.SYSTEM.norm>
0

>  <SCORE.heavy>
12

>  <SCORE.norm>
-0.627257

>  <RMSD>
1.352

$$$$
ligand
 OpenBabel11021811493D
libRbt.so/2013.1/901 2013/11/27
 12 12  0  0  0  0  0  0  0  0999 V2000
   30.5767  -21.9930    5.4232 N   0  0  0  0  0  0  0  0  0  0  0  0
   32.0900  -19.8904    9.2608 O   0  0  0  0  0  0  0  0  0  0  0  0
   31.0279  -23.3965    5.5887 C   0  0  0  0  0  0  0  0  0  0  0  0
   30.8963  -18.2546    8.0480 O   0  0  0  0  0  0  0  0  0  0  0  0
   30.3264  -24.2537    4.5402 C   0  0  0  0  0  0  0  0  0  0  0  0
   29.8788  -19.2404   10.0548 O   0  0  0  0  0  0  0  0  0  0  0  0
   30.7508  -23.8355    3.2008 N   0  0  0  0  0  0  0  0  0  0  0  0
   31.6627  -22.6984    3.3475 C   0  0  0  0  0  0  0  0  0  0  0  0
   30.8802  -21.5927    4.0351 C   0  0  0  0  0  0  0  0  0  0  0  0
   31.1437  -20.9954    6.4154 C   0  0  0  0  0  0  0  0  0  0  0  0
   30.2834  -20.6993    7.6717 C   0  0  0  0  0  0  0  0  0  0  0  0
   30.8060  -19.5070    8.7527 S   0  0  0  0  0  0  0  0  0  0  0  0
  1  3  1  0  0  0  0
  1  9  1  0  0  0  0
  1 10  1  0  0  0  0
  2 12  1  0  0  0  0
  3  5  1  0  0  0  0
  4 12  2  0  0  0  0
  5  7  1  0  0  0  0
  6 12  2  0  0  0  0
  7  8  1  0  0  0  0
  8  9  1  0  0  0  0
 10 11  1  0  0  0  0
 11 12  1  0  0  0  0
M  END
>  <CHROM.1>
-94.54380885,-175.28589024,-60.32616984,30.85810602,-21.11982445,6.67128190
1.51275763,-1.29550267,-2.29299793

>  <Name>
ligand

>  <RI>
0

>  <Rbt.Current_Directory>
/home/itssahil/PROJECTS/Mol_Feturizer/New_Systems/rnas/4E8N

>  <Rbt.Executable>
rbdock ($Id: //depot/dev/client3/rdock/2013.1/src/exe/rbdock.cxx#4 $)

>  <Rbt.Library>
libRbt.so (2013.1, Build901 2013/11/27)

>  <Rbt.Parameter_File>
/export/apps/rDock/src/rDock_2013.1_src/data/scripts/dock_solv.prm

>  <Rbt.Receptor>
prm/pocket_docking_2.prm

>  <SCORE>
-6.88635

>  <SCORE.INTER>
-3.35638

>  <SCORE.INTER.CONST>
1

>  <SCORE.INTER.POLAR>
0

>  <SCORE.INTER.ROT>
3

>  <SCORE.INTER.SOLV>
4.35144

>  <SCORE.INTER.VDW>
-9.28806

>  <SCORE.INTER.norm>
-0.279698

>  <SCORE.INTRA>
-3.53138

>  <SCORE.INTRA.DIHEDRAL>
-3.36646

>  <SCORE.INTRA.DIHEDRAL.0>
5.0186

>  <SCORE.INTRA.POLAR>
0

>  <SCORE.INTRA.POLAR.0>
0

>  <SCORE.INTRA.REPUL>
0

>  <SCORE.INTRA.REPUL.0>
0

>  <SCORE.INTRA.SOLV>
-0.11416

>  <SCORE.INTRA.SOLV.lig_0>
-16.1608

>  <SCORE.INTRA.VDW>
-1.79107

>  <SCORE.INTRA.VDW.0>
1.14169

>  <SCORE.INTRA.norm>
-0.294282

>  <SCORE.RESTR>
0.00140185

>  <SCORE.RESTR.CAVITY>
0.00140185

>  <SCORE.RESTR.norm>
0.000116821

>  <SCORE.SYSTEM>
0

>  <SCORE.SYSTEM.CONST>
0

>  <SCORE.SYSTEM.DIHEDRAL>
0

>  <SCORE.SYSTEM.SOLV>
0

>  <SCORE.SYSTEM.norm>
0

>  <SCORE.heavy>
12

>  <SCORE.norm>
-0.573863

>  <RMSD>
1.359

$$$$
ligand
 OpenBabel11021811493D
libRbt.so/2013.1/901 2013/11/27
 12 12  0  0  0  0  0  0  0  0999 V2000
   31.1106  -22.3744    5.1171 N   0  0  0  0  0  0  0  0  0  0  0  0
   29.5451  -20.4334    8.9053 O   0  0  0  0  0  0  0  0  0  0  0  0
   30.5100  -21.7023    3.9387 C   0  0  0  0  0  0  0  0  0  0  0  0
   31.8633  -20.0121    9.0480 O   0  0  0  0  0  0  0  0  0  0  0  0
   31.1047  -22.3209    2.6778 C   0  0  0  0  0  0  0  0  0  0  0  0
   30.3429  -18.1718    8.4678 O   0  0  0  0  0  0  0  0  0  0  0  0
   30.7174  -23.7323    2.5940 N   0  0  0  0  0  0  0  0  0  0  0  0
   29.9366  -24.0609    3.7893 C   0  0  0  0  0  0  0  0  0  0  0  0
   30.8411  -23.8197    4.9857 C   0  0  0  0  0  0  0  0  0  0  0  0
   30.6644  -21.8567    6.4714 C   0  0  0  0  0  0  0  0  0  0  0  0
   30.8526  -20.3392    6.7317 C   0  0  0  0  0  0  0  0  0  0  0  0
   30.6560  -19.7537    8.3071 S   0  0  0  0  0  0  0  0  0  0  0  0
  1  3  1  0  0  0  0
  1  9  1  0  0  0  0
  1 10  1  0  0  0  0
  2 12  1  0  0  0  0
  3  5  1  0  0  0  0
  4 12  2  0  0  0  0
  5  7  1  0  0  0  0
  6 12  2  0  0  0  0
  7  8  1  0  0  0  0
  8  9  1  0  0  0  0
 10 11  1  0  0  0  0
 11 12  1  0  0  0  0
M  END
>  <CHROM.1>
-55.50014026,-168.44481941,-39.83559411,30.67361408,-21.31760965,6.23279561
1.54006874,-1.44217156,-2.23152267

>  <Name>
ligand

>  <RI>
0

>  <Rbt.Current_Directory>
/home/itssahil/PROJECTS/Mol_Feturizer/New_Systems/rnas/4E8N

>  <Rbt.Executable>
rbdock ($Id: //depot/dev/client3/rdock/2013.1/src/exe/rbdock.cxx#4 $)

>  <Rbt.Library>
libRbt.so (2013.1, Build901 2013/11/27)

>  <Rbt.Parameter_File>
/export/apps/rDock/src/rDock_2013.1_src/data/scripts/dock_solv.prm

>  <Rbt.Receptor>
prm/pocket_docking_2.prm

>  <SCORE>
-7.128

>  <SCORE.INTER>
-4.0262

>  <SCORE.INTER.CONST>
1

>  <SCORE.INTER.POLAR>
0

>  <SCORE.INTER.ROT>
3

>  <SCORE.INTER.SOLV>
3.69927

>  <SCORE.INTER.VDW>
-9.51722

>  <SCORE.INTER.norm>
-0.335516

>  <SCORE.INTRA>
-3.1328

>  <SCORE.INTRA.DIHEDRAL>
-3.5752

>  <SCORE.INTRA.DIHEDRAL.0>
5.0186

>  <SCORE.INTRA.POLAR>
0

>  <SCORE.INTRA.POLAR.0>
0

>  <SCORE.INTRA.REPUL>
0

>  <SCORE.INTRA.REPUL.0>
0

>  <SCORE.INTRA.SOLV>
-0.145871

>  <SCORE.INTRA.SOLV.lig_0>
-16.1608

>  <SCORE.INTRA.VDW>
-1.27227

>  <SCORE.INTRA.VDW.0>
1.14169

>  <SCORE.INTRA.norm>
-0.261067

>  <SCORE.RESTR>
0.031

>  <SCORE.RESTR.CAVITY>
0.031

>  <SCORE.RESTR.norm>
0.00258333

>  <SCORE.SYSTEM>
0

>  <SCORE.SYSTEM.CONST>
0

>  <SCORE.SYSTEM.DIHEDRAL>
0

>  <SCORE.SYSTEM.SOLV>
0

>  <SCORE.SYSTEM.norm>
0

>  <SCORE.heavy>
12

>  <SCORE.norm>
-0.594

>  <RMSD>
1.362

$$$$
ligand
 OpenBabel11021811493D
libRbt.so/2013.1/901 2013/11/27
 12 12  0  0  0  0  0  0  0  0999 V2000
   31.1175  -22.3956    5.1461 N   0  0  0  0  0  0  0  0  0  0  0  0
   29.5359  -20.3559    8.8958 O   0  0  0  0  0  0  0  0  0  0  0  0
   30.5352  -21.7372    3.9510 C   0  0  0  0  0  0  0  0  0  0  0  0
   31.8669  -20.0091    9.0296 O   0  0  0  0  0  0  0  0  0  0  0  0
   31.1385  -22.3799    2.7064 C   0  0  0  0  0  0  0  0  0  0  0  0
   30.4065  -18.1270    8.4300 O   0  0  0  0  0  0  0  0  0  0  0  0
   30.7407  -23.7893    2.6401 N   0  0  0  0  0  0  0  0  0  0  0  0
   29.9443  -24.0931    3.8317 C   0  0  0  0  0  0  0  0  0  0  0  0
   30.8378  -23.8407    5.0341 C   0  0  0  0  0  0  0  0  0  0  0  0
   30.6610  -21.8535    6.4873 C   0  0  0  0  0  0  0  0  0  0  0  0
   30.8414  -20.3304    6.7190 C   0  0  0  0  0  0  0  0  0  0  0  0
   30.6673  -19.7201    8.2877 S   0  0  0  0  0  0  0  0  0  0  0  0
  1  3  1  0  0  0  0
  1  9  1  0  0  0  0
  1 10  1  0  0  0  0
  2 12  1  0  0  0  0
  3  5  1  0  0  0  0
  4 12  2  0  0  0  0
  5  7  1  0  0  0  0
  6 12  2  0  0  0  0
  7  8  1  0  0  0  0
  8  9  1  0  0  0  0
 10 11  1  0  0  0  0
 11 12  1  0  0  0  0
M  END
>  <CHROM.1>
-54.71407527,-167.07598702,-42.34515474,30.68607565,-21.31715874,6.23941608
1.53936391,-1.42693436,-2.24828494

>  <Name>
ligand

>  <RI>
0

>  <Rbt.Current_Directory>
/home/itssahil/PROJECTS/Mol_Feturizer/New_Systems/rnas/4E8N

>  <Rbt.Executable>
rbdock ($Id: //depot/dev/client3/rdock/2013.1/src/exe/rbdock.cxx#4 $)

>  <Rbt.Library>
libRbt.so (2013.1, Build901 2013/11/27)

>  <Rbt.Parameter_File>
/export/apps/rDock/src/rDock_2013.1_src/data/scripts/dock_solv.prm

>  <Rbt.Receptor>
prm/pocket_docking_2.prm

>  <SCORE>
-7.11784

>  <SCORE.INTER>
-3.97617

>  <SCORE.INTER.CONST>
1

>  <SCORE.INTER.POLAR>
0

>  <SCORE.INTER.ROT>
3

>  <SCORE.INTER.SOLV>
3.67244

>  <SCORE.INTER.VDW>
-9.47493

>  <SCORE.INTER.norm>
-0.331348

>  <SCORE.INTRA>
-3.16156

>  <SCORE.INTRA.DIHEDRAL>
-3.64738

>  <SCORE.INTRA.DIHEDRAL.0>
5.0186

>  <SCORE.INTRA.POLAR>
0

>  <SCORE.INTRA.POLAR.0>
0

>  <SCORE.INTRA.REPUL>
0

>  <SCORE.INTRA.REPUL.0>
0

>  <SCORE.INTRA.SOLV>
-0.141239

>  <SCORE.INTRA.SOLV.lig_0>
-16.1608

>  <SCORE.INTRA.VDW>
-1.26725

>  <SCORE.INTRA.VDW.0>
1.14169

>  <SCORE.INTRA.norm>
-0.263463

>  <SCORE.RESTR>
0.0198933

>  <SCORE.RESTR.CAVITY>
0.0198933

>  <SCORE.RESTR.norm>
0.00165778

>  <SCORE.SYSTEM>
0

>  <SCORE.SYSTEM.CONST>
0

>  <SCORE.SYSTEM.DIHEDRAL>
0

>  <SCORE.SYSTEM.SOLV>
0

>  <SCORE.SYSTEM.norm>
0

>  <SCORE.heavy>
12

>  <SCORE.norm>
-0.593153

>  <RMSD>
1.371

$$$$
ligand
 OpenBabel11021811493D
libRbt.so/2013.1/901 2013/11/27
 12 12  0  0  0  0  0  0  0  0999 V2000
   30.3591  -22.2206    5.2767 N   0  0  0  0  0  0  0  0  0  0  0  0
   30.3193  -18.1517    8.4250 O   0  0  0  0  0  0  0  0  0  0  0  0
   30.5039  -23.6896    5.1286 C   0  0  0  0  0  0  0  0  0  0  0  0
   29.7076  -20.2502    9.3162 O   0  0  0  0  0  0  0  0  0  0  0  0
   29.9685  -24.0895    3.7576 C   0  0  0  0  0  0  0  0  0  0  0  0
   32.0886  -19.6779    9.1200 O   0  0  0  0  0  0  0  0  0  0  0  0
   30.7965  -23.4823    2.7113 N   0  0  0  0  0  0  0  0  0  0  0  0
   31.8177  -22.6573    3.3616 C   0  0  0  0  0  0  0  0  0  0  0  0
   31.0821  -21.5905    4.1545 C   0  0  0  0  0  0  0  0  0  0  0  0
   30.8057  -21.6435    6.6066 C   0  0  0  0  0  0  0  0  0  0  0  0
   30.4420  -20.1602    6.8777 C   0  0  0  0  0  0  0  0  0  0  0  0
   30.6196  -19.5529    8.4471 S   0  0  0  0  0  0  0  0  0  0  0  0
  1  3  1  0  0  0  0
  1  9  1  0  0  0  0
  1 10  1  0  0  0  0
  2 12  1  0  0  0  0
  3  5  1  0  0  0  0
  4 12  2  0  0  0  0
  5  7  1  0  0  0  0
  6 12  2  0  0  0  0
  7  8  1  0  0  0  0
  8  9  1  0  0  0  0
 10 11  1  0  0  0  0
 11 12  1  0  0  0  0
M  END
>  <CHROM.1>
-169.82957224,167.43050334,175.82386473,30.70071108,-21.19033359,6.40721080
1.54017157,-1.00247302,-2.25332443

>  <Name>
ligand

>  <RI>
0

>  <Rbt.Current_Directory>
/home/itssahil/PROJECTS/Mol_Feturizer/New_Systems/rnas/4E8N

>  <Rbt.Executable>
rbdock ($Id: //depot/dev/client3/rdock/2013.1/src/exe/rbdock.cxx#4 $)

>  <Rbt.Library>
libRbt.so (2013.1, Build901 2013/11/27)

>  <Rbt.Parameter_File>
/export/apps/rDock/src/rDock_2013.1_src/data/scripts/dock_solv.prm

>  <Rbt.Receptor>
prm/pocket_docking_2.prm

>  <SCORE>
-6.55469

>  <SCORE.INTER>
-3.02645

>  <SCORE.INTER.CONST>
1

>  <SCORE.INTER.POLAR>
0

>  <SCORE.INTER.ROT>
3

>  <SCORE.INTER.SOLV>
5.28875

>  <SCORE.INTER.VDW>
-9.38055

>  <SCORE.INTER.norm>
-0.252204

>  <SCORE.INTRA>
-3.52824

>  <SCORE.INTRA.DIHEDRAL>
-4.2776

>  <SCORE.INTRA.DIHEDRAL.0>
5.0186

>  <SCORE.INTRA.POLAR>
0

>  <SCORE.INTRA.POLAR.0>
0

>  <SCORE.INTRA.REPUL>
0

>  <SCORE.INTRA.REPUL.0>
0

>  <SCORE.INTRA.SOLV>
0.0749863

>  <SCORE.INTRA.SOLV.lig_0>
-16.1608

>  <SCORE.INTRA.VDW>
-1.42693

>  <SCORE.INTRA.VDW.0>
1.14169

>  <SCORE.INTRA.norm>
-0.29402

>  <SCORE.RESTR>
0

>  <SCORE.RESTR.CAVITY>
0

>  <SCORE.RESTR.norm>
0

>  <SCORE.SYSTEM>
0

>  <SCORE.SYSTEM.CONST>
0

>  <SCORE.SYSTEM.DIHEDRAL>
0

>  <SCORE.SYSTEM.SOLV>
0

>  <SCORE.SYSTEM.norm>
0

>  <SCORE.heavy>
12

>  <SCORE.norm>
-0.546224

>  <RMSD>
1.372

$$$$
ligand
 OpenBabel11021811493D
libRbt.so/2013.1/901 2013/11/27
 12 12  0  0  0  0  0  0  0  0999 V2000
   30.6294  -21.6630    4.7594 N   0  0  0  0  0  0  0  0  0  0  0  0
   29.3178  -19.7367    7.0149 O   0  0  0  0  0  0  0  0  0  0  0  0
   30.4503  -23.0455    4.2518 C   0  0  0  0  0  0  0  0  0  0  0  0
   29.7453  -20.4717    9.2169 O   0  0  0  0  0  0  0  0  0  0  0  0
   29.3738  -23.0251    3.1716 C   0  0  0  0  0  0  0  0  0  0  0  0
   31.2655  -18.8452    8.1787 O   0  0  0  0  0  0  0  0  0  0  0  0
   29.8340  -22.2211    2.0354 N   0  0  0  0  0  0  0  0  0  0  0  0
   31.1518  -21.6751    2.3693 C   0  0  0  0  0  0  0  0  0  0  0  0
   30.9693  -20.8093    3.6042 C   0  0  0  0  0  0  0  0  0  0  0  0
   31.6403  -21.4958    5.8780 C   0  0  0  0  0  0  0  0  0  0  0  0
   31.0862  -21.5309    7.3264 C   0  0  0  0  0  0  0  0  0  0  0  0
   30.3306  -20.1475    7.9419 S   0  0  0  0  0  0  0  0  0  0  0  0
  1  3  1  0  0  0  0
  1  9  1  0  0  0  0
  1 10  1  0  0  0  0
  2 12  1  0  0  0  0
  3  5  1  0  0  0  0
  4 12  2  0  0  0  0
  5  7  1  0  0  0  0
  6 12  2  0  0  0  0
  7  8  1  0  0  0  0
  8  9  1  0  0  0  0
 10 11  1  0  0  0  0
 11 12  1  0  0  0  0
M  END
>  <CHROM.1>
-94.28814482,-78.63343578,52.27951584,30.45712679,-21.07392684,5.79235863
1.57734466,-0.99798869,-1.96750391

>  <Name>
ligand

>  <RI>
0

>  <Rbt.Current_Directory>
/home/itssahil/PROJECTS/Mol_Feturizer/New_Systems/rnas/4E8N

>  <Rbt.Executable>
rbdock ($Id: //depot/dev/client3/rdock/2013.1/src/exe/rbdock.cxx#4 $)

>  <Rbt.Library>
libRbt.so (2013.1, Build901 2013/11/27)

>  <Rbt.Parameter_File>
/export/apps/rDock/src/rDock_2013.1_src/data/scripts/dock_solv.prm

>  <Rbt.Receptor>
prm/pocket_docking_2.prm

>  <SCORE>
-6.54485

>  <SCORE.INTER>
-3.27869

>  <SCORE.INTER.CONST>
1

>  <SCORE.INTER.POLAR>
0

>  <SCORE.INTER.ROT>
3

>  <SCORE.INTER.SOLV>
7.11506

>  <SCORE.INTER.VDW>
-10.1575

>  <SCORE.INTER.norm>
-0.273224

>  <SCORE.INTRA>
-3.27221

>  <SCORE.INTRA.DIHEDRAL>
-2.11704

>  <SCORE.INTRA.DIHEDRAL.0>
5.0186

>  <SCORE.INTRA.POLAR>
0

>  <SCORE.INTRA.POLAR.0>
0

>  <SCORE.INTRA.REPUL>
0

>  <SCORE.INTRA.REPUL.0>
0

>  <SCORE.INTRA.SOLV>
-0.0109899

>  <SCORE.INTRA.SOLV.lig_0>
-16.1608

>  <SCORE.INTRA.VDW>
-2.20819

>  <SCORE.INTRA.VDW.0>
1.14169

>  <SCORE.INTRA.norm>
-0.272684

>  <SCORE.RESTR>
0.00605292

>  <SCORE.RESTR.CAVITY>
0.00605292

>  <SCORE.RESTR.norm>
0.00050441

>  <SCORE.SYSTEM>
0

>  <SCORE.SYSTEM.CONST>
0

>  <SCORE.SYSTEM.DIHEDRAL>
0

>  <SCORE.SYSTEM.SOLV>
0

>  <SCORE.SYSTEM.norm>
0

>  <SCORE.heavy>
12

>  <SCORE.norm>
-0.545404

>  <RMSD>
1.384

$$$$
ligand
 OpenBabel11021811493D
libRbt.so/2013.1/901 2013/11/27
 12 12  0  0  0  0  0  0  0  0999 V2000
   31.0992  -22.5057    5.1141 N   0  0  0  0  0  0  0  0  0  0  0  0
   29.8795  -20.7423    9.1035 O   0  0  0  0  0  0  0  0  0  0  0  0
   30.8115  -21.8097    3.8359 C   0  0  0  0  0  0  0  0  0  0  0  0
   31.6466  -19.1802    9.0104 O   0  0  0  0  0  0  0  0  0  0  0  0
   31.5211  -22.5570    2.7116 C   0  0  0  0  0  0  0  0  0  0  0  0
   29.5456  -18.6862    7.8371 O   0  0  0  0  0  0  0  0  0  0  0  0
   30.9588  -23.9051    2.5870 N   0  0  0  0  0  0  0  0  0  0  0  0
   29.9453  -24.0729    3.6315 C   0  0  0  0  0  0  0  0  0  0  0  0
   30.6551  -23.9054    4.9642 C   0  0  0  0  0  0  0  0  0  0  0  0
   30.5040  -21.8744    6.3585 C   0  0  0  0  0  0  0  0  0  0  0  0
   31.3157  -20.7246    7.0106 C   0  0  0  0  0  0  0  0  0  0  0  0
   30.6051  -19.8361    8.2631 S   0  0  0  0  0  0  0  0  0  0  0  0
  1  3  1  0  0  0  0
  1  9  1  0  0  0  0
  1 10  1  0  0  0  0
  2 12  1  0  0  0  0
  3  5  1  0  0  0  0
  4 12  2  0  0  0  0
  5  7  1  0  0  0  0
  6 12  2  0  0  0  0
  7  8  1  0  0  0  0
  8  9  1  0  0  0  0
 10 11  1  0  0  0  0
 11 12  1  0  0  0  0
M  END
>  <CHROM.1>
-84.35630172,171.38407332,39.91836537,30.68687823,-21.41441147,6.17961411
1.44579095,-1.21744894,-2.32464685

>  <Name>
ligand

>  <RI>
0

>  <Rbt.Current_Directory>
/home/itssahil/PROJECTS/Mol_Feturizer/New_Systems/rnas/4E8N

>  <Rbt.Executable>
rbdock ($Id: //depot/dev/client3/rdock/2013.1/src/exe/rbdock.cxx#4 $)

>  <Rbt.Library>
libRbt.so (2013.1, Build901 2013/11/27)

>  <Rbt.Parameter_File>
/export/apps/rDock/src/rDock_2013.1_src/data/scripts/dock_solv.prm

>  <Rbt.Receptor>
prm/pocket_docking_2.prm

>  <SCORE>
-7.5086

>  <SCORE.INTER>
-4.29361

>  <SCORE.INTER.CONST>
1

>  <SCORE.INTER.POLAR>
0

>  <SCORE.INTER.ROT>
3

>  <SCORE.INTER.SOLV>
3.39884

>  <SCORE.INTER.VDW>
-9.59535

>  <SCORE.INTER.norm>
-0.357801

>  <SCORE.INTRA>
-3.22312

>  <SCORE.INTRA.DIHEDRAL>
-2.91844

>  <SCORE.INTRA.DIHEDRAL.0>
5.0186

>  <SCORE.INTRA.POLAR>
0

>  <SCORE.INTRA.POLAR.0>
0

>  <SCORE.INTRA.REPUL>
0

>  <SCORE.INTRA.REPUL.0>
0

>  <SCORE.INTRA.SOLV>
-0.146898

>  <SCORE.INTRA.SOLV.lig_0>
-16.1608

>  <SCORE.INTRA.VDW>
-1.69045

>  <SCORE.INTRA.VDW.0>
1.14169

>  <SCORE.INTRA.norm>
-0.268593

>  <SCORE.RESTR>
0.00811942

>  <SCORE.RESTR.CAVITY>
0.00811942

>  <SCORE.RESTR.norm>
0.000676618

>  <SCORE.SYSTEM>
0

>  <SCORE.SYSTEM.CONST>
0

>  <SCORE.SYSTEM.DIHEDRAL>
0

>  <SCORE.SYSTEM.SOLV>
0

>  <SCORE.SYSTEM.norm>
0

>  <SCORE.heavy>
12

>  <SCORE.norm>
-0.625717

>  <RMSD>
1.389

$$$$
ligand
 OpenBabel11021811493D
libRbt.so/2013.1/901 2013/11/27
 12 12  0  0  0  0  0  0  0  0999 V2000
   31.1083  -22.3653    5.0318 N   0  0  0  0  0  0  0  0  0  0  0  0
   29.6447  -20.3691    8.8541 O   0  0  0  0  0  0  0  0  0  0  0  0
   30.4462  -21.7207    3.8712 C   0  0  0  0  0  0  0  0  0  0  0  0
   31.9871  -20.0983    8.9623 O   0  0  0  0  0  0  0  0  0  0  0  0
   31.0089  -22.3361    2.5942 C   0  0  0  0  0  0  0  0  0  0  0  0
   30.5786  -18.1581    8.4273 O   0  0  0  0  0  0  0  0  0  0  0  0
   30.6559  -23.7579    2.5378 N   0  0  0  0  0  0  0  0  0  0  0  0
   29.9297  -24.0947    3.7647 C   0  0  0  0  0  0  0  0  0  0  0  0
   30.8721  -23.8184    4.9237 C   0  0  0  0  0  0  0  0  0  0  0  0
   30.7002  -21.8460    6.3975 C   0  0  0  0  0  0  0  0  0  0  0  0
   30.9204  -20.3332    6.6599 C   0  0  0  0  0  0  0  0  0  0  0  0
   30.7871  -19.7548    8.2445 S   0  0  0  0  0  0  0  0  0  0  0  0
  1  3  1  0  0  0  0
  1  9  1  0  0  0  0
  1 10  1  0  0  0  0
  2 12  1  0  0  0  0
  3  5  1  0  0  0  0
  4 12  2  0  0  0  0
  5  7  1  0  0  0  0
  6 12  2  0  0  0  0
  7  8  1  0  0  0  0
  8  9  1  0  0  0  0
 10 11  1  0  0  0  0
 11 12  1  0  0  0  0
M  END
>  <CHROM.1>
-58.28535867,-167.67496920,-42.82621633,30.72670259,-21.32329439,6.16931525
1.83871081,-1.47348031,-1.93649782

>  <Name>
ligand

>  <RI>
0

>  <Rbt.Current_Directory>
/home/itssahil/PROJECTS/Mol_Feturizer/New_Systems/rnas/4E8N

>  <Rbt.Executable>
rbdock ($Id: //depot/dev/client3/rdock/2013.1/src/exe/rbdock.cxx#4 $)

>  <Rbt.Library>
libRbt.so (2013.1, Build901 2013/11/27)

>  <Rbt.Parameter_File>
/export/apps/rDock/src/rDock_2013.1_src/data/scripts/dock_solv.prm

>  <Rbt.Receptor>
prm/pocket_docking_2.prm

>  <SCORE>
-7.36289

>  <SCORE.INTER>
-4.14009

>  <SCORE.INTER.CONST>
1

>  <SCORE.INTER.POLAR>
0

>  <SCORE.INTER.ROT>
3

>  <SCORE.INTER.SOLV>
3.72914

>  <SCORE.INTER.VDW>
-9.60311

>  <SCORE.INTER.norm>
-0.345007

>  <SCORE.INTRA>
-3.30387

>  <SCORE.INTRA.DIHEDRAL>
-3.76089

>  <SCORE.INTRA.DIHEDRAL.0>
5.0186

>  <SCORE.INTRA.POLAR>
0

>  <SCORE.INTRA.POLAR.0>
0

>  <SCORE.INTRA.REPUL>
0

>  <SCORE.INTRA.REPUL.0>
0

>  <SCORE.INTRA.SOLV>
-0.14149

>  <SCORE.INTRA.SOLV.lig_0>
-16.1608

>  <SCORE.INTRA.VDW>
-1.35267

>  <SCORE.INTRA.VDW.0>
1.14169

>  <SCORE.INTRA.norm>
-0.275322

>  <SCORE.RESTR>
0.0810663

>  <SCORE.RESTR.CAVITY>
0.0810663

>  <SCORE.RESTR.norm>
0.00675552

>  <SCORE.SYSTEM>
0

>  <SCORE.SYSTEM.CONST>
0

>  <SCORE.SYSTEM.DIHEDRAL>
0

>  <SCORE.SYSTEM.SOLV>
0

>  <SCORE.SYSTEM.norm>
0

>  <SCORE.heavy>
12

>  <SCORE.norm>
-0.613574

>  <RMSD>
1.390

$$$$
ligand
 OpenBabel11021811493D
libRbt.so/2013.1/901 2013/11/27
 12 12  0  0  0  0  0  0  0  0999 V2000
   30.7103  -21.5966    4.6304 N   0  0  0  0  0  0  0  0  0  0  0  0
   29.4120  -19.6794    6.9543 O   0  0  0  0  0  0  0  0  0  0  0  0
   30.3217  -22.9864    4.2866 C   0  0  0  0  0  0  0  0  0  0  0  0
   29.6992  -20.5947    9.1110 O   0  0  0  0  0  0  0  0  0  0  0  0
   29.3102  -22.9345    3.1463 C   0  0  0  0  0  0  0  0  0  0  0  0
   31.3273  -18.9551    8.2771 O   0  0  0  0  0  0  0  0  0  0  0  0
   29.9465  -22.3727    1.9511 N   0  0  0  0  0  0  0  0  0  0  0  0
   31.3225  -22.0083    2.2977 C   0  0  0  0  0  0  0  0  0  0  0  0
   31.2374  -20.9692    3.4026 C   0  0  0  0  0  0  0  0  0  0  0  0
   31.6873  -21.4494    5.7814 C   0  0  0  0  0  0  0  0  0  0  0  0
   31.0977  -21.5597    7.2119 C   0  0  0  0  0  0  0  0  0  0  0  0
   30.3606  -20.1984    7.8950 S   0  0  0  0  0  0  0  0  0  0  0  0
  1  3  1  0  0  0  0
  1  9  1  0  0  0  0
  1 10  1  0  0  0  0
  2 12  1  0  0  0  0
  3  5  1  0  0  0  0
  4 12  2  0  0  0  0
  5  7  1  0  0  0  0
  6 12  2  0  0  0  0
  7  8  1  0  0  0  0
  8  9  1  0  0  0  0
 10 11  1  0  0  0  0
 11 12  1  0  0  0  0
M  END
>  <CHROM.1>
-79.43204316,-81.82468370,50.38750022,30.50763658,-21.12700428,5.72865790
-1.55978750,0.69613187,1.16143422

>  <Name>
ligand

>  <RI>
0

>  <Rbt.Current_Directory>
/home/itssahil/PROJECTS/Mol_Feturizer/New_Systems/rnas/4E8N

>  <Rbt.Executable>
rbdock ($Id: //depot/dev/client3/rdock/2013.1/src/exe/rbdock.cxx#4 $)

>  <Rbt.Library>
libRbt.so (2013.1, Build901 2013/11/27)

>  <Rbt.Parameter_File>
/export/apps/rDock/src/rDock_2013.1_src/data/scripts/dock_solv.prm

>  <Rbt.Receptor>
prm/pocket_docking_2.prm

>  <SCORE>
-6.99337

>  <SCORE.INTER>
-3.66078

>  <SCORE.INTER.CONST>
1

>  <SCORE.INTER.POLAR>
0

>  <SCORE.INTER.ROT>
3

>  <SCORE.INTER.SOLV>
7.19256

>  <SCORE.INTER.VDW>
-10.438

>  <SCORE.INTER.norm>
-0.305065

>  <SCORE.INTRA>
-3.33803

>  <SCORE.INTRA.DIHEDRAL>
-2.5433

>  <SCORE.INTRA.DIHEDRAL.0>
5.0186

>  <SCORE.INTRA.POLAR>
0

>  <SCORE.INTRA.POLAR.0>
0

>  <SCORE.INTRA.REPUL>
0

>  <SCORE.INTRA.REPUL.0>
0

>  <SCORE.INTRA.SOLV>
-0.0103521

>  <SCORE.INTRA.SOLV.lig_0>
-16.1608

>  <SCORE.INTRA.VDW>
-2.0612

>  <SCORE.INTRA.VDW.0>
1.14169

>  <SCORE.INTRA.norm>
-0.278169

>  <SCORE.RESTR>
0.00544351

>  <SCORE.RESTR.CAVITY>
0.00544351

>  <SCORE.RESTR.norm>
0.000453625

>  <SCORE.SYSTEM>
0

>  <SCORE.SYSTEM.CONST>
0

>  <SCORE.SYSTEM.DIHEDRAL>
0

>  <SCORE.SYSTEM.SOLV>
0

>  <SCORE.SYSTEM.norm>
0

>  <SCORE.heavy>
12

>  <SCORE.norm>
-0.582781

>  <RMSD>
1.398

$$$$
ligand
 OpenBabel11021811493D
libRbt.so/2013.1/901 2013/11/27
 12 12  0  0  0  0  0  0  0  0999 V2000
   30.6244  -21.9347    4.8748 N   0  0  0  0  0  0  0  0  0  0  0  0
   29.1943  -19.8316    7.2527 O   0  0  0  0  0  0  0  0  0  0  0  0
   30.6758  -23.3742    4.5197 C   0  0  0  0  0  0  0  0  0  0  0  0
   30.1013  -20.2631    9.3888 O   0  0  0  0  0  0  0  0  0  0  0  0
   29.5809  -23.6561    3.4961 C   0  0  0  0  0  0  0  0  0  0  0  0
   31.2501  -18.6888    7.8933 O   0  0  0  0  0  0  0  0  0  0  0  0
   29.8588  -22.9132    2.2632 N   0  0  0  0  0  0  0  0  0  0  0  0
   31.0696  -22.1164    2.4760 C   0  0  0  0  0  0  0  0  0  0  0  0
   30.7747  -21.1658    3.6237 C   0  0  0  0  0  0  0  0  0  0  0  0
   31.6230  -21.4762    5.9207 C   0  0  0  0  0  0  0  0  0  0  0  0
   31.1323  -21.4649    7.3921 C   0  0  0  0  0  0  0  0  0  0  0  0
   30.3986  -20.0640    7.9941 S   0  0  0  0  0  0  0  0  0  0  0  0
  1  3  1  0  0  0  0
  1  9  1  0  0  0  0
  1 10  1  0  0  0  0
  2 12  1  0  0  0  0
  3  5  1  0  0  0  0
  4 12  2  0  0  0  0
  5  7  1  0  0  0  0
  6 12  2  0  0  0  0
  7  8  1  0  0  0  0
  8  9  1  0  0  0  0
 10 11  1  0  0  0  0
 11 12  1  0  0  0  0
M  END
>  <CHROM.1>
-93.56499460,-89.61281328,63.22575443,30.50144123,-21.22974549,5.89672735
1.59686285,-1.20381891,-2.05926760

>  <Name>
ligand

>  <RI>
0

>  <Rbt.Current_Directory>
/home/itssahil/PROJECTS/Mol_Feturizer/New_Systems/rnas/4E8N

>  <Rbt.Executable>
rbdock ($Id: //depot/dev/client3/rdock/2013.1/src/exe/rbdock.cxx#4 $)

>  <Rbt.Library>
libRbt.so (2013.1, Build901 2013/11/27)

>  <Rbt.Parameter_File>
/export/apps/rDock/src/rDock_2013.1_src/data/scripts/dock_solv.prm

>  <Rbt.Receptor>
prm/pocket_docking_2.prm

>  <SCORE>
-6.35423

>  <SCORE.INTER>
-3.83234

>  <SCORE.INTER.CONST>
1

>  <SCORE.INTER.POLAR>
0

>  <SCORE.INTER.ROT>
3

>  <SCORE.INTER.SOLV>
5.84005

>  <SCORE.INTER.VDW>
-10.1016

>  <SCORE.INTER.norm>
-0.319362

>  <SCORE.INTRA>
-2.52562

>  <SCORE.INTRA.DIHEDRAL>
-0.775048

>  <SCORE.INTRA.DIHEDRAL.0>
5.0186

>  <SCORE.INTRA.POLAR>
0

>  <SCORE.INTRA.POLAR.0>
0

>  <SCORE.INTRA.REPUL>
0

>  <SCORE.INTRA.REPUL.0>
0

>  <SCORE.INTRA.SOLV>
0.00906367

>  <SCORE.INTRA.SOLV.lig_0>
-16.1608

>  <SCORE.INTRA.VDW>
-2.14263

>  <SCORE.INTRA.VDW.0>
1.14169

>  <SCORE.INTRA.norm>
-0.210468

>  <SCORE.RESTR>
0.00373099

>  <SCORE.RESTR.CAVITY>
0.00373099

>  <SCORE.RESTR.norm>
0.000310916

>  <SCORE.SYSTEM>
0

>  <SCORE.SYSTEM.CONST>
0

>  <SCORE.SYSTEM.DIHEDRAL>
0

>  <SCORE.SYSTEM.SOLV>
0

>  <SCORE.SYSTEM.norm>
0

>  <SCORE.heavy>
12

>  <SCORE.norm>
-0.529519

>  <RMSD>
1.401

$$$$
ligand
 OpenBabel11021811493D
libRbt.so/2013.1/901 2013/11/27
 12 12  0  0  0  0  0  0  0  0999 V2000
   31.1067  -22.4196    5.1341 N   0  0  0  0  0  0  0  0  0  0  0  0
   29.6269  -20.3258    8.9027 O   0  0  0  0  0  0  0  0  0  0  0  0
   30.5252  -21.7531    3.9431 C   0  0  0  0  0  0  0  0  0  0  0  0
   31.9723  -20.0825    9.0104 O   0  0  0  0  0  0  0  0  0  0  0  0
   31.1023  -22.4115    2.6943 C   0  0  0  0  0  0  0  0  0  0  0  0
   30.5893  -18.1355    8.4350 O   0  0  0  0  0  0  0  0  0  0  0  0
   30.6756  -23.8128    2.6366 N   0  0  0  0  0  0  0  0  0  0  0  0
   29.8859  -24.0970    3.8374 C   0  0  0  0  0  0  0  0  0  0  0  0
   30.7969  -23.8591    5.0296 C   0  0  0  0  0  0  0  0  0  0  0  0
   30.6753  -21.8646    6.4783 C   0  0  0  0  0  0  0  0  0  0  0  0
   30.9068  -20.3485    6.7108 C   0  0  0  0  0  0  0  0  0  0  0  0
   30.7780  -19.7379    8.2836 S   0  0  0  0  0  0  0  0  0  0  0  0
  1  3  1  0  0  0  0
  1  9  1  0  0  0  0
  1 10  1  0  0  0  0
  2 12  1  0  0  0  0
  3  5  1  0  0  0  0
  4 12  2  0  0  0  0
  5  7  1  0  0  0  0
  6 12  2  0  0  0  0
  7  8  1  0  0  0  0
  8  9  1  0  0  0  0
 10 11  1  0  0  0  0
 11 12  1  0  0  0  0
M  END
>  <CHROM.1>
-55.53777640,-166.40867186,-43.14502532,30.72578047,-21.33509986,6.23437337
1.71147622,-1.41204999,-2.07832119

>  <Name>
ligand

>  <RI>
0

>  <Rbt.Current_Directory>
/home/itssahil/PROJECTS/Mol_Feturizer/New_Systems/rnas/4E8N

>  <Rbt.Executable>
rbdock ($Id: //depot/dev/client3/rdock/2013.1/src/exe/rbdock.cxx#4 $)

>  <Rbt.Library>
libRbt.so (2013.1, Build901 2013/11/27)

>  <Rbt.Parameter_File>
/export/apps/rDock/src/rDock_2013.1_src/data/scripts/dock_solv.prm

>  <Rbt.Receptor>
prm/pocket_docking_2.prm

>  <SCORE>
-7.22815

>  <SCORE.INTER>
-4.07744

>  <SCORE.INTER.CONST>
1

>  <SCORE.INTER.POLAR>
0

>  <SCORE.INTER.ROT>
3

>  <SCORE.INTER.SOLV>
3.70653

>  <SCORE.INTER.VDW>
-9.5538

>  <SCORE.INTER.norm>
-0.339787

>  <SCORE.INTRA>
-3.18882

>  <SCORE.INTRA.DIHEDRAL>
-3.65476

>  <SCORE.INTRA.DIHEDRAL.0>
5.0186

>  <SCORE.INTRA.POLAR>
0

>  <SCORE.INTRA.POLAR.0>
0

>  <SCORE.INTRA.REPUL>
0

>  <SCORE.INTRA.REPUL.0>
0

>  <SCORE.INTRA.SOLV>
-0.139918

>  <SCORE.INTRA.SOLV.lig_0>
-16.1608

>  <SCORE.INTRA.VDW>
-1.29148

>  <SCORE.INTRA.VDW.0>
1.14169

>  <SCORE.INTRA.norm>
-0.265735

>  <SCORE.RESTR>
0.0381032

>  <SCORE.RESTR.CAVITY>
0.0381032

>  <SCORE.RESTR.norm>
0.00317527

>  <SCORE.SYSTEM>
0

>  <SCORE.SYSTEM.CONST>
0

>  <SCORE.SYSTEM.DIHEDRAL>
0

>  <SCORE.SYSTEM.SOLV>
0

>  <SCORE.SYSTEM.norm>
0

>  <SCORE.heavy>
12

>  <SCORE.norm>
-0.602346

>  <RMSD>
1.401

$$$$
ligand
 OpenBabel11021811493D
libRbt.so/2013.1/901 2013/11/27
 12 12  0  0  0  0  0  0  0  0999 V2000
   30.6569  -22.1380    5.0236 N   0  0  0  0  0  0  0  0  0  0  0  0
   29.1569  -19.8322    7.2797 O   0  0  0  0  0  0  0  0  0  0  0  0
   30.8334  -23.5968    4.8199 C   0  0  0  0  0  0  0  0  0  0  0  0
   30.0435  -20.1825    9.4391 O   0  0  0  0  0  0  0  0  0  0  0  0
   29.7797  -24.0743    3.8260 C   0  0  0  0  0  0  0  0  0  0  0  0
   31.1871  -18.6383    7.9086 O   0  0  0  0  0  0  0  0  0  0  0  0
   30.0110  -23.4415    2.5240 N   0  0  0  0  0  0  0  0  0  0  0  0
   31.1479  -22.5274    2.6586 C   0  0  0  0  0  0  0  0  0  0  0  0
   30.7590  -21.4921    3.7002 C   0  0  0  0  0  0  0  0  0  0  0  0
   31.5995  -21.4913    6.0209 C   0  0  0  0  0  0  0  0  0  0  0  0
   31.1174  -21.4302    7.4939 C   0  0  0  0  0  0  0  0  0  0  0  0
   30.3552  -20.0226    8.0425 S   0  0  0  0  0  0  0  0  0  0  0  0
  1  3  1  0  0  0  0
  1  9  1  0  0  0  0
  1 10  1  0  0  0  0
  2 12  1  0  0  0  0
  3  5  1  0  0  0  0
  4 12  2  0  0  0  0
  5  7  1  0  0  0  0
  6 12  2  0  0  0  0
  7  8  1  0  0  0  0
  8  9  1  0  0  0  0
 10 11  1  0  0  0  0
 11 12  1  0  0  0  0
M  END
>  <CHROM.1>
-90.78330502,-95.30530993,61.93866863,30.52227996,-21.36440276,6.02198609
1.50788516,-1.24685628,-2.22715622

>  <Name>
ligand

>  <RI>
0

>  <Rbt.Current_Directory>
/home/itssahil/PROJECTS/Mol_Feturizer/New_Systems/rnas/4E8N

>  <Rbt.Executable>
rbdock ($Id: //depot/dev/client3/rdock/2013.1/src/exe/rbdock.cxx#4 $)

>  <Rbt.Library>
libRbt.so (2013.1, Build901 2013/11/27)

>  <Rbt.Parameter_File>
/export/apps/rDock/src/rDock_2013.1_src/data/scripts/dock_solv.prm

>  <Rbt.Receptor>
prm/pocket_docking_2.prm

>  <SCORE>
-6.46455

>  <SCORE.INTER>
-4.29692

>  <SCORE.INTER.CONST>
1

>  <SCORE.INTER.POLAR>
0

>  <SCORE.INTER.ROT>
3

>  <SCORE.INTER.SOLV>
5.12716

>  <SCORE.INTER.VDW>
-10.1737

>  <SCORE.INTER.norm>
-0.358077

>  <SCORE.INTRA>
-2.16807

>  <SCORE.INTRA.DIHEDRAL>
-0.151233

>  <SCORE.INTRA.DIHEDRAL.0>
5.0186

>  <SCORE.INTRA.POLAR>
0

>  <SCORE.INTRA.POLAR.0>
0

>  <SCORE.INTRA.REPUL>
0

>  <SCORE.INTRA.REPUL.0>
0

>  <SCORE.INTRA.SOLV>
-0.00299974

>  <SCORE.INTRA.SOLV.lig_0>
-16.1608

>  <SCORE.INTRA.VDW>
-2.09095

>  <SCORE.INTRA.VDW.0>
1.14169

>  <SCORE.INTRA.norm>
-0.180672

>  <SCORE.RESTR>
0.000436286

>  <SCORE.RESTR.CAVITY>
0.000436286

>  <SCORE.RESTR.norm>
3.63572e-05

>  <SCORE.SYSTEM>
0

>  <SCORE.SYSTEM.CONST>
0

>  <SCORE.SYSTEM.DIHEDRAL>
0

>  <SCORE.SYSTEM.SOLV>
0

>  <SCORE.SYSTEM.norm>
0

>  <SCORE.heavy>
12

>  <SCORE.norm>
-0.538713

>  <RMSD>
1.465

$$$$
ligand
 OpenBabel11021811493D
libRbt.so/2013.1/901 2013/11/27
 12 12  0  0  0  0  0  0  0  0999 V2000
   30.6648  -22.1350    4.9949 N   0  0  0  0  0  0  0  0  0  0  0  0
   29.1744  -19.8187    7.2693 O   0  0  0  0  0  0  0  0  0  0  0  0
   30.8029  -23.6051    4.8522 C   0  0  0  0  0  0  0  0  0  0  0  0
   30.0553  -20.2022    9.4254 O   0  0  0  0  0  0  0  0  0  0  0  0
   29.7597  -24.0909    3.8512 C   0  0  0  0  0  0  0  0  0  0  0  0
   31.2094  -18.6435    7.9176 O   0  0  0  0  0  0  0  0  0  0  0  0
   30.0408  -23.5165    2.5320 N   0  0  0  0  0  0  0  0  0  0  0  0
   31.2006  -22.6308    2.6598 C   0  0  0  0  0  0  0  0  0  0  0  0
   30.8177  -21.5447    3.6506 C   0  0  0  0  0  0  0  0  0  0  0  0
   31.6019  -21.4769    5.9899 C   0  0  0  0  0  0  0  0  0  0  0  0
   31.1265  -21.4293    7.4656 C   0  0  0  0  0  0  0  0  0  0  0  0
   30.3703  -20.0252    8.0316 S   0  0  0  0  0  0  0  0  0  0  0  0
  1  3  1  0  0  0  0
  1  9  1  0  0  0  0
  1 10  1  0  0  0  0
  2 12  1  0  0  0  0
  3  5  1  0  0  0  0
  4 12  2  0  0  0  0
  5  7  1  0  0  0  0
  6 12  2  0  0  0  0
  7  8  1  0  0  0  0
  8  9  1  0  0  0  0
 10 11  1  0  0  0  0
 11 12  1  0  0  0  0
M  END
>  <CHROM.1>
-86.82583173,-96.43891642,61.51209372,30.53712739,-21.38311545,6.01375169
-1.51558306,1.18344255,0.91596152

>  <Name>
ligand

>  <RI>
0

>  <Rbt.Current_Directory>
/home/itssahil/PROJECTS/Mol_Feturizer/New_Systems/rnas/4E8N

>  <Rbt.Executable>
rbdock ($Id: //depot/dev/client3/rdock/2013.1/src/exe/rbdock.cxx#4 $)

>  <Rbt.Library>
libRbt.so (2013.1, Build901 2013/11/27)

>  <Rbt.Parameter_File>
/export/apps/rDock/src/rDock_2013.1_src/data/scripts/dock_solv.prm

>  <Rbt.Receptor>
prm/pocket_docking_2.prm

>  <SCORE>
-6.44667

>  <SCORE.INTER>
-4.2833

>  <SCORE.INTER.CONST>
1

>  <SCORE.INTER.POLAR>
0

>  <SCORE.INTER.ROT>
3

>  <SCORE.INTER.SOLV>
5.03841

>  <SCORE.INTER.VDW>
-10.135

>  <SCORE.INTER.norm>
-0.356942

>  <SCORE.INTRA>
-2.16448

>  <SCORE.INTRA.DIHEDRAL>
-0.246777

>  <SCORE.INTRA.DIHEDRAL.0>
5.0186

>  <SCORE.INTRA.POLAR>
0

>  <SCORE.INTRA.POLAR.0>
0

>  <SCORE.INTRA.REPUL>
0

>  <SCORE.INTRA.REPUL.0>
0

>  <SCORE.INTRA.SOLV>
-0.000536565

>  <SCORE.INTRA.SOLV.lig_0>
-16.1608

>  <SCORE.INTRA.VDW>
-2.04082

>  <SCORE.INTRA.VDW.0>
1.14169

>  <SCORE.INTRA.norm>
-0.180373

>  <SCORE.RESTR>
0.00110595

>  <SCORE.RESTR.CAVITY>
0.00110595

>  <SCORE.RESTR.norm>
9.21622e-05

>  <SCORE.SYSTEM>
0

>  <SCORE.SYSTEM.CONST>
0

>  <SCORE.SYSTEM.DIHEDRAL>
0

>  <SCORE.SYSTEM.SOLV>
0

>  <SCORE.SYSTEM.norm>
0

>  <SCORE.heavy>
12

>  <SCORE.norm>
-0.537223

>  <RMSD>
1.475

$$$$
ligand
 OpenBabel11021811493D
libRbt.so/2013.1/901 2013/11/27
 12 12  0  0  0  0  0  0  0  0999 V2000
   30.4931  -21.8912    5.3515 N   0  0  0  0  0  0  0  0  0  0  0  0
   30.7918  -18.2390    8.0341 O   0  0  0  0  0  0  0  0  0  0  0  0
   30.9183  -23.2894    5.6066 C   0  0  0  0  0  0  0  0  0  0  0  0
   29.6652  -19.3745    9.7700 O   0  0  0  0  0  0  0  0  0  0  0  0
   30.2778  -24.1864    4.5524 C   0  0  0  0  0  0  0  0  0  0  0  0
   32.0837  -19.7041    9.4926 O   0  0  0  0  0  0  0  0  0  0  0  0
   30.7927  -23.8303    3.2268 N   0  0  0  0  0  0  0  0  0  0  0  0
   31.7046  -22.6946    3.3837 C   0  0  0  0  0  0  0  0  0  0  0  0
   30.8903  -21.5542    3.9703 C   0  0  0  0  0  0  0  0  0  0  0  0
   31.0045  -20.8553    6.3347 C   0  0  0  0  0  0  0  0  0  0  0  0
   30.1862  -20.6723    7.6397 C   0  0  0  0  0  0  0  0  0  0  0  0
   30.6660  -19.4799    8.7402 S   0  0  0  0  0  0  0  0  0  0  0  0
  1  3  1  0  0  0  0
  1  9  1  0  0  0  0
  1 10  1  0  0  0  0
  2 12  1  0  0  0  0
  3  5  1  0  0  0  0
  4 12  2  0  0  0  0
  5  7  1  0  0  0  0
  6 12  2  0  0  0  0
  7  8  1  0  0  0  0
  8  9  1  0  0  0  0
 10 11  1  0  0  0  0
 11 12  1  0  0  0  0
M  END
>  <CHROM.1>
-84.48045431,-177.11643797,52.22876619,30.77974083,-21.07386969,6.65216625
-1.48737799,1.23485971,0.82733613

>  <Name>
ligand

>  <RI>
0

>  <Rbt.Current_Directory>
/home/itssahil/PROJECTS/Mol_Feturizer/New_Systems/rnas/4E8N

>  <Rbt.Executable>
rbdock ($Id: //depot/dev/client3/rdock/2013.1/src/exe/rbdock.cxx#4 $)

>  <Rbt.Library>
libRbt.so (2013.1, Build901 2013/11/27)

>  <Rbt.Parameter_File>
/export/apps/rDock/src/rDock_2013.1_src/data/scripts/dock_solv.prm

>  <Rbt.Receptor>
prm/pocket_docking_2.prm

>  <SCORE>
-6.79355

>  <SCORE.INTER>
-3.01946

>  <SCORE.INTER.CONST>
1

>  <SCORE.INTER.POLAR>
0

>  <SCORE.INTER.ROT>
3

>  <SCORE.INTER.SOLV>
5.15326

>  <SCORE.INTER.VDW>
-9.33073

>  <SCORE.INTER.norm>
-0.251622

>  <SCORE.INTRA>
-3.77409

>  <SCORE.INTRA.DIHEDRAL>
-3.90368

>  <SCORE.INTRA.DIHEDRAL.0>
5.0186

>  <SCORE.INTRA.POLAR>
0

>  <SCORE.INTRA.POLAR.0>
0

>  <SCORE.INTRA.REPUL>
0

>  <SCORE.INTRA.REPUL.0>
0

>  <SCORE.INTRA.SOLV>
-0.126649

>  <SCORE.INTRA.SOLV.lig_0>
-16.1608

>  <SCORE.INTRA.VDW>
-1.75892

>  <SCORE.INTRA.VDW.0>
1.14169

>  <SCORE.INTRA.norm>
-0.314507

>  <SCORE.RESTR>
0

>  <SCORE.RESTR.CAVITY>
0

>  <SCORE.RESTR.norm>
0

>  <SCORE.SYSTEM>
0

>  <SCORE.SYSTEM.CONST>
0

>  <SCORE.SYSTEM.DIHEDRAL>
0

>  <SCORE.SYSTEM.SOLV>
0

>  <SCORE.SYSTEM.norm>
0

>  <SCORE.heavy>
12

>  <SCORE.norm>
-0.566129

>  <RMSD>
1.483

$$$$
ligand
 OpenBabel11021811493D
libRbt.so/2013.1/901 2013/11/27
 12 12  0  0  0  0  0  0  0  0999 V2000
   30.6170  -21.9787    4.6628 N   0  0  0  0  0  0  0  0  0  0  0  0
   29.8035  -20.6057    9.1166 O   0  0  0  0  0  0  0  0  0  0  0  0
   30.6087  -23.4464    4.4464 C   0  0  0  0  0  0  0  0  0  0  0  0
   31.3971  -19.1872    8.1066 O   0  0  0  0  0  0  0  0  0  0  0  0
   29.5378  -23.7734    3.4109 C   0  0  0  0  0  0  0  0  0  0  0  0
   29.2133  -19.4999    7.0258 O   0  0  0  0  0  0  0  0  0  0  0  0
   29.8959  -23.1655    2.1259 N   0  0  0  0  0  0  0  0  0  0  0  0
   31.1368  -22.4092    2.3112 C   0  0  0  0  0  0  0  0  0  0  0  0
   30.8496  -21.3407    3.3521 C   0  0  0  0  0  0  0  0  0  0  0  0
   31.5998  -21.4694    5.7000 C   0  0  0  0  0  0  0  0  0  0  0  0
   31.1494  -21.5490    7.1822 C   0  0  0  0  0  0  0  0  0  0  0  0
   30.4002  -20.2007    7.8781 S   0  0  0  0  0  0  0  0  0  0  0  0
  1  3  1  0  0  0  0
  1  9  1  0  0  0  0
  1 10  1  0  0  0  0
  2 12  1  0  0  0  0
  3  5  1  0  0  0  0
  4 12  2  0  0  0  0
  5  7  1  0  0  0  0
  6 12  2  0  0  0  0
  7  8  1  0  0  0  0
  8  9  1  0  0  0  0
 10 11  1  0  0  0  0
 11 12  1  0  0  0  0
M  END
>  <CHROM.1>
-82.27998656,-93.40291405,166.66359100,30.49481932,-21.37012084,5.75332658
-1.56798410,1.03925183,1.06035392

>  <Name>
ligand

>  <RI>
0

>  <Rbt.Current_Directory>
/home/itssahil/PROJECTS/Mol_Feturizer/New_Systems/rnas/4E8N

>  <Rbt.Executable>
rbdock ($Id: //depot/dev/client3/rdock/2013.1/src/exe/rbdock.cxx#4 $)

>  <Rbt.Library>
libRbt.so (2013.1, Build901 2013/11/27)

>  <Rbt.Parameter_File>
/export/apps/rDock/src/rDock_2013.1_src/data/scripts/dock_solv.prm

>  <Rbt.Receptor>
prm/pocket_docking_2.prm

>  <SCORE>
-7.05384

>  <SCORE.INTER>
-4.9268

>  <SCORE.INTER.CONST>
1

>  <SCORE.INTER.POLAR>
0

>  <SCORE.INTER.ROT>
3

>  <SCORE.INTER.SOLV>
5.26637

>  <SCORE.INTER.VDW>
-10.64

>  <SCORE.INTER.norm>
-0.410566

>  <SCORE.INTRA>
-2.12733

>  <SCORE.INTRA.DIHEDRAL>
-0.550348

>  <SCORE.INTRA.DIHEDRAL.0>
5.0186

>  <SCORE.INTRA.POLAR>
0

>  <SCORE.INTRA.POLAR.0>
0

>  <SCORE.INTRA.REPUL>
0

>  <SCORE.INTRA.REPUL.0>
0

>  <SCORE.INTRA.SOLV>
0.34177

>  <SCORE.INTRA.SOLV.lig_0>
-16.1608

>  <SCORE.INTRA.VDW>
-2.02304

>  <SCORE.INTRA.VDW.0>
1.14169

>  <SCORE.INTRA.norm>
-0.177278

>  <SCORE.RESTR>
0.000286978

>  <SCORE.RESTR.CAVITY>
0.000286978

>  <SCORE.RESTR.norm>
2.39148e-05

>  <SCORE.SYSTEM>
0

>  <SCORE.SYSTEM.CONST>
0

>  <SCORE.SYSTEM.DIHEDRAL>
0

>  <SCORE.SYSTEM.SOLV>
0

>  <SCORE.SYSTEM.norm>
0

>  <SCORE.heavy>
12

>  <SCORE.norm>
-0.58782

>  <RMSD>
1.489

$$$$
ligand
 OpenBabel11021811493D
libRbt.so/2013.1/901 2013/11/27
 12 12  0  0  0  0  0  0  0  0999 V2000
   31.1106  -22.5005    5.1491 N   0  0  0  0  0  0  0  0  0  0  0  0
   29.8072  -20.6509    9.1245 O   0  0  0  0  0  0  0  0  0  0  0  0
   30.8970  -21.8575    3.8294 C   0  0  0  0  0  0  0  0  0  0  0  0
   31.9265  -19.6393    9.3629 O   0  0  0  0  0  0  0  0  0  0  0  0
   31.6037  -22.6936    2.7674 C   0  0  0  0  0  0  0  0  0  0  0  0
   30.2465  -18.5786    7.9182 O   0  0  0  0  0  0  0  0  0  0  0  0
   30.9802  -24.0181    2.6907 N   0  0  0  0  0  0  0  0  0  0  0  0
   29.9279  -24.0845    3.7078 C   0  0  0  0  0  0  0  0  0  0  0  0
   30.6035  -23.8834    5.0536 C   0  0  0  0  0  0  0  0  0  0  0  0
   30.5089  -21.7794    6.3404 C   0  0  0  0  0  0  0  0  0  0  0  0
   31.4972  -21.0249    7.2678 C   0  0  0  0  0  0  0  0  0  0  0  0
   30.8730  -19.9784    8.4419 S   0  0  0  0  0  0  0  0  0  0  0  0
  1  3  1  0  0  0  0
  1  9  1  0  0  0  0
  1 10  1  0  0  0  0
  2 12  1  0  0  0  0
  3  5  1  0  0  0  0
  4 12  2  0  0  0  0
  5  7  1  0  0  0  0
  6 12  2  0  0  0  0
  7  8  1  0  0  0  0
  8  9  1  0  0  0  0
 10 11  1  0  0  0  0
 11 12  1  0  0  0  0
M  END
>  <CHROM.1>
-105.69121980,169.10860562,46.92114009,30.83037067,-21.49532383,6.29051454
1.57109632,-1.16629436,-2.18390510

>  <Name>
ligand

>  <RI>
0

>  <Rbt.Current_Directory>
/home/itssahil/PROJECTS/Mol_Feturizer/New_Systems/rnas/4E8N

>  <Rbt.Executable>
rbdock ($Id: //depot/dev/client3/rdock/2013.1/src/exe/rbdock.cxx#4 $)

>  <Rbt.Library>
libRbt.so (2013.1, Build901 2013/11/27)

>  <Rbt.Parameter_File>
/export/apps/rDock/src/rDock_2013.1_src/data/scripts/dock_solv.prm

>  <Rbt.Receptor>
prm/pocket_docking_2.prm

>  <SCORE>
-7.86751

>  <SCORE.INTER>
-4.97776

>  <SCORE.INTER.CONST>
1

>  <SCORE.INTER.POLAR>
0

>  <SCORE.INTER.ROT>
3

>  <SCORE.INTER.SOLV>
3.37552

>  <SCORE.INTER.VDW>
-10.0437

>  <SCORE.INTER.norm>
-0.414814

>  <SCORE.INTRA>
-2.90127

>  <SCORE.INTRA.DIHEDRAL>
-2.05624

>  <SCORE.INTRA.DIHEDRAL.0>
5.0186

>  <SCORE.INTRA.POLAR>
0

>  <SCORE.INTRA.POLAR.0>
0

>  <SCORE.INTRA.REPUL>
0

>  <SCORE.INTRA.REPUL.0>
0

>  <SCORE.INTRA.SOLV>
-0.136017

>  <SCORE.INTRA.SOLV.lig_0>
-16.1608

>  <SCORE.INTRA.VDW>
-1.80513

>  <SCORE.INTRA.VDW.0>
1.14169

>  <SCORE.INTRA.norm>
-0.241772

>  <SCORE.RESTR>
0.0115221

>  <SCORE.RESTR.CAVITY>
0.0115221

>  <SCORE.RESTR.norm>
0.000960175

>  <SCORE.SYSTEM>
0

>  <SCORE.SYSTEM.CONST>
0

>  <SCORE.SYSTEM.DIHEDRAL>
0

>  <SCORE.SYSTEM.SOLV>
0

>  <SCORE.SYSTEM.norm>
0

>  <SCORE.heavy>
12

>  <SCORE.norm>
-0.655625

>  <RMSD>
1.490

$$$$
ligand
 OpenBabel11021811493D
libRbt.so/2013.1/901 2013/11/27
 12 12  0  0  0  0  0  0  0  0999 V2000
   30.5097  -21.9393    5.3504 N   0  0  0  0  0  0  0  0  0  0  0  0
   30.7475  -18.2010    7.9909 O   0  0  0  0  0  0  0  0  0  0  0  0
   31.0071  -23.3144    5.6003 C   0  0  0  0  0  0  0  0  0  0  0  0
   29.6772  -19.3669    9.7421 O   0  0  0  0  0  0  0  0  0  0  0  0
   30.3743  -24.2483    4.5739 C   0  0  0  0  0  0  0  0  0  0  0  0
   32.0904  -19.6710    9.3974 O   0  0  0  0  0  0  0  0  0  0  0  0
   30.8281  -23.8796    3.2296 N   0  0  0  0  0  0  0  0  0  0  0  0
   31.6914  -22.7020    3.3485 C   0  0  0  0  0  0  0  0  0  0  0  0
   30.8451  -21.5955    3.9546 C   0  0  0  0  0  0  0  0  0  0  0  0
   31.0050  -20.8732    6.3093 C   0  0  0  0  0  0  0  0  0  0  0  0
   30.1533  -20.6349    7.5836 C   0  0  0  0  0  0  0  0  0  0  0  0
   30.6514  -19.4511    8.6852 S   0  0  0  0  0  0  0  0  0  0  0  0
  1  3  1  0  0  0  0
  1  9  1  0  0  0  0
  1 10  1  0  0  0  0
  2 12  1  0  0  0  0
  3  5  1  0  0  0  0
  4 12  2  0  0  0  0
  5  7  1  0  0  0  0
  6 12  2  0  0  0  0
  7  8  1  0  0  0  0
  8  9  1  0  0  0  0
 10 11  1  0  0  0  0
 11 12  1  0  0  0  0
M  END
>  <CHROM.1>
-89.49953093,-179.61775587,57.10539718,30.78585981,-21.07808916,6.62074330
-1.44163010,1.29415530,0.76717593

>  <Name>
ligand

>  <RI>
0

>  <Rbt.Current_Directory>
/home/itssahil/PROJECTS/Mol_Feturizer/New_Systems/rnas/4E8N

>  <Rbt.Executable>
rbdock ($Id: //depot/dev/client3/rdock/2013.1/src/exe/rbdock.cxx#4 $)

>  <Rbt.Library>
libRbt.so (2013.1, Build901 2013/11/27)

>  <Rbt.Parameter_File>
/export/apps/rDock/src/rDock_2013.1_src/data/scripts/dock_solv.prm

>  <Rbt.Receptor>
prm/pocket_docking_2.prm

>  <SCORE>
-6.77696

>  <SCORE.INTER>
-3.04166

>  <SCORE.INTER.CONST>
1

>  <SCORE.INTER.POLAR>
0

>  <SCORE.INTER.ROT>
3

>  <SCORE.INTER.SOLV>
5.0956

>  <SCORE.INTER.VDW>
-9.3263

>  <SCORE.INTER.norm>
-0.253471

>  <SCORE.INTRA>
-3.73562

>  <SCORE.INTRA.DIHEDRAL>
-3.74242

>  <SCORE.INTRA.DIHEDRAL.0>
5.0186

>  <SCORE.INTRA.POLAR>
0

>  <SCORE.INTRA.POLAR.0>
0

>  <SCORE.INTRA.REPUL>
0

>  <SCORE.INTRA.REPUL.0>
0

>  <SCORE.INTRA.SOLV>
-0.117082

>  <SCORE.INTRA.SOLV.lig_0>
-16.1608

>  <SCORE.INTRA.VDW>
-1.80587

>  <SCORE.INTRA.VDW.0>
1.14169

>  <SCORE.INTRA.norm>
-0.311302

>  <SCORE.RESTR>
0.00031654

>  <SCORE.RESTR.CAVITY>
0.00031654

>  <SCORE.RESTR.norm>
2.63784e-05

>  <SCORE.SYSTEM>
0

>  <SCORE.SYSTEM.CONST>
0

>  <SCORE.SYSTEM.DIHEDRAL>
0

>  <SCORE.SYSTEM.SOLV>
0

>  <SCORE.SYSTEM.norm>
0

>  <SCORE.heavy>
12

>  <SCORE.norm>
-0.564747

>  <RMSD>
1.491

$$$$
ligand
 OpenBabel11021811493D
libRbt.so/2013.1/901 2013/11/27
 12 12  0  0  0  0  0  0  0  0999 V2000
   31.1030  -22.4944    5.1452 N   0  0  0  0  0  0  0  0  0  0  0  0
   29.8158  -20.6435    9.1326 O   0  0  0  0  0  0  0  0  0  0  0  0
   30.8582  -21.8554    3.8289 C   0  0  0  0  0  0  0  0  0  0  0  0
   31.9748  -19.7316    9.4135 O   0  0  0  0  0  0  0  0  0  0  0  0
   31.5555  -22.6843    2.7552 C   0  0  0  0  0  0  0  0  0  0  0  0
   30.3705  -18.5870    7.9469 O   0  0  0  0  0  0  0  0  0  0  0  0
   30.9462  -24.0161    2.6908 N   0  0  0  0  0  0  0  0  0  0  0  0
   29.9132  -24.0937    3.7267 C   0  0  0  0  0  0  0  0  0  0  0  0
   30.6103  -23.8833    5.0600 C   0  0  0  0  0  0  0  0  0  0  0  0
   30.5143  -21.7791    6.3464 C   0  0  0  0  0  0  0  0  0  0  0  0
   31.5188  -21.0846    7.3027 C   0  0  0  0  0  0  0  0  0  0  0  0
   30.9230  -20.0169    8.4726 S   0  0  0  0  0  0  0  0  0  0  0  0
  1  3  1  0  0  0  0
  1  9  1  0  0  0  0
  1 10  1  0  0  0  0
  2 12  1  0  0  0  0
  3  5  1  0  0  0  0
  4 12  2  0  0  0  0
  5  7  1  0  0  0  0
  6 12  2  0  0  0  0
  7  8  1  0  0  0  0
  8  9  1  0  0  0  0
 10 11  1  0  0  0  0
 11 12  1  0  0  0  0
M  END
>  <CHROM.1>
-109.29235081,167.79318321,47.40857041,30.84577678,-21.51308225,6.30652620
1.60630121,-1.18942792,-2.14284687

>  <Name>
ligand

>  <RI>
0

>  <Rbt.Current_Directory>
/home/itssahil/PROJECTS/Mol_Feturizer/New_Systems/rnas/4E8N

>  <Rbt.Executable>
rbdock ($Id: //depot/dev/client3/rdock/2013.1/src/exe/rbdock.cxx#4 $)

>  <Rbt.Library>
libRbt.so (2013.1, Build901 2013/11/27)

>  <Rbt.Parameter_File>
/export/apps/rDock/src/rDock_2013.1_src/data/scripts/dock_solv.prm

>  <Rbt.Receptor>
prm/pocket_docking_2.prm

>  <SCORE>
-7.80475

>  <SCORE.INTER>
-5.00046

>  <SCORE.INTER.CONST>
1

>  <SCORE.INTER.POLAR>
0

>  <SCORE.INTER.ROT>
3

>  <SCORE.INTER.SOLV>
3.46484

>  <SCORE.INTER.VDW>
-10.0886

>  <SCORE.INTER.norm>
-0.416705

>  <SCORE.INTRA>
-2.80498

>  <SCORE.INTRA.DIHEDRAL>
-1.85283

>  <SCORE.INTRA.DIHEDRAL.0>
5.0186

>  <SCORE.INTRA.POLAR>
0

>  <SCORE.INTRA.POLAR.0>
0

>  <SCORE.INTRA.REPUL>
0

>  <SCORE.INTRA.REPUL.0>
0

>  <SCORE.INTRA.SOLV>
-0.134766

>  <SCORE.INTRA.SOLV.lig_0>
-16.1608

>  <SCORE.INTRA.VDW>
-1.81118

>  <SCORE.INTRA.VDW.0>
1.14169

>  <SCORE.INTRA.norm>
-0.233748

>  <SCORE.RESTR>
0.000692581

>  <SCORE.RESTR.CAVITY>
0.000692581

>  <SCORE.RESTR.norm>
5.77151e-05

>  <SCORE.SYSTEM>
0

>  <SCORE.SYSTEM.CONST>
0

>  <SCORE.SYSTEM.DIHEDRAL>
0

>  <SCORE.SYSTEM.SOLV>
0

>  <SCORE.SYSTEM.norm>
0

>  <SCORE.heavy>
12

>  <SCORE.norm>
-0.650396

>  <RMSD>
1.512

$$$$
ligand
 OpenBabel11021811493D
libRbt.so/2013.1/901 2013/11/27
 12 12  0  0  0  0  0  0  0  0999 V2000
   30.5452  -22.0004    5.4192 N   0  0  0  0  0  0  0  0  0  0  0  0
   29.7307  -19.3630    9.7627 O   0  0  0  0  0  0  0  0  0  0  0  0
   31.0366  -23.3898    5.5900 C   0  0  0  0  0  0  0  0  0  0  0  0
   31.9877  -19.8472    9.2697 O   0  0  0  0  0  0  0  0  0  0  0  0
   30.3552  -24.2719    4.5489 C   0  0  0  0  0  0  0  0  0  0  0  0
   30.8828  -17.9787    8.1199 O   0  0  0  0  0  0  0  0  0  0  0  0
   30.7620  -23.8489    3.2055 N   0  0  0  0  0  0  0  0  0  0  0  0
   31.6420  -22.6857    3.3425 C   0  0  0  0  0  0  0  0  0  0  0  0
   30.8314  -21.5990    4.0279 C   0  0  0  0  0  0  0  0  0  0  0  0
   31.0879  -20.9821    6.4039 C   0  0  0  0  0  0  0  0  0  0  0  0
   30.2090  -20.6791    7.6456 C   0  0  0  0  0  0  0  0  0  0  0  0
   30.7097  -19.4733    8.7219 S   0  0  0  0  0  0  0  0  0  0  0  0
  1  3  1  0  0  0  0
  1  9  1  0  0  0  0
  1 10  1  0  0  0  0
  2 12  1  0  0  0  0
  3  5  1  0  0  0  0
  4 12  2  0  0  0  0
  5  7  1  0  0  0  0
  6 12  2  0  0  0  0
  7  8  1  0  0  0  0
  8  9  1  0  0  0  0
 10 11  1  0  0  0  0
 11 12  1  0  0  0  0
M  END
>  <CHROM.1>
-95.94357428,-175.73855173,178.92799246,30.80676659,-21.09729351,6.64569837
1.46888139,-1.30641346,-2.35490595

>  <Name>
ligand

>  <RI>
0

>  <Rbt.Current_Directory>
/home/itssahil/PROJECTS/Mol_Feturizer/New_Systems/rnas/4E8N

>  <Rbt.Executable>
rbdock ($Id: //depot/dev/client3/rdock/2013.1/src/exe/rbdock.cxx#4 $)

>  <Rbt.Library>
libRbt.so (2013.1, Build901 2013/11/27)

>  <Rbt.Parameter_File>
/export/apps/rDock/src/rDock_2013.1_src/data/scripts/dock_solv.prm

>  <Rbt.Receptor>
prm/pocket_docking_2.prm

>  <SCORE>
-6.95732

>  <SCORE.INTER>
-3.51538

>  <SCORE.INTER.CONST>
1

>  <SCORE.INTER.POLAR>
0

>  <SCORE.INTER.ROT>
3

>  <SCORE.INTER.SOLV>
4.14773

>  <SCORE.INTER.VDW>
-9.32616

>  <SCORE.INTER.norm>
-0.292948

>  <SCORE.INTRA>
-3.44194

>  <SCORE.INTRA.DIHEDRAL>
-3.29767

>  <SCORE.INTRA.DIHEDRAL.0>
5.0186

>  <SCORE.INTRA.POLAR>
0

>  <SCORE.INTRA.POLAR.0>
0

>  <SCORE.INTRA.REPUL>
0

>  <SCORE.INTRA.REPUL.0>
0

>  <SCORE.INTRA.SOLV>
0.0685835

>  <SCORE.INTRA.SOLV.lig_0>
-16.1608

>  <SCORE.INTRA.VDW>
-1.8274

>  <SCORE.INTRA.VDW.0>
1.14169

>  <SCORE.INTRA.norm>
-0.286828

>  <SCORE.RESTR>
0

>  <SCORE.RESTR.CAVITY>
0

>  <SCORE.RESTR.norm>
0

>  <SCORE.SYSTEM>
0

>  <SCORE.SYSTEM.CONST>
0

>  <SCORE.SYSTEM.DIHEDRAL>
0

>  <SCORE.SYSTEM.SOLV>
0

>  <SCORE.SYSTEM.norm>
0

>  <SCORE.heavy>
12

>  <SCORE.norm>
-0.579777

>  <RMSD>
1.513

$$$$
ligand
 OpenBabel11021811493D
libRbt.so/2013.1/901 2013/11/27
 12 12  0  0  0  0  0  0  0  0999 V2000
   30.4813  -21.8824    5.3191 N   0  0  0  0  0  0  0  0  0  0  0  0
   29.8547  -19.4947    9.8353 O   0  0  0  0  0  0  0  0  0  0  0  0
   30.9188  -23.2716    5.6014 C   0  0  0  0  0  0  0  0  0  0  0  0
   32.0886  -19.7882    9.1314 O   0  0  0  0  0  0  0  0  0  0  0  0
   30.2751  -24.1964    4.5735 C   0  0  0  0  0  0  0  0  0  0  0  0
   30.7608  -17.9554    8.1763 O   0  0  0  0  0  0  0  0  0  0  0  0
   30.7752  -23.8665    3.2356 N   0  0  0  0  0  0  0  0  0  0  0  0
   31.6805  -22.7213    3.3585 C   0  0  0  0  0  0  0  0  0  0  0  0
   30.8634  -21.5737    3.9271 C   0  0  0  0  0  0  0  0  0  0  0  0
   30.9943  -20.8213    6.2742 C   0  0  0  0  0  0  0  0  0  0  0  0
   30.2377  -20.6736    7.6202 C   0  0  0  0  0  0  0  0  0  0  0  0
   30.7450  -19.4847    8.7122 S   0  0  0  0  0  0  0  0  0  0  0  0
  1  3  1  0  0  0  0
  1  9  1  0  0  0  0
  1 10  1  0  0  0  0
  2 12  1  0  0  0  0
  3  5  1  0  0  0  0
  4 12  2  0  0  0  0
  5  7  1  0  0  0  0
  6 12  2  0  0  0  0
  7  8  1  0  0  0  0
  8  9  1  0  0  0  0
 10 11  1  0  0  0  0
 11 12  1  0  0  0  0
M  END
>  <CHROM.1>
-80.90408037,-178.76101858,176.86050583,30.80350026,-21.07048470,6.62331690
-1.50837379,1.27650515,0.83349096

>  <Name>
ligand

>  <RI>
0

>  <Rbt.Current_Directory>
/home/itssahil/PROJECTS/Mol_Feturizer/New_Systems/rnas/4E8N

>  <Rbt.Executable>
rbdock ($Id: //depot/dev/client3/rdock/2013.1/src/exe/rbdock.cxx#4 $)

>  <Rbt.Library>
libRbt.so (2013.1, Build901 2013/11/27)

>  <Rbt.Parameter_File>
/export/apps/rDock/src/rDock_2013.1_src/data/scripts/dock_solv.prm

>  <Rbt.Receptor>
prm/pocket_docking_2.prm

>  <SCORE>
-7.29549

>  <SCORE.INTER>
-3.42839

>  <SCORE.INTER.CONST>
1

>  <SCORE.INTER.POLAR>
0

>  <SCORE.INTER.ROT>
3

>  <SCORE.INTER.SOLV>
3.98667

>  <SCORE.INTER.VDW>
-9.21448

>  <SCORE.INTER.norm>
-0.285699

>  <SCORE.INTRA>
-3.87133

>  <SCORE.INTRA.DIHEDRAL>
-4.25958

>  <SCORE.INTRA.DIHEDRAL.0>
5.0186

>  <SCORE.INTRA.POLAR>
0

>  <SCORE.INTRA.POLAR.0>
0

>  <SCORE.INTRA.REPUL>
0

>  <SCORE.INTRA.REPUL.0>
0

>  <SCORE.INTRA.SOLV>
0.068873

>  <SCORE.INTRA.SOLV.lig_0>
-16.1608

>  <SCORE.INTRA.VDW>
-1.77597

>  <SCORE.INTRA.VDW.0>
1.14169

>  <SCORE.INTRA.norm>
-0.322611

>  <SCORE.RESTR>
0.0042242

>  <SCORE.RESTR.CAVITY>
0.0042242

>  <SCORE.RESTR.norm>
0.000352016

>  <SCORE.SYSTEM>
0

>  <SCORE.SYSTEM.CONST>
0

>  <SCORE.SYSTEM.DIHEDRAL>
0

>  <SCORE.SYSTEM.SOLV>
0

>  <SCORE.SYSTEM.norm>
0

>  <SCORE.heavy>
12

>  <SCORE.norm>
-0.607958

>  <RMSD>
1.515

$$$$
ligand
 OpenBabel11021811493D
libRbt.so/2013.1/901 2013/11/27
 12 12  0  0  0  0  0  0  0  0999 V2000
   30.5973  -22.0669    4.6933 N   0  0  0  0  0  0  0  0  0  0  0  0
   29.8307  -20.5888    9.1262 O   0  0  0  0  0  0  0  0  0  0  0  0
   30.7013  -23.5295    4.4675 C   0  0  0  0  0  0  0  0  0  0  0  0
   31.3887  -19.1616    8.0738 O   0  0  0  0  0  0  0  0  0  0  0  0
   29.6190  -23.9407    3.4746 C   0  0  0  0  0  0  0  0  0  0  0  0
   29.1952  -19.5221    7.0283 O   0  0  0  0  0  0  0  0  0  0  0  0
   29.8720  -23.3008    2.1802 N   0  0  0  0  0  0  0  0  0  0  0  0
   31.0528  -22.4450    2.3194 C   0  0  0  0  0  0  0  0  0  0  0  0
   30.7218  -21.4074    3.3785 C   0  0  0  0  0  0  0  0  0  0  0  0
   31.5768  -21.4815    5.6927 C   0  0  0  0  0  0  0  0  0  0  0  0
   31.1637  -21.5399    7.1866 C   0  0  0  0  0  0  0  0  0  0  0  0
   30.4041  -20.1930    7.8737 S   0  0  0  0  0  0  0  0  0  0  0  0
  1  3  1  0  0  0  0
  1  9  1  0  0  0  0
  1 10  1  0  0  0  0
  2 12  1  0  0  0  0
  3  5  1  0  0  0  0
  4 12  2  0  0  0  0
  5  7  1  0  0  0  0
  6 12  2  0  0  0  0
  7  8  1  0  0  0  0
  8  9  1  0  0  0  0
 10 11  1  0  0  0  0
 11 12  1  0  0  0  0
M  END
>  <CHROM.1>
-85.22593186,-95.08696458,165.93025992,30.48893388,-21.40940254,5.76555333
-1.57667225,1.20024556,1.04597584

>  <Name>
ligand

>  <RI>
0

>  <Rbt.Current_Directory>
/home/itssahil/PROJECTS/Mol_Feturizer/New_Systems/rnas/4E8N

>  <Rbt.Executable>
rbdock ($Id: //depot/dev/client3/rdock/2013.1/src/exe/rbdock.cxx#4 $)

>  <Rbt.Library>
libRbt.so (2013.1, Build901 2013/11/27)

>  <Rbt.Parameter_File>
/export/apps/rDock/src/rDock_2013.1_src/data/scripts/dock_solv.prm

>  <Rbt.Receptor>
prm/pocket_docking_2.prm

>  <SCORE>
-6.91982

>  <SCORE.INTER>
-5.00578

>  <SCORE.INTER.CONST>
1

>  <SCORE.INTER.POLAR>
0

>  <SCORE.INTER.ROT>
3

>  <SCORE.INTER.SOLV>
5.13109

>  <SCORE.INTER.VDW>
-10.6476

>  <SCORE.INTER.norm>
-0.417148

>  <SCORE.INTRA>
-1.91404

>  <SCORE.INTRA.DIHEDRAL>
-0.0897492

>  <SCORE.INTRA.DIHEDRAL.0>
5.0186

>  <SCORE.INTRA.POLAR>
0

>  <SCORE.INTRA.POLAR.0>
0

>  <SCORE.INTRA.REPUL>
0

>  <SCORE.INTRA.REPUL.0>
0

>  <SCORE.INTRA.SOLV>
0.335959

>  <SCORE.INTRA.SOLV.lig_0>
-16.1608

>  <SCORE.INTRA.VDW>
-2.03715

>  <SCORE.INTRA.VDW.0>
1.14169

>  <SCORE.INTRA.norm>
-0.159504

>  <SCORE.RESTR>
0

>  <SCORE.RESTR.CAVITY>
0

>  <SCORE.RESTR.norm>
0

>  <SCORE.SYSTEM>
0

>  <SCORE.SYSTEM.CONST>
0

>  <SCORE.SYSTEM.DIHEDRAL>
0

>  <SCORE.SYSTEM.SOLV>
0

>  <SCORE.SYSTEM.norm>
0

>  <SCORE.heavy>
12

>  <SCORE.norm>
-0.576652

>  <RMSD>
1.516

$$$$
ligand
 OpenBabel11021811493D
libRbt.so/2013.1/901 2013/11/27
 12 12  0  0  0  0  0  0  0  0999 V2000
   30.5513  -22.0212    5.4006 N   0  0  0  0  0  0  0  0  0  0  0  0
   29.7925  -19.3975    9.7630 O   0  0  0  0  0  0  0  0  0  0  0  0
   31.0492  -23.4075    5.5772 C   0  0  0  0  0  0  0  0  0  0  0  0
   32.0450  -19.8141    9.1936 O   0  0  0  0  0  0  0  0  0  0  0  0
   30.3621  -24.2996    4.5485 C   0  0  0  0  0  0  0  0  0  0  0  0
   30.8467  -17.9790    8.0840 O   0  0  0  0  0  0  0  0  0  0  0  0
   30.7558  -23.8850    3.1986 N   0  0  0  0  0  0  0  0  0  0  0  0
   31.6327  -22.7176    3.3195 C   0  0  0  0  0  0  0  0  0  0  0  0
   30.8240  -21.6289    4.0039 C   0  0  0  0  0  0  0  0  0  0  0  0
   31.0987  -20.9937    6.3731 C   0  0  0  0  0  0  0  0  0  0  0  0
   30.2380  -20.6982    7.6293 C   0  0  0  0  0  0  0  0  0  0  0  0
   30.7387  -19.4782    8.6896 S   0  0  0  0  0  0  0  0  0  0  0  0
  1  3  1  0  0  0  0
  1  9  1  0  0  0  0
  1 10  1  0  0  0  0
  2 12  1  0  0  0  0
  3  5  1  0  0  0  0
  4 12  2  0  0  0  0
  5  7  1  0  0  0  0
  6 12  2  0  0  0  0
  7  8  1  0  0  0  0
  8  9  1  0  0  0  0
 10 11  1  0  0  0  0
 11 12  1  0  0  0  0
M  END
>  <CHROM.1>
-95.18544969,-175.43426040,-179.85774066,30.82161964,-21.11246283,6.62132578
1.48311659,-1.31819786,-2.34664074

>  <Name>
ligand

>  <RI>
0

>  <Rbt.Current_Directory>
/home/itssahil/PROJECTS/Mol_Feturizer/New_Systems/rnas/4E8N

>  <Rbt.Executable>
rbdock ($Id: //depot/dev/client3/rdock/2013.1/src/exe/rbdock.cxx#4 $)

>  <Rbt.Library>
libRbt.so (2013.1, Build901 2013/11/27)

>  <Rbt.Parameter_File>
/export/apps/rDock/src/rDock_2013.1_src/data/scripts/dock_solv.prm

>  <Rbt.Receptor>
prm/pocket_docking_2.prm

>  <SCORE>
-7.02782

>  <SCORE.INTER>
-3.57759

>  <SCORE.INTER.CONST>
1

>  <SCORE.INTER.POLAR>
0

>  <SCORE.INTER.ROT>
3

>  <SCORE.INTER.SOLV>
4.10581

>  <SCORE.INTER.VDW>
-9.35366

>  <SCORE.INTER.norm>
-0.298133

>  <SCORE.INTRA>
-3.45389

>  <SCORE.INTRA.DIHEDRAL>
-3.3332

>  <SCORE.INTRA.DIHEDRAL.0>
5.0186

>  <SCORE.INTRA.POLAR>
0

>  <SCORE.INTRA.POLAR.0>
0

>  <SCORE.INTRA.REPUL>
0

>  <SCORE.INTRA.REPUL.0>
0

>  <SCORE.INTRA.SOLV>
0.0686315

>  <SCORE.INTRA.SOLV.lig_0>
-16.1608

>  <SCORE.INTRA.VDW>
-1.8216

>  <SCORE.INTRA.VDW.0>
1.14169

>  <SCORE.INTRA.norm>
-0.287824

>  <SCORE.RESTR>
0.00366008

>  <SCORE.RESTR.CAVITY>
0.00366008

>  <SCORE.RESTR.norm>
0.000305007

>  <SCORE.SYSTEM>
0

>  <SCORE.SYSTEM.CONST>
0

>  <SCORE.SYSTEM.DIHEDRAL>
0

>  <SCORE.SYSTEM.SOLV>
0

>  <SCORE.SYSTEM.norm>
0

>  <SCORE.heavy>
12

>  <SCORE.norm>
-0.585652

>  <RMSD>
1.519

$$$$
ligand
 OpenBabel11021811493D
libRbt.so/2013.1/901 2013/11/27
 12 12  0  0  0  0  0  0  0  0999 V2000
   31.0969  -22.4865    5.1503 N   0  0  0  0  0  0  0  0  0  0  0  0
   29.8253  -20.6923    9.1651 O   0  0  0  0  0  0  0  0  0  0  0  0
   30.8601  -21.8579    3.8276 C   0  0  0  0  0  0  0  0  0  0  0  0
   31.9773  -19.7625    9.4413 O   0  0  0  0  0  0  0  0  0  0  0  0
   31.5569  -22.6998    2.7637 C   0  0  0  0  0  0  0  0  0  0  0  0
   30.3456  -18.6076    8.0135 O   0  0  0  0  0  0  0  0  0  0  0  0
   30.9409  -24.0289    2.7089 N   0  0  0  0  0  0  0  0  0  0  0  0
   29.9039  -24.0922    3.7417 C   0  0  0  0  0  0  0  0  0  0  0  0
   30.5974  -23.8736    5.0755 C   0  0  0  0  0  0  0  0  0  0  0  0
   30.5076  -21.7577    6.3432 C   0  0  0  0  0  0  0  0  0  0  0  0
   31.5137  -21.0798    7.3097 C   0  0  0  0  0  0  0  0  0  0  0  0
   30.9187  -20.0413    8.5059 S   0  0  0  0  0  0  0  0  0  0  0  0
  1  3  1  0  0  0  0
  1  9  1  0  0  0  0
  1 10  1  0  0  0  0
  2 12  1  0  0  0  0
  3  5  1  0  0  0  0
  4 12  2  0  0  0  0
  5  7  1  0  0  0  0
  6 12  2  0  0  0  0
  7  8  1  0  0  0  0
  8  9  1  0  0  0  0
 10 11  1  0  0  0  0
 11 12  1  0  0  0  0
M  END
>  <CHROM.1>
-110.26705195,169.94537626,47.90648683,30.84092376,-21.52444131,6.32734141
1.60476815,-1.17915123,-2.13874377

>  <Name>
ligand

>  <RI>
0

>  <Rbt.Current_Directory>
/home/itssahil/PROJECTS/Mol_Feturizer/New_Systems/rnas/4E8N

>  <Rbt.Executable>
rbdock ($Id: //depot/dev/client3/rdock/2013.1/src/exe/rbdock.cxx#4 $)

>  <Rbt.Library>
libRbt.so (2013.1, Build901 2013/11/27)

>  <Rbt.Parameter_File>
/export/apps/rDock/src/rDock_2013.1_src/data/scripts/dock_solv.prm

>  <Rbt.Receptor>
prm/pocket_docking_2.prm

>  <SCORE>
-7.88487

>  <SCORE.INTER>
-4.9981

>  <SCORE.INTER.CONST>
1

>  <SCORE.INTER.POLAR>
0

>  <SCORE.INTER.ROT>
3

>  <SCORE.INTER.SOLV>
3.486

>  <SCORE.INTER.VDW>
-10.0941

>  <SCORE.INTER.norm>
-0.416508

>  <SCORE.INTRA>
-2.89315

>  <SCORE.INTRA.DIHEDRAL>
-2.02454

>  <SCORE.INTRA.DIHEDRAL.0>
5.0186

>  <SCORE.INTRA.POLAR>
0

>  <SCORE.INTRA.POLAR.0>
0

>  <SCORE.INTRA.REPUL>
0

>  <SCORE.INTRA.REPUL.0>
0

>  <SCORE.INTRA.SOLV>
-0.134492

>  <SCORE.INTRA.SOLV.lig_0>
-16.1608

>  <SCORE.INTRA.VDW>
-1.81364

>  <SCORE.INTRA.VDW.0>
1.14169

>  <SCORE.INTRA.norm>
-0.241096

>  <SCORE.RESTR>
0.00638143

>  <SCORE.RESTR.CAVITY>
0.00638143

>  <SCORE.RESTR.norm>
0.000531786

>  <SCORE.SYSTEM>
0

>  <SCORE.SYSTEM.CONST>
0

>  <SCORE.SYSTEM.DIHEDRAL>
0

>  <SCORE.SYSTEM.SOLV>
0

>  <SCORE.SYSTEM.norm>
0

>  <SCORE.heavy>
12

>  <SCORE.norm>
-0.657072

>  <RMSD>
1.521

$$$$
ligand
 OpenBabel11021811493D
libRbt.so/2013.1/901 2013/11/27
 12 12  0  0  0  0  0  0  0  0999 V2000
   31.1261  -22.3538    5.2021 N   0  0  0  0  0  0  0  0  0  0  0  0
   29.8150  -20.4902    9.1896 O   0  0  0  0  0  0  0  0  0  0  0  0
   30.8515  -21.8359    3.8393 C   0  0  0  0  0  0  0  0  0  0  0  0
   32.0158  -19.7136    9.5433 O   0  0  0  0  0  0  0  0  0  0  0  0
   31.5523  -22.7407    2.8311 C   0  0  0  0  0  0  0  0  0  0  0  0
   30.5229  -18.4515    8.0557 O   0  0  0  0  0  0  0  0  0  0  0  0
   30.9703  -24.0849    2.8906 N   0  0  0  0  0  0  0  0  0  0  0  0
   29.9522  -24.0930    3.9440 C   0  0  0  0  0  0  0  0  0  0  0  0
   30.6616  -23.7543    5.2440 C   0  0  0  0  0  0  0  0  0  0  0  0
   30.5378  -21.5491    6.3456 C   0  0  0  0  0  0  0  0  0  0  0  0
   31.5382  -21.0025    7.3975 C   0  0  0  0  0  0  0  0  0  0  0  0
   30.9750  -19.9203    8.5701 S   0  0  0  0  0  0  0  0  0  0  0  0
  1  3  1  0  0  0  0
  1  9  1  0  0  0  0
  1 10  1  0  0  0  0
  2 12  1  0  0  0  0
  3  5  1  0  0  0  0
  4 12  2  0  0  0  0
  5  7  1  0  0  0  0
  6 12  2  0  0  0  0
  7  8  1  0  0  0  0
  8  9  1  0  0  0  0
 10 11  1  0  0  0  0
 11 12  1  0  0  0  0
M  END
>  <CHROM.1>
-121.81396471,171.49044339,51.32137365,30.88292157,-21.43665109,6.40854329
-1.62180883,1.21441485,0.99962847

>  <Name>
ligand

>  <RI>
0

>  <Rbt.Current_Directory>
/home/itssahil/PROJECTS/Mol_Feturizer/New_Systems/rnas/4E8N

>  <Rbt.Executable>
rbdock ($Id: //depot/dev/client3/rdock/2013.1/src/exe/rbdock.cxx#4 $)

>  <Rbt.Library>
libRbt.so (2013.1, Build901 2013/11/27)

>  <Rbt.Parameter_File>
/export/apps/rDock/src/rDock_2013.1_src/data/scripts/dock_solv.prm

>  <Rbt.Receptor>
prm/pocket_docking_2.prm

>  <SCORE>
-7.93121

>  <SCORE.INTER>
-4.94212

>  <SCORE.INTER.CONST>
1

>  <SCORE.INTER.POLAR>
0

>  <SCORE.INTER.ROT>
3

>  <SCORE.INTER.SOLV>
3.42658

>  <SCORE.INTER.VDW>
-10.0369

>  <SCORE.INTER.norm>
-0.411843

>  <SCORE.INTRA>
-2.98909

>  <SCORE.INTRA.DIHEDRAL>
-2.19729

>  <SCORE.INTRA.DIHEDRAL.0>
5.0186

>  <SCORE.INTRA.POLAR>
0

>  <SCORE.INTRA.POLAR.0>
0

>  <SCORE.INTRA.REPUL>
0

>  <SCORE.INTRA.REPUL.0>
0

>  <SCORE.INTRA.SOLV>
-0.128402

>  <SCORE.INTRA.SOLV.lig_0>
-16.1608

>  <SCORE.INTRA.VDW>
-1.82624

>  <SCORE.INTRA.VDW.0>
1.14169

>  <SCORE.INTRA.norm>
-0.249091

>  <SCORE.RESTR>
0

>  <SCORE.RESTR.CAVITY>
0

>  <SCORE.RESTR.norm>
0

>  <SCORE.SYSTEM>
0

>  <SCORE.SYSTEM.CONST>
0

>  <SCORE.SYSTEM.DIHEDRAL>
0

>  <SCORE.SYSTEM.SOLV>
0

>  <SCORE.SYSTEM.norm>
0

>  <SCORE.heavy>
12

>  <SCORE.norm>
-0.660934

>  <RMSD>
1.522

$$$$
ligand
 OpenBabel11021811493D
libRbt.so/2013.1/901 2013/11/27
 12 12  0  0  0  0  0  0  0  0999 V2000
   31.1082  -22.4780    5.1552 N   0  0  0  0  0  0  0  0  0  0  0  0
   30.5677  -18.7855    7.8250 O   0  0  0  0  0  0  0  0  0  0  0  0
   30.8599  -21.8536    3.8325 C   0  0  0  0  0  0  0  0  0  0  0  0
   29.8190  -20.5990    9.1375 O   0  0  0  0  0  0  0  0  0  0  0  0
   31.5523  -22.6958    2.7660 C   0  0  0  0  0  0  0  0  0  0  0  0
   31.9832  -19.5576    9.6534 O   0  0  0  0  0  0  0  0  0  0  0  0
   30.9408  -24.0273    2.7188 N   0  0  0  0  0  0  0  0  0  0  0  0
   29.9112  -24.0916    3.7590 C   0  0  0  0  0  0  0  0  0  0  0  0
   30.6132  -23.8670    5.0874 C   0  0  0  0  0  0  0  0  0  0  0  0
   30.5247  -21.7482    6.3502 C   0  0  0  0  0  0  0  0  0  0  0  0
   31.5357  -21.0761    7.3156 C   0  0  0  0  0  0  0  0  0  0  0  0
   30.9527  -19.9990    8.4832 S   0  0  0  0  0  0  0  0  0  0  0  0
  1  3  1  0  0  0  0
  1  9  1  0  0  0  0
  1 10  1  0  0  0  0
  2 12  1  0  0  0  0
  3  5  1  0  0  0  0
  4 12  2  0  0  0  0
  5  7  1  0  0  0  0
  6 12  2  0  0  0  0
  7  8  1  0  0  0  0
  8  9  1  0  0  0  0
 10 11  1  0  0  0  0
 11 12  1  0  0  0  0
M  END
>  <CHROM.1>
-110.85362101,168.05271299,-72.86452514,30.87006040,-21.50455915,6.32792158
1.62976582,-1.11958877,-2.11866431

>  <Name>
ligand

>  <RI>
0

>  <Rbt.Current_Directory>
/home/itssahil/PROJECTS/Mol_Feturizer/New_Systems/rnas/4E8N

>  <Rbt.Executable>
rbdock ($Id: //depot/dev/client3/rdock/2013.1/src/exe/rbdock.cxx#4 $)

>  <Rbt.Library>
libRbt.so (2013.1, Build901 2013/11/27)

>  <Rbt.Parameter_File>
/export/apps/rDock/src/rDock_2013.1_src/data/scripts/dock_solv.prm

>  <Rbt.Receptor>
prm/pocket_docking_2.prm

>  <SCORE>
-6.99113

>  <SCORE.INTER>
-4.20519

>  <SCORE.INTER.CONST>
1

>  <SCORE.INTER.POLAR>
0

>  <SCORE.INTER.ROT>
3

>  <SCORE.INTER.SOLV>
5.37733

>  <SCORE.INTER.VDW>
-10.1959

>  <SCORE.INTER.norm>
-0.350433

>  <SCORE.INTRA>
-2.78847

>  <SCORE.INTRA.DIHEDRAL>
-1.81727

>  <SCORE.INTRA.DIHEDRAL.0>
5.0186

>  <SCORE.INTRA.POLAR>
0

>  <SCORE.INTRA.POLAR.0>
0

>  <SCORE.INTRA.REPUL>
0

>  <SCORE.INTRA.REPUL.0>
0

>  <SCORE.INTRA.SOLV>
-0.0855029

>  <SCORE.INTRA.SOLV.lig_0>
-16.1608

>  <SCORE.INTRA.VDW>
-1.83708

>  <SCORE.INTRA.VDW.0>
1.14169

>  <SCORE.INTRA.norm>
-0.232373

>  <SCORE.RESTR>
0.00253332

>  <SCORE.RESTR.CAVITY>
0.00253332

>  <SCORE.RESTR.norm>
0.00021111

>  <SCORE.SYSTEM>
0

>  <SCORE.SYSTEM.CONST>
0

>  <SCORE.SYSTEM.DIHEDRAL>
0

>  <SCORE.SYSTEM.SOLV>
0

>  <SCORE.SYSTEM.norm>
0

>  <SCORE.heavy>
12

>  <SCORE.norm>
-0.582594

>  <RMSD>
1.523

$$$$
ligand
 OpenBabel11021811493D
libRbt.so/2013.1/901 2013/11/27
 12 12  0  0  0  0  0  0  0  0999 V2000
   30.4899  -21.9717    5.2750 N   0  0  0  0  0  0  0  0  0  0  0  0
   29.8320  -19.5224    9.7533 O   0  0  0  0  0  0  0  0  0  0  0  0
   31.0237  -23.3239    5.5703 C   0  0  0  0  0  0  0  0  0  0  0  0
   32.0680  -19.7544    9.0335 O   0  0  0  0  0  0  0  0  0  0  0  0
   30.4115  -24.3091    4.5800 C   0  0  0  0  0  0  0  0  0  0  0  0
   30.6700  -17.9873    8.0551 O   0  0  0  0  0  0  0  0  0  0  0  0
   30.8506  -23.9761    3.2216 N   0  0  0  0  0  0  0  0  0  0  0  0
   31.6835  -22.7731    3.2955 C   0  0  0  0  0  0  0  0  0  0  0  0
   30.8110  -21.6683    3.8665 C   0  0  0  0  0  0  0  0  0  0  0  0
   30.9608  -20.8603    6.1938 C   0  0  0  0  0  0  0  0  0  0  0  0
   30.2345  -20.7323    7.5584 C   0  0  0  0  0  0  0  0  0  0  0  0
   30.7111  -19.5051    8.6215 S   0  0  0  0  0  0  0  0  0  0  0  0
  1  3  1  0  0  0  0
  1  9  1  0  0  0  0
  1 10  1  0  0  0  0
  2 12  1  0  0  0  0
  3  5  1  0  0  0  0
  4 12  2  0  0  0  0
  5  7  1  0  0  0  0
  6 12  2  0  0  0  0
  7  8  1  0  0  0  0
  8  9  1  0  0  0  0
 10 11  1  0  0  0  0
 11 12  1  0  0  0  0
M  END
>  <CHROM.1>
-80.95414013,-179.65511103,175.41939449,30.80413390,-21.12036570,6.55770970
-1.42471839,1.34119160,0.73571587

>  <Name>
ligand

>  <RI>
0

>  <Rbt.Current_Directory>
/home/itssahil/PROJECTS/Mol_Feturizer/New_Systems/rnas/4E8N

>  <Rbt.Executable>
rbdock ($Id: //depot/dev/client3/rdock/2013.1/src/exe/rbdock.cxx#4 $)

>  <Rbt.Library>
libRbt.so (2013.1, Build901 2013/11/27)

>  <Rbt.Parameter_File>
/export/apps/rDock/src/rDock_2013.1_src/data/scripts/dock_solv.prm

>  <Rbt.Receptor>
prm/pocket_docking_2.prm

>  <SCORE>
-7.1194

>  <SCORE.INTER>
-3.25565

>  <SCORE.INTER.CONST>
1

>  <SCORE.INTER.POLAR>
0

>  <SCORE.INTER.ROT>
3

>  <SCORE.INTER.SOLV>
3.97833

>  <SCORE.INTER.VDW>
-9.09654

>  <SCORE.INTER.norm>
-0.271304

>  <SCORE.INTRA>
-3.86398

>  <SCORE.INTRA.DIHEDRAL>
-4.23658

>  <SCORE.INTRA.DIHEDRAL.0>
5.0186

>  <SCORE.INTRA.POLAR>
0

>  <SCORE.INTRA.POLAR.0>
0

>  <SCORE.INTRA.REPUL>
0

>  <SCORE.INTRA.REPUL.0>
0

>  <SCORE.INTRA.SOLV>
0.0687718

>  <SCORE.INTRA.SOLV.lig_0>
-16.1608

>  <SCORE.INTRA.VDW>
-1.78007

>  <SCORE.INTRA.VDW.0>
1.14169

>  <SCORE.INTRA.norm>
-0.321998

>  <SCORE.RESTR>
0.000228749

>  <SCORE.RESTR.CAVITY>
0.000228749

>  <SCORE.RESTR.norm>
1.90624e-05

>  <SCORE.SYSTEM>
0

>  <SCORE.SYSTEM.CONST>
0

>  <SCORE.SYSTEM.DIHEDRAL>
0

>  <SCORE.SYSTEM.SOLV>
0

>  <SCORE.SYSTEM.norm>
0

>  <SCORE.heavy>
12

>  <SCORE.norm>
-0.593283

>  <RMSD>
1.524

$$$$
ligand
 OpenBabel11021811493D
libRbt.so/2013.1/901 2013/11/27
 12 12  0  0  0  0  0  0  0  0999 V2000
   31.1108  -22.4732    5.1489 N   0  0  0  0  0  0  0  0  0  0  0  0
   30.5759  -18.7903    7.8153 O   0  0  0  0  0  0  0  0  0  0  0  0
   30.8493  -21.8524    3.8272 C   0  0  0  0  0  0  0  0  0  0  0  0
   29.8236  -20.5941    9.1389 O   0  0  0  0  0  0  0  0  0  0  0  0
   31.5438  -22.6889    2.7575 C   0  0  0  0  0  0  0  0  0  0  0  0
   31.9907  -19.5548    9.6474 O   0  0  0  0  0  0  0  0  0  0  0  0
   30.9448  -24.0262    2.7148 N   0  0  0  0  0  0  0  0  0  0  0  0
   29.9216  -24.0993    3.7607 C   0  0  0  0  0  0  0  0  0  0  0  0
   30.6287  -23.8670    5.0850 C   0  0  0  0  0  0  0  0  0  0  0  0
   30.5269  -21.7480    6.3466 C   0  0  0  0  0  0  0  0  0  0  0  0
   31.5381  -21.0862    7.3189 C   0  0  0  0  0  0  0  0  0  0  0  0
   30.9583  -20.0008    8.4805 S   0  0  0  0  0  0  0  0  0  0  0  0
  1  3  1  0  0  0  0
  1  9  1  0  0  0  0
  1 10  1  0  0  0  0
  2 12  1  0  0  0  0
  3  5  1  0  0  0  0
  4 12  2  0  0  0  0
  5  7  1  0  0  0  0
  6 12  2  0  0  0  0
  7  8  1  0  0  0  0
  8  9  1  0  0  0  0
 10 11  1  0  0  0  0
 11 12  1  0  0  0  0
M  END
>  <CHROM.1>
-111.86832500,167.40405928,-72.10562045,30.87398932,-21.50484512,6.32443656
1.63238888,-1.12967911,-2.11563811

>  <Name>
ligand

>  <RI>
0

>  <Rbt.Current_Directory>
/home/itssahil/PROJECTS/Mol_Feturizer/New_Systems/rnas/4E8N

>  <Rbt.Executable>
rbdock ($Id: //depot/dev/client3/rdock/2013.1/src/exe/rbdock.cxx#4 $)

>  <Rbt.Library>
libRbt.so (2013.1, Build901 2013/11/27)

>  <Rbt.Parameter_File>
/export/apps/rDock/src/rDock_2013.1_src/data/scripts/dock_solv.prm

>  <Rbt.Receptor>
prm/pocket_docking_2.prm

>  <SCORE>
-7.0021

>  <SCORE.INTER>
-4.22785

>  <SCORE.INTER.CONST>
1

>  <SCORE.INTER.POLAR>
0

>  <SCORE.INTER.ROT>
3

>  <SCORE.INTER.SOLV>
5.37806

>  <SCORE.INTER.VDW>
-10.2112

>  <SCORE.INTER.norm>
-0.35232

>  <SCORE.INTRA>
-2.77438

>  <SCORE.INTRA.DIHEDRAL>
-1.78039

>  <SCORE.INTRA.DIHEDRAL.0>
5.0186

>  <SCORE.INTRA.POLAR>
0

>  <SCORE.INTRA.POLAR.0>
0

>  <SCORE.INTRA.REPUL>
0

>  <SCORE.INTRA.REPUL.0>
0

>  <SCORE.INTRA.SOLV>
-0.0870076

>  <SCORE.INTRA.SOLV.lig_0>
-16.1608

>  <SCORE.INTRA.VDW>
-1.84068

>  <SCORE.INTRA.VDW.0>
1.14169

>  <SCORE.INTRA.norm>
-0.231198

>  <SCORE.RESTR>
0.000120738

>  <SCORE.RESTR.CAVITY>
0.000120738

>  <SCORE.RESTR.norm>
1.00615e-05

>  <SCORE.SYSTEM>
0

>  <SCORE.SYSTEM.CONST>
0

>  <SCORE.SYSTEM.DIHEDRAL>
0

>  <SCORE.SYSTEM.SOLV>
0

>  <SCORE.SYSTEM.norm>
0

>  <SCORE.heavy>
12

>  <SCORE.norm>
-0.583509

>  <RMSD>
1.524

$$$$
ligand
 OpenBabel11021811493D
libRbt.so/2013.1/901 2013/11/27
 12 12  0  0  0  0  0  0  0  0999 V2000
   31.0539  -22.4848    5.0981 N   0  0  0  0  0  0  0  0  0  0  0  0
   29.8907  -20.6969    9.1379 O   0  0  0  0  0  0  0  0  0  0  0  0
   30.7779  -21.8497    3.7861 C   0  0  0  0  0  0  0  0  0  0  0  0
   32.0490  -19.7694    9.3688 O   0  0  0  0  0  0  0  0  0  0  0  0
   31.4432  -22.6860    2.6979 C   0  0  0  0  0  0  0  0  0  0  0  0
   30.3821  -18.6013    7.9935 O   0  0  0  0  0  0  0  0  0  0  0  0
   30.8263  -24.0152    2.6547 N   0  0  0  0  0  0  0  0  0  0  0  0
   29.8203  -24.0840    3.7173 C   0  0  0  0  0  0  0  0  0  0  0  0
   30.5528  -23.8717    5.0312 C   0  0  0  0  0  0  0  0  0  0  0  0
   30.4999  -21.7622    6.3114 C   0  0  0  0  0  0  0  0  0  0  0  0
   31.5319  -21.0665    7.2371 C   0  0  0  0  0  0  0  0  0  0  0  0
   30.9673  -20.0395    8.4576 S   0  0  0  0  0  0  0  0  0  0  0  0
  1  3  1  0  0  0  0
  1  9  1  0  0  0  0
  1 10  1  0  0  0  0
  2 12  1  0  0  0  0
  3  5  1  0  0  0  0
  4 12  2  0  0  0  0
  5  7  1  0  0  0  0
  6 12  2  0  0  0  0
  7  8  1  0  0  0  0
  8  9  1  0  0  0  0
 10 11  1  0  0  0  0
 11 12  1  0  0  0  0
M  END
>  <CHROM.1>
-109.17854205,170.20736302,46.44752204,30.82911617,-21.52045361,6.28112378
1.66897320,-1.19438542,-2.07785850

>  <Name>
ligand

>  <RI>
0

>  <Rbt.Current_Directory>
/home/itssahil/PROJECTS/Mol_Feturizer/New_Systems/rnas/4E8N

>  <Rbt.Executable>
rbdock ($Id: //depot/dev/client3/rdock/2013.1/src/exe/rbdock.cxx#4 $)

>  <Rbt.Library>
libRbt.so (2013.1, Build901 2013/11/27)

>  <Rbt.Parameter_File>
/export/apps/rDock/src/rDock_2013.1_src/data/scripts/dock_solv.prm

>  <Rbt.Receptor>
prm/pocket_docking_2.prm

>  <SCORE>
-7.82732

>  <SCORE.INTER>
-4.95888

>  <SCORE.INTER.CONST>
1

>  <SCORE.INTER.POLAR>
0

>  <SCORE.INTER.ROT>
3

>  <SCORE.INTER.SOLV>
3.58422

>  <SCORE.INTER.VDW>
-10.1007

>  <SCORE.INTER.norm>
-0.41324

>  <SCORE.INTRA>
-2.86844

>  <SCORE.INTRA.DIHEDRAL>
-1.98975

>  <SCORE.INTRA.DIHEDRAL.0>
5.0186

>  <SCORE.INTRA.POLAR>
0

>  <SCORE.INTRA.POLAR.0>
0

>  <SCORE.INTRA.REPUL>
0

>  <SCORE.INTRA.REPUL.0>
0

>  <SCORE.INTRA.SOLV>
-0.137258

>  <SCORE.INTRA.SOLV.lig_0>
-16.1608

>  <SCORE.INTRA.VDW>
-1.80493

>  <SCORE.INTRA.VDW.0>
1.14169

>  <SCORE.INTRA.norm>
-0.239037

>  <SCORE.RESTR>
0

>  <SCORE.RESTR.CAVITY>
0

>  <SCORE.RESTR.norm>
0

>  <SCORE.SYSTEM>
0

>  <SCORE.SYSTEM.CONST>
0

>  <SCORE.SYSTEM.DIHEDRAL>
0

>  <SCORE.SYSTEM.SOLV>
0

>  <SCORE.SYSTEM.norm>
0

>  <SCORE.heavy>
12

>  <SCORE.norm>
-0.652277

>  <RMSD>
1.525

$$$$
ligand
 OpenBabel11021811493D
libRbt.so/2013.1/901 2013/11/27
 12 12  0  0  0  0  0  0  0  0999 V2000
   31.0964  -22.4939    5.1391 N   0  0  0  0  0  0  0  0  0  0  0  0
   29.8348  -20.6836    9.1564 O   0  0  0  0  0  0  0  0  0  0  0  0
   30.8473  -21.8550    3.8236 C   0  0  0  0  0  0  0  0  0  0  0  0
   32.0021  -19.7921    9.4392 O   0  0  0  0  0  0  0  0  0  0  0  0
   31.5382  -22.6859    2.7473 C   0  0  0  0  0  0  0  0  0  0  0  0
   30.4006  -18.6169    7.9939 O   0  0  0  0  0  0  0  0  0  0  0  0
   30.9259  -24.0165    2.6862 N   0  0  0  0  0  0  0  0  0  0  0  0
   29.8972  -24.0914    3.7265 C   0  0  0  0  0  0  0  0  0  0  0  0
   30.6005  -23.8818    5.0566 C   0  0  0  0  0  0  0  0  0  0  0  0
   30.5143  -21.7769    6.3426 C   0  0  0  0  0  0  0  0  0  0  0  0
   31.5266  -21.1151    7.3138 C   0  0  0  0  0  0  0  0  0  0  0  0
   30.9440  -20.0575    8.4993 S   0  0  0  0  0  0  0  0  0  0  0  0
  1  3  1  0  0  0  0
  1  9  1  0  0  0  0
  1 10  1  0  0  0  0
  2 12  1  0  0  0  0
  3  5  1  0  0  0  0
  4 12  2  0  0  0  0
  5  7  1  0  0  0  0
  6 12  2  0  0  0  0
  7  8  1  0  0  0  0
  8  9  1  0  0  0  0
 10 11  1  0  0  0  0
 11 12  1  0  0  0  0
M  END
>  <CHROM.1>
-110.81347778,168.40711257,48.12265240,30.85032991,-21.53258213,6.31753620
1.62236445,-1.18884878,-2.11884210

>  <Name>
ligand

>  <RI>
0

>  <Rbt.Current_Directory>
/home/itssahil/PROJECTS/Mol_Feturizer/New_Systems/rnas/4E8N

>  <Rbt.Executable>
rbdock ($Id: //depot/dev/client3/rdock/2013.1/src/exe/rbdock.cxx#4 $)

>  <Rbt.Library>
libRbt.so (2013.1, Build901 2013/11/27)

>  <Rbt.Parameter_File>
/export/apps/rDock/src/rDock_2013.1_src/data/scripts/dock_solv.prm

>  <Rbt.Receptor>
prm/pocket_docking_2.prm

>  <SCORE>
-7.84982

>  <SCORE.INTER>
-5.017

>  <SCORE.INTER.CONST>
1

>  <SCORE.INTER.POLAR>
0

>  <SCORE.INTER.ROT>
3

>  <SCORE.INTER.SOLV>
3.52138

>  <SCORE.INTER.VDW>
-10.1185

>  <SCORE.INTER.norm>
-0.418083

>  <SCORE.INTRA>
-2.83379

>  <SCORE.INTRA.DIHEDRAL>
-1.90299

>  <SCORE.INTRA.DIHEDRAL.0>
5.0186

>  <SCORE.INTRA.POLAR>
0

>  <SCORE.INTRA.POLAR.0>
0

>  <SCORE.INTRA.REPUL>
0

>  <SCORE.INTRA.REPUL.0>
0

>  <SCORE.INTRA.SOLV>
-0.133645

>  <SCORE.INTRA.SOLV.lig_0>
-16.1608

>  <SCORE.INTRA.VDW>
-1.81548

>  <SCORE.INTRA.VDW.0>
1.14169

>  <SCORE.INTRA.norm>
-0.236149

>  <SCORE.RESTR>
0.000977

>  <SCORE.RESTR.CAVITY>
0.000977

>  <SCORE.RESTR.norm>
8.14167e-05

>  <SCORE.SYSTEM>
0

>  <SCORE.SYSTEM.CONST>
0

>  <SCORE.SYSTEM.DIHEDRAL>
0

>  <SCORE.SYSTEM.SOLV>
0

>  <SCORE.SYSTEM.norm>
0

>  <SCORE.heavy>
12

>  <SCORE.norm>
-0.654151

>  <RMSD>
1.527

$$$$
ligand
 OpenBabel11021811493D
libRbt.so/2013.1/901 2013/11/27
 12 12  0  0  0  0  0  0  0  0999 V2000
   30.5388  -22.0549    5.3917 N   0  0  0  0  0  0  0  0  0  0  0  0
   29.7922  -19.4179    9.7493 O   0  0  0  0  0  0  0  0  0  0  0  0
   31.0638  -23.4324    5.5579 C   0  0  0  0  0  0  0  0  0  0  0  0
   32.0351  -19.8918    9.1865 O   0  0  0  0  0  0  0  0  0  0  0  0
   30.3754  -24.3352    4.5394 C   0  0  0  0  0  0  0  0  0  0  0  0
   30.8975  -18.0064    8.0975 O   0  0  0  0  0  0  0  0  0  0  0  0
   30.7391  -23.9121    3.1838 N   0  0  0  0  0  0  0  0  0  0  0  0
   31.5973  -22.7297    3.2917 C   0  0  0  0  0  0  0  0  0  0  0  0
   30.7812  -21.6561    3.9913 C   0  0  0  0  0  0  0  0  0  0  0  0
   31.0843  -21.0191    6.3565 C   0  0  0  0  0  0  0  0  0  0  0  0
   30.2126  -20.6997    7.5991 C   0  0  0  0  0  0  0  0  0  0  0  0
   30.7422  -19.5106    8.6802 S   0  0  0  0  0  0  0  0  0  0  0  0
  1  3  1  0  0  0  0
  1  9  1  0  0  0  0
  1 10  1  0  0  0  0
  2 12  1  0  0  0  0
  3  5  1  0  0  0  0
  4 12  2  0  0  0  0
  5  7  1  0  0  0  0
  6 12  2  0  0  0  0
  7  8  1  0  0  0  0
  8  9  1  0  0  0  0
 10 11  1  0  0  0  0
 11 12  1  0  0  0  0
M  END
>  <CHROM.1>
-97.51494067,-177.73523745,-178.80977895,30.81687141,-21.14200062,6.60900583
1.49015186,-1.33674895,-2.33851522

>  <Name>
ligand

>  <RI>
0

>  <Rbt.Current_Directory>
/home/itssahil/PROJECTS/Mol_Feturizer/New_Systems/rnas/4E8N

>  <Rbt.Executable>
rbdock ($Id: //depot/dev/client3/rdock/2013.1/src/exe/rbdock.cxx#4 $)

>  <Rbt.Library>
libRbt.so (2013.1, Build901 2013/11/27)

>  <Rbt.Parameter_File>
/export/apps/rDock/src/rDock_2013.1_src/data/scripts/dock_solv.prm

>  <Rbt.Receptor>
prm/pocket_docking_2.prm

>  <SCORE>
-7.00274

>  <SCORE.INTER>
-3.58807

>  <SCORE.INTER.CONST>
1

>  <SCORE.INTER.POLAR>
0

>  <SCORE.INTER.ROT>
3

>  <SCORE.INTER.SOLV>
4.18664

>  <SCORE.INTER.VDW>
-9.38759

>  <SCORE.INTER.norm>
-0.299006

>  <SCORE.INTRA>
-3.41803

>  <SCORE.INTRA.DIHEDRAL>
-3.25361

>  <SCORE.INTRA.DIHEDRAL.0>
5.0186

>  <SCORE.INTRA.POLAR>
0

>  <SCORE.INTRA.POLAR.0>
0

>  <SCORE.INTRA.REPUL>
0

>  <SCORE.INTRA.REPUL.0>
0

>  <SCORE.INTRA.SOLV>
0.0683018

>  <SCORE.INTRA.SOLV.lig_0>
-16.1608

>  <SCORE.INTRA.VDW>
-1.82538

>  <SCORE.INTRA.VDW.0>
1.14169

>  <SCORE.INTRA.norm>
-0.284836

>  <SCORE.RESTR>
0.00336828

>  <SCORE.RESTR.CAVITY>
0.00336828

>  <SCORE.RESTR.norm>
0.00028069

>  <SCORE.SYSTEM>
0

>  <SCORE.SYSTEM.CONST>
0

>  <SCORE.SYSTEM.DIHEDRAL>
0

>  <SCORE.SYSTEM.SOLV>
0

>  <SCORE.SYSTEM.norm>
0

>  <SCORE.heavy>
12

>  <SCORE.norm>
-0.583561

>  <RMSD>
1.527

$$$$
ligand
 OpenBabel11021811493D
libRbt.so/2013.1/901 2013/11/27
 12 12  0  0  0  0  0  0  0  0999 V2000
   31.1117  -22.3742    5.2052 N   0  0  0  0  0  0  0  0  0  0  0  0
   29.8107  -20.4958    9.2003 O   0  0  0  0  0  0  0  0  0  0  0  0
   30.8515  -21.8484    3.8426 C   0  0  0  0  0  0  0  0  0  0  0  0
   32.0171  -19.7288    9.5398 O   0  0  0  0  0  0  0  0  0  0  0  0
   31.5479  -22.7578    2.8355 C   0  0  0  0  0  0  0  0  0  0  0  0
   30.5275  -18.4734    8.0432 O   0  0  0  0  0  0  0  0  0  0  0  0
   30.9499  -24.0953    2.8866 N   0  0  0  0  0  0  0  0  0  0  0  0
   29.9254  -24.0952    3.9338 C   0  0  0  0  0  0  0  0  0  0  0  0
   30.6306  -23.7694    5.2393 C   0  0  0  0  0  0  0  0  0  0  0  0
   30.5258  -21.5667    6.3479 C   0  0  0  0  0  0  0  0  0  0  0  0
   31.5257  -21.0372    7.4090 C   0  0  0  0  0  0  0  0  0  0  0  0
   30.9723  -19.9394    8.5717 S   0  0  0  0  0  0  0  0  0  0  0  0
  1  3  1  0  0  0  0
  1  9  1  0  0  0  0
  1 10  1  0  0  0  0
  2 12  1  0  0  0  0
  3  5  1  0  0  0  0
  4 12  2  0  0  0  0
  5  7  1  0  0  0  0
  6 12  2  0  0  0  0
  7  8  1  0  0  0  0
  8  9  1  0  0  0  0
 10 11  1  0  0  0  0
 11 12  1  0  0  0  0
M  END
>  <CHROM.1>
-121.89725443,170.82112804,52.54547217,30.87372869,-21.45286806,6.40876990
-1.62699845,1.20169107,1.00538454

>  <Name>
ligand

>  <RI>
0

>  <Rbt.Current_Directory>
/home/itssahil/PROJECTS/Mol_Feturizer/New_Systems/rnas/4E8N

>  <Rbt.Executable>
rbdock ($Id: //depot/dev/client3/rdock/2013.1/src/exe/rbdock.cxx#4 $)

>  <Rbt.Library>
libRbt.so (2013.1, Build901 2013/11/27)

>  <Rbt.Parameter_File>
/export/apps/rDock/src/rDock_2013.1_src/data/scripts/dock_solv.prm

>  <Rbt.Receptor>
prm/pocket_docking_2.prm

>  <SCORE>
-7.96011

>  <SCORE.INTER>
-4.96633

>  <SCORE.INTER.CONST>
1

>  <SCORE.INTER.POLAR>
0

>  <SCORE.INTER.ROT>
3

>  <SCORE.INTER.SOLV>
3.4557

>  <SCORE.INTER.VDW>
-10.0628

>  <SCORE.INTER.norm>
-0.413861

>  <SCORE.INTRA>
-2.99516

>  <SCORE.INTRA.DIHEDRAL>
-2.20084

>  <SCORE.INTRA.DIHEDRAL.0>
5.0186

>  <SCORE.INTRA.POLAR>
0

>  <SCORE.INTRA.POLAR.0>
0

>  <SCORE.INTRA.REPUL>
0

>  <SCORE.INTRA.REPUL.0>
0

>  <SCORE.INTRA.SOLV>
-0.12583

>  <SCORE.INTRA.SOLV.lig_0>
-16.1608

>  <SCORE.INTRA.VDW>
-1.83183

>  <SCORE.INTRA.VDW.0>
1.14169

>  <SCORE.INTRA.norm>
-0.249597

>  <SCORE.RESTR>
0.00137875

>  <SCORE.RESTR.CAVITY>
0.00137875

>  <SCORE.RESTR.norm>
0.000114896

>  <SCORE.SYSTEM>
0

>  <SCORE.SYSTEM.CONST>
0

>  <SCORE.SYSTEM.DIHEDRAL>
0

>  <SCORE.SYSTEM.SOLV>
0

>  <SCORE.SYSTEM.norm>
0

>  <SCORE.heavy>
12

>  <SCORE.norm>
-0.663343

>  <RMSD>
1.531

$$$$
ligand
 OpenBabel11021811493D
libRbt.so/2013.1/901 2013/11/27
 12 12  0  0  0  0  0  0  0  0999 V2000
   30.5671  -21.8925    5.3858 N   0  0  0  0  0  0  0  0  0  0  0  0
   29.0558  -19.3580    9.2882 O   0  0  0  0  0  0  0  0  0  0  0  0
   30.9110  -23.3232    5.5746 C   0  0  0  0  0  0  0  0  0  0  0  0
   30.5129  -18.1772    7.8549 O   0  0  0  0  0  0  0  0  0  0  0  0
   30.1347  -24.1433    4.5494 C   0  0  0  0  0  0  0  0  0  0  0  0
   28.3841  -19.0242    6.9687 O   0  0  0  0  0  0  0  0  0  0  0  0
   30.5757  -23.7842    3.1983 N   0  0  0  0  0  0  0  0  0  0  0  0
   31.5737  -22.7181    3.3144 C   0  0  0  0  0  0  0  0  0  0  0  0
   30.8856  -21.5428    3.9875 C   0  0  0  0  0  0  0  0  0  0  0  0
   31.2195  -20.9230    6.3532 C   0  0  0  0  0  0  0  0  0  0  0  0
   30.5117  -20.7219    7.7186 C   0  0  0  0  0  0  0  0  0  0  0  0
   29.6242  -19.3039    7.9737 S   0  0  0  0  0  0  0  0  0  0  0  0
  1  3  1  0  0  0  0
  1  9  1  0  0  0  0
  1 10  1  0  0  0  0
  2 12  1  0  0  0  0
  3  5  1  0  0  0  0
  4 12  2  0  0  0  0
  5  7  1  0  0  0  0
  6 12  2  0  0  0  0
  7  8  1  0  0  0  0
  8  9  1  0  0  0  0
 10 11  1  0  0  0  0
 11 12  1  0  0  0  0
M  END
>  <CHROM.1>
-84.56132622,-104.08061908,179.21760856,30.23227528,-20.98689906,6.26042355
0.98546267,-1.17008487,-2.90320502

>  <Name>
ligand

>  <RI>
0

>  <Rbt.Current_Directory>
/home/itssahil/PROJECTS/Mol_Feturizer/New_Systems/rnas/4E8N

>  <Rbt.Executable>
rbdock ($Id: //depot/dev/client3/rdock/2013.1/src/exe/rbdock.cxx#4 $)

>  <Rbt.Library>
libRbt.so (2013.1, Build901 2013/11/27)

>  <Rbt.Parameter_File>
/export/apps/rDock/src/rDock_2013.1_src/data/scripts/dock_solv.prm

>  <Rbt.Receptor>
prm/pocket_docking_2.prm

>  <SCORE>
-4.92503

>  <SCORE.INTER>
-3.38296

>  <SCORE.INTER.CONST>
1

>  <SCORE.INTER.POLAR>
0

>  <SCORE.INTER.ROT>
3

>  <SCORE.INTER.SOLV>
4.54068

>  <SCORE.INTER.VDW>
-9.36887

>  <SCORE.INTER.norm>
-0.281914

>  <SCORE.INTRA>
-1.5506

>  <SCORE.INTRA.DIHEDRAL>
0.54846

>  <SCORE.INTRA.DIHEDRAL.0>
5.0186

>  <SCORE.INTRA.POLAR>
0

>  <SCORE.INTRA.POLAR.0>
0

>  <SCORE.INTRA.REPUL>
0

>  <SCORE.INTRA.REPUL.0>
0

>  <SCORE.INTRA.SOLV>
0.238762

>  <SCORE.INTRA.SOLV.lig_0>
-16.1608

>  <SCORE.INTRA.VDW>
-1.94421

>  <SCORE.INTRA.VDW.0>
1.14169

>  <SCORE.INTRA.norm>
-0.129217

>  <SCORE.RESTR>
0.00853472

>  <SCORE.RESTR.CAVITY>
0.00853472

>  <SCORE.RESTR.norm>
0.000711226

>  <SCORE.SYSTEM>
0

>  <SCORE.SYSTEM.CONST>
0

>  <SCORE.SYSTEM.DIHEDRAL>
0

>  <SCORE.SYSTEM.SOLV>
0

>  <SCORE.SYSTEM.norm>
0

>  <SCORE.heavy>
12

>  <SCORE.norm>
-0.410419

>  <RMSD>
1.560

$$$$
ligand
 OpenBabel11021811493D
libRbt.so/2013.1/901 2013/11/27
 12 12  0  0  0  0  0  0  0  0999 V2000
   30.9899  -22.0367    5.0868 N   0  0  0  0  0  0  0  0  0  0  0  0
   29.4184  -20.7456    7.3238 O   0  0  0  0  0  0  0  0  0  0  0  0
   31.4963  -23.4268    4.9769 C   0  0  0  0  0  0  0  0  0  0  0  0
   31.2291  -20.0260    8.6563 O   0  0  0  0  0  0  0  0  0  0  0  0
   30.3560  -24.3167    4.4933 C   0  0  0  0  0  0  0  0  0  0  0  0
   29.5873  -18.3760    7.8709 O   0  0  0  0  0  0  0  0  0  0  0  0
   29.9564  -23.9115    3.1423 N   0  0  0  0  0  0  0  0  0  0  0  0
   30.7651  -22.7519    2.7580 C   0  0  0  0  0  0  0  0  0  0  0  0
   30.4633  -21.6528    3.7623 C   0  0  0  0  0  0  0  0  0  0  0  0
   31.9832  -21.0103    5.5978 C   0  0  0  0  0  0  0  0  0  0  0  0
   31.3934  -19.6808    6.1368 C   0  0  0  0  0  0  0  0  0  0  0  0
   30.4083  -19.7263    7.5119 S   0  0  0  0  0  0  0  0  0  0  0  0
  1  3  1  0  0  0  0
  1  9  1  0  0  0  0
  1 10  1  0  0  0  0
  2 12  1  0  0  0  0
  3  5  1  0  0  0  0
  4 12  2  0  0  0  0
  5  7  1  0  0  0  0
  6 12  2  0  0  0  0
  7  8  1  0  0  0  0
  8  9  1  0  0  0  0
 10 11  1  0  0  0  0
 11 12  1  0  0  0  0
M  END
>  <CHROM.1>
-161.58140104,64.21599206,-49.21216878,30.62774814,-21.25366250,5.86057266
0.86894024,-1.50367128,-3.03321263

>  <Name>
ligand

>  <RI>
0

>  <Rbt.Current_Directory>
/home/itssahil/PROJECTS/Mol_Feturizer/New_Systems/rnas/4E8N

>  <Rbt.Executable>
rbdock ($Id: //depot/dev/client3/rdock/2013.1/src/exe/rbdock.cxx#4 $)

>  <Rbt.Library>
libRbt.so (2013.1, Build901 2013/11/27)

>  <Rbt.Parameter_File>
/export/apps/rDock/src/rDock_2013.1_src/data/scripts/dock_solv.prm

>  <Rbt.Receptor>
prm/pocket_docking_2.prm

>  <SCORE>
-5.63817

>  <SCORE.INTER>
-1.51832

>  <SCORE.INTER.CONST>
1

>  <SCORE.INTER.POLAR>
0

>  <SCORE.INTER.ROT>
3

>  <SCORE.INTER.SOLV>
3.88529

>  <SCORE.INTER.VDW>
-7.90731

>  <SCORE.INTER.norm>
-0.126527

>  <SCORE.INTRA>
-4.11985

>  <SCORE.INTRA.DIHEDRAL>
-4.21238

>  <SCORE.INTRA.DIHEDRAL.0>
5.0186

>  <SCORE.INTRA.POLAR>
0

>  <SCORE.INTRA.POLAR.0>
0

>  <SCORE.INTRA.REPUL>
0

>  <SCORE.INTRA.REPUL.0>
0

>  <SCORE.INTRA.SOLV>
0.0333643

>  <SCORE.INTRA.SOLV.lig_0>
-16.1608

>  <SCORE.INTRA.VDW>
-2.03034

>  <SCORE.INTRA.VDW.0>
1.14169

>  <SCORE.INTRA.norm>
-0.343321

>  <SCORE.RESTR>
0

>  <SCORE.RESTR.CAVITY>
0

>  <SCORE.RESTR.norm>
0

>  <SCORE.SYSTEM>
0

>  <SCORE.SYSTEM.CONST>
0

>  <SCORE.SYSTEM.DIHEDRAL>
0

>  <SCORE.SYSTEM.SOLV>
0

>  <SCORE.SYSTEM.norm>
0

>  <SCORE.heavy>
12

>  <SCORE.norm>
-0.469847

>  <RMSD>
1.565

$$$$
ligand
 OpenBabel11021811493D
libRbt.so/2013.1/901 2013/11/27
 12 12  0  0  0  0  0  0  0  0999 V2000
   31.5541  -22.0116    4.3704 N   0  0  0  0  0  0  0  0  0  0  0  0
   29.6666  -20.6552    8.9643 O   0  0  0  0  0  0  0  0  0  0  0  0
   30.3669  -21.7183    3.5305 C   0  0  0  0  0  0  0  0  0  0  0  0
   31.9215  -20.0987    8.5431 O   0  0  0  0  0  0  0  0  0  0  0  0
   30.3954  -22.6435    2.3183 C   0  0  0  0  0  0  0  0  0  0  0  0
   30.1426  -18.6766    7.6221 O   0  0  0  0  0  0  0  0  0  0  0  0
   30.2593  -24.0348    2.7597 N   0  0  0  0  0  0  0  0  0  0  0  0
   30.1990  -24.0433    4.2235 C   0  0  0  0  0  0  0  0  0  0  0  0
   31.5036  -23.4446    4.7210 C   0  0  0  0  0  0  0  0  0  0  0  0
   31.7153  -21.1517    5.6097 C   0  0  0  0  0  0  0  0  0  0  0  0
   30.6289  -21.3027    6.7064 C   0  0  0  0  0  0  0  0  0  0  0  0
   30.5991  -20.1897    7.9806 S   0  0  0  0  0  0  0  0  0  0  0  0
  1  3  1  0  0  0  0
  1  9  1  0  0  0  0
  1 10  1  0  0  0  0
  2 12  1  0  0  0  0
  3  5  1  0  0  0  0
  4 12  2  0  0  0  0
  5  7  1  0  0  0  0
  6 12  2  0  0  0  0
  7  8  1  0  0  0  0
  8  9  1  0  0  0  0
 10 11  1  0  0  0  0
 11 12  1  0  0  0  0
M  END
>  <CHROM.1>
65.31869718,-169.48463269,-170.71449044,30.72700949,-21.46852413,5.92013593
-1.52232129,1.56797031,0.93755199

>  <Name>
ligand

>  <RI>
0

>  <Rbt.Current_Directory>
/home/itssahil/PROJECTS/Mol_Feturizer/New_Systems/rnas/4E8N

>  <Rbt.Executable>
rbdock ($Id: //depot/dev/client3/rdock/2013.1/src/exe/rbdock.cxx#4 $)

>  <Rbt.Library>
libRbt.so (2013.1, Build901 2013/11/27)

>  <Rbt.Parameter_File>
/export/apps/rDock/src/rDock_2013.1_src/data/scripts/dock_solv.prm

>  <Rbt.Receptor>
prm/pocket_docking_2.prm

>  <SCORE>
-7.28324

>  <SCORE.INTER>
-4.20982

>  <SCORE.INTER.CONST>
1

>  <SCORE.INTER.POLAR>
0

>  <SCORE.INTER.ROT>
3

>  <SCORE.INTER.SOLV>
3.56609

>  <SCORE.INTER.VDW>
-9.59524

>  <SCORE.INTER.norm>
-0.350818

>  <SCORE.INTRA>
-3.07342

>  <SCORE.INTRA.DIHEDRAL>
-4.36241

>  <SCORE.INTRA.DIHEDRAL.0>
5.0186

>  <SCORE.INTRA.POLAR>
0

>  <SCORE.INTRA.POLAR.0>
0

>  <SCORE.INTRA.REPUL>
0

>  <SCORE.INTRA.REPUL.0>
0

>  <SCORE.INTRA.SOLV>
0.0874919

>  <SCORE.INTRA.SOLV.lig_0>
-16.1608

>  <SCORE.INTRA.VDW>
-0.935966

>  <SCORE.INTRA.VDW.0>
1.14169

>  <SCORE.INTRA.norm>
-0.256119

>  <SCORE.RESTR>
0

>  <SCORE.RESTR.CAVITY>
0

>  <SCORE.RESTR.norm>
0

>  <SCORE.SYSTEM>
0

>  <SCORE.SYSTEM.CONST>
0

>  <SCORE.SYSTEM.DIHEDRAL>
0

>  <SCORE.SYSTEM.SOLV>
0

>  <SCORE.SYSTEM.norm>
0

>  <SCORE.heavy>
12

>  <SCORE.norm>
-0.606937

>  <RMSD>
1.597

$$$$
ligand
 OpenBabel11021811493D
libRbt.so/2013.1/901 2013/11/27
 12 12  0  0  0  0  0  0  0  0999 V2000
   30.6730  -21.6132    5.1172 N   0  0  0  0  0  0  0  0  0  0  0  0
   29.2884  -20.6558    7.7649 O   0  0  0  0  0  0  0  0  0  0  0  0
   31.2894  -22.8937    5.5431 C   0  0  0  0  0  0  0  0  0  0  0  0
   30.6064  -19.3173    9.1942 O   0  0  0  0  0  0  0  0  0  0  0  0
   30.3455  -24.0305    5.1652 C   0  0  0  0  0  0  0  0  0  0  0  0
   29.4203  -18.2628    7.3191 O   0  0  0  0  0  0  0  0  0  0  0  0
   30.2157  -24.0961    3.7064 N   0  0  0  0  0  0  0  0  0  0  0  0
   31.0026  -23.0026    3.1307 C   0  0  0  0  0  0  0  0  0  0  0  0
   30.4153  -21.7082    3.6669 C   0  0  0  0  0  0  0  0  0  0  0  0
   31.4580  -20.3588    5.4511 C   0  0  0  0  0  0  0  0  0  0  0  0
   31.6066  -20.0119    6.9557 C   0  0  0  0  0  0  0  0  0  0  0  0
   30.2255  -19.5733    7.8294 S   0  0  0  0  0  0  0  0  0  0  0  0
  1  3  1  0  0  0  0
  1  9  1  0  0  0  0
  1 10  1  0  0  0  0
  2 12  1  0  0  0  0
  3  5  1  0  0  0  0
  4 12  2  0  0  0  0
  5  7  1  0  0  0  0
  6 12  2  0  0  0  0
  7  8  1  0  0  0  0
  8  9  1  0  0  0  0
 10 11  1  0  0  0  0
 11 12  1  0  0  0  0
M  END
>  <CHROM.1>
-66.54943531,-66.72993077,59.18064174,30.49173525,-21.07405199,6.15201205
-1.15345565,1.35650661,0.38605151

>  <Name>
ligand

>  <RI>
0

>  <Rbt.Current_Directory>
/home/itssahil/PROJECTS/Mol_Feturizer/New_Systems/rnas/4E8N

>  <Rbt.Executable>
rbdock ($Id: //depot/dev/client3/rdock/2013.1/src/exe/rbdock.cxx#4 $)

>  <Rbt.Library>
libRbt.so (2013.1, Build901 2013/11/27)

>  <Rbt.Parameter_File>
/export/apps/rDock/src/rDock_2013.1_src/data/scripts/dock_solv.prm

>  <Rbt.Receptor>
prm/pocket_docking_2.prm

>  <SCORE>
-6.89093

>  <SCORE.INTER>
-2.3986

>  <SCORE.INTER.CONST>
1

>  <SCORE.INTER.POLAR>
0

>  <SCORE.INTER.ROT>
3

>  <SCORE.INTER.SOLV>
3.98423

>  <SCORE.INTER.VDW>
-8.52714

>  <SCORE.INTER.norm>
-0.199883

>  <SCORE.INTRA>
-4.49869

>  <SCORE.INTRA.DIHEDRAL>
-4.74168

>  <SCORE.INTRA.DIHEDRAL.0>
5.0186

>  <SCORE.INTRA.POLAR>
0

>  <SCORE.INTRA.POLAR.0>
0

>  <SCORE.INTRA.REPUL>
0

>  <SCORE.INTRA.REPUL.0>
0

>  <SCORE.INTRA.SOLV>
0.0183373

>  <SCORE.INTRA.SOLV.lig_0>
-16.1608

>  <SCORE.INTRA.VDW>
-2.13702

>  <SCORE.INTRA.VDW.0>
1.14169

>  <SCORE.INTRA.norm>
-0.374891

>  <SCORE.RESTR>
0.00635949

>  <SCORE.RESTR.CAVITY>
0.00635949

>  <SCORE.RESTR.norm>
0.000529958

>  <SCORE.SYSTEM>
0

>  <SCORE.SYSTEM.CONST>
0

>  <SCORE.SYSTEM.DIHEDRAL>
0

>  <SCORE.SYSTEM.SOLV>
0

>  <SCORE.SYSTEM.norm>
0

>  <SCORE.heavy>
12

>  <SCORE.norm>
-0.574244

>  <RMSD>
1.634

$$$$
ligand
 OpenBabel11021811493D
libRbt.so/2013.1/901 2013/11/27
 12 12  0  0  0  0  0  0  0  0999 V2000
   30.6576  -21.5490    4.9316 N   0  0  0  0  0  0  0  0  0  0  0  0
   29.3594  -20.7114    7.6462 O   0  0  0  0  0  0  0  0  0  0  0  0
   31.1924  -22.8243    5.4689 C   0  0  0  0  0  0  0  0  0  0  0  0
   30.5703  -19.1589    8.9482 O   0  0  0  0  0  0  0  0  0  0  0  0
   30.2304  -23.9459    5.0912 C   0  0  0  0  0  0  0  0  0  0  0  0
   29.2681  -18.3555    7.0263 O   0  0  0  0  0  0  0  0  0  0  0  0
   30.1946  -24.0913    3.6329 N   0  0  0  0  0  0  0  0  0  0  0  0
   31.0612  -23.0626    3.0523 C   0  0  0  0  0  0  0  0  0  0  0  0
   30.4925  -21.7187    3.4746 C   0  0  0  0  0  0  0  0  0  0  0  0
   31.4689  -20.3069    5.2482 C   0  0  0  0  0  0  0  0  0  0  0  0
   31.5985  -19.9246    6.7458 C   0  0  0  0  0  0  0  0  0  0  0  0
   30.1955  -19.5478    7.6135 S   0  0  0  0  0  0  0  0  0  0  0  0
  1  3  1  0  0  0  0
  1  9  1  0  0  0  0
  1 10  1  0  0  0  0
  2 12  1  0  0  0  0
  3  5  1  0  0  0  0
  4 12  2  0  0  0  0
  5  7  1  0  0  0  0
  6 12  2  0  0  0  0
  7  8  1  0  0  0  0
  8  9  1  0  0  0  0
 10 11  1  0  0  0  0
 11 12  1  0  0  0  0
M  END
>  <CHROM.1>
-63.19027493,-61.88414285,62.98620446,30.46893834,-21.04764592,5.98170738
-1.26394538,1.26581477,0.48775583

>  <Name>
ligand

>  <RI>
0

>  <Rbt.Current_Directory>
/home/itssahil/PROJECTS/Mol_Feturizer/New_Systems/rnas/4E8N

>  <Rbt.Executable>
rbdock ($Id: //depot/dev/client3/rdock/2013.1/src/exe/rbdock.cxx#4 $)

>  <Rbt.Library>
libRbt.so (2013.1, Build901 2013/11/27)

>  <Rbt.Parameter_File>
/export/apps/rDock/src/rDock_2013.1_src/data/scripts/dock_solv.prm

>  <Rbt.Receptor>
prm/pocket_docking_2.prm

>  <SCORE>
-6.93621

>  <SCORE.INTER>
-2.30225

>  <SCORE.INTER.CONST>
1

>  <SCORE.INTER.POLAR>
0

>  <SCORE.INTER.ROT>
3

>  <SCORE.INTER.SOLV>
3.71821

>  <SCORE.INTER.VDW>
-8.37424

>  <SCORE.INTER.norm>
-0.191855

>  <SCORE.INTRA>
-4.63395

>  <SCORE.INTRA.DIHEDRAL>
-4.94084

>  <SCORE.INTRA.DIHEDRAL.0>
5.0186

>  <SCORE.INTRA.POLAR>
0

>  <SCORE.INTRA.POLAR.0>
0

>  <SCORE.INTRA.REPUL>
0

>  <SCORE.INTRA.REPUL.0>
0

>  <SCORE.INTRA.SOLV>
0.0457221

>  <SCORE.INTRA.SOLV.lig_0>
-16.1608

>  <SCORE.INTRA.VDW>
-2.18639

>  <SCORE.INTRA.VDW.0>
1.14169

>  <SCORE.INTRA.norm>
-0.386163

>  <SCORE.RESTR>
0

>  <SCORE.RESTR.CAVITY>
0

>  <SCORE.RESTR.norm>
0

>  <SCORE.SYSTEM>
0

>  <SCORE.SYSTEM.CONST>
0

>  <SCORE.SYSTEM.DIHEDRAL>
0

>  <SCORE.SYSTEM.SOLV>
0

>  <SCORE.SYSTEM.norm>
0

>  <SCORE.heavy>
12

>  <SCORE.norm>
-0.578017

>  <RMSD>
1.651

$$$$
ligand
 OpenBabel11021811493D
libRbt.so/2013.1/901 2013/11/27
 12 12  0  0  0  0  0  0  0  0999 V2000
   30.6881  -21.5370    4.8772 N   0  0  0  0  0  0  0  0  0  0  0  0
   29.4132  -20.7848    7.5075 O   0  0  0  0  0  0  0  0  0  0  0  0
   31.2616  -22.7987    5.4065 C   0  0  0  0  0  0  0  0  0  0  0  0
   30.5246  -19.1975    8.8555 O   0  0  0  0  0  0  0  0  0  0  0  0
   30.3038  -23.9383    5.0748 C   0  0  0  0  0  0  0  0  0  0  0  0
   29.1747  -18.4225    6.9550 O   0  0  0  0  0  0  0  0  0  0  0  0
   30.2172  -24.0987    3.6202 N   0  0  0  0  0  0  0  0  0  0  0  0
   31.0461  -23.0630    2.9987 C   0  0  0  0  0  0  0  0  0  0  0  0
   30.4727  -21.7236    3.4288 C   0  0  0  0  0  0  0  0  0  0  0  0
   31.4912  -20.2798    5.1522 C   0  0  0  0  0  0  0  0  0  0  0  0
   31.5987  -19.8341    6.6340 C   0  0  0  0  0  0  0  0  0  0  0  0
   30.1749  -19.5707    7.5095 S   0  0  0  0  0  0  0  0  0  0  0  0
  1  3  1  0  0  0  0
  1  9  1  0  0  0  0
  1 10  1  0  0  0  0
  2 12  1  0  0  0  0
  3  5  1  0  0  0  0
  4 12  2  0  0  0  0
  5  7  1  0  0  0  0
  6 12  2  0  0  0  0
  7  8  1  0  0  0  0
  8  9  1  0  0  0  0
 10 11  1  0  0  0  0
 11 12  1  0  0  0  0
M  END
>  <CHROM.1>
-66.69720945,-56.03017725,58.66835587,30.47178737,-21.05542979,5.90613034
-1.22646449,1.26775432,0.44642602

>  <Name>
ligand

>  <RI>
0

>  <Rbt.Current_Directory>
/home/itssahil/PROJECTS/Mol_Feturizer/New_Systems/rnas/4E8N

>  <Rbt.Executable>
rbdock ($Id: //depot/dev/client3/rdock/2013.1/src/exe/rbdock.cxx#4 $)

>  <Rbt.Library>
libRbt.so (2013.1, Build901 2013/11/27)

>  <Rbt.Parameter_File>
/export/apps/rDock/src/rDock_2013.1_src/data/scripts/dock_solv.prm

>  <Rbt.Receptor>
prm/pocket_docking_2.prm

>  <SCORE>
-7.03892

>  <SCORE.INTER>
-2.35683

>  <SCORE.INTER.CONST>
1

>  <SCORE.INTER.POLAR>
0

>  <SCORE.INTER.ROT>
3

>  <SCORE.INTER.SOLV>
3.70292

>  <SCORE.INTER.VDW>
-8.40553

>  <SCORE.INTER.norm>
-0.196403

>  <SCORE.INTRA>
-4.68208

>  <SCORE.INTRA.DIHEDRAL>
-4.846

>  <SCORE.INTRA.DIHEDRAL.0>
5.0186

>  <SCORE.INTRA.POLAR>
0

>  <SCORE.INTRA.POLAR.0>
0

>  <SCORE.INTRA.REPUL>
0

>  <SCORE.INTRA.REPUL.0>
0

>  <SCORE.INTRA.SOLV>
0.0315821

>  <SCORE.INTRA.SOLV.lig_0>
-16.1608

>  <SCORE.INTRA.VDW>
-2.27488

>  <SCORE.INTRA.VDW.0>
1.14169

>  <SCORE.INTRA.norm>
-0.390174

>  <SCORE.RESTR>
0

>  <SCORE.RESTR.CAVITY>
0

>  <SCORE.RESTR.norm>
0

>  <SCORE.SYSTEM>
0

>  <SCORE.SYSTEM.CONST>
0

>  <SCORE.SYSTEM.DIHEDRAL>
0

>  <SCORE.SYSTEM.SOLV>
0

>  <SCORE.SYSTEM.norm>
0

>  <SCORE.heavy>
12

>  <SCORE.norm>
-0.586577

>  <RMSD>
1.669

$$$$
ligand
 OpenBabel11021811493D
libRbt.so/2013.1/901 2013/11/27
 12 12  0  0  0  0  0  0  0  0999 V2000
   30.8217  -22.8038    4.4331 N   0  0  0  0  0  0  0  0  0  0  0  0
   30.3908  -20.9658    8.6331 O   0  0  0  0  0  0  0  0  0  0  0  0
   30.5256  -21.9799    3.2354 C   0  0  0  0  0  0  0  0  0  0  0  0
   31.5772  -19.0610    7.9009 O   0  0  0  0  0  0  0  0  0  0  0  0
   31.0400  -22.7191    2.0045 C   0  0  0  0  0  0  0  0  0  0  0  0
   29.1964  -19.2816    7.3372 O   0  0  0  0  0  0  0  0  0  0  0  0
   30.2991  -23.9733    1.8401 N   0  0  0  0  0  0  0  0  0  0  0  0
   29.3592  -24.0956    2.9572 C   0  0  0  0  0  0  0  0  0  0  0  0
   30.1890  -24.1218    4.2295 C   0  0  0  0  0  0  0  0  0  0  0  0
   30.4150  -22.2029    5.7653 C   0  0  0  0  0  0  0  0  0  0  0  0
   31.1913  -20.9410    6.2244 C   0  0  0  0  0  0  0  0  0  0  0  0
   30.6031  -20.0593    7.5435 S   0  0  0  0  0  0  0  0  0  0  0  0
  1  3  1  0  0  0  0
  1  9  1  0  0  0  0
  1 10  1  0  0  0  0
  2 12  1  0  0  0  0
  3  5  1  0  0  0  0
  4 12  2  0  0  0  0
  5  7  1  0  0  0  0
  6 12  2  0  0  0  0
  7  8  1  0  0  0  0
  8  9  1  0  0  0  0
 10 11  1  0  0  0  0
 11 12  1  0  0  0  0
M  END
>  <CHROM.1>
-67.49436236,168.71685808,51.78994543,30.47764263,-21.61802093,5.48357602
1.67595135,-1.16357206,-2.09978584

>  <Name>
ligand

>  <RI>
0

>  <Rbt.Current_Directory>
/home/itssahil/PROJECTS/Mol_Feturizer/New_Systems/rnas/4E8N

>  <Rbt.Executable>
rbdock ($Id: //depot/dev/client3/rdock/2013.1/src/exe/rbdock.cxx#4 $)

>  <Rbt.Library>
libRbt.so (2013.1, Build901 2013/11/27)

>  <Rbt.Parameter_File>
/export/apps/rDock/src/rDock_2013.1_src/data/scripts/dock_solv.prm

>  <Rbt.Receptor>
prm/pocket_docking_2.prm

>  <SCORE>
-8.27685

>  <SCORE.INTER>
-4.70007

>  <SCORE.INTER.CONST>
1

>  <SCORE.INTER.POLAR>
0

>  <SCORE.INTER.ROT>
3

>  <SCORE.INTER.SOLV>
5.27127

>  <SCORE.INTER.VDW>
-10.4905

>  <SCORE.INTER.norm>
-0.391673

>  <SCORE.INTRA>
-3.8026

>  <SCORE.INTRA.DIHEDRAL>
-4.26506

>  <SCORE.INTRA.DIHEDRAL.0>
5.0186

>  <SCORE.INTRA.POLAR>
0

>  <SCORE.INTRA.POLAR.0>
0

>  <SCORE.INTRA.REPUL>
0

>  <SCORE.INTRA.REPUL.0>
0

>  <SCORE.INTRA.SOLV>
-0.119988

>  <SCORE.INTRA.SOLV.lig_0>
-16.1608

>  <SCORE.INTRA.VDW>
-1.61008

>  <SCORE.INTRA.VDW.0>
1.14169

>  <SCORE.INTRA.norm>
-0.316884

>  <SCORE.RESTR>
0.225823

>  <SCORE.RESTR.CAVITY>
0.225823

>  <SCORE.RESTR.norm>
0.0188186

>  <SCORE.SYSTEM>
0

>  <SCORE.SYSTEM.CONST>
0

>  <SCORE.SYSTEM.DIHEDRAL>
0

>  <SCORE.SYSTEM.SOLV>
0

>  <SCORE.SYSTEM.norm>
0

>  <SCORE.heavy>
12

>  <SCORE.norm>
-0.689738

>  <RMSD>
1.672

$$$$
ligand
 OpenBabel11021811493D
libRbt.so/2013.1/901 2013/11/27
 12 12  0  0  0  0  0  0  0  0999 V2000
   30.8127  -21.8259    4.6614 N   0  0  0  0  0  0  0  0  0  0  0  0
   29.6521  -20.8408    7.3183 O   0  0  0  0  0  0  0  0  0  0  0  0
   31.3444  -23.1924    4.8870 C   0  0  0  0  0  0  0  0  0  0  0  0
   31.2021  -19.9976    8.8861 O   0  0  0  0  0  0  0  0  0  0  0  0
   30.2564  -24.1974    4.5232 C   0  0  0  0  0  0  0  0  0  0  0  0
   30.1776  -18.4610    7.2662 O   0  0  0  0  0  0  0  0  0  0  0  0
   29.9563  -24.0989    3.0917 N   0  0  0  0  0  0  0  0  0  0  0  0
   30.7765  -23.0237    2.5284 C   0  0  0  0  0  0  0  0  0  0  0  0
   30.3841  -21.7463    3.2511 C   0  0  0  0  0  0  0  0  0  0  0  0
   31.7502  -20.6860    5.0122 C   0  0  0  0  0  0  0  0  0  0  0  0
   32.0308  -20.4561    6.5203 C   0  0  0  0  0  0  0  0  0  0  0  0
   30.7592  -19.9527    7.5168 S   0  0  0  0  0  0  0  0  0  0  0  0
  1  3  1  0  0  0  0
  1  9  1  0  0  0  0
  1 10  1  0  0  0  0
  2 12  1  0  0  0  0
  3  5  1  0  0  0  0
  4 12  2  0  0  0  0
  5  7  1  0  0  0  0
  6 12  2  0  0  0  0
  7  8  1  0  0  0  0
  8  9  1  0  0  0  0
 10 11  1  0  0  0  0
 11 12  1  0  0  0  0
M  END
>  <CHROM.1>
-70.30173686,-65.90839672,51.56041433,30.74591065,-21.33610069,5.72186544
-1.78381128,1.37683629,1.07823938

>  <Name>
ligand

>  <RI>
0

>  <Rbt.Current_Directory>
/home/itssahil/PROJECTS/Mol_Feturizer/New_Systems/rnas/4E8N

>  <Rbt.Executable>
rbdock ($Id: //depot/dev/client3/rdock/2013.1/src/exe/rbdock.cxx#4 $)

>  <Rbt.Library>
libRbt.so (2013.1, Build901 2013/11/27)

>  <Rbt.Parameter_File>
/export/apps/rDock/src/rDock_2013.1_src/data/scripts/dock_solv.prm

>  <Rbt.Receptor>
prm/pocket_docking_2.prm

>  <SCORE>
-6.92108

>  <SCORE.INTER>
-2.49904

>  <SCORE.INTER.CONST>
1

>  <SCORE.INTER.POLAR>
0

>  <SCORE.INTER.ROT>
3

>  <SCORE.INTER.SOLV>
3.84444

>  <SCORE.INTER.VDW>
-8.5475

>  <SCORE.INTER.norm>
-0.208253

>  <SCORE.INTRA>
-4.42294

>  <SCORE.INTRA.DIHEDRAL>
-4.50251

>  <SCORE.INTRA.DIHEDRAL.0>
5.0186

>  <SCORE.INTRA.POLAR>
0

>  <SCORE.INTRA.POLAR.0>
0

>  <SCORE.INTRA.REPUL>
0

>  <SCORE.INTRA.REPUL.0>
0

>  <SCORE.INTRA.SOLV>
-0.0225297

>  <SCORE.INTRA.SOLV.lig_0>
-16.1608

>  <SCORE.INTRA.VDW>
-2.16042

>  <SCORE.INTRA.VDW.0>
1.14169

>  <SCORE.INTRA.norm>
-0.368578

>  <SCORE.RESTR>
0.000890785

>  <SCORE.RESTR.CAVITY>
0.000890785

>  <SCORE.RESTR.norm>
7.42321e-05

>  <SCORE.SYSTEM>
0

>  <SCORE.SYSTEM.CONST>
0

>  <SCORE.SYSTEM.DIHEDRAL>
0

>  <SCORE.SYSTEM.SOLV>
0

>  <SCORE.SYSTEM.norm>
0

>  <SCORE.heavy>
12

>  <SCORE.norm>
-0.576757

>  <RMSD>
1.700

$$$$
ligand
 OpenBabel11021811493D
libRbt.so/2013.1/901 2013/11/27
 12 12  0  0  0  0  0  0  0  0999 V2000
   30.9237  -22.8757    5.3597 N   0  0  0  0  0  0  0  0  0  0  0  0
   31.6666  -19.6109    7.2205 O   0  0  0  0  0  0  0  0  0  0  0  0
   30.9913  -24.1588    4.6182 C   0  0  0  0  0  0  0  0  0  0  0  0
   29.5845  -20.7229    7.2256 O   0  0  0  0  0  0  0  0  0  0  0  0
   29.7529  -24.2692    3.7348 C   0  0  0  0  0  0  0  0  0  0  0  0
   30.5930  -20.0548    9.3636 O   0  0  0  0  0  0  0  0  0  0  0  0
   29.7726  -23.2048    2.7270 N   0  0  0  0  0  0  0  0  0  0  0  0
   30.9568  -22.3757    2.9650 C   0  0  0  0  0  0  0  0  0  0  0  0
   30.8133  -21.7942    4.3611 C   0  0  0  0  0  0  0  0  0  0  0  0
   32.0615  -22.6112    6.3274 C   0  0  0  0  0  0  0  0  0  0  0  0
   31.6694  -22.0961    7.7370 C   0  0  0  0  0  0  0  0  0  0  0  0
   30.8689  -20.6109    7.8667 S   0  0  0  0  0  0  0  0  0  0  0  0
  1  3  1  0  0  0  0
  1  9  1  0  0  0  0
  1 10  1  0  0  0  0
  2 12  1  0  0  0  0
  3  5  1  0  0  0  0
  4 12  2  0  0  0  0
  5  7  1  0  0  0  0
  6 12  2  0  0  0  0
  7  8  1  0  0  0  0
  8  9  1  0  0  0  0
 10 11  1  0  0  0  0
 11 12  1  0  0  0  0
M  END
>  <CHROM.1>
-133.87716805,-61.98550499,-55.62499731,30.80481527,-21.83999622,6.05318329
-1.81067029,-1.19366174,0.77309007

>  <Name>
ligand

>  <RI>
0

>  <Rbt.Current_Directory>
/home/itssahil/PROJECTS/Mol_Feturizer/New_Systems/rnas/4E8N

>  <Rbt.Executable>
rbdock ($Id: //depot/dev/client3/rdock/2013.1/src/exe/rbdock.cxx#4 $)

>  <Rbt.Library>
libRbt.so (2013.1, Build901 2013/11/27)

>  <Rbt.Parameter_File>
/export/apps/rDock/src/rDock_2013.1_src/data/scripts/dock_solv.prm

>  <Rbt.Receptor>
prm/pocket_docking_3.prm

>  <SCORE>
-9.44094

>  <SCORE.INTER>
-5.68968

>  <SCORE.INTER.CONST>
1

>  <SCORE.INTER.POLAR>
0

>  <SCORE.INTER.ROT>
3

>  <SCORE.INTER.SOLV>
6.66777

>  <SCORE.INTER.VDW>
-11.6157

>  <SCORE.INTER.norm>
-0.47414

>  <SCORE.INTRA>
-3.75126

>  <SCORE.INTRA.DIHEDRAL>
-2.91836

>  <SCORE.INTRA.DIHEDRAL.0>
5.0186

>  <SCORE.INTRA.POLAR>
0

>  <SCORE.INTRA.POLAR.0>
0

>  <SCORE.INTRA.REPUL>
0

>  <SCORE.INTRA.REPUL.0>
0

>  <SCORE.INTRA.SOLV>
0.436783

>  <SCORE.INTRA.SOLV.lig_0>
-16.1608

>  <SCORE.INTRA.VDW>
-2.51047

>  <SCORE.INTRA.VDW.0>
1.14169

>  <SCORE.INTRA.norm>
-0.312605

>  <SCORE.RESTR>
0

>  <SCORE.RESTR.CAVITY>
0

>  <SCORE.RESTR.norm>
0

>  <SCORE.SYSTEM>
0

>  <SCORE.SYSTEM.CONST>
0

>  <SCORE.SYSTEM.DIHEDRAL>
0

>  <SCORE.SYSTEM.SOLV>
0

>  <SCORE.SYSTEM.norm>
0

>  <SCORE.heavy>
12

>  <SCORE.norm>
-0.786745

>  <RMSD>
1.701

$$$$
ligand
 OpenBabel11021811493D
libRbt.so/2013.1/901 2013/11/27
 12 12  0  0  0  0  0  0  0  0999 V2000
   30.9325  -22.8997    5.3334 N   0  0  0  0  0  0  0  0  0  0  0  0
   31.6686  -19.6154    7.2106 O   0  0  0  0  0  0  0  0  0  0  0  0
   31.0461  -24.1569    4.5540 C   0  0  0  0  0  0  0  0  0  0  0  0
   29.5930  -20.7395    7.2006 O   0  0  0  0  0  0  0  0  0  0  0  0
   29.7986  -24.3002    3.6884 C   0  0  0  0  0  0  0  0  0  0  0  0
   30.5929  -20.0857    9.3471 O   0  0  0  0  0  0  0  0  0  0  0  0
   29.7510  -23.2080    2.7117 N   0  0  0  0  0  0  0  0  0  0  0  0
   30.8996  -22.3314    2.9540 C   0  0  0  0  0  0  0  0  0  0  0  0
   30.7543  -21.7968    4.3686 C   0  0  0  0  0  0  0  0  0  0  0  0
   32.0740  -22.6096    6.2895 C   0  0  0  0  0  0  0  0  0  0  0  0
   31.6848  -22.1053    7.7037 C   0  0  0  0  0  0  0  0  0  0  0  0
   30.8753  -20.6261    7.8456 S   0  0  0  0  0  0  0  0  0  0  0  0
  1  3  1  0  0  0  0
  1  9  1  0  0  0  0
  1 10  1  0  0  0  0
  2 12  1  0  0  0  0
  3  5  1  0  0  0  0
  4 12  2  0  0  0  0
  5  7  1  0  0  0  0
  6 12  2  0  0  0  0
  7  8  1  0  0  0  0
  8  9  1  0  0  0  0
 10 11  1  0  0  0  0
 11 12  1  0  0  0  0
M  END
>  <CHROM.1>
-135.97214456,-63.05091259,-56.05813335,30.80673008,-21.84848730,6.02885412
-1.79089969,-1.14978096,0.79703834

>  <Name>
ligand

>  <RI>
0

>  <Rbt.Current_Directory>
/home/itssahil/PROJECTS/Mol_Feturizer/New_Systems/rnas/4E8N

>  <Rbt.Executable>
rbdock ($Id: //depot/dev/client3/rdock/2013.1/src/exe/rbdock.cxx#4 $)

>  <Rbt.Library>
libRbt.so (2013.1, Build901 2013/11/27)

>  <Rbt.Parameter_File>
/export/apps/rDock/src/rDock_2013.1_src/data/scripts/dock_solv.prm

>  <Rbt.Receptor>
prm/pocket_docking_6.prm

>  <SCORE>
-9.4761

>  <SCORE.INTER>
-5.69879

>  <SCORE.INTER.CONST>
1

>  <SCORE.INTER.POLAR>
0

>  <SCORE.INTER.ROT>
3

>  <SCORE.INTER.SOLV>
6.67845

>  <SCORE.INTER.VDW>
-11.6253

>  <SCORE.INTER.norm>
-0.4749

>  <SCORE.INTRA>
-3.7773

>  <SCORE.INTRA.DIHEDRAL>
-3.00659

>  <SCORE.INTRA.DIHEDRAL.0>
5.0186

>  <SCORE.INTRA.POLAR>
0

>  <SCORE.INTRA.POLAR.0>
0

>  <SCORE.INTRA.REPUL>
0

>  <SCORE.INTRA.REPUL.0>
0

>  <SCORE.INTRA.SOLV>
0.438116

>  <SCORE.INTRA.SOLV.lig_0>
-16.1608

>  <SCORE.INTRA.VDW>
-2.49307

>  <SCORE.INTRA.VDW.0>
1.14169

>  <SCORE.INTRA.norm>
-0.314775

>  <SCORE.RESTR>
0

>  <SCORE.RESTR.CAVITY>
0

>  <SCORE.RESTR.norm>
0

>  <SCORE.SYSTEM>
0

>  <SCORE.SYSTEM.CONST>
0

>  <SCORE.SYSTEM.DIHEDRAL>
0

>  <SCORE.SYSTEM.SOLV>
0

>  <SCORE.SYSTEM.norm>
0

>  <SCORE.heavy>
12

>  <SCORE.norm>
-0.789675

>  <RMSD>
1.712

$$$$
ligand
 OpenBabel11021811493D
libRbt.so/2013.1/901 2013/11/27
 12 12  0  0  0  0  0  0  0  0999 V2000
   30.8907  -22.8954    5.2948 N   0  0  0  0  0  0  0  0  0  0  0  0
   31.7942  -19.6423    7.0645 O   0  0  0  0  0  0  0  0  0  0  0  0
   30.9268  -24.1996    4.5887 C   0  0  0  0  0  0  0  0  0  0  0  0
   29.6344  -20.5830    7.2125 O   0  0  0  0  0  0  0  0  0  0  0  0
   29.6965  -24.2950    3.6923 C   0  0  0  0  0  0  0  0  0  0  0  0
   30.8021  -19.9295    9.2726 O   0  0  0  0  0  0  0  0  0  0  0  0
   29.7623  -23.2594    2.6569 N   0  0  0  0  0  0  0  0  0  0  0  0
   30.9691  -22.4616    2.8883 C   0  0  0  0  0  0  0  0  0  0  0  0
   30.8269  -21.8384    4.2665 C   0  0  0  0  0  0  0  0  0  0  0  0
   32.0243  -22.6406    6.2701 C   0  0  0  0  0  0  0  0  0  0  0  0
   31.6289  -22.1018    7.6698 C   0  0  0  0  0  0  0  0  0  0  0  0
   30.9552  -20.5539    7.7850 S   0  0  0  0  0  0  0  0  0  0  0  0
  1  3  1  0  0  0  0
  1  9  1  0  0  0  0
  1 10  1  0  0  0  0
  2 12  1  0  0  0  0
  3  5  1  0  0  0  0
  4 12  2  0  0  0  0
  5  7  1  0  0  0  0
  6 12  2  0  0  0  0
  7  8  1  0  0  0  0
  8  9  1  0  0  0  0
 10 11  1  0  0  0  0
 11 12  1  0  0  0  0
M  END
>  <CHROM.1>
-132.72063876,-66.27591441,-50.16502819,30.83563277,-21.83335451,5.98127118
-1.93052858,-1.25343931,0.63310422

>  <Name>
ligand

>  <RI>
0

>  <Rbt.Current_Directory>
/home/itssahil/PROJECTS/Mol_Feturizer/New_Systems/rnas/4E8N

>  <Rbt.Executable>
rbdock ($Id: //depot/dev/client3/rdock/2013.1/src/exe/rbdock.cxx#4 $)

>  <Rbt.Library>
libRbt.so (2013.1, Build901 2013/11/27)

>  <Rbt.Parameter_File>
/export/apps/rDock/src/rDock_2013.1_src/data/scripts/dock_solv.prm

>  <Rbt.Receptor>
prm/pocket_docking_3.prm

>  <SCORE>
-9.27709

>  <SCORE.INTER>
-5.71258

>  <SCORE.INTER.CONST>
1

>  <SCORE.INTER.POLAR>
0

>  <SCORE.INTER.ROT>
3

>  <SCORE.INTER.SOLV>
6.3426

>  <SCORE.INTER.VDW>
-11.5226

>  <SCORE.INTER.norm>
-0.476048

>  <SCORE.INTRA>
-3.56451

>  <SCORE.INTRA.DIHEDRAL>
-2.5423

>  <SCORE.INTRA.DIHEDRAL.0>
5.0186

>  <SCORE.INTRA.POLAR>
0

>  <SCORE.INTRA.POLAR.0>
0

>  <SCORE.INTRA.REPUL>
0

>  <SCORE.INTRA.REPUL.0>
0

>  <SCORE.INTRA.SOLV>
0.370251

>  <SCORE.INTRA.SOLV.lig_0>
-16.1608

>  <SCORE.INTRA.VDW>
-2.47848

>  <SCORE.INTRA.VDW.0>
1.14169

>  <SCORE.INTRA.norm>
-0.297043

>  <SCORE.RESTR>
0

>  <SCORE.RESTR.CAVITY>
0

>  <SCORE.RESTR.norm>
0

>  <SCORE.SYSTEM>
0

>  <SCORE.SYSTEM.CONST>
0

>  <SCORE.SYSTEM.DIHEDRAL>
0

>  <SCORE.SYSTEM.SOLV>
0

>  <SCORE.SYSTEM.norm>
0

>  <SCORE.heavy>
12

>  <SCORE.norm>
-0.773091

>  <RMSD>
1.718

$$$$
ligand
 OpenBabel11021811493D
libRbt.so/2013.1/901 2013/11/27
 12 12  0  0  0  0  0  0  0  0999 V2000
   31.0239  -22.8222    5.1858 N   0  0  0  0  0  0  0  0  0  0  0  0
   31.5968  -19.6122    7.2682 O   0  0  0  0  0  0  0  0  0  0  0  0
   30.8601  -24.2539    4.8332 C   0  0  0  0  0  0  0  0  0  0  0  0
   29.5069  -20.7037    7.1546 O   0  0  0  0  0  0  0  0  0  0  0  0
   29.7358  -24.3710    3.8093 C   0  0  0  0  0  0  0  0  0  0  0  0
   30.4625  -20.1675    9.3533 O   0  0  0  0  0  0  0  0  0  0  0  0
   30.1220  -23.6802    2.5753 N   0  0  0  0  0  0  0  0  0  0  0  0
   31.4381  -23.0727    2.7876 C   0  0  0  0  0  0  0  0  0  0  0  0
   31.2878  -22.0867    3.9335 C   0  0  0  0  0  0  0  0  0  0  0  0
   32.0793  -22.5161    6.2316 C   0  0  0  0  0  0  0  0  0  0  0  0
   31.5667  -22.1227    7.6417 C   0  0  0  0  0  0  0  0  0  0  0  0
   30.7744  -20.6401    7.8348 S   0  0  0  0  0  0  0  0  0  0  0  0
  1  3  1  0  0  0  0
  1  9  1  0  0  0  0
  1 10  1  0  0  0  0
  2 12  1  0  0  0  0
  3  5  1  0  0  0  0
  4 12  2  0  0  0  0
  5  7  1  0  0  0  0
  6 12  2  0  0  0  0
  7  8  1  0  0  0  0
  8  9  1  0  0  0  0
 10 11  1  0  0  0  0
 11 12  1  0  0  0  0
M  END
>  <CHROM.1>
-106.54651572,-68.63666499,-51.47746463,30.85143203,-21.96506175,5.98439780
1.61208481,-1.06714164,-2.13412514

>  <Name>
ligand

>  <RI>
0

>  <Rbt.Current_Directory>
/home/itssahil/PROJECTS/Mol_Feturizer/New_Systems/rnas/4E8N

>  <Rbt.Executable>
rbdock ($Id: //depot/dev/client3/rdock/2013.1/src/exe/rbdock.cxx#4 $)

>  <Rbt.Library>
libRbt.so (2013.1, Build901 2013/11/27)

>  <Rbt.Parameter_File>
/export/apps/rDock/src/rDock_2013.1_src/data/scripts/dock_solv.prm

>  <Rbt.Receptor>
prm/pocket_docking_3.prm

>  <SCORE>
-8.7554

>  <SCORE.INTER>
-5.42947

>  <SCORE.INTER.CONST>
1

>  <SCORE.INTER.POLAR>
0

>  <SCORE.INTER.ROT>
3

>  <SCORE.INTER.SOLV>
6.08888

>  <SCORE.INTER.VDW>
-11.2493

>  <SCORE.INTER.norm>
-0.452456

>  <SCORE.INTRA>
-3.32593

>  <SCORE.INTRA.DIHEDRAL>
-2.38687

>  <SCORE.INTRA.DIHEDRAL.0>
5.0186

>  <SCORE.INTRA.POLAR>
0

>  <SCORE.INTRA.POLAR.0>
0

>  <SCORE.INTRA.REPUL>
0

>  <SCORE.INTRA.REPUL.0>
0

>  <SCORE.INTRA.SOLV>
0.355389

>  <SCORE.INTRA.SOLV.lig_0>
-16.1608

>  <SCORE.INTRA.VDW>
-2.31019

>  <SCORE.INTRA.VDW.0>
1.14169

>  <SCORE.INTRA.norm>
-0.27716

>  <SCORE.RESTR>
0

>  <SCORE.RESTR.CAVITY>
0

>  <SCORE.RESTR.norm>
0

>  <SCORE.SYSTEM>
0

>  <SCORE.SYSTEM.CONST>
0

>  <SCORE.SYSTEM.DIHEDRAL>
0

>  <SCORE.SYSTEM.SOLV>
0

>  <SCORE.SYSTEM.norm>
0

>  <SCORE.heavy>
12

>  <SCORE.norm>
-0.729616

>  <RMSD>
1.719

$$$$
ligand
 OpenBabel11021811493D
libRbt.so/2013.1/901 2013/11/27
 12 12  0  0  0  0  0  0  0  0999 V2000
   30.9169  -22.9191    5.3194 N   0  0  0  0  0  0  0  0  0  0  0  0
   31.6719  -19.6362    7.1931 O   0  0  0  0  0  0  0  0  0  0  0  0
   31.0360  -24.1670    4.5259 C   0  0  0  0  0  0  0  0  0  0  0  0
   29.5907  -20.7500    7.1977 O   0  0  0  0  0  0  0  0  0  0  0  0
   29.7839  -24.3118    3.6672 C   0  0  0  0  0  0  0  0  0  0  0  0
   30.6085  -20.1005    9.3370 O   0  0  0  0  0  0  0  0  0  0  0  0
   29.7203  -23.2099    2.7025 N   0  0  0  0  0  0  0  0  0  0  0  0
   30.8630  -22.3260    2.9464 C   0  0  0  0  0  0  0  0  0  0  0  0
   30.7228  -21.8077    4.3675 C   0  0  0  0  0  0  0  0  0  0  0  0
   32.0624  -22.6293    6.2707 C   0  0  0  0  0  0  0  0  0  0  0  0
   31.6791  -22.1260    7.6870 C   0  0  0  0  0  0  0  0  0  0  0  0
   30.8780  -20.6428    7.8338 S   0  0  0  0  0  0  0  0  0  0  0  0
  1  3  1  0  0  0  0
  1  9  1  0  0  0  0
  1 10  1  0  0  0  0
  2 12  1  0  0  0  0
  3  5  1  0  0  0  0
  4 12  2  0  0  0  0
  5  7  1  0  0  0  0
  6 12  2  0  0  0  0
  7  8  1  0  0  0  0
  8  9  1  0  0  0  0
 10 11  1  0  0  0  0
 11 12  1  0  0  0  0
M  END
>  <CHROM.1>
-136.73123378,-63.40680618,-55.75574760,30.79713906,-21.86157526,6.01583675
-1.79943911,-1.14015925,0.79150027

>  <Name>
ligand

>  <RI>
0

>  <Rbt.Current_Directory>
/home/itssahil/PROJECTS/Mol_Feturizer/New_Systems/rnas/4E8N

>  <Rbt.Executable>
rbdock ($Id: //depot/dev/client3/rdock/2013.1/src/exe/rbdock.cxx#4 $)

>  <Rbt.Library>
libRbt.so (2013.1, Build901 2013/11/27)

>  <Rbt.Parameter_File>
/export/apps/rDock/src/rDock_2013.1_src/data/scripts/dock_solv.prm

>  <Rbt.Receptor>
prm/pocket_docking_6.prm

>  <SCORE>
-9.45822

>  <SCORE.INTER>
-5.67342

>  <SCORE.INTER.CONST>
1

>  <SCORE.INTER.POLAR>
0

>  <SCORE.INTER.ROT>
3

>  <SCORE.INTER.SOLV>
6.73928

>  <SCORE.INTER.VDW>
-11.6287

>  <SCORE.INTER.norm>
-0.472785

>  <SCORE.INTRA>
-3.78479

>  <SCORE.INTRA.DIHEDRAL>
-3.02965

>  <SCORE.INTRA.DIHEDRAL.0>
5.0186

>  <SCORE.INTRA.POLAR>
0

>  <SCORE.INTRA.POLAR.0>
0

>  <SCORE.INTRA.REPUL>
0

>  <SCORE.INTRA.REPUL.0>
0

>  <SCORE.INTRA.SOLV>
0.434633

>  <SCORE.INTRA.SOLV.lig_0>
-16.1608

>  <SCORE.INTRA.VDW>
-2.48728

>  <SCORE.INTRA.VDW.0>
1.14169

>  <SCORE.INTRA.norm>
-0.315399

>  <SCORE.RESTR>
0

>  <SCORE.RESTR.CAVITY>
0

>  <SCORE.RESTR.norm>
0

>  <SCORE.SYSTEM>
0

>  <SCORE.SYSTEM.CONST>
0

>  <SCORE.SYSTEM.DIHEDRAL>
0

>  <SCORE.SYSTEM.SOLV>
0

>  <SCORE.SYSTEM.norm>
0

>  <SCORE.heavy>
12

>  <SCORE.norm>
-0.788185

>  <RMSD>
1.727

$$$$
ligand
 OpenBabel11021811493D
libRbt.so/2013.1/901 2013/11/27
 12 12  0  0  0  0  0  0  0  0999 V2000
   30.9044  -22.9125    5.3185 N   0  0  0  0  0  0  0  0  0  0  0  0
   31.6537  -19.6606    7.1236 O   0  0  0  0  0  0  0  0  0  0  0  0
   31.0003  -24.1555    4.5144 C   0  0  0  0  0  0  0  0  0  0  0  0
   29.5748  -20.7716    7.2482 O   0  0  0  0  0  0  0  0  0  0  0  0
   29.7457  -24.2697    3.6546 C   0  0  0  0  0  0  0  0  0  0  0  0
   30.6828  -20.0634    9.3231 O   0  0  0  0  0  0  0  0  0  0  0  0
   29.7028  -23.1585    2.6994 N   0  0  0  0  0  0  0  0  0  0  0  0
   30.8617  -22.2983    2.9507 C   0  0  0  0  0  0  0  0  0  0  0  0
   30.7311  -21.7895    4.3761 C   0  0  0  0  0  0  0  0  0  0  0  0
   32.0551  -22.6522    6.2722 C   0  0  0  0  0  0  0  0  0  0  0  0
   31.6822  -22.1356    7.6864 C   0  0  0  0  0  0  0  0  0  0  0  0
   30.8880  -20.6479    7.8256 S   0  0  0  0  0  0  0  0  0  0  0  0
  1  3  1  0  0  0  0
  1  9  1  0  0  0  0
  1 10  1  0  0  0  0
  2 12  1  0  0  0  0
  3  5  1  0  0  0  0
  4 12  2  0  0  0  0
  5  7  1  0  0  0  0
  6 12  2  0  0  0  0
  7  8  1  0  0  0  0
  8  9  1  0  0  0  0
 10 11  1  0  0  0  0
 11 12  1  0  0  0  0
M  END
>  <CHROM.1>
-137.53257189,-61.93858593,-53.35705263,30.79476627,-21.85405979,6.01068085
-1.82053565,-1.14865652,0.77624772

>  <Name>
ligand

>  <RI>
0

>  <Rbt.Current_Directory>
/home/itssahil/PROJECTS/Mol_Feturizer/New_Systems/rnas/4E8N

>  <Rbt.Executable>
rbdock ($Id: //depot/dev/client3/rdock/2013.1/src/exe/rbdock.cxx#4 $)

>  <Rbt.Library>
libRbt.so (2013.1, Build901 2013/11/27)

>  <Rbt.Parameter_File>
/export/apps/rDock/src/rDock_2013.1_src/data/scripts/dock_solv.prm

>  <Rbt.Receptor>
prm/pocket_docking_3.prm

>  <SCORE>
-9.44909

>  <SCORE.INTER>
-5.64061

>  <SCORE.INTER.CONST>
1

>  <SCORE.INTER.POLAR>
0

>  <SCORE.INTER.ROT>
3

>  <SCORE.INTER.SOLV>
6.75494

>  <SCORE.INTER.VDW>
-11.612

>  <SCORE.INTER.norm>
-0.47005

>  <SCORE.INTRA>
-3.80849

>  <SCORE.INTRA.DIHEDRAL>
-3.03429

>  <SCORE.INTRA.DIHEDRAL.0>
5.0186

>  <SCORE.INTRA.POLAR>
0

>  <SCORE.INTRA.POLAR.0>
0

>  <SCORE.INTRA.REPUL>
0

>  <SCORE.INTRA.REPUL.0>
0

>  <SCORE.INTRA.SOLV>
0.420083

>  <SCORE.INTRA.SOLV.lig_0>
-16.1608

>  <SCORE.INTRA.VDW>
-2.50139

>  <SCORE.INTRA.VDW.0>
1.14169

>  <SCORE.INTRA.norm>
-0.317374

>  <SCORE.RESTR>
0

>  <SCORE.RESTR.CAVITY>
0

>  <SCORE.RESTR.norm>
0

>  <SCORE.SYSTEM>
0

>  <SCORE.SYSTEM.CONST>
0

>  <SCORE.SYSTEM.DIHEDRAL>
0

>  <SCORE.SYSTEM.SOLV>
0

>  <SCORE.SYSTEM.norm>
0

>  <SCORE.heavy>
12

>  <SCORE.norm>
-0.787424

>  <RMSD>
1.734

$$$$
ligand
 OpenBabel11021811493D
libRbt.so/2013.1/901 2013/11/27
 12 12  0  0  0  0  0  0  0  0999 V2000
   30.9066  -22.8847    5.2937 N   0  0  0  0  0  0  0  0  0  0  0  0
   31.6936  -19.6454    7.1877 O   0  0  0  0  0  0  0  0  0  0  0  0
   30.8667  -24.2603    4.7397 C   0  0  0  0  0  0  0  0  0  0  0  0
   29.5631  -20.6577    7.2779 O   0  0  0  0  0  0  0  0  0  0  0  0
   29.6619  -24.3697    3.8109 C   0  0  0  0  0  0  0  0  0  0  0  0
   30.6922  -20.0499    9.3732 O   0  0  0  0  0  0  0  0  0  0  0  0
   29.8386  -23.4665    2.6697 N   0  0  0  0  0  0  0  0  0  0  0  0
   31.0941  -22.7356    2.8589 C   0  0  0  0  0  0  0  0  0  0  0  0
   30.9554  -21.9503    4.1520 C   0  0  0  0  0  0  0  0  0  0  0  0
   32.0245  -22.6015    6.2792 C   0  0  0  0  0  0  0  0  0  0  0  0
   31.6002  -22.1309    7.6950 C   0  0  0  0  0  0  0  0  0  0  0  0
   30.8775  -20.6102    7.8639 S   0  0  0  0  0  0  0  0  0  0  0  0
  1  3  1  0  0  0  0
  1  9  1  0  0  0  0
  1 10  1  0  0  0  0
  2 12  1  0  0  0  0
  3  5  1  0  0  0  0
  4 12  2  0  0  0  0
  5  7  1  0  0  0  0
  6 12  2  0  0  0  0
  7  8  1  0  0  0  0
  8  9  1  0  0  0  0
 10 11  1  0  0  0  0
 11 12  1  0  0  0  0
M  END
>  <CHROM.1>
-121.43993873,-67.69971834,-50.15068685,30.81545984,-21.91086714,6.03102966
-2.14605967,-1.41695712,0.40511944

>  <Name>
ligand

>  <RI>
0

>  <Rbt.Current_Directory>
/home/itssahil/PROJECTS/Mol_Feturizer/New_Systems/rnas/4E8N

>  <Rbt.Executable>
rbdock ($Id: //depot/dev/client3/rdock/2013.1/src/exe/rbdock.cxx#4 $)

>  <Rbt.Library>
libRbt.so (2013.1, Build901 2013/11/27)

>  <Rbt.Parameter_File>
/export/apps/rDock/src/rDock_2013.1_src/data/scripts/dock_solv.prm

>  <Rbt.Receptor>
prm/pocket_docking_3.prm

>  <SCORE>
-9.17516

>  <SCORE.INTER>
-5.8763

>  <SCORE.INTER.CONST>
1

>  <SCORE.INTER.POLAR>
0

>  <SCORE.INTER.ROT>
3

>  <SCORE.INTER.SOLV>
6.44718

>  <SCORE.INTER.VDW>
-11.6666

>  <SCORE.INTER.norm>
-0.489692

>  <SCORE.INTRA>
-3.29886

>  <SCORE.INTRA.DIHEDRAL>
-2.1678

>  <SCORE.INTRA.DIHEDRAL.0>
5.0186

>  <SCORE.INTRA.POLAR>
0

>  <SCORE.INTRA.POLAR.0>
0

>  <SCORE.INTRA.REPUL>
0

>  <SCORE.INTRA.REPUL.0>
0

>  <SCORE.INTRA.SOLV>
0.348955

>  <SCORE.INTRA.SOLV.lig_0>
-16.1608

>  <SCORE.INTRA.VDW>
-2.38944

>  <SCORE.INTRA.VDW.0>
1.14169

>  <SCORE.INTRA.norm>
-0.274905

>  <SCORE.RESTR>
0

>  <SCORE.RESTR.CAVITY>
0

>  <SCORE.RESTR.norm>
0

>  <SCORE.SYSTEM>
0

>  <SCORE.SYSTEM.CONST>
0

>  <SCORE.SYSTEM.DIHEDRAL>
0

>  <SCORE.SYSTEM.SOLV>
0

>  <SCORE.SYSTEM.norm>
0

>  <SCORE.heavy>
12

>  <SCORE.norm>
-0.764597

>  <RMSD>
1.734

$$$$
ligand
 OpenBabel11021811493D
libRbt.so/2013.1/901 2013/11/27
 12 12  0  0  0  0  0  0  0  0999 V2000
   31.0292  -22.7973    5.1897 N   0  0  0  0  0  0  0  0  0  0  0  0
   30.8172  -20.2076    9.1857 O   0  0  0  0  0  0  0  0  0  0  0  0
   30.8664  -24.2362    4.8672 C   0  0  0  0  0  0  0  0  0  0  0  0
   31.5429  -19.5637    7.0338 O   0  0  0  0  0  0  0  0  0  0  0  0
   29.7259  -24.3779    3.8644 C   0  0  0  0  0  0  0  0  0  0  0  0
   29.2796  -20.4769    7.3133 O   0  0  0  0  0  0  0  0  0  0  0  0
   30.0885  -23.7092    2.6113 N   0  0  0  0  0  0  0  0  0  0  0  0
   31.4050  -23.0918    2.7901 C   0  0  0  0  0  0  0  0  0  0  0  0
   31.2689  -22.0847    3.9193 C   0  0  0  0  0  0  0  0  0  0  0  0
   32.1001  -22.4664    6.2118 C   0  0  0  0  0  0  0  0  0  0  0  0
   31.6088  -22.0426    7.6207 C   0  0  0  0  0  0  0  0  0  0  0  0
   30.8251  -20.5531    7.7948 S   0  0  0  0  0  0  0  0  0  0  0  0
  1  3  1  0  0  0  0
  1  9  1  0  0  0  0
  1 10  1  0  0  0  0
  2 12  1  0  0  0  0
  3  5  1  0  0  0  0
  4 12  2  0  0  0  0
  5  7  1  0  0  0  0
  6 12  2  0  0  0  0
  7  8  1  0  0  0  0
  8  9  1  0  0  0  0
 10 11  1  0  0  0  0
 11 12  1  0  0  0  0
M  END
>  <CHROM.1>
-106.79686009,-68.99553177,-163.45228386,30.86446337,-21.92227884,5.96305673
1.67339912,-1.24371600,-2.09497226

>  <Name>
ligand

>  <RI>
0

>  <Rbt.Current_Directory>
/home/itssahil/PROJECTS/Mol_Feturizer/New_Systems/rnas/4E8N

>  <Rbt.Executable>
rbdock ($Id: //depot/dev/client3/rdock/2013.1/src/exe/rbdock.cxx#4 $)

>  <Rbt.Library>
libRbt.so (2013.1, Build901 2013/11/27)

>  <Rbt.Parameter_File>
/export/apps/rDock/src/rDock_2013.1_src/data/scripts/dock_solv.prm

>  <Rbt.Receptor>
prm/pocket_docking_3.prm

>  <SCORE>
-8.37573

>  <SCORE.INTER>
-5.5276

>  <SCORE.INTER.CONST>
1

>  <SCORE.INTER.POLAR>
0

>  <SCORE.INTER.ROT>
3

>  <SCORE.INTER.SOLV>
4.8759

>  <SCORE.INTER.VDW>
-10.9104

>  <SCORE.INTER.norm>
-0.460633

>  <SCORE.INTRA>
-2.84813

>  <SCORE.INTRA.DIHEDRAL>
-1.88859

>  <SCORE.INTRA.DIHEDRAL.0>
5.0186

>  <SCORE.INTRA.POLAR>
0

>  <SCORE.INTRA.POLAR.0>
0

>  <SCORE.INTRA.REPUL>
0

>  <SCORE.INTRA.REPUL.0>
0

>  <SCORE.INTRA.SOLV>
0.643978

>  <SCORE.INTRA.SOLV.lig_0>
-16.1608

>  <SCORE.INTRA.VDW>
-2.22582

>  <SCORE.INTRA.VDW.0>
1.14169

>  <SCORE.INTRA.norm>
-0.237344

>  <SCORE.RESTR>
0

>  <SCORE.RESTR.CAVITY>
0

>  <SCORE.RESTR.norm>
0

>  <SCORE.SYSTEM>
0

>  <SCORE.SYSTEM.CONST>
0

>  <SCORE.SYSTEM.DIHEDRAL>
0

>  <SCORE.SYSTEM.SOLV>
0

>  <SCORE.SYSTEM.norm>
0

>  <SCORE.heavy>
12

>  <SCORE.norm>
-0.697978

>  <RMSD>
1.811

$$$$
ligand
 OpenBabel11021811493D
libRbt.so/2013.1/901 2013/11/27
 12 12  0  0  0  0  0  0  0  0999 V2000
   30.9421  -22.8134    5.3527 N   0  0  0  0  0  0  0  0  0  0  0  0
   29.4886  -20.7178    7.2361 O   0  0  0  0  0  0  0  0  0  0  0  0
   31.0346  -24.1109    4.6394 C   0  0  0  0  0  0  0  0  0  0  0  0
   30.6946  -20.0964    9.1678 O   0  0  0  0  0  0  0  0  0  0  0  0
   29.8095  -24.2546    3.7424 C   0  0  0  0  0  0  0  0  0  0  0  0
   31.4163  -19.2480    6.9782 O   0  0  0  0  0  0  0  0  0  0  0  0
   29.8304  -23.2113    2.7126 N   0  0  0  0  0  0  0  0  0  0  0  0
   31.0015  -22.3633    2.9486 C   0  0  0  0  0  0  0  0  0  0  0  0
   30.8326  -21.7544    4.3301 C   0  0  0  0  0  0  0  0  0  0  0  0
   32.0637  -22.5150    6.3295 C   0  0  0  0  0  0  0  0  0  0  0  0
   31.6475  -21.9629    7.7180 C   0  0  0  0  0  0  0  0  0  0  0  0
   30.7929  -20.5042    7.7904 S   0  0  0  0  0  0  0  0  0  0  0  0
  1  3  1  0  0  0  0
  1  9  1  0  0  0  0
  1 10  1  0  0  0  0
  2 12  1  0  0  0  0
  3  5  1  0  0  0  0
  4 12  2  0  0  0  0
  5  7  1  0  0  0  0
  6 12  2  0  0  0  0
  7  8  1  0  0  0  0
  8  9  1  0  0  0  0
 10 11  1  0  0  0  0
 11 12  1  0  0  0  0
M  END
>  <CHROM.1>
-134.42481086,-60.02560684,68.41323730,30.78787739,-21.76585988,6.00074373
-1.82774628,-1.29091308,0.72270591

>  <Name>
ligand

>  <RI>
0

>  <Rbt.Current_Directory>
/home/itssahil/PROJECTS/Mol_Feturizer/New_Systems/rnas/4E8N

>  <Rbt.Executable>
rbdock ($Id: //depot/dev/client3/rdock/2013.1/src/exe/rbdock.cxx#4 $)

>  <Rbt.Library>
libRbt.so (2013.1, Build901 2013/11/27)

>  <Rbt.Parameter_File>
/export/apps/rDock/src/rDock_2013.1_src/data/scripts/dock_solv.prm

>  <Rbt.Receptor>
prm/pocket_docking_3.prm

>  <SCORE>
-9.97561

>  <SCORE.INTER>
-6.08149

>  <SCORE.INTER.CONST>
1

>  <SCORE.INTER.POLAR>
0

>  <SCORE.INTER.ROT>
3

>  <SCORE.INTER.SOLV>
5.01712

>  <SCORE.INTER.VDW>
-11.3267

>  <SCORE.INTER.norm>
-0.506791

>  <SCORE.INTRA>
-3.89412

>  <SCORE.INTRA.DIHEDRAL>
-2.82864

>  <SCORE.INTRA.DIHEDRAL.0>
5.0186

>  <SCORE.INTRA.POLAR>
0

>  <SCORE.INTRA.POLAR.0>
0

>  <SCORE.INTRA.REPUL>
0

>  <SCORE.INTRA.REPUL.0>
0

>  <SCORE.INTRA.SOLV>
0.231174

>  <SCORE.INTRA.SOLV.lig_0>
-16.1608

>  <SCORE.INTRA.VDW>
-2.59538

>  <SCORE.INTRA.VDW.0>
1.14169

>  <SCORE.INTRA.norm>
-0.32451

>  <SCORE.RESTR>
0

>  <SCORE.RESTR.CAVITY>
0

>  <SCORE.RESTR.norm>
0

>  <SCORE.SYSTEM>
0

>  <SCORE.SYSTEM.CONST>
0

>  <SCORE.SYSTEM.DIHEDRAL>
0

>  <SCORE.SYSTEM.SOLV>
0

>  <SCORE.SYSTEM.norm>
0

>  <SCORE.heavy>
12

>  <SCORE.norm>
-0.831301

>  <RMSD>
1.825

$$$$
ligand
 OpenBabel11021811493D
libRbt.so/2013.1/901 2013/11/27
 12 12  0  0  0  0  0  0  0  0999 V2000
   31.1456  -22.6631    5.8782 N   0  0  0  0  0  0  0  0  0  0  0  0
   29.7539  -20.7099    8.7704 O   0  0  0  0  0  0  0  0  0  0  0  0
   30.5965  -23.9586    5.4083 C   0  0  0  0  0  0  0  0  0  0  0  0
   31.3230  -18.9557    8.5903 O   0  0  0  0  0  0  0  0  0  0  0  0
   29.9674  -23.7443    4.0355 C   0  0  0  0  0  0  0  0  0  0  0  0
   30.1357  -19.7147    6.5781 O   0  0  0  0  0  0  0  0  0  0  0  0
   31.0057  -23.3595    3.0747 N   0  0  0  0  0  0  0  0  0  0  0  0
   32.2780  -23.2643    3.7946 C   0  0  0  0  0  0  0  0  0  0  0  0
   32.1031  -22.1933    4.8577 C   0  0  0  0  0  0  0  0  0  0  0  0
   31.7790  -22.6750    7.2566 C   0  0  0  0  0  0  0  0  0  0  0  0
   32.0662  -21.2938    7.9014 C   0  0  0  0  0  0  0  0  0  0  0  0
   30.8150  -20.1575    7.9812 S   0  0  0  0  0  0  0  0  0  0  0  0
  1  3  1  0  0  0  0
  1  9  1  0  0  0  0
  1 10  1  0  0  0  0
  2 12  1  0  0  0  0
  3  5  1  0  0  0  0
  4 12  2  0  0  0  0
  5  7  1  0  0  0  0
  6 12  2  0  0  0  0
  7  8  1  0  0  0  0
  8  9  1  0  0  0  0
 10 11  1  0  0  0  0
 11 12  1  0  0  0  0
M  END
>  <CHROM.1>
-166.55917873,51.64228700,61.06941821,31.03499684,-21.66340357,6.40230524
-1.47298669,-0.80633333,0.94017844

>  <Name>
ligand

>  <RI>
0

>  <Rbt.Current_Directory>
/home/itssahil/PROJECTS/Mol_Feturizer/New_Systems/rnas/4E8N

>  <Rbt.Executable>
rbdock ($Id: //depot/dev/client3/rdock/2013.1/src/exe/rbdock.cxx#4 $)

>  <Rbt.Library>
libRbt.so (2013.1, Build901 2013/11/27)

>  <Rbt.Parameter_File>
/export/apps/rDock/src/rDock_2013.1_src/data/scripts/dock_solv.prm

>  <Rbt.Receptor>
prm/pocket_docking_3.prm

>  <SCORE>
-10.6842

>  <SCORE.INTER>
-6.5081

>  <SCORE.INTER.CONST>
1

>  <SCORE.INTER.POLAR>
0

>  <SCORE.INTER.ROT>
3

>  <SCORE.INTER.SOLV>
3.43525

>  <SCORE.INTER.VDW>
-11.0838

>  <SCORE.INTER.norm>
-0.542341

>  <SCORE.INTRA>
-4.17611

>  <SCORE.INTRA.DIHEDRAL>
-4.52164

>  <SCORE.INTRA.DIHEDRAL.0>
5.0186

>  <SCORE.INTRA.POLAR>
0

>  <SCORE.INTRA.POLAR.0>
0

>  <SCORE.INTRA.REPUL>
0

>  <SCORE.INTRA.REPUL.0>
0

>  <SCORE.INTRA.SOLV>
0.537977

>  <SCORE.INTRA.SOLV.lig_0>
-16.1608

>  <SCORE.INTRA.VDW>
-2.18428

>  <SCORE.INTRA.VDW.0>
1.14169

>  <SCORE.INTRA.norm>
-0.348009

>  <SCORE.RESTR>
0

>  <SCORE.RESTR.CAVITY>
0

>  <SCORE.RESTR.norm>
0

>  <SCORE.SYSTEM>
0

>  <SCORE.SYSTEM.CONST>
0

>  <SCORE.SYSTEM.DIHEDRAL>
0

>  <SCORE.SYSTEM.SOLV>
0

>  <SCORE.SYSTEM.norm>
0

>  <SCORE.heavy>
12

>  <SCORE.norm>
-0.890351

>  <RMSD>
1.847

$$$$
ligand
 OpenBabel11021811493D
libRbt.so/2013.1/901 2013/11/27
 12 12  0  0  0  0  0  0  0  0999 V2000
   30.9050  -22.8847    5.3032 N   0  0  0  0  0  0  0  0  0  0  0  0
   29.5153  -20.7025    7.2287 O   0  0  0  0  0  0  0  0  0  0  0  0
   31.0025  -24.1556    4.5441 C   0  0  0  0  0  0  0  0  0  0  0  0
   30.8271  -20.0845    9.0912 O   0  0  0  0  0  0  0  0  0  0  0  0
   29.7696  -24.2800    3.6548 C   0  0  0  0  0  0  0  0  0  0  0  0
   31.4969  -19.3341    6.8501 O   0  0  0  0  0  0  0  0  0  0  0  0
   29.7699  -23.2013    2.6621 N   0  0  0  0  0  0  0  0  0  0  0  0
   30.9352  -22.3506    2.9158 C   0  0  0  0  0  0  0  0  0  0  0  0
   30.7747  -21.7919    4.3194 C   0  0  0  0  0  0  0  0  0  0  0  0
   32.0337  -22.6095    6.2785 C   0  0  0  0  0  0  0  0  0  0  0  0
   31.6320  -22.0348    7.6621 C   0  0  0  0  0  0  0  0  0  0  0  0
   30.8498  -20.5356    7.7240 S   0  0  0  0  0  0  0  0  0  0  0  0
  1  3  1  0  0  0  0
  1  9  1  0  0  0  0
  1 10  1  0  0  0  0
  2 12  1  0  0  0  0
  3  5  1  0  0  0  0
  4 12  2  0  0  0  0
  5  7  1  0  0  0  0
  6 12  2  0  0  0  0
  7  8  1  0  0  0  0
  8  9  1  0  0  0  0
 10 11  1  0  0  0  0
 11 12  1  0  0  0  0
M  END
>  <CHROM.1>
-137.75188442,-61.41827636,71.69091339,30.79255994,-21.79952388,5.94041630
-1.89568731,-1.27645758,0.65749465

>  <Name>
ligand

>  <RI>
0

>  <Rbt.Current_Directory>
/home/itssahil/PROJECTS/Mol_Feturizer/New_Systems/rnas/4E8N

>  <Rbt.Executable>
rbdock ($Id: //depot/dev/client3/rdock/2013.1/src/exe/rbdock.cxx#4 $)

>  <Rbt.Library>
libRbt.so (2013.1, Build901 2013/11/27)

>  <Rbt.Parameter_File>
/export/apps/rDock/src/rDock_2013.1_src/data/scripts/dock_solv.prm

>  <Rbt.Receptor>
prm/pocket_docking_4.prm

>  <SCORE>
-10.0074

>  <SCORE.INTER>
-6.1316

>  <SCORE.INTER.CONST>
1

>  <SCORE.INTER.POLAR>
0

>  <SCORE.INTER.ROT>
3

>  <SCORE.INTER.SOLV>
5.0695

>  <SCORE.INTER.VDW>
-11.3776

>  <SCORE.INTER.norm>
-0.510967

>  <SCORE.INTRA>
-3.87584

>  <SCORE.INTRA.DIHEDRAL>
-2.8278

>  <SCORE.INTRA.DIHEDRAL.0>
5.0186

>  <SCORE.INTRA.POLAR>
0

>  <SCORE.INTRA.POLAR.0>
0

>  <SCORE.INTRA.REPUL>
0

>  <SCORE.INTRA.REPUL.0>
0

>  <SCORE.INTRA.SOLV>
0.257584

>  <SCORE.INTRA.SOLV.lig_0>
-16.1608

>  <SCORE.INTRA.VDW>
-2.59074

>  <SCORE.INTRA.VDW.0>
1.14169

>  <SCORE.INTRA.norm>
-0.322987

>  <SCORE.RESTR>
0

>  <SCORE.RESTR.CAVITY>
0

>  <SCORE.RESTR.norm>
0

>  <SCORE.SYSTEM>
0

>  <SCORE.SYSTEM.CONST>
0

>  <SCORE.SYSTEM.DIHEDRAL>
0

>  <SCORE.SYSTEM.SOLV>
0

>  <SCORE.SYSTEM.norm>
0

>  <SCORE.heavy>
12

>  <SCORE.norm>
-0.833954

>  <RMSD>
1.872

$$$$
ligand
 OpenBabel11021811493D
libRbt.so/2013.1/901 2013/11/27
 12 12  0  0  0  0  0  0  0  0999 V2000
   30.9012  -22.8848    5.3224 N   0  0  0  0  0  0  0  0  0  0  0  0
   29.5305  -20.7014    7.2280 O   0  0  0  0  0  0  0  0  0  0  0  0
   31.0231  -24.1313    4.5273 C   0  0  0  0  0  0  0  0  0  0  0  0
   30.8285  -20.0797    9.0989 O   0  0  0  0  0  0  0  0  0  0  0  0
   29.7754  -24.2731    3.6616 C   0  0  0  0  0  0  0  0  0  0  0  0
   31.5023  -19.3150    6.8638 O   0  0  0  0  0  0  0  0  0  0  0  0
   29.7184  -23.1693    2.6986 N   0  0  0  0  0  0  0  0  0  0  0  0
   30.8607  -22.2873    2.9502 C   0  0  0  0  0  0  0  0  0  0  0  0
   30.7135  -21.7714    4.3715 C   0  0  0  0  0  0  0  0  0  0  0  0
   32.0419  -22.5981    6.2804 C   0  0  0  0  0  0  0  0  0  0  0  0
   31.6563  -22.0176    7.6661 C   0  0  0  0  0  0  0  0  0  0  0  0
   30.8612  -20.5253    7.7302 S   0  0  0  0  0  0  0  0  0  0  0  0
  1  3  1  0  0  0  0
  1  9  1  0  0  0  0
  1 10  1  0  0  0  0
  2 12  1  0  0  0  0
  3  5  1  0  0  0  0
  4 12  2  0  0  0  0
  5  7  1  0  0  0  0
  6 12  2  0  0  0  0
  7  8  1  0  0  0  0
  8  9  1  0  0  0  0
 10 11  1  0  0  0  0
 11 12  1  0  0  0  0
M  END
>  <CHROM.1>
-140.23100274,-61.16522757,70.38563460,30.78667389,-21.78292683,5.95323081
-1.88318627,-1.23626715,0.67278175

>  <Name>
ligand

>  <RI>
0

>  <Rbt.Current_Directory>
/home/itssahil/PROJECTS/Mol_Feturizer/New_Systems/rnas/4E8N

>  <Rbt.Executable>
rbdock ($Id: //depot/dev/client3/rdock/2013.1/src/exe/rbdock.cxx#4 $)

>  <Rbt.Library>
libRbt.so (2013.1, Build901 2013/11/27)

>  <Rbt.Parameter_File>
/export/apps/rDock/src/rDock_2013.1_src/data/scripts/dock_solv.prm

>  <Rbt.Receptor>
prm/pocket_docking_4.prm

>  <SCORE>
-10.0207

>  <SCORE.INTER>
-6.04955

>  <SCORE.INTER.CONST>
1

>  <SCORE.INTER.POLAR>
0

>  <SCORE.INTER.ROT>
3

>  <SCORE.INTER.SOLV>
5.1542

>  <SCORE.INTER.VDW>
-11.3511

>  <SCORE.INTER.norm>
-0.504129

>  <SCORE.INTRA>
-3.97115

>  <SCORE.INTRA.DIHEDRAL>
-3.03494

>  <SCORE.INTRA.DIHEDRAL.0>
5.0186

>  <SCORE.INTRA.POLAR>
0

>  <SCORE.INTRA.POLAR.0>
0

>  <SCORE.INTRA.REPUL>
0

>  <SCORE.INTRA.REPUL.0>
0

>  <SCORE.INTRA.SOLV>
0.246953

>  <SCORE.INTRA.SOLV.lig_0>
-16.1608

>  <SCORE.INTRA.VDW>
-2.57716

>  <SCORE.INTRA.VDW.0>
1.14169

>  <SCORE.INTRA.norm>
-0.330929

>  <SCORE.RESTR>
0

>  <SCORE.RESTR.CAVITY>
0

>  <SCORE.RESTR.norm>
0

>  <SCORE.SYSTEM>
0

>  <SCORE.SYSTEM.CONST>
0

>  <SCORE.SYSTEM.DIHEDRAL>
0

>  <SCORE.SYSTEM.SOLV>
0

>  <SCORE.SYSTEM.norm>
0

>  <SCORE.heavy>
12

>  <SCORE.norm>
-0.835058

>  <RMSD>
1.873

$$$$
ligand
 OpenBabel11021811493D
libRbt.so/2013.1/901 2013/11/27
 12 12  0  0  0  0  0  0  0  0999 V2000
   30.9176  -22.8837    5.3082 N   0  0  0  0  0  0  0  0  0  0  0  0
   29.5400  -20.6895    7.2441 O   0  0  0  0  0  0  0  0  0  0  0  0
   30.9976  -24.1722    4.5772 C   0  0  0  0  0  0  0  0  0  0  0  0
   30.8555  -20.0937    9.1113 O   0  0  0  0  0  0  0  0  0  0  0  0
   29.7647  -24.2977    3.6881 C   0  0  0  0  0  0  0  0  0  0  0  0
   31.5301  -19.3307    6.8758 O   0  0  0  0  0  0  0  0  0  0  0  0
   29.7830  -23.2411    2.6720 N   0  0  0  0  0  0  0  0  0  0  0  0
   30.9604  -22.4024    2.9098 C   0  0  0  0  0  0  0  0  0  0  0  0
   30.8056  -21.8109    4.3005 C   0  0  0  0  0  0  0  0  0  0  0  0
   32.0484  -22.6041    6.2799 C   0  0  0  0  0  0  0  0  0  0  0  0
   31.6483  -22.0382    7.6675 C   0  0  0  0  0  0  0  0  0  0  0  0
   30.8754  -20.5347    7.7407 S   0  0  0  0  0  0  0  0  0  0  0  0
  1  3  1  0  0  0  0
  1  9  1  0  0  0  0
  1 10  1  0  0  0  0
  2 12  1  0  0  0  0
  3  5  1  0  0  0  0
  4 12  2  0  0  0  0
  5  7  1  0  0  0  0
  6 12  2  0  0  0  0
  7  8  1  0  0  0  0
  8  9  1  0  0  0  0
 10 11  1  0  0  0  0
 11 12  1  0  0  0  0
M  END
>  <CHROM.1>
-135.74647079,-62.30747360,71.78117281,30.81153650,-21.80914003,5.95290357
-1.92706187,-1.29430642,0.62221309

>  <Name>
ligand

>  <RI>
0

>  <Rbt.Current_Directory>
/home/itssahil/PROJECTS/Mol_Feturizer/New_Systems/rnas/4E8N

>  <Rbt.Executable>
rbdock ($Id: //depot/dev/client3/rdock/2013.1/src/exe/rbdock.cxx#4 $)

>  <Rbt.Library>
libRbt.so (2013.1, Build901 2013/11/27)

>  <Rbt.Parameter_File>
/export/apps/rDock/src/rDock_2013.1_src/data/scripts/dock_solv.prm

>  <Rbt.Receptor>
prm/pocket_docking_3.prm

>  <SCORE>
-10.027

>  <SCORE.INTER>
-6.20994

>  <SCORE.INTER.CONST>
1

>  <SCORE.INTER.POLAR>
0

>  <SCORE.INTER.ROT>
3

>  <SCORE.INTER.SOLV>
5.03845

>  <SCORE.INTER.VDW>
-11.4194

>  <SCORE.INTER.norm>
-0.517495

>  <SCORE.INTRA>
-3.81703

>  <SCORE.INTRA.DIHEDRAL>
-2.70799

>  <SCORE.INTRA.DIHEDRAL.0>
5.0186

>  <SCORE.INTRA.POLAR>
0

>  <SCORE.INTRA.POLAR.0>
0

>  <SCORE.INTRA.REPUL>
0

>  <SCORE.INTRA.REPUL.0>
0

>  <SCORE.INTRA.SOLV>
0.249382

>  <SCORE.INTRA.SOLV.lig_0>
-16.1608

>  <SCORE.INTRA.VDW>
-2.58772

>  <SCORE.INTRA.VDW.0>
1.14169

>  <SCORE.INTRA.norm>
-0.318086

>  <SCORE.RESTR>
0

>  <SCORE.RESTR.CAVITY>
0

>  <SCORE.RESTR.norm>
0

>  <SCORE.SYSTEM>
0

>  <SCORE.SYSTEM.CONST>
0

>  <SCORE.SYSTEM.DIHEDRAL>
0

>  <SCORE.SYSTEM.SOLV>
0

>  <SCORE.SYSTEM.norm>
0

>  <SCORE.heavy>
12

>  <SCORE.norm>
-0.83558

>  <RMSD>
1.877

$$$$
ligand
 OpenBabel11021811493D
libRbt.so/2013.1/901 2013/11/27
 12 12  0  0  0  0  0  0  0  0999 V2000
   30.9113  -22.8917    5.3212 N   0  0  0  0  0  0  0  0  0  0  0  0
   29.5363  -20.7219    7.2442 O   0  0  0  0  0  0  0  0  0  0  0  0
   31.0093  -24.1622    4.5616 C   0  0  0  0  0  0  0  0  0  0  0  0
   30.8349  -20.1119    9.1185 O   0  0  0  0  0  0  0  0  0  0  0  0
   29.7645  -24.2988    3.6909 C   0  0  0  0  0  0  0  0  0  0  0  0
   31.5048  -19.3286    6.8887 O   0  0  0  0  0  0  0  0  0  0  0  0
   29.7399  -23.2210    2.6976 N   0  0  0  0  0  0  0  0  0  0  0  0
   30.9008  -22.3592    2.9333 C   0  0  0  0  0  0  0  0  0  0  0  0
   30.7562  -21.8009    4.3387 C   0  0  0  0  0  0  0  0  0  0  0  0
   32.0519  -22.6052    6.2794 C   0  0  0  0  0  0  0  0  0  0  0  0
   31.6653  -22.0370    7.6699 C   0  0  0  0  0  0  0  0  0  0  0  0
   30.8672  -20.5468    7.7463 S   0  0  0  0  0  0  0  0  0  0  0  0
  1  3  1  0  0  0  0
  1  9  1  0  0  0  0
  1 10  1  0  0  0  0
  2 12  1  0  0  0  0
  3  5  1  0  0  0  0
  4 12  2  0  0  0  0
  5  7  1  0  0  0  0
  6 12  2  0  0  0  0
  7  8  1  0  0  0  0
  8  9  1  0  0  0  0
 10 11  1  0  0  0  0
 11 12  1  0  0  0  0
M  END
>  <CHROM.1>
-137.58121083,-61.40949125,70.44849537,30.79680910,-21.80975069,5.96203322
-1.90029388,-1.26009438,0.65378738

>  <Name>
ligand

>  <RI>
0

>  <Rbt.Current_Directory>
/home/itssahil/PROJECTS/Mol_Feturizer/New_Systems/rnas/4E8N

>  <Rbt.Executable>
rbdock ($Id: //depot/dev/client3/rdock/2013.1/src/exe/rbdock.cxx#4 $)

>  <Rbt.Library>
libRbt.so (2013.1, Build901 2013/11/27)

>  <Rbt.Parameter_File>
/export/apps/rDock/src/rDock_2013.1_src/data/scripts/dock_solv.prm

>  <Rbt.Receptor>
prm/pocket_docking_3.prm

>  <SCORE>
-10.0319

>  <SCORE.INTER>
-6.12444

>  <SCORE.INTER.CONST>
1

>  <SCORE.INTER.POLAR>
0

>  <SCORE.INTER.ROT>
3

>  <SCORE.INTER.SOLV>
5.15235

>  <SCORE.INTER.VDW>
-11.4004

>  <SCORE.INTER.norm>
-0.51037

>  <SCORE.INTRA>
-3.90751

>  <SCORE.INTRA.DIHEDRAL>
-2.88431

>  <SCORE.INTRA.DIHEDRAL.0>
5.0186

>  <SCORE.INTRA.POLAR>
0

>  <SCORE.INTRA.POLAR.0>
0

>  <SCORE.INTRA.REPUL>
0

>  <SCORE.INTRA.REPUL.0>
0

>  <SCORE.INTRA.SOLV>
0.243982

>  <SCORE.INTRA.SOLV.lig_0>
-16.1608

>  <SCORE.INTRA.VDW>
-2.58735

>  <SCORE.INTRA.VDW.0>
1.14169

>  <SCORE.INTRA.norm>
-0.325626

>  <SCORE.RESTR>
0

>  <SCORE.RESTR.CAVITY>
0

>  <SCORE.RESTR.norm>
0

>  <SCORE.SYSTEM>
0

>  <SCORE.SYSTEM.CONST>
0

>  <SCORE.SYSTEM.DIHEDRAL>
0

>  <SCORE.SYSTEM.SOLV>
0

>  <SCORE.SYSTEM.norm>
0

>  <SCORE.heavy>
12

>  <SCORE.norm>
-0.835996

>  <RMSD>
1.882

$$$$
ligand
 OpenBabel11021811493D
libRbt.so/2013.1/901 2013/11/27
 12 12  0  0  0  0  0  0  0  0999 V2000
   30.4486  -22.4450    5.3269 N   0  0  0  0  0  0  0  0  0  0  0  0
   31.1154  -18.5345    7.6236 O   0  0  0  0  0  0  0  0  0  0  0  0
   30.8058  -23.8602    5.5927 C   0  0  0  0  0  0  0  0  0  0  0  0
   30.4508  -19.5944    9.6253 O   0  0  0  0  0  0  0  0  0  0  0  0
   29.9483  -24.7486    4.6974 C   0  0  0  0  0  0  0  0  0  0  0  0
   32.7488  -19.8992    8.8121 O   0  0  0  0  0  0  0  0  0  0  0  0
   30.2782  -24.4931    3.2921 N   0  0  0  0  0  0  0  0  0  0  0  0
   31.2830  -23.4279    3.2476 C   0  0  0  0  0  0  0  0  0  0  0  0
   30.6526  -22.2016    3.8853 C   0  0  0  0  0  0  0  0  0  0  0  0
   31.1780  -21.4112    6.1637 C   0  0  0  0  0  0  0  0  0  0  0  0
   30.5034  -20.9948    7.4969 C   0  0  0  0  0  0  0  0  0  0  0  0
   31.1902  -19.7381    8.3982 S   0  0  0  0  0  0  0  0  0  0  0  0
  1  3  1  0  0  0  0
  1  9  1  0  0  0  0
  1 10  1  0  0  0  0
  2 12  1  0  0  0  0
  3  5  1  0  0  0  0
  4 12  2  0  0  0  0
  5  7  1  0  0  0  0
  6 12  2  0  0  0  0
  7  8  1  0  0  0  0
  8  9  1  0  0  0  0
 10 11  1  0  0  0  0
 11 12  1  0  0  0  0
M  END
>  <CHROM.1>
-90.83372884,-174.08254802,63.79316159,30.92956160,-21.51223023,6.46579098
1.93272326,-1.23322552,-1.98173197

>  <Name>
ligand

>  <RI>
0

>  <Rbt.Current_Directory>
/home/itssahil/PROJECTS/Mol_Feturizer/New_Systems/rnas/4E8N

>  <Rbt.Executable>
rbdock ($Id: //depot/dev/client3/rdock/2013.1/src/exe/rbdock.cxx#4 $)

>  <Rbt.Library>
libRbt.so (2013.1, Build901 2013/11/27)

>  <Rbt.Parameter_File>
/export/apps/rDock/src/rDock_2013.1_src/data/scripts/dock_solv.prm

>  <Rbt.Receptor>
prm/pocket_docking_3.prm

>  <SCORE>
-8.06232

>  <SCORE.INTER>
-4.42769

>  <SCORE.INTER.CONST>
1

>  <SCORE.INTER.POLAR>
0

>  <SCORE.INTER.ROT>
3

>  <SCORE.INTER.SOLV>
5.83129

>  <SCORE.INTER.VDW>
-10.4956

>  <SCORE.INTER.norm>
-0.368974

>  <SCORE.INTRA>
-3.63463

>  <SCORE.INTRA.DIHEDRAL>
-3.50511

>  <SCORE.INTRA.DIHEDRAL.0>
5.0186

>  <SCORE.INTRA.POLAR>
0

>  <SCORE.INTRA.POLAR.0>
0

>  <SCORE.INTRA.REPUL>
0

>  <SCORE.INTRA.REPUL.0>
0

>  <SCORE.INTRA.SOLV>
-0.102439

>  <SCORE.INTRA.SOLV.lig_0>
-16.1608

>  <SCORE.INTRA.VDW>
-1.83086

>  <SCORE.INTRA.VDW.0>
1.14169

>  <SCORE.INTRA.norm>
-0.302886

>  <SCORE.RESTR>
0

>  <SCORE.RESTR.CAVITY>
0

>  <SCORE.RESTR.norm>
0

>  <SCORE.SYSTEM>
0

>  <SCORE.SYSTEM.CONST>
0

>  <SCORE.SYSTEM.DIHEDRAL>
0

>  <SCORE.SYSTEM.SOLV>
0

>  <SCORE.SYSTEM.norm>
0

>  <SCORE.heavy>
12

>  <SCORE.norm>
-0.67186

>  <RMSD>
1.883

$$$$
ligand
 OpenBabel11021811493D
libRbt.so/2013.1/901 2013/11/27
 12 12  0  0  0  0  0  0  0  0999 V2000
   30.9091  -22.8903    5.1883 N   0  0  0  0  0  0  0  0  0  0  0  0
   30.0282  -20.7399    8.9766 O   0  0  0  0  0  0  0  0  0  0  0  0
   30.9487  -24.2261    4.5441 C   0  0  0  0  0  0  0  0  0  0  0  0
   31.9889  -19.7347    8.1297 O   0  0  0  0  0  0  0  0  0  0  0  0
   29.7372  -24.3530    3.6263 C   0  0  0  0  0  0  0  0  0  0  0  0
   30.0569  -20.0365    6.6427 O   0  0  0  0  0  0  0  0  0  0  0  0
   29.8346  -23.3670    2.5459 N   0  0  0  0  0  0  0  0  0  0  0  0
   31.0432  -22.5690    2.7667 C   0  0  0  0  0  0  0  0  0  0  0  0
   30.8770  -21.8815    4.1111 C   0  0  0  0  0  0  0  0  0  0  0  0
   32.0237  -22.5997    6.1754 C   0  0  0  0  0  0  0  0  0  0  0  0
   31.5938  -22.1981    7.6106 C   0  0  0  0  0  0  0  0  0  0  0  0
   30.9232  -20.6646    7.8597 S   0  0  0  0  0  0  0  0  0  0  0  0
  1  3  1  0  0  0  0
  1  9  1  0  0  0  0
  1 10  1  0  0  0  0
  2 12  1  0  0  0  0
  3  5  1  0  0  0  0
  4 12  2  0  0  0  0
  5  7  1  0  0  0  0
  6 12  2  0  0  0  0
  7  8  1  0  0  0  0
  8  9  1  0  0  0  0
 10 11  1  0  0  0  0
 11 12  1  0  0  0  0
M  END
>  <CHROM.1>
-123.75759031,-72.39551770,151.18847990,30.83490013,-21.91014218,5.95496006
-1.90288739,-1.28015118,0.68852683

>  <Name>
ligand

>  <RI>
0

>  <Rbt.Current_Directory>
/home/itssahil/PROJECTS/Mol_Feturizer/New_Systems/rnas/4E8N

>  <Rbt.Executable>
rbdock ($Id: //depot/dev/client3/rdock/2013.1/src/exe/rbdock.cxx#4 $)

>  <Rbt.Library>
libRbt.so (2013.1, Build901 2013/11/27)

>  <Rbt.Parameter_File>
/export/apps/rDock/src/rDock_2013.1_src/data/scripts/dock_solv.prm

>  <Rbt.Receptor>
prm/pocket_docking_3.prm

>  <SCORE>
-9.36127

>  <SCORE.INTER>
-7.05191

>  <SCORE.INTER.CONST>
1

>  <SCORE.INTER.POLAR>
0

>  <SCORE.INTER.ROT>
3

>  <SCORE.INTER.SOLV>
4.66282

>  <SCORE.INTER.VDW>
-11.8555

>  <SCORE.INTER.norm>
-0.58766

>  <SCORE.INTRA>
-2.30936

>  <SCORE.INTRA.DIHEDRAL>
-0.440674

>  <SCORE.INTRA.DIHEDRAL.0>
5.0186

>  <SCORE.INTRA.POLAR>
0

>  <SCORE.INTRA.POLAR.0>
0

>  <SCORE.INTRA.REPUL>
0

>  <SCORE.INTRA.REPUL.0>
0

>  <SCORE.INTRA.SOLV>
0.63065

>  <SCORE.INTRA.SOLV.lig_0>
-16.1608

>  <SCORE.INTRA.VDW>
-2.40435

>  <SCORE.INTRA.VDW.0>
1.14169

>  <SCORE.INTRA.norm>
-0.192447

>  <SCORE.RESTR>
0

>  <SCORE.RESTR.CAVITY>
0

>  <SCORE.RESTR.norm>
0

>  <SCORE.SYSTEM>
0

>  <SCORE.SYSTEM.CONST>
0

>  <SCORE.SYSTEM.DIHEDRAL>
0

>  <SCORE.SYSTEM.SOLV>
0

>  <SCORE.SYSTEM.norm>
0

>  <SCORE.heavy>
12

>  <SCORE.norm>
-0.780106

>  <RMSD>
1.891

$$$$
ligand
 OpenBabel11021811493D
libRbt.so/2013.1/901 2013/11/27
 12 12  0  0  0  0  0  0  0  0999 V2000
   30.9039  -22.9224    5.3229 N   0  0  0  0  0  0  0  0  0  0  0  0
   29.5374  -20.7271    7.2630 O   0  0  0  0  0  0  0  0  0  0  0  0
   31.0080  -24.1897    4.5587 C   0  0  0  0  0  0  0  0  0  0  0  0
   30.8816  -20.0972    9.0982 O   0  0  0  0  0  0  0  0  0  0  0  0
   29.7594  -24.3339    3.6948 C   0  0  0  0  0  0  0  0  0  0  0  0
   31.5081  -19.3553    6.8417 O   0  0  0  0  0  0  0  0  0  0  0  0
   29.7202  -23.2532    2.7050 N   0  0  0  0  0  0  0  0  0  0  0  0
   30.8753  -22.3826    2.9369 C   0  0  0  0  0  0  0  0  0  0  0  0
   30.7341  -21.8299    4.3449 C   0  0  0  0  0  0  0  0  0  0  0  0
   32.0475  -22.6296    6.2755 C   0  0  0  0  0  0  0  0  0  0  0  0
   31.6653  -22.0519    7.6634 C   0  0  0  0  0  0  0  0  0  0  0  0
   30.8803  -20.5544    7.7329 S   0  0  0  0  0  0  0  0  0  0  0  0
  1  3  1  0  0  0  0
  1  9  1  0  0  0  0
  1 10  1  0  0  0  0
  2 12  1  0  0  0  0
  3  5  1  0  0  0  0
  4 12  2  0  0  0  0
  5  7  1  0  0  0  0
  6 12  2  0  0  0  0
  7  8  1  0  0  0  0
  8  9  1  0  0  0  0
 10 11  1  0  0  0  0
 11 12  1  0  0  0  0
M  END
>  <CHROM.1>
-138.33933314,-61.96910481,71.90169431,30.79703743,-21.82830761,5.95645265
-1.90934287,-1.25102949,0.63981654

>  <Name>
ligand

>  <RI>
0

>  <Rbt.Current_Directory>
/home/itssahil/PROJECTS/Mol_Feturizer/New_Systems/rnas/4E8N

>  <Rbt.Executable>
rbdock ($Id: //depot/dev/client3/rdock/2013.1/src/exe/rbdock.cxx#4 $)

>  <Rbt.Library>
libRbt.so (2013.1, Build901 2013/11/27)

>  <Rbt.Parameter_File>
/export/apps/rDock/src/rDock_2013.1_src/data/scripts/dock_solv.prm

>  <Rbt.Receptor>
prm/pocket_docking_3.prm

>  <SCORE>
-10.0184

>  <SCORE.INTER>
-6.13942

>  <SCORE.INTER.CONST>
1

>  <SCORE.INTER.POLAR>
0

>  <SCORE.INTER.ROT>
3

>  <SCORE.INTER.SOLV>
5.17341

>  <SCORE.INTER.VDW>
-11.4174

>  <SCORE.INTER.norm>
-0.511618

>  <SCORE.INTRA>
-3.87895

>  <SCORE.INTRA.DIHEDRAL>
-2.84038

>  <SCORE.INTRA.DIHEDRAL.0>
5.0186

>  <SCORE.INTRA.POLAR>
0

>  <SCORE.INTRA.POLAR.0>
0

>  <SCORE.INTRA.REPUL>
0

>  <SCORE.INTRA.REPUL.0>
0

>  <SCORE.INTRA.SOLV>
0.254451

>  <SCORE.INTRA.SOLV.lig_0>
-16.1608

>  <SCORE.INTRA.VDW>
-2.58598

>  <SCORE.INTRA.VDW.0>
1.14169

>  <SCORE.INTRA.norm>
-0.323246

>  <SCORE.RESTR>
0

>  <SCORE.RESTR.CAVITY>
0

>  <SCORE.RESTR.norm>
0

>  <SCORE.SYSTEM>
0

>  <SCORE.SYSTEM.CONST>
0

>  <SCORE.SYSTEM.DIHEDRAL>
0

>  <SCORE.SYSTEM.SOLV>
0

>  <SCORE.SYSTEM.norm>
0

>  <SCORE.heavy>
12

>  <SCORE.norm>
-0.834864

>  <RMSD>
1.903

$$$$
ligand
 OpenBabel11021811493D
libRbt.so/2013.1/901 2013/11/27
 12 12  0  0  0  0  0  0  0  0999 V2000
   30.8853  -22.9168    5.0933 N   0  0  0  0  0  0  0  0  0  0  0  0
   30.0735  -20.7720    8.9109 O   0  0  0  0  0  0  0  0  0  0  0  0
   30.8955  -24.2626    4.4691 C   0  0  0  0  0  0  0  0  0  0  0  0
   32.0600  -19.8055    8.0793 O   0  0  0  0  0  0  0  0  0  0  0  0
   29.6770  -24.3797    3.5593 C   0  0  0  0  0  0  0  0  0  0  0  0
   30.1181  -20.0253    6.5908 O   0  0  0  0  0  0  0  0  0  0  0  0
   29.7881  -23.4121    2.4636 N   0  0  0  0  0  0  0  0  0  0  0  0
   31.0131  -22.6347    2.6664 C   0  0  0  0  0  0  0  0  0  0  0  0
   30.8673  -21.9239    4.0011 C   0  0  0  0  0  0  0  0  0  0  0  0
   32.0104  -22.6332    6.0704 C   0  0  0  0  0  0  0  0  0  0  0  0
   31.5960  -22.2467    7.5142 C   0  0  0  0  0  0  0  0  0  0  0  0
   30.9685  -20.7002    7.7939 S   0  0  0  0  0  0  0  0  0  0  0  0
  1  3  1  0  0  0  0
  1  9  1  0  0  0  0
  1 10  1  0  0  0  0
  2 12  1  0  0  0  0
  3  5  1  0  0  0  0
  4 12  2  0  0  0  0
  5  7  1  0  0  0  0
  6 12  2  0  0  0  0
  7  8  1  0  0  0  0
  8  9  1  0  0  0  0
 10 11  1  0  0  0  0
 11 12  1  0  0  0  0
M  END
>  <CHROM.1>
-121.83018090,-74.22917602,151.09612208,30.84012968,-21.94741419,5.87666770
-2.00141690,-1.30536181,0.59198377

>  <Name>
ligand

>  <RI>
0

>  <Rbt.Current_Directory>
/home/itssahil/PROJECTS/Mol_Feturizer/New_Systems/rnas/4E8N

>  <Rbt.Executable>
rbdock ($Id: //depot/dev/client3/rdock/2013.1/src/exe/rbdock.cxx#4 $)

>  <Rbt.Library>
libRbt.so (2013.1, Build901 2013/11/27)

>  <Rbt.Parameter_File>
/export/apps/rDock/src/rDock_2013.1_src/data/scripts/dock_solv.prm

>  <Rbt.Receptor>
prm/pocket_docking_4.prm

>  <SCORE>
-9.33829

>  <SCORE.INTER>
-7.12755

>  <SCORE.INTER.CONST>
1

>  <SCORE.INTER.POLAR>
0

>  <SCORE.INTER.ROT>
3

>  <SCORE.INTER.SOLV>
4.69835

>  <SCORE.INTER.VDW>
-11.9178

>  <SCORE.INTER.norm>
-0.593962

>  <SCORE.INTRA>
-2.21074

>  <SCORE.INTRA.DIHEDRAL>
-0.235471

>  <SCORE.INTRA.DIHEDRAL.0>
5.0186

>  <SCORE.INTRA.POLAR>
0

>  <SCORE.INTRA.POLAR.0>
0

>  <SCORE.INTRA.REPUL>
0

>  <SCORE.INTRA.REPUL.0>
0

>  <SCORE.INTRA.SOLV>
0.610599

>  <SCORE.INTRA.SOLV.lig_0>
-16.1608

>  <SCORE.INTRA.VDW>
-2.3983

>  <SCORE.INTRA.VDW.0>
1.14169

>  <SCORE.INTRA.norm>
-0.184228

>  <SCORE.RESTR>
0

>  <SCORE.RESTR.CAVITY>
0

>  <SCORE.RESTR.norm>
0

>  <SCORE.SYSTEM>
0

>  <SCORE.SYSTEM.CONST>
0

>  <SCORE.SYSTEM.DIHEDRAL>
0

>  <SCORE.SYSTEM.SOLV>
0

>  <SCORE.SYSTEM.norm>
0

>  <SCORE.heavy>
12

>  <SCORE.norm>
-0.778191

>  <RMSD>
1.927

$$$$
ligand
 OpenBabel11021811493D
libRbt.so/2013.1/901 2013/11/27
 12 12  0  0  0  0  0  0  0  0999 V2000
   31.2109  -22.8905    5.6830 N   0  0  0  0  0  0  0  0  0  0  0  0
   30.2169  -20.1417    6.6316 O   0  0  0  0  0  0  0  0  0  0  0  0
   30.4143  -24.0693    5.2626 C   0  0  0  0  0  0  0  0  0  0  0  0
   29.8933  -20.7910    8.8778 O   0  0  0  0  0  0  0  0  0  0  0  0
   30.0094  -23.8805    3.8043 C   0  0  0  0  0  0  0  0  0  0  0  0
   31.3259  -18.8580    8.3822 O   0  0  0  0  0  0  0  0  0  0  0  0
   31.2079  -23.8660    2.9603 N   0  0  0  0  0  0  0  0  0  0  0  0
   32.3792  -23.9841    3.8324 C   0  0  0  0  0  0  0  0  0  0  0  0
   32.3590  -22.7823    4.7615 C   0  0  0  0  0  0  0  0  0  0  0  0
   31.6691  -22.8843    7.1291 C   0  0  0  0  0  0  0  0  0  0  0  0
   32.0531  -21.5071    7.7305 C   0  0  0  0  0  0  0  0  0  0  0  0
   30.8489  -20.3310    7.9039 S   0  0  0  0  0  0  0  0  0  0  0  0
  1  3  1  0  0  0  0
  1  9  1  0  0  0  0
  1 10  1  0  0  0  0
  2 12  1  0  0  0  0
  3  5  1  0  0  0  0
  4 12  2  0  0  0  0
  5  7  1  0  0  0  0
  6 12  2  0  0  0  0
  7  8  1  0  0  0  0
  8  9  1  0  0  0  0
 10 11  1  0  0  0  0
 11 12  1  0  0  0  0
M  END
>  <CHROM.1>
-159.37443761,65.12395277,-54.16151771,31.08559803,-21.92432116,6.30941348
-1.48893374,0.01094847,0.83582377

>  <Name>
ligand

>  <RI>
0

>  <Rbt.Current_Directory>
/home/itssahil/PROJECTS/Mol_Feturizer/New_Systems/rnas/4E8N

>  <Rbt.Executable>
rbdock ($Id: //depot/dev/client3/rdock/2013.1/src/exe/rbdock.cxx#4 $)

>  <Rbt.Library>
libRbt.so (2013.1, Build901 2013/11/27)

>  <Rbt.Parameter_File>
/export/apps/rDock/src/rDock_2013.1_src/data/scripts/dock_solv.prm

>  <Rbt.Receptor>
prm/pocket_docking_3.prm

>  <SCORE>
-10.7754

>  <SCORE.INTER>
-6.59706

>  <SCORE.INTER.CONST>
1

>  <SCORE.INTER.POLAR>
0

>  <SCORE.INTER.ROT>
3

>  <SCORE.INTER.SOLV>
5.21326

>  <SCORE.INTER.VDW>
-11.7358

>  <SCORE.INTER.norm>
-0.549755

>  <SCORE.INTRA>
-4.17833

>  <SCORE.INTRA.DIHEDRAL>
-4.27018

>  <SCORE.INTRA.DIHEDRAL.0>
5.0186

>  <SCORE.INTRA.POLAR>
0

>  <SCORE.INTRA.POLAR.0>
0

>  <SCORE.INTRA.REPUL>
0

>  <SCORE.INTRA.REPUL.0>
0

>  <SCORE.INTRA.SOLV>
0.0604166

>  <SCORE.INTRA.SOLV.lig_0>
-16.1608

>  <SCORE.INTRA.VDW>
-2.07345

>  <SCORE.INTRA.VDW.0>
1.14169

>  <SCORE.INTRA.norm>
-0.348194

>  <SCORE.RESTR>
0

>  <SCORE.RESTR.CAVITY>
0

>  <SCORE.RESTR.norm>
0

>  <SCORE.SYSTEM>
0

>  <SCORE.SYSTEM.CONST>
0

>  <SCORE.SYSTEM.DIHEDRAL>
0

>  <SCORE.SYSTEM.SOLV>
0

>  <SCORE.SYSTEM.norm>
0

>  <SCORE.heavy>
12

>  <SCORE.norm>
-0.897948

>  <RMSD>
1.956

$$$$
ligand
 OpenBabel11021811493D
libRbt.so/2013.1/901 2013/11/27
 12 12  0  0  0  0  0  0  0  0999 V2000
   31.0391  -22.9054    5.1572 N   0  0  0  0  0  0  0  0  0  0  0  0
   29.9753  -20.4486    6.6866 O   0  0  0  0  0  0  0  0  0  0  0  0
   30.7757  -24.3407    4.8894 C   0  0  0  0  0  0  0  0  0  0  0  0
   30.0666  -20.6891    9.0330 O   0  0  0  0  0  0  0  0  0  0  0  0
   29.6807  -24.4392    3.8323 C   0  0  0  0  0  0  0  0  0  0  0  0
   31.8257  -19.4121    7.8885 O   0  0  0  0  0  0  0  0  0  0  0  0
   30.1609  -23.8624    2.5731 N   0  0  0  0  0  0  0  0  0  0  0  0
   31.5126  -23.3438    2.7973 C   0  0  0  0  0  0  0  0  0  0  0  0
   31.4016  -22.2760    3.8721 C   0  0  0  0  0  0  0  0  0  0  0  0
   32.0795  -22.6121    6.2215 C   0  0  0  0  0  0  0  0  0  0  0  0
   31.5470  -22.2090    7.6214 C   0  0  0  0  0  0  0  0  0  0  0  0
   30.8298  -20.6883    7.8119 S   0  0  0  0  0  0  0  0  0  0  0  0
  1  3  1  0  0  0  0
  1  9  1  0  0  0  0
  1 10  1  0  0  0  0
  2 12  1  0  0  0  0
  3  5  1  0  0  0  0
  4 12  2  0  0  0  0
  5  7  1  0  0  0  0
  6 12  2  0  0  0  0
  7  8  1  0  0  0  0
  8  9  1  0  0  0  0
 10 11  1  0  0  0  0
 11 12  1  0  0  0  0
M  END
>  <CHROM.1>
-101.34052887,-71.15369650,42.69269546,30.89181299,-22.05616634,5.96414573
1.63664565,-1.02727009,-2.13899898

>  <Name>
ligand

>  <RI>
0

>  <Rbt.Current_Directory>
/home/itssahil/PROJECTS/Mol_Feturizer/New_Systems/rnas/4E8N

>  <Rbt.Executable>
rbdock ($Id: //depot/dev/client3/rdock/2013.1/src/exe/rbdock.cxx#4 $)

>  <Rbt.Library>
libRbt.so (2013.1, Build901 2013/11/27)

>  <Rbt.Parameter_File>
/export/apps/rDock/src/rDock_2013.1_src/data/scripts/dock_solv.prm

>  <Rbt.Receptor>
prm/pocket_docking_3.prm

>  <SCORE>
-9.18654

>  <SCORE.INTER>
-5.91318

>  <SCORE.INTER.CONST>
1

>  <SCORE.INTER.POLAR>
0

>  <SCORE.INTER.ROT>
3

>  <SCORE.INTER.SOLV>
5.20186

>  <SCORE.INTER.VDW>
-11.2761

>  <SCORE.INTER.norm>
-0.492765

>  <SCORE.INTRA>
-3.27336

>  <SCORE.INTRA.DIHEDRAL>
-1.94819

>  <SCORE.INTRA.DIHEDRAL.0>
5.0186

>  <SCORE.INTRA.POLAR>
0

>  <SCORE.INTRA.POLAR.0>
0

>  <SCORE.INTRA.REPUL>
0

>  <SCORE.INTRA.REPUL.0>
0

>  <SCORE.INTRA.SOLV>
-0.0364307

>  <SCORE.INTRA.SOLV.lig_0>
-16.1608

>  <SCORE.INTRA.VDW>
-2.28105

>  <SCORE.INTRA.VDW.0>
1.14169

>  <SCORE.INTRA.norm>
-0.27278

>  <SCORE.RESTR>
0

>  <SCORE.RESTR.CAVITY>
0

>  <SCORE.RESTR.norm>
0

>  <SCORE.SYSTEM>
0

>  <SCORE.SYSTEM.CONST>
0

>  <SCORE.SYSTEM.DIHEDRAL>
0

>  <SCORE.SYSTEM.SOLV>
0

>  <SCORE.SYSTEM.norm>
0

>  <SCORE.heavy>
12

>  <SCORE.norm>
-0.765545

>  <RMSD>
1.969

$$$$
ligand
 OpenBabel11021811493D
libRbt.so/2013.1/901 2013/11/27
 12 12  0  0  0  0  0  0  0  0999 V2000
   31.2837  -22.7810    4.8322 N   0  0  0  0  0  0  0  0  0  0  0  0
   31.9847  -20.0112    6.7519 O   0  0  0  0  0  0  0  0  0  0  0  0
   30.9204  -21.3947    4.4488 C   0  0  0  0  0  0  0  0  0  0  0  0
   30.4930  -20.8609    8.3720 O   0  0  0  0  0  0  0  0  0  0  0  0
   31.1964  -21.2201    2.9590 C   0  0  0  0  0  0  0  0  0  0  0  0
   32.8111  -20.3666    9.0176 O   0  0  0  0  0  0  0  0  0  0  0  0
   30.3190  -22.1079    2.1901 N   0  0  0  0  0  0  0  0  0  0  0  0
   29.5225  -22.8915    3.1376 C   0  0  0  0  0  0  0  0  0  0  0  0
   30.5016  -23.6949    3.9765 C   0  0  0  0  0  0  0  0  0  0  0  0
   31.1131  -23.1270    6.2993 C   0  0  0  0  0  0  0  0  0  0  0  0
   32.1255  -22.4887    7.2860 C   0  0  0  0  0  0  0  0  0  0  0  0
   31.8335  -20.9201    7.8496 S   0  0  0  0  0  0  0  0  0  0  0  0
  1  3  1  0  0  0  0
  1  9  1  0  0  0  0
  1 10  1  0  0  0  0
  2 12  1  0  0  0  0
  3  5  1  0  0  0  0
  4 12  2  0  0  0  0
  5  7  1  0  0  0  0
  6 12  2  0  0  0  0
  7  8  1  0  0  0  0
  8  9  1  0  0  0  0
 10 11  1  0  0  0  0
 11 12  1  0  0  0  0
M  END
>  <CHROM.1>
-71.49630818,83.76033803,-68.23539108,31.25526451,-21.69393376,5.88102313
2.58825115,-1.24101263,-0.90509328

>  <Name>
ligand

>  <RI>
0

>  <Rbt.Current_Directory>
/home/itssahil/PROJECTS/Mol_Feturizer/New_Systems/rnas/4E8N

>  <Rbt.Executable>
rbdock ($Id: //depot/dev/client3/rdock/2013.1/src/exe/rbdock.cxx#4 $)

>  <Rbt.Library>
libRbt.so (2013.1, Build901 2013/11/27)

>  <Rbt.Parameter_File>
/export/apps/rDock/src/rDock_2013.1_src/data/scripts/dock_solv.prm

>  <Rbt.Receptor>
prm/pocket_docking_3.prm

>  <SCORE>
-9.13301

>  <SCORE.INTER>
-5.85019

>  <SCORE.INTER.CONST>
1

>  <SCORE.INTER.POLAR>
0

>  <SCORE.INTER.ROT>
3

>  <SCORE.INTER.SOLV>
6.70088

>  <SCORE.INTER.VDW>
-11.7338

>  <SCORE.INTER.norm>
-0.487516

>  <SCORE.INTRA>
-3.28283

>  <SCORE.INTRA.DIHEDRAL>
-2.72217

>  <SCORE.INTRA.DIHEDRAL.0>
5.0186

>  <SCORE.INTRA.POLAR>
0

>  <SCORE.INTRA.POLAR.0>
0

>  <SCORE.INTRA.REPUL>
0

>  <SCORE.INTRA.REPUL.0>
0

>  <SCORE.INTRA.SOLV>
0.00611611

>  <SCORE.INTRA.SOLV.lig_0>
-16.1608

>  <SCORE.INTRA.VDW>
-1.9248

>  <SCORE.INTRA.VDW.0>
1.14169

>  <SCORE.INTRA.norm>
-0.273569

>  <SCORE.RESTR>
0

>  <SCORE.RESTR.CAVITY>
0

>  <SCORE.RESTR.norm>
0

>  <SCORE.SYSTEM>
0

>  <SCORE.SYSTEM.CONST>
0

>  <SCORE.SYSTEM.DIHEDRAL>
0

>  <SCORE.SYSTEM.SOLV>
0

>  <SCORE.SYSTEM.norm>
0

>  <SCORE.heavy>
12

>  <SCORE.norm>
-0.761085

>  <RMSD>
1.990

$$$$
ligand
 OpenBabel11021811493D
libRbt.so/2013.1/901 2013/11/27
 12 12  0  0  0  0  0  0  0  0999 V2000
   30.7569  -23.1710    4.8228 N   0  0  0  0  0  0  0  0  0  0  0  0
   32.3191  -20.8147    8.4681 O   0  0  0  0  0  0  0  0  0  0  0  0
   30.2971  -24.5809    4.7800 C   0  0  0  0  0  0  0  0  0  0  0  0
   31.1229  -18.9213    7.7224 O   0  0  0  0  0  0  0  0  0  0  0  0
   30.0702  -24.9683    3.3224 C   0  0  0  0  0  0  0  0  0  0  0  0
   29.9280  -20.6971    8.9279 O   0  0  0  0  0  0  0  0  0  0  0  0
   31.3444  -24.9241    2.5988 N   0  0  0  0  0  0  0  0  0  0  0  0
   32.3795  -24.4669    3.5292 C   0  0  0  0  0  0  0  0  0  0  0  0
   31.9732  -23.0780    3.9916 C   0  0  0  0  0  0  0  0  0  0  0  0
   30.9956  -22.5956    6.2059 C   0  0  0  0  0  0  0  0  0  0  0  0
   30.9730  -21.0496    6.3289 C   0  0  0  0  0  0  0  0  0  0  0  0
   31.1029  -20.3539    7.8659 S   0  0  0  0  0  0  0  0  0  0  0  0
  1  3  1  0  0  0  0
  1  9  1  0  0  0  0
  1 10  1  0  0  0  0
  2 12  1  0  0  0  0
  3  5  1  0  0  0  0
  4 12  2  0  0  0  0
  5  7  1  0  0  0  0
  6 12  2  0  0  0  0
  7  8  1  0  0  0  0
  8  9  1  0  0  0  0
 10 11  1  0  0  0  0
 11 12  1  0  0  0  0
M  END
>  <CHROM.1>
-158.71770880,174.92073642,57.21137801,31.10557284,-22.19819036,5.99783979
1.55874575,-0.51290300,-2.33258873

>  <Name>
ligand

>  <RI>
0

>  <Rbt.Current_Directory>
/home/itssahil/PROJECTS/Mol_Feturizer/New_Systems/rnas/4E8N

>  <Rbt.Executable>
rbdock ($Id: //depot/dev/client3/rdock/2013.1/src/exe/rbdock.cxx#4 $)

>  <Rbt.Library>
libRbt.so (2013.1, Build901 2013/11/27)

>  <Rbt.Parameter_File>
/export/apps/rDock/src/rDock_2013.1_src/data/scripts/dock_solv.prm

>  <Rbt.Receptor>
prm/pocket_docking_6.prm

>  <SCORE>
-9.37943

>  <SCORE.INTER>
-5.53824

>  <SCORE.INTER.CONST>
1

>  <SCORE.INTER.POLAR>
0

>  <SCORE.INTER.ROT>
3

>  <SCORE.INTER.SOLV>
4.95445

>  <SCORE.INTER.VDW>
-10.9436

>  <SCORE.INTER.norm>
-0.46152

>  <SCORE.INTRA>
-3.8412

>  <SCORE.INTRA.DIHEDRAL>
-4.31184

>  <SCORE.INTRA.DIHEDRAL.0>
5.0186

>  <SCORE.INTRA.POLAR>
0

>  <SCORE.INTRA.POLAR.0>
0

>  <SCORE.INTRA.REPUL>
0

>  <SCORE.INTRA.REPUL.0>
0

>  <SCORE.INTRA.SOLV>
-0.113836

>  <SCORE.INTRA.SOLV.lig_0>
-16.1608

>  <SCORE.INTRA.VDW>
-1.62836

>  <SCORE.INTRA.VDW.0>
1.14169

>  <SCORE.INTRA.norm>
-0.3201

>  <SCORE.RESTR>
0

>  <SCORE.RESTR.CAVITY>
0

>  <SCORE.RESTR.norm>
0

>  <SCORE.SYSTEM>
0

>  <SCORE.SYSTEM.CONST>
0

>  <SCORE.SYSTEM.DIHEDRAL>
0

>  <SCORE.SYSTEM.SOLV>
0

>  <SCORE.SYSTEM.norm>
0

>  <SCORE.heavy>
12

>  <SCORE.norm>
-0.78162

>  <RMSD>
2.003

$$$$
ligand
 OpenBabel11021811493D
libRbt.so/2013.1/901 2013/11/27
 12 12  0  0  0  0  0  0  0  0999 V2000
   31.3202  -22.9160    4.8613 N   0  0  0  0  0  0  0  0  0  0  0  0
   30.4191  -20.9421    8.4156 O   0  0  0  0  0  0  0  0  0  0  0  0
   30.8259  -21.5926    4.4083 C   0  0  0  0  0  0  0  0  0  0  0  0
   32.7035  -20.4530    8.7539 O   0  0  0  0  0  0  0  0  0  0  0  0
   31.1099  -21.4586    2.9158 C   0  0  0  0  0  0  0  0  0  0  0  0
   31.6267  -19.7635    6.6563 O   0  0  0  0  0  0  0  0  0  0  0  0
   30.3407  -22.4650    2.1777 N   0  0  0  0  0  0  0  0  0  0  0  0
   29.6103  -23.2817    3.1502 C   0  0  0  0  0  0  0  0  0  0  0  0
   30.6501  -23.9425    4.0390 C   0  0  0  0  0  0  0  0  0  0  0  0
   31.1588  -23.2105    6.3406 C   0  0  0  0  0  0  0  0  0  0  0  0
   32.1184  -22.4667    7.3060 C   0  0  0  0  0  0  0  0  0  0  0  0
   31.7159  -20.9013    7.8068 S   0  0  0  0  0  0  0  0  0  0  0  0
  1  3  1  0  0  0  0
  1  9  1  0  0  0  0
  1 10  1  0  0  0  0
  2 12  1  0  0  0  0
  3  5  1  0  0  0  0
  4 12  2  0  0  0  0
  5  7  1  0  0  0  0
  6 12  2  0  0  0  0
  7  8  1  0  0  0  0
  8  9  1  0  0  0  0
 10 11  1  0  0  0  0
 11 12  1  0  0  0  0
M  END
>  <CHROM.1>
-73.64096524,84.06680589,56.43345205,31.20185491,-21.80285451,5.85265925
2.91058997,-1.31856157,-0.62419216

>  <Name>
ligand

>  <RI>
0

>  <Rbt.Current_Directory>
/home/itssahil/PROJECTS/Mol_Feturizer/New_Systems/rnas/4E8N

>  <Rbt.Executable>
rbdock ($Id: //depot/dev/client3/rdock/2013.1/src/exe/rbdock.cxx#4 $)

>  <Rbt.Library>
libRbt.so (2013.1, Build901 2013/11/27)

>  <Rbt.Parameter_File>
/export/apps/rDock/src/rDock_2013.1_src/data/scripts/dock_solv.prm

>  <Rbt.Receptor>
prm/pocket_docking_3.prm

>  <SCORE>
-9.71378

>  <SCORE.INTER>
-6.41287

>  <SCORE.INTER.CONST>
1

>  <SCORE.INTER.POLAR>
0

>  <SCORE.INTER.ROT>
3

>  <SCORE.INTER.SOLV>
5.21316

>  <SCORE.INTER.VDW>
-11.613

>  <SCORE.INTER.norm>
-0.534406

>  <SCORE.INTRA>
-3.3009

>  <SCORE.INTRA.DIHEDRAL>
-2.71808

>  <SCORE.INTRA.DIHEDRAL.0>
5.0186

>  <SCORE.INTRA.POLAR>
0

>  <SCORE.INTRA.POLAR.0>
0

>  <SCORE.INTRA.REPUL>
0

>  <SCORE.INTRA.REPUL.0>
0

>  <SCORE.INTRA.SOLV>
0.40905

>  <SCORE.INTRA.SOLV.lig_0>
-16.1608

>  <SCORE.INTRA.VDW>
-2.14639

>  <SCORE.INTRA.VDW.0>
1.14169

>  <SCORE.INTRA.norm>
-0.275075

>  <SCORE.RESTR>
0

>  <SCORE.RESTR.CAVITY>
0

>  <SCORE.RESTR.norm>
0

>  <SCORE.SYSTEM>
0

>  <SCORE.SYSTEM.CONST>
0

>  <SCORE.SYSTEM.DIHEDRAL>
0

>  <SCORE.SYSTEM.SOLV>
0

>  <SCORE.SYSTEM.norm>
0

>  <SCORE.heavy>
12

>  <SCORE.norm>
-0.809481

>  <RMSD>
2.020

$$$$
ligand
 OpenBabel11021811493D
libRbt.so/2013.1/901 2013/11/27
 12 12  0  0  0  0  0  0  0  0999 V2000
   31.3245  -22.8954    4.8440 N   0  0  0  0  0  0  0  0  0  0  0  0
   30.3948  -20.9334    8.3548 O   0  0  0  0  0  0  0  0  0  0  0  0
   30.7832  -21.5841    4.4102 C   0  0  0  0  0  0  0  0  0  0  0  0
   32.6714  -20.4489    8.7479 O   0  0  0  0  0  0  0  0  0  0  0  0
   31.0629  -21.4179    2.9201 C   0  0  0  0  0  0  0  0  0  0  0  0
   31.6491  -19.7654    6.6212 O   0  0  0  0  0  0  0  0  0  0  0  0
   30.3307  -22.4401    2.1665 N   0  0  0  0  0  0  0  0  0  0  0  0
   29.6296  -23.2969    3.1259 C   0  0  0  0  0  0  0  0  0  0  0  0
   30.6920  -23.9330    4.0060 C   0  0  0  0  0  0  0  0  0  0  0  0
   31.1730  -23.2175    6.3186 C   0  0  0  0  0  0  0  0  0  0  0  0
   32.1170  -22.4672    7.2943 C   0  0  0  0  0  0  0  0  0  0  0  0
   31.7065  -20.8986    7.7783 S   0  0  0  0  0  0  0  0  0  0  0  0
  1  3  1  0  0  0  0
  1  9  1  0  0  0  0
  1 10  1  0  0  0  0
  2 12  1  0  0  0  0
  3  5  1  0  0  0  0
  4 12  2  0  0  0  0
  5  7  1  0  0  0  0
  6 12  2  0  0  0  0
  7  8  1  0  0  0  0
  8  9  1  0  0  0  0
 10 11  1  0  0  0  0
 11 12  1  0  0  0  0
M  END
>  <CHROM.1>
-74.38135554,81.94427307,55.87899821,31.19591270,-21.79554635,5.83116657
2.99953561,-1.32303103,-0.53177100

>  <Name>
ligand

>  <RI>
0

>  <Rbt.Current_Directory>
/home/itssahil/PROJECTS/Mol_Feturizer/New_Systems/rnas/4E8N

>  <Rbt.Executable>
rbdock ($Id: //depot/dev/client3/rdock/2013.1/src/exe/rbdock.cxx#4 $)

>  <Rbt.Library>
libRbt.so (2013.1, Build901 2013/11/27)

>  <Rbt.Parameter_File>
/export/apps/rDock/src/rDock_2013.1_src/data/scripts/dock_solv.prm

>  <Rbt.Receptor>
prm/pocket_docking_3.prm

>  <SCORE>
-9.71571

>  <SCORE.INTER>
-6.29544

>  <SCORE.INTER.CONST>
1

>  <SCORE.INTER.POLAR>
0

>  <SCORE.INTER.ROT>
3

>  <SCORE.INTER.SOLV>
5.22576

>  <SCORE.INTER.VDW>
-11.5389

>  <SCORE.INTER.norm>
-0.52462

>  <SCORE.INTRA>
-3.42026

>  <SCORE.INTRA.DIHEDRAL>
-2.96102

>  <SCORE.INTRA.DIHEDRAL.0>
5.0186

>  <SCORE.INTRA.POLAR>
0

>  <SCORE.INTRA.POLAR.0>
0

>  <SCORE.INTRA.REPUL>
0

>  <SCORE.INTRA.REPUL.0>
0

>  <SCORE.INTRA.SOLV>
0.422065

>  <SCORE.INTRA.SOLV.lig_0>
-16.1608

>  <SCORE.INTRA.VDW>
-2.15079

>  <SCORE.INTRA.VDW.0>
1.14169

>  <SCORE.INTRA.norm>
-0.285022

>  <SCORE.RESTR>
0

>  <SCORE.RESTR.CAVITY>
0

>  <SCORE.RESTR.norm>
0

>  <SCORE.SYSTEM>
0

>  <SCORE.SYSTEM.CONST>
0

>  <SCORE.SYSTEM.DIHEDRAL>
0

>  <SCORE.SYSTEM.SOLV>
0

>  <SCORE.SYSTEM.norm>
0

>  <SCORE.heavy>
12

>  <SCORE.norm>
-0.809642

>  <RMSD>
2.024

$$$$
ligand
 OpenBabel11021811493D
libRbt.so/2013.1/901 2013/11/27
 12 12  0  0  0  0  0  0  0  0999 V2000
   31.3351  -22.8780    4.8619 N   0  0  0  0  0  0  0  0  0  0  0  0
   30.4226  -20.9547    8.4162 O   0  0  0  0  0  0  0  0  0  0  0  0
   30.7517  -21.5815    4.4380 C   0  0  0  0  0  0  0  0  0  0  0  0
   32.7040  -20.4529    8.7557 O   0  0  0  0  0  0  0  0  0  0  0  0
   31.0315  -21.3919    2.9508 C   0  0  0  0  0  0  0  0  0  0  0  0
   31.6269  -19.7775    6.6536 O   0  0  0  0  0  0  0  0  0  0  0  0
   30.3370  -22.4309    2.1845 N   0  0  0  0  0  0  0  0  0  0  0  0
   29.6614  -23.3198    3.1330 C   0  0  0  0  0  0  0  0  0  0  0  0
   30.7411  -23.9283    4.0115 C   0  0  0  0  0  0  0  0  0  0  0  0
   31.1888  -23.2189    6.3327 C   0  0  0  0  0  0  0  0  0  0  0  0
   32.1310  -22.4756    7.3154 C   0  0  0  0  0  0  0  0  0  0  0  0
   31.7200  -20.9101    7.8090 S   0  0  0  0  0  0  0  0  0  0  0  0
  1  3  1  0  0  0  0
  1  9  1  0  0  0  0
  1 10  1  0  0  0  0
  2 12  1  0  0  0  0
  3  5  1  0  0  0  0
  4 12  2  0  0  0  0
  5  7  1  0  0  0  0
  6 12  2  0  0  0  0
  7  8  1  0  0  0  0
  8  9  1  0  0  0  0
 10 11  1  0  0  0  0
 11 12  1  0  0  0  0
M  END
>  <CHROM.1>
-76.04471517,81.41610692,57.46586956,31.20605289,-21.79858646,5.85511864
3.07217621,-1.32455744,-0.45269081

>  <Name>
ligand

>  <RI>
0

>  <Rbt.Current_Directory>
/home/itssahil/PROJECTS/Mol_Feturizer/New_Systems/rnas/4E8N

>  <Rbt.Executable>
rbdock ($Id: //depot/dev/client3/rdock/2013.1/src/exe/rbdock.cxx#4 $)

>  <Rbt.Library>
libRbt.so (2013.1, Build901 2013/11/27)

>  <Rbt.Parameter_File>
/export/apps/rDock/src/rDock_2013.1_src/data/scripts/dock_solv.prm

>  <Rbt.Receptor>
prm/pocket_docking_3.prm

>  <SCORE>
-9.70308

>  <SCORE.INTER>
-6.26076

>  <SCORE.INTER.CONST>
1

>  <SCORE.INTER.POLAR>
0

>  <SCORE.INTER.ROT>
3

>  <SCORE.INTER.SOLV>
5.20969

>  <SCORE.INTER.VDW>
-11.5104

>  <SCORE.INTER.norm>
-0.52173

>  <SCORE.INTRA>
-3.44233

>  <SCORE.INTRA.DIHEDRAL>
-2.97442

>  <SCORE.INTRA.DIHEDRAL.0>
5.0186

>  <SCORE.INTRA.POLAR>
0

>  <SCORE.INTRA.POLAR.0>
0

>  <SCORE.INTRA.REPUL>
0

>  <SCORE.INTRA.REPUL.0>
0

>  <SCORE.INTRA.SOLV>
0.434115

>  <SCORE.INTRA.SOLV.lig_0>
-16.1608

>  <SCORE.INTRA.VDW>
-2.17218

>  <SCORE.INTRA.VDW.0>
1.14169

>  <SCORE.INTRA.norm>
-0.286861

>  <SCORE.RESTR>
0

>  <SCORE.RESTR.CAVITY>
0

>  <SCORE.RESTR.norm>
0

>  <SCORE.SYSTEM>
0

>  <SCORE.SYSTEM.CONST>
0

>  <SCORE.SYSTEM.DIHEDRAL>
0

>  <SCORE.SYSTEM.SOLV>
0

>  <SCORE.SYSTEM.norm>
0

>  <SCORE.heavy>
12

>  <SCORE.norm>
-0.80859

>  <RMSD>
2.029

$$$$
ligand
 OpenBabel11021811493D
libRbt.so/2013.1/901 2013/11/27
 12 12  0  0  0  0  0  0  0  0999 V2000
   31.6653  -22.7412    5.1699 N   0  0  0  0  0  0  0  0  0  0  0  0
   30.0804  -20.5325    6.6416 O   0  0  0  0  0  0  0  0  0  0  0  0
   30.7463  -23.9039    5.2362 C   0  0  0  0  0  0  0  0  0  0  0  0
   30.0369  -20.7205    8.9941 O   0  0  0  0  0  0  0  0  0  0  0  0
   29.9760  -23.9833    3.9223 C   0  0  0  0  0  0  0  0  0  0  0  0
   31.7746  -19.3467    7.9323 O   0  0  0  0  0  0  0  0  0  0  0  0
   30.9078  -24.2517    2.8228 N   0  0  0  0  0  0  0  0  0  0  0  0
   32.2636  -24.2938    3.3762 C   0  0  0  0  0  0  0  0  0  0  0  0
   32.5311  -22.9298    3.9893 C   0  0  0  0  0  0  0  0  0  0  0  0
   32.4903  -22.4793    6.4156 C   0  0  0  0  0  0  0  0  0  0  0  0
   31.7052  -22.1608    7.7149 C   0  0  0  0  0  0  0  0  0  0  0  0
   30.8751  -20.6903    7.8237 S   0  0  0  0  0  0  0  0  0  0  0  0
  1  3  1  0  0  0  0
  1  9  1  0  0  0  0
  1 10  1  0  0  0  0
  2 12  1  0  0  0  0
  3  5  1  0  0  0  0
  4 12  2  0  0  0  0
  5  7  1  0  0  0  0
  6 12  2  0  0  0  0
  7  8  1  0  0  0  0
  8  9  1  0  0  0  0
 10 11  1  0  0  0  0
 11 12  1  0  0  0  0
M  END
>  <CHROM.1>
-61.40154853,-69.13362872,49.65795683,31.19959908,-22.11575085,6.08554095
-1.48002891,0.14418038,0.88113453

>  <Name>
ligand

>  <RI>
0

>  <Rbt.Current_Directory>
/home/itssahil/PROJECTS/Mol_Feturizer/New_Systems/rnas/4E8N

>  <Rbt.Executable>
rbdock ($Id: //depot/dev/client3/rdock/2013.1/src/exe/rbdock.cxx#4 $)

>  <Rbt.Library>
libRbt.so (2013.1, Build901 2013/11/27)

>  <Rbt.Parameter_File>
/export/apps/rDock/src/rDock_2013.1_src/data/scripts/dock_solv.prm

>  <Rbt.Receptor>
prm/pocket_docking_3.prm

>  <SCORE>
-10.1073

>  <SCORE.INTER>
-5.86107

>  <SCORE.INTER.CONST>
1

>  <SCORE.INTER.POLAR>
0

>  <SCORE.INTER.ROT>
3

>  <SCORE.INTER.SOLV>
4.4792

>  <SCORE.INTER.VDW>
-11.0004

>  <SCORE.INTER.norm>
-0.488423

>  <SCORE.INTRA>
-4.24627

>  <SCORE.INTRA.DIHEDRAL>
-4.44703

>  <SCORE.INTRA.DIHEDRAL.0>
5.0186

>  <SCORE.INTRA.POLAR>
0

>  <SCORE.INTRA.POLAR.0>
0

>  <SCORE.INTRA.REPUL>
0

>  <SCORE.INTRA.REPUL.0>
0

>  <SCORE.INTRA.SOLV>
-0.0314958

>  <SCORE.INTRA.SOLV.lig_0>
-16.1608

>  <SCORE.INTRA.VDW>
-2.00701

>  <SCORE.INTRA.VDW.0>
1.14169

>  <SCORE.INTRA.norm>
-0.353856

>  <SCORE.RESTR>
0

>  <SCORE.RESTR.CAVITY>
0

>  <SCORE.RESTR.norm>
0

>  <SCORE.SYSTEM>
0

>  <SCORE.SYSTEM.CONST>
0

>  <SCORE.SYSTEM.DIHEDRAL>
0

>  <SCORE.SYSTEM.SOLV>
0

>  <SCORE.SYSTEM.norm>
0

>  <SCORE.heavy>
12

>  <SCORE.norm>
-0.842279

>  <RMSD>
2.126

$$$$
ligand
 OpenBabel11021811493D
libRbt.so/2013.1/901 2013/11/27
 12 12  0  0  0  0  0  0  0  0999 V2000
   30.9271  -22.8658    4.7187 N   0  0  0  0  0  0  0  0  0  0  0  0
   30.2652  -20.7781    8.8578 O   0  0  0  0  0  0  0  0  0  0  0  0
   30.2044  -22.5945    3.4518 C   0  0  0  0  0  0  0  0  0  0  0  0
   32.6107  -20.5490    8.9913 O   0  0  0  0  0  0  0  0  0  0  0  0
   30.7239  -23.5550    2.3870 C   0  0  0  0  0  0  0  0  0  0  0  0
   31.3395  -19.0418    7.5260 O   0  0  0  0  0  0  0  0  0  0  0  0
   30.3956  -24.9324    2.7665 N   0  0  0  0  0  0  0  0  0  0  0  0
   29.7285  -24.8977    4.0704 C   0  0  0  0  0  0  0  0  0  0  0  0
   30.7139  -24.2878    5.0526 C   0  0  0  0  0  0  0  0  0  0  0  0
   30.5676  -21.9703    5.8891 C   0  0  0  0  0  0  0  0  0  0  0  0
   31.6480  -21.7963    6.9885 C   0  0  0  0  0  0  0  0  0  0  0  0
   31.4685  -20.5462    8.1147 S   0  0  0  0  0  0  0  0  0  0  0  0
  1  3  1  0  0  0  0
  1  9  1  0  0  0  0
  1 10  1  0  0  0  0
  2 12  1  0  0  0  0
  3  5  1  0  0  0  0
  4 12  2  0  0  0  0
  5  7  1  0  0  0  0
  6 12  2  0  0  0  0
  7  8  1  0  0  0  0
  8  9  1  0  0  0  0
 10 11  1  0  0  0  0
 11 12  1  0  0  0  0
M  END
>  <CHROM.1>
-154.92105002,165.62902994,62.32402810,30.95383169,-22.08378878,6.04209725
-2.79671005,1.37918822,2.13534922

>  <Name>
ligand

>  <RI>
0

>  <Rbt.Current_Directory>
/home/itssahil/PROJECTS/Mol_Feturizer/New_Systems/rnas/4E8N

>  <Rbt.Executable>
rbdock ($Id: //depot/dev/client3/rdock/2013.1/src/exe/rbdock.cxx#4 $)

>  <Rbt.Library>
libRbt.so (2013.1, Build901 2013/11/27)

>  <Rbt.Parameter_File>
/export/apps/rDock/src/rDock_2013.1_src/data/scripts/dock_solv.prm

>  <Rbt.Receptor>
prm/pocket_docking_7.prm

>  <SCORE>
-10.8125

>  <SCORE.INTER>
-7.36349

>  <SCORE.INTER.CONST>
1

>  <SCORE.INTER.POLAR>
0

>  <SCORE.INTER.ROT>
3

>  <SCORE.INTER.SOLV>
4.49586

>  <SCORE.INTER.VDW>
-12.0076

>  <SCORE.INTER.norm>
-0.613624

>  <SCORE.INTRA>
-3.44896

>  <SCORE.INTRA.DIHEDRAL>
-3.44741

>  <SCORE.INTRA.DIHEDRAL.0>
5.0186

>  <SCORE.INTRA.POLAR>
0

>  <SCORE.INTRA.POLAR.0>
0

>  <SCORE.INTRA.REPUL>
0

>  <SCORE.INTRA.REPUL.0>
0

>  <SCORE.INTRA.SOLV>
-0.10294

>  <SCORE.INTRA.SOLV.lig_0>
-16.1608

>  <SCORE.INTRA.VDW>
-1.67379

>  <SCORE.INTRA.VDW.0>
1.14169

>  <SCORE.INTRA.norm>
-0.287414

>  <SCORE.RESTR>
0

>  <SCORE.RESTR.CAVITY>
0

>  <SCORE.RESTR.norm>
0

>  <SCORE.SYSTEM>
0

>  <SCORE.SYSTEM.CONST>
0

>  <SCORE.SYSTEM.DIHEDRAL>
0

>  <SCORE.SYSTEM.SOLV>
0

>  <SCORE.SYSTEM.norm>
0

>  <SCORE.heavy>
12

>  <SCORE.norm>
-0.901038

>  <RMSD>
2.137

$$$$
ligand
 OpenBabel11021811493D
libRbt.so/2013.1/901 2013/11/27
 12 12  0  0  0  0  0  0  0  0999 V2000
   31.6581  -22.7732    5.1198 N   0  0  0  0  0  0  0  0  0  0  0  0
   29.9780  -20.7251    8.8727 O   0  0  0  0  0  0  0  0  0  0  0  0
   30.6925  -23.8984    5.1705 C   0  0  0  0  0  0  0  0  0  0  0  0
   31.9815  -19.7220    8.1301 O   0  0  0  0  0  0  0  0  0  0  0  0
   29.9550  -23.9592    3.8370 C   0  0  0  0  0  0  0  0  0  0  0  0
   30.1612  -20.0983    6.5240 O   0  0  0  0  0  0  0  0  0  0  0  0
   30.9043  -24.2736    2.7651 N   0  0  0  0  0  0  0  0  0  0  0  0
   32.2422  -24.3639    3.3551 C   0  0  0  0  0  0  0  0  0  0  0  0
   32.5468  -23.0060    3.9644 C   0  0  0  0  0  0  0  0  0  0  0  0
   32.4594  -22.5327    6.3852 C   0  0  0  0  0  0  0  0  0  0  0  0
   31.6510  -22.2062    7.6681 C   0  0  0  0  0  0  0  0  0  0  0  0
   30.9477  -20.6745    7.8185 S   0  0  0  0  0  0  0  0  0  0  0  0
  1  3  1  0  0  0  0
  1  9  1  0  0  0  0
  1 10  1  0  0  0  0
  2 12  1  0  0  0  0
  3  5  1  0  0  0  0
  4 12  2  0  0  0  0
  5  7  1  0  0  0  0
  6 12  2  0  0  0  0
  7  8  1  0  0  0  0
  8  9  1  0  0  0  0
 10 11  1  0  0  0  0
 11 12  1  0  0  0  0
M  END
>  <CHROM.1>
-59.95630189,-73.91170695,164.55050450,31.21788648,-22.12824347,6.05339821
-1.49365419,-0.01585120,0.89812966

>  <Name>
ligand

>  <RI>
0

>  <Rbt.Current_Directory>
/home/itssahil/PROJECTS/Mol_Feturizer/New_Systems/rnas/4E8N

>  <Rbt.Executable>
rbdock ($Id: //depot/dev/client3/rdock/2013.1/src/exe/rbdock.cxx#4 $)

>  <Rbt.Library>
libRbt.so (2013.1, Build901 2013/11/27)

>  <Rbt.Parameter_File>
/export/apps/rDock/src/rDock_2013.1_src/data/scripts/dock_solv.prm

>  <Rbt.Receptor>
prm/pocket_docking_7.prm

>  <SCORE>
-10.222

>  <SCORE.INTER>
-6.62021

>  <SCORE.INTER.CONST>
1

>  <SCORE.INTER.POLAR>
0

>  <SCORE.INTER.ROT>
3

>  <SCORE.INTER.SOLV>
3.31723

>  <SCORE.INTER.VDW>
-11.1192

>  <SCORE.INTER.norm>
-0.551684

>  <SCORE.INTRA>
-3.60183

>  <SCORE.INTRA.DIHEDRAL>
-3.77136

>  <SCORE.INTRA.DIHEDRAL.0>
5.0186

>  <SCORE.INTRA.POLAR>
0

>  <SCORE.INTRA.POLAR.0>
0

>  <SCORE.INTRA.REPUL>
0

>  <SCORE.INTRA.REPUL.0>
0

>  <SCORE.INTRA.SOLV>
0.522524

>  <SCORE.INTRA.SOLV.lig_0>
-16.1608

>  <SCORE.INTRA.VDW>
-1.97742

>  <SCORE.INTRA.VDW.0>
1.14169

>  <SCORE.INTRA.norm>
-0.300153

>  <SCORE.RESTR>
0

>  <SCORE.RESTR.CAVITY>
0

>  <SCORE.RESTR.norm>
0

>  <SCORE.SYSTEM>
0

>  <SCORE.SYSTEM.CONST>
0

>  <SCORE.SYSTEM.DIHEDRAL>
0

>  <SCORE.SYSTEM.SOLV>
0

>  <SCORE.SYSTEM.norm>
0

>  <SCORE.heavy>
12

>  <SCORE.norm>
-0.851837

>  <RMSD>
2.162

$$$$
ligand
 OpenBabel11021811493D
libRbt.so/2013.1/901 2013/11/27
 12 12  0  0  0  0  0  0  0  0999 V2000
   31.1140  -23.1937    4.2841 N   0  0  0  0  0  0  0  0  0  0  0  0
   32.1403  -20.9234    8.3303 O   0  0  0  0  0  0  0  0  0  0  0  0
   30.5501  -21.9498    3.7048 C   0  0  0  0  0  0  0  0  0  0  0  0
   31.7831  -20.4831    6.0389 O   0  0  0  0  0  0  0  0  0  0  0  0
   31.1221  -21.7705    2.3024 C   0  0  0  0  0  0  0  0  0  0  0  0
   29.8461  -20.7283    7.5297 O   0  0  0  0  0  0  0  0  0  0  0  0
   30.6715  -22.8704    1.4444 N   0  0  0  0  0  0  0  0  0  0  0  0
   29.8709  -23.7854    2.2616 C   0  0  0  0  0  0  0  0  0  0  0  0
   30.7798  -24.2995    3.3651 C   0  0  0  0  0  0  0  0  0  0  0  0
   30.6853  -23.5150    5.7033 C   0  0  0  0  0  0  0  0  0  0  0  0
   31.5301  -22.8879    6.8431 C   0  0  0  0  0  0  0  0  0  0  0  0
   31.3437  -21.2405    7.1819 S   0  0  0  0  0  0  0  0  0  0  0  0
  1  3  1  0  0  0  0
  1  9  1  0  0  0  0
  1 10  1  0  0  0  0
  2 12  1  0  0  0  0
  3  5  1  0  0  0  0
  4 12  2  0  0  0  0
  5  7  1  0  0  0  0
  6 12  2  0  0  0  0
  7  8  1  0  0  0  0
  8  9  1  0  0  0  0
 10 11  1  0  0  0  0
 11 12  1  0  0  0  0
M  END
>  <CHROM.1>
-87.13870611,74.98794960,175.46391661,30.99908698,-22.15502022,5.20219653
2.60065738,-1.40804689,-0.93468388

>  <Name>
ligand

>  <RI>
0

>  <Rbt.Current_Directory>
/home/itssahil/PROJECTS/Mol_Feturizer/New_Systems/rnas/4E8N

>  <Rbt.Executable>
rbdock ($Id: //depot/dev/client3/rdock/2013.1/src/exe/rbdock.cxx#4 $)

>  <Rbt.Library>
libRbt.so (2013.1, Build901 2013/11/27)

>  <Rbt.Parameter_File>
/export/apps/rDock/src/rDock_2013.1_src/data/scripts/dock_solv.prm

>  <Rbt.Receptor>
prm/pocket_docking_4.prm

>  <SCORE>
-9.30831

>  <SCORE.INTER>
-5.8238

>  <SCORE.INTER.CONST>
1

>  <SCORE.INTER.POLAR>
0

>  <SCORE.INTER.ROT>
3

>  <SCORE.INTER.SOLV>
7.12608

>  <SCORE.INTER.VDW>
-11.8579

>  <SCORE.INTER.norm>
-0.485317

>  <SCORE.INTRA>
-3.48451

>  <SCORE.INTRA.DIHEDRAL>
-3.05578

>  <SCORE.INTRA.DIHEDRAL.0>
5.0186

>  <SCORE.INTRA.POLAR>
0

>  <SCORE.INTRA.POLAR.0>
0

>  <SCORE.INTRA.REPUL>
0

>  <SCORE.INTRA.REPUL.0>
0

>  <SCORE.INTRA.SOLV>
0.798969

>  <SCORE.INTRA.SOLV.lig_0>
-16.1608

>  <SCORE.INTRA.VDW>
-2.3561

>  <SCORE.INTRA.VDW.0>
1.14169

>  <SCORE.INTRA.norm>
-0.290375

>  <SCORE.RESTR>
0

>  <SCORE.RESTR.CAVITY>
0

>  <SCORE.RESTR.norm>
0

>  <SCORE.SYSTEM>
0

>  <SCORE.SYSTEM.CONST>
0

>  <SCORE.SYSTEM.DIHEDRAL>
0

>  <SCORE.SYSTEM.SOLV>
0

>  <SCORE.SYSTEM.norm>
0

>  <SCORE.heavy>
12

>  <SCORE.norm>
-0.775692

>  <RMSD>
2.202

$$$$
ligand
 OpenBabel11021811493D
libRbt.so/2013.1/901 2013/11/27
 12 12  0  0  0  0  0  0  0  0999 V2000
   30.6612  -23.2308    4.4002 N   0  0  0  0  0  0  0  0  0  0  0  0
   32.6293  -20.9368    8.5439 O   0  0  0  0  0  0  0  0  0  0  0  0
   29.9888  -22.6116    3.2318 C   0  0  0  0  0  0  0  0  0  0  0  0
   31.4101  -19.7177    6.9317 O   0  0  0  0  0  0  0  0  0  0  0  0
   30.4350  -23.3496    1.9738 C   0  0  0  0  0  0  0  0  0  0  0  0
   30.1965  -20.9181    8.6983 O   0  0  0  0  0  0  0  0  0  0  0  0
   29.9734  -24.7398    2.0308 N   0  0  0  0  0  0  0  0  0  0  0  0
   29.2901  -24.9395    3.3112 C   0  0  0  0  0  0  0  0  0  0  0  0
   30.3109  -24.6648    4.4023 C   0  0  0  0  0  0  0  0  0  0  0  0
   30.3665  -22.5949    5.7456 C   0  0  0  0  0  0  0  0  0  0  0  0
   31.5905  -22.2417    6.6304 C   0  0  0  0  0  0  0  0  0  0  0  0
   31.4719  -20.9347    7.6986 S   0  0  0  0  0  0  0  0  0  0  0  0
  1  3  1  0  0  0  0
  1  9  1  0  0  0  0
  1 10  1  0  0  0  0
  2 12  1  0  0  0  0
  3  5  1  0  0  0  0
  4 12  2  0  0  0  0
  5  7  1  0  0  0  0
  6 12  2  0  0  0  0
  7  8  1  0  0  0  0
  8  9  1  0  0  0  0
 10 11  1  0  0  0  0
 11 12  1  0  0  0  0
M  END
>  <CHROM.1>
-129.94957314,150.43801033,171.01569933,30.78887122,-22.35623030,5.61025093
2.37747031,-1.23638679,-1.37881157

>  <Name>
ligand

>  <RI>
0

>  <Rbt.Current_Directory>
/home/itssahil/PROJECTS/Mol_Feturizer/New_Systems/rnas/4E8N

>  <Rbt.Executable>
rbdock ($Id: //depot/dev/client3/rdock/2013.1/src/exe/rbdock.cxx#4 $)

>  <Rbt.Library>
libRbt.so (2013.1, Build901 2013/11/27)

>  <Rbt.Parameter_File>
/export/apps/rDock/src/rDock_2013.1_src/data/scripts/dock_solv.prm

>  <Rbt.Receptor>
prm/pocket_docking_4.prm

>  <SCORE>
-9.85713

>  <SCORE.INTER>
-8.01737

>  <SCORE.INTER.CONST>
1

>  <SCORE.INTER.POLAR>
0

>  <SCORE.INTER.ROT>
3

>  <SCORE.INTER.SOLV>
6.06996

>  <SCORE.INTER.VDW>
-12.9682

>  <SCORE.INTER.norm>
-0.668114

>  <SCORE.INTRA>
-1.83976

>  <SCORE.INTRA.DIHEDRAL>
0.0534743

>  <SCORE.INTRA.DIHEDRAL.0>
5.0186

>  <SCORE.INTRA.POLAR>
0

>  <SCORE.INTRA.POLAR.0>
0

>  <SCORE.INTRA.REPUL>
0

>  <SCORE.INTRA.REPUL.0>
0

>  <SCORE.INTRA.SOLV>
0.0786046

>  <SCORE.INTRA.SOLV.lig_0>
-16.1608

>  <SCORE.INTRA.VDW>
-1.9058

>  <SCORE.INTRA.VDW.0>
1.14169

>  <SCORE.INTRA.norm>
-0.153313

>  <SCORE.RESTR>
0

>  <SCORE.RESTR.CAVITY>
0

>  <SCORE.RESTR.norm>
0

>  <SCORE.SYSTEM>
0

>  <SCORE.SYSTEM.CONST>
0

>  <SCORE.SYSTEM.DIHEDRAL>
0

>  <SCORE.SYSTEM.SOLV>
0

>  <SCORE.SYSTEM.norm>
0

>  <SCORE.heavy>
12

>  <SCORE.norm>
-0.821427

>  <RMSD>
2.227

$$$$
ligand
 OpenBabel11021811493D
libRbt.so/2013.1/901 2013/11/27
 12 12  0  0  0  0  0  0  0  0999 V2000
   31.0104  -23.7012    4.9259 N   0  0  0  0  0  0  0  0  0  0  0  0
   32.5175  -20.5816    8.7337 O   0  0  0  0  0  0  0  0  0  0  0  0
   31.3526  -23.2030    3.5711 C   0  0  0  0  0  0  0  0  0  0  0  0
   31.2298  -19.6218    7.0038 O   0  0  0  0  0  0  0  0  0  0  0  0
   31.7697  -24.3928    2.7127 C   0  0  0  0  0  0  0  0  0  0  0  0
   30.0960  -20.8547    8.8008 O   0  0  0  0  0  0  0  0  0  0  0  0
   30.6311  -25.3011    2.5467 N   0  0  0  0  0  0  0  0  0  0  0  0
   29.5058  -24.7645    3.3161 C   0  0  0  0  0  0  0  0  0  0  0  0
   29.9494  -24.7154    4.7683 C   0  0  0  0  0  0  0  0  0  0  0  0
   30.6089  -22.6437    5.9367 C   0  0  0  0  0  0  0  0  0  0  0  0
   31.7276  -22.1176    6.8736 C   0  0  0  0  0  0  0  0  0  0  0  0
   31.4057  -20.7736    7.8499 S   0  0  0  0  0  0  0  0  0  0  0  0
  1  3  1  0  0  0  0
  1  9  1  0  0  0  0
  1 10  1  0  0  0  0
  2 12  1  0  0  0  0
  3  5  1  0  0  0  0
  4 12  2  0  0  0  0
  5  7  1  0  0  0  0
  6 12  2  0  0  0  0
  7  8  1  0  0  0  0
  8  9  1  0  0  0  0
 10 11  1  0  0  0  0
 11 12  1  0  0  0  0
M  END
>  <CHROM.1>
-95.43208404,170.47507544,172.98827360,31.03249370,-22.46642379,5.87912812
1.71295653,-0.57862364,-2.18948970

>  <Name>
ligand

>  <RI>
0

>  <Rbt.Current_Directory>
/home/itssahil/PROJECTS/Mol_Feturizer/New_Systems/rnas/4E8N

>  <Rbt.Executable>
rbdock ($Id: //depot/dev/client3/rdock/2013.1/src/exe/rbdock.cxx#4 $)

>  <Rbt.Library>
libRbt.so (2013.1, Build901 2013/11/27)

>  <Rbt.Parameter_File>
/export/apps/rDock/src/rDock_2013.1_src/data/scripts/dock_solv.prm

>  <Rbt.Receptor>
prm/pocket_docking_3.prm

>  <SCORE>
-11.0301

>  <SCORE.INTER>
-7.70651

>  <SCORE.INTER.CONST>
1

>  <SCORE.INTER.POLAR>
0

>  <SCORE.INTER.ROT>
3

>  <SCORE.INTER.SOLV>
5.0857

>  <SCORE.INTER.VDW>
-12.4329

>  <SCORE.INTER.norm>
-0.642209

>  <SCORE.INTRA>
-3.32362

>  <SCORE.INTRA.DIHEDRAL>
-2.94998

>  <SCORE.INTRA.DIHEDRAL.0>
5.0186

>  <SCORE.INTRA.POLAR>
0

>  <SCORE.INTRA.POLAR.0>
0

>  <SCORE.INTRA.REPUL>
0

>  <SCORE.INTRA.REPUL.0>
0

>  <SCORE.INTRA.SOLV>
0.068997

>  <SCORE.INTRA.SOLV.lig_0>
-16.1608

>  <SCORE.INTRA.VDW>
-1.88313

>  <SCORE.INTRA.VDW.0>
1.14169

>  <SCORE.INTRA.norm>
-0.276968

>  <SCORE.RESTR>
0

>  <SCORE.RESTR.CAVITY>
0

>  <SCORE.RESTR.norm>
0

>  <SCORE.SYSTEM>
0

>  <SCORE.SYSTEM.CONST>
0

>  <SCORE.SYSTEM.DIHEDRAL>
0

>  <SCORE.SYSTEM.SOLV>
0

>  <SCORE.SYSTEM.norm>
0

>  <SCORE.heavy>
12

>  <SCORE.norm>
-0.919178

>  <RMSD>
2.237

$$$$
ligand
 OpenBabel11021811493D
libRbt.so/2013.1/901 2013/11/27
 12 12  0  0  0  0  0  0  0  0999 V2000
   31.1446  -23.6071    5.0240 N   0  0  0  0  0  0  0  0  0  0  0  0
   32.5719  -20.5146    8.8710 O   0  0  0  0  0  0  0  0  0  0  0  0
   31.4789  -23.2346    3.6275 C   0  0  0  0  0  0  0  0  0  0  0  0
   31.3260  -19.5860    7.0942 O   0  0  0  0  0  0  0  0  0  0  0  0
   31.8915  -24.4978    2.8789 C   0  0  0  0  0  0  0  0  0  0  0  0
   30.1425  -20.7074    8.9317 O   0  0  0  0  0  0  0  0  0  0  0  0
   30.7523  -25.4172    2.8028 N   0  0  0  0  0  0  0  0  0  0  0  0
   29.6313  -24.8125    3.5266 C   0  0  0  0  0  0  0  0  0  0  0  0
   30.0831  -24.6312    4.9656 C   0  0  0  0  0  0  0  0  0  0  0  0
   30.7485  -22.4618    5.9365 C   0  0  0  0  0  0  0  0  0  0  0  0
   31.7441  -22.0997    7.0695 C   0  0  0  0  0  0  0  0  0  0  0  0
   31.4598  -20.7071    7.9878 S   0  0  0  0  0  0  0  0  0  0  0  0
  1  3  1  0  0  0  0
  1  9  1  0  0  0  0
  1 10  1  0  0  0  0
  2 12  1  0  0  0  0
  3  5  1  0  0  0  0
  4 12  2  0  0  0  0
  5  7  1  0  0  0  0
  6 12  2  0  0  0  0
  7  8  1  0  0  0  0
  8  9  1  0  0  0  0
 10 11  1  0  0  0  0
 11 12  1  0  0  0  0
M  END
>  <CHROM.1>
-111.06132441,171.96913321,-174.36800383,31.12492699,-22.42885198,6.01806135
-1.69390233,0.56166643,0.92228959

>  <Name>
ligand

>  <RI>
0

>  <Rbt.Current_Directory>
/home/itssahil/PROJECTS/Mol_Feturizer/New_Systems/rnas/4E8N

>  <Rbt.Executable>
rbdock ($Id: //depot/dev/client3/rdock/2013.1/src/exe/rbdock.cxx#4 $)

>  <Rbt.Library>
libRbt.so (2013.1, Build901 2013/11/27)

>  <Rbt.Parameter_File>
/export/apps/rDock/src/rDock_2013.1_src/data/scripts/dock_solv.prm

>  <Rbt.Receptor>
prm/pocket_docking_7.prm

>  <SCORE>
-11.3409

>  <SCORE.INTER>
-8.31034

>  <SCORE.INTER.CONST>
1

>  <SCORE.INTER.POLAR>
0

>  <SCORE.INTER.ROT>
3

>  <SCORE.INTER.SOLV>
5.17009

>  <SCORE.INTER.VDW>
-12.8636

>  <SCORE.INTER.norm>
-0.692528

>  <SCORE.INTRA>
-3.03056

>  <SCORE.INTRA.DIHEDRAL>
-2.38771

>  <SCORE.INTRA.DIHEDRAL.0>
5.0186

>  <SCORE.INTRA.POLAR>
0

>  <SCORE.INTRA.POLAR.0>
0

>  <SCORE.INTRA.REPUL>
0

>  <SCORE.INTRA.REPUL.0>
0

>  <SCORE.INTRA.SOLV>
0.0682517

>  <SCORE.INTRA.SOLV.lig_0>
-16.1608

>  <SCORE.INTRA.VDW>
-1.87083

>  <SCORE.INTRA.VDW.0>
1.14169

>  <SCORE.INTRA.norm>
-0.252547

>  <SCORE.RESTR>
0

>  <SCORE.RESTR.CAVITY>
0

>  <SCORE.RESTR.norm>
0

>  <SCORE.SYSTEM>
0

>  <SCORE.SYSTEM.CONST>
0

>  <SCORE.SYSTEM.DIHEDRAL>
0

>  <SCORE.SYSTEM.SOLV>
0

>  <SCORE.SYSTEM.norm>
0

>  <SCORE.heavy>
12

>  <SCORE.norm>
-0.945075

>  <RMSD>
2.237

$$$$
ligand
 OpenBabel11021811493D
libRbt.so/2013.1/901 2013/11/27
 12 12  0  0  0  0  0  0  0  0999 V2000
   31.0940  -23.5507    4.9056 N   0  0  0  0  0  0  0  0  0  0  0  0
   30.2710  -20.9914    8.6872 O   0  0  0  0  0  0  0  0  0  0  0  0
   31.2826  -23.0413    3.5251 C   0  0  0  0  0  0  0  0  0  0  0  0
   32.5816  -20.5230    8.8028 O   0  0  0  0  0  0  0  0  0  0  0  0
   31.7380  -24.1996    2.6435 C   0  0  0  0  0  0  0  0  0  0  0  0
   31.1908  -19.3080    7.1830 O   0  0  0  0  0  0  0  0  0  0  0  0
   30.6773  -25.2091    2.5731 N   0  0  0  0  0  0  0  0  0  0  0  0
   29.5714  -24.7663    3.4258 C   0  0  0  0  0  0  0  0  0  0  0  0
   30.1207  -24.6585    4.8381 C   0  0  0  0  0  0  0  0  0  0  0  0
   30.6781  -22.5208    5.9387 C   0  0  0  0  0  0  0  0  0  0  0  0
   31.7699  -22.0606    6.9398 C   0  0  0  0  0  0  0  0  0  0  0  0
   31.4561  -20.7228    7.9273 S   0  0  0  0  0  0  0  0  0  0  0  0
  1  3  1  0  0  0  0
  1  9  1  0  0  0  0
  1 10  1  0  0  0  0
  2 12  1  0  0  0  0
  3  5  1  0  0  0  0
  4 12  2  0  0  0  0
  5  7  1  0  0  0  0
  6 12  2  0  0  0  0
  7  8  1  0  0  0  0
  8  9  1  0  0  0  0
 10 11  1  0  0  0  0
 11 12  1  0  0  0  0
M  END
>  <CHROM.1>
-105.42771991,169.06421283,57.54711425,31.08498400,-22.37760811,5.91337163
1.74467195,-0.76844362,-2.14191947

>  <Name>
ligand

>  <RI>
0

>  <Rbt.Current_Directory>
/home/itssahil/PROJECTS/Mol_Feturizer/New_Systems/rnas/4E8N

>  <Rbt.Executable>
rbdock ($Id: //depot/dev/client3/rdock/2013.1/src/exe/rbdock.cxx#4 $)

>  <Rbt.Library>
libRbt.so (2013.1, Build901 2013/11/27)

>  <Rbt.Parameter_File>
/export/apps/rDock/src/rDock_2013.1_src/data/scripts/dock_solv.prm

>  <Rbt.Receptor>
prm/pocket_docking_3.prm

>  <SCORE>
-11.306

>  <SCORE.INTER>
-8.19163

>  <SCORE.INTER.CONST>
1

>  <SCORE.INTER.POLAR>
0

>  <SCORE.INTER.ROT>
3

>  <SCORE.INTER.SOLV>
3.90641

>  <SCORE.INTER.VDW>
-12.3632

>  <SCORE.INTER.norm>
-0.682636

>  <SCORE.INTRA>
-3.11436

>  <SCORE.INTRA.DIHEDRAL>
-2.4419

>  <SCORE.INTRA.DIHEDRAL.0>
5.0186

>  <SCORE.INTRA.POLAR>
0

>  <SCORE.INTRA.POLAR.0>
0

>  <SCORE.INTRA.REPUL>
0

>  <SCORE.INTRA.REPUL.0>
0

>  <SCORE.INTRA.SOLV>
-0.115023

>  <SCORE.INTRA.SOLV.lig_0>
-16.1608

>  <SCORE.INTRA.VDW>
-1.8359

>  <SCORE.INTRA.VDW.0>
1.14169

>  <SCORE.INTRA.norm>
-0.25953

>  <SCORE.RESTR>
0

>  <SCORE.RESTR.CAVITY>
0

>  <SCORE.RESTR.norm>
0

>  <SCORE.SYSTEM>
0

>  <SCORE.SYSTEM.CONST>
0

>  <SCORE.SYSTEM.DIHEDRAL>
0

>  <SCORE.SYSTEM.SOLV>
0

>  <SCORE.SYSTEM.norm>
0

>  <SCORE.heavy>
12

>  <SCORE.norm>
-0.942166

>  <RMSD>
2.314

$$$$
ligand
 OpenBabel11021811493D
libRbt.so/2013.1/901 2013/11/27
 12 12  0  0  0  0  0  0  0  0999 V2000
   31.1455  -23.6088    5.0552 N   0  0  0  0  0  0  0  0  0  0  0  0
   30.2542  -20.9607    8.7022 O   0  0  0  0  0  0  0  0  0  0  0  0
   31.4845  -23.2166    3.6652 C   0  0  0  0  0  0  0  0  0  0  0  0
   32.5505  -20.4429    8.8771 O   0  0  0  0  0  0  0  0  0  0  0  0
   31.9068  -24.4679    2.9023 C   0  0  0  0  0  0  0  0  0  0  0  0
   31.1703  -19.2383    7.2404 O   0  0  0  0  0  0  0  0  0  0  0  0
   30.7726  -25.3919    2.8090 N   0  0  0  0  0  0  0  0  0  0  0  0
   29.6452  -24.8022    3.5351 C   0  0  0  0  0  0  0  0  0  0  0  0
   30.0894  -24.6373    4.9785 C   0  0  0  0  0  0  0  0  0  0  0  0
   30.7394  -22.4774    5.9805 C   0  0  0  0  0  0  0  0  0  0  0  0
   31.8163  -21.9742    6.9770 C   0  0  0  0  0  0  0  0  0  0  0  0
   31.4501  -20.6564    7.9733 S   0  0  0  0  0  0  0  0  0  0  0  0
  1  3  1  0  0  0  0
  1  9  1  0  0  0  0
  1 10  1  0  0  0  0
  2 12  1  0  0  0  0
  3  5  1  0  0  0  0
  4 12  2  0  0  0  0
  5  7  1  0  0  0  0
  6 12  2  0  0  0  0
  7  8  1  0  0  0  0
  8  9  1  0  0  0  0
 10 11  1  0  0  0  0
 11 12  1  0  0  0  0
M  END
>  <CHROM.1>
-101.64779775,176.57588107,55.39769665,31.12700052,-22.39303932,6.01443550
1.70154198,-0.62793530,-2.22601345

>  <Name>
ligand

>  <RI>
0

>  <Rbt.Current_Directory>
/home/itssahil/PROJECTS/Mol_Feturizer/New_Systems/rnas/4E8N

>  <Rbt.Executable>
rbdock ($Id: //depot/dev/client3/rdock/2013.1/src/exe/rbdock.cxx#4 $)

>  <Rbt.Library>
libRbt.so (2013.1, Build901 2013/11/27)

>  <Rbt.Parameter_File>
/export/apps/rDock/src/rDock_2013.1_src/data/scripts/dock_solv.prm

>  <Rbt.Receptor>
prm/pocket_docking_5.prm

>  <SCORE>
-11.5936

>  <SCORE.INTER>
-8.21005

>  <SCORE.INTER.CONST>
1

>  <SCORE.INTER.POLAR>
0

>  <SCORE.INTER.ROT>
3

>  <SCORE.INTER.SOLV>
4.19009

>  <SCORE.INTER.VDW>
-12.4701

>  <SCORE.INTER.norm>
-0.684171

>  <SCORE.INTRA>
-3.38351

>  <SCORE.INTRA.DIHEDRAL>
-2.97085

>  <SCORE.INTRA.DIHEDRAL.0>
5.0186

>  <SCORE.INTRA.POLAR>
0

>  <SCORE.INTRA.POLAR.0>
0

>  <SCORE.INTRA.REPUL>
0

>  <SCORE.INTRA.REPUL.0>
0

>  <SCORE.INTRA.SOLV>
-0.120823

>  <SCORE.INTRA.SOLV.lig_0>
-16.1608

>  <SCORE.INTRA.VDW>
-1.83767

>  <SCORE.INTRA.VDW.0>
1.14169

>  <SCORE.INTRA.norm>
-0.281959

>  <SCORE.RESTR>
0

>  <SCORE.RESTR.CAVITY>
0

>  <SCORE.RESTR.norm>
0

>  <SCORE.SYSTEM>
0

>  <SCORE.SYSTEM.CONST>
0

>  <SCORE.SYSTEM.DIHEDRAL>
0

>  <SCORE.SYSTEM.SOLV>
0

>  <SCORE.SYSTEM.norm>
0

>  <SCORE.heavy>
12

>  <SCORE.norm>
-0.96613

>  <RMSD>
2.358

$$$$
ligand
 OpenBabel11021811493D
libRbt.so/2013.1/901 2013/11/27
 12 12  0  0  0  0  0  0  0  0999 V2000
   31.4668  -21.6988    6.2434 N   0  0  0  0  0  0  0  0  0  0  0  0
   33.6017  -20.4102   10.0291 O   0  0  0  0  0  0  0  0  0  0  0  0
   30.9025  -23.0519    6.0158 C   0  0  0  0  0  0  0  0  0  0  0  0
   33.2305  -18.1360    9.5172 O   0  0  0  0  0  0  0  0  0  0  0  0
   30.6194  -23.2101    4.5255 C   0  0  0  0  0  0  0  0  0  0  0  0
   31.4617  -19.4167   10.6423 O   0  0  0  0  0  0  0  0  0  0  0  0
   31.8792  -23.1537    3.7781 N   0  0  0  0  0  0  0  0  0  0  0  0
   32.9632  -22.9087    4.7326 C   0  0  0  0  0  0  0  0  0  0  0  0
   32.6706  -21.5748    5.3980 C   0  0  0  0  0  0  0  0  0  0  0  0
   31.7742  -21.3453    7.6862 C   0  0  0  0  0  0  0  0  0  0  0  0
   32.2217  -19.8864    7.9640 C   0  0  0  0  0  0  0  0  0  0  0  0
   32.6514  -19.4540    9.5425 S   0  0  0  0  0  0  0  0  0  0  0  0
  1  3  1  0  0  0  0
  1  9  1  0  0  0  0
  1 10  1  0  0  0  0
  2 12  1  0  0  0  0
  3  5  1  0  0  0  0
  4 12  2  0  0  0  0
  5  7  1  0  0  0  0
  6 12  2  0  0  0  0
  7  8  1  0  0  0  0
  8  9  1  0  0  0  0
 10 11  1  0  0  0  0
 11 12  1  0  0  0  0
M  END
>  <CHROM.1>
-173.69739048,-177.02814456,50.75110781,32.19000907,-20.96690604,7.48461387
1.74631979,-0.44982285,-2.10789639

>  <Name>
ligand

>  <RI>
0

>  <Rbt.Current_Directory>
/home/itssahil/PROJECTS/Mol_Feturizer/New_Systems/rnas/4E8N

>  <Rbt.Executable>
rbdock ($Id: //depot/dev/client3/rdock/2013.1/src/exe/rbdock.cxx#4 $)

>  <Rbt.Library>
libRbt.so (2013.1, Build901 2013/11/27)

>  <Rbt.Parameter_File>
/export/apps/rDock/src/rDock_2013.1_src/data/scripts/dock_solv.prm

>  <Rbt.Receptor>
prm/pocket_docking_7.prm

>  <SCORE>
-11.3308

>  <SCORE.INTER>
-7.60051

>  <SCORE.INTER.CONST>
1

>  <SCORE.INTER.POLAR>
0

>  <SCORE.INTER.ROT>
3

>  <SCORE.INTER.SOLV>
3.74398

>  <SCORE.INTER.VDW>
-11.915

>  <SCORE.INTER.norm>
-0.633376

>  <SCORE.INTRA>
-3.73271

>  <SCORE.INTRA.DIHEDRAL>
-4.74706

>  <SCORE.INTRA.DIHEDRAL.0>
5.0186

>  <SCORE.INTRA.POLAR>
0

>  <SCORE.INTRA.POLAR.0>
0

>  <SCORE.INTRA.REPUL>
0

>  <SCORE.INTRA.REPUL.0>
0

>  <SCORE.INTRA.SOLV>
-0.121763

>  <SCORE.INTRA.SOLV.lig_0>
-16.1608

>  <SCORE.INTRA.VDW>
-1.2983

>  <SCORE.INTRA.VDW.0>
1.14169

>  <SCORE.INTRA.norm>
-0.31106

>  <SCORE.RESTR>
0.00243256

>  <SCORE.RESTR.CAVITY>
0.00243256

>  <SCORE.RESTR.norm>
0.000202714

>  <SCORE.SYSTEM>
0

>  <SCORE.SYSTEM.CONST>
0

>  <SCORE.SYSTEM.DIHEDRAL>
0

>  <SCORE.SYSTEM.SOLV>
0

>  <SCORE.SYSTEM.norm>
0

>  <SCORE.heavy>
12

>  <SCORE.norm>
-0.944233

>  <RMSD>
2.407

$$$$
ligand
 OpenBabel11021811493D
libRbt.so/2013.1/901 2013/11/27
 12 12  0  0  0  0  0  0  0  0999 V2000
   30.9436  -23.4666    4.4814 N   0  0  0  0  0  0  0  0  0  0  0  0
   29.6823  -20.8156    7.2435 O   0  0  0  0  0  0  0  0  0  0  0  0
   30.0712  -22.4878    3.7872 C   0  0  0  0  0  0  0  0  0  0  0  0
   31.8353  -19.8850    7.5091 O   0  0  0  0  0  0  0  0  0  0  0  0
   30.2876  -22.6323    2.2844 C   0  0  0  0  0  0  0  0  0  0  0  0
   30.8500  -20.0073    5.2621 O   0  0  0  0  0  0  0  0  0  0  0  0
   29.8481  -23.9620    1.8511 N   0  0  0  0  0  0  0  0  0  0  0  0
   29.4053  -24.7024    3.0351 C   0  0  0  0  0  0  0  0  0  0  0  0
   30.6038  -24.8062    3.9628 C   0  0  0  0  0  0  0  0  0  0  0  0
   30.8922  -23.4388    5.9972 C   0  0  0  0  0  0  0  0  0  0  0  0
   31.6714  -22.2953    6.6981 C   0  0  0  0  0  0  0  0  0  0  0  0
   31.0060  -20.7394    6.6995 S   0  0  0  0  0  0  0  0  0  0  0  0
  1  3  1  0  0  0  0
  1  9  1  0  0  0  0
  1 10  1  0  0  0  0
  2 12  1  0  0  0  0
  3  5  1  0  0  0  0
  4 12  2  0  0  0  0
  5  7  1  0  0  0  0
  6 12  2  0  0  0  0
  7  8  1  0  0  0  0
  8  9  1  0  0  0  0
 10 11  1  0  0  0  0
 11 12  1  0  0  0  0
M  END
>  <CHROM.1>
-77.46692012,76.39829041,54.54502789,30.63643244,-22.20933423,5.12454877
-2.38736753,-1.31148014,0.06342294

>  <Name>
ligand

>  <RI>
0

>  <Rbt.Current_Directory>
/home/itssahil/PROJECTS/Mol_Feturizer/New_Systems/rnas/4E8N

>  <Rbt.Executable>
rbdock ($Id: //depot/dev/client3/rdock/2013.1/src/exe/rbdock.cxx#4 $)

>  <Rbt.Library>
libRbt.so (2013.1, Build901 2013/11/27)

>  <Rbt.Parameter_File>
/export/apps/rDock/src/rDock_2013.1_src/data/scripts/dock_solv.prm

>  <Rbt.Receptor>
prm/pocket_docking_3.prm

>  <SCORE>
-9.67702

>  <SCORE.INTER>
-5.95857

>  <SCORE.INTER.CONST>
1

>  <SCORE.INTER.POLAR>
0

>  <SCORE.INTER.ROT>
3

>  <SCORE.INTER.SOLV>
5.5932

>  <SCORE.INTER.VDW>
-11.4368

>  <SCORE.INTER.norm>
-0.496548

>  <SCORE.INTRA>
-3.71845

>  <SCORE.INTRA.DIHEDRAL>
-3.45285

>  <SCORE.INTRA.DIHEDRAL.0>
5.0186

>  <SCORE.INTRA.POLAR>
0

>  <SCORE.INTRA.POLAR.0>
0

>  <SCORE.INTRA.REPUL>
0

>  <SCORE.INTRA.REPUL.0>
0

>  <SCORE.INTRA.SOLV>
0.448191

>  <SCORE.INTRA.SOLV.lig_0>
-16.1608

>  <SCORE.INTRA.VDW>
-2.21612

>  <SCORE.INTRA.VDW.0>
1.14169

>  <SCORE.INTRA.norm>
-0.309871

>  <SCORE.RESTR>
0

>  <SCORE.RESTR.CAVITY>
0

>  <SCORE.RESTR.norm>
0

>  <SCORE.SYSTEM>
0

>  <SCORE.SYSTEM.CONST>
0

>  <SCORE.SYSTEM.DIHEDRAL>
0

>  <SCORE.SYSTEM.SOLV>
0

>  <SCORE.SYSTEM.norm>
0

>  <SCORE.heavy>
12

>  <SCORE.norm>
-0.806419

>  <RMSD>
2.430

$$$$
ligand
 OpenBabel11021811493D
libRbt.so/2013.1/901 2013/11/27
 12 12  0  0  0  0  0  0  0  0999 V2000
   31.0707  -23.6888    4.9167 N   0  0  0  0  0  0  0  0  0  0  0  0
   31.4814  -19.7052    7.0055 O   0  0  0  0  0  0  0  0  0  0  0  0
   31.3462  -23.2071    3.5408 C   0  0  0  0  0  0  0  0  0  0  0  0
   30.3601  -20.9802    8.6452 O   0  0  0  0  0  0  0  0  0  0  0  0
   31.7383  -24.4049    2.6819 C   0  0  0  0  0  0  0  0  0  0  0  0
   32.7428  -20.4650    8.9483 O   0  0  0  0  0  0  0  0  0  0  0  0
   30.6041  -25.3280    2.5802 N   0  0  0  0  0  0  0  0  0  0  0  0
   29.5082  -24.7925    3.3916 C   0  0  0  0  0  0  0  0  0  0  0  0
   30.0157  -24.7168    4.8215 C   0  0  0  0  0  0  0  0  0  0  0  0
   30.7026  -22.6208    5.9292 C   0  0  0  0  0  0  0  0  0  0  0  0
   31.8007  -22.2227    6.9498 C   0  0  0  0  0  0  0  0  0  0  0  0
   31.5748  -20.8318    7.8865 S   0  0  0  0  0  0  0  0  0  0  0  0
  1  3  1  0  0  0  0
  1  9  1  0  0  0  0
  1 10  1  0  0  0  0
  2 12  1  0  0  0  0
  3  5  1  0  0  0  0
  4 12  2  0  0  0  0
  5  7  1  0  0  0  0
  6 12  2  0  0  0  0
  7  8  1  0  0  0  0
  8  9  1  0  0  0  0
 10 11  1  0  0  0  0
 11 12  1  0  0  0  0
M  END
>  <CHROM.1>
-104.41466137,167.45114817,-61.27641174,31.13919654,-22.49418331,5.90202215
1.76830225,-0.63339822,-2.14419607

>  <Name>
ligand

>  <RI>
0

>  <Rbt.Current_Directory>
/home/itssahil/PROJECTS/Mol_Feturizer/New_Systems/rnas/4E8N

>  <Rbt.Executable>
rbdock ($Id: //depot/dev/client3/rdock/2013.1/src/exe/rbdock.cxx#4 $)

>  <Rbt.Library>
libRbt.so (2013.1, Build901 2013/11/27)

>  <Rbt.Parameter_File>
/export/apps/rDock/src/rDock_2013.1_src/data/scripts/dock_solv.prm

>  <Rbt.Receptor>
prm/pocket_docking_3.prm

>  <SCORE>
-10.7518

>  <SCORE.INTER>
-7.68449

>  <SCORE.INTER.CONST>
1

>  <SCORE.INTER.POLAR>
0

>  <SCORE.INTER.ROT>
3

>  <SCORE.INTER.SOLV>
5.94512

>  <SCORE.INTER.VDW>
-12.7047

>  <SCORE.INTER.norm>
-0.640374

>  <SCORE.INTRA>
-3.07724

>  <SCORE.INTRA.DIHEDRAL>
-2.35839

>  <SCORE.INTRA.DIHEDRAL.0>
5.0186

>  <SCORE.INTRA.POLAR>
0

>  <SCORE.INTRA.POLAR.0>
0

>  <SCORE.INTRA.REPUL>
0

>  <SCORE.INTRA.REPUL.0>
0

>  <SCORE.INTRA.SOLV>
-0.110603

>  <SCORE.INTRA.SOLV.lig_0>
-16.1608

>  <SCORE.INTRA.VDW>
-1.84275

>  <SCORE.INTRA.VDW.0>
1.14169

>  <SCORE.INTRA.norm>
-0.256437

>  <SCORE.RESTR>
0.00994864

>  <SCORE.RESTR.CAVITY>
0.00994864

>  <SCORE.RESTR.norm>
0.000829053

>  <SCORE.SYSTEM>
0

>  <SCORE.SYSTEM.CONST>
0

>  <SCORE.SYSTEM.DIHEDRAL>
0

>  <SCORE.SYSTEM.SOLV>
0

>  <SCORE.SYSTEM.norm>
0

>  <SCORE.heavy>
12

>  <SCORE.norm>
-0.895982

>  <RMSD>
2.440

$$$$
ligand
 OpenBabel11021811493D
libRbt.so/2013.1/901 2013/11/27
 12 12  0  0  0  0  0  0  0  0999 V2000
   31.2201  -23.9376    5.1476 N   0  0  0  0  0  0  0  0  0  0  0  0
   32.4600  -20.5105    8.7819 O   0  0  0  0  0  0  0  0  0  0  0  0
   31.9974  -23.6749    3.9117 C   0  0  0  0  0  0  0  0  0  0  0  0
   31.2582  -19.7086    6.9152 O   0  0  0  0  0  0  0  0  0  0  0  0
   32.3729  -25.0143    3.2862 C   0  0  0  0  0  0  0  0  0  0  0  0
   30.0402  -20.8039    8.7459 O   0  0  0  0  0  0  0  0  0  0  0  0
   31.1569  -25.7199    2.8708 N   0  0  0  0  0  0  0  0  0  0  0  0
   30.0035  -24.9038    3.2577 C   0  0  0  0  0  0  0  0  0  0  0  0
   30.0537  -24.7594    4.7691 C   0  0  0  0  0  0  0  0  0  0  0  0
   30.7927  -22.7118    5.9324 C   0  0  0  0  0  0  0  0  0  0  0  0
   31.7790  -22.2011    7.0151 C   0  0  0  0  0  0  0  0  0  0  0  0
   31.3974  -20.7858    7.8604 S   0  0  0  0  0  0  0  0  0  0  0  0
  1  3  1  0  0  0  0
  1  9  1  0  0  0  0
  1 10  1  0  0  0  0
  2 12  1  0  0  0  0
  3  5  1  0  0  0  0
  4 12  2  0  0  0  0
  5  7  1  0  0  0  0
  6 12  2  0  0  0  0
  7  8  1  0  0  0  0
  8  9  1  0  0  0  0
 10 11  1  0  0  0  0
 11 12  1  0  0  0  0
M  END
>  <CHROM.1>
-89.63725654,176.50709503,-179.14202161,31.22977116,-22.61746960,5.98523623
1.61035425,-0.27755962,-2.32545737

>  <Name>
ligand

>  <RI>
0

>  <Rbt.Current_Directory>
/home/itssahil/PROJECTS/Mol_Feturizer/New_Systems/rnas/4E8N

>  <Rbt.Executable>
rbdock ($Id: //depot/dev/client3/rdock/2013.1/src/exe/rbdock.cxx#4 $)

>  <Rbt.Library>
libRbt.so (2013.1, Build901 2013/11/27)

>  <Rbt.Parameter_File>
/export/apps/rDock/src/rDock_2013.1_src/data/scripts/dock_solv.prm

>  <Rbt.Receptor>
prm/pocket_docking_4.prm

>  <SCORE>
-11.727

>  <SCORE.INTER>
-8.07142

>  <SCORE.INTER.CONST>
1

>  <SCORE.INTER.POLAR>
0

>  <SCORE.INTER.ROT>
3

>  <SCORE.INTER.SOLV>
6.42022

>  <SCORE.INTER.VDW>
-13.121

>  <SCORE.INTER.norm>
-0.672618

>  <SCORE.INTRA>
-3.65562

>  <SCORE.INTRA.DIHEDRAL>
-3.70241

>  <SCORE.INTRA.DIHEDRAL.0>
5.0186

>  <SCORE.INTRA.POLAR>
0

>  <SCORE.INTRA.POLAR.0>
0

>  <SCORE.INTRA.REPUL>
0

>  <SCORE.INTRA.REPUL.0>
0

>  <SCORE.INTRA.SOLV>
0.0686824

>  <SCORE.INTRA.SOLV.lig_0>
-16.1608

>  <SCORE.INTRA.VDW>
-1.83875

>  <SCORE.INTRA.VDW.0>
1.14169

>  <SCORE.INTRA.norm>
-0.304635

>  <SCORE.RESTR>
0

>  <SCORE.RESTR.CAVITY>
0

>  <SCORE.RESTR.norm>
0

>  <SCORE.SYSTEM>
0

>  <SCORE.SYSTEM.CONST>
0

>  <SCORE.SYSTEM.DIHEDRAL>
0

>  <SCORE.SYSTEM.SOLV>
0

>  <SCORE.SYSTEM.norm>
0

>  <SCORE.heavy>
12

>  <SCORE.norm>
-0.977253

>  <RMSD>
2.449

$$$$
ligand
 OpenBabel11021811493D
libRbt.so/2013.1/901 2013/11/27
 12 12  0  0  0  0  0  0  0  0999 V2000
   30.4154  -22.4809    4.7652 N   0  0  0  0  0  0  0  0  0  0  0  0
   31.3526  -22.4556    7.6564 O   0  0  0  0  0  0  0  0  0  0  0  0
   31.0367  -23.7971    5.0522 C   0  0  0  0  0  0  0  0  0  0  0  0
   32.5591  -20.5097    8.2304 O   0  0  0  0  0  0  0  0  0  0  0  0
   29.9894  -24.8825    4.8257 C   0  0  0  0  0  0  0  0  0  0  0  0
   30.2076  -20.7083    8.9128 O   0  0  0  0  0  0  0  0  0  0  0  0
   29.6033  -24.9042    3.4116 N   0  0  0  0  0  0  0  0  0  0  0  0
   30.3271  -23.8304    2.7265 C   0  0  0  0  0  0  0  0  0  0  0  0
   29.9035  -22.5268    3.3814 C   0  0  0  0  0  0  0  0  0  0  0  0
   31.3041  -21.2702    4.9787 C   0  0  0  0  0  0  0  0  0  0  0  0
   30.9970  -20.3929    6.2204 C   0  0  0  0  0  0  0  0  0  0  0  0
   31.3006  -21.0271    7.7596 S   0  0  0  0  0  0  0  0  0  0  0  0
  1  3  1  0  0  0  0
  1  9  1  0  0  0  0
  1 10  1  0  0  0  0
  2 12  1  0  0  0  0
  3  5  1  0  0  0  0
  4 12  2  0  0  0  0
  5  7  1  0  0  0  0
  6 12  2  0  0  0  0
  7  8  1  0  0  0  0
  8  9  1  0  0  0  0
 10 11  1  0  0  0  0
 11 12  1  0  0  0  0
M  END
>  <CHROM.1>
-106.96032811,68.97005800,-20.47842286,30.82071296,-22.23370504,5.93761562
-2.61680822,1.30339015,1.97981165

>  <Name>
ligand

>  <RI>
0

>  <Rbt.Current_Directory>
/home/itssahil/PROJECTS/Mol_Feturizer/New_Systems/rnas/4E8N

>  <Rbt.Executable>
rbdock ($Id: //depot/dev/client3/rdock/2013.1/src/exe/rbdock.cxx#4 $)

>  <Rbt.Library>
libRbt.so (2013.1, Build901 2013/11/27)

>  <Rbt.Parameter_File>
/export/apps/rDock/src/rDock_2013.1_src/data/scripts/dock_solv.prm

>  <Rbt.Receptor>
prm/pocket_docking_3.prm

>  <SCORE>
-9.44026

>  <SCORE.INTER>
-7.39428

>  <SCORE.INTER.CONST>
1

>  <SCORE.INTER.POLAR>
0

>  <SCORE.INTER.ROT>
3

>  <SCORE.INTER.SOLV>
6.99063

>  <SCORE.INTER.VDW>
-12.8597

>  <SCORE.INTER.norm>
-0.61619

>  <SCORE.INTRA>
-2.04599

>  <SCORE.INTRA.DIHEDRAL>
0.144225

>  <SCORE.INTRA.DIHEDRAL.0>
5.0186

>  <SCORE.INTRA.POLAR>
0

>  <SCORE.INTRA.POLAR.0>
0

>  <SCORE.INTRA.REPUL>
0

>  <SCORE.INTRA.REPUL.0>
0

>  <SCORE.INTRA.SOLV>
-0.156937

>  <SCORE.INTRA.SOLV.lig_0>
-16.1608

>  <SCORE.INTRA.VDW>
-2.03963

>  <SCORE.INTRA.VDW.0>
1.14169

>  <SCORE.INTRA.norm>
-0.170499

>  <SCORE.RESTR>
0

>  <SCORE.RESTR.CAVITY>
0

>  <SCORE.RESTR.norm>
0

>  <SCORE.SYSTEM>
0

>  <SCORE.SYSTEM.CONST>
0

>  <SCORE.SYSTEM.DIHEDRAL>
0

>  <SCORE.SYSTEM.SOLV>
0

>  <SCORE.SYSTEM.norm>
0

>  <SCORE.heavy>
12

>  <SCORE.norm>
-0.786689

>  <RMSD>
2.452

$$$$
ligand
 OpenBabel11021811493D
libRbt.so/2013.1/901 2013/11/27
 12 12  0  0  0  0  0  0  0  0999 V2000
   31.2258  -23.0499    4.3315 N   0  0  0  0  0  0  0  0  0  0  0  0
   32.0295  -20.8776    8.4360 O   0  0  0  0  0  0  0  0  0  0  0  0
   30.9862  -24.5129    4.2749 C   0  0  0  0  0  0  0  0  0  0  0  0
   32.1456  -19.8334    6.3223 O   0  0  0  0  0  0  0  0  0  0  0  0
   29.5908  -24.7497    3.7066 C   0  0  0  0  0  0  0  0  0  0  0  0
   30.1177  -21.0762    6.9366 O   0  0  0  0  0  0  0  0  0  0  0  0
   29.5354  -24.2653    2.3241 N   0  0  0  0  0  0  0  0  0  0  0  0
   30.8347  -23.6724    1.9980 C   0  0  0  0  0  0  0  0  0  0  0  0
   31.0479  -22.5204    2.9651 C   0  0  0  0  0  0  0  0  0  0  0  0
   32.5592  -22.6210    4.9139 C   0  0  0  0  0  0  0  0  0  0  0  0
   32.5932  -22.3394    6.4388 C   0  0  0  0  0  0  0  0  0  0  0  0
   31.7336  -21.0116    7.0401 S   0  0  0  0  0  0  0  0  0  0  0  0
  1  3  1  0  0  0  0
  1  9  1  0  0  0  0
  1 10  1  0  0  0  0
  2 12  1  0  0  0  0
  3  5  1  0  0  0  0
  4 12  2  0  0  0  0
  5  7  1  0  0  0  0
  6 12  2  0  0  0  0
  7  8  1  0  0  0  0
  8  9  1  0  0  0  0
 10 11  1  0  0  0  0
 11 12  1  0  0  0  0
M  END
>  <CHROM.1>
-91.77448681,-67.22204780,-174.01337211,31.25731338,-22.34016012,5.23766802
-1.92102120,0.71268704,1.17236842

>  <Name>
ligand

>  <RI>
0

>  <Rbt.Current_Directory>
/home/itssahil/PROJECTS/Mol_Feturizer/New_Systems/rnas/4E8N

>  <Rbt.Executable>
rbdock ($Id: //depot/dev/client3/rdock/2013.1/src/exe/rbdock.cxx#4 $)

>  <Rbt.Library>
libRbt.so (2013.1, Build901 2013/11/27)

>  <Rbt.Parameter_File>
/export/apps/rDock/src/rDock_2013.1_src/data/scripts/dock_solv.prm

>  <Rbt.Receptor>
prm/pocket_docking_3.prm

>  <SCORE>
-8.15444

>  <SCORE.INTER>
-4.5535

>  <SCORE.INTER.CONST>
1

>  <SCORE.INTER.POLAR>
0

>  <SCORE.INTER.ROT>
3

>  <SCORE.INTER.SOLV>
4.55446

>  <SCORE.INTER.VDW>
-10.1538

>  <SCORE.INTER.norm>
-0.379458

>  <SCORE.INTRA>
-3.60094

>  <SCORE.INTRA.DIHEDRAL>
-3.32821

>  <SCORE.INTRA.DIHEDRAL.0>
5.0186

>  <SCORE.INTRA.POLAR>
0

>  <SCORE.INTRA.POLAR.0>
0

>  <SCORE.INTRA.REPUL>
0

>  <SCORE.INTRA.REPUL.0>
0

>  <SCORE.INTRA.SOLV>
0.616482

>  <SCORE.INTRA.SOLV.lig_0>
-16.1608

>  <SCORE.INTRA.VDW>
-2.24508

>  <SCORE.INTRA.VDW.0>
1.14169

>  <SCORE.INTRA.norm>
-0.300079

>  <SCORE.RESTR>
0

>  <SCORE.RESTR.CAVITY>
0

>  <SCORE.RESTR.norm>
0

>  <SCORE.SYSTEM>
0

>  <SCORE.SYSTEM.CONST>
0

>  <SCORE.SYSTEM.DIHEDRAL>
0

>  <SCORE.SYSTEM.SOLV>
0

>  <SCORE.SYSTEM.norm>
0

>  <SCORE.heavy>
12

>  <SCORE.norm>
-0.679537

>  <RMSD>
2.458

$$$$
ligand
 OpenBabel11021811493D
libRbt.so/2013.1/901 2013/11/27
 12 12  0  0  0  0  0  0  0  0999 V2000
   30.8626  -23.4867    4.1293 N   0  0  0  0  0  0  0  0  0  0  0  0
   32.0907  -20.7488    7.7645 O   0  0  0  0  0  0  0  0  0  0  0  0
   30.1102  -22.4136    3.4341 C   0  0  0  0  0  0  0  0  0  0  0  0
   31.4011  -20.6094    5.5113 O   0  0  0  0  0  0  0  0  0  0  0  0
   30.6052  -22.3354    1.9936 C   0  0  0  0  0  0  0  0  0  0  0  0
   29.7017  -20.7515    7.2795 O   0  0  0  0  0  0  0  0  0  0  0  0
   30.2869  -23.5852    1.2968 N   0  0  0  0  0  0  0  0  0  0  0  0
   29.6505  -24.4910    2.2564 C   0  0  0  0  0  0  0  0  0  0  0  0
   30.6582  -24.7341    3.3669 C   0  0  0  0  0  0  0  0  0  0  0  0
   30.5300  -23.6828    5.5963 C   0  0  0  0  0  0  0  0  0  0  0  0
   31.4023  -22.9055    6.6165 C   0  0  0  0  0  0  0  0  0  0  0  0
   31.1661  -21.2385    6.7850 S   0  0  0  0  0  0  0  0  0  0  0  0
  1  3  1  0  0  0  0
  1  9  1  0  0  0  0
  1 10  1  0  0  0  0
  2 12  1  0  0  0  0
  3  5  1  0  0  0  0
  4 12  2  0  0  0  0
  5  7  1  0  0  0  0
  6 12  2  0  0  0  0
  7  8  1  0  0  0  0
  8  9  1  0  0  0  0
 10 11  1  0  0  0  0
 11 12  1  0  0  0  0
M  END
>  <CHROM.1>
-92.55553306,74.02004170,-179.31934987,30.75975472,-22.39780993,4.93527674
-2.98912095,-1.40254029,-0.36055711

>  <Name>
ligand

>  <RI>
0

>  <Rbt.Current_Directory>
/home/itssahil/PROJECTS/Mol_Feturizer/New_Systems/rnas/4E8N

>  <Rbt.Executable>
rbdock ($Id: //depot/dev/client3/rdock/2013.1/src/exe/rbdock.cxx#4 $)

>  <Rbt.Library>
libRbt.so (2013.1, Build901 2013/11/27)

>  <Rbt.Parameter_File>
/export/apps/rDock/src/rDock_2013.1_src/data/scripts/dock_solv.prm

>  <Rbt.Receptor>
prm/pocket_docking_6.prm

>  <SCORE>
-9.75874

>  <SCORE.INTER>
-6.34474

>  <SCORE.INTER.CONST>
1

>  <SCORE.INTER.POLAR>
0

>  <SCORE.INTER.ROT>
3

>  <SCORE.INTER.SOLV>
7.69871

>  <SCORE.INTER.VDW>
-12.3961

>  <SCORE.INTER.norm>
-0.528728

>  <SCORE.INTRA>
-3.414

>  <SCORE.INTRA.DIHEDRAL>
-2.8574

>  <SCORE.INTRA.DIHEDRAL.0>
5.0186

>  <SCORE.INTRA.POLAR>
0

>  <SCORE.INTRA.POLAR.0>
0

>  <SCORE.INTRA.REPUL>
0

>  <SCORE.INTRA.REPUL.0>
0

>  <SCORE.INTRA.SOLV>
0.786577

>  <SCORE.INTRA.SOLV.lig_0>
-16.1608

>  <SCORE.INTRA.VDW>
-2.37858

>  <SCORE.INTRA.VDW.0>
1.14169

>  <SCORE.INTRA.norm>
-0.2845

>  <SCORE.RESTR>
0

>  <SCORE.RESTR.CAVITY>
0

>  <SCORE.RESTR.norm>
0

>  <SCORE.SYSTEM>
0

>  <SCORE.SYSTEM.CONST>
0

>  <SCORE.SYSTEM.DIHEDRAL>
0

>  <SCORE.SYSTEM.SOLV>
0

>  <SCORE.SYSTEM.norm>
0

>  <SCORE.heavy>
12

>  <SCORE.norm>
-0.813228

>  <RMSD>
2.458

$$$$
ligand
 OpenBabel11021811493D
libRbt.so/2013.1/901 2013/11/27
 12 12  0  0  0  0  0  0  0  0999 V2000
   31.2120  -23.9615    5.1677 N   0  0  0  0  0  0  0  0  0  0  0  0
   32.4865  -20.4920    8.7487 O   0  0  0  0  0  0  0  0  0  0  0  0
   32.0017  -23.6982    3.9397 C   0  0  0  0  0  0  0  0  0  0  0  0
   31.2126  -19.7288    6.9138 O   0  0  0  0  0  0  0  0  0  0  0  0
   32.3748  -25.0372    3.3119 C   0  0  0  0  0  0  0  0  0  0  0  0
   30.0728  -20.8315    8.7899 O   0  0  0  0  0  0  0  0  0  0  0  0
   31.1583  -25.7338    2.8829 N   0  0  0  0  0  0  0  0  0  0  0  0
   30.0063  -24.9125    3.2631 C   0  0  0  0  0  0  0  0  0  0  0  0
   30.0442  -24.7747    4.7755 C   0  0  0  0  0  0  0  0  0  0  0  0
   30.7850  -22.7365    5.9538 C   0  0  0  0  0  0  0  0  0  0  0  0
   31.7841  -22.2101    7.0172 C   0  0  0  0  0  0  0  0  0  0  0  0
   31.4015  -20.7952    7.8627 S   0  0  0  0  0  0  0  0  0  0  0  0
  1  3  1  0  0  0  0
  1  9  1  0  0  0  0
  1 10  1  0  0  0  0
  2 12  1  0  0  0  0
  3  5  1  0  0  0  0
  4 12  2  0  0  0  0
  5  7  1  0  0  0  0
  6 12  2  0  0  0  0
  7  8  1  0  0  0  0
  8  9  1  0  0  0  0
 10 11  1  0  0  0  0
 11 12  1  0  0  0  0
M  END
>  <CHROM.1>
-87.80930617,176.53362809,-178.20551750,31.23086146,-22.63183638,5.99524092
1.61141971,-0.27283789,-2.32771170

>  <Name>
ligand

>  <RI>
0

>  <Rbt.Current_Directory>
/home/itssahil/PROJECTS/Mol_Feturizer/New_Systems/rnas/4E8N

>  <Rbt.Executable>
rbdock ($Id: //depot/dev/client3/rdock/2013.1/src/exe/rbdock.cxx#4 $)

>  <Rbt.Library>
libRbt.so (2013.1, Build901 2013/11/27)

>  <Rbt.Parameter_File>
/export/apps/rDock/src/rDock_2013.1_src/data/scripts/dock_solv.prm

>  <Rbt.Receptor>
prm/pocket_docking_4.prm

>  <SCORE>
-11.6939

>  <SCORE.INTER>
-7.99582

>  <SCORE.INTER.CONST>
1

>  <SCORE.INTER.POLAR>
0

>  <SCORE.INTER.ROT>
3

>  <SCORE.INTER.SOLV>
6.58294

>  <SCORE.INTER.VDW>
-13.1249

>  <SCORE.INTER.norm>
-0.666319

>  <SCORE.INTRA>
-3.69805

>  <SCORE.INTRA.DIHEDRAL>
-3.81029

>  <SCORE.INTRA.DIHEDRAL.0>
5.0186

>  <SCORE.INTRA.POLAR>
0

>  <SCORE.INTRA.POLAR.0>
0

>  <SCORE.INTRA.REPUL>
0

>  <SCORE.INTRA.REPUL.0>
0

>  <SCORE.INTRA.SOLV>
0.0686919

>  <SCORE.INTRA.SOLV.lig_0>
-16.1608

>  <SCORE.INTRA.VDW>
-1.82726

>  <SCORE.INTRA.VDW.0>
1.14169

>  <SCORE.INTRA.norm>
-0.308171

>  <SCORE.RESTR>
0

>  <SCORE.RESTR.CAVITY>
0

>  <SCORE.RESTR.norm>
0

>  <SCORE.SYSTEM>
0

>  <SCORE.SYSTEM.CONST>
0

>  <SCORE.SYSTEM.DIHEDRAL>
0

>  <SCORE.SYSTEM.SOLV>
0

>  <SCORE.SYSTEM.norm>
0

>  <SCORE.heavy>
12

>  <SCORE.norm>
-0.97449

>  <RMSD>
2.461

$$$$
ligand
 OpenBabel11021811493D
libRbt.so/2013.1/901 2013/11/27
 12 12  0  0  0  0  0  0  0  0999 V2000
   30.8697  -23.4807    4.1083 N   0  0  0  0  0  0  0  0  0  0  0  0
   32.0910  -20.7287    7.7251 O   0  0  0  0  0  0  0  0  0  0  0  0
   30.0927  -22.4211    3.4195 C   0  0  0  0  0  0  0  0  0  0  0  0
   31.3670  -20.6058    5.4818 O   0  0  0  0  0  0  0  0  0  0  0  0
   30.5787  -22.3299    1.9767 C   0  0  0  0  0  0  0  0  0  0  0  0
   29.6954  -20.7635    7.2750 O   0  0  0  0  0  0  0  0  0  0  0  0
   30.2814  -23.5842    1.2786 N   0  0  0  0  0  0  0  0  0  0  0  0
   29.6680  -24.5045    2.2393 C   0  0  0  0  0  0  0  0  0  0  0  0
   30.6860  -24.7302    3.3441 C   0  0  0  0  0  0  0  0  0  0  0  0
   30.5486  -23.6866    5.5765 C   0  0  0  0  0  0  0  0  0  0  0  0
   31.4135  -22.8980    6.5943 C   0  0  0  0  0  0  0  0  0  0  0  0
   31.1586  -21.2335    6.7608 S   0  0  0  0  0  0  0  0  0  0  0  0
  1  3  1  0  0  0  0
  1  9  1  0  0  0  0
  1 10  1  0  0  0  0
  2 12  1  0  0  0  0
  3  5  1  0  0  0  0
  4 12  2  0  0  0  0
  5  7  1  0  0  0  0
  6 12  2  0  0  0  0
  7  8  1  0  0  0  0
  8  9  1  0  0  0  0
 10 11  1  0  0  0  0
 11 12  1  0  0  0  0
M  END
>  <CHROM.1>
-92.73932938,73.57133890,-178.56486318,30.75753981,-22.39608143,4.91398780
-2.88426693,-1.40071358,-0.25591603

>  <Name>
ligand

>  <RI>
0

>  <Rbt.Current_Directory>
/home/itssahil/PROJECTS/Mol_Feturizer/New_Systems/rnas/4E8N

>  <Rbt.Executable>
rbdock ($Id: //depot/dev/client3/rdock/2013.1/src/exe/rbdock.cxx#4 $)

>  <Rbt.Library>
libRbt.so (2013.1, Build901 2013/11/27)

>  <Rbt.Parameter_File>
/export/apps/rDock/src/rDock_2013.1_src/data/scripts/dock_solv.prm

>  <Rbt.Receptor>
prm/pocket_docking_5.prm

>  <SCORE>
-9.73433

>  <SCORE.INTER>
-6.31822

>  <SCORE.INTER.CONST>
1

>  <SCORE.INTER.POLAR>
0

>  <SCORE.INTER.ROT>
3

>  <SCORE.INTER.SOLV>
7.73588

>  <SCORE.INTER.VDW>
-12.3908

>  <SCORE.INTER.norm>
-0.526519

>  <SCORE.INTRA>
-3.4161

>  <SCORE.INTRA.DIHEDRAL>
-2.88413

>  <SCORE.INTRA.DIHEDRAL.0>
5.0186

>  <SCORE.INTRA.POLAR>
0

>  <SCORE.INTRA.POLAR.0>
0

>  <SCORE.INTRA.REPUL>
0

>  <SCORE.INTRA.REPUL.0>
0

>  <SCORE.INTRA.SOLV>
0.79216

>  <SCORE.INTRA.SOLV.lig_0>
-16.1608

>  <SCORE.INTRA.VDW>
-2.37012

>  <SCORE.INTRA.VDW.0>
1.14169

>  <SCORE.INTRA.norm>
-0.284675

>  <SCORE.RESTR>
0

>  <SCORE.RESTR.CAVITY>
0

>  <SCORE.RESTR.norm>
0

>  <SCORE.SYSTEM>
0

>  <SCORE.SYSTEM.CONST>
0

>  <SCORE.SYSTEM.DIHEDRAL>
0

>  <SCORE.SYSTEM.SOLV>
0

>  <SCORE.SYSTEM.norm>
0

>  <SCORE.heavy>
12

>  <SCORE.norm>
-0.811194

>  <RMSD>
2.464

$$$$
ligand
 OpenBabel11021811493D
libRbt.so/2013.1/901 2013/11/27
 12 12  0  0  0  0  0  0  0  0999 V2000
   30.8715  -23.4832    4.1153 N   0  0  0  0  0  0  0  0  0  0  0  0
   32.0980  -20.7357    7.7354 O   0  0  0  0  0  0  0  0  0  0  0  0
   30.0906  -22.4299    3.4214 C   0  0  0  0  0  0  0  0  0  0  0  0
   31.3912  -20.6103    5.4868 O   0  0  0  0  0  0  0  0  0  0  0  0
   30.5800  -22.3399    1.9797 C   0  0  0  0  0  0  0  0  0  0  0  0
   29.7055  -20.7555    7.2679 O   0  0  0  0  0  0  0  0  0  0  0  0
   30.2917  -23.5978    1.2843 N   0  0  0  0  0  0  0  0  0  0  0  0
   29.6807  -24.5189    2.2458 C   0  0  0  0  0  0  0  0  0  0  0  0
   30.6969  -24.7358    3.3540 C   0  0  0  0  0  0  0  0  0  0  0  0
   30.5476  -23.6868    5.5832 C   0  0  0  0  0  0  0  0  0  0  0  0
   31.4148  -22.9016    6.6017 C   0  0  0  0  0  0  0  0  0  0  0  0
   31.1694  -21.2354    6.7648 S   0  0  0  0  0  0  0  0  0  0  0  0
  1  3  1  0  0  0  0
  1  9  1  0  0  0  0
  1 10  1  0  0  0  0
  2 12  1  0  0  0  0
  3  5  1  0  0  0  0
  4 12  2  0  0  0  0
  5  7  1  0  0  0  0
  6 12  2  0  0  0  0
  7  8  1  0  0  0  0
  8  9  1  0  0  0  0
 10 11  1  0  0  0  0
 11 12  1  0  0  0  0
M  END
>  <CHROM.1>
-93.34316710,73.45226115,-178.85150662,30.76536360,-22.40096507,4.91885529
-2.88422861,-1.40001498,-0.25744306

>  <Name>
ligand

>  <RI>
0

>  <Rbt.Current_Directory>
/home/itssahil/PROJECTS/Mol_Feturizer/New_Systems/rnas/4E8N

>  <Rbt.Executable>
rbdock ($Id: //depot/dev/client3/rdock/2013.1/src/exe/rbdock.cxx#4 $)

>  <Rbt.Library>
libRbt.so (2013.1, Build901 2013/11/27)

>  <Rbt.Parameter_File>
/export/apps/rDock/src/rDock_2013.1_src/data/scripts/dock_solv.prm

>  <Rbt.Receptor>
prm/pocket_docking_3.prm

>  <SCORE>
-9.75329

>  <SCORE.INTER>
-6.33083

>  <SCORE.INTER.CONST>
1

>  <SCORE.INTER.POLAR>
0

>  <SCORE.INTER.ROT>
3

>  <SCORE.INTER.SOLV>
7.69813

>  <SCORE.INTER.VDW>
-12.3866

>  <SCORE.INTER.norm>
-0.527569

>  <SCORE.INTRA>
-3.42246

>  <SCORE.INTRA.DIHEDRAL>
-2.8607

>  <SCORE.INTRA.DIHEDRAL.0>
5.0186

>  <SCORE.INTRA.POLAR>
0

>  <SCORE.INTRA.POLAR.0>
0

>  <SCORE.INTRA.REPUL>
0

>  <SCORE.INTRA.REPUL.0>
0

>  <SCORE.INTRA.SOLV>
0.789479

>  <SCORE.INTRA.SOLV.lig_0>
-16.1608

>  <SCORE.INTRA.VDW>
-2.38685

>  <SCORE.INTRA.VDW.0>
1.14169

>  <SCORE.INTRA.norm>
-0.285205

>  <SCORE.RESTR>
0

>  <SCORE.RESTR.CAVITY>
0

>  <SCORE.RESTR.norm>
0

>  <SCORE.SYSTEM>
0

>  <SCORE.SYSTEM.CONST>
0

>  <SCORE.SYSTEM.DIHEDRAL>
0

>  <SCORE.SYSTEM.SOLV>
0

>  <SCORE.SYSTEM.norm>
0

>  <SCORE.heavy>
12

>  <SCORE.norm>
-0.812774

>  <RMSD>
2.468

$$$$
ligand
 OpenBabel11021811493D
libRbt.so/2013.1/901 2013/11/27
 12 12  0  0  0  0  0  0  0  0999 V2000
   30.8534  -23.4853    4.1233 N   0  0  0  0  0  0  0  0  0  0  0  0
   32.1188  -20.7901    7.7690 O   0  0  0  0  0  0  0  0  0  0  0  0
   30.1040  -22.4080    3.4314 C   0  0  0  0  0  0  0  0  0  0  0  0
   31.4224  -20.6328    5.5191 O   0  0  0  0  0  0  0  0  0  0  0  0
   30.6054  -22.3209    1.9936 C   0  0  0  0  0  0  0  0  0  0  0  0
   29.7281  -20.7544    7.2937 O   0  0  0  0  0  0  0  0  0  0  0  0
   30.2901  -23.5664    1.2878 N   0  0  0  0  0  0  0  0  0  0  0  0
   29.6496  -24.4781    2.2390 C   0  0  0  0  0  0  0  0  0  0  0  0
   30.6524  -24.7280    3.3524 C   0  0  0  0  0  0  0  0  0  0  0  0
   30.5143  -23.6904    5.5876 C   0  0  0  0  0  0  0  0  0  0  0  0
   31.3926  -22.9323    6.6171 C   0  0  0  0  0  0  0  0  0  0  0  0
   31.1829  -21.2623    6.7917 S   0  0  0  0  0  0  0  0  0  0  0  0
  1  3  1  0  0  0  0
  1  9  1  0  0  0  0
  1 10  1  0  0  0  0
  2 12  1  0  0  0  0
  3  5  1  0  0  0  0
  4 12  2  0  0  0  0
  5  7  1  0  0  0  0
  6 12  2  0  0  0  0
  7  8  1  0  0  0  0
  8  9  1  0  0  0  0
 10 11  1  0  0  0  0
 11 12  1  0  0  0  0
M  END
>  <CHROM.1>
-93.24345434,73.59257622,-178.70672903,30.76564335,-22.40559257,4.93439842
-3.03222184,-1.39959538,-0.39641078

>  <Name>
ligand

>  <RI>
0

>  <Rbt.Current_Directory>
/home/itssahil/PROJECTS/Mol_Feturizer/New_Systems/rnas/4E8N

>  <Rbt.Executable>
rbdock ($Id: //depot/dev/client3/rdock/2013.1/src/exe/rbdock.cxx#4 $)

>  <Rbt.Library>
libRbt.so (2013.1, Build901 2013/11/27)

>  <Rbt.Parameter_File>
/export/apps/rDock/src/rDock_2013.1_src/data/scripts/dock_solv.prm

>  <Rbt.Receptor>
prm/pocket_docking_4.prm

>  <SCORE>
-9.74579

>  <SCORE.INTER>
-6.33172

>  <SCORE.INTER.CONST>
1

>  <SCORE.INTER.POLAR>
0

>  <SCORE.INTER.ROT>
3

>  <SCORE.INTER.SOLV>
7.70269

>  <SCORE.INTER.VDW>
-12.3887

>  <SCORE.INTER.norm>
-0.527644

>  <SCORE.INTRA>
-3.41407

>  <SCORE.INTRA.DIHEDRAL>
-2.85252

>  <SCORE.INTRA.DIHEDRAL.0>
5.0186

>  <SCORE.INTRA.POLAR>
0

>  <SCORE.INTRA.POLAR.0>
0

>  <SCORE.INTRA.REPUL>
0

>  <SCORE.INTRA.REPUL.0>
0

>  <SCORE.INTRA.SOLV>
0.788828

>  <SCORE.INTRA.SOLV.lig_0>
-16.1608

>  <SCORE.INTRA.VDW>
-2.38222

>  <SCORE.INTRA.VDW.0>
1.14169

>  <SCORE.INTRA.norm>
-0.284506

>  <SCORE.RESTR>
0

>  <SCORE.RESTR.CAVITY>
0

>  <SCORE.RESTR.norm>
0

>  <SCORE.SYSTEM>
0

>  <SCORE.SYSTEM.CONST>
0

>  <SCORE.SYSTEM.DIHEDRAL>
0

>  <SCORE.SYSTEM.SOLV>
0

>  <SCORE.SYSTEM.norm>
0

>  <SCORE.heavy>
12

>  <SCORE.norm>
-0.812149

>  <RMSD>
2.469

$$$$
ligand
 OpenBabel11021811493D
libRbt.so/2013.1/901 2013/11/27
 12 12  0  0  0  0  0  0  0  0999 V2000
   30.8451  -23.4509    4.1247 N   0  0  0  0  0  0  0  0  0  0  0  0
   32.1089  -20.8087    7.7748 O   0  0  0  0  0  0  0  0  0  0  0  0
   30.0305  -22.4156    3.4426 C   0  0  0  0  0  0  0  0  0  0  0  0
   31.4177  -20.6580    5.5229 O   0  0  0  0  0  0  0  0  0  0  0  0
   30.5369  -22.2714    2.0112 C   0  0  0  0  0  0  0  0  0  0  0  0
   29.7194  -20.7558    7.2951 O   0  0  0  0  0  0  0  0  0  0  0  0
   30.3127  -23.5238    1.2829 N   0  0  0  0  0  0  0  0  0  0  0  0
   29.7273  -24.4920    2.2136 C   0  0  0  0  0  0  0  0  0  0  0  0
   30.7353  -24.6916    3.3325 C   0  0  0  0  0  0  0  0  0  0  0  0
   30.5084  -23.7022    5.5823 C   0  0  0  0  0  0  0  0  0  0  0  0
   31.3669  -22.9510    6.6333 C   0  0  0  0  0  0  0  0  0  0  0  0
   31.1707  -21.2785    6.7985 S   0  0  0  0  0  0  0  0  0  0  0  0
  1  3  1  0  0  0  0
  1  9  1  0  0  0  0
  1 10  1  0  0  0  0
  2 12  1  0  0  0  0
  3  5  1  0  0  0  0
  4 12  2  0  0  0  0
  5  7  1  0  0  0  0
  6 12  2  0  0  0  0
  7  8  1  0  0  0  0
  8  9  1  0  0  0  0
 10 11  1  0  0  0  0
 11 12  1  0  0  0  0
M  END
>  <CHROM.1>
-95.87677617,70.66427982,-177.24300430,30.76177117,-22.40397220,4.93577151
-2.82511758,-1.39718012,-0.17803040

>  <Name>
ligand

>  <RI>
0

>  <Rbt.Current_Directory>
/home/itssahil/PROJECTS/Mol_Feturizer/New_Systems/rnas/4E8N

>  <Rbt.Executable>
rbdock ($Id: //depot/dev/client3/rdock/2013.1/src/exe/rbdock.cxx#4 $)

>  <Rbt.Library>
libRbt.so (2013.1, Build901 2013/11/27)

>  <Rbt.Parameter_File>
/export/apps/rDock/src/rDock_2013.1_src/data/scripts/dock_solv.prm

>  <Rbt.Receptor>
prm/pocket_docking_3.prm

>  <SCORE>
-9.78483

>  <SCORE.INTER>
-6.30995

>  <SCORE.INTER.CONST>
1

>  <SCORE.INTER.POLAR>
0

>  <SCORE.INTER.ROT>
3

>  <SCORE.INTER.SOLV>
7.77337

>  <SCORE.INTER.VDW>
-12.3978

>  <SCORE.INTER.norm>
-0.525829

>  <SCORE.INTRA>
-3.47488

>  <SCORE.INTRA.DIHEDRAL>
-2.93005

>  <SCORE.INTRA.DIHEDRAL.0>
5.0186

>  <SCORE.INTRA.POLAR>
0

>  <SCORE.INTRA.POLAR.0>
0

>  <SCORE.INTRA.REPUL>
0

>  <SCORE.INTRA.REPUL.0>
0

>  <SCORE.INTRA.SOLV>
0.808621

>  <SCORE.INTRA.SOLV.lig_0>
-16.1608

>  <SCORE.INTRA.VDW>
-2.41417

>  <SCORE.INTRA.VDW.0>
1.14169

>  <SCORE.INTRA.norm>
-0.289574

>  <SCORE.RESTR>
0

>  <SCORE.RESTR.CAVITY>
0

>  <SCORE.RESTR.norm>
0

>  <SCORE.SYSTEM>
0

>  <SCORE.SYSTEM.CONST>
0

>  <SCORE.SYSTEM.DIHEDRAL>
0

>  <SCORE.SYSTEM.SOLV>
0

>  <SCORE.SYSTEM.norm>
0

>  <SCORE.heavy>
12

>  <SCORE.norm>
-0.815403

>  <RMSD>
2.474

$$$$
ligand
 OpenBabel11021811493D
libRbt.so/2013.1/901 2013/11/27
 12 12  0  0  0  0  0  0  0  0999 V2000
   31.4720  -21.7835    6.2459 N   0  0  0  0  0  0  0  0  0  0  0  0
   33.5282  -18.4113    9.4956 O   0  0  0  0  0  0  0  0  0  0  0  0
   30.8844  -23.1218    5.9915 C   0  0  0  0  0  0  0  0  0  0  0  0
   31.7086  -19.5687   10.4554 O   0  0  0  0  0  0  0  0  0  0  0  0
   30.5941  -23.2434    4.4992 C   0  0  0  0  0  0  0  0  0  0  0  0
   33.8655  -20.7180   10.2081 O   0  0  0  0  0  0  0  0  0  0  0  0
   31.8525  -23.1920    3.7488 N   0  0  0  0  0  0  0  0  0  0  0  0
   32.9433  -22.9857    4.7046 C   0  0  0  0  0  0  0  0  0  0  0  0
   32.6751  -21.6615    5.3993 C   0  0  0  0  0  0  0  0  0  0  0  0
   31.7897  -21.4661    7.6949 C   0  0  0  0  0  0  0  0  0  0  0  0
   32.2455  -20.0162    8.0048 C   0  0  0  0  0  0  0  0  0  0  0  0
   32.8272  -19.6600    9.5534 S   0  0  0  0  0  0  0  0  0  0  0  0
  1  3  1  0  0  0  0
  1  9  1  0  0  0  0
  1 10  1  0  0  0  0
  2 12  1  0  0  0  0
  3  5  1  0  0  0  0
  4 12  2  0  0  0  0
  5  7  1  0  0  0  0
  6 12  2  0  0  0  0
  7  8  1  0  0  0  0
  8  9  1  0  0  0  0
 10 11  1  0  0  0  0
 11 12  1  0  0  0  0
M  END
>  <CHROM.1>
-172.96579473,-171.24105995,163.68838827,32.28361704,-21.10917026,7.47998872
1.79006235,-0.36110191,-2.08087938

>  <Name>
ligand

>  <RI>
0

>  <Rbt.Current_Directory>
/home/itssahil/PROJECTS/Mol_Feturizer/New_Systems/rnas/4E8N

>  <Rbt.Executable>
rbdock ($Id: //depot/dev/client3/rdock/2013.1/src/exe/rbdock.cxx#4 $)

>  <Rbt.Library>
libRbt.so (2013.1, Build901 2013/11/27)

>  <Rbt.Parameter_File>
/export/apps/rDock/src/rDock_2013.1_src/data/scripts/dock_solv.prm

>  <Rbt.Receptor>
prm/pocket_docking_8.prm

>  <SCORE>
-10.3799

>  <SCORE.INTER>
-7.01265

>  <SCORE.INTER.CONST>
1

>  <SCORE.INTER.POLAR>
0

>  <SCORE.INTER.ROT>
3

>  <SCORE.INTER.SOLV>
5.8905

>  <SCORE.INTER.VDW>
-12.2386

>  <SCORE.INTER.norm>
-0.584387

>  <SCORE.INTRA>
-3.36726

>  <SCORE.INTRA.DIHEDRAL>
-4.07928

>  <SCORE.INTRA.DIHEDRAL.0>
5.0186

>  <SCORE.INTRA.POLAR>
0

>  <SCORE.INTRA.POLAR.0>
0

>  <SCORE.INTRA.REPUL>
0

>  <SCORE.INTRA.REPUL.0>
0

>  <SCORE.INTRA.SOLV>
0.0750742

>  <SCORE.INTRA.SOLV.lig_0>
-16.1608

>  <SCORE.INTRA.VDW>
-1.36516

>  <SCORE.INTRA.VDW.0>
1.14169

>  <SCORE.INTRA.norm>
-0.280605

>  <SCORE.RESTR>
0

>  <SCORE.RESTR.CAVITY>
0

>  <SCORE.RESTR.norm>
0

>  <SCORE.SYSTEM>
0

>  <SCORE.SYSTEM.CONST>
0

>  <SCORE.SYSTEM.DIHEDRAL>
0

>  <SCORE.SYSTEM.SOLV>
0

>  <SCORE.SYSTEM.norm>
0

>  <SCORE.heavy>
12

>  <SCORE.norm>
-0.864993

>  <RMSD>
2.485

$$$$
ligand
 OpenBabel11021811493D
libRbt.so/2013.1/901 2013/11/27
 12 12  0  0  0  0  0  0  0  0999 V2000
   30.8244  -23.5401    4.1076 N   0  0  0  0  0  0  0  0  0  0  0  0
   32.1007  -20.7265    7.6925 O   0  0  0  0  0  0  0  0  0  0  0  0
   30.1106  -22.4507    3.3974 C   0  0  0  0  0  0  0  0  0  0  0  0
   31.3506  -20.6016    5.4579 O   0  0  0  0  0  0  0  0  0  0  0  0
   30.5858  -22.4295    1.9483 C   0  0  0  0  0  0  0  0  0  0  0  0
   29.6999  -20.7558    7.2707 O   0  0  0  0  0  0  0  0  0  0  0  0
   30.2000  -23.6798    1.2872 N   0  0  0  0  0  0  0  0  0  0  0  0
   29.5385  -24.5324    2.2780 C   0  0  0  0  0  0  0  0  0  0  0  0
   30.5516  -24.7947    3.3792 C   0  0  0  0  0  0  0  0  0  0  0  0
   30.5065  -23.6858    5.5838 C   0  0  0  0  0  0  0  0  0  0  0  0
   31.4051  -22.8940    6.5695 C   0  0  0  0  0  0  0  0  0  0  0  0
   31.1559  -21.2290    6.7392 S   0  0  0  0  0  0  0  0  0  0  0  0
  1  3  1  0  0  0  0
  1  9  1  0  0  0  0
  1 10  1  0  0  0  0
  2 12  1  0  0  0  0
  3  5  1  0  0  0  0
  4 12  2  0  0  0  0
  5  7  1  0  0  0  0
  6 12  2  0  0  0  0
  7  8  1  0  0  0  0
  8  9  1  0  0  0  0
 10 11  1  0  0  0  0
 11 12  1  0  0  0  0
M  END
>  <CHROM.1>
-90.92831319,76.62475821,-179.82714191,30.72657423,-22.42124780,4.90634275
-3.10887268,-1.39299291,-0.49871472

>  <Name>
ligand

>  <RI>
0

>  <Rbt.Current_Directory>
/home/itssahil/PROJECTS/Mol_Feturizer/New_Systems/rnas/4E8N

>  <Rbt.Executable>
rbdock ($Id: //depot/dev/client3/rdock/2013.1/src/exe/rbdock.cxx#4 $)

>  <Rbt.Library>
libRbt.so (2013.1, Build901 2013/11/27)

>  <Rbt.Parameter_File>
/export/apps/rDock/src/rDock_2013.1_src/data/scripts/dock_solv.prm

>  <Rbt.Receptor>
prm/pocket_docking_3.prm

>  <SCORE>
-9.71813

>  <SCORE.INTER>
-6.40474

>  <SCORE.INTER.CONST>
1

>  <SCORE.INTER.POLAR>
0

>  <SCORE.INTER.ROT>
3

>  <SCORE.INTER.SOLV>
7.77303

>  <SCORE.INTER.VDW>
-12.4608

>  <SCORE.INTER.norm>
-0.533728

>  <SCORE.INTRA>
-3.31339

>  <SCORE.INTRA.DIHEDRAL>
-2.68923

>  <SCORE.INTRA.DIHEDRAL.0>
5.0186

>  <SCORE.INTRA.POLAR>
0

>  <SCORE.INTRA.POLAR.0>
0

>  <SCORE.INTRA.REPUL>
0

>  <SCORE.INTRA.REPUL.0>
0

>  <SCORE.INTRA.SOLV>
0.76495

>  <SCORE.INTRA.SOLV.lig_0>
-16.1608

>  <SCORE.INTRA.VDW>
-2.35125

>  <SCORE.INTRA.VDW.0>
1.14169

>  <SCORE.INTRA.norm>
-0.276116

>  <SCORE.RESTR>
0

>  <SCORE.RESTR.CAVITY>
0

>  <SCORE.RESTR.norm>
0

>  <SCORE.SYSTEM>
0

>  <SCORE.SYSTEM.CONST>
0

>  <SCORE.SYSTEM.DIHEDRAL>
0

>  <SCORE.SYSTEM.SOLV>
0

>  <SCORE.SYSTEM.norm>
0

>  <SCORE.heavy>
12

>  <SCORE.norm>
-0.809844

>  <RMSD>
2.487

$$$$
ligand
 OpenBabel11021811493D
libRbt.so/2013.1/901 2013/11/27
 12 12  0  0  0  0  0  0  0  0999 V2000
   30.8662  -23.5900    4.1275 N   0  0  0  0  0  0  0  0  0  0  0  0
   32.1069  -20.8451    7.7872 O   0  0  0  0  0  0  0  0  0  0  0  0
   30.2700  -22.4373    3.4086 C   0  0  0  0  0  0  0  0  0  0  0  0
   31.4576  -20.6710    5.5245 O   0  0  0  0  0  0  0  0  0  0  0  0
   30.7953  -22.4401    1.9768 C   0  0  0  0  0  0  0  0  0  0  0  0
   29.7268  -20.7806    7.2643 O   0  0  0  0  0  0  0  0  0  0  0  0
   30.3305  -23.6467    1.2860 N   0  0  0  0  0  0  0  0  0  0  0  0
   29.5667  -24.4520    2.2423 C   0  0  0  0  0  0  0  0  0  0  0  0
   30.5159  -24.8096    3.3733 C   0  0  0  0  0  0  0  0  0  0  0  0
   30.4864  -23.7246    5.5900 C   0  0  0  0  0  0  0  0  0  0  0  0
   31.3801  -22.9743    6.6119 C   0  0  0  0  0  0  0  0  0  0  0  0
   31.1856  -21.3028    6.7894 S   0  0  0  0  0  0  0  0  0  0  0  0
  1  3  1  0  0  0  0
  1  9  1  0  0  0  0
  1 10  1  0  0  0  0
  2 12  1  0  0  0  0
  3  5  1  0  0  0  0
  4 12  2  0  0  0  0
  5  7  1  0  0  0  0
  6 12  2  0  0  0  0
  7  8  1  0  0  0  0
  8  9  1  0  0  0  0
 10 11  1  0  0  0  0
 11 12  1  0  0  0  0
M  END
>  <CHROM.1>
-88.56587590,77.24406154,179.61035648,30.77880760,-22.45619379,4.93236643
2.74727191,-1.39002094,-0.91151776

>  <Name>
ligand

>  <RI>
0

>  <Rbt.Current_Directory>
/home/itssahil/PROJECTS/Mol_Feturizer/New_Systems/rnas/4E8N

>  <Rbt.Executable>
rbdock ($Id: //depot/dev/client3/rdock/2013.1/src/exe/rbdock.cxx#4 $)

>  <Rbt.Library>
libRbt.so (2013.1, Build901 2013/11/27)

>  <Rbt.Parameter_File>
/export/apps/rDock/src/rDock_2013.1_src/data/scripts/dock_solv.prm

>  <Rbt.Receptor>
prm/pocket_docking_3.prm

>  <SCORE>
-9.64855

>  <SCORE.INTER>
-6.33898

>  <SCORE.INTER.CONST>
1

>  <SCORE.INTER.POLAR>
0

>  <SCORE.INTER.ROT>
3

>  <SCORE.INTER.SOLV>
7.64637

>  <SCORE.INTER.VDW>
-12.3748

>  <SCORE.INTER.norm>
-0.528248

>  <SCORE.INTRA>
-3.30957

>  <SCORE.INTRA.DIHEDRAL>
-2.76793

>  <SCORE.INTRA.DIHEDRAL.0>
5.0186

>  <SCORE.INTRA.POLAR>
0

>  <SCORE.INTRA.POLAR.0>
0

>  <SCORE.INTRA.REPUL>
0

>  <SCORE.INTRA.REPUL.0>
0

>  <SCORE.INTRA.SOLV>
0.768798

>  <SCORE.INTRA.SOLV.lig_0>
-16.1608

>  <SCORE.INTRA.VDW>
-2.31001

>  <SCORE.INTRA.VDW.0>
1.14169

>  <SCORE.INTRA.norm>
-0.275798

>  <SCORE.RESTR>
0

>  <SCORE.RESTR.CAVITY>
0

>  <SCORE.RESTR.norm>
0

>  <SCORE.SYSTEM>
0

>  <SCORE.SYSTEM.CONST>
0

>  <SCORE.SYSTEM.DIHEDRAL>
0

>  <SCORE.SYSTEM.SOLV>
0

>  <SCORE.SYSTEM.norm>
0

>  <SCORE.heavy>
12

>  <SCORE.norm>
-0.804046

>  <RMSD>
2.495

$$$$
ligand
 OpenBabel11021811493D
libRbt.so/2013.1/901 2013/11/27
 12 12  0  0  0  0  0  0  0  0999 V2000
   31.7325  -21.5896    5.9664 N   0  0  0  0  0  0  0  0  0  0  0  0
   33.6678  -20.4948    9.9969 O   0  0  0  0  0  0  0  0  0  0  0  0
   31.3142  -22.9398    6.4168 C   0  0  0  0  0  0  0  0  0  0  0  0
   33.3578  -18.4309    8.8942 O   0  0  0  0  0  0  0  0  0  0  0  0
   30.4822  -23.5793    5.3101 C   0  0  0  0  0  0  0  0  0  0  0  0
   31.8737  -19.0302   10.7578 O   0  0  0  0  0  0  0  0  0  0  0  0
   31.3165  -23.7772    4.1211 N   0  0  0  0  0  0  0  0  0  0  0  0
   32.6478  -23.2356    4.4049 C   0  0  0  0  0  0  0  0  0  0  0  0
   32.4675  -21.7558    4.6972 C   0  0  0  0  0  0  0  0  0  0  0  0
   32.5409  -20.7814    6.9637 C   0  0  0  0  0  0  0  0  0  0  0  0
   31.8145  -20.3595    8.2677 C   0  0  0  0  0  0  0  0  0  0  0  0
   32.7019  -19.5735    9.4752 S   0  0  0  0  0  0  0  0  0  0  0  0
  1  3  1  0  0  0  0
  1  9  1  0  0  0  0
  1 10  1  0  0  0  0
  2 12  1  0  0  0  0
  3  5  1  0  0  0  0
  4 12  2  0  0  0  0
  5  7  1  0  0  0  0
  6 12  2  0  0  0  0
  7  8  1  0  0  0  0
  8  9  1  0  0  0  0
 10 11  1  0  0  0  0
 11 12  1  0  0  0  0
M  END
>  <CHROM.1>
-65.41872906,174.77256810,-66.21792286,32.23560576,-21.07291967,7.41417764
-1.81883138,0.73272309,1.08955199

>  <Name>
ligand

>  <RI>
0

>  <Rbt.Current_Directory>
/home/itssahil/PROJECTS/Mol_Feturizer/New_Systems/rnas/4E8N

>  <Rbt.Executable>
rbdock ($Id: //depot/dev/client3/rdock/2013.1/src/exe/rbdock.cxx#4 $)

>  <Rbt.Library>
libRbt.so (2013.1, Build901 2013/11/27)

>  <Rbt.Parameter_File>
/export/apps/rDock/src/rDock_2013.1_src/data/scripts/dock_solv.prm

>  <Rbt.Receptor>
prm/pocket_docking_5.prm

>  <SCORE>
-11.2186

>  <SCORE.INTER>
-7.2181

>  <SCORE.INTER.CONST>
1

>  <SCORE.INTER.POLAR>
0

>  <SCORE.INTER.ROT>
3

>  <SCORE.INTER.SOLV>
4.04467

>  <SCORE.INTER.VDW>
-11.7603

>  <SCORE.INTER.norm>
-0.601508

>  <SCORE.INTRA>
-4.00051

>  <SCORE.INTRA.DIHEDRAL>
-4.74915

>  <SCORE.INTRA.DIHEDRAL.0>
5.0186

>  <SCORE.INTRA.POLAR>
0

>  <SCORE.INTRA.POLAR.0>
0

>  <SCORE.INTRA.REPUL>
0

>  <SCORE.INTRA.REPUL.0>
0

>  <SCORE.INTRA.SOLV>
-0.0960469

>  <SCORE.INTRA.SOLV.lig_0>
-16.1608

>  <SCORE.INTRA.VDW>
-1.57791

>  <SCORE.INTRA.VDW.0>
1.14169

>  <SCORE.INTRA.norm>
-0.333376

>  <SCORE.RESTR>
0

>  <SCORE.RESTR.CAVITY>
0

>  <SCORE.RESTR.norm>
0

>  <SCORE.SYSTEM>
0

>  <SCORE.SYSTEM.CONST>
0

>  <SCORE.SYSTEM.DIHEDRAL>
0

>  <SCORE.SYSTEM.SOLV>
0

>  <SCORE.SYSTEM.norm>
0

>  <SCORE.heavy>
12

>  <SCORE.norm>
-0.934884

>  <RMSD>
2.520

$$$$
ligand
 OpenBabel11021811493D
libRbt.so/2013.1/901 2013/11/27
 12 12  0  0  0  0  0  0  0  0999 V2000
   31.1026  -23.8006    4.9166 N   0  0  0  0  0  0  0  0  0  0  0  0
   31.6903  -19.7306    6.9380 O   0  0  0  0  0  0  0  0  0  0  0  0
   31.3756  -23.3113    3.5430 C   0  0  0  0  0  0  0  0  0  0  0  0
   30.4793  -21.0052    8.5130 O   0  0  0  0  0  0  0  0  0  0  0  0
   31.7246  -24.5096    2.6664 C   0  0  0  0  0  0  0  0  0  0  0  0
   32.8628  -20.5602    8.9077 O   0  0  0  0  0  0  0  0  0  0  0  0
   30.5641  -25.4000    2.5679 N   0  0  0  0  0  0  0  0  0  0  0  0
   29.4928  -24.8435    3.3979 C   0  0  0  0  0  0  0  0  0  0  0  0
   30.0184  -24.7980    4.8225 C   0  0  0  0  0  0  0  0  0  0  0  0
   30.7757  -22.7344    5.9449 C   0  0  0  0  0  0  0  0  0  0  0  0
   31.9450  -22.2544    6.8440 C   0  0  0  0  0  0  0  0  0  0  0  0
   31.7232  -20.8755    7.7995 S   0  0  0  0  0  0  0  0  0  0  0  0
  1  3  1  0  0  0  0
  1  9  1  0  0  0  0
  1 10  1  0  0  0  0
  2 12  1  0  0  0  0
  3  5  1  0  0  0  0
  4 12  2  0  0  0  0
  5  7  1  0  0  0  0
  6 12  2  0  0  0  0
  7  8  1  0  0  0  0
  8  9  1  0  0  0  0
 10 11  1  0  0  0  0
 11 12  1  0  0  0  0
M  END
>  <CHROM.1>
-97.19462738,168.56067044,-71.09348259,31.21674566,-22.56247599,5.85957772
1.80185272,-0.62841517,-2.13899824

>  <Name>
ligand

>  <RI>
0

>  <Rbt.Current_Directory>
/home/itssahil/PROJECTS/Mol_Feturizer/New_Systems/rnas/4E8N

>  <Rbt.Executable>
rbdock ($Id: //depot/dev/client3/rdock/2013.1/src/exe/rbdock.cxx#4 $)

>  <Rbt.Library>
libRbt.so (2013.1, Build901 2013/11/27)

>  <Rbt.Parameter_File>
/export/apps/rDock/src/rDock_2013.1_src/data/scripts/dock_solv.prm

>  <Rbt.Receptor>
prm/pocket_docking_3.prm

>  <SCORE>
-10.6954

>  <SCORE.INTER>
-7.55709

>  <SCORE.INTER.CONST>
1

>  <SCORE.INTER.POLAR>
0

>  <SCORE.INTER.ROT>
3

>  <SCORE.INTER.SOLV>
6.12348

>  <SCORE.INTER.VDW>
-12.6792

>  <SCORE.INTER.norm>
-0.629758

>  <SCORE.INTRA>
-3.13834

>  <SCORE.INTRA.DIHEDRAL>
-2.53363

>  <SCORE.INTRA.DIHEDRAL.0>
5.0186

>  <SCORE.INTRA.POLAR>
0

>  <SCORE.INTRA.POLAR.0>
0

>  <SCORE.INTRA.REPUL>
0

>  <SCORE.INTRA.REPUL.0>
0

>  <SCORE.INTRA.SOLV>
-0.0893425

>  <SCORE.INTRA.SOLV.lig_0>
-16.1608

>  <SCORE.INTRA.VDW>
-1.82685

>  <SCORE.INTRA.VDW.0>
1.14169

>  <SCORE.INTRA.norm>
-0.261528

>  <SCORE.RESTR>
0

>  <SCORE.RESTR.CAVITY>
0

>  <SCORE.RESTR.norm>
0

>  <SCORE.SYSTEM>
0

>  <SCORE.SYSTEM.CONST>
0

>  <SCORE.SYSTEM.DIHEDRAL>
0

>  <SCORE.SYSTEM.SOLV>
0

>  <SCORE.SYSTEM.norm>
0

>  <SCORE.heavy>
12

>  <SCORE.norm>
-0.891286

>  <RMSD>
2.527

$$$$
ligand
 OpenBabel11021811493D
libRbt.so/2013.1/901 2013/11/27
 12 12  0  0  0  0  0  0  0  0999 V2000
   31.2058  -23.8702    5.2185 N   0  0  0  0  0  0  0  0  0  0  0  0
   30.2551  -20.9624    8.6522 O   0  0  0  0  0  0  0  0  0  0  0  0
   31.9641  -23.6027    3.9717 C   0  0  0  0  0  0  0  0  0  0  0  0
   32.5478  -20.4245    8.8143 O   0  0  0  0  0  0  0  0  0  0  0  0
   32.3219  -24.9395    3.3307 C   0  0  0  0  0  0  0  0  0  0  0  0
   31.1841  -19.3526    7.0748 O   0  0  0  0  0  0  0  0  0  0  0  0
   31.0953  -25.6356    2.9304 N   0  0  0  0  0  0  0  0  0  0  0  0
   29.9529  -24.8161    3.3421 C   0  0  0  0  0  0  0  0  0  0  0  0
   30.0289  -24.6829    4.8535 C   0  0  0  0  0  0  0  0  0  0  0  0
   30.7982  -22.6478    6.0190 C   0  0  0  0  0  0  0  0  0  0  0  0
   31.8406  -22.0982    7.0276 C   0  0  0  0  0  0  0  0  0  0  0  0
   31.4589  -20.7099    7.9165 S   0  0  0  0  0  0  0  0  0  0  0  0
  1  3  1  0  0  0  0
  1  9  1  0  0  0  0
  1 10  1  0  0  0  0
  2 12  1  0  0  0  0
  3  5  1  0  0  0  0
  4 12  2  0  0  0  0
  5  7  1  0  0  0  0
  6 12  2  0  0  0  0
  7  8  1  0  0  0  0
  8  9  1  0  0  0  0
 10 11  1  0  0  0  0
 11 12  1  0  0  0  0
M  END
>  <CHROM.1>
-86.00812980,178.26275724,57.73618282,31.24676853,-22.53530938,6.03945918
1.63486109,-0.28528422,-2.32881619

>  <Name>
ligand

>  <RI>
0

>  <Rbt.Current_Directory>
/home/itssahil/PROJECTS/Mol_Feturizer/New_Systems/rnas/4E8N

>  <Rbt.Executable>
rbdock ($Id: //depot/dev/client3/rdock/2013.1/src/exe/rbdock.cxx#4 $)

>  <Rbt.Library>
libRbt.so (2013.1, Build901 2013/11/27)

>  <Rbt.Parameter_File>
/export/apps/rDock/src/rDock_2013.1_src/data/scripts/dock_solv.prm

>  <Rbt.Receptor>
prm/pocket_docking_6.prm

>  <SCORE>
-11.8379

>  <SCORE.INTER>
-8.0112

>  <SCORE.INTER.CONST>
1

>  <SCORE.INTER.POLAR>
0

>  <SCORE.INTER.ROT>
3

>  <SCORE.INTER.SOLV>
5.34187

>  <SCORE.INTER.VDW>
-12.7214

>  <SCORE.INTER.norm>
-0.6676

>  <SCORE.INTRA>
-3.82667

>  <SCORE.INTRA.DIHEDRAL>
-3.95703

>  <SCORE.INTRA.DIHEDRAL.0>
5.0186

>  <SCORE.INTRA.POLAR>
0

>  <SCORE.INTRA.POLAR.0>
0

>  <SCORE.INTRA.REPUL>
0

>  <SCORE.INTRA.REPUL.0>
0

>  <SCORE.INTRA.SOLV>
-0.115591

>  <SCORE.INTRA.SOLV.lig_0>
-16.1608

>  <SCORE.INTRA.VDW>
-1.79036

>  <SCORE.INTRA.VDW.0>
1.14169

>  <SCORE.INTRA.norm>
-0.318889

>  <SCORE.RESTR>
0

>  <SCORE.RESTR.CAVITY>
0

>  <SCORE.RESTR.norm>
0

>  <SCORE.SYSTEM>
0

>  <SCORE.SYSTEM.CONST>
0

>  <SCORE.SYSTEM.DIHEDRAL>
0

>  <SCORE.SYSTEM.SOLV>
0

>  <SCORE.SYSTEM.norm>
0

>  <SCORE.heavy>
12

>  <SCORE.norm>
-0.986489

>  <RMSD>
2.535

$$$$
ligand
 OpenBabel11021811493D
libRbt.so/2013.1/901 2013/11/27
 12 12  0  0  0  0  0  0  0  0999 V2000
   30.7170  -23.6012    4.1140 N   0  0  0  0  0  0  0  0  0  0  0  0
   32.1035  -22.1553    8.1040 O   0  0  0  0  0  0  0  0  0  0  0  0
   30.2662  -22.7740    2.9680 C   0  0  0  0  0  0  0  0  0  0  0  0
   32.2885  -19.9278    7.3452 O   0  0  0  0  0  0  0  0  0  0  0  0
   30.5573  -23.5375    1.6802 C   0  0  0  0  0  0  0  0  0  0  0  0
   30.1149  -20.7460    8.1455 O   0  0  0  0  0  0  0  0  0  0  0  0
   29.7579  -24.7658    1.6466 N   0  0  0  0  0  0  0  0  0  0  0  0
   28.9997  -24.8488    2.8974 C   0  0  0  0  0  0  0  0  0  0  0  0
   30.0161  -24.8973    4.0255 C   0  0  0  0  0  0  0  0  0  0  0  0
   30.5432  -22.9792    5.4866 C   0  0  0  0  0  0  0  0  0  0  0  0
   31.3014  -21.6516    5.7489 C   0  0  0  0  0  0  0  0  0  0  0  0
   31.4743  -21.1154    7.3445 S   0  0  0  0  0  0  0  0  0  0  0  0
  1  3  1  0  0  0  0
  1  9  1  0  0  0  0
  1 10  1  0  0  0  0
  2 12  1  0  0  0  0
  3  5  1  0  0  0  0
  4 12  2  0  0  0  0
  5  7  1  0  0  0  0
  6 12  2  0  0  0  0
  7  8  1  0  0  0  0
  8  9  1  0  0  0  0
 10 11  1  0  0  0  0
 11 12  1  0  0  0  0
M  END
>  <CHROM.1>
-60.75750719,-164.67249106,55.78623044,30.77846137,-22.54071128,5.27255975
2.12701618,-1.06921492,-1.64958486

>  <Name>
ligand

>  <RI>
0

>  <Rbt.Current_Directory>
/home/itssahil/PROJECTS/Mol_Feturizer/New_Systems/rnas/4E8N

>  <Rbt.Executable>
rbdock ($Id: //depot/dev/client3/rdock/2013.1/src/exe/rbdock.cxx#4 $)

>  <Rbt.Library>
libRbt.so (2013.1, Build901 2013/11/27)

>  <Rbt.Parameter_File>
/export/apps/rDock/src/rDock_2013.1_src/data/scripts/dock_solv.prm

>  <Rbt.Receptor>
prm/pocket_docking_3.prm

>  <SCORE>
-10.7095

>  <SCORE.INTER>
-7.10758

>  <SCORE.INTER.CONST>
1

>  <SCORE.INTER.POLAR>
0

>  <SCORE.INTER.ROT>
3

>  <SCORE.INTER.SOLV>
6.0154

>  <SCORE.INTER.VDW>
-12.3435

>  <SCORE.INTER.norm>
-0.592299

>  <SCORE.INTRA>
-3.60539

>  <SCORE.INTRA.DIHEDRAL>
-4.12651

>  <SCORE.INTRA.DIHEDRAL.0>
5.0186

>  <SCORE.INTRA.POLAR>
0

>  <SCORE.INTRA.POLAR.0>
0

>  <SCORE.INTRA.REPUL>
0

>  <SCORE.INTRA.REPUL.0>
0

>  <SCORE.INTRA.SOLV>
-0.113307

>  <SCORE.INTRA.SOLV.lig_0>
-16.1608

>  <SCORE.INTRA.VDW>
-1.48549

>  <SCORE.INTRA.VDW.0>
1.14169

>  <SCORE.INTRA.norm>
-0.300449

>  <SCORE.RESTR>
0.00351521

>  <SCORE.RESTR.CAVITY>
0.00351521

>  <SCORE.RESTR.norm>
0.000292934

>  <SCORE.SYSTEM>
0

>  <SCORE.SYSTEM.CONST>
0

>  <SCORE.SYSTEM.DIHEDRAL>
0

>  <SCORE.SYSTEM.SOLV>
0

>  <SCORE.SYSTEM.norm>
0

>  <SCORE.heavy>
12

>  <SCORE.norm>
-0.892455

>  <RMSD>
2.539

$$$$
ligand
 OpenBabel11021811493D
libRbt.so/2013.1/901 2013/11/27
 12 12  0  0  0  0  0  0  0  0999 V2000
   31.7394  -21.7061    5.9346 N   0  0  0  0  0  0  0  0  0  0  0  0
   33.7208  -20.5773    9.9844 O   0  0  0  0  0  0  0  0  0  0  0  0
   31.2359  -23.0371    6.3541 C   0  0  0  0  0  0  0  0  0  0  0  0
   33.5069  -18.5748    8.7532 O   0  0  0  0  0  0  0  0  0  0  0  0
   30.3617  -23.5946    5.2356 C   0  0  0  0  0  0  0  0  0  0  0  0
   31.9842  -18.9949   10.6345 O   0  0  0  0  0  0  0  0  0  0  0  0
   31.1788  -23.8171    4.0390 N   0  0  0  0  0  0  0  0  0  0  0  0
   32.5429  -23.3695    4.3305 C   0  0  0  0  0  0  0  0  0  0  0  0
   32.4592  -21.8886    4.6589 C   0  0  0  0  0  0  0  0  0  0  0  0
   32.6006  -20.9762    6.9478 C   0  0  0  0  0  0  0  0  0  0  0  0
   31.8887  -20.4727    8.2307 C   0  0  0  0  0  0  0  0  0  0  0  0
   32.7988  -19.6508    9.3966 S   0  0  0  0  0  0  0  0  0  0  0  0
  1  3  1  0  0  0  0
  1  9  1  0  0  0  0
  1 10  1  0  0  0  0
  2 12  1  0  0  0  0
  3  5  1  0  0  0  0
  4 12  2  0  0  0  0
  5  7  1  0  0  0  0
  6 12  2  0  0  0  0
  7  8  1  0  0  0  0
  8  9  1  0  0  0  0
 10 11  1  0  0  0  0
 11 12  1  0  0  0  0
M  END
>  <CHROM.1>
-68.60661402,-179.97292216,-67.60643703,32.25526231,-21.16326838,7.34765212
-1.84566419,0.66569485,1.09060788

>  <Name>
ligand

>  <RI>
0

>  <Rbt.Current_Directory>
/home/itssahil/PROJECTS/Mol_Feturizer/New_Systems/rnas/4E8N

>  <Rbt.Executable>
rbdock ($Id: //depot/dev/client3/rdock/2013.1/src/exe/rbdock.cxx#4 $)

>  <Rbt.Library>
libRbt.so (2013.1, Build901 2013/11/27)

>  <Rbt.Parameter_File>
/export/apps/rDock/src/rDock_2013.1_src/data/scripts/dock_solv.prm

>  <Rbt.Receptor>
prm/pocket_docking_8.prm

>  <SCORE>
-11.1112

>  <SCORE.INTER>
-7.10122

>  <SCORE.INTER.CONST>
1

>  <SCORE.INTER.POLAR>
0

>  <SCORE.INTER.ROT>
3

>  <SCORE.INTER.SOLV>
4.09269

>  <SCORE.INTER.VDW>
-11.6984

>  <SCORE.INTER.norm>
-0.591768

>  <SCORE.INTRA>
-4.01

>  <SCORE.INTRA.DIHEDRAL>
-4.72187

>  <SCORE.INTRA.DIHEDRAL.0>
5.0186

>  <SCORE.INTRA.POLAR>
0

>  <SCORE.INTRA.POLAR.0>
0

>  <SCORE.INTRA.REPUL>
0

>  <SCORE.INTRA.REPUL.0>
0

>  <SCORE.INTRA.SOLV>
-0.0951604

>  <SCORE.INTRA.SOLV.lig_0>
-16.1608

>  <SCORE.INTRA.VDW>
-1.60148

>  <SCORE.INTRA.VDW.0>
1.14169

>  <SCORE.INTRA.norm>
-0.334166

>  <SCORE.RESTR>
0

>  <SCORE.RESTR.CAVITY>
0

>  <SCORE.RESTR.norm>
0

>  <SCORE.SYSTEM>
0

>  <SCORE.SYSTEM.CONST>
0

>  <SCORE.SYSTEM.DIHEDRAL>
0

>  <SCORE.SYSTEM.SOLV>
0

>  <SCORE.SYSTEM.norm>
0

>  <SCORE.heavy>
12

>  <SCORE.norm>
-0.925935

>  <RMSD>
2.547

$$$$
ligand
 OpenBabel11021811493D
libRbt.so/2013.1/901 2013/11/27
 12 12  0  0  0  0  0  0  0  0999 V2000
   31.2474  -23.8707    5.1536 N   0  0  0  0  0  0  0  0  0  0  0  0
   31.5726  -19.6850    6.9611 O   0  0  0  0  0  0  0  0  0  0  0  0
   31.9245  -23.5639    3.8697 C   0  0  0  0  0  0  0  0  0  0  0  0
   30.3773  -20.8966    8.5967 O   0  0  0  0  0  0  0  0  0  0  0  0
   32.2638  -24.8806    3.1788 C   0  0  0  0  0  0  0  0  0  0  0  0
   32.7346  -20.3370    9.0026 O   0  0  0  0  0  0  0  0  0  0  0  0
   31.0264  -25.5888    2.8377 N   0  0  0  0  0  0  0  0  0  0  0  0
   29.8982  -24.7979    3.3355 C   0  0  0  0  0  0  0  0  0  0  0  0
   30.0635  -24.6955    4.8422 C   0  0  0  0  0  0  0  0  0  0  0  0
   30.8698  -22.6727    6.0041 C   0  0  0  0  0  0  0  0  0  0  0  0
   31.9206  -22.1981    7.0417 C   0  0  0  0  0  0  0  0  0  0  0  0
   31.6297  -20.7680    7.8981 S   0  0  0  0  0  0  0  0  0  0  0  0
  1  3  1  0  0  0  0
  1  9  1  0  0  0  0
  1 10  1  0  0  0  0
  2 12  1  0  0  0  0
  3  5  1  0  0  0  0
  4 12  2  0  0  0  0
  5  7  1  0  0  0  0
  6 12  2  0  0  0  0
  7  8  1  0  0  0  0
  8  9  1  0  0  0  0
 10 11  1  0  0  0  0
 11 12  1  0  0  0  0
M  END
>  <CHROM.1>
-90.80953248,173.33003652,-62.49746090,31.33378653,-22.55809178,6.00661255
1.68146278,-0.35514541,-2.28312182

>  <Name>
ligand

>  <RI>
0

>  <Rbt.Current_Directory>
/home/itssahil/PROJECTS/Mol_Feturizer/New_Systems/rnas/4E8N

>  <Rbt.Executable>
rbdock ($Id: //depot/dev/client3/rdock/2013.1/src/exe/rbdock.cxx#4 $)

>  <Rbt.Library>
libRbt.so (2013.1, Build901 2013/11/27)

>  <Rbt.Parameter_File>
/export/apps/rDock/src/rDock_2013.1_src/data/scripts/dock_solv.prm

>  <Rbt.Receptor>
prm/pocket_docking_5.prm

>  <SCORE>
-11.0983

>  <SCORE.INTER>
-7.4923

>  <SCORE.INTER.CONST>
1

>  <SCORE.INTER.POLAR>
0

>  <SCORE.INTER.ROT>
3

>  <SCORE.INTER.SOLV>
6.74546

>  <SCORE.INTER.VDW>
-12.8434

>  <SCORE.INTER.norm>
-0.624358

>  <SCORE.INTRA>
-3.60602

>  <SCORE.INTRA.DIHEDRAL>
-3.49935

>  <SCORE.INTRA.DIHEDRAL.0>
5.0186

>  <SCORE.INTRA.POLAR>
0

>  <SCORE.INTRA.POLAR.0>
0

>  <SCORE.INTRA.REPUL>
0

>  <SCORE.INTRA.REPUL.0>
0

>  <SCORE.INTRA.SOLV>
-0.109129

>  <SCORE.INTRA.SOLV.lig_0>
-16.1608

>  <SCORE.INTRA.VDW>
-1.80178

>  <SCORE.INTRA.VDW.0>
1.14169

>  <SCORE.INTRA.norm>
-0.300502

>  <SCORE.RESTR>
0

>  <SCORE.RESTR.CAVITY>
0

>  <SCORE.RESTR.norm>
0

>  <SCORE.SYSTEM>
0

>  <SCORE.SYSTEM.CONST>
0

>  <SCORE.SYSTEM.DIHEDRAL>
0

>  <SCORE.SYSTEM.SOLV>
0

>  <SCORE.SYSTEM.norm>
0

>  <SCORE.heavy>
12

>  <SCORE.norm>
-0.92486

>  <RMSD>
2.557

$$$$
ligand
 OpenBabel11021811493D
libRbt.so/2013.1/901 2013/11/27
 12 12  0  0  0  0  0  0  0  0999 V2000
   31.2390  -23.8860    5.1492 N   0  0  0  0  0  0  0  0  0  0  0  0
   31.5047  -19.7335    6.9883 O   0  0  0  0  0  0  0  0  0  0  0  0
   31.9201  -23.5699    3.8697 C   0  0  0  0  0  0  0  0  0  0  0  0
   30.3238  -20.9431    8.6358 O   0  0  0  0  0  0  0  0  0  0  0  0
   32.2746  -24.8817    3.1771 C   0  0  0  0  0  0  0  0  0  0  0  0
   32.6801  -20.3691    9.0272 O   0  0  0  0  0  0  0  0  0  0  0  0
   31.0452  -25.5997    2.8276 N   0  0  0  0  0  0  0  0  0  0  0  0
   29.9076  -24.8200    3.3215 C   0  0  0  0  0  0  0  0  0  0  0  0
   30.0639  -24.7202    4.8292 C   0  0  0  0  0  0  0  0  0  0  0  0
   30.8464  -22.6937    6.0008 C   0  0  0  0  0  0  0  0  0  0  0  0
   31.8663  -22.2443    7.0797 C   0  0  0  0  0  0  0  0  0  0  0  0
   31.5721  -20.8115    7.9304 S   0  0  0  0  0  0  0  0  0  0  0  0
  1  3  1  0  0  0  0
  1  9  1  0  0  0  0
  1 10  1  0  0  0  0
  2 12  1  0  0  0  0
  3  5  1  0  0  0  0
  4 12  2  0  0  0  0
  5  7  1  0  0  0  0
  6 12  2  0  0  0  0
  7  8  1  0  0  0  0
  8  9  1  0  0  0  0
 10 11  1  0  0  0  0
 11 12  1  0  0  0  0
M  END
>  <CHROM.1>
-92.92869001,172.62019232,-59.57919155,31.30581330,-22.58667433,6.01893452
1.66960223,-0.35611642,-2.27883404

>  <Name>
ligand

>  <RI>
0

>  <Rbt.Current_Directory>
/home/itssahil/PROJECTS/Mol_Feturizer/New_Systems/rnas/4E8N

>  <Rbt.Executable>
rbdock ($Id: //depot/dev/client3/rdock/2013.1/src/exe/rbdock.cxx#4 $)

>  <Rbt.Library>
libRbt.so (2013.1, Build901 2013/11/27)

>  <Rbt.Parameter_File>
/export/apps/rDock/src/rDock_2013.1_src/data/scripts/dock_solv.prm

>  <Rbt.Receptor>
prm/pocket_docking_4.prm

>  <SCORE>
-11.1489

>  <SCORE.INTER>
-7.60822

>  <SCORE.INTER.CONST>
1

>  <SCORE.INTER.POLAR>
0

>  <SCORE.INTER.ROT>
3

>  <SCORE.INTER.SOLV>
6.88372

>  <SCORE.INTER.VDW>
-12.9667

>  <SCORE.INTER.norm>
-0.634018

>  <SCORE.INTRA>
-3.54065

>  <SCORE.INTRA.DIHEDRAL>
-3.34298

>  <SCORE.INTRA.DIHEDRAL.0>
5.0186

>  <SCORE.INTRA.POLAR>
0

>  <SCORE.INTRA.POLAR.0>
0

>  <SCORE.INTRA.REPUL>
0

>  <SCORE.INTRA.REPUL.0>
0

>  <SCORE.INTRA.SOLV>
-0.115236

>  <SCORE.INTRA.SOLV.lig_0>
-16.1608

>  <SCORE.INTRA.VDW>
-1.81154

>  <SCORE.INTRA.VDW.0>
1.14169

>  <SCORE.INTRA.norm>
-0.295054

>  <SCORE.RESTR>
0

>  <SCORE.RESTR.CAVITY>
0

>  <SCORE.RESTR.norm>
0

>  <SCORE.SYSTEM>
0

>  <SCORE.SYSTEM.CONST>
0

>  <SCORE.SYSTEM.DIHEDRAL>
0

>  <SCORE.SYSTEM.SOLV>
0

>  <SCORE.SYSTEM.norm>
0

>  <SCORE.heavy>
12

>  <SCORE.norm>
-0.929073

>  <RMSD>
2.562

$$$$
ligand
 OpenBabel11021811493D
libRbt.so/2013.1/901 2013/11/27
 12 12  0  0  0  0  0  0  0  0999 V2000
   30.8352  -23.5161    4.1183 N   0  0  0  0  0  0  0  0  0  0  0  0
   31.2833  -20.6059    5.3548 O   0  0  0  0  0  0  0  0  0  0  0  0
   30.0924  -22.4470    3.4068 C   0  0  0  0  0  0  0  0  0  0  0  0
   29.8090  -20.9267    7.1701 O   0  0  0  0  0  0  0  0  0  0  0  0
   30.5612  -22.4202    1.9557 C   0  0  0  0  0  0  0  0  0  0  0  0
   32.1460  -20.3151    7.6162 O   0  0  0  0  0  0  0  0  0  0  0  0
   30.2030  -23.6820    1.3011 N   0  0  0  0  0  0  0  0  0  0  0  0
   29.5663  -24.5463    2.2979 C   0  0  0  0  0  0  0  0  0  0  0  0
   30.5898  -24.7797    3.3959 C   0  0  0  0  0  0  0  0  0  0  0  0
   30.5268  -23.6634    5.5963 C   0  0  0  0  0  0  0  0  0  0  0  0
   31.3957  -22.8295    6.5739 C   0  0  0  0  0  0  0  0  0  0  0  0
   31.1384  -21.1597    6.6687 S   0  0  0  0  0  0  0  0  0  0  0  0
  1  3  1  0  0  0  0
  1  9  1  0  0  0  0
  1 10  1  0  0  0  0
  2 12  1  0  0  0  0
  3  5  1  0  0  0  0
  4 12  2  0  0  0  0
  5  7  1  0  0  0  0
  6 12  2  0  0  0  0
  7  8  1  0  0  0  0
  8  9  1  0  0  0  0
 10 11  1  0  0  0  0
 11 12  1  0  0  0  0
M  END
>  <CHROM.1>
-90.01353086,73.26787150,-56.06475851,30.73438982,-22.38107893,4.87821649
2.90747685,-1.37998618,-0.79630537

>  <Name>
ligand

>  <RI>
0

>  <Rbt.Current_Directory>
/home/itssahil/PROJECTS/Mol_Feturizer/New_Systems/rnas/4E8N

>  <Rbt.Executable>
rbdock ($Id: //depot/dev/client3/rdock/2013.1/src/exe/rbdock.cxx#4 $)

>  <Rbt.Library>
libRbt.so (2013.1, Build901 2013/11/27)

>  <Rbt.Parameter_File>
/export/apps/rDock/src/rDock_2013.1_src/data/scripts/dock_solv.prm

>  <Rbt.Receptor>
prm/pocket_docking_3.prm

>  <SCORE>
-9.75992

>  <SCORE.INTER>
-6.03464

>  <SCORE.INTER.CONST>
1

>  <SCORE.INTER.POLAR>
0

>  <SCORE.INTER.ROT>
3

>  <SCORE.INTER.SOLV>
7.86531

>  <SCORE.INTER.VDW>
-12.2449

>  <SCORE.INTER.norm>
-0.502887

>  <SCORE.INTRA>
-3.72528

>  <SCORE.INTRA.DIHEDRAL>
-3.04516

>  <SCORE.INTRA.DIHEDRAL.0>
5.0186

>  <SCORE.INTRA.POLAR>
0

>  <SCORE.INTRA.POLAR.0>
0

>  <SCORE.INTRA.REPUL>
0

>  <SCORE.INTRA.REPUL.0>
0

>  <SCORE.INTRA.SOLV>
-0.012812

>  <SCORE.INTRA.SOLV.lig_0>
-16.1608

>  <SCORE.INTRA.VDW>
-2.1963

>  <SCORE.INTRA.VDW.0>
1.14169

>  <SCORE.INTRA.norm>
-0.31044

>  <SCORE.RESTR>
0

>  <SCORE.RESTR.CAVITY>
0

>  <SCORE.RESTR.norm>
0

>  <SCORE.SYSTEM>
0

>  <SCORE.SYSTEM.CONST>
0

>  <SCORE.SYSTEM.DIHEDRAL>
0

>  <SCORE.SYSTEM.SOLV>
0

>  <SCORE.SYSTEM.norm>
0

>  <SCORE.heavy>
12

>  <SCORE.norm>
-0.813327

>  <RMSD>
2.567

$$$$
ligand
 OpenBabel11021811493D
libRbt.so/2013.1/901 2013/11/27
 12 12  0  0  0  0  0  0  0  0999 V2000
   30.8284  -23.5248    4.1183 N   0  0  0  0  0  0  0  0  0  0  0  0
   31.3162  -20.6025    5.3873 O   0  0  0  0  0  0  0  0  0  0  0  0
   30.1050  -22.4501    3.3955 C   0  0  0  0  0  0  0  0  0  0  0  0
   29.8313  -20.9333    7.1921 O   0  0  0  0  0  0  0  0  0  0  0  0
   30.5819  -22.4401    1.9468 C   0  0  0  0  0  0  0  0  0  0  0  0
   32.1733  -20.3551    7.6560 O   0  0  0  0  0  0  0  0  0  0  0  0
   30.2091  -23.7011    1.2988 N   0  0  0  0  0  0  0  0  0  0  0  0
   29.5546  -24.5492    2.2980 C   0  0  0  0  0  0  0  0  0  0  0  0
   30.5687  -24.7898    3.4032 C   0  0  0  0  0  0  0  0  0  0  0  0
   30.5100  -23.6575    5.5956 C   0  0  0  0  0  0  0  0  0  0  0  0
   31.3985  -22.8451    6.5736 C   0  0  0  0  0  0  0  0  0  0  0  0
   31.1599  -21.1740    6.6923 S   0  0  0  0  0  0  0  0  0  0  0  0
  1  3  1  0  0  0  0
  1  9  1  0  0  0  0
  1 10  1  0  0  0  0
  2 12  1  0  0  0  0
  3  5  1  0  0  0  0
  4 12  2  0  0  0  0
  5  7  1  0  0  0  0
  6 12  2  0  0  0  0
  7  8  1  0  0  0  0
  8  9  1  0  0  0  0
 10 11  1  0  0  0  0
 11 12  1  0  0  0  0
M  END
>  <CHROM.1>
-90.85489860,74.93165354,-56.94339732,30.74383103,-22.39242946,4.88879660
2.82929445,-1.37182369,-0.87225821

>  <Name>
ligand

>  <RI>
0

>  <Rbt.Current_Directory>
/home/itssahil/PROJECTS/Mol_Feturizer/New_Systems/rnas/4E8N

>  <Rbt.Executable>
rbdock ($Id: //depot/dev/client3/rdock/2013.1/src/exe/rbdock.cxx#4 $)

>  <Rbt.Library>
libRbt.so (2013.1, Build901 2013/11/27)

>  <Rbt.Parameter_File>
/export/apps/rDock/src/rDock_2013.1_src/data/scripts/dock_solv.prm

>  <Rbt.Receptor>
prm/pocket_docking_4.prm

>  <SCORE>
-9.74904

>  <SCORE.INTER>
-6.06933

>  <SCORE.INTER.CONST>
1

>  <SCORE.INTER.POLAR>
0

>  <SCORE.INTER.ROT>
3

>  <SCORE.INTER.SOLV>
7.87447

>  <SCORE.INTER.VDW>
-12.271

>  <SCORE.INTER.norm>
-0.505777

>  <SCORE.INTRA>
-3.67971

>  <SCORE.INTRA.DIHEDRAL>
-2.84709

>  <SCORE.INTRA.DIHEDRAL.0>
5.0186

>  <SCORE.INTRA.POLAR>
0

>  <SCORE.INTRA.POLAR.0>
0

>  <SCORE.INTRA.REPUL>
0

>  <SCORE.INTRA.REPUL.0>
0

>  <SCORE.INTRA.SOLV>
-0.0145889

>  <SCORE.INTRA.SOLV.lig_0>
-16.1608

>  <SCORE.INTRA.VDW>
-2.24887

>  <SCORE.INTRA.VDW.0>
1.14169

>  <SCORE.INTRA.norm>
-0.306643

>  <SCORE.RESTR>
0

>  <SCORE.RESTR.CAVITY>
0

>  <SCORE.RESTR.norm>
0

>  <SCORE.SYSTEM>
0

>  <SCORE.SYSTEM.CONST>
0

>  <SCORE.SYSTEM.DIHEDRAL>
0

>  <SCORE.SYSTEM.SOLV>
0

>  <SCORE.SYSTEM.norm>
0

>  <SCORE.heavy>
12

>  <SCORE.norm>
-0.81242

>  <RMSD>
2.568

$$$$
ligand
 OpenBabel11021811493D
libRbt.so/2013.1/901 2013/11/27
 12 12  0  0  0  0  0  0  0  0999 V2000
   31.6304  -21.7806    6.3142 N   0  0  0  0  0  0  0  0  0  0  0  0
   33.8285  -20.5975   10.1313 O   0  0  0  0  0  0  0  0  0  0  0  0
   30.9859  -23.0986    6.0946 C   0  0  0  0  0  0  0  0  0  0  0  0
   33.5611  -18.3124    9.6035 O   0  0  0  0  0  0  0  0  0  0  0  0
   30.6234  -23.2162    4.6178 C   0  0  0  0  0  0  0  0  0  0  0  0
   31.7148  -19.5176   10.6868 O   0  0  0  0  0  0  0  0  0  0  0  0
   31.8470  -23.2118    3.8104 N   0  0  0  0  0  0  0  0  0  0  0  0
   32.9871  -23.0395    4.7141 C   0  0  0  0  0  0  0  0  0  0  0  0
   32.7969  -21.7040    5.4127 C   0  0  0  0  0  0  0  0  0  0  0  0
   32.0250  -21.4684    7.7453 C   0  0  0  0  0  0  0  0  0  0  0  0
   32.5234  -20.0275    8.0301 C   0  0  0  0  0  0  0  0  0  0  0  0
   32.9296  -19.6063    9.6179 S   0  0  0  0  0  0  0  0  0  0  0  0
  1  3  1  0  0  0  0
  1  9  1  0  0  0  0
  1 10  1  0  0  0  0
  2 12  1  0  0  0  0
  3  5  1  0  0  0  0
  4 12  2  0  0  0  0
  5  7  1  0  0  0  0
  6 12  2  0  0  0  0
  7  8  1  0  0  0  0
  8  9  1  0  0  0  0
 10 11  1  0  0  0  0
 11 12  1  0  0  0  0
M  END
>  <CHROM.1>
-172.03538949,178.03183340,50.77383407,32.37109012,-21.08328039,7.54542768
1.78791441,-0.43103760,-2.07797700

>  <Name>
ligand

>  <RI>
0

>  <Rbt.Current_Directory>
/home/itssahil/PROJECTS/Mol_Feturizer/New_Systems/rnas/4E8N

>  <Rbt.Executable>
rbdock ($Id: //depot/dev/client3/rdock/2013.1/src/exe/rbdock.cxx#4 $)

>  <Rbt.Library>
libRbt.so (2013.1, Build901 2013/11/27)

>  <Rbt.Parameter_File>
/export/apps/rDock/src/rDock_2013.1_src/data/scripts/dock_solv.prm

>  <Rbt.Receptor>
prm/pocket_docking_5.prm

>  <SCORE>
-11.7815

>  <SCORE.INTER>
-8.01024

>  <SCORE.INTER.CONST>
1

>  <SCORE.INTER.POLAR>
0

>  <SCORE.INTER.ROT>
3

>  <SCORE.INTER.SOLV>
4.52148

>  <SCORE.INTER.VDW>
-12.4473

>  <SCORE.INTER.norm>
-0.66752

>  <SCORE.INTRA>
-3.77122

>  <SCORE.INTRA.DIHEDRAL>
-4.73611

>  <SCORE.INTRA.DIHEDRAL.0>
5.0186

>  <SCORE.INTRA.POLAR>
0

>  <SCORE.INTRA.POLAR.0>
0

>  <SCORE.INTRA.REPUL>
0

>  <SCORE.INTRA.REPUL.0>
0

>  <SCORE.INTRA.SOLV>
-0.123149

>  <SCORE.INTRA.SOLV.lig_0>
-16.1608

>  <SCORE.INTRA.VDW>
-1.34159

>  <SCORE.INTRA.VDW.0>
1.14169

>  <SCORE.INTRA.norm>
-0.314268

>  <SCORE.RESTR>
0

>  <SCORE.RESTR.CAVITY>
0

>  <SCORE.RESTR.norm>
0

>  <SCORE.SYSTEM>
0

>  <SCORE.SYSTEM.CONST>
0

>  <SCORE.SYSTEM.DIHEDRAL>
0

>  <SCORE.SYSTEM.SOLV>
0

>  <SCORE.SYSTEM.norm>
0

>  <SCORE.heavy>
12

>  <SCORE.norm>
-0.981788

>  <RMSD>
2.595

$$$$
ligand
 OpenBabel11021811493D
libRbt.so/2013.1/901 2013/11/27
 12 12  0  0  0  0  0  0  0  0999 V2000
   30.8329  -23.5128    4.1379 N   0  0  0  0  0  0  0  0  0  0  0  0
   29.7840  -20.9391    7.1102 O   0  0  0  0  0  0  0  0  0  0  0  0
   30.0773  -22.4426    3.4418 C   0  0  0  0  0  0  0  0  0  0  0  0
   32.0651  -20.5993    7.6128 O   0  0  0  0  0  0  0  0  0  0  0  0
   30.5384  -22.3960    1.9887 C   0  0  0  0  0  0  0  0  0  0  0  0
   31.2947  -20.3332    5.2954 O   0  0  0  0  0  0  0  0  0  0  0  0
   30.1879  -23.6537    1.3222 N   0  0  0  0  0  0  0  0  0  0  0  0
   29.5637  -24.5343    2.3127 C   0  0  0  0  0  0  0  0  0  0  0  0
   30.5948  -24.7707    3.4030 C   0  0  0  0  0  0  0  0  0  0  0  0
   30.5335  -23.6789    5.6157 C   0  0  0  0  0  0  0  0  0  0  0  0
   31.3899  -22.8368    6.5972 C   0  0  0  0  0  0  0  0  0  0  0  0
   31.1307  -21.1664    6.6757 S   0  0  0  0  0  0  0  0  0  0  0  0
  1  3  1  0  0  0  0
  1  9  1  0  0  0  0
  1 10  1  0  0  0  0
  2 12  1  0  0  0  0
  3  5  1  0  0  0  0
  4 12  2  0  0  0  0
  5  7  1  0  0  0  0
  6 12  2  0  0  0  0
  7  8  1  0  0  0  0
  8  9  1  0  0  0  0
 10 11  1  0  0  0  0
 11 12  1  0  0  0  0
M  END
>  <CHROM.1>
-89.38512374,71.56150402,61.89996056,30.72144562,-22.37992524,4.88178887
3.07792649,-1.38636312,-0.61604270

>  <Name>
ligand

>  <RI>
0

>  <Rbt.Current_Directory>
/home/itssahil/PROJECTS/Mol_Feturizer/New_Systems/rnas/4E8N

>  <Rbt.Executable>
rbdock ($Id: //depot/dev/client3/rdock/2013.1/src/exe/rbdock.cxx#4 $)

>  <Rbt.Library>
libRbt.so (2013.1, Build901 2013/11/27)

>  <Rbt.Parameter_File>
/export/apps/rDock/src/rDock_2013.1_src/data/scripts/dock_solv.prm

>  <Rbt.Receptor>
prm/pocket_docking_3.prm

>  <SCORE>
-10.2905

>  <SCORE.INTER>
-6.4997

>  <SCORE.INTER.CONST>
1

>  <SCORE.INTER.POLAR>
0

>  <SCORE.INTER.ROT>
3

>  <SCORE.INTER.SOLV>
6.74201

>  <SCORE.INTER.VDW>
-12.1805

>  <SCORE.INTER.norm>
-0.541642

>  <SCORE.INTRA>
-3.79078

>  <SCORE.INTRA.DIHEDRAL>
-3.26536

>  <SCORE.INTRA.DIHEDRAL.0>
5.0186

>  <SCORE.INTRA.POLAR>
0

>  <SCORE.INTRA.POLAR.0>
0

>  <SCORE.INTRA.REPUL>
0

>  <SCORE.INTRA.REPUL.0>
0

>  <SCORE.INTRA.SOLV>
0.503327

>  <SCORE.INTRA.SOLV.lig_0>
-16.1608

>  <SCORE.INTRA.VDW>
-2.40976

>  <SCORE.INTRA.VDW.0>
1.14169

>  <SCORE.INTRA.norm>
-0.315898

>  <SCORE.RESTR>
0

>  <SCORE.RESTR.CAVITY>
0

>  <SCORE.RESTR.norm>
0

>  <SCORE.SYSTEM>
0

>  <SCORE.SYSTEM.CONST>
0

>  <SCORE.SYSTEM.DIHEDRAL>
0

>  <SCORE.SYSTEM.SOLV>
0

>  <SCORE.SYSTEM.norm>
0

>  <SCORE.heavy>
12

>  <SCORE.norm>
-0.85754

>  <RMSD>
2.602

$$$$
ligand
 OpenBabel11021811493D
libRbt.so/2013.1/901 2013/11/27
 12 12  0  0  0  0  0  0  0  0999 V2000
   30.8082  -23.5299    4.1197 N   0  0  0  0  0  0  0  0  0  0  0  0
   31.2877  -20.6203    5.3406 O   0  0  0  0  0  0  0  0  0  0  0  0
   30.0118  -22.5206    3.3795 C   0  0  0  0  0  0  0  0  0  0  0  0
   29.8343  -20.9073    7.1783 O   0  0  0  0  0  0  0  0  0  0  0  0
   30.4897  -22.4993    1.9313 C   0  0  0  0  0  0  0  0  0  0  0  0
   32.1868  -20.3307    7.5879 O   0  0  0  0  0  0  0  0  0  0  0  0
   30.2085  -23.7935    1.3028 N   0  0  0  0  0  0  0  0  0  0  0  0
   29.6138  -24.6703    2.3146 C   0  0  0  0  0  0  0  0  0  0  0  0
   30.6403  -24.8211    3.4243 C   0  0  0  0  0  0  0  0  0  0  0  0
   30.4971  -23.6618    5.5986 C   0  0  0  0  0  0  0  0  0  0  0  0
   31.3819  -22.8386    6.5710 C   0  0  0  0  0  0  0  0  0  0  0  0
   31.1526  -21.1644    6.6596 S   0  0  0  0  0  0  0  0  0  0  0  0
  1  3  1  0  0  0  0
  1  9  1  0  0  0  0
  1 10  1  0  0  0  0
  2 12  1  0  0  0  0
  3  5  1  0  0  0  0
  4 12  2  0  0  0  0
  5  7  1  0  0  0  0
  6 12  2  0  0  0  0
  7  8  1  0  0  0  0
  8  9  1  0  0  0  0
 10 11  1  0  0  0  0
 11 12  1  0  0  0  0
M  END
>  <CHROM.1>
-94.47721166,73.51141402,-55.37553077,30.73394747,-22.41562710,4.87353767
2.99493862,-1.38073544,-0.72083996

>  <Name>
ligand

>  <RI>
0

>  <Rbt.Current_Directory>
/home/itssahil/PROJECTS/Mol_Feturizer/New_Systems/rnas/4E8N

>  <Rbt.Executable>
rbdock ($Id: //depot/dev/client3/rdock/2013.1/src/exe/rbdock.cxx#4 $)

>  <Rbt.Library>
libRbt.so (2013.1, Build901 2013/11/27)

>  <Rbt.Parameter_File>
/export/apps/rDock/src/rDock_2013.1_src/data/scripts/dock_solv.prm

>  <Rbt.Receptor>
prm/pocket_docking_4.prm

>  <SCORE>
-9.74186

>  <SCORE.INTER>
-6.05958

>  <SCORE.INTER.CONST>
1

>  <SCORE.INTER.POLAR>
0

>  <SCORE.INTER.ROT>
3

>  <SCORE.INTER.SOLV>
7.82044

>  <SCORE.INTER.VDW>
-12.2465

>  <SCORE.INTER.norm>
-0.504965

>  <SCORE.INTRA>
-3.68228

>  <SCORE.INTRA.DIHEDRAL>
-2.73329

>  <SCORE.INTRA.DIHEDRAL.0>
5.0186

>  <SCORE.INTRA.POLAR>
0

>  <SCORE.INTRA.POLAR.0>
0

>  <SCORE.INTRA.REPUL>
0

>  <SCORE.INTRA.REPUL.0>
0

>  <SCORE.INTRA.SOLV>
-0.0149165

>  <SCORE.INTRA.SOLV.lig_0>
-16.1608

>  <SCORE.INTRA.VDW>
-2.30817

>  <SCORE.INTRA.VDW.0>
1.14169

>  <SCORE.INTRA.norm>
-0.306856

>  <SCORE.RESTR>
0

>  <SCORE.RESTR.CAVITY>
0

>  <SCORE.RESTR.norm>
0

>  <SCORE.SYSTEM>
0

>  <SCORE.SYSTEM.CONST>
0

>  <SCORE.SYSTEM.DIHEDRAL>
0

>  <SCORE.SYSTEM.SOLV>
0

>  <SCORE.SYSTEM.norm>
0

>  <SCORE.heavy>
12

>  <SCORE.norm>
-0.811822

>  <RMSD>
2.602

$$$$
ligand
 OpenBabel11021811493D
libRbt.so/2013.1/901 2013/11/27
 12 12  0  0  0  0  0  0  0  0999 V2000
   30.8438  -23.5191    4.1294 N   0  0  0  0  0  0  0  0  0  0  0  0
   29.8057  -20.9302    7.1122 O   0  0  0  0  0  0  0  0  0  0  0  0
   30.1132  -22.4351    3.4278 C   0  0  0  0  0  0  0  0  0  0  0  0
   32.0931  -20.6013    7.5930 O   0  0  0  0  0  0  0  0  0  0  0  0
   30.5801  -22.4022    1.9762 C   0  0  0  0  0  0  0  0  0  0  0  0
   31.3026  -20.3355    5.2824 O   0  0  0  0  0  0  0  0  0  0  0  0
   30.2055  -23.6541    1.3118 N   0  0  0  0  0  0  0  0  0  0  0  0
   29.5596  -24.5187    2.3025 C   0  0  0  0  0  0  0  0  0  0  0  0
   30.5819  -24.7737    3.3970 C   0  0  0  0  0  0  0  0  0  0  0  0
   30.5359  -23.6748    5.6065 C   0  0  0  0  0  0  0  0  0  0  0  0
   31.3969  -22.8371    6.5879 C   0  0  0  0  0  0  0  0  0  0  0  0
   31.1470  -21.1653    6.6656 S   0  0  0  0  0  0  0  0  0  0  0  0
  1  3  1  0  0  0  0
  1  9  1  0  0  0  0
  1 10  1  0  0  0  0
  2 12  1  0  0  0  0
  3  5  1  0  0  0  0
  4 12  2  0  0  0  0
  5  7  1  0  0  0  0
  6 12  2  0  0  0  0
  7  8  1  0  0  0  0
  8  9  1  0  0  0  0
 10 11  1  0  0  0  0
 11 12  1  0  0  0  0
M  END
>  <CHROM.1>
-88.77713424,72.01745511,62.45179916,30.73615314,-22.37855210,4.87171301
3.00685026,-1.38430709,-0.68821402

>  <Name>
ligand

>  <RI>
0

>  <Rbt.Current_Directory>
/home/itssahil/PROJECTS/Mol_Feturizer/New_Systems/rnas/4E8N

>  <Rbt.Executable>
rbdock ($Id: //depot/dev/client3/rdock/2013.1/src/exe/rbdock.cxx#4 $)

>  <Rbt.Library>
libRbt.so (2013.1, Build901 2013/11/27)

>  <Rbt.Parameter_File>
/export/apps/rDock/src/rDock_2013.1_src/data/scripts/dock_solv.prm

>  <Rbt.Receptor>
prm/pocket_docking_3.prm

>  <SCORE>
-10.3355

>  <SCORE.INTER>
-6.56823

>  <SCORE.INTER.CONST>
1

>  <SCORE.INTER.POLAR>
0

>  <SCORE.INTER.ROT>
3

>  <SCORE.INTER.SOLV>
6.71801

>  <SCORE.INTER.VDW>
-12.2182

>  <SCORE.INTER.norm>
-0.547353

>  <SCORE.INTRA>
-3.76722

>  <SCORE.INTRA.DIHEDRAL>
-3.2587

>  <SCORE.INTRA.DIHEDRAL.0>
5.0186

>  <SCORE.INTRA.POLAR>
0

>  <SCORE.INTRA.POLAR.0>
0

>  <SCORE.INTRA.REPUL>
0

>  <SCORE.INTRA.REPUL.0>
0

>  <SCORE.INTRA.SOLV>
0.506868

>  <SCORE.INTRA.SOLV.lig_0>
-16.1608

>  <SCORE.INTRA.VDW>
-2.3913

>  <SCORE.INTRA.VDW.0>
1.14169

>  <SCORE.INTRA.norm>
-0.313935

>  <SCORE.RESTR>
0

>  <SCORE.RESTR.CAVITY>
0

>  <SCORE.RESTR.norm>
0

>  <SCORE.SYSTEM>
0

>  <SCORE.SYSTEM.CONST>
0

>  <SCORE.SYSTEM.DIHEDRAL>
0

>  <SCORE.SYSTEM.SOLV>
0

>  <SCORE.SYSTEM.norm>
0

>  <SCORE.heavy>
12

>  <SCORE.norm>
-0.861288

>  <RMSD>
2.603

$$$$
ligand
 OpenBabel11021811493D
libRbt.so/2013.1/901 2013/11/27
 12 12  0  0  0  0  0  0  0  0999 V2000
   30.8077  -23.5352    4.1181 N   0  0  0  0  0  0  0  0  0  0  0  0
   31.2852  -20.6130    5.3458 O   0  0  0  0  0  0  0  0  0  0  0  0
   30.0043  -22.5173    3.3974 C   0  0  0  0  0  0  0  0  0  0  0  0
   29.8197  -20.9376    7.1675 O   0  0  0  0  0  0  0  0  0  0  0  0
   30.4579  -22.4897    1.9415 C   0  0  0  0  0  0  0  0  0  0  0  0
   32.1580  -20.3239    7.6036 O   0  0  0  0  0  0  0  0  0  0  0  0
   30.1595  -23.7786    1.3101 N   0  0  0  0  0  0  0  0  0  0  0  0
   29.5772  -24.6584    2.3265 C   0  0  0  0  0  0  0  0  0  0  0  0
   30.6213  -24.8212    3.4179 C   0  0  0  0  0  0  0  0  0  0  0  0
   30.5207  -23.6744    5.6011 C   0  0  0  0  0  0  0  0  0  0  0  0
   31.4058  -22.8379    6.5617 C   0  0  0  0  0  0  0  0  0  0  0  0
   31.1471  -21.1685    6.6597 S   0  0  0  0  0  0  0  0  0  0  0  0
  1  3  1  0  0  0  0
  1  9  1  0  0  0  0
  1 10  1  0  0  0  0
  2 12  1  0  0  0  0
  3  5  1  0  0  0  0
  4 12  2  0  0  0  0
  5  7  1  0  0  0  0
  6 12  2  0  0  0  0
  7  8  1  0  0  0  0
  8  9  1  0  0  0  0
 10 11  1  0  0  0  0
 11 12  1  0  0  0  0
M  END
>  <CHROM.1>
-93.18553387,73.67258077,-56.87124994,30.72213594,-22.41603320,4.87674718
3.07043679,-1.37764457,-0.64308715

>  <Name>
ligand

>  <RI>
0

>  <Rbt.Current_Directory>
/home/itssahil/PROJECTS/Mol_Feturizer/New_Systems/rnas/4E8N

>  <Rbt.Executable>
rbdock ($Id: //depot/dev/client3/rdock/2013.1/src/exe/rbdock.cxx#4 $)

>  <Rbt.Library>
libRbt.so (2013.1, Build901 2013/11/27)

>  <Rbt.Parameter_File>
/export/apps/rDock/src/rDock_2013.1_src/data/scripts/dock_solv.prm

>  <Rbt.Receptor>
prm/pocket_docking_3.prm

>  <SCORE>
-9.73211

>  <SCORE.INTER>
-6.01148

>  <SCORE.INTER.CONST>
1

>  <SCORE.INTER.POLAR>
0

>  <SCORE.INTER.ROT>
3

>  <SCORE.INTER.SOLV>
7.86383

>  <SCORE.INTER.VDW>
-12.2289

>  <SCORE.INTER.norm>
-0.500957

>  <SCORE.INTRA>
-3.72063

>  <SCORE.INTRA.DIHEDRAL>
-2.8262

>  <SCORE.INTRA.DIHEDRAL.0>
5.0186

>  <SCORE.INTRA.POLAR>
0

>  <SCORE.INTRA.POLAR.0>
0

>  <SCORE.INTRA.REPUL>
0

>  <SCORE.INTRA.REPUL.0>
0

>  <SCORE.INTRA.SOLV>
-0.00370363

>  <SCORE.INTRA.SOLV.lig_0>
-16.1608

>  <SCORE.INTRA.VDW>
-2.30568

>  <SCORE.INTRA.VDW.0>
1.14169

>  <SCORE.INTRA.norm>
-0.310053

>  <SCORE.RESTR>
0

>  <SCORE.RESTR.CAVITY>
0

>  <SCORE.RESTR.norm>
0

>  <SCORE.SYSTEM>
0

>  <SCORE.SYSTEM.CONST>
0

>  <SCORE.SYSTEM.DIHEDRAL>
0

>  <SCORE.SYSTEM.SOLV>
0

>  <SCORE.SYSTEM.norm>
0

>  <SCORE.heavy>
12

>  <SCORE.norm>
-0.81101

>  <RMSD>
2.603

$$$$
ligand
 OpenBabel11021811493D
libRbt.so/2013.1/901 2013/11/27
 12 12  0  0  0  0  0  0  0  0999 V2000
   30.8814  -23.5878    4.1286 N   0  0  0  0  0  0  0  0  0  0  0  0
   29.8176  -20.9344    7.1074 O   0  0  0  0  0  0  0  0  0  0  0  0
   30.2805  -22.4487    3.3922 C   0  0  0  0  0  0  0  0  0  0  0  0
   32.1065  -20.6027    7.5796 O   0  0  0  0  0  0  0  0  0  0  0  0
   30.7698  -22.4981    1.9484 C   0  0  0  0  0  0  0  0  0  0  0  0
   31.3061  -20.3334    5.2727 O   0  0  0  0  0  0  0  0  0  0  0  0
   30.2741  -23.7180    1.3040 N   0  0  0  0  0  0  0  0  0  0  0  0
   29.5254  -24.4867    2.3013 C   0  0  0  0  0  0  0  0  0  0  0  0
   30.4984  -24.8238    3.4182 C   0  0  0  0  0  0  0  0  0  0  0  0
   30.5368  -23.6766    5.6032 C   0  0  0  0  0  0  0  0  0  0  0  0
   31.4099  -22.8376    6.5726 C   0  0  0  0  0  0  0  0  0  0  0  0
   31.1576  -21.1664    6.6549 S   0  0  0  0  0  0  0  0  0  0  0  0
  1  3  1  0  0  0  0
  1  9  1  0  0  0  0
  1 10  1  0  0  0  0
  2 12  1  0  0  0  0
  3  5  1  0  0  0  0
  4 12  2  0  0  0  0
  5  7  1  0  0  0  0
  6 12  2  0  0  0  0
  7  8  1  0  0  0  0
  8  9  1  0  0  0  0
 10 11  1  0  0  0  0
 11 12  1  0  0  0  0
M  END
>  <CHROM.1>
-84.84950686,75.81956244,61.85840780,30.76652766,-22.39818356,4.86243264
2.69729901,-1.37473800,-1.01040956

>  <Name>
ligand

>  <RI>
0

>  <Rbt.Current_Directory>
/home/itssahil/PROJECTS/Mol_Feturizer/New_Systems/rnas/4E8N

>  <Rbt.Executable>
rbdock ($Id: //depot/dev/client3/rdock/2013.1/src/exe/rbdock.cxx#4 $)

>  <Rbt.Library>
libRbt.so (2013.1, Build901 2013/11/27)

>  <Rbt.Parameter_File>
/export/apps/rDock/src/rDock_2013.1_src/data/scripts/dock_solv.prm

>  <Rbt.Receptor>
prm/pocket_docking_4.prm

>  <SCORE>
-10.2637

>  <SCORE.INTER>
-6.62231

>  <SCORE.INTER.CONST>
1

>  <SCORE.INTER.POLAR>
0

>  <SCORE.INTER.ROT>
3

>  <SCORE.INTER.SOLV>
6.60109

>  <SCORE.INTER.VDW>
-12.2152

>  <SCORE.INTER.norm>
-0.551859

>  <SCORE.INTRA>
-3.64144

>  <SCORE.INTRA.DIHEDRAL>
-3.14505

>  <SCORE.INTRA.DIHEDRAL.0>
5.0186

>  <SCORE.INTRA.POLAR>
0

>  <SCORE.INTRA.POLAR.0>
0

>  <SCORE.INTRA.REPUL>
0

>  <SCORE.INTRA.REPUL.0>
0

>  <SCORE.INTRA.SOLV>
0.486816

>  <SCORE.INTRA.SOLV.lig_0>
-16.1608

>  <SCORE.INTRA.VDW>
-2.31232

>  <SCORE.INTRA.VDW.0>
1.14169

>  <SCORE.INTRA.norm>
-0.303453

>  <SCORE.RESTR>
0

>  <SCORE.RESTR.CAVITY>
0

>  <SCORE.RESTR.norm>
0

>  <SCORE.SYSTEM>
0

>  <SCORE.SYSTEM.CONST>
0

>  <SCORE.SYSTEM.DIHEDRAL>
0

>  <SCORE.SYSTEM.SOLV>
0

>  <SCORE.SYSTEM.norm>
0

>  <SCORE.heavy>
12

>  <SCORE.norm>
-0.855312

>  <RMSD>
2.604

$$$$
ligand
 OpenBabel11021811493D
libRbt.so/2013.1/901 2013/11/27
 12 12  0  0  0  0  0  0  0  0999 V2000
   30.8650  -23.5625    4.1178 N   0  0  0  0  0  0  0  0  0  0  0  0
   29.8204  -20.9380    7.1066 O   0  0  0  0  0  0  0  0  0  0  0  0
   30.2290  -22.4347    3.3936 C   0  0  0  0  0  0  0  0  0  0  0  0
   32.1079  -20.6302    7.6011 O   0  0  0  0  0  0  0  0  0  0  0  0
   30.7171  -22.4551    1.9488 C   0  0  0  0  0  0  0  0  0  0  0  0
   31.3302  -20.3373    5.2893 O   0  0  0  0  0  0  0  0  0  0  0  0
   30.2573  -23.6828    1.2928 N   0  0  0  0  0  0  0  0  0  0  0  0
   29.5337  -24.4836    2.2835 C   0  0  0  0  0  0  0  0  0  0  0  0
   30.5182  -24.8024    3.3956 C   0  0  0  0  0  0  0  0  0  0  0  0
   30.5256  -23.6763    5.5920 C   0  0  0  0  0  0  0  0  0  0  0  0
   31.4003  -22.8515    6.5721 C   0  0  0  0  0  0  0  0  0  0  0  0
   31.1621  -21.1787    6.6641 S   0  0  0  0  0  0  0  0  0  0  0  0
  1  3  1  0  0  0  0
  1  9  1  0  0  0  0
  1 10  1  0  0  0  0
  2 12  1  0  0  0  0
  3  5  1  0  0  0  0
  4 12  2  0  0  0  0
  5  7  1  0  0  0  0
  6 12  2  0  0  0  0
  7  8  1  0  0  0  0
  8  9  1  0  0  0  0
 10 11  1  0  0  0  0
 11 12  1  0  0  0  0
M  END
>  <CHROM.1>
-86.49909466,74.82967212,61.69317607,30.76013673,-22.39379353,4.86180818
2.75827931,-1.37575185,-0.93999047

>  <Name>
ligand

>  <RI>
0

>  <Rbt.Current_Directory>
/home/itssahil/PROJECTS/Mol_Feturizer/New_Systems/rnas/4E8N

>  <Rbt.Executable>
rbdock ($Id: //depot/dev/client3/rdock/2013.1/src/exe/rbdock.cxx#4 $)

>  <Rbt.Library>
libRbt.so (2013.1, Build901 2013/11/27)

>  <Rbt.Parameter_File>
/export/apps/rDock/src/rDock_2013.1_src/data/scripts/dock_solv.prm

>  <Rbt.Receptor>
prm/pocket_docking_3.prm

>  <SCORE>
-10.2759

>  <SCORE.INTER>
-6.5956

>  <SCORE.INTER.CONST>
1

>  <SCORE.INTER.POLAR>
0

>  <SCORE.INTER.ROT>
3

>  <SCORE.INTER.SOLV>
6.66769

>  <SCORE.INTER.VDW>
-12.2196

>  <SCORE.INTER.norm>
-0.549633

>  <SCORE.INTRA>
-3.68026

>  <SCORE.INTRA.DIHEDRAL>
-3.14741

>  <SCORE.INTRA.DIHEDRAL.0>
5.0186

>  <SCORE.INTRA.POLAR>
0

>  <SCORE.INTRA.POLAR.0>
0

>  <SCORE.INTRA.REPUL>
0

>  <SCORE.INTRA.REPUL.0>
0

>  <SCORE.INTRA.SOLV>
0.487433

>  <SCORE.INTRA.SOLV.lig_0>
-16.1608

>  <SCORE.INTRA.VDW>
-2.35027

>  <SCORE.INTRA.VDW.0>
1.14169

>  <SCORE.INTRA.norm>
-0.306688

>  <SCORE.RESTR>
0

>  <SCORE.RESTR.CAVITY>
0

>  <SCORE.RESTR.norm>
0

>  <SCORE.SYSTEM>
0

>  <SCORE.SYSTEM.CONST>
0

>  <SCORE.SYSTEM.DIHEDRAL>
0

>  <SCORE.SYSTEM.SOLV>
0

>  <SCORE.SYSTEM.norm>
0

>  <SCORE.heavy>
12

>  <SCORE.norm>
-0.856321

>  <RMSD>
2.606

$$$$
ligand
 OpenBabel11021811493D
libRbt.so/2013.1/901 2013/11/27
 12 12  0  0  0  0  0  0  0  0999 V2000
   30.8766  -23.5863    4.1231 N   0  0  0  0  0  0  0  0  0  0  0  0
   29.8247  -20.9392    7.1185 O   0  0  0  0  0  0  0  0  0  0  0  0
   30.2805  -22.4408    3.3927 C   0  0  0  0  0  0  0  0  0  0  0  0
   32.1185  -20.6171    7.5731 O   0  0  0  0  0  0  0  0  0  0  0  0
   30.7701  -22.4843    1.9489 C   0  0  0  0  0  0  0  0  0  0  0  0
   31.3015  -20.3439    5.2726 O   0  0  0  0  0  0  0  0  0  0  0  0
   30.2699  -23.6986    1.2976 N   0  0  0  0  0  0  0  0  0  0  0  0
   29.5178  -24.4699    2.2904 C   0  0  0  0  0  0  0  0  0  0  0  0
   30.4891  -24.8169    3.4058 C   0  0  0  0  0  0  0  0  0  0  0  0
   30.5311  -23.6819    5.5971 C   0  0  0  0  0  0  0  0  0  0  0  0
   31.4049  -22.8488    6.5711 C   0  0  0  0  0  0  0  0  0  0  0  0
   31.1602  -21.1766    6.6556 S   0  0  0  0  0  0  0  0  0  0  0  0
  1  3  1  0  0  0  0
  1  9  1  0  0  0  0
  1 10  1  0  0  0  0
  2 12  1  0  0  0  0
  3  5  1  0  0  0  0
  4 12  2  0  0  0  0
  5  7  1  0  0  0  0
  6 12  2  0  0  0  0
  7  8  1  0  0  0  0
  8  9  1  0  0  0  0
 10 11  1  0  0  0  0
 11 12  1  0  0  0  0
M  END
>  <CHROM.1>
-84.69901867,75.51550786,62.50092778,30.76551090,-22.39872737,4.85989421
2.68837470,-1.37200961,-1.01489805

>  <Name>
ligand

>  <RI>
0

>  <Rbt.Current_Directory>
/home/itssahil/PROJECTS/Mol_Feturizer/New_Systems/rnas/4E8N

>  <Rbt.Executable>
rbdock ($Id: //depot/dev/client3/rdock/2013.1/src/exe/rbdock.cxx#4 $)

>  <Rbt.Library>
libRbt.so (2013.1, Build901 2013/11/27)

>  <Rbt.Parameter_File>
/export/apps/rDock/src/rDock_2013.1_src/data/scripts/dock_solv.prm

>  <Rbt.Receptor>
prm/pocket_docking_4.prm

>  <SCORE>
-10.2472

>  <SCORE.INTER>
-6.60629

>  <SCORE.INTER.CONST>
1

>  <SCORE.INTER.POLAR>
0

>  <SCORE.INTER.ROT>
3

>  <SCORE.INTER.SOLV>
6.62406

>  <SCORE.INTER.VDW>
-12.2122

>  <SCORE.INTER.norm>
-0.550525

>  <SCORE.INTRA>
-3.64088

>  <SCORE.INTRA.DIHEDRAL>
-3.17873

>  <SCORE.INTRA.DIHEDRAL.0>
5.0186

>  <SCORE.INTRA.POLAR>
0

>  <SCORE.INTRA.POLAR.0>
0

>  <SCORE.INTRA.REPUL>
0

>  <SCORE.INTRA.REPUL.0>
0

>  <SCORE.INTRA.SOLV>
0.494856

>  <SCORE.INTRA.SOLV.lig_0>
-16.1608

>  <SCORE.INTRA.VDW>
-2.29894

>  <SCORE.INTRA.VDW.0>
1.14169

>  <SCORE.INTRA.norm>
-0.303407

>  <SCORE.RESTR>
0

>  <SCORE.RESTR.CAVITY>
0

>  <SCORE.RESTR.norm>
0

>  <SCORE.SYSTEM>
0

>  <SCORE.SYSTEM.CONST>
0

>  <SCORE.SYSTEM.DIHEDRAL>
0

>  <SCORE.SYSTEM.SOLV>
0

>  <SCORE.SYSTEM.norm>
0

>  <SCORE.heavy>
12

>  <SCORE.norm>
-0.853931

>  <RMSD>
2.606

$$$$
ligand
 OpenBabel11021811493D
libRbt.so/2013.1/901 2013/11/27
 12 12  0  0  0  0  0  0  0  0999 V2000
   30.8624  -23.4764    4.1257 N   0  0  0  0  0  0  0  0  0  0  0  0
   31.8962  -20.7980    5.3638 O   0  0  0  0  0  0  0  0  0  0  0  0
   30.1161  -22.3979    3.4323 C   0  0  0  0  0  0  0  0  0  0  0  0
   30.1617  -20.7969    6.9648 O   0  0  0  0  0  0  0  0  0  0  0  0
   30.6093  -22.3220    1.9911 C   0  0  0  0  0  0  0  0  0  0  0  0
   32.4896  -20.5771    7.7179 O   0  0  0  0  0  0  0  0  0  0  0  0
   30.2815  -23.5693    1.2940 N   0  0  0  0  0  0  0  0  0  0  0  0
   29.6406  -24.4714    2.2541 C   0  0  0  0  0  0  0  0  0  0  0  0
   30.6485  -24.7219    3.3628 C   0  0  0  0  0  0  0  0  0  0  0  0
   30.5309  -23.6712    5.5931 C   0  0  0  0  0  0  0  0  0  0  0  0
   31.4581  -22.9627    6.6150 C   0  0  0  0  0  0  0  0  0  0  0  0
   31.4848  -21.2712    6.6526 S   0  0  0  0  0  0  0  0  0  0  0  0
  1  3  1  0  0  0  0
  1  9  1  0  0  0  0
  1 10  1  0  0  0  0
  2 12  1  0  0  0  0
  3  5  1  0  0  0  0
  4 12  2  0  0  0  0
  5  7  1  0  0  0  0
  6 12  2  0  0  0  0
  7  8  1  0  0  0  0
  8  9  1  0  0  0  0
 10 11  1  0  0  0  0
 11 12  1  0  0  0  0
M  END
>  <CHROM.1>
-95.80732635,65.45461058,-59.59750169,30.92863573,-22.40543031,4.86924812
2.79117884,-1.30641936,-0.88640147

>  <Name>
ligand

>  <RI>
0

>  <Rbt.Current_Directory>
/home/itssahil/PROJECTS/Mol_Feturizer/New_Systems/rnas/4E8N

>  <Rbt.Executable>
rbdock ($Id: //depot/dev/client3/rdock/2013.1/src/exe/rbdock.cxx#4 $)

>  <Rbt.Library>
libRbt.so (2013.1, Build901 2013/11/27)

>  <Rbt.Parameter_File>
/export/apps/rDock/src/rDock_2013.1_src/data/scripts/dock_solv.prm

>  <Rbt.Receptor>
prm/pocket_docking_4.prm

>  <SCORE>
-9.49284

>  <SCORE.INTER>
-5.46855

>  <SCORE.INTER.CONST>
1

>  <SCORE.INTER.POLAR>
0

>  <SCORE.INTER.ROT>
3

>  <SCORE.INTER.SOLV>
7.63892

>  <SCORE.INTER.VDW>
-11.792

>  <SCORE.INTER.norm>
-0.455713

>  <SCORE.INTRA>
-4.02429

>  <SCORE.INTRA.DIHEDRAL>
-3.26278

>  <SCORE.INTRA.DIHEDRAL.0>
5.0186

>  <SCORE.INTRA.POLAR>
0

>  <SCORE.INTRA.POLAR.0>
0

>  <SCORE.INTRA.REPUL>
0

>  <SCORE.INTRA.REPUL.0>
0

>  <SCORE.INTRA.SOLV>
0.0849635

>  <SCORE.INTRA.SOLV.lig_0>
-16.1608

>  <SCORE.INTRA.VDW>
-2.43538

>  <SCORE.INTRA.VDW.0>
1.14169

>  <SCORE.INTRA.norm>
-0.335358

>  <SCORE.RESTR>
0

>  <SCORE.RESTR.CAVITY>
0

>  <SCORE.RESTR.norm>
0

>  <SCORE.SYSTEM>
0

>  <SCORE.SYSTEM.CONST>
0

>  <SCORE.SYSTEM.DIHEDRAL>
0

>  <SCORE.SYSTEM.SOLV>
0

>  <SCORE.SYSTEM.norm>
0

>  <SCORE.heavy>
12

>  <SCORE.norm>
-0.79107

>  <RMSD>
2.622

$$$$
ligand
 OpenBabel11021811493D
libRbt.so/2013.1/901 2013/11/27
 12 12  0  0  0  0  0  0  0  0999 V2000
   30.5624  -23.5168    3.9817 N   0  0  0  0  0  0  0  0  0  0  0  0
   31.8846  -22.5719    8.0852 O   0  0  0  0  0  0  0  0  0  0  0  0
   30.2251  -22.6340    2.8382 C   0  0  0  0  0  0  0  0  0  0  0  0
   32.4760  -20.3549    7.5313 O   0  0  0  0  0  0  0  0  0  0  0  0
   30.5386  -23.3806    1.5458 C   0  0  0  0  0  0  0  0  0  0  0  0
   30.1618  -20.8503    8.1896 O   0  0  0  0  0  0  0  0  0  0  0  0
   29.6692  -24.5557    1.4347 N   0  0  0  0  0  0  0  0  0  0  0  0
   28.8410  -24.6238    2.6412 C   0  0  0  0  0  0  0  0  0  0  0  0
   29.7900  -24.7642    3.8191 C   0  0  0  0  0  0  0  0  0  0  0  0
   30.3527  -22.9208    5.3608 C   0  0  0  0  0  0  0  0  0  0  0  0
   31.2859  -21.7479    5.7602 C   0  0  0  0  0  0  0  0  0  0  0  0
   31.4744  -21.3811    7.4013 S   0  0  0  0  0  0  0  0  0  0  0  0
  1  3  1  0  0  0  0
  1  9  1  0  0  0  0
  1 10  1  0  0  0  0
  2 12  1  0  0  0  0
  3  5  1  0  0  0  0
  4 12  2  0  0  0  0
  5  7  1  0  0  0  0
  6 12  2  0  0  0  0
  7  8  1  0  0  0  0
  8  9  1  0  0  0  0
 10 11  1  0  0  0  0
 11 12  1  0  0  0  0
M  END
>  <CHROM.1>
-67.35664912,-159.87976076,54.40988836,30.71457162,-22.59746100,5.21315500
2.06783902,-0.96501372,-1.63997630

>  <Name>
ligand

>  <RI>
0

>  <Rbt.Current_Directory>
/home/itssahil/PROJECTS/Mol_Feturizer/New_Systems/rnas/4E8N

>  <Rbt.Executable>
rbdock ($Id: //depot/dev/client3/rdock/2013.1/src/exe/rbdock.cxx#4 $)

>  <Rbt.Library>
libRbt.so (2013.1, Build901 2013/11/27)

>  <Rbt.Parameter_File>
/export/apps/rDock/src/rDock_2013.1_src/data/scripts/dock_solv.prm

>  <Rbt.Receptor>
prm/pocket_docking_3.prm

>  <SCORE>
-11.0651

>  <SCORE.INTER>
-7.69736

>  <SCORE.INTER.CONST>
1

>  <SCORE.INTER.POLAR>
0

>  <SCORE.INTER.ROT>
3

>  <SCORE.INTER.SOLV>
6.51135

>  <SCORE.INTER.VDW>
-12.902

>  <SCORE.INTER.norm>
-0.641446

>  <SCORE.INTRA>
-3.36776

>  <SCORE.INTRA.DIHEDRAL>
-3.42575

>  <SCORE.INTRA.DIHEDRAL.0>
5.0186

>  <SCORE.INTRA.POLAR>
0

>  <SCORE.INTRA.POLAR.0>
0

>  <SCORE.INTRA.REPUL>
0

>  <SCORE.INTRA.REPUL.0>
0

>  <SCORE.INTRA.SOLV>
-0.115919

>  <SCORE.INTRA.SOLV.lig_0>
-16.1608

>  <SCORE.INTRA.VDW>
-1.59693

>  <SCORE.INTRA.VDW.0>
1.14169

>  <SCORE.INTRA.norm>
-0.280647

>  <SCORE.RESTR>
0

>  <SCORE.RESTR.CAVITY>
0

>  <SCORE.RESTR.norm>
0

>  <SCORE.SYSTEM>
0

>  <SCORE.SYSTEM.CONST>
0

>  <SCORE.SYSTEM.DIHEDRAL>
0

>  <SCORE.SYSTEM.SOLV>
0

>  <SCORE.SYSTEM.norm>
0

>  <SCORE.heavy>
12

>  <SCORE.norm>
-0.922093

>  <RMSD>
2.645

$$$$
ligand
 OpenBabel11021811493D
libRbt.so/2013.1/901 2013/11/27
 12 12  0  0  0  0  0  0  0  0999 V2000
   30.7900  -23.5468    4.1095 N   0  0  0  0  0  0  0  0  0  0  0  0
   31.2901  -20.6572    5.2451 O   0  0  0  0  0  0  0  0  0  0  0  0
   29.9605  -22.5318    3.4148 C   0  0  0  0  0  0  0  0  0  0  0  0
   29.8645  -20.9033    7.1103 O   0  0  0  0  0  0  0  0  0  0  0  0
   30.3772  -22.4927    1.9482 C   0  0  0  0  0  0  0  0  0  0  0  0
   32.2160  -20.2906    7.4701 O   0  0  0  0  0  0  0  0  0  0  0  0
   30.0735  -23.7807    1.3174 N   0  0  0  0  0  0  0  0  0  0  0  0
   29.5241  -24.6707    2.3432 C   0  0  0  0  0  0  0  0  0  0  0  0
   30.5966  -24.8307    3.4072 C   0  0  0  0  0  0  0  0  0  0  0  0
   30.5415  -23.6963    5.5985 C   0  0  0  0  0  0  0  0  0  0  0  0
   31.4243  -22.8361    6.5402 C   0  0  0  0  0  0  0  0  0  0  0  0
   31.1785  -21.1625    6.5816 S   0  0  0  0  0  0  0  0  0  0  0  0
  1  3  1  0  0  0  0
  1  9  1  0  0  0  0
  1 10  1  0  0  0  0
  2 12  1  0  0  0  0
  3  5  1  0  0  0  0
  4 12  2  0  0  0  0
  5  7  1  0  0  0  0
  6 12  2  0  0  0  0
  7  8  1  0  0  0  0
  8  9  1  0  0  0  0
 10 11  1  0  0  0  0
 11 12  1  0  0  0  0
M  END
>  <CHROM.1>
-91.99189264,70.24227104,-54.99283995,30.71689720,-22.41842257,4.83981026
-3.11174079,-1.35830655,-0.55301423

>  <Name>
ligand

>  <RI>
0

>  <Rbt.Current_Directory>
/home/itssahil/PROJECTS/Mol_Feturizer/New_Systems/rnas/4E8N

>  <Rbt.Executable>
rbdock ($Id: //depot/dev/client3/rdock/2013.1/src/exe/rbdock.cxx#4 $)

>  <Rbt.Library>
libRbt.so (2013.1, Build901 2013/11/27)

>  <Rbt.Parameter_File>
/export/apps/rDock/src/rDock_2013.1_src/data/scripts/dock_solv.prm

>  <Rbt.Receptor>
prm/pocket_docking_4.prm

>  <SCORE>
-9.51161

>  <SCORE.INTER>
-5.70709

>  <SCORE.INTER.CONST>
1

>  <SCORE.INTER.POLAR>
0

>  <SCORE.INTER.ROT>
3

>  <SCORE.INTER.SOLV>
7.78558

>  <SCORE.INTER.VDW>
-11.9999

>  <SCORE.INTER.norm>
-0.47559

>  <SCORE.INTRA>
-3.80453

>  <SCORE.INTRA.DIHEDRAL>
-3.1497

>  <SCORE.INTRA.DIHEDRAL.0>
5.0186

>  <SCORE.INTRA.POLAR>
0

>  <SCORE.INTRA.POLAR.0>
0

>  <SCORE.INTRA.REPUL>
0

>  <SCORE.INTRA.REPUL.0>
0

>  <SCORE.INTRA.SOLV>
0.000618726

>  <SCORE.INTRA.SOLV.lig_0>
-16.1608

>  <SCORE.INTRA.VDW>
-2.22999

>  <SCORE.INTRA.VDW.0>
1.14169

>  <SCORE.INTRA.norm>
-0.317044

>  <SCORE.RESTR>
0

>  <SCORE.RESTR.CAVITY>
0

>  <SCORE.RESTR.norm>
0

>  <SCORE.SYSTEM>
0

>  <SCORE.SYSTEM.CONST>
0

>  <SCORE.SYSTEM.DIHEDRAL>
0

>  <SCORE.SYSTEM.SOLV>
0

>  <SCORE.SYSTEM.norm>
0

>  <SCORE.heavy>
12

>  <SCORE.norm>
-0.792634

>  <RMSD>
2.645

$$$$
ligand
 OpenBabel11021811493D
libRbt.so/2013.1/901 2013/11/27
 12 12  0  0  0  0  0  0  0  0999 V2000
   30.5893  -23.4714    4.0685 N   0  0  0  0  0  0  0  0  0  0  0  0
   31.9693  -22.5399    8.0746 O   0  0  0  0  0  0  0  0  0  0  0  0
   29.9941  -22.7662    2.9068 C   0  0  0  0  0  0  0  0  0  0  0  0
   32.4798  -20.2897    7.5770 O   0  0  0  0  0  0  0  0  0  0  0  0
   30.3954  -23.5089    1.6366 C   0  0  0  0  0  0  0  0  0  0  0  0
   30.2172  -20.8660    8.3408 O   0  0  0  0  0  0  0  0  0  0  0  0
   29.8128  -24.8541    1.6499 N   0  0  0  0  0  0  0  0  0  0  0  0
   29.0925  -25.0247    2.9142 C   0  0  0  0  0  0  0  0  0  0  0  0
   30.1145  -24.8685    4.0273 C   0  0  0  0  0  0  0  0  0  0  0  0
   30.3284  -22.8459    5.4256 C   0  0  0  0  0  0  0  0  0  0  0  0
   31.2242  -21.6426    5.8200 C   0  0  0  0  0  0  0  0  0  0  0  0
   31.4955  -21.3342    7.4616 S   0  0  0  0  0  0  0  0  0  0  0  0
  1  3  1  0  0  0  0
  1  9  1  0  0  0  0
  1 10  1  0  0  0  0
  2 12  1  0  0  0  0
  3  5  1  0  0  0  0
  4 12  2  0  0  0  0
  5  7  1  0  0  0  0
  6 12  2  0  0  0  0
  7  8  1  0  0  0  0
  8  9  1  0  0  0  0
 10 11  1  0  0  0  0
 11 12  1  0  0  0  0
M  END
>  <CHROM.1>
-80.48504970,-153.25624128,52.72347309,30.75093916,-22.64401567,5.31656252
-2.24357244,1.13717004,1.66342496

>  <Name>
ligand

>  <RI>
0

>  <Rbt.Current_Directory>
/home/itssahil/PROJECTS/Mol_Feturizer/New_Systems/rnas/4E8N

>  <Rbt.Executable>
rbdock ($Id: //depot/dev/client3/rdock/2013.1/src/exe/rbdock.cxx#4 $)

>  <Rbt.Library>
libRbt.so (2013.1, Build901 2013/11/27)

>  <Rbt.Parameter_File>
/export/apps/rDock/src/rDock_2013.1_src/data/scripts/dock_solv.prm

>  <Rbt.Receptor>
prm/pocket_docking_3.prm

>  <SCORE>
-10.5931

>  <SCORE.INTER>
-7.82257

>  <SCORE.INTER.CONST>
1

>  <SCORE.INTER.POLAR>
0

>  <SCORE.INTER.ROT>
3

>  <SCORE.INTER.SOLV>
6.20865

>  <SCORE.INTER.VDW>
-12.8846

>  <SCORE.INTER.norm>
-0.651881

>  <SCORE.INTRA>
-2.77057

>  <SCORE.INTRA.DIHEDRAL>
-1.89798

>  <SCORE.INTRA.DIHEDRAL.0>
5.0186

>  <SCORE.INTRA.POLAR>
0

>  <SCORE.INTRA.POLAR.0>
0

>  <SCORE.INTRA.REPUL>
0

>  <SCORE.INTRA.REPUL.0>
0

>  <SCORE.INTRA.SOLV>
-0.116061

>  <SCORE.INTRA.SOLV.lig_0>
-16.1608

>  <SCORE.INTRA.VDW>
-1.76354

>  <SCORE.INTRA.VDW.0>
1.14169

>  <SCORE.INTRA.norm>
-0.230881

>  <SCORE.RESTR>
0

>  <SCORE.RESTR.CAVITY>
0

>  <SCORE.RESTR.norm>
0

>  <SCORE.SYSTEM>
0

>  <SCORE.SYSTEM.CONST>
0

>  <SCORE.SYSTEM.DIHEDRAL>
0

>  <SCORE.SYSTEM.SOLV>
0

>  <SCORE.SYSTEM.norm>
0

>  <SCORE.heavy>
12

>  <SCORE.norm>
-0.882761

>  <RMSD>
2.651

$$$$
ligand
 OpenBabel11021811493D
libRbt.so/2013.1/901 2013/11/27
 12 12  0  0  0  0  0  0  0  0999 V2000
   30.5534  -23.5129    3.9758 N   0  0  0  0  0  0  0  0  0  0  0  0
   31.8736  -22.5804    8.0782 O   0  0  0  0  0  0  0  0  0  0  0  0
   30.1982  -22.6257    2.8411 C   0  0  0  0  0  0  0  0  0  0  0  0
   32.4939  -20.3714    7.5239 O   0  0  0  0  0  0  0  0  0  0  0  0
   30.5043  -23.3622    1.5411 C   0  0  0  0  0  0  0  0  0  0  0  0
   30.1753  -20.8351    8.1900 O   0  0  0  0  0  0  0  0  0  0  0  0
   29.6425  -24.5430    1.4315 N   0  0  0  0  0  0  0  0  0  0  0  0
   28.8269  -24.6245    2.6456 C   0  0  0  0  0  0  0  0  0  0  0  0
   29.7886  -24.7650    3.8132 C   0  0  0  0  0  0  0  0  0  0  0  0
   30.3530  -22.9268    5.3605 C   0  0  0  0  0  0  0  0  0  0  0  0
   31.2782  -21.7463    5.7559 C   0  0  0  0  0  0  0  0  0  0  0  0
   31.4777  -21.3834    7.3966 S   0  0  0  0  0  0  0  0  0  0  0  0
  1  3  1  0  0  0  0
  1  9  1  0  0  0  0
  1 10  1  0  0  0  0
  2 12  1  0  0  0  0
  3  5  1  0  0  0  0
  4 12  2  0  0  0  0
  5  7  1  0  0  0  0
  6 12  2  0  0  0  0
  7  8  1  0  0  0  0
  8  9  1  0  0  0  0
 10 11  1  0  0  0  0
 11 12  1  0  0  0  0
M  END
>  <CHROM.1>
-67.15488037,-160.07082298,53.00969108,30.70807551,-22.59591183,5.20997974
2.08402112,-0.97479456,-1.62175566

>  <Name>
ligand

>  <RI>
0

>  <Rbt.Current_Directory>
/home/itssahil/PROJECTS/Mol_Feturizer/New_Systems/rnas/4E8N

>  <Rbt.Executable>
rbdock ($Id: //depot/dev/client3/rdock/2013.1/src/exe/rbdock.cxx#4 $)

>  <Rbt.Library>
libRbt.so (2013.1, Build901 2013/11/27)

>  <Rbt.Parameter_File>
/export/apps/rDock/src/rDock_2013.1_src/data/scripts/dock_solv.prm

>  <Rbt.Receptor>
prm/pocket_docking_3.prm

>  <SCORE>
-11.0631

>  <SCORE.INTER>
-7.70953

>  <SCORE.INTER.CONST>
1

>  <SCORE.INTER.POLAR>
0

>  <SCORE.INTER.ROT>
3

>  <SCORE.INTER.SOLV>
6.54506

>  <SCORE.INTER.VDW>
-12.9214

>  <SCORE.INTER.norm>
-0.642461

>  <SCORE.INTRA>
-3.35437

>  <SCORE.INTRA.DIHEDRAL>
-3.41425

>  <SCORE.INTRA.DIHEDRAL.0>
5.0186

>  <SCORE.INTRA.POLAR>
0

>  <SCORE.INTRA.POLAR.0>
0

>  <SCORE.INTRA.REPUL>
0

>  <SCORE.INTRA.REPUL.0>
0

>  <SCORE.INTRA.SOLV>
-0.118768

>  <SCORE.INTRA.SOLV.lig_0>
-16.1608

>  <SCORE.INTRA.VDW>
-1.58787

>  <SCORE.INTRA.VDW.0>
1.14169

>  <SCORE.INTRA.norm>
-0.279531

>  <SCORE.RESTR>
0.000768585

>  <SCORE.RESTR.CAVITY>
0.000768585

>  <SCORE.RESTR.norm>
6.40488e-05

>  <SCORE.SYSTEM>
0

>  <SCORE.SYSTEM.CONST>
0

>  <SCORE.SYSTEM.DIHEDRAL>
0

>  <SCORE.SYSTEM.SOLV>
0

>  <SCORE.SYSTEM.norm>
0

>  <SCORE.heavy>
12

>  <SCORE.norm>
-0.921928

>  <RMSD>
2.652

$$$$
ligand
 OpenBabel11021811493D
libRbt.so/2013.1/901 2013/11/27
 12 12  0  0  0  0  0  0  0  0999 V2000
   30.5944  -23.5753    3.9891 N   0  0  0  0  0  0  0  0  0  0  0  0
   31.8625  -22.5576    8.1077 O   0  0  0  0  0  0  0  0  0  0  0  0
   30.2677  -22.6668    2.8628 C   0  0  0  0  0  0  0  0  0  0  0  0
   32.4892  -20.3635    7.5035 O   0  0  0  0  0  0  0  0  0  0  0  0
   30.5556  -23.3986    1.5560 C   0  0  0  0  0  0  0  0  0  0  0  0
   30.1610  -20.8123    8.1461 O   0  0  0  0  0  0  0  0  0  0  0  0
   29.6604  -24.5529    1.4325 N   0  0  0  0  0  0  0  0  0  0  0  0
   28.8398  -24.6230    2.6441 C   0  0  0  0  0  0  0  0  0  0  0  0
   29.7943  -24.8031    3.8122 C   0  0  0  0  0  0  0  0  0  0  0  0
   30.4078  -22.9977    5.3793 C   0  0  0  0  0  0  0  0  0  0  0  0
   31.3022  -21.7874    5.7548 C   0  0  0  0  0  0  0  0  0  0  0  0
   31.4760  -21.3801    7.3880 S   0  0  0  0  0  0  0  0  0  0  0  0
  1  3  1  0  0  0  0
  1  9  1  0  0  0  0
  1 10  1  0  0  0  0
  2 12  1  0  0  0  0
  3  5  1  0  0  0  0
  4 12  2  0  0  0  0
  5  7  1  0  0  0  0
  6 12  2  0  0  0  0
  7  8  1  0  0  0  0
  8  9  1  0  0  0  0
 10 11  1  0  0  0  0
 11 12  1  0  0  0  0
M  END
>  <CHROM.1>
-63.25492184,-162.62096616,51.75715078,30.72548680,-22.61267976,5.21046264
2.06827000,-0.96793507,-1.64437447

>  <Name>
ligand

>  <RI>
0

>  <Rbt.Current_Directory>
/home/itssahil/PROJECTS/Mol_Feturizer/New_Systems/rnas/4E8N

>  <Rbt.Executable>
rbdock ($Id: //depot/dev/client3/rdock/2013.1/src/exe/rbdock.cxx#4 $)

>  <Rbt.Library>
libRbt.so (2013.1, Build901 2013/11/27)

>  <Rbt.Parameter_File>
/export/apps/rDock/src/rDock_2013.1_src/data/scripts/dock_solv.prm

>  <Rbt.Receptor>
prm/pocket_docking_3.prm

>  <SCORE>
-11.0776

>  <SCORE.INTER>
-7.62197

>  <SCORE.INTER.CONST>
1

>  <SCORE.INTER.POLAR>
0

>  <SCORE.INTER.ROT>
3

>  <SCORE.INTER.SOLV>
6.42774

>  <SCORE.INTER.VDW>
-12.8239

>  <SCORE.INTER.norm>
-0.635164

>  <SCORE.INTRA>
-3.45616

>  <SCORE.INTRA.DIHEDRAL>
-3.7581

>  <SCORE.INTRA.DIHEDRAL.0>
5.0186

>  <SCORE.INTRA.POLAR>
0

>  <SCORE.INTRA.POLAR.0>
0

>  <SCORE.INTRA.REPUL>
0

>  <SCORE.INTRA.REPUL.0>
0

>  <SCORE.INTRA.SOLV>
-0.121315

>  <SCORE.INTRA.SOLV.lig_0>
-16.1608

>  <SCORE.INTRA.VDW>
-1.51645

>  <SCORE.INTRA.VDW.0>
1.14169

>  <SCORE.INTRA.norm>
-0.288013

>  <SCORE.RESTR>
0.000548372

>  <SCORE.RESTR.CAVITY>
0.000548372

>  <SCORE.RESTR.norm>
4.56977e-05

>  <SCORE.SYSTEM>
0

>  <SCORE.SYSTEM.CONST>
0

>  <SCORE.SYSTEM.DIHEDRAL>
0

>  <SCORE.SYSTEM.SOLV>
0

>  <SCORE.SYSTEM.norm>
0

>  <SCORE.heavy>
12

>  <SCORE.norm>
-0.923132

>  <RMSD>
2.655

$$$$
ligand
 OpenBabel11021811493D
libRbt.so/2013.1/901 2013/11/27
 12 12  0  0  0  0  0  0  0  0999 V2000
   31.2529  -23.9809    5.1569 N   0  0  0  0  0  0  0  0  0  0  0  0
   31.6030  -19.8063    6.9162 O   0  0  0  0  0  0  0  0  0  0  0  0
   32.0215  -23.7241    3.9142 C   0  0  0  0  0  0  0  0  0  0  0  0
   30.3798  -20.9446    8.5835 O   0  0  0  0  0  0  0  0  0  0  0  0
   32.3335  -25.0644    3.2566 C   0  0  0  0  0  0  0  0  0  0  0  0
   32.7484  -20.4254    8.9771 O   0  0  0  0  0  0  0  0  0  0  0  0
   31.0841  -25.7123    2.8465 N   0  0  0  0  0  0  0  0  0  0  0  0
   29.9702  -24.8590    3.2676 C   0  0  0  0  0  0  0  0  0  0  0  0
   30.0489  -24.7476    4.7806 C   0  0  0  0  0  0  0  0  0  0  0  0
   30.8869  -22.7552    5.9724 C   0  0  0  0  0  0  0  0  0  0  0  0
   31.8958  -22.3231    7.0684 C   0  0  0  0  0  0  0  0  0  0  0  0
   31.6355  -20.8633    7.8836 S   0  0  0  0  0  0  0  0  0  0  0  0
  1  3  1  0  0  0  0
  1  9  1  0  0  0  0
  1 10  1  0  0  0  0
  2 12  1  0  0  0  0
  3  5  1  0  0  0  0
  4 12  2  0  0  0  0
  5  7  1  0  0  0  0
  6 12  2  0  0  0  0
  7  8  1  0  0  0  0
  8  9  1  0  0  0  0
 10 11  1  0  0  0  0
 11 12  1  0  0  0  0
M  END
>  <CHROM.1>
-90.82010032,172.78668486,-58.29689928,31.35904168,-22.66095553,5.99721701
1.67073206,-0.27883392,-2.29888124

>  <Name>
ligand

>  <RI>
0

>  <Rbt.Current_Directory>
/home/itssahil/PROJECTS/Mol_Feturizer/New_Systems/rnas/4E8N

>  <Rbt.Executable>
rbdock ($Id: //depot/dev/client3/rdock/2013.1/src/exe/rbdock.cxx#4 $)

>  <Rbt.Library>
libRbt.so (2013.1, Build901 2013/11/27)

>  <Rbt.Parameter_File>
/export/apps/rDock/src/rDock_2013.1_src/data/scripts/dock_solv.prm

>  <Rbt.Receptor>
prm/pocket_docking_8.prm

>  <SCORE>
-11.1657

>  <SCORE.INTER>
-7.56707

>  <SCORE.INTER.CONST>
1

>  <SCORE.INTER.POLAR>
0

>  <SCORE.INTER.ROT>
3

>  <SCORE.INTER.SOLV>
7.22611

>  <SCORE.INTER.VDW>
-13.0534

>  <SCORE.INTER.norm>
-0.630589

>  <SCORE.INTRA>
-3.59867

>  <SCORE.INTRA.DIHEDRAL>
-3.47369

>  <SCORE.INTRA.DIHEDRAL.0>
5.0186

>  <SCORE.INTRA.POLAR>
0

>  <SCORE.INTRA.POLAR.0>
0

>  <SCORE.INTRA.REPUL>
0

>  <SCORE.INTRA.REPUL.0>
0

>  <SCORE.INTRA.SOLV>
-0.117856

>  <SCORE.INTRA.SOLV.lig_0>
-16.1608

>  <SCORE.INTRA.VDW>
-1.8029

>  <SCORE.INTRA.VDW.0>
1.14169

>  <SCORE.INTRA.norm>
-0.299889

>  <SCORE.RESTR>
0

>  <SCORE.RESTR.CAVITY>
0

>  <SCORE.RESTR.norm>
0

>  <SCORE.SYSTEM>
0

>  <SCORE.SYSTEM.CONST>
0

>  <SCORE.SYSTEM.DIHEDRAL>
0

>  <SCORE.SYSTEM.SOLV>
0

>  <SCORE.SYSTEM.norm>
0

>  <SCORE.heavy>
12

>  <SCORE.norm>
-0.930479

>  <RMSD>
2.655

$$$$
ligand
 OpenBabel11021811493D
libRbt.so/2013.1/901 2013/11/27
 12 12  0  0  0  0  0  0  0  0999 V2000
   31.6884  -22.9849    4.7877 N   0  0  0  0  0  0  0  0  0  0  0  0
   31.5632  -22.6044    7.9298 O   0  0  0  0  0  0  0  0  0  0  0  0
   32.1080  -23.7896    3.6141 C   0  0  0  0  0  0  0  0  0  0  0  0
   32.4566  -20.5653    8.7145 O   0  0  0  0  0  0  0  0  0  0  0  0
   31.4438  -25.1593    3.7082 C   0  0  0  0  0  0  0  0  0  0  0  0
   30.3542  -20.5441    7.4439 O   0  0  0  0  0  0  0  0  0  0  0  0
   29.9891  -25.0070    3.6097 N   0  0  0  0  0  0  0  0  0  0  0  0
   29.6877  -23.5769    3.5101 C   0  0  0  0  0  0  0  0  0  0  0  0
   30.2134  -22.9270    4.7786 C   0  0  0  0  0  0  0  0  0  0  0  0
   32.2887  -21.5952    4.8847 C   0  0  0  0  0  0  0  0  0  0  0  0
   32.8438  -21.1731    6.2702 C   0  0  0  0  0  0  0  0  0  0  0  0
   31.8131  -21.2297    7.6110 S   0  0  0  0  0  0  0  0  0  0  0  0
  1  3  1  0  0  0  0
  1  9  1  0  0  0  0
  1 10  1  0  0  0  0
  2 12  1  0  0  0  0
  3  5  1  0  0  0  0
  4 12  2  0  0  0  0
  5  7  1  0  0  0  0
  6 12  2  0  0  0  0
  7  8  1  0  0  0  0
  8  9  1  0  0  0  0
 10 11  1  0  0  0  0
 11 12  1  0  0  0  0
M  END
>  <CHROM.1>
-133.88672446,-56.17425297,70.64245303,31.41512740,-22.42606651,5.83909815
-1.77954207,0.19478706,0.94838781

>  <Name>
ligand

>  <RI>
0

>  <Rbt.Current_Directory>
/home/itssahil/PROJECTS/Mol_Feturizer/New_Systems/rnas/4E8N

>  <Rbt.Executable>
rbdock ($Id: //depot/dev/client3/rdock/2013.1/src/exe/rbdock.cxx#4 $)

>  <Rbt.Library>
libRbt.so (2013.1, Build901 2013/11/27)

>  <Rbt.Parameter_File>
/export/apps/rDock/src/rDock_2013.1_src/data/scripts/dock_solv.prm

>  <Rbt.Receptor>
prm/pocket_docking_3.prm

>  <SCORE>
-9.15196

>  <SCORE.INTER>
-5.35128

>  <SCORE.INTER.CONST>
1

>  <SCORE.INTER.POLAR>
0

>  <SCORE.INTER.ROT>
3

>  <SCORE.INTER.SOLV>
4.45817

>  <SCORE.INTER.VDW>
-10.6536

>  <SCORE.INTER.norm>
-0.44594

>  <SCORE.INTRA>
-3.80554

>  <SCORE.INTRA.DIHEDRAL>
-2.64598

>  <SCORE.INTRA.DIHEDRAL.0>
5.0186

>  <SCORE.INTRA.POLAR>
0

>  <SCORE.INTRA.POLAR.0>
0

>  <SCORE.INTRA.REPUL>
0

>  <SCORE.INTRA.REPUL.0>
0

>  <SCORE.INTRA.SOLV>
0.286995

>  <SCORE.INTRA.SOLV.lig_0>
-16.1608

>  <SCORE.INTRA.VDW>
-2.62604

>  <SCORE.INTRA.VDW.0>
1.14169

>  <SCORE.INTRA.norm>
-0.317128

>  <SCORE.RESTR>
0.00485322

>  <SCORE.RESTR.CAVITY>
0.00485322

>  <SCORE.RESTR.norm>
0.000404435

>  <SCORE.SYSTEM>
0

>  <SCORE.SYSTEM.CONST>
0

>  <SCORE.SYSTEM.DIHEDRAL>
0

>  <SCORE.SYSTEM.SOLV>
0

>  <SCORE.SYSTEM.norm>
0

>  <SCORE.heavy>
12

>  <SCORE.norm>
-0.762664

>  <RMSD>
2.664

$$$$
ligand
 OpenBabel11021811493D
libRbt.so/2013.1/901 2013/11/27
 12 12  0  0  0  0  0  0  0  0999 V2000
   31.2320  -24.0031    5.1475 N   0  0  0  0  0  0  0  0  0  0  0  0
   31.6016  -19.8035    6.9011 O   0  0  0  0  0  0  0  0  0  0  0  0
   32.0096  -23.7455    3.9106 C   0  0  0  0  0  0  0  0  0  0  0  0
   30.3805  -20.9688    8.5511 O   0  0  0  0  0  0  0  0  0  0  0  0
   32.3147  -25.0845    3.2471 C   0  0  0  0  0  0  0  0  0  0  0  0
   32.7446  -20.4397    8.9581 O   0  0  0  0  0  0  0  0  0  0  0  0
   31.0626  -25.7203    2.8266 N   0  0  0  0  0  0  0  0  0  0  0  0
   29.9531  -24.8606    3.2463 C   0  0  0  0  0  0  0  0  0  0  0  0
   30.0242  -24.7583    4.7603 C   0  0  0  0  0  0  0  0  0  0  0  0
   30.8711  -22.7793    5.9678 C   0  0  0  0  0  0  0  0  0  0  0  0
   31.9095  -22.3201    7.0246 C   0  0  0  0  0  0  0  0  0  0  0  0
   31.6377  -20.8715    7.8561 S   0  0  0  0  0  0  0  0  0  0  0  0
  1  3  1  0  0  0  0
  1  9  1  0  0  0  0
  1 10  1  0  0  0  0
  2 12  1  0  0  0  0
  3  5  1  0  0  0  0
  4 12  2  0  0  0  0
  5  7  1  0  0  0  0
  6 12  2  0  0  0  0
  7  8  1  0  0  0  0
  8  9  1  0  0  0  0
 10 11  1  0  0  0  0
 11 12  1  0  0  0  0
M  END
>  <CHROM.1>
-87.91242850,173.69209958,-61.16562626,31.35050315,-22.67296873,5.97743172
1.67451894,-0.27292998,-2.30031145

>  <Name>
ligand

>  <RI>
0

>  <Rbt.Current_Directory>
/home/itssahil/PROJECTS/Mol_Feturizer/New_Systems/rnas/4E8N

>  <Rbt.Executable>
rbdock ($Id: //depot/dev/client3/rdock/2013.1/src/exe/rbdock.cxx#4 $)

>  <Rbt.Library>
libRbt.so (2013.1, Build901 2013/11/27)

>  <Rbt.Parameter_File>
/export/apps/rDock/src/rDock_2013.1_src/data/scripts/dock_solv.prm

>  <Rbt.Receptor>
prm/pocket_docking_4.prm

>  <SCORE>
-11.1467

>  <SCORE.INTER>
-7.44753

>  <SCORE.INTER.CONST>
1

>  <SCORE.INTER.POLAR>
0

>  <SCORE.INTER.ROT>
3

>  <SCORE.INTER.SOLV>
7.20514

>  <SCORE.INTER.VDW>
-12.9667

>  <SCORE.INTER.norm>
-0.620627

>  <SCORE.INTRA>
-3.69916

>  <SCORE.INTRA.DIHEDRAL>
-3.70832

>  <SCORE.INTRA.DIHEDRAL.0>
5.0186

>  <SCORE.INTRA.POLAR>
0

>  <SCORE.INTRA.POLAR.0>
0

>  <SCORE.INTRA.REPUL>
0

>  <SCORE.INTRA.REPUL.0>
0

>  <SCORE.INTRA.SOLV>
-0.111784

>  <SCORE.INTRA.SOLV.lig_0>
-16.1608

>  <SCORE.INTRA.VDW>
-1.78911

>  <SCORE.INTRA.VDW.0>
1.14169

>  <SCORE.INTRA.norm>
-0.308263

>  <SCORE.RESTR>
0

>  <SCORE.RESTR.CAVITY>
0

>  <SCORE.RESTR.norm>
0

>  <SCORE.SYSTEM>
0

>  <SCORE.SYSTEM.CONST>
0

>  <SCORE.SYSTEM.DIHEDRAL>
0

>  <SCORE.SYSTEM.SOLV>
0

>  <SCORE.SYSTEM.norm>
0

>  <SCORE.heavy>
12

>  <SCORE.norm>
-0.928891

>  <RMSD>
2.666

$$$$
ligand
 OpenBabel11021811493D
libRbt.so/2013.1/901 2013/11/27
 12 12  0  0  0  0  0  0  0  0999 V2000
   30.6150  -23.5993    3.9814 N   0  0  0  0  0  0  0  0  0  0  0  0
   32.0260  -22.5708    8.0931 O   0  0  0  0  0  0  0  0  0  0  0  0
   30.2987  -22.6882    2.8541 C   0  0  0  0  0  0  0  0  0  0  0  0
   32.5705  -20.3621    7.4629 O   0  0  0  0  0  0  0  0  0  0  0  0
   30.5470  -23.4356    1.5479 C   0  0  0  0  0  0  0  0  0  0  0  0
   30.2646  -20.8859    8.1284 O   0  0  0  0  0  0  0  0  0  0  0  0
   29.6172  -24.5642    1.4441 N   0  0  0  0  0  0  0  0  0  0  0  0
   28.8121  -24.6037    2.6674 C   0  0  0  0  0  0  0  0  0  0  0  0
   29.7774  -24.8044    3.8232 C   0  0  0  0  0  0  0  0  0  0  0  0
   30.4646  -23.0085    5.3704 C   0  0  0  0  0  0  0  0  0  0  0  0
   31.4210  -21.8438    5.7375 C   0  0  0  0  0  0  0  0  0  0  0  0
   31.5928  -21.4146    7.3653 S   0  0  0  0  0  0  0  0  0  0  0  0
  1  3  1  0  0  0  0
  1  9  1  0  0  0  0
  1 10  1  0  0  0  0
  2 12  1  0  0  0  0
  3  5  1  0  0  0  0
  4 12  2  0  0  0  0
  5  7  1  0  0  0  0
  6 12  2  0  0  0  0
  7  8  1  0  0  0  0
  8  9  1  0  0  0  0
 10 11  1  0  0  0  0
 11 12  1  0  0  0  0
M  END
>  <CHROM.1>
-64.61876966,-164.16675075,57.24009604,30.78352607,-22.63597909,5.20025487
2.08889931,-0.93843707,-1.63255529

>  <Name>
ligand

>  <RI>
0

>  <Rbt.Current_Directory>
/home/itssahil/PROJECTS/Mol_Feturizer/New_Systems/rnas/4E8N

>  <Rbt.Executable>
rbdock ($Id: //depot/dev/client3/rdock/2013.1/src/exe/rbdock.cxx#4 $)

>  <Rbt.Library>
libRbt.so (2013.1, Build901 2013/11/27)

>  <Rbt.Parameter_File>
/export/apps/rDock/src/rDock_2013.1_src/data/scripts/dock_solv.prm

>  <Rbt.Receptor>
prm/pocket_docking_3.prm

>  <SCORE>
-11.0561

>  <SCORE.INTER>
-7.41817

>  <SCORE.INTER.CONST>
1

>  <SCORE.INTER.POLAR>
0

>  <SCORE.INTER.ROT>
3

>  <SCORE.INTER.SOLV>
6.30877

>  <SCORE.INTER.VDW>
-12.6484

>  <SCORE.INTER.norm>
-0.618181

>  <SCORE.INTRA>
-3.63974

>  <SCORE.INTRA.DIHEDRAL>
-4.04466

>  <SCORE.INTRA.DIHEDRAL.0>
5.0186

>  <SCORE.INTRA.POLAR>
0

>  <SCORE.INTRA.POLAR.0>
0

>  <SCORE.INTRA.REPUL>
0

>  <SCORE.INTRA.REPUL.0>
0

>  <SCORE.INTRA.SOLV>
-0.111146

>  <SCORE.INTRA.SOLV.lig_0>
-16.1608

>  <SCORE.INTRA.VDW>
-1.56184

>  <SCORE.INTRA.VDW.0>
1.14169

>  <SCORE.INTRA.norm>
-0.303312

>  <SCORE.RESTR>
0.00182906

>  <SCORE.RESTR.CAVITY>
0.00182906

>  <SCORE.RESTR.norm>
0.000152421

>  <SCORE.SYSTEM>
0

>  <SCORE.SYSTEM.CONST>
0

>  <SCORE.SYSTEM.DIHEDRAL>
0

>  <SCORE.SYSTEM.SOLV>
0

>  <SCORE.SYSTEM.norm>
0

>  <SCORE.heavy>
12

>  <SCORE.norm>
-0.92134

>  <RMSD>
2.692

$$$$
ligand
 OpenBabel11021811493D
libRbt.so/2013.1/901 2013/11/27
 12 12  0  0  0  0  0  0  0  0999 V2000
   30.4960  -22.6028    4.6522 N   0  0  0  0  0  0  0  0  0  0  0  0
   31.5399  -22.8905    7.7897 O   0  0  0  0  0  0  0  0  0  0  0  0
   31.0869  -23.9487    4.8526 C   0  0  0  0  0  0  0  0  0  0  0  0
   32.5574  -20.8643    8.4460 O   0  0  0  0  0  0  0  0  0  0  0  0
   29.9625  -24.9783    4.8107 C   0  0  0  0  0  0  0  0  0  0  0  0
   30.2210  -20.8429    7.6872 O   0  0  0  0  0  0  0  0  0  0  0  0
   29.3534  -24.9857    3.4772 N   0  0  0  0  0  0  0  0  0  0  0  0
   30.0118  -23.9545    2.6713 C   0  0  0  0  0  0  0  0  0  0  0  0
   29.7666  -22.6276    3.3691 C   0  0  0  0  0  0  0  0  0  0  0  0
   31.4685  -21.4398    4.7050 C   0  0  0  0  0  0  0  0  0  0  0  0
   32.3876  -21.3586    5.9519 C   0  0  0  0  0  0  0  0  0  0  0  0
   31.6899  -21.4977    7.4871 S   0  0  0  0  0  0  0  0  0  0  0  0
  1  3  1  0  0  0  0
  1  9  1  0  0  0  0
  1 10  1  0  0  0  0
  2 12  1  0  0  0  0
  3  5  1  0  0  0  0
  4 12  2  0  0  0  0
  5  7  1  0  0  0  0
  6 12  2  0  0  0  0
  7  8  1  0  0  0  0
  8  9  1  0  0  0  0
 10 11  1  0  0  0  0
 11 12  1  0  0  0  0
M  END
>  <CHROM.1>
-52.29799446,-49.30564940,83.48534287,30.97204435,-22.52121779,5.75559470
-2.79084372,1.19147535,2.17366571

>  <Name>
ligand

>  <RI>
0

>  <Rbt.Current_Directory>
/home/itssahil/PROJECTS/Mol_Feturizer/New_Systems/rnas/4E8N

>  <Rbt.Executable>
rbdock ($Id: //depot/dev/client3/rdock/2013.1/src/exe/rbdock.cxx#4 $)

>  <Rbt.Library>
libRbt.so (2013.1, Build901 2013/11/27)

>  <Rbt.Parameter_File>
/export/apps/rDock/src/rDock_2013.1_src/data/scripts/dock_solv.prm

>  <Rbt.Receptor>
prm/pocket_docking_5.prm

>  <SCORE>
-11.2715

>  <SCORE.INTER>
-7.65638

>  <SCORE.INTER.CONST>
1

>  <SCORE.INTER.POLAR>
0

>  <SCORE.INTER.ROT>
3

>  <SCORE.INTER.SOLV>
6.77573

>  <SCORE.INTER.VDW>
-12.9628

>  <SCORE.INTER.norm>
-0.638032

>  <SCORE.INTRA>
-3.6151

>  <SCORE.INTRA.DIHEDRAL>
-3.30903

>  <SCORE.INTRA.DIHEDRAL.0>
5.0186

>  <SCORE.INTRA.POLAR>
0

>  <SCORE.INTRA.POLAR.0>
0

>  <SCORE.INTRA.REPUL>
0

>  <SCORE.INTRA.REPUL.0>
0

>  <SCORE.INTRA.SOLV>
0.244261

>  <SCORE.INTRA.SOLV.lig_0>
-16.1608

>  <SCORE.INTRA.VDW>
-2.08272

>  <SCORE.INTRA.VDW.0>
1.14169

>  <SCORE.INTRA.norm>
-0.301259

>  <SCORE.RESTR>
0

>  <SCORE.RESTR.CAVITY>
0

>  <SCORE.RESTR.norm>
0

>  <SCORE.SYSTEM>
0

>  <SCORE.SYSTEM.CONST>
0

>  <SCORE.SYSTEM.DIHEDRAL>
0

>  <SCORE.SYSTEM.SOLV>
0

>  <SCORE.SYSTEM.norm>
0

>  <SCORE.heavy>
12

>  <SCORE.norm>
-0.93929

>  <RMSD>
2.716

$$$$
ligand
 OpenBabel11021811493D
libRbt.so/2013.1/901 2013/11/27
 12 12  0  0  0  0  0  0  0  0999 V2000
   31.2525  -23.3049    4.3787 N   0  0  0  0  0  0  0  0  0  0  0  0
   32.5109  -21.1536    8.2751 O   0  0  0  0  0  0  0  0  0  0  0  0
   31.0639  -24.5711    3.6289 C   0  0  0  0  0  0  0  0  0  0  0  0
   30.5897  -21.5981    6.9778 O   0  0  0  0  0  0  0  0  0  0  0  0
   29.5736  -24.7536    3.3610 C   0  0  0  0  0  0  0  0  0  0  0  0
   31.8224  -23.4731    7.9776 O   0  0  0  0  0  0  0  0  0  0  0  0
   29.0968  -23.6776    2.4870 N   0  0  0  0  0  0  0  0  0  0  0  0
   30.2195  -22.7735    2.2255 C   0  0  0  0  0  0  0  0  0  0  0  0
   30.6616  -22.2207    3.5697 C   0  0  0  0  0  0  0  0  0  0  0  0
   32.6802  -22.9765    4.7722 C   0  0  0  0  0  0  0  0  0  0  0  0
   32.8673  -21.9033    5.8763 C   0  0  0  0  0  0  0  0  0  0  0  0
   31.9342  -22.0129    7.2836 S   0  0  0  0  0  0  0  0  0  0  0  0
  1  3  1  0  0  0  0
  1  9  1  0  0  0  0
  1 10  1  0  0  0  0
  2 12  1  0  0  0  0
  3  5  1  0  0  0  0
  4 12  2  0  0  0  0
  5  7  1  0  0  0  0
  6 12  2  0  0  0  0
  7  8  1  0  0  0  0
  8  9  1  0  0  0  0
 10 11  1  0  0  0  0
 11 12  1  0  0  0  0
M  END
>  <CHROM.1>
-163.21805846,47.19949106,165.16313302,31.27336176,-22.76342683,5.35838080
2.50002239,-1.08340864,-1.06069735

>  <Name>
ligand

>  <RI>
0

>  <Rbt.Current_Directory>
/home/itssahil/PROJECTS/Mol_Feturizer/New_Systems/rnas/4E8N

>  <Rbt.Executable>
rbdock ($Id: //depot/dev/client3/rdock/2013.1/src/exe/rbdock.cxx#4 $)

>  <Rbt.Library>
libRbt.so (2013.1, Build901 2013/11/27)

>  <Rbt.Parameter_File>
/export/apps/rDock/src/rDock_2013.1_src/data/scripts/dock_solv.prm

>  <Rbt.Receptor>
prm/pocket_docking_4.prm

>  <SCORE>
-10.3117

>  <SCORE.INTER>
-6.6654

>  <SCORE.INTER.CONST>
1

>  <SCORE.INTER.POLAR>
0

>  <SCORE.INTER.ROT>
3

>  <SCORE.INTER.SOLV>
6.90646

>  <SCORE.INTER.VDW>
-12.3458

>  <SCORE.INTER.norm>
-0.55545

>  <SCORE.INTRA>
-3.64629

>  <SCORE.INTRA.DIHEDRAL>
-3.55223

>  <SCORE.INTRA.DIHEDRAL.0>
5.0186

>  <SCORE.INTRA.POLAR>
0

>  <SCORE.INTRA.POLAR.0>
0

>  <SCORE.INTRA.REPUL>
0

>  <SCORE.INTRA.REPUL.0>
0

>  <SCORE.INTRA.SOLV>
0.857975

>  <SCORE.INTRA.SOLV.lig_0>
-16.1608

>  <SCORE.INTRA.VDW>
-2.29917

>  <SCORE.INTRA.VDW.0>
1.14169

>  <SCORE.INTRA.norm>
-0.303858

>  <SCORE.RESTR>
0

>  <SCORE.RESTR.CAVITY>
0

>  <SCORE.RESTR.norm>
0

>  <SCORE.SYSTEM>
0

>  <SCORE.SYSTEM.CONST>
0

>  <SCORE.SYSTEM.DIHEDRAL>
0

>  <SCORE.SYSTEM.SOLV>
0

>  <SCORE.SYSTEM.norm>
0

>  <SCORE.heavy>
12

>  <SCORE.norm>
-0.859308

>  <RMSD>
2.731

$$$$
ligand
 OpenBabel11021811493D
libRbt.so/2013.1/901 2013/11/27
 12 12  0  0  0  0  0  0  0  0999 V2000
   32.2520  -20.6111    7.1227 N   0  0  0  0  0  0  0  0  0  0  0  0
   30.0371  -20.2830    9.1692 O   0  0  0  0  0  0  0  0  0  0  0  0
   32.2015  -22.0228    7.5759 C   0  0  0  0  0  0  0  0  0  0  0  0
   30.5510  -19.1019   11.1472 O   0  0  0  0  0  0  0  0  0  0  0  0
   31.4030  -22.8270    6.5551 C   0  0  0  0  0  0  0  0  0  0  0  0
   30.2166  -17.8544    9.0575 O   0  0  0  0  0  0  0  0  0  0  0  0
   32.1090  -22.8275    5.2703 N   0  0  0  0  0  0  0  0  0  0  0  0
   33.3116  -22.0030    5.4123 C   0  0  0  0  0  0  0  0  0  0  0  0
   32.8451  -20.6025    5.7709 C   0  0  0  0  0  0  0  0  0  0  0  0
   32.9768  -19.6473    8.0430 C   0  0  0  0  0  0  0  0  0  0  0  0
   32.4414  -19.5369    9.4946 C   0  0  0  0  0  0  0  0  0  0  0  0
   30.7987  -19.2077    9.7327 S   0  0  0  0  0  0  0  0  0  0  0  0
  1  3  1  0  0  0  0
  1  9  1  0  0  0  0
  1 10  1  0  0  0  0
  2 12  1  0  0  0  0
  3  5  1  0  0  0  0
  4 12  2  0  0  0  0
  5  7  1  0  0  0  0
  6 12  2  0  0  0  0
  7  8  1  0  0  0  0
  8  9  1  0  0  0  0
 10 11  1  0  0  0  0
 11 12  1  0  0  0  0
M  END
>  <CHROM.1>
-58.11997054,-53.14854666,62.12811282,31.62553934,-20.37310675,8.09777357
-1.12020483,0.69077006,0.61970705

>  <Name>
ligand

>  <RI>
0

>  <Rbt.Current_Directory>
/home/itssahil/PROJECTS/Mol_Feturizer/New_Systems/rnas/4E8N

>  <Rbt.Executable>
rbdock ($Id: //depot/dev/client3/rdock/2013.1/src/exe/rbdock.cxx#4 $)

>  <Rbt.Library>
libRbt.so (2013.1, Build901 2013/11/27)

>  <Rbt.Parameter_File>
/export/apps/rDock/src/rDock_2013.1_src/data/scripts/dock_solv.prm

>  <Rbt.Receptor>
prm/pocket_docking_4.prm

>  <SCORE>
-10.6519

>  <SCORE.INTER>
-6.10925

>  <SCORE.INTER.CONST>
1

>  <SCORE.INTER.POLAR>
0

>  <SCORE.INTER.ROT>
3

>  <SCORE.INTER.SOLV>
3.89217

>  <SCORE.INTER.VDW>
-10.9702

>  <SCORE.INTER.norm>
-0.509104

>  <SCORE.INTRA>
-4.54261

>  <SCORE.INTRA.DIHEDRAL>
-4.82494

>  <SCORE.INTRA.DIHEDRAL.0>
5.0186

>  <SCORE.INTRA.POLAR>
0

>  <SCORE.INTRA.POLAR.0>
0

>  <SCORE.INTRA.REPUL>
0

>  <SCORE.INTRA.REPUL.0>
0

>  <SCORE.INTRA.SOLV>
0.0438402

>  <SCORE.INTRA.SOLV.lig_0>
-16.1608

>  <SCORE.INTRA.VDW>
-2.15206

>  <SCORE.INTRA.VDW.0>
1.14169

>  <SCORE.INTRA.norm>
-0.378551

>  <SCORE.RESTR>
0

>  <SCORE.RESTR.CAVITY>
0

>  <SCORE.RESTR.norm>
0

>  <SCORE.SYSTEM>
0

>  <SCORE.SYSTEM.CONST>
0

>  <SCORE.SYSTEM.DIHEDRAL>
0

>  <SCORE.SYSTEM.SOLV>
0

>  <SCORE.SYSTEM.norm>
0

>  <SCORE.heavy>
12

>  <SCORE.norm>
-0.887655

>  <RMSD>
2.772

$$$$
ligand
 OpenBabel11021811493D
libRbt.so/2013.1/901 2013/11/27
 12 12  0  0  0  0  0  0  0  0999 V2000
   30.7695  -22.7125    4.5650 N   0  0  0  0  0  0  0  0  0  0  0  0
   31.6636  -23.1455    7.7904 O   0  0  0  0  0  0  0  0  0  0  0  0
   31.1738  -24.1397    4.5435 C   0  0  0  0  0  0  0  0  0  0  0  0
   32.6689  -21.1195    8.4658 O   0  0  0  0  0  0  0  0  0  0  0  0
   29.9128  -24.9957    4.4862 C   0  0  0  0  0  0  0  0  0  0  0  0
   30.4120  -21.0743    7.4967 O   0  0  0  0  0  0  0  0  0  0  0  0
   29.2061  -24.7445    3.2266 N   0  0  0  0  0  0  0  0  0  0  0  0
   29.9409  -23.7122    2.4914 C   0  0  0  0  0  0  0  0  0  0  0  0
   29.9455  -22.4691    3.3646 C   0  0  0  0  0  0  0  0  0  0  0  0
   31.9008  -21.7068    4.6637 C   0  0  0  0  0  0  0  0  0  0  0  0
   32.7128  -21.7018    5.9853 C   0  0  0  0  0  0  0  0  0  0  0  0
   31.8758  -21.7685    7.4544 S   0  0  0  0  0  0  0  0  0  0  0  0
  1  3  1  0  0  0  0
  1  9  1  0  0  0  0
  1 10  1  0  0  0  0
  2 12  1  0  0  0  0
  3  5  1  0  0  0  0
  4 12  2  0  0  0  0
  5  7  1  0  0  0  0
  6 12  2  0  0  0  0
  7  8  1  0  0  0  0
  8  9  1  0  0  0  0
 10 11  1  0  0  0  0
 11 12  1  0  0  0  0
M  END
>  <CHROM.1>
-66.38830149,-45.05146487,87.79026151,31.11358022,-22.64903534,5.65110790
-2.58533073,1.10063730,2.02368659

>  <Name>
ligand

>  <RI>
0

>  <Rbt.Current_Directory>
/home/itssahil/PROJECTS/Mol_Feturizer/New_Systems/rnas/4E8N

>  <Rbt.Executable>
rbdock ($Id: //depot/dev/client3/rdock/2013.1/src/exe/rbdock.cxx#4 $)

>  <Rbt.Library>
libRbt.so (2013.1, Build901 2013/11/27)

>  <Rbt.Parameter_File>
/export/apps/rDock/src/rDock_2013.1_src/data/scripts/dock_solv.prm

>  <Rbt.Receptor>
prm/pocket_docking_5.prm

>  <SCORE>
-11.361

>  <SCORE.INTER>
-7.89397

>  <SCORE.INTER.CONST>
1

>  <SCORE.INTER.POLAR>
0

>  <SCORE.INTER.ROT>
3

>  <SCORE.INTER.SOLV>
6.60737

>  <SCORE.INTER.VDW>
-13.0651

>  <SCORE.INTER.norm>
-0.65783

>  <SCORE.INTRA>
-3.467

>  <SCORE.INTRA.DIHEDRAL>
-2.49698

>  <SCORE.INTRA.DIHEDRAL.0>
5.0186

>  <SCORE.INTRA.POLAR>
0

>  <SCORE.INTRA.POLAR.0>
0

>  <SCORE.INTRA.REPUL>
0

>  <SCORE.INTRA.REPUL.0>
0

>  <SCORE.INTRA.SOLV>
0.351755

>  <SCORE.INTRA.SOLV.lig_0>
-16.1608

>  <SCORE.INTRA.VDW>
-2.39439

>  <SCORE.INTRA.VDW.0>
1.14169

>  <SCORE.INTRA.norm>
-0.288917

>  <SCORE.RESTR>
0

>  <SCORE.RESTR.CAVITY>
0

>  <SCORE.RESTR.norm>
0

>  <SCORE.SYSTEM>
0

>  <SCORE.SYSTEM.CONST>
0

>  <SCORE.SYSTEM.DIHEDRAL>
0

>  <SCORE.SYSTEM.SOLV>
0

>  <SCORE.SYSTEM.norm>
0

>  <SCORE.heavy>
12

>  <SCORE.norm>
-0.946748

>  <RMSD>
2.813

$$$$
ligand
 OpenBabel11021811493D
libRbt.so/2013.1/901 2013/11/27
 12 12  0  0  0  0  0  0  0  0999 V2000
   31.1966  -23.2767    4.3168 N   0  0  0  0  0  0  0  0  0  0  0  0
   30.4691  -21.6383    6.8413 O   0  0  0  0  0  0  0  0  0  0  0  0
   30.9104  -24.6568    3.8538 C   0  0  0  0  0  0  0  0  0  0  0  0
   31.9010  -23.2241    7.8446 O   0  0  0  0  0  0  0  0  0  0  0  0
   29.4413  -24.7337    3.4513 C   0  0  0  0  0  0  0  0  0  0  0  0
   32.1679  -20.8461    8.4000 O   0  0  0  0  0  0  0  0  0  0  0  0
   29.1998  -23.8520    2.3053 N   0  0  0  0  0  0  0  0  0  0  0  0
   30.4543  -23.1650    1.9883 C   0  0  0  0  0  0  0  0  0  0  0  0
   30.8375  -22.3591    3.2177 C   0  0  0  0  0  0  0  0  0  0  0  0
   32.6118  -23.0222    4.8001 C   0  0  0  0  0  0  0  0  0  0  0  0
   32.7942  -21.9021    5.8575 C   0  0  0  0  0  0  0  0  0  0  0  0
   31.8169  -21.9206    7.2388 S   0  0  0  0  0  0  0  0  0  0  0  0
  1  3  1  0  0  0  0
  1  9  1  0  0  0  0
  1 10  1  0  0  0  0
  2 12  1  0  0  0  0
  3  5  1  0  0  0  0
  4 12  2  0  0  0  0
  5  7  1  0  0  0  0
  6 12  2  0  0  0  0
  7  8  1  0  0  0  0
  8  9  1  0  0  0  0
 10 11  1  0  0  0  0
 11 12  1  0  0  0  0
M  END
>  <CHROM.1>
-152.22717837,50.75973175,-68.24385874,31.22400155,-22.76245788,5.30178313
-2.07875914,0.82046206,1.55276584

>  <Name>
ligand

>  <RI>
0

>  <Rbt.Current_Directory>
/home/itssahil/PROJECTS/Mol_Feturizer/New_Systems/rnas/4E8N

>  <Rbt.Executable>
rbdock ($Id: //depot/dev/client3/rdock/2013.1/src/exe/rbdock.cxx#4 $)

>  <Rbt.Library>
libRbt.so (2013.1, Build901 2013/11/27)

>  <Rbt.Parameter_File>
/export/apps/rDock/src/rDock_2013.1_src/data/scripts/dock_solv.prm

>  <Rbt.Receptor>
prm/pocket_docking_5.prm

>  <SCORE>
-10.9558

>  <SCORE.INTER>
-6.95072

>  <SCORE.INTER.CONST>
1

>  <SCORE.INTER.POLAR>
0

>  <SCORE.INTER.ROT>
3

>  <SCORE.INTER.SOLV>
6.28668

>  <SCORE.INTER.VDW>
-12.3294

>  <SCORE.INTER.norm>
-0.579226

>  <SCORE.INTRA>
-4.00506

>  <SCORE.INTRA.DIHEDRAL>
-3.5742

>  <SCORE.INTRA.DIHEDRAL.0>
5.0186

>  <SCORE.INTRA.POLAR>
0

>  <SCORE.INTRA.POLAR.0>
0

>  <SCORE.INTRA.REPUL>
0

>  <SCORE.INTRA.REPUL.0>
0

>  <SCORE.INTRA.SOLV>
0.2452

>  <SCORE.INTRA.SOLV.lig_0>
-16.1608

>  <SCORE.INTRA.VDW>
-2.34056

>  <SCORE.INTRA.VDW.0>
1.14169

>  <SCORE.INTRA.norm>
-0.333755

>  <SCORE.RESTR>
0

>  <SCORE.RESTR.CAVITY>
0

>  <SCORE.RESTR.norm>
0

>  <SCORE.SYSTEM>
0

>  <SCORE.SYSTEM.CONST>
0

>  <SCORE.SYSTEM.DIHEDRAL>
0

>  <SCORE.SYSTEM.SOLV>
0

>  <SCORE.SYSTEM.norm>
0

>  <SCORE.heavy>
12

>  <SCORE.norm>
-0.912982

>  <RMSD>
2.833

$$$$
ligand
 OpenBabel11021811493D
libRbt.so/2013.1/901 2013/11/27
 12 12  0  0  0  0  0  0  0  0999 V2000
   31.2408  -23.3364    4.3286 N   0  0  0  0  0  0  0  0  0  0  0  0
   30.4809  -21.6523    6.7824 O   0  0  0  0  0  0  0  0  0  0  0  0
   30.9470  -24.7201    3.8816 C   0  0  0  0  0  0  0  0  0  0  0  0
   31.8695  -23.2234    7.8667 O   0  0  0  0  0  0  0  0  0  0  0  0
   29.4824  -24.7886    3.4614 C   0  0  0  0  0  0  0  0  0  0  0  0
   32.1403  -20.8342    8.3699 O   0  0  0  0  0  0  0  0  0  0  0  0
   29.2640  -23.9210    2.3001 N   0  0  0  0  0  0  0  0  0  0  0  0
   30.5291  -23.2508    1.9894 C   0  0  0  0  0  0  0  0  0  0  0  0
   30.9047  -22.4311    3.2121 C   0  0  0  0  0  0  0  0  0  0  0  0
   32.6522  -23.0886    4.8263 C   0  0  0  0  0  0  0  0  0  0  0  0
   32.8313  -21.9590    5.8741 C   0  0  0  0  0  0  0  0  0  0  0  0
   31.8141  -21.9350    7.2262 S   0  0  0  0  0  0  0  0  0  0  0  0
  1  3  1  0  0  0  0
  1  9  1  0  0  0  0
  1 10  1  0  0  0  0
  2 12  1  0  0  0  0
  3  5  1  0  0  0  0
  4 12  2  0  0  0  0
  5  7  1  0  0  0  0
  6 12  2  0  0  0  0
  7  8  1  0  0  0  0
  8  9  1  0  0  0  0
 10 11  1  0  0  0  0
 11 12  1  0  0  0  0
M  END
>  <CHROM.1>
-151.99575348,49.40062421,-67.08339690,31.24915114,-22.80348859,5.30016175
-2.04842219,0.79937399,1.50872768

>  <Name>
ligand

>  <RI>
0

>  <Rbt.Current_Directory>
/home/itssahil/PROJECTS/Mol_Feturizer/New_Systems/rnas/4E8N

>  <Rbt.Executable>
rbdock ($Id: //depot/dev/client3/rdock/2013.1/src/exe/rbdock.cxx#4 $)

>  <Rbt.Library>
libRbt.so (2013.1, Build901 2013/11/27)

>  <Rbt.Parameter_File>
/export/apps/rDock/src/rDock_2013.1_src/data/scripts/dock_solv.prm

>  <Rbt.Receptor>
prm/pocket_docking_6.prm

>  <SCORE>
-10.8941

>  <SCORE.INTER>
-6.90719

>  <SCORE.INTER.CONST>
1

>  <SCORE.INTER.POLAR>
0

>  <SCORE.INTER.ROT>
3

>  <SCORE.INTER.SOLV>
6.21844

>  <SCORE.INTER.VDW>
-12.2776

>  <SCORE.INTER.norm>
-0.575599

>  <SCORE.INTRA>
-3.98693

>  <SCORE.INTRA.DIHEDRAL>
-3.50384

>  <SCORE.INTRA.DIHEDRAL.0>
5.0186

>  <SCORE.INTRA.POLAR>
0

>  <SCORE.INTRA.POLAR.0>
0

>  <SCORE.INTRA.REPUL>
0

>  <SCORE.INTRA.REPUL.0>
0

>  <SCORE.INTRA.SOLV>
0.242097

>  <SCORE.INTRA.SOLV.lig_0>
-16.1608

>  <SCORE.INTRA.VDW>
-2.35606

>  <SCORE.INTRA.VDW.0>
1.14169

>  <SCORE.INTRA.norm>
-0.332244

>  <SCORE.RESTR>
0

>  <SCORE.RESTR.CAVITY>
0

>  <SCORE.RESTR.norm>
0

>  <SCORE.SYSTEM>
0

>  <SCORE.SYSTEM.CONST>
0

>  <SCORE.SYSTEM.DIHEDRAL>
0

>  <SCORE.SYSTEM.SOLV>
0

>  <SCORE.SYSTEM.norm>
0

>  <SCORE.heavy>
12

>  <SCORE.norm>
-0.907844

>  <RMSD>
2.852

$$$$
ligand
 OpenBabel11021811493D
libRbt.so/2013.1/901 2013/11/27
 12 12  0  0  0  0  0  0  0  0999 V2000
   30.7300  -23.5669    4.0700 N   0  0  0  0  0  0  0  0  0  0  0  0
   30.7507  -21.4774    8.2300 O   0  0  0  0  0  0  0  0  0  0  0  0
   30.1646  -22.7701    2.9536 C   0  0  0  0  0  0  0  0  0  0  0  0
   32.6262  -22.8840    7.9550 O   0  0  0  0  0  0  0  0  0  0  0  0
   30.4604  -23.4974    1.6461 C   0  0  0  0  0  0  0  0  0  0  0  0
   32.9342  -20.4476    7.8914 O   0  0  0  0  0  0  0  0  0  0  0  0
   29.7620  -24.7863    1.6328 N   0  0  0  0  0  0  0  0  0  0  0  0
   29.0679  -24.9402    2.9137 C   0  0  0  0  0  0  0  0  0  0  0  0
   30.1328  -24.9148    3.9969 C   0  0  0  0  0  0  0  0  0  0  0  0
   30.5662  -22.9716    5.4557 C   0  0  0  0  0  0  0  0  0  0  0  0
   31.5803  -21.8711    5.8636 C   0  0  0  0  0  0  0  0  0  0  0  0
   31.9665  -21.6874    7.5008 S   0  0  0  0  0  0  0  0  0  0  0  0
  1  3  1  0  0  0  0
  1  9  1  0  0  0  0
  1 10  1  0  0  0  0
  2 12  1  0  0  0  0
  3  5  1  0  0  0  0
  4 12  2  0  0  0  0
  5  7  1  0  0  0  0
  6 12  2  0  0  0  0
  7  8  1  0  0  0  0
  8  9  1  0  0  0  0
 10 11  1  0  0  0  0
 11 12  1  0  0  0  0
M  END
>  <CHROM.1>
-80.76741412,-151.10759857,-55.78649981,31.03299100,-22.82010070,5.33620473
-2.38206300,1.07316047,1.84059127

>  <Name>
ligand

>  <RI>
0

>  <Rbt.Current_Directory>
/home/itssahil/PROJECTS/Mol_Feturizer/New_Systems/rnas/4E8N

>  <Rbt.Executable>
rbdock ($Id: //depot/dev/client3/rdock/2013.1/src/exe/rbdock.cxx#4 $)

>  <Rbt.Library>
libRbt.so (2013.1, Build901 2013/11/27)

>  <Rbt.Parameter_File>
/export/apps/rDock/src/rDock_2013.1_src/data/scripts/dock_solv.prm

>  <Rbt.Receptor>
prm/pocket_docking_8.prm

>  <SCORE>
-10.8537

>  <SCORE.INTER>
-8.23138

>  <SCORE.INTER.CONST>
1

>  <SCORE.INTER.POLAR>
0

>  <SCORE.INTER.ROT>
3

>  <SCORE.INTER.SOLV>
7.07026

>  <SCORE.INTER.VDW>
-13.4443

>  <SCORE.INTER.norm>
-0.685949

>  <SCORE.INTRA>
-2.62236

>  <SCORE.INTRA.DIHEDRAL>
-1.64464

>  <SCORE.INTRA.DIHEDRAL.0>
5.0186

>  <SCORE.INTRA.POLAR>
0

>  <SCORE.INTRA.POLAR.0>
0

>  <SCORE.INTRA.REPUL>
0

>  <SCORE.INTRA.REPUL.0>
0

>  <SCORE.INTRA.SOLV>
-0.112146

>  <SCORE.INTRA.SOLV.lig_0>
-16.1608

>  <SCORE.INTRA.VDW>
-1.74397

>  <SCORE.INTRA.VDW.0>
1.14169

>  <SCORE.INTRA.norm>
-0.21853

>  <SCORE.RESTR>
0

>  <SCORE.RESTR.CAVITY>
0

>  <SCORE.RESTR.norm>
0

>  <SCORE.SYSTEM>
0

>  <SCORE.SYSTEM.CONST>
0

>  <SCORE.SYSTEM.DIHEDRAL>
0

>  <SCORE.SYSTEM.SOLV>
0

>  <SCORE.SYSTEM.norm>
0

>  <SCORE.heavy>
12

>  <SCORE.norm>
-0.904479

>  <RMSD>
2.874

$$$$
ligand
 OpenBabel11021811493D
libRbt.so/2013.1/901 2013/11/27
 12 12  0  0  0  0  0  0  0  0999 V2000
   30.7563  -23.7044    4.0663 N   0  0  0  0  0  0  0  0  0  0  0  0
   30.7625  -21.5305    8.1825 O   0  0  0  0  0  0  0  0  0  0  0  0
   30.3599  -22.7392    3.0117 C   0  0  0  0  0  0  0  0  0  0  0  0
   32.7208  -22.8338    7.9870 O   0  0  0  0  0  0  0  0  0  0  0  0
   30.5273  -23.4147    1.6546 C   0  0  0  0  0  0  0  0  0  0  0  0
   32.8816  -20.3902    7.7926 O   0  0  0  0  0  0  0  0  0  0  0  0
   29.6010  -24.5464    1.5522 N   0  0  0  0  0  0  0  0  0  0  0  0
   28.8784  -24.6582    2.8217 C   0  0  0  0  0  0  0  0  0  0  0  0
   29.9190  -24.9086    3.8997 C   0  0  0  0  0  0  0  0  0  0  0  0
   30.6933  -23.1885    5.4915 C   0  0  0  0  0  0  0  0  0  0  0  0
   31.6262  -21.9999    5.8422 C   0  0  0  0  0  0  0  0  0  0  0  0
   31.9923  -21.7055    7.4678 S   0  0  0  0  0  0  0  0  0  0  0  0
  1  3  1  0  0  0  0
  1  9  1  0  0  0  0
  1 10  1  0  0  0  0
  2 12  1  0  0  0  0
  3  5  1  0  0  0  0
  4 12  2  0  0  0  0
  5  7  1  0  0  0  0
  6 12  2  0  0  0  0
  7  8  1  0  0  0  0
  8  9  1  0  0  0  0
 10 11  1  0  0  0  0
 11 12  1  0  0  0  0
M  END
>  <CHROM.1>
-62.44951211,-160.14373832,-56.37182472,31.03429578,-22.80703755,5.30713279
2.28527430,-0.98346339,-1.40362318

>  <Name>
ligand

>  <RI>
0

>  <Rbt.Current_Directory>
/home/itssahil/PROJECTS/Mol_Feturizer/New_Systems/rnas/4E8N

>  <Rbt.Executable>
rbdock ($Id: //depot/dev/client3/rdock/2013.1/src/exe/rbdock.cxx#4 $)

>  <Rbt.Library>
libRbt.so (2013.1, Build901 2013/11/27)

>  <Rbt.Parameter_File>
/export/apps/rDock/src/rDock_2013.1_src/data/scripts/dock_solv.prm

>  <Rbt.Receptor>
prm/pocket_docking_6.prm

>  <SCORE>
-11.4049

>  <SCORE.INTER>
-8.06568

>  <SCORE.INTER.CONST>
1

>  <SCORE.INTER.POLAR>
0

>  <SCORE.INTER.ROT>
3

>  <SCORE.INTER.SOLV>
7.24879

>  <SCORE.INTER.VDW>
-13.3934

>  <SCORE.INTER.norm>
-0.67214

>  <SCORE.INTRA>
-3.33923

>  <SCORE.INTRA.DIHEDRAL>
-3.59123

>  <SCORE.INTRA.DIHEDRAL.0>
5.0186

>  <SCORE.INTRA.POLAR>
0

>  <SCORE.INTRA.POLAR.0>
0

>  <SCORE.INTRA.REPUL>
0

>  <SCORE.INTRA.REPUL.0>
0

>  <SCORE.INTRA.SOLV>
-0.114574

>  <SCORE.INTRA.SOLV.lig_0>
-16.1608

>  <SCORE.INTRA.VDW>
-1.48633

>  <SCORE.INTRA.VDW.0>
1.14169

>  <SCORE.INTRA.norm>
-0.278269

>  <SCORE.RESTR>
0

>  <SCORE.RESTR.CAVITY>
0

>  <SCORE.RESTR.norm>
0

>  <SCORE.SYSTEM>
0

>  <SCORE.SYSTEM.CONST>
0

>  <SCORE.SYSTEM.DIHEDRAL>
0

>  <SCORE.SYSTEM.SOLV>
0

>  <SCORE.SYSTEM.norm>
0

>  <SCORE.heavy>
12

>  <SCORE.norm>
-0.950409

>  <RMSD>
2.875

$$$$
ligand
 OpenBabel11021811493D
libRbt.so/2013.1/901 2013/11/27
 12 12  0  0  0  0  0  0  0  0999 V2000
   30.7456  -23.7085    4.0659 N   0  0  0  0  0  0  0  0  0  0  0  0
   30.7457  -21.4742    8.1816 O   0  0  0  0  0  0  0  0  0  0  0  0
   30.1914  -22.8094    3.0241 C   0  0  0  0  0  0  0  0  0  0  0  0
   32.6696  -22.8251    7.9678 O   0  0  0  0  0  0  0  0  0  0  0  0
   30.3886  -23.4707    1.6640 C   0  0  0  0  0  0  0  0  0  0  0  0
   32.8869  -20.3868    7.7623 O   0  0  0  0  0  0  0  0  0  0  0  0
   29.6071  -24.7095    1.6030 N   0  0  0  0  0  0  0  0  0  0  0  0
   28.9540  -24.8991    2.9005 C   0  0  0  0  0  0  0  0  0  0  0  0
   30.0588  -25.0089    3.9374 C   0  0  0  0  0  0  0  0  0  0  0  0
   30.6744  -23.1920    5.4904 C   0  0  0  0  0  0  0  0  0  0  0  0
   31.5698  -21.9726    5.8330 C   0  0  0  0  0  0  0  0  0  0  0  0
   31.9624  -21.6814    7.4530 S   0  0  0  0  0  0  0  0  0  0  0  0
  1  3  1  0  0  0  0
  1  9  1  0  0  0  0
  1 10  1  0  0  0  0
  2 12  1  0  0  0  0
  3  5  1  0  0  0  0
  4 12  2  0  0  0  0
  5  7  1  0  0  0  0
  6 12  2  0  0  0  0
  7  8  1  0  0  0  0
  8  9  1  0  0  0  0
 10 11  1  0  0  0  0
 11 12  1  0  0  0  0
M  END
>  <CHROM.1>
-68.04717499,-158.89528544,-60.07031544,31.01154751,-22.84187618,5.31348772
2.41324012,-1.06805210,-1.27941512

>  <Name>
ligand

>  <RI>
0

>  <Rbt.Current_Directory>
/home/itssahil/PROJECTS/Mol_Feturizer/New_Systems/rnas/4E8N

>  <Rbt.Executable>
rbdock ($Id: //depot/dev/client3/rdock/2013.1/src/exe/rbdock.cxx#4 $)

>  <Rbt.Library>
libRbt.so (2013.1, Build901 2013/11/27)

>  <Rbt.Parameter_File>
/export/apps/rDock/src/rDock_2013.1_src/data/scripts/dock_solv.prm

>  <Rbt.Receptor>
prm/pocket_docking_5.prm

>  <SCORE>
-11.4687

>  <SCORE.INTER>
-8.15675

>  <SCORE.INTER.CONST>
1

>  <SCORE.INTER.POLAR>
0

>  <SCORE.INTER.ROT>
3

>  <SCORE.INTER.SOLV>
7.1491

>  <SCORE.INTER.VDW>
-13.4209

>  <SCORE.INTER.norm>
-0.679729

>  <SCORE.INTRA>
-3.31193

>  <SCORE.INTRA.DIHEDRAL>
-3.35008

>  <SCORE.INTRA.DIHEDRAL.0>
5.0186

>  <SCORE.INTRA.POLAR>
0

>  <SCORE.INTRA.POLAR.0>
0

>  <SCORE.INTRA.REPUL>
0

>  <SCORE.INTRA.REPUL.0>
0

>  <SCORE.INTRA.SOLV>
-0.107793

>  <SCORE.INTRA.SOLV.lig_0>
-16.1608

>  <SCORE.INTRA.VDW>
-1.58299

>  <SCORE.INTRA.VDW.0>
1.14169

>  <SCORE.INTRA.norm>
-0.275994

>  <SCORE.RESTR>
0

>  <SCORE.RESTR.CAVITY>
0

>  <SCORE.RESTR.norm>
0

>  <SCORE.SYSTEM>
0

>  <SCORE.SYSTEM.CONST>
0

>  <SCORE.SYSTEM.DIHEDRAL>
0

>  <SCORE.SYSTEM.SOLV>
0

>  <SCORE.SYSTEM.norm>
0

>  <SCORE.heavy>
12

>  <SCORE.norm>
-0.955723

>  <RMSD>
2.900

$$$$
ligand
 OpenBabel11021811493D
libRbt.so/2013.1/901 2013/11/27
 12 12  0  0  0  0  0  0  0  0999 V2000
   30.7101  -23.7557    3.9897 N   0  0  0  0  0  0  0  0  0  0  0  0
   32.5911  -22.8077    7.9821 O   0  0  0  0  0  0  0  0  0  0  0  0
   30.2262  -22.8198    2.9453 C   0  0  0  0  0  0  0  0  0  0  0  0
   32.8908  -20.5455    7.3786 O   0  0  0  0  0  0  0  0  0  0  0  0
   30.3445  -23.5092    1.5900 C   0  0  0  0  0  0  0  0  0  0  0  0
   30.7123  -21.2771    8.2466 O   0  0  0  0  0  0  0  0  0  0  0  0
   29.4530  -24.6723    1.5517 N   0  0  0  0  0  0  0  0  0  0  0  0
   28.8025  -24.7894    2.8591 C   0  0  0  0  0  0  0  0  0  0  0  0
   29.9064  -24.9893    3.8834 C   0  0  0  0  0  0  0  0  0  0  0  0
   30.7048  -23.2213    5.4094 C   0  0  0  0  0  0  0  0  0  0  0  0
   31.6979  -22.0718    5.7229 C   0  0  0  0  0  0  0  0  0  0  0  0
   31.9960  -21.6729    7.3401 S   0  0  0  0  0  0  0  0  0  0  0  0
  1  3  1  0  0  0  0
  1  9  1  0  0  0  0
  1 10  1  0  0  0  0
  2 12  1  0  0  0  0
  3  5  1  0  0  0  0
  4 12  2  0  0  0  0
  5  7  1  0  0  0  0
  6 12  2  0  0  0  0
  7  8  1  0  0  0  0
  8  9  1  0  0  0  0
 10 11  1  0  0  0  0
 11 12  1  0  0  0  0
M  END
>  <CHROM.1>
-67.22270286,-166.25589812,62.70507731,30.98308823,-22.84003411,5.22798045
2.29085046,-0.97071806,-1.42628593

>  <Name>
ligand

>  <RI>
0

>  <Rbt.Current_Directory>
/home/itssahil/PROJECTS/Mol_Feturizer/New_Systems/rnas/4E8N

>  <Rbt.Executable>
rbdock ($Id: //depot/dev/client3/rdock/2013.1/src/exe/rbdock.cxx#4 $)

>  <Rbt.Library>
libRbt.so (2013.1, Build901 2013/11/27)

>  <Rbt.Parameter_File>
/export/apps/rDock/src/rDock_2013.1_src/data/scripts/dock_solv.prm

>  <Rbt.Receptor>
prm/pocket_docking_4.prm

>  <SCORE>
-11.6893

>  <SCORE.INTER>
-7.92582

>  <SCORE.INTER.CONST>
1

>  <SCORE.INTER.POLAR>
0

>  <SCORE.INTER.ROT>
3

>  <SCORE.INTER.SOLV>
6.52562

>  <SCORE.INTER.VDW>
-13.0591

>  <SCORE.INTER.norm>
-0.660485

>  <SCORE.INTRA>
-3.76348

>  <SCORE.INTRA.DIHEDRAL>
-4.1883

>  <SCORE.INTRA.DIHEDRAL.0>
5.0186

>  <SCORE.INTRA.POLAR>
0

>  <SCORE.INTRA.POLAR.0>
0

>  <SCORE.INTRA.REPUL>
0

>  <SCORE.INTRA.REPUL.0>
0

>  <SCORE.INTRA.SOLV>
-0.100871

>  <SCORE.INTRA.SOLV.lig_0>
-16.1608

>  <SCORE.INTRA.VDW>
-1.61889

>  <SCORE.INTRA.VDW.0>
1.14169

>  <SCORE.INTRA.norm>
-0.313623

>  <SCORE.RESTR>
0

>  <SCORE.RESTR.CAVITY>
0

>  <SCORE.RESTR.norm>
0

>  <SCORE.SYSTEM>
0

>  <SCORE.SYSTEM.CONST>
0

>  <SCORE.SYSTEM.DIHEDRAL>
0

>  <SCORE.SYSTEM.SOLV>
0

>  <SCORE.SYSTEM.norm>
0

>  <SCORE.heavy>
12

>  <SCORE.norm>
-0.974108

>  <RMSD>
2.915

$$$$
ligand
 OpenBabel11021811493D
libRbt.so/2013.1/901 2013/11/27
 12 12  0  0  0  0  0  0  0  0999 V2000
   30.7018  -23.7645    4.0059 N   0  0  0  0  0  0  0  0  0  0  0  0
   32.5886  -22.8149    7.9784 O   0  0  0  0  0  0  0  0  0  0  0  0
   30.1924  -22.8523    2.9526 C   0  0  0  0  0  0  0  0  0  0  0  0
   32.8674  -20.5452    7.3930 O   0  0  0  0  0  0  0  0  0  0  0  0
   30.3316  -23.5504    1.6038 C   0  0  0  0  0  0  0  0  0  0  0  0
   30.7024  -21.2994    8.2755 O   0  0  0  0  0  0  0  0  0  0  0  0
   29.4736  -24.7388    1.5755 N   0  0  0  0  0  0  0  0  0  0  0  0
   28.8255  -24.8624    2.8835 C   0  0  0  0  0  0  0  0  0  0  0  0
   29.9337  -25.0214    3.9104 C   0  0  0  0  0  0  0  0  0  0  0  0
   30.6800  -23.2175    5.4206 C   0  0  0  0  0  0  0  0  0  0  0  0
   31.6683  -22.0641    5.7350 C   0  0  0  0  0  0  0  0  0  0  0  0
   31.9798  -21.6782    7.3529 S   0  0  0  0  0  0  0  0  0  0  0  0
  1  3  1  0  0  0  0
  1  9  1  0  0  0  0
  1 10  1  0  0  0  0
  2 12  1  0  0  0  0
  3  5  1  0  0  0  0
  4 12  2  0  0  0  0
  5  7  1  0  0  0  0
  6 12  2  0  0  0  0
  7  8  1  0  0  0  0
  8  9  1  0  0  0  0
 10 11  1  0  0  0  0
 11 12  1  0  0  0  0
M  END
>  <CHROM.1>
-68.90913523,-164.62502379,62.69795882,30.97456339,-22.86103945,5.24331678
2.30159784,-0.98620159,-1.41799506

>  <Name>
ligand

>  <RI>
0

>  <Rbt.Current_Directory>
/home/itssahil/PROJECTS/Mol_Feturizer/New_Systems/rnas/4E8N

>  <Rbt.Executable>
rbdock ($Id: //depot/dev/client3/rdock/2013.1/src/exe/rbdock.cxx#4 $)

>  <Rbt.Library>
libRbt.so (2013.1, Build901 2013/11/27)

>  <Rbt.Parameter_File>
/export/apps/rDock/src/rDock_2013.1_src/data/scripts/dock_solv.prm

>  <Rbt.Receptor>
prm/pocket_docking_4.prm

>  <SCORE>
-11.671

>  <SCORE.INTER>
-7.98892

>  <SCORE.INTER.CONST>
1

>  <SCORE.INTER.POLAR>
0

>  <SCORE.INTER.ROT>
3

>  <SCORE.INTER.SOLV>
6.52142

>  <SCORE.INTER.VDW>
-13.0998

>  <SCORE.INTER.norm>
-0.665743

>  <SCORE.INTRA>
-3.68208

>  <SCORE.INTRA.DIHEDRAL>
-3.97531

>  <SCORE.INTRA.DIHEDRAL.0>
5.0186

>  <SCORE.INTRA.POLAR>
0

>  <SCORE.INTRA.POLAR.0>
0

>  <SCORE.INTRA.REPUL>
0

>  <SCORE.INTRA.REPUL.0>
0

>  <SCORE.INTRA.SOLV>
-0.10084

>  <SCORE.INTRA.SOLV.lig_0>
-16.1608

>  <SCORE.INTRA.VDW>
-1.64401

>  <SCORE.INTRA.VDW.0>
1.14169

>  <SCORE.INTRA.norm>
-0.30684

>  <SCORE.RESTR>
0

>  <SCORE.RESTR.CAVITY>
0

>  <SCORE.RESTR.norm>
0

>  <SCORE.SYSTEM>
0

>  <SCORE.SYSTEM.CONST>
0

>  <SCORE.SYSTEM.DIHEDRAL>
0

>  <SCORE.SYSTEM.SOLV>
0

>  <SCORE.SYSTEM.norm>
0

>  <SCORE.heavy>
12

>  <SCORE.norm>
-0.972583

>  <RMSD>
2.923

$$$$
ligand
 OpenBabel11021811493D
libRbt.so/2013.1/901 2013/11/27
 12 12  0  0  0  0  0  0  0  0999 V2000
   30.7060  -23.8078    3.9508 N   0  0  0  0  0  0  0  0  0  0  0  0
   32.5723  -22.8418    7.9371 O   0  0  0  0  0  0  0  0  0  0  0  0
   30.4565  -22.8664    2.8317 C   0  0  0  0  0  0  0  0  0  0  0  0
   32.8738  -20.5800    7.3329 O   0  0  0  0  0  0  0  0  0  0  0  0
   30.5933  -23.6322    1.5198 C   0  0  0  0  0  0  0  0  0  0  0  0
   30.6881  -21.3143    8.1802 O   0  0  0  0  0  0  0  0  0  0  0  0
   29.5500  -24.6590    1.4401 N   0  0  0  0  0  0  0  0  0  0  0  0
   28.7766  -24.6184    2.6836 C   0  0  0  0  0  0  0  0  0  0  0  0
   29.7452  -24.9201    3.8143 C   0  0  0  0  0  0  0  0  0  0  0  0
   30.6526  -23.2080    5.3431 C   0  0  0  0  0  0  0  0  0  0  0  0
   31.7003  -22.1113    5.6679 C   0  0  0  0  0  0  0  0  0  0  0  0
   31.9815  -21.7092    7.2873 S   0  0  0  0  0  0  0  0  0  0  0  0
  1  3  1  0  0  0  0
  1  9  1  0  0  0  0
  1 10  1  0  0  0  0
  2 12  1  0  0  0  0
  3  5  1  0  0  0  0
  4 12  2  0  0  0  0
  5  7  1  0  0  0  0
  6 12  2  0  0  0  0
  7  8  1  0  0  0  0
  8  9  1  0  0  0  0
 10 11  1  0  0  0  0
 11 12  1  0  0  0  0
M  END
>  <CHROM.1>
-62.44696390,-163.36312068,66.14108158,31.00010702,-22.85448789,5.15501789
2.13805595,-0.84096649,-1.59773376

>  <Name>
ligand

>  <RI>
0

>  <Rbt.Current_Directory>
/home/itssahil/PROJECTS/Mol_Feturizer/New_Systems/rnas/4E8N

>  <Rbt.Executable>
rbdock ($Id: //depot/dev/client3/rdock/2013.1/src/exe/rbdock.cxx#4 $)

>  <Rbt.Library>
libRbt.so (2013.1, Build901 2013/11/27)

>  <Rbt.Parameter_File>
/export/apps/rDock/src/rDock_2013.1_src/data/scripts/dock_solv.prm

>  <Rbt.Receptor>
prm/pocket_docking_6.prm

>  <SCORE>
-11.7525

>  <SCORE.INTER>
-8.20641

>  <SCORE.INTER.CONST>
1

>  <SCORE.INTER.POLAR>
0

>  <SCORE.INTER.ROT>
3

>  <SCORE.INTER.SOLV>
6.51955

>  <SCORE.INTER.VDW>
-13.2441

>  <SCORE.INTER.norm>
-0.683868

>  <SCORE.INTRA>
-3.54612

>  <SCORE.INTRA.DIHEDRAL>
-3.90777

>  <SCORE.INTRA.DIHEDRAL.0>
5.0186

>  <SCORE.INTRA.POLAR>
0

>  <SCORE.INTRA.POLAR.0>
0

>  <SCORE.INTRA.REPUL>
0

>  <SCORE.INTRA.REPUL.0>
0

>  <SCORE.INTRA.SOLV>
-0.0912102

>  <SCORE.INTRA.SOLV.lig_0>
-16.1608

>  <SCORE.INTRA.VDW>
-1.54663

>  <SCORE.INTRA.VDW.0>
1.14169

>  <SCORE.INTRA.norm>
-0.29551

>  <SCORE.RESTR>
0

>  <SCORE.RESTR.CAVITY>
0

>  <SCORE.RESTR.norm>
0

>  <SCORE.SYSTEM>
0

>  <SCORE.SYSTEM.CONST>
0

>  <SCORE.SYSTEM.DIHEDRAL>
0

>  <SCORE.SYSTEM.SOLV>
0

>  <SCORE.SYSTEM.norm>
0

>  <SCORE.heavy>
12

>  <SCORE.norm>
-0.979377

>  <RMSD>
2.930

$$$$
ligand
 OpenBabel11021811493D
libRbt.so/2013.1/901 2013/11/27
 12 12  0  0  0  0  0  0  0  0999 V2000
   30.6893  -23.8300    4.0228 N   0  0  0  0  0  0  0  0  0  0  0  0
   32.5774  -22.8157    7.9748 O   0  0  0  0  0  0  0  0  0  0  0  0
   30.3873  -22.9172    2.8930 C   0  0  0  0  0  0  0  0  0  0  0  0
   32.8983  -20.5651    7.3395 O   0  0  0  0  0  0  0  0  0  0  0  0
   30.5231  -23.7015    1.5920 C   0  0  0  0  0  0  0  0  0  0  0  0
   30.7129  -21.2641    8.2171 O   0  0  0  0  0  0  0  0  0  0  0  0
   29.5126  -24.7628    1.5511 N   0  0  0  0  0  0  0  0  0  0  0  0
   28.7628  -24.7249    2.8091 C   0  0  0  0  0  0  0  0  0  0  0  0
   29.7628  -24.9750    3.9250 C   0  0  0  0  0  0  0  0  0  0  0  0
   30.6438  -23.2074    5.4054 C   0  0  0  0  0  0  0  0  0  0  0  0
   31.6914  -22.1035    5.7052 C   0  0  0  0  0  0  0  0  0  0  0  0
   31.9930  -21.6846    7.3167 S   0  0  0  0  0  0  0  0  0  0  0  0
  1  3  1  0  0  0  0
  1  9  1  0  0  0  0
  1 10  1  0  0  0  0
  2 12  1  0  0  0  0
  3  5  1  0  0  0  0
  4 12  2  0  0  0  0
  5  7  1  0  0  0  0
  6 12  2  0  0  0  0
  7  8  1  0  0  0  0
  8  9  1  0  0  0  0
 10 11  1  0  0  0  0
 11 12  1  0  0  0  0
M  END
>  <CHROM.1>
-64.36322014,-162.79039435,65.23286435,30.99141946,-22.87190658,5.21424940
2.16904201,-0.86430626,-1.58463570

>  <Name>
ligand

>  <RI>
0

>  <Rbt.Current_Directory>
/home/itssahil/PROJECTS/Mol_Feturizer/New_Systems/rnas/4E8N

>  <Rbt.Executable>
rbdock ($Id: //depot/dev/client3/rdock/2013.1/src/exe/rbdock.cxx#4 $)

>  <Rbt.Library>
libRbt.so (2013.1, Build901 2013/11/27)

>  <Rbt.Parameter_File>
/export/apps/rDock/src/rDock_2013.1_src/data/scripts/dock_solv.prm

>  <Rbt.Receptor>
prm/pocket_docking_4.prm

>  <SCORE>
-11.702

>  <SCORE.INTER>
-8.15601

>  <SCORE.INTER.CONST>
1

>  <SCORE.INTER.POLAR>
0

>  <SCORE.INTER.ROT>
3

>  <SCORE.INTER.SOLV>
6.37644

>  <SCORE.INTER.VDW>
-13.1628

>  <SCORE.INTER.norm>
-0.679668

>  <SCORE.INTRA>
-3.54602

>  <SCORE.INTRA.DIHEDRAL>
-3.83981

>  <SCORE.INTRA.DIHEDRAL.0>
5.0186

>  <SCORE.INTRA.POLAR>
0

>  <SCORE.INTRA.POLAR.0>
0

>  <SCORE.INTRA.REPUL>
0

>  <SCORE.INTRA.REPUL.0>
0

>  <SCORE.INTRA.SOLV>
-0.0934925

>  <SCORE.INTRA.SOLV.lig_0>
-16.1608

>  <SCORE.INTRA.VDW>
-1.57937

>  <SCORE.INTRA.VDW.0>
1.14169

>  <SCORE.INTRA.norm>
-0.295501

>  <SCORE.RESTR>
0

>  <SCORE.RESTR.CAVITY>
0

>  <SCORE.RESTR.norm>
0

>  <SCORE.SYSTEM>
0

>  <SCORE.SYSTEM.CONST>
0

>  <SCORE.SYSTEM.DIHEDRAL>
0

>  <SCORE.SYSTEM.SOLV>
0

>  <SCORE.SYSTEM.norm>
0

>  <SCORE.heavy>
12

>  <SCORE.norm>
-0.975169

>  <RMSD>
2.938

$$$$
ligand
 OpenBabel11021811493D
libRbt.so/2013.1/901 2013/11/27
 12 12  0  0  0  0  0  0  0  0999 V2000
   30.5162  -23.7042    3.8960 N   0  0  0  0  0  0  0  0  0  0  0  0
   30.3704  -21.1184    7.7874 O   0  0  0  0  0  0  0  0  0  0  0  0
   30.1984  -22.9361    2.6672 C   0  0  0  0  0  0  0  0  0  0  0  0
   31.7978  -22.9795    8.0532 O   0  0  0  0  0  0  0  0  0  0  0  0
   30.5182  -23.8093    1.4584 C   0  0  0  0  0  0  0  0  0  0  0  0
   32.7785  -20.7402    7.8115 O   0  0  0  0  0  0  0  0  0  0  0  0
   29.6394  -24.9826    1.4544 N   0  0  0  0  0  0  0  0  0  0  0  0
   28.7985  -24.9245    2.6526 C   0  0  0  0  0  0  0  0  0  0  0  0
   29.7343  -24.9554    3.8489 C   0  0  0  0  0  0  0  0  0  0  0  0
   30.2980  -22.9732    5.2071 C   0  0  0  0  0  0  0  0  0  0  0  0
   31.4568  -22.0667    5.6985 C   0  0  0  0  0  0  0  0  0  0  0  0
   31.5872  -21.7388    7.3534 S   0  0  0  0  0  0  0  0  0  0  0  0
  1  3  1  0  0  0  0
  1  9  1  0  0  0  0
  1 10  1  0  0  0  0
  2 12  1  0  0  0  0
  3  5  1  0  0  0  0
  4 12  2  0  0  0  0
  5  7  1  0  0  0  0
  6 12  2  0  0  0  0
  7  8  1  0  0  0  0
  8  9  1  0  0  0  0
 10 11  1  0  0  0  0
 11 12  1  0  0  0  0
M  END
>  <CHROM.1>
-84.63442027,-155.30439954,-58.36344998,30.76104755,-22.90646571,5.15599004
-2.12164704,0.94875080,1.54805182

>  <Name>
ligand

>  <RI>
0

>  <Rbt.Current_Directory>
/home/itssahil/PROJECTS/Mol_Feturizer/New_Systems/rnas/4E8N

>  <Rbt.Executable>
rbdock ($Id: //depot/dev/client3/rdock/2013.1/src/exe/rbdock.cxx#4 $)

>  <Rbt.Library>
libRbt.so (2013.1, Build901 2013/11/27)

>  <Rbt.Parameter_File>
/export/apps/rDock/src/rDock_2013.1_src/data/scripts/dock_solv.prm

>  <Rbt.Receptor>
prm/pocket_docking_6.prm

>  <SCORE>
-10.5863

>  <SCORE.INTER>
-7.73416

>  <SCORE.INTER.CONST>
1

>  <SCORE.INTER.POLAR>
0

>  <SCORE.INTER.ROT>
3

>  <SCORE.INTER.SOLV>
7.05268

>  <SCORE.INTER.VDW>
-13.107

>  <SCORE.INTER.norm>
-0.644513

>  <SCORE.INTRA>
-2.85211

>  <SCORE.INTRA.DIHEDRAL>
-2.05109

>  <SCORE.INTRA.DIHEDRAL.0>
5.0186

>  <SCORE.INTRA.POLAR>
0

>  <SCORE.INTRA.POLAR.0>
0

>  <SCORE.INTRA.REPUL>
0

>  <SCORE.INTRA.REPUL.0>
0

>  <SCORE.INTRA.SOLV>
-0.110024

>  <SCORE.INTRA.SOLV.lig_0>
-16.1608

>  <SCORE.INTRA.VDW>
-1.77155

>  <SCORE.INTRA.VDW.0>
1.14169

>  <SCORE.INTRA.norm>
-0.237676

>  <SCORE.RESTR>
0

>  <SCORE.RESTR.CAVITY>
0

>  <SCORE.RESTR.norm>
0

>  <SCORE.SYSTEM>
0

>  <SCORE.SYSTEM.CONST>
0

>  <SCORE.SYSTEM.DIHEDRAL>
0

>  <SCORE.SYSTEM.SOLV>
0

>  <SCORE.SYSTEM.norm>
0

>  <SCORE.heavy>
12

>  <SCORE.norm>
-0.882189

>  <RMSD>
2.939

$$$$
ligand
 OpenBabel11021811493D
libRbt.so/2013.1/901 2013/11/27
 12 12  0  0  0  0  0  0  0  0999 V2000
   32.1092  -23.4770    4.5225 N   0  0  0  0  0  0  0  0  0  0  0  0
   31.8283  -23.1008    7.7660 O   0  0  0  0  0  0  0  0  0  0  0  0
   32.3323  -24.0090    3.1557 C   0  0  0  0  0  0  0  0  0  0  0  0
   32.4953  -20.9696    8.5309 O   0  0  0  0  0  0  0  0  0  0  0  0
   32.0867  -25.5141    3.1799 C   0  0  0  0  0  0  0  0  0  0  0  0
   30.3769  -21.1964    7.3079 O   0  0  0  0  0  0  0  0  0  0  0  0
   30.6814  -25.7767    3.5043 N   0  0  0  0  0  0  0  0  0  0  0  0
   30.0226  -24.4905    3.7450 C   0  0  0  0  0  0  0  0  0  0  0  0
   30.7359  -23.8441    4.9203 C   0  0  0  0  0  0  0  0  0  0  0  0
   32.3499  -21.9898    4.7000 C   0  0  0  0  0  0  0  0  0  0  0  0
   32.8960  -21.5339    6.0783 C   0  0  0  0  0  0  0  0  0  0  0  0
   31.9091  -21.7070    7.4419 S   0  0  0  0  0  0  0  0  0  0  0  0
  1  3  1  0  0  0  0
  1  9  1  0  0  0  0
  1 10  1  0  0  0  0
  2 12  1  0  0  0  0
  3  5  1  0  0  0  0
  4 12  2  0  0  0  0
  5  7  1  0  0  0  0
  6 12  2  0  0  0  0
  7  8  1  0  0  0  0
  8  9  1  0  0  0  0
 10 11  1  0  0  0  0
 11 12  1  0  0  0  0
M  END
>  <CHROM.1>
-147.14252079,-66.39463807,72.08622771,31.67351548,-22.95746209,5.67167387
-1.70042035,0.53191848,0.95702407

>  <Name>
ligand

>  <RI>
0

>  <Rbt.Current_Directory>
/home/itssahil/PROJECTS/Mol_Feturizer/New_Systems/rnas/4E8N

>  <Rbt.Executable>
rbdock ($Id: //depot/dev/client3/rdock/2013.1/src/exe/rbdock.cxx#4 $)

>  <Rbt.Library>
libRbt.so (2013.1, Build901 2013/11/27)

>  <Rbt.Parameter_File>
/export/apps/rDock/src/rDock_2013.1_src/data/scripts/dock_solv.prm

>  <Rbt.Receptor>
prm/pocket_docking_6.prm

>  <SCORE>
-10.4193

>  <SCORE.INTER>
-6.45993

>  <SCORE.INTER.CONST>
1

>  <SCORE.INTER.POLAR>
0

>  <SCORE.INTER.ROT>
3

>  <SCORE.INTER.SOLV>
6.01066

>  <SCORE.INTER.VDW>
-11.9102

>  <SCORE.INTER.norm>
-0.538328

>  <SCORE.INTRA>
-3.95941

>  <SCORE.INTRA.DIHEDRAL>
-3.21281

>  <SCORE.INTRA.DIHEDRAL.0>
5.0186

>  <SCORE.INTRA.POLAR>
0

>  <SCORE.INTRA.POLAR.0>
0

>  <SCORE.INTRA.REPUL>
0

>  <SCORE.INTRA.REPUL.0>
0

>  <SCORE.INTRA.SOLV>
0.212301

>  <SCORE.INTRA.SOLV.lig_0>
-16.1608

>  <SCORE.INTRA.VDW>
-2.45916

>  <SCORE.INTRA.VDW.0>
1.14169

>  <SCORE.INTRA.norm>
-0.329951

>  <SCORE.RESTR>
0

>  <SCORE.RESTR.CAVITY>
0

>  <SCORE.RESTR.norm>
0

>  <SCORE.SYSTEM>
0

>  <SCORE.SYSTEM.CONST>
0

>  <SCORE.SYSTEM.DIHEDRAL>
0

>  <SCORE.SYSTEM.SOLV>
0

>  <SCORE.SYSTEM.norm>
0

>  <SCORE.heavy>
12

>  <SCORE.norm>
-0.868279

>  <RMSD>
3.046

$$$$
ligand
 OpenBabel11021811493D
libRbt.so/2013.1/901 2013/11/27
 12 12  0  0  0  0  0  0  0  0999 V2000
   31.7398  -21.1780    7.0862 N   0  0  0  0  0  0  0  0  0  0  0  0
   33.6389  -20.4530   10.0721 O   0  0  0  0  0  0  0  0  0  0  0  0
   31.1648  -20.6909    5.8083 C   0  0  0  0  0  0  0  0  0  0  0  0
   34.1624  -19.1983    8.1425 O   0  0  0  0  0  0  0  0  0  0  0  0
   31.9350  -21.3330    4.6591 C   0  0  0  0  0  0  0  0  0  0  0  0
   33.8356  -18.0321   10.2798 O   0  0  0  0  0  0  0  0  0  0  0  0
   31.7296  -22.7843    4.6812 N   0  0  0  0  0  0  0  0  0  0  0  0
   30.8954  -23.1075    5.8413 C   0  0  0  0  0  0  0  0  0  0  0  0
   31.6591  -22.6519    7.0730 C   0  0  0  0  0  0  0  0  0  0  0  0
   31.1208  -20.6087    8.3487 C   0  0  0  0  0  0  0  0  0  0  0  0
   31.7254  -19.2838    8.8826 C   0  0  0  0  0  0  0  0  0  0  0  0
   33.3561  -19.2575    9.3339 S   0  0  0  0  0  0  0  0  0  0  0  0
  1  3  1  0  0  0  0
  1  9  1  0  0  0  0
  1 10  1  0  0  0  0
  2 12  1  0  0  0  0
  3  5  1  0  0  0  0
  4 12  2  0  0  0  0
  5  7  1  0  0  0  0
  6 12  2  0  0  0  0
  7  8  1  0  0  0  0
  8  9  1  0  0  0  0
 10 11  1  0  0  0  0
 11 12  1  0  0  0  0
M  END
>  <CHROM.1>
-88.00482493,-60.94497535,-42.92465460,32.40130097,-20.53215051,7.74912320
2.27046691,-0.95322131,-1.62951671

>  <Name>
ligand

>  <RI>
0

>  <Rbt.Current_Directory>
/home/itssahil/PROJECTS/Mol_Feturizer/New_Systems/rnas/4E8N

>  <Rbt.Executable>
rbdock ($Id: //depot/dev/client3/rdock/2013.1/src/exe/rbdock.cxx#4 $)

>  <Rbt.Library>
libRbt.so (2013.1, Build901 2013/11/27)

>  <Rbt.Parameter_File>
/export/apps/rDock/src/rDock_2013.1_src/data/scripts/dock_solv.prm

>  <Rbt.Receptor>
prm/pocket_docking_6.prm

>  <SCORE>
-11.2814

>  <SCORE.INTER>
-7.57911

>  <SCORE.INTER.CONST>
1

>  <SCORE.INTER.POLAR>
0

>  <SCORE.INTER.ROT>
3

>  <SCORE.INTER.SOLV>
4.41331

>  <SCORE.INTER.VDW>
-12.1238

>  <SCORE.INTER.norm>
-0.631593

>  <SCORE.INTRA>
-3.70233

>  <SCORE.INTRA.DIHEDRAL>
-3.15878

>  <SCORE.INTRA.DIHEDRAL.0>
5.0186

>  <SCORE.INTRA.POLAR>
0

>  <SCORE.INTRA.POLAR.0>
0

>  <SCORE.INTRA.REPUL>
0

>  <SCORE.INTRA.REPUL.0>
0

>  <SCORE.INTRA.SOLV>
0.352591

>  <SCORE.INTRA.SOLV.lig_0>
-16.1608

>  <SCORE.INTRA.VDW>
-2.29924

>  <SCORE.INTRA.VDW.0>
1.14169

>  <SCORE.INTRA.norm>
-0.308527

>  <SCORE.RESTR>
0

>  <SCORE.RESTR.CAVITY>
0

>  <SCORE.RESTR.norm>
0

>  <SCORE.SYSTEM>
0

>  <SCORE.SYSTEM.CONST>
0

>  <SCORE.SYSTEM.DIHEDRAL>
0

>  <SCORE.SYSTEM.SOLV>
0

>  <SCORE.SYSTEM.norm>
0

>  <SCORE.heavy>
12

>  <SCORE.norm>
-0.94012

>  <RMSD>
3.066

$$$$
ligand
 OpenBabel11021811493D
libRbt.so/2013.1/901 2013/11/27
 12 12  0  0  0  0  0  0  0  0999 V2000
   30.1260  -23.4450    3.6941 N   0  0  0  0  0  0  0  0  0  0  0  0
   30.8174  -21.1432    8.2460 O   0  0  0  0  0  0  0  0  0  0  0  0
   29.6360  -24.8444    3.7424 C   0  0  0  0  0  0  0  0  0  0  0  0
   32.1742  -23.0186    7.7836 O   0  0  0  0  0  0  0  0  0  0  0  0
   28.6322  -25.0415    2.6111 C   0  0  0  0  0  0  0  0  0  0  0  0
   32.8030  -20.8278    6.8673 O   0  0  0  0  0  0  0  0  0  0  0  0
   29.3096  -24.8821    1.3208 N   0  0  0  0  0  0  0  0  0  0  0  0
   30.7084  -24.5337    1.5820 C   0  0  0  0  0  0  0  0  0  0  0  0
   30.6993  -23.2241    2.3519 C   0  0  0  0  0  0  0  0  0  0  0  0
   31.1100  -23.0517    4.7795 C   0  0  0  0  0  0  0  0  0  0  0  0
   30.5363  -22.2611    5.9844 C   0  0  0  0  0  0  0  0  0  0  0  0
   31.5807  -21.8238    7.2419 S   0  0  0  0  0  0  0  0  0  0  0  0
  1  3  1  0  0  0  0
  1  9  1  0  0  0  0
  1 10  1  0  0  0  0
  2 12  1  0  0  0  0
  3  5  1  0  0  0  0
  4 12  2  0  0  0  0
  5  7  1  0  0  0  0
  6 12  2  0  0  0  0
  7  8  1  0  0  0  0
  8  9  1  0  0  0  0
 10 11  1  0  0  0  0
 11 12  1  0  0  0  0
M  END
>  <CHROM.1>
-99.89444432,178.71673863,-178.34706741,30.80127352,-23.00128110,5.01497216
1.98350387,-0.66421332,-1.80589439

>  <Name>
ligand

>  <RI>
0

>  <Rbt.Current_Directory>
/home/itssahil/PROJECTS/Mol_Feturizer/New_Systems/rnas/4E8N

>  <Rbt.Executable>
rbdock ($Id: //depot/dev/client3/rdock/2013.1/src/exe/rbdock.cxx#4 $)

>  <Rbt.Library>
libRbt.so (2013.1, Build901 2013/11/27)

>  <Rbt.Parameter_File>
/export/apps/rDock/src/rDock_2013.1_src/data/scripts/dock_solv.prm

>  <Rbt.Receptor>
prm/pocket_docking_8.prm

>  <SCORE>
-11.5235

>  <SCORE.INTER>
-8.12322

>  <SCORE.INTER.CONST>
1

>  <SCORE.INTER.POLAR>
0

>  <SCORE.INTER.ROT>
3

>  <SCORE.INTER.SOLV>
7.06298

>  <SCORE.INTER.VDW>
-13.3698

>  <SCORE.INTER.norm>
-0.676935

>  <SCORE.INTRA>
-3.40026

>  <SCORE.INTRA.DIHEDRAL>
-3.13444

>  <SCORE.INTRA.DIHEDRAL.0>
5.0186

>  <SCORE.INTRA.POLAR>
0

>  <SCORE.INTRA.POLAR.0>
0

>  <SCORE.INTRA.REPUL>
0

>  <SCORE.INTRA.REPUL.0>
0

>  <SCORE.INTRA.SOLV>
0.0681574

>  <SCORE.INTRA.SOLV.lig_0>
-16.1608

>  <SCORE.INTRA.VDW>
-1.86712

>  <SCORE.INTRA.VDW.0>
1.14169

>  <SCORE.INTRA.norm>
-0.283355

>  <SCORE.RESTR>
0

>  <SCORE.RESTR.CAVITY>
0

>  <SCORE.RESTR.norm>
0

>  <SCORE.SYSTEM>
0

>  <SCORE.SYSTEM.CONST>
0

>  <SCORE.SYSTEM.DIHEDRAL>
0

>  <SCORE.SYSTEM.SOLV>
0

>  <SCORE.SYSTEM.norm>
0

>  <SCORE.heavy>
12

>  <SCORE.norm>
-0.96029

>  <RMSD>
3.098

$$$$
ligand
 OpenBabel11021811493D
libRbt.so/2013.1/901 2013/11/27
 12 12  0  0  0  0  0  0  0  0999 V2000
   30.7402  -23.3367    4.0752 N   0  0  0  0  0  0  0  0  0  0  0  0
   31.9032  -23.4452    7.9719 O   0  0  0  0  0  0  0  0  0  0  0  0
   30.4293  -22.3336    3.0274 C   0  0  0  0  0  0  0  0  0  0  0  0
   33.2126  -22.4897    6.2560 O   0  0  0  0  0  0  0  0  0  0  0  0
   31.1810  -22.7170    1.7569 C   0  0  0  0  0  0  0  0  0  0  0  0
   32.6174  -21.1267    8.2111 O   0  0  0  0  0  0  0  0  0  0  0  0
   30.6830  -24.0038    1.2617 N   0  0  0  0  0  0  0  0  0  0  0  0
   29.6712  -24.4917    2.2020 C   0  0  0  0  0  0  0  0  0  0  0  0
   30.3629  -24.6613    3.5439 C   0  0  0  0  0  0  0  0  0  0  0  0
   30.1075  -23.0925    5.4321 C   0  0  0  0  0  0  0  0  0  0  0  0
   30.7212  -21.9555    6.2905 C   0  0  0  0  0  0  0  0  0  0  0  0
   32.1270  -22.2739    7.1768 S   0  0  0  0  0  0  0  0  0  0  0  0
  1  3  1  0  0  0  0
  1  9  1  0  0  0  0
  1 10  1  0  0  0  0
  2 12  1  0  0  0  0
  3  5  1  0  0  0  0
  4 12  2  0  0  0  0
  5  7  1  0  0  0  0
  6 12  2  0  0  0  0
  7  8  1  0  0  0  0
  8  9  1  0  0  0  0
 10 11  1  0  0  0  0
 11 12  1  0  0  0  0
M  END
>  <CHROM.1>
-74.35682004,-80.92978676,-52.64390671,31.28252900,-22.90655158,5.07712926
2.09006792,-0.87822849,-1.44286953

>  <Name>
ligand

>  <RI>
0

>  <Rbt.Current_Directory>
/home/itssahil/PROJECTS/Mol_Feturizer/New_Systems/rnas/4E8N

>  <Rbt.Executable>
rbdock ($Id: //depot/dev/client3/rdock/2013.1/src/exe/rbdock.cxx#4 $)

>  <Rbt.Library>
libRbt.so (2013.1, Build901 2013/11/27)

>  <Rbt.Parameter_File>
/export/apps/rDock/src/rDock_2013.1_src/data/scripts/dock_solv.prm

>  <Rbt.Receptor>
prm/pocket_docking_6.prm

>  <SCORE>
-12.2381

>  <SCORE.INTER>
-8.86456

>  <SCORE.INTER.CONST>
1

>  <SCORE.INTER.POLAR>
0

>  <SCORE.INTER.ROT>
3

>  <SCORE.INTER.SOLV>
7.18574

>  <SCORE.INTER.VDW>
-13.905

>  <SCORE.INTER.norm>
-0.738713

>  <SCORE.INTRA>
-3.37356

>  <SCORE.INTRA.DIHEDRAL>
-2.98989

>  <SCORE.INTRA.DIHEDRAL.0>
5.0186

>  <SCORE.INTRA.POLAR>
0

>  <SCORE.INTRA.POLAR.0>
0

>  <SCORE.INTRA.REPUL>
0

>  <SCORE.INTRA.REPUL.0>
0

>  <SCORE.INTRA.SOLV>
0.284993

>  <SCORE.INTRA.SOLV.lig_0>
-16.1608

>  <SCORE.INTRA.VDW>
-2.02111

>  <SCORE.INTRA.VDW.0>
1.14169

>  <SCORE.INTRA.norm>
-0.28113

>  <SCORE.RESTR>
0

>  <SCORE.RESTR.CAVITY>
0

>  <SCORE.RESTR.norm>
0

>  <SCORE.SYSTEM>
0

>  <SCORE.SYSTEM.CONST>
0

>  <SCORE.SYSTEM.DIHEDRAL>
0

>  <SCORE.SYSTEM.SOLV>
0

>  <SCORE.SYSTEM.norm>
0

>  <SCORE.heavy>
12

>  <SCORE.norm>
-1.01984

>  <RMSD>
3.112

$$$$
ligand
 OpenBabel11021811493D
libRbt.so/2013.1/901 2013/11/27
 12 12  0  0  0  0  0  0  0  0999 V2000
   30.1180  -23.4472    3.6827 N   0  0  0  0  0  0  0  0  0  0  0  0
   30.8462  -21.1596    8.2363 O   0  0  0  0  0  0  0  0  0  0  0  0
   29.6285  -24.8470    3.7246 C   0  0  0  0  0  0  0  0  0  0  0  0
   32.1808  -23.0512    7.7753 O   0  0  0  0  0  0  0  0  0  0  0  0
   28.6166  -25.0361    2.5992 C   0  0  0  0  0  0  0  0  0  0  0  0
   32.8298  -20.8704    6.8490 O   0  0  0  0  0  0  0  0  0  0  0  0
   29.2847  -24.8675    1.3053 N   0  0  0  0  0  0  0  0  0  0  0  0
   30.6853  -24.5208    1.5588 C   0  0  0  0  0  0  0  0  0  0  0  0
   30.6816  -23.2167    2.3380 C   0  0  0  0  0  0  0  0  0  0  0  0
   31.1099  -23.0616    4.7638 C   0  0  0  0  0  0  0  0  0  0  0  0
   30.5444  -22.2820    5.9797 C   0  0  0  0  0  0  0  0  0  0  0  0
   31.5983  -21.8518    7.2317 S   0  0  0  0  0  0  0  0  0  0  0  0
  1  3  1  0  0  0  0
  1  9  1  0  0  0  0
  1 10  1  0  0  0  0
  2 12  1  0  0  0  0
  3  5  1  0  0  0  0
  4 12  2  0  0  0  0
  5  7  1  0  0  0  0
  6 12  2  0  0  0  0
  7  8  1  0  0  0  0
  8  9  1  0  0  0  0
 10 11  1  0  0  0  0
 11 12  1  0  0  0  0
M  END
>  <CHROM.1>
-99.78183629,178.79988671,-179.39018157,30.80290889,-23.01323443,5.00191751
1.99219111,-0.66507894,-1.79352577

>  <Name>
ligand

>  <RI>
0

>  <Rbt.Current_Directory>
/home/itssahil/PROJECTS/Mol_Feturizer/New_Systems/rnas/4E8N

>  <Rbt.Executable>
rbdock ($Id: //depot/dev/client3/rdock/2013.1/src/exe/rbdock.cxx#4 $)

>  <Rbt.Library>
libRbt.so (2013.1, Build901 2013/11/27)

>  <Rbt.Parameter_File>
/export/apps/rDock/src/rDock_2013.1_src/data/scripts/dock_solv.prm

>  <Rbt.Receptor>
prm/pocket_docking_8.prm

>  <SCORE>
-11.5314

>  <SCORE.INTER>
-8.12153

>  <SCORE.INTER.CONST>
1

>  <SCORE.INTER.POLAR>
0

>  <SCORE.INTER.ROT>
3

>  <SCORE.INTER.SOLV>
7.14987

>  <SCORE.INTER.VDW>
-13.3976

>  <SCORE.INTER.norm>
-0.676794

>  <SCORE.INTRA>
-3.4099

>  <SCORE.INTRA.DIHEDRAL>
-3.14822

>  <SCORE.INTRA.DIHEDRAL.0>
5.0186

>  <SCORE.INTRA.POLAR>
0

>  <SCORE.INTRA.POLAR.0>
0

>  <SCORE.INTRA.REPUL>
0

>  <SCORE.INTRA.REPUL.0>
0

>  <SCORE.INTRA.SOLV>
0.0682182

>  <SCORE.INTRA.SOLV.lig_0>
-16.1608

>  <SCORE.INTRA.VDW>
-1.8699

>  <SCORE.INTRA.VDW.0>
1.14169

>  <SCORE.INTRA.norm>
-0.284158

>  <SCORE.RESTR>
0

>  <SCORE.RESTR.CAVITY>
0

>  <SCORE.RESTR.norm>
0

>  <SCORE.SYSTEM>
0

>  <SCORE.SYSTEM.CONST>
0

>  <SCORE.SYSTEM.DIHEDRAL>
0

>  <SCORE.SYSTEM.SOLV>
0

>  <SCORE.SYSTEM.norm>
0

>  <SCORE.heavy>
12

>  <SCORE.norm>
-0.960952

>  <RMSD>
3.117

$$$$
ligand
 OpenBabel11021811493D
libRbt.so/2013.1/901 2013/11/27
 12 12  0  0  0  0  0  0  0  0999 V2000
   30.1628  -23.2767    3.5148 N   0  0  0  0  0  0  0  0  0  0  0  0
   30.8735  -21.3317    8.2204 O   0  0  0  0  0  0  0  0  0  0  0  0
   29.7147  -24.6786    3.7014 C   0  0  0  0  0  0  0  0  0  0  0  0
   32.5025  -22.9032    7.5507 O   0  0  0  0  0  0  0  0  0  0  0  0
   28.6956  -25.0060    2.6149 C   0  0  0  0  0  0  0  0  0  0  0  0
   32.6275  -20.6053    6.6913 O   0  0  0  0  0  0  0  0  0  0  0  0
   29.3434  -24.9477    1.3011 N   0  0  0  0  0  0  0  0  0  0  0  0
   30.7362  -24.5388    1.4989 C   0  0  0  0  0  0  0  0  0  0  0  0
   30.7037  -23.1647    2.1459 C   0  0  0  0  0  0  0  0  0  0  0  0
   31.1555  -22.7586    4.5381 C   0  0  0  0  0  0  0  0  0  0  0  0
   30.5904  -22.4100    5.9399 C   0  0  0  0  0  0  0  0  0  0  0  0
   31.6506  -21.8246    7.1217 S   0  0  0  0  0  0  0  0  0  0  0  0
  1  3  1  0  0  0  0
  1  9  1  0  0  0  0
  1 10  1  0  0  0  0
  2 12  1  0  0  0  0
  3  5  1  0  0  0  0
  4 12  2  0  0  0  0
  5  7  1  0  0  0  0
  6 12  2  0  0  0  0
  7  8  1  0  0  0  0
  8  9  1  0  0  0  0
 10 11  1  0  0  0  0
 11 12  1  0  0  0  0
M  END
>  <CHROM.1>
-75.13709684,-179.87605743,168.77248375,30.85544293,-22.95231325,4.89957228
-2.00641479,0.70866115,1.36848030

>  <Name>
ligand

>  <RI>
0

>  <Rbt.Current_Directory>
/home/itssahil/PROJECTS/Mol_Feturizer/New_Systems/rnas/4E8N

>  <Rbt.Executable>
rbdock ($Id: //depot/dev/client3/rdock/2013.1/src/exe/rbdock.cxx#4 $)

>  <Rbt.Library>
libRbt.so (2013.1, Build901 2013/11/27)

>  <Rbt.Parameter_File>
/export/apps/rDock/src/rDock_2013.1_src/data/scripts/dock_solv.prm

>  <Rbt.Receptor>
prm/pocket_docking_6.prm

>  <SCORE>
-11.7325

>  <SCORE.INTER>
-7.87692

>  <SCORE.INTER.CONST>
1

>  <SCORE.INTER.POLAR>
0

>  <SCORE.INTER.ROT>
3

>  <SCORE.INTER.SOLV>
6.47721

>  <SCORE.INTER.VDW>
-13.0104

>  <SCORE.INTER.norm>
-0.65641

>  <SCORE.INTRA>
-3.85558

>  <SCORE.INTRA.DIHEDRAL>
-4.30336

>  <SCORE.INTRA.DIHEDRAL.0>
5.0186

>  <SCORE.INTRA.POLAR>
0

>  <SCORE.INTRA.POLAR.0>
0

>  <SCORE.INTRA.REPUL>
0

>  <SCORE.INTRA.REPUL.0>
0

>  <SCORE.INTRA.SOLV>
0.068773

>  <SCORE.INTRA.SOLV.lig_0>
-16.1608

>  <SCORE.INTRA.VDW>
-1.73829

>  <SCORE.INTRA.VDW.0>
1.14169

>  <SCORE.INTRA.norm>
-0.321298

>  <SCORE.RESTR>
0

>  <SCORE.RESTR.CAVITY>
0

>  <SCORE.RESTR.norm>
0

>  <SCORE.SYSTEM>
0

>  <SCORE.SYSTEM.CONST>
0

>  <SCORE.SYSTEM.DIHEDRAL>
0

>  <SCORE.SYSTEM.SOLV>
0

>  <SCORE.SYSTEM.norm>
0

>  <SCORE.heavy>
12

>  <SCORE.norm>
-0.977708

>  <RMSD>
3.119

$$$$
ligand
 OpenBabel11021811493D
libRbt.so/2013.1/901 2013/11/27
 12 12  0  0  0  0  0  0  0  0999 V2000
   31.8660  -23.4209    4.0751 N   0  0  0  0  0  0  0  0  0  0  0  0
   31.9446  -21.1233    8.1622 O   0  0  0  0  0  0  0  0  0  0  0  0
   30.8974  -24.3045    4.7694 C   0  0  0  0  0  0  0  0  0  0  0  0
   30.4205  -21.9964    6.5853 O   0  0  0  0  0  0  0  0  0  0  0  0
   29.7271  -24.5684    3.8277 C   0  0  0  0  0  0  0  0  0  0  0  0
   31.7698  -23.5441    7.9340 O   0  0  0  0  0  0  0  0  0  0  0  0
   30.1991  -25.3094    2.6541 N   0  0  0  0  0  0  0  0  0  0  0  0
   31.6480  -25.4853    2.7803 C   0  0  0  0  0  0  0  0  0  0  0  0
   32.2581  -24.0946    2.8215 C   0  0  0  0  0  0  0  0  0  0  0  0
   33.0853  -23.0150    4.8811 C   0  0  0  0  0  0  0  0  0  0  0  0
   32.8815  -21.8925    5.9320 C   0  0  0  0  0  0  0  0  0  0  0  0
   31.7363  -22.1227    7.1563 S   0  0  0  0  0  0  0  0  0  0  0  0
  1  3  1  0  0  0  0
  1  9  1  0  0  0  0
  1 10  1  0  0  0  0
  2 12  1  0  0  0  0
  3  5  1  0  0  0  0
  4 12  2  0  0  0  0
  5  7  1  0  0  0  0
  6 12  2  0  0  0  0
  7  8  1  0  0  0  0
  8  9  1  0  0  0  0
 10 11  1  0  0  0  0
 11 12  1  0  0  0  0
M  END
>  <CHROM.1>
-78.02942238,58.35917765,166.63461153,31.55015785,-23.24930720,5.39666736
-1.72455293,0.40558669,1.05060141

>  <Name>
ligand

>  <RI>
0

>  <Rbt.Current_Directory>
/home/itssahil/PROJECTS/Mol_Feturizer/New_Systems/rnas/4E8N

>  <Rbt.Executable>
rbdock ($Id: //depot/dev/client3/rdock/2013.1/src/exe/rbdock.cxx#4 $)

>  <Rbt.Library>
libRbt.so (2013.1, Build901 2013/11/27)

>  <Rbt.Parameter_File>
/export/apps/rDock/src/rDock_2013.1_src/data/scripts/dock_solv.prm

>  <Rbt.Receptor>
prm/pocket_docking_4.prm

>  <SCORE>
-10.2092

>  <SCORE.INTER>
-6.36789

>  <SCORE.INTER.CONST>
1

>  <SCORE.INTER.POLAR>
0

>  <SCORE.INTER.ROT>
3

>  <SCORE.INTER.SOLV>
5.55

>  <SCORE.INTER.VDW>
-11.6953

>  <SCORE.INTER.norm>
-0.530657

>  <SCORE.INTRA>
-3.84127

>  <SCORE.INTRA.DIHEDRAL>
-4.028

>  <SCORE.INTRA.DIHEDRAL.0>
5.0186

>  <SCORE.INTRA.POLAR>
0

>  <SCORE.INTRA.POLAR.0>
0

>  <SCORE.INTRA.REPUL>
0

>  <SCORE.INTRA.REPUL.0>
0

>  <SCORE.INTRA.SOLV>
1.07644

>  <SCORE.INTRA.SOLV.lig_0>
-16.1608

>  <SCORE.INTRA.VDW>
-2.3655

>  <SCORE.INTRA.VDW.0>
1.14169

>  <SCORE.INTRA.norm>
-0.320106

>  <SCORE.RESTR>
0

>  <SCORE.RESTR.CAVITY>
0

>  <SCORE.RESTR.norm>
0

>  <SCORE.SYSTEM>
0

>  <SCORE.SYSTEM.CONST>
0

>  <SCORE.SYSTEM.DIHEDRAL>
0

>  <SCORE.SYSTEM.SOLV>
0

>  <SCORE.SYSTEM.norm>
0

>  <SCORE.heavy>
12

>  <SCORE.norm>
-0.850764

>  <RMSD>
3.133

$$$$
ligand
 OpenBabel11021811493D
libRbt.so/2013.1/901 2013/11/27
 12 12  0  0  0  0  0  0  0  0999 V2000
   30.1110  -23.4769    3.6151 N   0  0  0  0  0  0  0  0  0  0  0  0
   32.5423  -20.8984    6.5068 O   0  0  0  0  0  0  0  0  0  0  0  0
   29.6340  -24.8801    3.6803 C   0  0  0  0  0  0  0  0  0  0  0  0
   30.9336  -21.2572    8.1965 O   0  0  0  0  0  0  0  0  0  0  0  0
   28.5919  -25.0848    2.5856 C   0  0  0  0  0  0  0  0  0  0  0  0
   32.6459  -22.9704    7.7869 O   0  0  0  0  0  0  0  0  0  0  0  0
   29.2214  -24.9200    1.2720 N   0  0  0  0  0  0  0  0  0  0  0  0
   30.6259  -24.5608    1.4831 C   0  0  0  0  0  0  0  0  0  0  0  0
   30.6342  -23.2514    2.2533 C   0  0  0  0  0  0  0  0  0  0  0  0
   31.1302  -23.0761    4.6648 C   0  0  0  0  0  0  0  0  0  0  0  0
   30.5775  -22.4060    5.9498 C   0  0  0  0  0  0  0  0  0  0  0  0
   31.6732  -21.8601    7.1181 S   0  0  0  0  0  0  0  0  0  0  0  0
  1  3  1  0  0  0  0
  1  9  1  0  0  0  0
  1 10  1  0  0  0  0
  2 12  1  0  0  0  0
  3  5  1  0  0  0  0
  4 12  2  0  0  0  0
  5  7  1  0  0  0  0
  6 12  2  0  0  0  0
  7  8  1  0  0  0  0
  8  9  1  0  0  0  0
 10 11  1  0  0  0  0
 11 12  1  0  0  0  0
M  END
>  <CHROM.1>
-94.45785807,-176.66947157,58.82911069,30.82702974,-23.04586376,4.91946508
2.02345655,-0.68039789,-1.76645499

>  <Name>
ligand

>  <RI>
0

>  <Rbt.Current_Directory>
/home/itssahil/PROJECTS/Mol_Feturizer/New_Systems/rnas/4E8N

>  <Rbt.Executable>
rbdock ($Id: //depot/dev/client3/rdock/2013.1/src/exe/rbdock.cxx#4 $)

>  <Rbt.Library>
libRbt.so (2013.1, Build901 2013/11/27)

>  <Rbt.Parameter_File>
/export/apps/rDock/src/rDock_2013.1_src/data/scripts/dock_solv.prm

>  <Rbt.Receptor>
prm/pocket_docking_7.prm

>  <SCORE>
-10.8816

>  <SCORE.INTER>
-7.28798

>  <SCORE.INTER.CONST>
1

>  <SCORE.INTER.POLAR>
0

>  <SCORE.INTER.ROT>
3

>  <SCORE.INTER.SOLV>
8.15429

>  <SCORE.INTER.VDW>
-13.1768

>  <SCORE.INTER.norm>
-0.607332

>  <SCORE.INTRA>
-3.59362

>  <SCORE.INTRA.DIHEDRAL>
-3.41132

>  <SCORE.INTRA.DIHEDRAL.0>
5.0186

>  <SCORE.INTRA.POLAR>
0

>  <SCORE.INTRA.POLAR.0>
0

>  <SCORE.INTRA.REPUL>
0

>  <SCORE.INTRA.REPUL.0>
0

>  <SCORE.INTRA.SOLV>
-0.113512

>  <SCORE.INTRA.SOLV.lig_0>
-16.1608

>  <SCORE.INTRA.VDW>
-1.8312

>  <SCORE.INTRA.VDW.0>
1.14169

>  <SCORE.INTRA.norm>
-0.299468

>  <SCORE.RESTR>
0

>  <SCORE.RESTR.CAVITY>
0

>  <SCORE.RESTR.norm>
0

>  <SCORE.SYSTEM>
0

>  <SCORE.SYSTEM.CONST>
0

>  <SCORE.SYSTEM.DIHEDRAL>
0

>  <SCORE.SYSTEM.SOLV>
0

>  <SCORE.SYSTEM.norm>
0

>  <SCORE.heavy>
12

>  <SCORE.norm>
-0.9068

>  <RMSD>
3.137

$$$$
ligand
 OpenBabel11021811493D
libRbt.so/2013.1/901 2013/11/27
 12 12  0  0  0  0  0  0  0  0999 V2000
   30.2717  -23.3720    3.5362 N   0  0  0  0  0  0  0  0  0  0  0  0
   30.8174  -21.3501    8.2317 O   0  0  0  0  0  0  0  0  0  0  0  0
   29.7098  -24.7359    3.6939 C   0  0  0  0  0  0  0  0  0  0  0  0
   32.3375  -23.0831    7.7242 O   0  0  0  0  0  0  0  0  0  0  0  0
   28.7414  -24.9926    2.5439 C   0  0  0  0  0  0  0  0  0  0  0  0
   32.7374  -20.8338    6.8211 O   0  0  0  0  0  0  0  0  0  0  0  0
   29.4749  -24.9889    1.2746 N   0  0  0  0  0  0  0  0  0  0  0  0
   30.8785  -24.6833    1.5619 C   0  0  0  0  0  0  0  0  0  0  0  0
   30.9064  -23.3073    2.2051 C   0  0  0  0  0  0  0  0  0  0  0  0
   31.2321  -22.9236    4.6214 C   0  0  0  0  0  0  0  0  0  0  0  0
   30.6011  -22.4684    5.9633 C   0  0  0  0  0  0  0  0  0  0  0  0
   31.6228  -21.9453    7.2065 S   0  0  0  0  0  0  0  0  0  0  0  0
  1  3  1  0  0  0  0
  1  9  1  0  0  0  0
  1 10  1  0  0  0  0
  2 12  1  0  0  0  0
  3  5  1  0  0  0  0
  4 12  2  0  0  0  0
  5  7  1  0  0  0  0
  6 12  2  0  0  0  0
  7  8  1  0  0  0  0
  8  9  1  0  0  0  0
 10 11  1  0  0  0  0
 11 12  1  0  0  0  0
M  END
>  <CHROM.1>
-77.70973068,-179.50137546,169.37120288,30.89359392,-23.05837407,4.95051537
-1.94521859,0.61967185,1.31388793

>  <Name>
ligand

>  <RI>
0

>  <Rbt.Current_Directory>
/home/itssahil/PROJECTS/Mol_Feturizer/New_Systems/rnas/4E8N

>  <Rbt.Executable>
rbdock ($Id: //depot/dev/client3/rdock/2013.1/src/exe/rbdock.cxx#4 $)

>  <Rbt.Library>
libRbt.so (2013.1, Build901 2013/11/27)

>  <Rbt.Parameter_File>
/export/apps/rDock/src/rDock_2013.1_src/data/scripts/dock_solv.prm

>  <Rbt.Receptor>
prm/pocket_docking_5.prm

>  <SCORE>
-11.788

>  <SCORE.INTER>
-7.95845

>  <SCORE.INTER.CONST>
1

>  <SCORE.INTER.POLAR>
0

>  <SCORE.INTER.ROT>
3

>  <SCORE.INTER.SOLV>
6.69643

>  <SCORE.INTER.VDW>
-13.1378

>  <SCORE.INTER.norm>
-0.663204

>  <SCORE.INTRA>
-3.82951

>  <SCORE.INTRA.DIHEDRAL>
-4.20281

>  <SCORE.INTRA.DIHEDRAL.0>
5.0186

>  <SCORE.INTRA.POLAR>
0

>  <SCORE.INTRA.POLAR.0>
0

>  <SCORE.INTRA.REPUL>
0

>  <SCORE.INTRA.REPUL.0>
0

>  <SCORE.INTRA.SOLV>
0.0682745

>  <SCORE.INTRA.SOLV.lig_0>
-16.1608

>  <SCORE.INTRA.VDW>
-1.76225

>  <SCORE.INTRA.VDW.0>
1.14169

>  <SCORE.INTRA.norm>
-0.319126

>  <SCORE.RESTR>
0

>  <SCORE.RESTR.CAVITY>
0

>  <SCORE.RESTR.norm>
0

>  <SCORE.SYSTEM>
0

>  <SCORE.SYSTEM.CONST>
0

>  <SCORE.SYSTEM.DIHEDRAL>
0

>  <SCORE.SYSTEM.SOLV>
0

>  <SCORE.SYSTEM.norm>
0

>  <SCORE.heavy>
12

>  <SCORE.norm>
-0.982331

>  <RMSD>
3.157

$$$$
ligand
 OpenBabel11021811493D
libRbt.so/2013.1/901 2013/11/27
 12 12  0  0  0  0  0  0  0  0999 V2000
   30.2212  -23.4650    3.6547 N   0  0  0  0  0  0  0  0  0  0  0  0
   32.8065  -21.0391    6.5357 O   0  0  0  0  0  0  0  0  0  0  0  0
   29.6588  -24.8361    3.7236 C   0  0  0  0  0  0  0  0  0  0  0  0
   31.1575  -21.2427    8.2123 O   0  0  0  0  0  0  0  0  0  0  0  0
   28.6124  -24.9821    2.6236 C   0  0  0  0  0  0  0  0  0  0  0  0
   32.7407  -23.0870    7.8564 O   0  0  0  0  0  0  0  0  0  0  0  0
   29.2582  -24.8627    1.3130 N   0  0  0  0  0  0  0  0  0  0  0  0
   30.6809  -24.5890    1.5308 C   0  0  0  0  0  0  0  0  0  0  0  0
   30.7649  -23.2788    2.2950 C   0  0  0  0  0  0  0  0  0  0  0  0
   31.2570  -23.1221    4.7086 C   0  0  0  0  0  0  0  0  0  0  0  0
   30.7403  -22.4063    5.9839 C   0  0  0  0  0  0  0  0  0  0  0  0
   31.8612  -21.9206    7.1548 S   0  0  0  0  0  0  0  0  0  0  0  0
  1  3  1  0  0  0  0
  1  9  1  0  0  0  0
  1 10  1  0  0  0  0
  2 12  1  0  0  0  0
  3  5  1  0  0  0  0
  4 12  2  0  0  0  0
  5  7  1  0  0  0  0
  6 12  2  0  0  0  0
  7  8  1  0  0  0  0
  8  9  1  0  0  0  0
 10 11  1  0  0  0  0
 11 12  1  0  0  0  0
M  END
>  <CHROM.1>
-94.77131063,-176.58507962,57.90516347,30.95560065,-23.06784778,4.95908171
2.03226643,-0.62124687,-1.76688499

>  <Name>
ligand

>  <RI>
0

>  <Rbt.Current_Directory>
/home/itssahil/PROJECTS/Mol_Feturizer/New_Systems/rnas/4E8N

>  <Rbt.Executable>
rbdock ($Id: //depot/dev/client3/rdock/2013.1/src/exe/rbdock.cxx#4 $)

>  <Rbt.Library>
libRbt.so (2013.1, Build901 2013/11/27)

>  <Rbt.Parameter_File>
/export/apps/rDock/src/rDock_2013.1_src/data/scripts/dock_solv.prm

>  <Rbt.Receptor>
prm/pocket_docking_6.prm

>  <SCORE>
-10.8847

>  <SCORE.INTER>
-7.30562

>  <SCORE.INTER.CONST>
1

>  <SCORE.INTER.POLAR>
0

>  <SCORE.INTER.ROT>
3

>  <SCORE.INTER.SOLV>
8.18887

>  <SCORE.INTER.VDW>
-13.2

>  <SCORE.INTER.norm>
-0.608802

>  <SCORE.INTRA>
-3.57909

>  <SCORE.INTRA.DIHEDRAL>
-3.38425

>  <SCORE.INTRA.DIHEDRAL.0>
5.0186

>  <SCORE.INTRA.POLAR>
0

>  <SCORE.INTRA.POLAR.0>
0

>  <SCORE.INTRA.REPUL>
0

>  <SCORE.INTRA.REPUL.0>
0

>  <SCORE.INTRA.SOLV>
-0.11545

>  <SCORE.INTRA.SOLV.lig_0>
-16.1608

>  <SCORE.INTRA.VDW>
-1.82925

>  <SCORE.INTRA.VDW.0>
1.14169

>  <SCORE.INTRA.norm>
-0.298258

>  <SCORE.RESTR>
0

>  <SCORE.RESTR.CAVITY>
0

>  <SCORE.RESTR.norm>
0

>  <SCORE.SYSTEM>
0

>  <SCORE.SYSTEM.CONST>
0

>  <SCORE.SYSTEM.DIHEDRAL>
0

>  <SCORE.SYSTEM.SOLV>
0

>  <SCORE.SYSTEM.norm>
0

>  <SCORE.heavy>
12

>  <SCORE.norm>
-0.907059

>  <RMSD>
3.159

$$$$
ligand
 OpenBabel11021811493D
libRbt.so/2013.1/901 2013/11/27
 12 12  0  0  0  0  0  0  0  0999 V2000
   30.8018  -23.4951    4.1150 N   0  0  0  0  0  0  0  0  0  0  0  0
   32.4859  -21.1576    7.8966 O   0  0  0  0  0  0  0  0  0  0  0  0
   30.3797  -22.7747    2.8887 C   0  0  0  0  0  0  0  0  0  0  0  0
   31.8962  -23.4426    7.9531 O   0  0  0  0  0  0  0  0  0  0  0  0
   31.2232  -23.2774    1.7216 C   0  0  0  0  0  0  0  0  0  0  0  0
   33.4876  -22.6558    6.2550 O   0  0  0  0  0  0  0  0  0  0  0  0
   30.9410  -24.6969    1.4881 N   0  0  0  0  0  0  0  0  0  0  0  0
   29.9825  -25.1425    2.5024 C   0  0  0  0  0  0  0  0  0  0  0  0
   30.6458  -24.9396    3.8539 C   0  0  0  0  0  0  0  0  0  0  0  0
   30.0938  -23.0921    5.3946 C   0  0  0  0  0  0  0  0  0  0  0  0
   30.7516  -21.9595    6.2256 C   0  0  0  0  0  0  0  0  0  0  0  0
   32.1539  -22.3065    7.1068 S   0  0  0  0  0  0  0  0  0  0  0  0
  1  3  1  0  0  0  0
  1  9  1  0  0  0  0
  1 10  1  0  0  0  0
  2 12  1  0  0  0  0
  3  5  1  0  0  0  0
  4 12  2  0  0  0  0
  5  7  1  0  0  0  0
  6 12  2  0  0  0  0
  7  8  1  0  0  0  0
  8  9  1  0  0  0  0
 10 11  1  0  0  0  0
 11 12  1  0  0  0  0
M  END
>  <CHROM.1>
-90.97823278,-73.90877414,-173.86138220,31.36569971,-23.13137737,5.08138401
2.05984076,-0.89760873,-1.55909524

>  <Name>
ligand

>  <RI>
0

>  <Rbt.Current_Directory>
/home/itssahil/PROJECTS/Mol_Feturizer/New_Systems/rnas/4E8N

>  <Rbt.Executable>
rbdock ($Id: //depot/dev/client3/rdock/2013.1/src/exe/rbdock.cxx#4 $)

>  <Rbt.Library>
libRbt.so (2013.1, Build901 2013/11/27)

>  <Rbt.Parameter_File>
/export/apps/rDock/src/rDock_2013.1_src/data/scripts/dock_solv.prm

>  <Rbt.Receptor>
prm/pocket_docking_7.prm

>  <SCORE>
-11.4308

>  <SCORE.INTER>
-8.06798

>  <SCORE.INTER.CONST>
1

>  <SCORE.INTER.POLAR>
0

>  <SCORE.INTER.ROT>
3

>  <SCORE.INTER.SOLV>
8.00251

>  <SCORE.INTER.VDW>
-13.6462

>  <SCORE.INTER.norm>
-0.672332

>  <SCORE.INTRA>
-3.3628

>  <SCORE.INTRA.DIHEDRAL>
-2.86777

>  <SCORE.INTRA.DIHEDRAL.0>
5.0186

>  <SCORE.INTRA.POLAR>
0

>  <SCORE.INTRA.POLAR.0>
0

>  <SCORE.INTRA.REPUL>
0

>  <SCORE.INTRA.REPUL.0>
0

>  <SCORE.INTRA.SOLV>
0.521681

>  <SCORE.INTRA.SOLV.lig_0>
-16.1608

>  <SCORE.INTRA.VDW>
-2.18975

>  <SCORE.INTRA.VDW.0>
1.14169

>  <SCORE.INTRA.norm>
-0.280233

>  <SCORE.RESTR>
0

>  <SCORE.RESTR.CAVITY>
0

>  <SCORE.RESTR.norm>
0

>  <SCORE.SYSTEM>
0

>  <SCORE.SYSTEM.CONST>
0

>  <SCORE.SYSTEM.DIHEDRAL>
0

>  <SCORE.SYSTEM.SOLV>
0

>  <SCORE.SYSTEM.norm>
0

>  <SCORE.heavy>
12

>  <SCORE.norm>
-0.952565

>  <RMSD>
3.163

$$$$
ligand
 OpenBabel11021811493D
libRbt.so/2013.1/901 2013/11/27
 12 12  0  0  0  0  0  0  0  0999 V2000
   32.1377  -21.2647    7.3452 N   0  0  0  0  0  0  0  0  0  0  0  0
   33.6452  -18.0627   10.2892 O   0  0  0  0  0  0  0  0  0  0  0  0
   32.2836  -20.6830    5.9883 C   0  0  0  0  0  0  0  0  0  0  0  0
   33.6900  -20.4189   10.1553 O   0  0  0  0  0  0  0  0  0  0  0  0
   33.2368  -21.5641    5.1876 C   0  0  0  0  0  0  0  0  0  0  0  0
   34.5993  -19.0942    8.2971 O   0  0  0  0  0  0  0  0  0  0  0  0
   32.6437  -22.8928    5.0090 N   0  0  0  0  0  0  0  0  0  0  0  0
   31.3609  -22.9164    5.7161 C   0  0  0  0  0  0  0  0  0  0  0  0
   31.6613  -22.6523    7.1816 C   0  0  0  0  0  0  0  0  0  0  0  0
   31.2507  -20.4924    8.3033 C   0  0  0  0  0  0  0  0  0  0  0  0
   31.8430  -19.1897    8.9017 C   0  0  0  0  0  0  0  0  0  0  0  0
   33.4491  -19.1961    9.4343 S   0  0  0  0  0  0  0  0  0  0  0  0
  1  3  1  0  0  0  0
  1  9  1  0  0  0  0
  1 10  1  0  0  0  0
  2 12  1  0  0  0  0
  3  5  1  0  0  0  0
  4 12  2  0  0  0  0
  5  7  1  0  0  0  0
  6 12  2  0  0  0  0
  7  8  1  0  0  0  0
  8  9  1  0  0  0  0
 10 11  1  0  0  0  0
 11 12  1  0  0  0  0
M  END
>  <CHROM.1>
-74.93802426,-42.98862353,-162.84606512,32.76600260,-20.51418030,7.87774634
1.87838838,-0.53516404,-2.11489579

>  <Name>
ligand

>  <RI>
0

>  <Rbt.Current_Directory>
/home/itssahil/PROJECTS/Mol_Feturizer/New_Systems/rnas/4E8N

>  <Rbt.Executable>
rbdock ($Id: //depot/dev/client3/rdock/2013.1/src/exe/rbdock.cxx#4 $)

>  <Rbt.Library>
libRbt.so (2013.1, Build901 2013/11/27)

>  <Rbt.Parameter_File>
/export/apps/rDock/src/rDock_2013.1_src/data/scripts/dock_solv.prm

>  <Rbt.Receptor>
prm/pocket_docking_5.prm

>  <SCORE>
-11.2953

>  <SCORE.INTER>
-7.93181

>  <SCORE.INTER.CONST>
1

>  <SCORE.INTER.POLAR>
0

>  <SCORE.INTER.ROT>
3

>  <SCORE.INTER.SOLV>
5.7194

>  <SCORE.INTER.VDW>
-12.7943

>  <SCORE.INTER.norm>
-0.660984

>  <SCORE.INTRA>
-3.36353

>  <SCORE.INTRA.DIHEDRAL>
-2.87998

>  <SCORE.INTRA.DIHEDRAL.0>
5.0186

>  <SCORE.INTRA.POLAR>
0

>  <SCORE.INTRA.POLAR.0>
0

>  <SCORE.INTRA.REPUL>
0

>  <SCORE.INTRA.REPUL.0>
0

>  <SCORE.INTRA.SOLV>
0.970108

>  <SCORE.INTRA.SOLV.lig_0>
-16.1608

>  <SCORE.INTRA.VDW>
-2.40859

>  <SCORE.INTRA.VDW.0>
1.14169

>  <SCORE.INTRA.norm>
-0.280294

>  <SCORE.RESTR>
0

>  <SCORE.RESTR.CAVITY>
0

>  <SCORE.RESTR.norm>
0

>  <SCORE.SYSTEM>
0

>  <SCORE.SYSTEM.CONST>
0

>  <SCORE.SYSTEM.DIHEDRAL>
0

>  <SCORE.SYSTEM.SOLV>
0

>  <SCORE.SYSTEM.norm>
0

>  <SCORE.heavy>
12

>  <SCORE.norm>
-0.941278

>  <RMSD>
3.176

$$$$
ligand
 OpenBabel11021811493D
libRbt.so/2013.1/901 2013/11/27
 12 12  0  0  0  0  0  0  0  0999 V2000
   30.0959  -23.5058    3.6499 N   0  0  0  0  0  0  0  0  0  0  0  0
   30.8151  -21.1956    8.1936 O   0  0  0  0  0  0  0  0  0  0  0  0
   29.5134  -24.8684    3.7206 C   0  0  0  0  0  0  0  0  0  0  0  0
   32.1827  -23.0629    7.7306 O   0  0  0  0  0  0  0  0  0  0  0  0
   28.5264  -25.0294    2.5690 C   0  0  0  0  0  0  0  0  0  0  0  0
   32.7803  -20.8748    6.7873 O   0  0  0  0  0  0  0  0  0  0  0  0
   29.2437  -24.9493    1.2931 N   0  0  0  0  0  0  0  0  0  0  0  0
   30.6558  -24.6864    1.5815 C   0  0  0  0  0  0  0  0  0  0  0  0
   30.7148  -23.3589    2.3178 C   0  0  0  0  0  0  0  0  0  0  0  0
   31.0774  -23.1491    4.7502 C   0  0  0  0  0  0  0  0  0  0  0  0
   30.5156  -22.3358    5.9456 C   0  0  0  0  0  0  0  0  0  0  0  0
   31.5718  -21.8783    7.1860 S   0  0  0  0  0  0  0  0  0  0  0  0
  1  3  1  0  0  0  0
  1  9  1  0  0  0  0
  1 10  1  0  0  0  0
  2 12  1  0  0  0  0
  3  5  1  0  0  0  0
  4 12  2  0  0  0  0
  5  7  1  0  0  0  0
  6 12  2  0  0  0  0
  7  8  1  0  0  0  0
  8  9  1  0  0  0  0
 10 11  1  0  0  0  0
 11 12  1  0  0  0  0
M  END
>  <CHROM.1>
-97.67981024,-178.61075483,-177.50529747,30.76814550,-23.06605931,4.97281806
1.97639841,-0.60218395,-1.83632517

>  <Name>
ligand

>  <RI>
0

>  <Rbt.Current_Directory>
/home/itssahil/PROJECTS/Mol_Feturizer/New_Systems/rnas/4E8N

>  <Rbt.Executable>
rbdock ($Id: //depot/dev/client3/rdock/2013.1/src/exe/rbdock.cxx#4 $)

>  <Rbt.Library>
libRbt.so (2013.1, Build901 2013/11/27)

>  <Rbt.Parameter_File>
/export/apps/rDock/src/rDock_2013.1_src/data/scripts/dock_solv.prm

>  <Rbt.Receptor>
prm/pocket_docking_4.prm

>  <SCORE>
-11.4458

>  <SCORE.INTER>
-8.0191

>  <SCORE.INTER.CONST>
1

>  <SCORE.INTER.POLAR>
0

>  <SCORE.INTER.ROT>
3

>  <SCORE.INTER.SOLV>
6.98014

>  <SCORE.INTER.VDW>
-13.2728

>  <SCORE.INTER.norm>
-0.668259

>  <SCORE.INTRA>
-3.42671

>  <SCORE.INTRA.DIHEDRAL>
-3.24302

>  <SCORE.INTRA.DIHEDRAL.0>
5.0186

>  <SCORE.INTRA.POLAR>
0

>  <SCORE.INTRA.POLAR.0>
0

>  <SCORE.INTRA.REPUL>
0

>  <SCORE.INTRA.REPUL.0>
0

>  <SCORE.INTRA.SOLV>
0.0681501

>  <SCORE.INTRA.SOLV.lig_0>
-16.1608

>  <SCORE.INTRA.VDW>
-1.83928

>  <SCORE.INTRA.VDW.0>
1.14169

>  <SCORE.INTRA.norm>
-0.285559

>  <SCORE.RESTR>
0

>  <SCORE.RESTR.CAVITY>
0

>  <SCORE.RESTR.norm>
0

>  <SCORE.SYSTEM>
0

>  <SCORE.SYSTEM.CONST>
0

>  <SCORE.SYSTEM.DIHEDRAL>
0

>  <SCORE.SYSTEM.SOLV>
0

>  <SCORE.SYSTEM.norm>
0

>  <SCORE.heavy>
12

>  <SCORE.norm>
-0.953818

>  <RMSD>
3.177

$$$$
ligand
 OpenBabel11021811493D
libRbt.so/2013.1/901 2013/11/27
 12 12  0  0  0  0  0  0  0  0999 V2000
   30.5078  -24.0177    3.7778 N   0  0  0  0  0  0  0  0  0  0  0  0
   31.0764  -22.6563    8.1113 O   0  0  0  0  0  0  0  0  0  0  0  0
   30.6276  -23.3280    2.4698 C   0  0  0  0  0  0  0  0  0  0  0  0
   33.1337  -21.6530    7.5343 O   0  0  0  0  0  0  0  0  0  0  0  0
   30.7217  -24.3862    1.3754 C   0  0  0  0  0  0  0  0  0  0  0  0
   31.0423  -20.4449    7.0860 O   0  0  0  0  0  0  0  0  0  0  0  0
   29.4743  -25.1549    1.3277 N   0  0  0  0  0  0  0  0  0  0  0  0
   28.5970  -24.6639    2.3932 C   0  0  0  0  0  0  0  0  0  0  0  0
   29.3252  -24.8983    3.7057 C   0  0  0  0  0  0  0  0  0  0  0  0
   30.4439  -23.1165    4.9964 C   0  0  0  0  0  0  0  0  0  0  0  0
   31.7939  -22.7746    5.6793 C   0  0  0  0  0  0  0  0  0  0  0  0
   31.7747  -21.8900    7.1217 S   0  0  0  0  0  0  0  0  0  0  0  0
  1  3  1  0  0  0  0
  1  9  1  0  0  0  0
  1 10  1  0  0  0  0
  2 12  1  0  0  0  0
  3  5  1  0  0  0  0
  4 12  2  0  0  0  0
  5  7  1  0  0  0  0
  6 12  2  0  0  0  0
  7  8  1  0  0  0  0
  8  9  1  0  0  0  0
 10 11  1  0  0  0  0
 11 12  1  0  0  0  0
M  END
>  <CHROM.1>
-91.44705359,-174.55355329,62.12861270,30.84196798,-23.06971868,4.95626931
1.97715673,-0.56461132,-1.84624198

>  <Name>
ligand

>  <RI>
0

>  <Rbt.Current_Directory>
/home/itssahil/PROJECTS/Mol_Feturizer/New_Systems/rnas/4E8N

>  <Rbt.Executable>
rbdock ($Id: //depot/dev/client3/rdock/2013.1/src/exe/rbdock.cxx#4 $)

>  <Rbt.Library>
libRbt.so (2013.1, Build901 2013/11/27)

>  <Rbt.Parameter_File>
/export/apps/rDock/src/rDock_2013.1_src/data/scripts/dock_solv.prm

>  <Rbt.Receptor>
prm/pocket_docking_5.prm

>  <SCORE>
0.520276

>  <SCORE.INTER>
4.15947

>  <SCORE.INTER.CONST>
1

>  <SCORE.INTER.POLAR>
0

>  <SCORE.INTER.ROT>
3

>  <SCORE.INTER.SOLV>
5.7955

>  <SCORE.INTER.VDW>
-4.75885

>  <SCORE.INTER.norm>
0.346623

>  <SCORE.INTRA>
-3.6392

>  <SCORE.INTRA.DIHEDRAL>
-3.51327

>  <SCORE.INTRA.DIHEDRAL.0>
5.0186

>  <SCORE.INTRA.POLAR>
0

>  <SCORE.INTRA.POLAR.0>
0

>  <SCORE.INTRA.REPUL>
0

>  <SCORE.INTRA.REPUL.0>
0

>  <SCORE.INTRA.SOLV>
-0.106135

>  <SCORE.INTRA.SOLV.lig_0>
-16.1608

>  <SCORE.INTRA.VDW>
-1.82949

>  <SCORE.INTRA.VDW.0>
1.14169

>  <SCORE.INTRA.norm>
-0.303266

>  <SCORE.RESTR>
0

>  <SCORE.RESTR.CAVITY>
0

>  <SCORE.RESTR.norm>
0

>  <SCORE.SYSTEM>
0

>  <SCORE.SYSTEM.CONST>
0

>  <SCORE.SYSTEM.DIHEDRAL>
0

>  <SCORE.SYSTEM.SOLV>
0

>  <SCORE.SYSTEM.norm>
0

>  <SCORE.heavy>
12

>  <SCORE.norm>
0.0433564

>  <RMSD>
3.179

$$$$
ligand
 OpenBabel11021811493D
libRbt.so/2013.1/901 2013/11/27
 12 12  0  0  0  0  0  0  0  0999 V2000
   30.9763  -23.6860    4.3347 N   0  0  0  0  0  0  0  0  0  0  0  0
   32.4969  -21.1756    7.9552 O   0  0  0  0  0  0  0  0  0  0  0  0
   31.2007  -22.9737    3.0528 C   0  0  0  0  0  0  0  0  0  0  0  0
   31.8183  -23.4363    7.9334 O   0  0  0  0  0  0  0  0  0  0  0  0
   32.1243  -23.8235    2.1862 C   0  0  0  0  0  0  0  0  0  0  0  0
   33.5022  -22.6734    6.3156 O   0  0  0  0  0  0  0  0  0  0  0  0
   31.4581  -25.0853    1.8500 N   0  0  0  0  0  0  0  0  0  0  0  0
   30.1540  -25.1025    2.5173 C   0  0  0  0  0  0  0  0  0  0  0  0
   30.4224  -25.0152    4.0100 C   0  0  0  0  0  0  0  0  0  0  0  0
   30.1071  -22.9651    5.3477 C   0  0  0  0  0  0  0  0  0  0  0  0
   30.7980  -21.8698    6.2016 C   0  0  0  0  0  0  0  0  0  0  0  0
   32.1514  -22.2919    7.1255 S   0  0  0  0  0  0  0  0  0  0  0  0
  1  3  1  0  0  0  0
  1  9  1  0  0  0  0
  1 10  1  0  0  0  0
  2 12  1  0  0  0  0
  3  5  1  0  0  0  0
  4 12  2  0  0  0  0
  5  7  1  0  0  0  0
  6 12  2  0  0  0  0
  7  8  1  0  0  0  0
  8  9  1  0  0  0  0
 10 11  1  0  0  0  0
 11 12  1  0  0  0  0
M  END
>  <CHROM.1>
-81.00905819,-56.95054503,-172.29140153,31.53754023,-23.21472642,5.18835344
1.81404246,-0.39463499,-1.93296057

>  <Name>
ligand

>  <RI>
0

>  <Rbt.Current_Directory>
/home/itssahil/PROJECTS/Mol_Feturizer/New_Systems/rnas/4E8N

>  <Rbt.Executable>
rbdock ($Id: //depot/dev/client3/rdock/2013.1/src/exe/rbdock.cxx#4 $)

>  <Rbt.Library>
libRbt.so (2013.1, Build901 2013/11/27)

>  <Rbt.Parameter_File>
/export/apps/rDock/src/rDock_2013.1_src/data/scripts/dock_solv.prm

>  <Rbt.Receptor>
prm/pocket_docking_8.prm

>  <SCORE>
-11.6718

>  <SCORE.INTER>
-7.67864

>  <SCORE.INTER.CONST>
1

>  <SCORE.INTER.POLAR>
0

>  <SCORE.INTER.ROT>
3

>  <SCORE.INTER.SOLV>
6.54172

>  <SCORE.INTER.VDW>
-12.8997

>  <SCORE.INTER.norm>
-0.639887

>  <SCORE.INTRA>
-3.99314

>  <SCORE.INTRA.DIHEDRAL>
-4.09043

>  <SCORE.INTRA.DIHEDRAL.0>
5.0186

>  <SCORE.INTRA.POLAR>
0

>  <SCORE.INTRA.POLAR.0>
0

>  <SCORE.INTRA.REPUL>
0

>  <SCORE.INTRA.REPUL.0>
0

>  <SCORE.INTRA.SOLV>
0.746712

>  <SCORE.INTRA.SOLV.lig_0>
-16.1608

>  <SCORE.INTRA.VDW>
-2.32128

>  <SCORE.INTRA.VDW.0>
1.14169

>  <SCORE.INTRA.norm>
-0.332762

>  <SCORE.RESTR>
0

>  <SCORE.RESTR.CAVITY>
0

>  <SCORE.RESTR.norm>
0

>  <SCORE.SYSTEM>
0

>  <SCORE.SYSTEM.CONST>
0

>  <SCORE.SYSTEM.DIHEDRAL>
0

>  <SCORE.SYSTEM.SOLV>
0

>  <SCORE.SYSTEM.norm>
0

>  <SCORE.heavy>
12

>  <SCORE.norm>
-0.972649

>  <RMSD>
3.183

$$$$
ligand
 OpenBabel11021811493D
libRbt.so/2013.1/901 2013/11/27
 12 12  0  0  0  0  0  0  0  0999 V2000
   31.7834  -23.6786    4.3989 N   0  0  0  0  0  0  0  0  0  0  0  0
   31.6870  -23.3672    7.7541 O   0  0  0  0  0  0  0  0  0  0  0  0
   32.0135  -24.3851    3.1148 C   0  0  0  0  0  0  0  0  0  0  0  0
   32.4876  -21.2302    8.3575 O   0  0  0  0  0  0  0  0  0  0  0  0
   31.1751  -25.6591    3.1102 C   0  0  0  0  0  0  0  0  0  0  0  0
   30.4918  -21.4064    6.9362 O   0  0  0  0  0  0  0  0  0  0  0  0
   29.7518  -25.3099    3.1436 N   0  0  0  0  0  0  0  0  0  0  0  0
   29.6436  -23.8512    3.2253 C   0  0  0  0  0  0  0  0  0  0  0  0
   30.3327  -23.4304    4.5121 C   0  0  0  0  0  0  0  0  0  0  0  0
   32.5735  -22.3994    4.6000 C   0  0  0  0  0  0  0  0  0  0  0  0
   33.0745  -22.1111    6.0394 C   0  0  0  0  0  0  0  0  0  0  0  0
   31.9423  -22.0339    7.2945 S   0  0  0  0  0  0  0  0  0  0  0  0
  1  3  1  0  0  0  0
  1  9  1  0  0  0  0
  1 10  1  0  0  0  0
  2 12  1  0  0  0  0
  3  5  1  0  0  0  0
  4 12  2  0  0  0  0
  5  7  1  0  0  0  0
  6 12  2  0  0  0  0
  7  8  1  0  0  0  0
  8  9  1  0  0  0  0
 10 11  1  0  0  0  0
 11 12  1  0  0  0  0
M  END
>  <CHROM.1>
-143.44580148,-56.99279617,84.20360984,31.46722805,-23.08720253,5.47954087
-1.82836896,0.13470913,1.01645111

>  <Name>
ligand

>  <RI>
0

>  <Rbt.Current_Directory>
/home/itssahil/PROJECTS/Mol_Feturizer/New_Systems/rnas/4E8N

>  <Rbt.Executable>
rbdock ($Id: //depot/dev/client3/rdock/2013.1/src/exe/rbdock.cxx#4 $)

>  <Rbt.Library>
libRbt.so (2013.1, Build901 2013/11/27)

>  <Rbt.Parameter_File>
/export/apps/rDock/src/rDock_2013.1_src/data/scripts/dock_solv.prm

>  <Rbt.Receptor>
prm/pocket_docking_5.prm

>  <SCORE>
-10.5775

>  <SCORE.INTER>
-7.15504

>  <SCORE.INTER.CONST>
1

>  <SCORE.INTER.POLAR>
0

>  <SCORE.INTER.ROT>
3

>  <SCORE.INTER.SOLV>
5.16714

>  <SCORE.INTER.VDW>
-12.0924

>  <SCORE.INTER.norm>
-0.596254

>  <SCORE.INTRA>
-3.42243

>  <SCORE.INTRA.DIHEDRAL>
-2.18202

>  <SCORE.INTRA.DIHEDRAL.0>
5.0186

>  <SCORE.INTRA.POLAR>
0

>  <SCORE.INTRA.POLAR.0>
0

>  <SCORE.INTRA.REPUL>
0

>  <SCORE.INTRA.REPUL.0>
0

>  <SCORE.INTRA.SOLV>
0.43602

>  <SCORE.INTRA.SOLV.lig_0>
-16.1608

>  <SCORE.INTRA.VDW>
-2.54943

>  <SCORE.INTRA.VDW.0>
1.14169

>  <SCORE.INTRA.norm>
-0.285202

>  <SCORE.RESTR>
0

>  <SCORE.RESTR.CAVITY>
0

>  <SCORE.RESTR.norm>
0

>  <SCORE.SYSTEM>
0

>  <SCORE.SYSTEM.CONST>
0

>  <SCORE.SYSTEM.DIHEDRAL>
0

>  <SCORE.SYSTEM.SOLV>
0

>  <SCORE.SYSTEM.norm>
0

>  <SCORE.heavy>
12

>  <SCORE.norm>
-0.881456

>  <RMSD>
3.210

$$$$
ligand
 OpenBabel11021811493D
libRbt.so/2013.1/901 2013/11/27
 12 12  0  0  0  0  0  0  0  0999 V2000
   32.1044  -21.2693    7.3266 N   0  0  0  0  0  0  0  0  0  0  0  0
   33.6191  -20.3245   10.1283 O   0  0  0  0  0  0  0  0  0  0  0  0
   32.2377  -20.6816    5.9709 C   0  0  0  0  0  0  0  0  0  0  0  0
   34.2107  -19.0220    8.2508 O   0  0  0  0  0  0  0  0  0  0  0  0
   33.2136  -21.5374    5.1700 C   0  0  0  0  0  0  0  0  0  0  0  0
   33.7378  -17.9034   10.3861 O   0  0  0  0  0  0  0  0  0  0  0  0
   32.6539  -22.8800    4.9882 N   0  0  0  0  0  0  0  0  0  0  0  0
   31.3710  -22.9368    5.6934 C   0  0  0  0  0  0  0  0  0  0  0  0
   31.6628  -22.6679    7.1598 C   0  0  0  0  0  0  0  0  0  0  0  0
   31.1972  -20.5209    8.2847 C   0  0  0  0  0  0  0  0  0  0  0  0
   31.7408  -19.1854    8.8565 C   0  0  0  0  0  0  0  0  0  0  0  0
   33.3436  -19.1240    9.3957 S   0  0  0  0  0  0  0  0  0  0  0  0
  1  3  1  0  0  0  0
  1  9  1  0  0  0  0
  1 10  1  0  0  0  0
  2 12  1  0  0  0  0
  3  5  1  0  0  0  0
  4 12  2  0  0  0  0
  5  7  1  0  0  0  0
  6 12  2  0  0  0  0
  7  8  1  0  0  0  0
  8  9  1  0  0  0  0
 10 11  1  0  0  0  0
 11 12  1  0  0  0  0
M  END
>  <CHROM.1>
-73.33154214,-44.14372526,-42.19489550,32.70063235,-20.47678371,7.85997121
1.87139566,-0.61027612,-2.11118392

>  <Name>
ligand

>  <RI>
0

>  <Rbt.Current_Directory>
/home/itssahil/PROJECTS/Mol_Feturizer/New_Systems/rnas/4E8N

>  <Rbt.Executable>
rbdock ($Id: //depot/dev/client3/rdock/2013.1/src/exe/rbdock.cxx#4 $)

>  <Rbt.Library>
libRbt.so (2013.1, Build901 2013/11/27)

>  <Rbt.Parameter_File>
/export/apps/rDock/src/rDock_2013.1_src/data/scripts/dock_solv.prm

>  <Rbt.Receptor>
prm/pocket_docking_5.prm

>  <SCORE>
-11.6964

>  <SCORE.INTER>
-8.04868

>  <SCORE.INTER.CONST>
1

>  <SCORE.INTER.POLAR>
0

>  <SCORE.INTER.ROT>
3

>  <SCORE.INTER.SOLV>
4.36369

>  <SCORE.INTER.VDW>
-12.4204

>  <SCORE.INTER.norm>
-0.670724

>  <SCORE.INTRA>
-3.64774

>  <SCORE.INTRA.DIHEDRAL>
-3.0306

>  <SCORE.INTRA.DIHEDRAL.0>
5.0186

>  <SCORE.INTRA.POLAR>
0

>  <SCORE.INTRA.POLAR.0>
0

>  <SCORE.INTRA.REPUL>
0

>  <SCORE.INTRA.REPUL.0>
0

>  <SCORE.INTRA.SOLV>
0.516211

>  <SCORE.INTRA.SOLV.lig_0>
-16.1608

>  <SCORE.INTRA.VDW>
-2.39054

>  <SCORE.INTRA.VDW.0>
1.14169

>  <SCORE.INTRA.norm>
-0.303978

>  <SCORE.RESTR>
0

>  <SCORE.RESTR.CAVITY>
0

>  <SCORE.RESTR.norm>
0

>  <SCORE.SYSTEM>
0

>  <SCORE.SYSTEM.CONST>
0

>  <SCORE.SYSTEM.DIHEDRAL>
0

>  <SCORE.SYSTEM.SOLV>
0

>  <SCORE.SYSTEM.norm>
0

>  <SCORE.heavy>
12

>  <SCORE.norm>
-0.974702

>  <RMSD>
3.212

$$$$
ligand
 OpenBabel11021811493D
libRbt.so/2013.1/901 2013/11/27
 12 12  0  0  0  0  0  0  0  0999 V2000
   30.7784  -23.3279    4.0659 N   0  0  0  0  0  0  0  0  0  0  0  0
   31.9027  -23.4491    7.9482 O   0  0  0  0  0  0  0  0  0  0  0  0
   30.0050  -22.9072    2.8719 C   0  0  0  0  0  0  0  0  0  0  0  0
   33.2169  -22.4733    6.2475 O   0  0  0  0  0  0  0  0  0  0  0  0
   30.8407  -23.2004    1.6302 C   0  0  0  0  0  0  0  0  0  0  0  0
   32.6123  -21.1322    8.2150 O   0  0  0  0  0  0  0  0  0  0  0  0
   31.0438  -24.6469    1.5059 N   0  0  0  0  0  0  0  0  0  0  0  0
   30.4126  -25.2951    2.6581 C   0  0  0  0  0  0  0  0  0  0  0  0
   31.1049  -24.7578    3.8990 C   0  0  0  0  0  0  0  0  0  0  0  0
   30.1155  -23.0721    5.4062 C   0  0  0  0  0  0  0  0  0  0  0  0
   30.7245  -21.9434    6.2786 C   0  0  0  0  0  0  0  0  0  0  0  0
   32.1275  -22.2690    7.1667 S   0  0  0  0  0  0  0  0  0  0  0  0
  1  3  1  0  0  0  0
  1  9  1  0  0  0  0
  1 10  1  0  0  0  0
  2 12  1  0  0  0  0
  3  5  1  0  0  0  0
  4 12  2  0  0  0  0
  5  7  1  0  0  0  0
  6 12  2  0  0  0  0
  7  8  1  0  0  0  0
  8  9  1  0  0  0  0
 10 11  1  0  0  0  0
 11 12  1  0  0  0  0
M  END
>  <CHROM.1>
-108.53781647,-79.23546851,-52.62249266,31.36483481,-23.09180425,5.12603605
2.39932851,1.18350632,-2.73547438

>  <Name>
ligand

>  <RI>
0

>  <Rbt.Current_Directory>
/home/itssahil/PROJECTS/Mol_Feturizer/New_Systems/rnas/4E8N

>  <Rbt.Executable>
rbdock ($Id: //depot/dev/client3/rdock/2013.1/src/exe/rbdock.cxx#4 $)

>  <Rbt.Library>
libRbt.so (2013.1, Build901 2013/11/27)

>  <Rbt.Parameter_File>
/export/apps/rDock/src/rDock_2013.1_src/data/scripts/dock_solv.prm

>  <Rbt.Receptor>
prm/pocket_docking_5.prm

>  <SCORE>
-11.8239

>  <SCORE.INTER>
-9.06873

>  <SCORE.INTER.CONST>
1

>  <SCORE.INTER.POLAR>
0

>  <SCORE.INTER.ROT>
3

>  <SCORE.INTER.SOLV>
6.38324

>  <SCORE.INTER.VDW>
-13.7736

>  <SCORE.INTER.norm>
-0.755727

>  <SCORE.INTRA>
-2.75521

>  <SCORE.INTRA.DIHEDRAL>
-1.35572

>  <SCORE.INTRA.DIHEDRAL.0>
5.0186

>  <SCORE.INTRA.POLAR>
0

>  <SCORE.INTRA.POLAR.0>
0

>  <SCORE.INTRA.REPUL>
0

>  <SCORE.INTRA.REPUL.0>
0

>  <SCORE.INTRA.SOLV>
0.300804

>  <SCORE.INTRA.SOLV.lig_0>
-16.1608

>  <SCORE.INTRA.VDW>
-2.22775

>  <SCORE.INTRA.VDW.0>
1.14169

>  <SCORE.INTRA.norm>
-0.229601

>  <SCORE.RESTR>
0

>  <SCORE.RESTR.CAVITY>
0

>  <SCORE.RESTR.norm>
0

>  <SCORE.SYSTEM>
0

>  <SCORE.SYSTEM.CONST>
0

>  <SCORE.SYSTEM.DIHEDRAL>
0

>  <SCORE.SYSTEM.SOLV>
0

>  <SCORE.SYSTEM.norm>
0

>  <SCORE.heavy>
12

>  <SCORE.norm>
-0.985328

>  <RMSD>
3.235

$$$$
ligand
 OpenBabel11021811493D
libRbt.so/2013.1/901 2013/11/27
 12 12  0  0  0  0  0  0  0  0999 V2000
   30.8605  -23.4893    4.0915 N   0  0  0  0  0  0  0  0  0  0  0  0
   31.8941  -23.4426    7.9641 O   0  0  0  0  0  0  0  0  0  0  0  0
   30.2680  -22.9061    2.8628 C   0  0  0  0  0  0  0  0  0  0  0  0
   33.2306  -22.4964    6.2640 O   0  0  0  0  0  0  0  0  0  0  0  0
   31.1379  -23.3031    1.6747 C   0  0  0  0  0  0  0  0  0  0  0  0
   32.5695  -21.1103    8.1814 O   0  0  0  0  0  0  0  0  0  0  0  0
   31.1009  -24.7586    1.5040 N   0  0  0  0  0  0  0  0  0  0  0  0
   30.2785  -25.3212    2.5779 C   0  0  0  0  0  0  0  0  0  0  0  0
   30.9509  -24.9486    3.8882 C   0  0  0  0  0  0  0  0  0  0  0  0
   30.1460  -23.1621    5.3891 C   0  0  0  0  0  0  0  0  0  0  0  0
   30.7317  -21.9981    6.2305 C   0  0  0  0  0  0  0  0  0  0  0  0
   32.1203  -22.2813    7.1551 S   0  0  0  0  0  0  0  0  0  0  0  0
  1  3  1  0  0  0  0
  1  9  1  0  0  0  0
  1 10  1  0  0  0  0
  2 12  1  0  0  0  0
  3  5  1  0  0  0  0
  4 12  2  0  0  0  0
  5  7  1  0  0  0  0
  6 12  2  0  0  0  0
  7  8  1  0  0  0  0
  8  9  1  0  0  0  0
 10 11  1  0  0  0  0
 11 12  1  0  0  0  0
M  END
>  <CHROM.1>
-97.85831838,-77.43229861,-51.98637788,31.39326557,-23.14711526,5.11692588
-2.49610037,1.23619201,2.07300506

>  <Name>
ligand

>  <RI>
0

>  <Rbt.Current_Directory>
/home/itssahil/PROJECTS/Mol_Feturizer/New_Systems/rnas/4E8N

>  <Rbt.Executable>
rbdock ($Id: //depot/dev/client3/rdock/2013.1/src/exe/rbdock.cxx#4 $)

>  <Rbt.Library>
libRbt.so (2013.1, Build901 2013/11/27)

>  <Rbt.Parameter_File>
/export/apps/rDock/src/rDock_2013.1_src/data/scripts/dock_solv.prm

>  <Rbt.Receptor>
prm/pocket_docking_8.prm

>  <SCORE>
-12.0969

>  <SCORE.INTER>
-9.02998

>  <SCORE.INTER.CONST>
1

>  <SCORE.INTER.POLAR>
0

>  <SCORE.INTER.ROT>
3

>  <SCORE.INTER.SOLV>
6.23497

>  <SCORE.INTER.VDW>
-13.6983

>  <SCORE.INTER.norm>
-0.752498

>  <SCORE.INTRA>
-3.06693

>  <SCORE.INTRA.DIHEDRAL>
-2.02087

>  <SCORE.INTRA.DIHEDRAL.0>
5.0186

>  <SCORE.INTRA.POLAR>
0

>  <SCORE.INTRA.POLAR.0>
0

>  <SCORE.INTRA.REPUL>
0

>  <SCORE.INTRA.REPUL.0>
0

>  <SCORE.INTRA.SOLV>
0.302347

>  <SCORE.INTRA.SOLV.lig_0>
-16.1608

>  <SCORE.INTRA.VDW>
-2.20767

>  <SCORE.INTRA.VDW.0>
1.14169

>  <SCORE.INTRA.norm>
-0.255578

>  <SCORE.RESTR>
0

>  <SCORE.RESTR.CAVITY>
0

>  <SCORE.RESTR.norm>
0

>  <SCORE.SYSTEM>
0

>  <SCORE.SYSTEM.CONST>
0

>  <SCORE.SYSTEM.DIHEDRAL>
0

>  <SCORE.SYSTEM.SOLV>
0

>  <SCORE.SYSTEM.norm>
0

>  <SCORE.heavy>
12

>  <SCORE.norm>
-1.00808

>  <RMSD>
3.249

$$$$
ligand
 OpenBabel11021811493D
libRbt.so/2013.1/901 2013/11/27
 12 12  0  0  0  0  0  0  0  0999 V2000
   30.5511  -23.7550    3.9716 N   0  0  0  0  0  0  0  0  0  0  0  0
   30.8076  -21.6077    8.0766 O   0  0  0  0  0  0  0  0  0  0  0  0
   29.5045  -24.7706    3.6995 C   0  0  0  0  0  0  0  0  0  0  0  0
   32.7855  -22.8769    7.8556 O   0  0  0  0  0  0  0  0  0  0  0  0
   29.3983  -24.9587    2.1897 C   0  0  0  0  0  0  0  0  0  0  0  0
   32.8884  -20.4377    7.5823 O   0  0  0  0  0  0  0  0  0  0  0  0
   30.6557  -25.5086    1.6742 N   0  0  0  0  0  0  0  0  0  0  0  0
   31.5914  -25.6307    2.7948 C   0  0  0  0  0  0  0  0  0  0  0  0
   31.8011  -24.2312    3.3474 C   0  0  0  0  0  0  0  0  0  0  0  0
   30.7687  -23.4054    5.4316 C   0  0  0  0  0  0  0  0  0  0  0  0
   31.6042  -22.1317    5.7241 C   0  0  0  0  0  0  0  0  0  0  0  0
   32.0169  -21.7800    7.3270 S   0  0  0  0  0  0  0  0  0  0  0  0
  1  3  1  0  0  0  0
  1  9  1  0  0  0  0
  1 10  1  0  0  0  0
  2 12  1  0  0  0  0
  3  5  1  0  0  0  0
  4 12  2  0  0  0  0
  5  7  1  0  0  0  0
  6 12  2  0  0  0  0
  7  8  1  0  0  0  0
  8  9  1  0  0  0  0
 10 11  1  0  0  0  0
 11 12  1  0  0  0  0
M  END
>  <CHROM.1>
-166.22145051,-173.69870912,-60.61824595,31.30437996,-23.21508053,5.28237271
1.83722580,0.03142006,-2.18837500

>  <Name>
ligand

>  <RI>
0

>  <Rbt.Current_Directory>
/home/itssahil/PROJECTS/Mol_Feturizer/New_Systems/rnas/4E8N

>  <Rbt.Executable>
rbdock ($Id: //depot/dev/client3/rdock/2013.1/src/exe/rbdock.cxx#4 $)

>  <Rbt.Library>
libRbt.so (2013.1, Build901 2013/11/27)

>  <Rbt.Parameter_File>
/export/apps/rDock/src/rDock_2013.1_src/data/scripts/dock_solv.prm

>  <Rbt.Receptor>
prm/pocket_docking_8.prm

>  <SCORE>
-11.1049

>  <SCORE.INTER>
-7.25176

>  <SCORE.INTER.CONST>
1

>  <SCORE.INTER.POLAR>
0

>  <SCORE.INTER.ROT>
3

>  <SCORE.INTER.SOLV>
5.23019

>  <SCORE.INTER.VDW>
-12.1779

>  <SCORE.INTER.norm>
-0.604314

>  <SCORE.INTRA>
-3.85315

>  <SCORE.INTRA.DIHEDRAL>
-4.62427

>  <SCORE.INTRA.DIHEDRAL.0>
5.0186

>  <SCORE.INTRA.POLAR>
0

>  <SCORE.INTRA.POLAR.0>
0

>  <SCORE.INTRA.REPUL>
0

>  <SCORE.INTRA.REPUL.0>
0

>  <SCORE.INTRA.SOLV>
-0.106249

>  <SCORE.INTRA.SOLV.lig_0>
-16.1608

>  <SCORE.INTRA.VDW>
-1.48789

>  <SCORE.INTRA.VDW.0>
1.14169

>  <SCORE.INTRA.norm>
-0.321095

>  <SCORE.RESTR>
0

>  <SCORE.RESTR.CAVITY>
0

>  <SCORE.RESTR.norm>
0

>  <SCORE.SYSTEM>
0

>  <SCORE.SYSTEM.CONST>
0

>  <SCORE.SYSTEM.DIHEDRAL>
0

>  <SCORE.SYSTEM.SOLV>
0

>  <SCORE.SYSTEM.norm>
0

>  <SCORE.heavy>
12

>  <SCORE.norm>
-0.925409

>  <RMSD>
3.251

$$$$
ligand
 OpenBabel11021811493D
libRbt.so/2013.1/901 2013/11/27
 12 12  0  0  0  0  0  0  0  0999 V2000
   31.1108  -23.3671    3.7009 N   0  0  0  0  0  0  0  0  0  0  0  0
   32.7703  -22.6879    8.0010 O   0  0  0  0  0  0  0  0  0  0  0  0
   31.1955  -24.8330    3.4891 C   0  0  0  0  0  0  0  0  0  0  0  0
   32.4490  -20.7449    6.6999 O   0  0  0  0  0  0  0  0  0  0  0  0
   29.7948  -25.3570    3.1895 C   0  0  0  0  0  0  0  0  0  0  0  0
   30.6082  -22.3560    6.9249 O   0  0  0  0  0  0  0  0  0  0  0  0
   29.3148  -24.7816    1.9295 N   0  0  0  0  0  0  0  0  0  0  0  0
   30.3384  -23.8591    1.4322 C   0  0  0  0  0  0  0  0  0  0  0  0
   30.5085  -22.7800    2.4879 C   0  0  0  0  0  0  0  0  0  0  0  0
   32.4134  -22.6743    4.0538 C   0  0  0  0  0  0  0  0  0  0  0  0
   32.9677  -22.9219    5.4812 C   0  0  0  0  0  0  0  0  0  0  0  0
   32.2116  -22.1621    6.7905 S   0  0  0  0  0  0  0  0  0  0  0  0
  1  3  1  0  0  0  0
  1  9  1  0  0  0  0
  1 10  1  0  0  0  0
  2 12  1  0  0  0  0
  3  5  1  0  0  0  0
  4 12  2  0  0  0  0
  5  7  1  0  0  0  0
  6 12  2  0  0  0  0
  7  8  1  0  0  0  0
  8  9  1  0  0  0  0
 10 11  1  0  0  0  0
 11 12  1  0  0  0  0
M  END
>  <CHROM.1>
-72.51102975,-74.16265548,171.82563079,31.41156148,-23.07245344,4.81177073
-2.31708554,0.97565051,1.76753322

>  <Name>
ligand

>  <RI>
0

>  <Rbt.Current_Directory>
/home/itssahil/PROJECTS/Mol_Feturizer/New_Systems/rnas/4E8N

>  <Rbt.Executable>
rbdock ($Id: //depot/dev/client3/rdock/2013.1/src/exe/rbdock.cxx#4 $)

>  <Rbt.Library>
libRbt.so (2013.1, Build901 2013/11/27)

>  <Rbt.Parameter_File>
/export/apps/rDock/src/rDock_2013.1_src/data/scripts/dock_solv.prm

>  <Rbt.Receptor>
prm/pocket_docking_6.prm

>  <SCORE>
-3.43672

>  <SCORE.INTER>
0.339408

>  <SCORE.INTER.CONST>
1

>  <SCORE.INTER.POLAR>
0

>  <SCORE.INTER.ROT>
3

>  <SCORE.INTER.SOLV>
4.94181

>  <SCORE.INTER.VDW>
-7.021

>  <SCORE.INTER.norm>
0.028284

>  <SCORE.INTRA>
-3.77613

>  <SCORE.INTRA.DIHEDRAL>
-3.83289

>  <SCORE.INTRA.DIHEDRAL.0>
5.0186

>  <SCORE.INTRA.POLAR>
0

>  <SCORE.INTRA.POLAR.0>
0

>  <SCORE.INTRA.REPUL>
0

>  <SCORE.INTRA.REPUL.0>
0

>  <SCORE.INTRA.SOLV>
0.519681

>  <SCORE.INTRA.SOLV.lig_0>
-16.1608

>  <SCORE.INTRA.VDW>
-2.11953

>  <SCORE.INTRA.VDW.0>
1.14169

>  <SCORE.INTRA.norm>
-0.314677

>  <SCORE.RESTR>
0

>  <SCORE.RESTR.CAVITY>
0

>  <SCORE.RESTR.norm>
0

>  <SCORE.SYSTEM>
0

>  <SCORE.SYSTEM.CONST>
0

>  <SCORE.SYSTEM.DIHEDRAL>
0

>  <SCORE.SYSTEM.SOLV>
0

>  <SCORE.SYSTEM.norm>
0

>  <SCORE.heavy>
12

>  <SCORE.norm>
-0.286394

>  <RMSD>
3.260

$$$$
ligand
 OpenBabel11021811493D
libRbt.so/2013.1/901 2013/11/27
 12 12  0  0  0  0  0  0  0  0999 V2000
   30.7509  -23.6806    3.9861 N   0  0  0  0  0  0  0  0  0  0  0  0
   32.3990  -21.0312    7.6143 O   0  0  0  0  0  0  0  0  0  0  0  0
   30.0664  -22.8852    2.9374 C   0  0  0  0  0  0  0  0  0  0  0  0
   32.1377  -23.3524    7.9539 O   0  0  0  0  0  0  0  0  0  0  0  0
   30.7528  -23.1576    1.6030 C   0  0  0  0  0  0  0  0  0  0  0  0
   33.5073  -22.5617    6.0741 O   0  0  0  0  0  0  0  0  0  0  0  0
   30.5755  -24.5665    1.2387 N   0  0  0  0  0  0  0  0  0  0  0  0
   29.8432  -25.2272    2.3219 C   0  0  0  0  0  0  0  0  0  0  0  0
   30.6954  -25.0965    3.5727 C   0  0  0  0  0  0  0  0  0  0  0  0
   30.2256  -23.5031    5.3981 C   0  0  0  0  0  0  0  0  0  0  0  0
   30.7036  -22.2418    6.1640 C   0  0  0  0  0  0  0  0  0  0  0  0
   32.1871  -22.2968    6.9759 S   0  0  0  0  0  0  0  0  0  0  0  0
  1  3  1  0  0  0  0
  1  9  1  0  0  0  0
  1 10  1  0  0  0  0
  2 12  1  0  0  0  0
  3  5  1  0  0  0  0
  4 12  2  0  0  0  0
  5  7  1  0  0  0  0
  6 12  2  0  0  0  0
  7  8  1  0  0  0  0
  8  9  1  0  0  0  0
 10 11  1  0  0  0  0
 11 12  1  0  0  0  0
M  END
>  <CHROM.1>
-79.99082412,-84.42780326,-179.29396323,31.29777492,-23.17543437,4.95049566
2.38960676,-1.08685855,-1.20234023

>  <Name>
ligand

>  <RI>
0

>  <Rbt.Current_Directory>
/home/itssahil/PROJECTS/Mol_Feturizer/New_Systems/rnas/4E8N

>  <Rbt.Executable>
rbdock ($Id: //depot/dev/client3/rdock/2013.1/src/exe/rbdock.cxx#4 $)

>  <Rbt.Library>
libRbt.so (2013.1, Build901 2013/11/27)

>  <Rbt.Parameter_File>
/export/apps/rDock/src/rDock_2013.1_src/data/scripts/dock_solv.prm

>  <Rbt.Receptor>
prm/pocket_docking_4.prm

>  <SCORE>
-11.2721

>  <SCORE.INTER>
-8.23636

>  <SCORE.INTER.CONST>
1

>  <SCORE.INTER.POLAR>
0

>  <SCORE.INTER.ROT>
3

>  <SCORE.INTER.SOLV>
8.70197

>  <SCORE.INTER.VDW>
-13.9916

>  <SCORE.INTER.norm>
-0.686363

>  <SCORE.INTRA>
-3.03577

>  <SCORE.INTRA.DIHEDRAL>
-2.36957

>  <SCORE.INTRA.DIHEDRAL.0>
5.0186

>  <SCORE.INTRA.POLAR>
0

>  <SCORE.INTRA.POLAR.0>
0

>  <SCORE.INTRA.REPUL>
0

>  <SCORE.INTRA.REPUL.0>
0

>  <SCORE.INTRA.SOLV>
0.388282

>  <SCORE.INTRA.SOLV.lig_0>
-16.1608

>  <SCORE.INTRA.VDW>
-2.04513

>  <SCORE.INTRA.VDW.0>
1.14169

>  <SCORE.INTRA.norm>
-0.252981

>  <SCORE.RESTR>
0

>  <SCORE.RESTR.CAVITY>
0

>  <SCORE.RESTR.norm>
0

>  <SCORE.SYSTEM>
0

>  <SCORE.SYSTEM.CONST>
0

>  <SCORE.SYSTEM.DIHEDRAL>
0

>  <SCORE.SYSTEM.SOLV>
0

>  <SCORE.SYSTEM.norm>
0

>  <SCORE.heavy>
12

>  <SCORE.norm>
-0.939344

>  <RMSD>
3.268

$$$$
ligand
 OpenBabel11021811493D
libRbt.so/2013.1/901 2013/11/27
 12 12  0  0  0  0  0  0  0  0999 V2000
   31.0205  -23.8416    4.1495 N   0  0  0  0  0  0  0  0  0  0  0  0
   32.3571  -21.1819    7.8022 O   0  0  0  0  0  0  0  0  0  0  0  0
   30.8621  -23.0151    2.9278 C   0  0  0  0  0  0  0  0  0  0  0  0
   31.9337  -23.4962    7.9941 O   0  0  0  0  0  0  0  0  0  0  0  0
   31.7995  -23.5589    1.8547 C   0  0  0  0  0  0  0  0  0  0  0  0
   33.4914  -22.7005    6.2692 O   0  0  0  0  0  0  0  0  0  0  0  0
   31.3929  -24.9199    1.4919 N   0  0  0  0  0  0  0  0  0  0  0  0
   30.2554  -25.2944    2.3358 C   0  0  0  0  0  0  0  0  0  0  0  0
   30.7390  -25.2414    3.7749 C   0  0  0  0  0  0  0  0  0  0  0  0
   30.1889  -23.4187    5.3456 C   0  0  0  0  0  0  0  0  0  0  0  0
   30.7130  -22.2098    6.1640 C   0  0  0  0  0  0  0  0  0  0  0  0
   32.1222  -22.3983    7.0817 S   0  0  0  0  0  0  0  0  0  0  0  0
  1  3  1  0  0  0  0
  1  9  1  0  0  0  0
  1 10  1  0  0  0  0
  2 12  1  0  0  0  0
  3  5  1  0  0  0  0
  4 12  2  0  0  0  0
  5  7  1  0  0  0  0
  6 12  2  0  0  0  0
  7  8  1  0  0  0  0
  8  9  1  0  0  0  0
 10 11  1  0  0  0  0
 11 12  1  0  0  0  0
M  END
>  <CHROM.1>
-78.62193087,-69.43945051,-176.62879945,31.51007512,-23.31165929,5.06330312
1.86810516,-0.72365198,-1.78993283

>  <Name>
ligand

>  <RI>
0

>  <Rbt.Current_Directory>
/home/itssahil/PROJECTS/Mol_Feturizer/New_Systems/rnas/4E8N

>  <Rbt.Executable>
rbdock ($Id: //depot/dev/client3/rdock/2013.1/src/exe/rbdock.cxx#4 $)

>  <Rbt.Library>
libRbt.so (2013.1, Build901 2013/11/27)

>  <Rbt.Parameter_File>
/export/apps/rDock/src/rDock_2013.1_src/data/scripts/dock_solv.prm

>  <Rbt.Receptor>
prm/pocket_docking_5.prm

>  <SCORE>
-11.2543

>  <SCORE.INTER>
-7.33112

>  <SCORE.INTER.CONST>
1

>  <SCORE.INTER.POLAR>
0

>  <SCORE.INTER.ROT>
3

>  <SCORE.INTER.SOLV>
7.71432

>  <SCORE.INTER.VDW>
-13.0589

>  <SCORE.INTER.norm>
-0.610927

>  <SCORE.INTRA>
-3.92322

>  <SCORE.INTRA.DIHEDRAL>
-4.05117

>  <SCORE.INTRA.DIHEDRAL.0>
5.0186

>  <SCORE.INTRA.POLAR>
0

>  <SCORE.INTRA.POLAR.0>
0

>  <SCORE.INTRA.REPUL>
0

>  <SCORE.INTRA.REPUL.0>
0

>  <SCORE.INTRA.SOLV>
0.575872

>  <SCORE.INTRA.SOLV.lig_0>
-16.1608

>  <SCORE.INTRA.VDW>
-2.18557

>  <SCORE.INTRA.VDW.0>
1.14169

>  <SCORE.INTRA.norm>
-0.326935

>  <SCORE.RESTR>
0

>  <SCORE.RESTR.CAVITY>
0

>  <SCORE.RESTR.norm>
0

>  <SCORE.SYSTEM>
0

>  <SCORE.SYSTEM.CONST>
0

>  <SCORE.SYSTEM.DIHEDRAL>
0

>  <SCORE.SYSTEM.SOLV>
0

>  <SCORE.SYSTEM.norm>
0

>  <SCORE.heavy>
12

>  <SCORE.norm>
-0.937862

>  <RMSD>
3.279

$$$$
ligand
 OpenBabel11021811493D
libRbt.so/2013.1/901 2013/11/27
 12 12  0  0  0  0  0  0  0  0999 V2000
   30.5080  -23.6013    3.5337 N   0  0  0  0  0  0  0  0  0  0  0  0
   30.7453  -21.3185    8.1402 O   0  0  0  0  0  0  0  0  0  0  0  0
   29.6329  -24.7741    3.7777 C   0  0  0  0  0  0  0  0  0  0  0  0
   32.1861  -23.1635    7.8369 O   0  0  0  0  0  0  0  0  0  0  0  0
   28.7996  -25.0210    2.5243 C   0  0  0  0  0  0  0  0  0  0  0  0
   32.8230  -20.9789    6.9112 O   0  0  0  0  0  0  0  0  0  0  0  0
   29.6824  -25.3849    1.4120 N   0  0  0  0  0  0  0  0  0  0  0  0
   31.0653  -25.3276    1.8920 C   0  0  0  0  0  0  0  0  0  0  0  0
   31.3181  -23.8968    2.3356 C   0  0  0  0  0  0  0  0  0  0  0  0
   31.3863  -23.1792    4.6962 C   0  0  0  0  0  0  0  0  0  0  0  0
   30.6734  -22.5020    5.8958 C   0  0  0  0  0  0  0  0  0  0  0  0
   31.6036  -22.0014    7.2177 S   0  0  0  0  0  0  0  0  0  0  0  0
  1  3  1  0  0  0  0
  1  9  1  0  0  0  0
  1 10  1  0  0  0  0
  2 12  1  0  0  0  0
  3  5  1  0  0  0  0
  4 12  2  0  0  0  0
  5  7  1  0  0  0  0
  6 12  2  0  0  0  0
  7  8  1  0  0  0  0
  8  9  1  0  0  0  0
 10 11  1  0  0  0  0
 11 12  1  0  0  0  0
M  END
>  <CHROM.1>
-72.03195400,-179.64137932,175.56521813,30.97006674,-23.24540807,5.01028566
-1.86083564,0.37398863,1.14551342

>  <Name>
ligand

>  <RI>
0

>  <Rbt.Current_Directory>
/home/itssahil/PROJECTS/Mol_Feturizer/New_Systems/rnas/4E8N

>  <Rbt.Executable>
rbdock ($Id: //depot/dev/client3/rdock/2013.1/src/exe/rbdock.cxx#4 $)

>  <Rbt.Library>
libRbt.so (2013.1, Build901 2013/11/27)

>  <Rbt.Parameter_File>
/export/apps/rDock/src/rDock_2013.1_src/data/scripts/dock_solv.prm

>  <Rbt.Receptor>
prm/pocket_docking_8.prm

>  <SCORE>
-11.7972

>  <SCORE.INTER>
-7.79601

>  <SCORE.INTER.CONST>
1

>  <SCORE.INTER.POLAR>
0

>  <SCORE.INTER.ROT>
3

>  <SCORE.INTER.SOLV>
5.80848

>  <SCORE.INTER.VDW>
-12.7335

>  <SCORE.INTER.norm>
-0.649668

>  <SCORE.INTRA>
-4.00115

>  <SCORE.INTRA.DIHEDRAL>
-4.68643

>  <SCORE.INTRA.DIHEDRAL.0>
5.0186

>  <SCORE.INTRA.POLAR>
0

>  <SCORE.INTRA.POLAR.0>
0

>  <SCORE.INTRA.REPUL>
0

>  <SCORE.INTRA.REPUL.0>
0

>  <SCORE.INTRA.SOLV>
0.0709109

>  <SCORE.INTRA.SOLV.lig_0>
-16.1608

>  <SCORE.INTRA.VDW>
-1.69339

>  <SCORE.INTRA.VDW.0>
1.14169

>  <SCORE.INTRA.norm>
-0.333429

>  <SCORE.RESTR>
0

>  <SCORE.RESTR.CAVITY>
0

>  <SCORE.RESTR.norm>
0

>  <SCORE.SYSTEM>
0

>  <SCORE.SYSTEM.CONST>
0

>  <SCORE.SYSTEM.DIHEDRAL>
0

>  <SCORE.SYSTEM.SOLV>
0

>  <SCORE.SYSTEM.norm>
0

>  <SCORE.heavy>
12

>  <SCORE.norm>
-0.983097

>  <RMSD>
3.285

$$$$
ligand
 OpenBabel11021811493D
libRbt.so/2013.1/901 2013/11/27
 12 12  0  0  0  0  0  0  0  0999 V2000
   30.7410  -23.2909    4.0212 N   0  0  0  0  0  0  0  0  0  0  0  0
   32.5428  -21.1990    7.9078 O   0  0  0  0  0  0  0  0  0  0  0  0
   29.8234  -23.4771    2.8705 C   0  0  0  0  0  0  0  0  0  0  0  0
   31.8378  -23.4516    7.9272 O   0  0  0  0  0  0  0  0  0  0  0  0
   30.6619  -23.7544    1.6271 C   0  0  0  0  0  0  0  0  0  0  0  0
   33.4716  -22.7203    6.2448 O   0  0  0  0  0  0  0  0  0  0  0  0
   31.3826  -25.0201    1.7935 N   0  0  0  0  0  0  0  0  0  0  0  0
   31.0799  -25.5432    3.1280 C   0  0  0  0  0  0  0  0  0  0  0  0
   31.5685  -24.5087    4.1274 C   0  0  0  0  0  0  0  0  0  0  0  0
   30.0804  -22.9624    5.3466 C   0  0  0  0  0  0  0  0  0  0  0  0
   30.7745  -21.8856    6.2211 C   0  0  0  0  0  0  0  0  0  0  0  0
   32.1550  -22.3170    7.0994 S   0  0  0  0  0  0  0  0  0  0  0  0
  1  3  1  0  0  0  0
  1  9  1  0  0  0  0
  1 10  1  0  0  0  0
  2 12  1  0  0  0  0
  3  5  1  0  0  0  0
  4 12  2  0  0  0  0
  5  7  1  0  0  0  0
  6 12  2  0  0  0  0
  7  8  1  0  0  0  0
  8  9  1  0  0  0  0
 10 11  1  0  0  0  0
 11 12  1  0  0  0  0
M  END
>  <CHROM.1>
-138.86219370,-77.30026583,-175.18535933,31.45870545,-23.22034687,5.14704451
1.89129544,0.59947590,-2.18145097

>  <Name>
ligand

>  <RI>
0

>  <Rbt.Current_Directory>
/home/itssahil/PROJECTS/Mol_Feturizer/New_Systems/rnas/4E8N

>  <Rbt.Executable>
rbdock ($Id: //depot/dev/client3/rdock/2013.1/src/exe/rbdock.cxx#4 $)

>  <Rbt.Library>
libRbt.so (2013.1, Build901 2013/11/27)

>  <Rbt.Parameter_File>
/export/apps/rDock/src/rDock_2013.1_src/data/scripts/dock_solv.prm

>  <Rbt.Receptor>
prm/pocket_docking_7.prm

>  <SCORE>
-10.8687

>  <SCORE.INTER>
-7.77031

>  <SCORE.INTER.CONST>
1

>  <SCORE.INTER.POLAR>
0

>  <SCORE.INTER.ROT>
3

>  <SCORE.INTER.SOLV>
7.17717

>  <SCORE.INTER.VDW>
-13.1726

>  <SCORE.INTER.norm>
-0.647526

>  <SCORE.INTRA>
-3.09837

>  <SCORE.INTRA.DIHEDRAL>
-2.11588

>  <SCORE.INTRA.DIHEDRAL.0>
5.0186

>  <SCORE.INTRA.POLAR>
0

>  <SCORE.INTRA.POLAR.0>
0

>  <SCORE.INTRA.REPUL>
0

>  <SCORE.INTRA.REPUL.0>
0

>  <SCORE.INTRA.SOLV>
0.696096

>  <SCORE.INTRA.SOLV.lig_0>
-16.1608

>  <SCORE.INTRA.VDW>
-2.38847

>  <SCORE.INTRA.VDW.0>
1.14169

>  <SCORE.INTRA.norm>
-0.258197

>  <SCORE.RESTR>
0

>  <SCORE.RESTR.CAVITY>
0

>  <SCORE.RESTR.norm>
0

>  <SCORE.SYSTEM>
0

>  <SCORE.SYSTEM.CONST>
0

>  <SCORE.SYSTEM.DIHEDRAL>
0

>  <SCORE.SYSTEM.SOLV>
0

>  <SCORE.SYSTEM.norm>
0

>  <SCORE.heavy>
12

>  <SCORE.norm>
-0.905723

>  <RMSD>
3.290

$$$$
ligand
 OpenBabel11021811493D
libRbt.so/2013.1/901 2013/11/27
 12 12  0  0  0  0  0  0  0  0999 V2000
   30.8320  -23.7294    3.9958 N   0  0  0  0  0  0  0  0  0  0  0  0
   31.9968  -23.4595    7.9730 O   0  0  0  0  0  0  0  0  0  0  0  0
   30.3098  -22.8476    2.9231 C   0  0  0  0  0  0  0  0  0  0  0  0
   33.2070  -22.5476    6.1632 O   0  0  0  0  0  0  0  0  0  0  0  0
   31.0669  -23.1569    1.6358 C   0  0  0  0  0  0  0  0  0  0  0  0
   32.4632  -21.0668    7.9766 O   0  0  0  0  0  0  0  0  0  0  0  0
   30.7829  -24.5331    1.2181 N   0  0  0  0  0  0  0  0  0  0  0  0
   29.9095  -25.1422    2.2242 C   0  0  0  0  0  0  0  0  0  0  0  0
   30.6720  -25.1236    3.5380 C   0  0  0  0  0  0  0  0  0  0  0  0
   30.2196  -23.5322    5.3696 C   0  0  0  0  0  0  0  0  0  0  0  0
   30.6732  -22.2763    6.1588 C   0  0  0  0  0  0  0  0  0  0  0  0
   32.1004  -22.3561    7.0643 S   0  0  0  0  0  0  0  0  0  0  0  0
  1  3  1  0  0  0  0
  1  9  1  0  0  0  0
  1 10  1  0  0  0  0
  2 12  1  0  0  0  0
  3  5  1  0  0  0  0
  4 12  2  0  0  0  0
  5  7  1  0  0  0  0
  6 12  2  0  0  0  0
  7  8  1  0  0  0  0
  8  9  1  0  0  0  0
 10 11  1  0  0  0  0
 11 12  1  0  0  0  0
M  END
>  <CHROM.1>
-75.19951557,-84.33877313,-55.35750948,31.31411119,-23.19477346,4.99284107
2.20879882,-1.05828284,-1.36882664

>  <Name>
ligand

>  <RI>
0

>  <Rbt.Current_Directory>
/home/itssahil/PROJECTS/Mol_Feturizer/New_Systems/rnas/4E8N

>  <Rbt.Executable>
rbdock ($Id: //depot/dev/client3/rdock/2013.1/src/exe/rbdock.cxx#4 $)

>  <Rbt.Library>
libRbt.so (2013.1, Build901 2013/11/27)

>  <Rbt.Parameter_File>
/export/apps/rDock/src/rDock_2013.1_src/data/scripts/dock_solv.prm

>  <Rbt.Receptor>
prm/pocket_docking_4.prm

>  <SCORE>
-12.2395

>  <SCORE.INTER>
-9.07315

>  <SCORE.INTER.CONST>
1

>  <SCORE.INTER.POLAR>
0

>  <SCORE.INTER.ROT>
3

>  <SCORE.INTER.SOLV>
6.96634

>  <SCORE.INTER.VDW>
-13.9709

>  <SCORE.INTER.norm>
-0.756096

>  <SCORE.INTRA>
-3.16631

>  <SCORE.INTRA.DIHEDRAL>
-2.57662

>  <SCORE.INTRA.DIHEDRAL.0>
5.0186

>  <SCORE.INTRA.POLAR>
0

>  <SCORE.INTRA.POLAR.0>
0

>  <SCORE.INTRA.REPUL>
0

>  <SCORE.INTRA.REPUL.0>
0

>  <SCORE.INTRA.SOLV>
0.265545

>  <SCORE.INTRA.SOLV.lig_0>
-16.1608

>  <SCORE.INTRA.VDW>
-2.01077

>  <SCORE.INTRA.VDW.0>
1.14169

>  <SCORE.INTRA.norm>
-0.263859

>  <SCORE.RESTR>
0

>  <SCORE.RESTR.CAVITY>
0

>  <SCORE.RESTR.norm>
0

>  <SCORE.SYSTEM>
0

>  <SCORE.SYSTEM.CONST>
0

>  <SCORE.SYSTEM.DIHEDRAL>
0

>  <SCORE.SYSTEM.SOLV>
0

>  <SCORE.SYSTEM.norm>
0

>  <SCORE.heavy>
12

>  <SCORE.norm>
-1.01995

>  <RMSD>
3.305

$$$$
ligand
 OpenBabel11021811493D
libRbt.so/2013.1/901 2013/11/27
 12 12  0  0  0  0  0  0  0  0999 V2000
   30.8150  -23.7172    4.0072 N   0  0  0  0  0  0  0  0  0  0  0  0
   31.9910  -23.4619    7.9768 O   0  0  0  0  0  0  0  0  0  0  0  0
   30.2513  -22.8747    2.9240 C   0  0  0  0  0  0  0  0  0  0  0  0
   33.2145  -22.5363    6.1829 O   0  0  0  0  0  0  0  0  0  0  0  0
   31.0017  -23.1858    1.6332 C   0  0  0  0  0  0  0  0  0  0  0  0
   32.4652  -21.0709    8.0066 O   0  0  0  0  0  0  0  0  0  0  0  0
   30.7571  -24.5787    1.2469 N   0  0  0  0  0  0  0  0  0  0  0  0
   29.9165  -25.1947    2.2765 C   0  0  0  0  0  0  0  0  0  0  0  0
   30.6944  -25.1249    3.5795 C   0  0  0  0  0  0  0  0  0  0  0  0
   30.2139  -23.5117    5.3847 C   0  0  0  0  0  0  0  0  0  0  0  0
   30.6817  -22.2566    6.1668 C   0  0  0  0  0  0  0  0  0  0  0  0
   32.1034  -22.3500    7.0796 S   0  0  0  0  0  0  0  0  0  0  0  0
  1  3  1  0  0  0  0
  1  9  1  0  0  0  0
  1 10  1  0  0  0  0
  2 12  1  0  0  0  0
  3  5  1  0  0  0  0
  4 12  2  0  0  0  0
  5  7  1  0  0  0  0
  6 12  2  0  0  0  0
  7  8  1  0  0  0  0
  8  9  1  0  0  0  0
 10 11  1  0  0  0  0
 11 12  1  0  0  0  0
M  END
>  <CHROM.1>
-77.66551903,-85.17596633,-54.18802694,31.30514362,-23.20088686,5.01116306
2.25960556,-1.08632870,-1.31853632

>  <Name>
ligand

>  <RI>
0

>  <Rbt.Current_Directory>
/home/itssahil/PROJECTS/Mol_Feturizer/New_Systems/rnas/4E8N

>  <Rbt.Executable>
rbdock ($Id: //depot/dev/client3/rdock/2013.1/src/exe/rbdock.cxx#4 $)

>  <Rbt.Library>
libRbt.so (2013.1, Build901 2013/11/27)

>  <Rbt.Parameter_File>
/export/apps/rDock/src/rDock_2013.1_src/data/scripts/dock_solv.prm

>  <Rbt.Receptor>
prm/pocket_docking_5.prm

>  <SCORE>
-12.2869

>  <SCORE.INTER>
-9.23418

>  <SCORE.INTER.CONST>
1

>  <SCORE.INTER.POLAR>
0

>  <SCORE.INTER.ROT>
3

>  <SCORE.INTER.SOLV>
6.95462

>  <SCORE.INTER.VDW>
-14.0743

>  <SCORE.INTER.norm>
-0.769515

>  <SCORE.INTRA>
-3.05271

>  <SCORE.INTRA.DIHEDRAL>
-2.30471

>  <SCORE.INTRA.DIHEDRAL.0>
5.0186

>  <SCORE.INTRA.POLAR>
0

>  <SCORE.INTRA.POLAR.0>
0

>  <SCORE.INTRA.REPUL>
0

>  <SCORE.INTRA.REPUL.0>
0

>  <SCORE.INTRA.SOLV>
0.250572

>  <SCORE.INTRA.SOLV.lig_0>
-16.1608

>  <SCORE.INTRA.VDW>
-2.02564

>  <SCORE.INTRA.VDW.0>
1.14169

>  <SCORE.INTRA.norm>
-0.254393

>  <SCORE.RESTR>
0

>  <SCORE.RESTR.CAVITY>
0

>  <SCORE.RESTR.norm>
0

>  <SCORE.SYSTEM>
0

>  <SCORE.SYSTEM.CONST>
0

>  <SCORE.SYSTEM.DIHEDRAL>
0

>  <SCORE.SYSTEM.SOLV>
0

>  <SCORE.SYSTEM.norm>
0

>  <SCORE.heavy>
12

>  <SCORE.norm>
-1.02391

>  <RMSD>
3.308

$$$$
ligand
 OpenBabel11021811493D
libRbt.so/2013.1/901 2013/11/27
 12 12  0  0  0  0  0  0  0  0999 V2000
   30.8082  -23.6887    3.9855 N   0  0  0  0  0  0  0  0  0  0  0  0
   32.0282  -23.4549    7.9684 O   0  0  0  0  0  0  0  0  0  0  0  0
   30.1958  -22.8547    2.9223 C   0  0  0  0  0  0  0  0  0  0  0  0
   33.2486  -22.5410    6.1665 O   0  0  0  0  0  0  0  0  0  0  0  0
   30.9159  -23.1446    1.6095 C   0  0  0  0  0  0  0  0  0  0  0  0
   32.5151  -21.0664    7.9891 O   0  0  0  0  0  0  0  0  0  0  0  0
   30.6908  -24.5411    1.2244 N   0  0  0  0  0  0  0  0  0  0  0  0
   29.8933  -25.1791    2.2746 C   0  0  0  0  0  0  0  0  0  0  0  0
   30.7062  -25.0971    3.5554 C   0  0  0  0  0  0  0  0  0  0  0  0
   30.2421  -23.5014    5.3803 C   0  0  0  0  0  0  0  0  0  0  0  0
   30.7173  -22.2479    6.1607 C   0  0  0  0  0  0  0  0  0  0  0  0
   32.1425  -22.3462    7.0675 S   0  0  0  0  0  0  0  0  0  0  0  0
  1  3  1  0  0  0  0
  1  9  1  0  0  0  0
  1 10  1  0  0  0  0
  2 12  1  0  0  0  0
  3  5  1  0  0  0  0
  4 12  2  0  0  0  0
  5  7  1  0  0  0  0
  6 12  2  0  0  0  0
  7  8  1  0  0  0  0
  8  9  1  0  0  0  0
 10 11  1  0  0  0  0
 11 12  1  0  0  0  0
M  END
>  <CHROM.1>
-78.35923404,-86.77432193,-54.39653731,31.30992934,-23.18584920,4.99787698
2.33714059,-1.10708086,-1.23195644

>  <Name>
ligand

>  <RI>
0

>  <Rbt.Current_Directory>
/home/itssahil/PROJECTS/Mol_Feturizer/New_Systems/rnas/4E8N

>  <Rbt.Executable>
rbdock ($Id: //depot/dev/client3/rdock/2013.1/src/exe/rbdock.cxx#4 $)

>  <Rbt.Library>
libRbt.so (2013.1, Build901 2013/11/27)

>  <Rbt.Parameter_File>
/export/apps/rDock/src/rDock_2013.1_src/data/scripts/dock_solv.prm

>  <Rbt.Receptor>
prm/pocket_docking_6.prm

>  <SCORE>
-12.268

>  <SCORE.INTER>
-9.3591

>  <SCORE.INTER.CONST>
1

>  <SCORE.INTER.POLAR>
0

>  <SCORE.INTER.ROT>
3

>  <SCORE.INTER.SOLV>
7.0554

>  <SCORE.INTER.VDW>
-14.1912

>  <SCORE.INTER.norm>
-0.779925

>  <SCORE.INTRA>
-2.90887

>  <SCORE.INTRA.DIHEDRAL>
-2.04795

>  <SCORE.INTRA.DIHEDRAL.0>
5.0186

>  <SCORE.INTRA.POLAR>
0

>  <SCORE.INTRA.POLAR.0>
0

>  <SCORE.INTRA.REPUL>
0

>  <SCORE.INTRA.REPUL.0>
0

>  <SCORE.INTRA.SOLV>
0.235724

>  <SCORE.INTRA.SOLV.lig_0>
-16.1608

>  <SCORE.INTRA.VDW>
-2.00276

>  <SCORE.INTRA.VDW.0>
1.14169

>  <SCORE.INTRA.norm>
-0.242406

>  <SCORE.RESTR>
0

>  <SCORE.RESTR.CAVITY>
0

>  <SCORE.RESTR.norm>
0

>  <SCORE.SYSTEM>
0

>  <SCORE.SYSTEM.CONST>
0

>  <SCORE.SYSTEM.DIHEDRAL>
0

>  <SCORE.SYSTEM.SOLV>
0

>  <SCORE.SYSTEM.norm>
0

>  <SCORE.heavy>
12

>  <SCORE.norm>
-1.02233

>  <RMSD>
3.315

$$$$
ligand
 OpenBabel11021811493D
libRbt.so/2013.1/901 2013/11/27
 12 12  0  0  0  0  0  0  0  0999 V2000
   30.2021  -24.3911    3.7789 N   0  0  0  0  0  0  0  0  0  0  0  0
   30.5566  -21.1902    7.7942 O   0  0  0  0  0  0  0  0  0  0  0  0
   30.7410  -25.5556    3.0343 C   0  0  0  0  0  0  0  0  0  0  0  0
   31.7556  -23.2186    7.9344 O   0  0  0  0  0  0  0  0  0  0  0  0
   29.7613  -25.9086    1.9199 C   0  0  0  0  0  0  0  0  0  0  0  0
   32.7219  -21.3379    6.6839 O   0  0  0  0  0  0  0  0  0  0  0  0
   29.6872  -24.8008    0.9627 N   0  0  0  0  0  0  0  0  0  0  0  0
   30.5463  -23.7196    1.4516 C   0  0  0  0  0  0  0  0  0  0  0  0
   29.9986  -23.3005    2.8053 C   0  0  0  0  0  0  0  0  0  0  0  0
   31.0304  -23.9213    4.9597 C   0  0  0  0  0  0  0  0  0  0  0  0
   30.4459  -22.7546    5.7983 C   0  0  0  0  0  0  0  0  0  0  0  0
   31.3641  -22.1312    7.0756 S   0  0  0  0  0  0  0  0  0  0  0  0
  1  3  1  0  0  0  0
  1  9  1  0  0  0  0
  1 10  1  0  0  0  0
  2 12  1  0  0  0  0
  3  5  1  0  0  0  0
  4 12  2  0  0  0  0
  5  7  1  0  0  0  0
  6 12  2  0  0  0  0
  7  8  1  0  0  0  0
  8  9  1  0  0  0  0
 10 11  1  0  0  0  0
 11 12  1  0  0  0  0
M  END
>  <CHROM.1>
-176.76762041,-176.67122911,-172.92331392,30.82256889,-23.33937797,4.84803615
-2.99197701,-1.34117181,-0.33210499

>  <Name>
ligand

>  <RI>
0

>  <Rbt.Current_Directory>
/home/itssahil/PROJECTS/Mol_Feturizer/New_Systems/rnas/4E8N

>  <Rbt.Executable>
rbdock ($Id: //depot/dev/client3/rdock/2013.1/src/exe/rbdock.cxx#4 $)

>  <Rbt.Library>
libRbt.so (2013.1, Build901 2013/11/27)

>  <Rbt.Parameter_File>
/export/apps/rDock/src/rDock_2013.1_src/data/scripts/dock_solv.prm

>  <Rbt.Receptor>
prm/pocket_docking_5.prm

>  <SCORE>
-11.1351

>  <SCORE.INTER>
-7.54962

>  <SCORE.INTER.CONST>
1

>  <SCORE.INTER.POLAR>
0

>  <SCORE.INTER.ROT>
3

>  <SCORE.INTER.SOLV>
7.83494

>  <SCORE.INTER.VDW>
-13.2447

>  <SCORE.INTER.norm>
-0.629135

>  <SCORE.INTRA>
-3.58547

>  <SCORE.INTRA.DIHEDRAL>
-4.8368

>  <SCORE.INTRA.DIHEDRAL.0>
5.0186

>  <SCORE.INTRA.POLAR>
0

>  <SCORE.INTRA.POLAR.0>
0

>  <SCORE.INTRA.REPUL>
0

>  <SCORE.INTRA.REPUL.0>
0

>  <SCORE.INTRA.SOLV>
0.0765798

>  <SCORE.INTRA.SOLV.lig_0>
-16.1608

>  <SCORE.INTRA.VDW>
-1.20536

>  <SCORE.INTRA.VDW.0>
1.14169

>  <SCORE.INTRA.norm>
-0.29879

>  <SCORE.RESTR>
0

>  <SCORE.RESTR.CAVITY>
0

>  <SCORE.RESTR.norm>
0

>  <SCORE.SYSTEM>
0

>  <SCORE.SYSTEM.CONST>
0

>  <SCORE.SYSTEM.DIHEDRAL>
0

>  <SCORE.SYSTEM.SOLV>
0

>  <SCORE.SYSTEM.norm>
0

>  <SCORE.heavy>
12

>  <SCORE.norm>
-0.927925

>  <RMSD>
3.330

$$$$
ligand
 OpenBabel11021811493D
libRbt.so/2013.1/901 2013/11/27
 12 12  0  0  0  0  0  0  0  0999 V2000
   29.9464  -23.8474    3.8049 N   0  0  0  0  0  0  0  0  0  0  0  0
   31.7299  -23.4627    8.0208 O   0  0  0  0  0  0  0  0  0  0  0  0
   29.6695  -25.1731    3.1993 C   0  0  0  0  0  0  0  0  0  0  0  0
   33.0805  -22.2065    6.5479 O   0  0  0  0  0  0  0  0  0  0  0  0
   29.0340  -24.9528    1.8304 C   0  0  0  0  0  0  0  0  0  0  0  0
   31.6170  -21.0301    8.1318 O   0  0  0  0  0  0  0  0  0  0  0  0
   29.9930  -24.2836    0.9463 N   0  0  0  0  0  0  0  0  0  0  0  0
   31.2097  -24.0143    1.7164 C   0  0  0  0  0  0  0  0  0  0  0  0
   30.8106  -23.1051    2.8662 C   0  0  0  0  0  0  0  0  0  0  0  0
   30.5465  -23.8699    5.1980 C   0  0  0  0  0  0  0  0  0  0  0  0
   30.6239  -22.5118    5.9433 C   0  0  0  0  0  0  0  0  0  0  0  0
   31.7825  -22.3172    7.1611 S   0  0  0  0  0  0  0  0  0  0  0  0
  1  3  1  0  0  0  0
  1  9  1  0  0  0  0
  1 10  1  0  0  0  0
  2 12  1  0  0  0  0
  3  5  1  0  0  0  0
  4 12  2  0  0  0  0
  5  7  1  0  0  0  0
  6 12  2  0  0  0  0
  7  8  1  0  0  0  0
  8  9  1  0  0  0  0
 10 11  1  0  0  0  0
 11 12  1  0  0  0  0
M  END
>  <CHROM.1>
-170.08027048,-155.73217075,-47.28337673,30.96603592,-23.26048878,4.94419607
2.00455930,-0.74943271,-1.65220763

>  <Name>
ligand

>  <RI>
0

>  <Rbt.Current_Directory>
/home/itssahil/PROJECTS/Mol_Feturizer/New_Systems/rnas/4E8N

>  <Rbt.Executable>
rbdock ($Id: //depot/dev/client3/rdock/2013.1/src/exe/rbdock.cxx#4 $)

>  <Rbt.Library>
libRbt.so (2013.1, Build901 2013/11/27)

>  <Rbt.Parameter_File>
/export/apps/rDock/src/rDock_2013.1_src/data/scripts/dock_solv.prm

>  <Rbt.Receptor>
prm/pocket_docking_4.prm

>  <SCORE>
-10.8993

>  <SCORE.INTER>
-8.14915

>  <SCORE.INTER.CONST>
1

>  <SCORE.INTER.POLAR>
0

>  <SCORE.INTER.ROT>
3

>  <SCORE.INTER.SOLV>
7.64332

>  <SCORE.INTER.VDW>
-13.5805

>  <SCORE.INTER.norm>
-0.679095

>  <SCORE.INTRA>
-2.75014

>  <SCORE.INTRA.DIHEDRAL>
-2.55521

>  <SCORE.INTRA.DIHEDRAL.0>
5.0186

>  <SCORE.INTRA.POLAR>
0

>  <SCORE.INTRA.POLAR.0>
0

>  <SCORE.INTRA.REPUL>
0

>  <SCORE.INTRA.REPUL.0>
0

>  <SCORE.INTRA.SOLV>
-0.0976887

>  <SCORE.INTRA.SOLV.lig_0>
-16.1608

>  <SCORE.INTRA.VDW>
-1.42369

>  <SCORE.INTRA.VDW.0>
1.14169

>  <SCORE.INTRA.norm>
-0.229179

>  <SCORE.RESTR>
0

>  <SCORE.RESTR.CAVITY>
0

>  <SCORE.RESTR.norm>
0

>  <SCORE.SYSTEM>
0

>  <SCORE.SYSTEM.CONST>
0

>  <SCORE.SYSTEM.DIHEDRAL>
0

>  <SCORE.SYSTEM.SOLV>
0

>  <SCORE.SYSTEM.norm>
0

>  <SCORE.heavy>
12

>  <SCORE.norm>
-0.908274

>  <RMSD>
3.345

$$$$
ligand
 OpenBabel11021811493D
libRbt.so/2013.1/901 2013/11/27
 12 12  0  0  0  0  0  0  0  0999 V2000
   30.2674  -23.5382    3.4278 N   0  0  0  0  0  0  0  0  0  0  0  0
   31.7684  -23.3834    7.8381 O   0  0  0  0  0  0  0  0  0  0  0  0
   29.5332  -24.8190    3.5744 C   0  0  0  0  0  0  0  0  0  0  0  0
   32.6205  -21.4767    6.7380 O   0  0  0  0  0  0  0  0  0  0  0  0
   28.6506  -25.0104    2.3454 C   0  0  0  0  0  0  0  0  0  0  0  0
   30.7527  -21.2186    8.3126 O   0  0  0  0  0  0  0  0  0  0  0  0
   29.4927  -25.1477    1.1532 N   0  0  0  0  0  0  0  0  0  0  0  0
   30.8906  -24.9960    1.5644 C   0  0  0  0  0  0  0  0  0  0  0  0
   31.0249  -23.6060    2.1626 C   0  0  0  0  0  0  0  0  0  0  0  0
   31.1711  -23.1584    4.5855 C   0  0  0  0  0  0  0  0  0  0  0  0
   30.4850  -22.5242    5.8236 C   0  0  0  0  0  0  0  0  0  0  0  0
   31.4302  -22.1569    7.1782 S   0  0  0  0  0  0  0  0  0  0  0  0
  1  3  1  0  0  0  0
  1  9  1  0  0  0  0
  1 10  1  0  0  0  0
  2 12  1  0  0  0  0
  3  5  1  0  0  0  0
  4 12  2  0  0  0  0
  5  7  1  0  0  0  0
  6 12  2  0  0  0  0
  7  8  1  0  0  0  0
  8  9  1  0  0  0  0
 10 11  1  0  0  0  0
 11 12  1  0  0  0  0
M  END
>  <CHROM.1>
-79.98769414,176.75137636,-73.38998105,30.77707589,-23.25808013,4.89940797
-1.86678959,0.48488555,1.24835213

>  <Name>
ligand

>  <RI>
0

>  <Rbt.Current_Directory>
/home/itssahil/PROJECTS/Mol_Feturizer/New_Systems/rnas/4E8N

>  <Rbt.Executable>
rbdock ($Id: //depot/dev/client3/rdock/2013.1/src/exe/rbdock.cxx#4 $)

>  <Rbt.Library>
libRbt.so (2013.1, Build901 2013/11/27)

>  <Rbt.Parameter_File>
/export/apps/rDock/src/rDock_2013.1_src/data/scripts/dock_solv.prm

>  <Rbt.Receptor>
prm/pocket_docking_7.prm

>  <SCORE>
-12.4767

>  <SCORE.INTER>
-8.7803

>  <SCORE.INTER.CONST>
1

>  <SCORE.INTER.POLAR>
0

>  <SCORE.INTER.ROT>
3

>  <SCORE.INTER.SOLV>
6.0751

>  <SCORE.INTER.VDW>
-13.4786

>  <SCORE.INTER.norm>
-0.731692

>  <SCORE.INTRA>
-3.69636

>  <SCORE.INTRA.DIHEDRAL>
-3.88928

>  <SCORE.INTRA.DIHEDRAL.0>
5.0186

>  <SCORE.INTRA.POLAR>
0

>  <SCORE.INTRA.POLAR.0>
0

>  <SCORE.INTRA.REPUL>
0

>  <SCORE.INTRA.REPUL.0>
0

>  <SCORE.INTRA.SOLV>
-0.0841718

>  <SCORE.INTRA.SOLV.lig_0>
-16.1608

>  <SCORE.INTRA.VDW>
-1.70963

>  <SCORE.INTRA.VDW.0>
1.14169

>  <SCORE.INTRA.norm>
-0.30803

>  <SCORE.RESTR>
0

>  <SCORE.RESTR.CAVITY>
0

>  <SCORE.RESTR.norm>
0

>  <SCORE.SYSTEM>
0

>  <SCORE.SYSTEM.CONST>
0

>  <SCORE.SYSTEM.DIHEDRAL>
0

>  <SCORE.SYSTEM.SOLV>
0

>  <SCORE.SYSTEM.norm>
0

>  <SCORE.heavy>
12

>  <SCORE.norm>
-1.03972

>  <RMSD>
3.345

$$$$
ligand
 OpenBabel11021811493D
libRbt.so/2013.1/901 2013/11/27
 12 12  0  0  0  0  0  0  0  0999 V2000
   30.5059  -23.6618    3.4939 N   0  0  0  0  0  0  0  0  0  0  0  0
   30.7304  -21.3371    8.0796 O   0  0  0  0  0  0  0  0  0  0  0  0
   29.5684  -24.7901    3.7152 C   0  0  0  0  0  0  0  0  0  0  0  0
   32.0743  -23.2637    7.8478 O   0  0  0  0  0  0  0  0  0  0  0  0
   28.7605  -25.0010    2.4388 C   0  0  0  0  0  0  0  0  0  0  0  0
   32.8592  -21.1335    6.9094 O   0  0  0  0  0  0  0  0  0  0  0  0
   29.6563  -25.4110    1.3533 N   0  0  0  0  0  0  0  0  0  0  0  0
   31.0260  -25.4188    1.8729 C   0  0  0  0  0  0  0  0  0  0  0  0
   31.3349  -24.0003    2.3204 C   0  0  0  0  0  0  0  0  0  0  0  0
   31.3699  -23.2784    4.6804 C   0  0  0  0  0  0  0  0  0  0  0  0
   30.6589  -22.5518    5.8519 C   0  0  0  0  0  0  0  0  0  0  0  0
   31.5761  -22.0816    7.1939 S   0  0  0  0  0  0  0  0  0  0  0  0
  1  3  1  0  0  0  0
  1  9  1  0  0  0  0
  1 10  1  0  0  0  0
  2 12  1  0  0  0  0
  3  5  1  0  0  0  0
  4 12  2  0  0  0  0
  5  7  1  0  0  0  0
  6 12  2  0  0  0  0
  7  8  1  0  0  0  0
  8  9  1  0  0  0  0
 10 11  1  0  0  0  0
 11 12  1  0  0  0  0
M  END
>  <CHROM.1>
-72.56745212,-179.21087297,175.14210229,30.94445788,-23.31264217,4.97718018
-1.85511599,0.31727553,1.13612799

>  <Name>
ligand

>  <RI>
0

>  <Rbt.Current_Directory>
/home/itssahil/PROJECTS/Mol_Feturizer/New_Systems/rnas/4E8N

>  <Rbt.Executable>
rbdock ($Id: //depot/dev/client3/rdock/2013.1/src/exe/rbdock.cxx#4 $)

>  <Rbt.Library>
libRbt.so (2013.1, Build901 2013/11/27)

>  <Rbt.Parameter_File>
/export/apps/rDock/src/rDock_2013.1_src/data/scripts/dock_solv.prm

>  <Rbt.Receptor>
prm/pocket_docking_6.prm

>  <SCORE>
-11.8056

>  <SCORE.INTER>
-7.81399

>  <SCORE.INTER.CONST>
1

>  <SCORE.INTER.POLAR>
0

>  <SCORE.INTER.ROT>
3

>  <SCORE.INTER.SOLV>
5.90076

>  <SCORE.INTER.VDW>
-12.7762

>  <SCORE.INTER.norm>
-0.651166

>  <SCORE.INTRA>
-3.99165

>  <SCORE.INTRA.DIHEDRAL>
-4.65338

>  <SCORE.INTRA.DIHEDRAL.0>
5.0186

>  <SCORE.INTRA.POLAR>
0

>  <SCORE.INTRA.POLAR.0>
0

>  <SCORE.INTRA.REPUL>
0

>  <SCORE.INTRA.REPUL.0>
0

>  <SCORE.INTRA.SOLV>
0.0706606

>  <SCORE.INTRA.SOLV.lig_0>
-16.1608

>  <SCORE.INTRA.VDW>
-1.70029

>  <SCORE.INTRA.VDW.0>
1.14169

>  <SCORE.INTRA.norm>
-0.332637

>  <SCORE.RESTR>
0

>  <SCORE.RESTR.CAVITY>
0

>  <SCORE.RESTR.norm>
0

>  <SCORE.SYSTEM>
0

>  <SCORE.SYSTEM.CONST>
0

>  <SCORE.SYSTEM.DIHEDRAL>
0

>  <SCORE.SYSTEM.SOLV>
0

>  <SCORE.SYSTEM.norm>
0

>  <SCORE.heavy>
12

>  <SCORE.norm>
-0.983803

>  <RMSD>
3.351

$$$$
ligand
 OpenBabel11021811493D
libRbt.so/2013.1/901 2013/11/27
 12 12  0  0  0  0  0  0  0  0999 V2000
   30.8742  -23.6857    4.0065 N   0  0  0  0  0  0  0  0  0  0  0  0
   31.9406  -23.4727    7.9769 O   0  0  0  0  0  0  0  0  0  0  0  0
   30.1807  -23.1041    2.8311 C   0  0  0  0  0  0  0  0  0  0  0  0
   33.2141  -22.5648    6.2089 O   0  0  0  0  0  0  0  0  0  0  0  0
   31.0120  -23.4007    1.5873 C   0  0  0  0  0  0  0  0  0  0  0  0
   32.4763  -21.0952    8.0339 O   0  0  0  0  0  0  0  0  0  0  0  0
   31.0634  -24.8489    1.3655 N   0  0  0  0  0  0  0  0  0  0  0  0
   30.3376  -25.5019    2.4577 C   0  0  0  0  0  0  0  0  0  0  0  0
   31.0511  -25.1278    3.7456 C   0  0  0  0  0  0  0  0  0  0  0  0
   30.2081  -23.4515    5.3492 C   0  0  0  0  0  0  0  0  0  0  0  0
   30.6899  -22.2189    6.1583 C   0  0  0  0  0  0  0  0  0  0  0  0
   32.0952  -22.3568    7.0909 S   0  0  0  0  0  0  0  0  0  0  0  0
  1  3  1  0  0  0  0
  1  9  1  0  0  0  0
  1 10  1  0  0  0  0
  2 12  1  0  0  0  0
  3  5  1  0  0  0  0
  4 12  2  0  0  0  0
  5  7  1  0  0  0  0
  6 12  2  0  0  0  0
  7  8  1  0  0  0  0
  8  9  1  0  0  0  0
 10 11  1  0  0  0  0
 11 12  1  0  0  0  0
M  END
>  <CHROM.1>
-93.69722063,-82.31895433,-54.71002582,31.37962987,-23.27259750,5.03808324
-2.66232981,1.27573047,2.23608179

>  <Name>
ligand

>  <RI>
0

>  <Rbt.Current_Directory>
/home/itssahil/PROJECTS/Mol_Feturizer/New_Systems/rnas/4E8N

>  <Rbt.Executable>
rbdock ($Id: //depot/dev/client3/rdock/2013.1/src/exe/rbdock.cxx#4 $)

>  <Rbt.Library>
libRbt.so (2013.1, Build901 2013/11/27)

>  <Rbt.Parameter_File>
/export/apps/rDock/src/rDock_2013.1_src/data/scripts/dock_solv.prm

>  <Rbt.Receptor>
prm/pocket_docking_4.prm

>  <SCORE>
-12.0868

>  <SCORE.INTER>
-9.21485

>  <SCORE.INTER.CONST>
1

>  <SCORE.INTER.POLAR>
0

>  <SCORE.INTER.ROT>
3

>  <SCORE.INTER.SOLV>
6.38609

>  <SCORE.INTER.VDW>
-13.8719

>  <SCORE.INTER.norm>
-0.767904

>  <SCORE.INTRA>
-2.87193

>  <SCORE.INTRA.DIHEDRAL>
-1.7459

>  <SCORE.INTRA.DIHEDRAL.0>
5.0186

>  <SCORE.INTRA.POLAR>
0

>  <SCORE.INTRA.POLAR.0>
0

>  <SCORE.INTRA.REPUL>
0

>  <SCORE.INTRA.REPUL.0>
0

>  <SCORE.INTRA.SOLV>
0.286217

>  <SCORE.INTRA.SOLV.lig_0>
-16.1608

>  <SCORE.INTRA.VDW>
-2.14209

>  <SCORE.INTRA.VDW.0>
1.14169

>  <SCORE.INTRA.norm>
-0.239328

>  <SCORE.RESTR>
0

>  <SCORE.RESTR.CAVITY>
0

>  <SCORE.RESTR.norm>
0

>  <SCORE.SYSTEM>
0

>  <SCORE.SYSTEM.CONST>
0

>  <SCORE.SYSTEM.DIHEDRAL>
0

>  <SCORE.SYSTEM.SOLV>
0

>  <SCORE.SYSTEM.norm>
0

>  <SCORE.heavy>
12

>  <SCORE.norm>
-1.00723

>  <RMSD>
3.355

$$$$
ligand
 OpenBabel11021811493D
libRbt.so/2013.1/901 2013/11/27
 12 12  0  0  0  0  0  0  0  0999 V2000
   30.5093  -23.6762    3.5150 N   0  0  0  0  0  0  0  0  0  0  0  0
   30.7163  -21.3756    8.1143 O   0  0  0  0  0  0  0  0  0  0  0  0
   29.5580  -24.7948    3.7263 C   0  0  0  0  0  0  0  0  0  0  0  0
   32.0801  -23.2854    7.8606 O   0  0  0  0  0  0  0  0  0  0  0  0
   28.7583  -24.9945    2.4430 C   0  0  0  0  0  0  0  0  0  0  0  0
   32.8424  -21.1368    6.9457 O   0  0  0  0  0  0  0  0  0  0  0  0
   29.6585  -25.4122    1.3640 N   0  0  0  0  0  0  0  0  0  0  0  0
   31.0238  -25.4357    1.8947 C   0  0  0  0  0  0  0  0  0  0  0  0
   31.3442  -24.0215    2.3476 C   0  0  0  0  0  0  0  0  0  0  0  0
   31.3677  -23.3044    4.7092 C   0  0  0  0  0  0  0  0  0  0  0  0
   30.6564  -22.5661    5.8733 C   0  0  0  0  0  0  0  0  0  0  0  0
   31.5693  -22.1014    7.2201 S   0  0  0  0  0  0  0  0  0  0  0  0
  1  3  1  0  0  0  0
  1  9  1  0  0  0  0
  1 10  1  0  0  0  0
  2 12  1  0  0  0  0
  3  5  1  0  0  0  0
  4 12  2  0  0  0  0
  5  7  1  0  0  0  0
  6 12  2  0  0  0  0
  7  8  1  0  0  0  0
  8  9  1  0  0  0  0
 10 11  1  0  0  0  0
 11 12  1  0  0  0  0
M  END
>  <CHROM.1>
-72.86397023,-178.91171250,176.68045580,30.94090773,-23.32796434,4.99923199
-1.85263144,0.30514714,1.13480107

>  <Name>
ligand

>  <RI>
0

>  <Rbt.Current_Directory>
/home/itssahil/PROJECTS/Mol_Feturizer/New_Systems/rnas/4E8N

>  <Rbt.Executable>
rbdock ($Id: //depot/dev/client3/rdock/2013.1/src/exe/rbdock.cxx#4 $)

>  <Rbt.Library>
libRbt.so (2013.1, Build901 2013/11/27)

>  <Rbt.Parameter_File>
/export/apps/rDock/src/rDock_2013.1_src/data/scripts/dock_solv.prm

>  <Rbt.Receptor>
prm/pocket_docking_7.prm

>  <SCORE>
-11.8664

>  <SCORE.INTER>
-7.86771

>  <SCORE.INTER.CONST>
1

>  <SCORE.INTER.POLAR>
0

>  <SCORE.INTER.ROT>
3

>  <SCORE.INTER.SOLV>
5.91765

>  <SCORE.INTER.VDW>
-12.8177

>  <SCORE.INTER.norm>
-0.655643

>  <SCORE.INTRA>
-3.99869

>  <SCORE.INTRA.DIHEDRAL>
-4.66761

>  <SCORE.INTRA.DIHEDRAL.0>
5.0186

>  <SCORE.INTRA.POLAR>
0

>  <SCORE.INTRA.POLAR.0>
0

>  <SCORE.INTRA.REPUL>
0

>  <SCORE.INTRA.REPUL.0>
0

>  <SCORE.INTRA.SOLV>
0.0706945

>  <SCORE.INTRA.SOLV.lig_0>
-16.1608

>  <SCORE.INTRA.VDW>
-1.70024

>  <SCORE.INTRA.VDW.0>
1.14169

>  <SCORE.INTRA.norm>
-0.333224

>  <SCORE.RESTR>
0

>  <SCORE.RESTR.CAVITY>
0

>  <SCORE.RESTR.norm>
0

>  <SCORE.SYSTEM>
0

>  <SCORE.SYSTEM.CONST>
0

>  <SCORE.SYSTEM.DIHEDRAL>
0

>  <SCORE.SYSTEM.SOLV>
0

>  <SCORE.SYSTEM.norm>
0

>  <SCORE.heavy>
12

>  <SCORE.norm>
-0.988867

>  <RMSD>
3.355

$$$$
ligand
 OpenBabel11021811493D
libRbt.so/2013.1/901 2013/11/27
 12 12  0  0  0  0  0  0  0  0999 V2000
   30.9212  -23.8088    4.0590 N   0  0  0  0  0  0  0  0  0  0  0  0
   31.9553  -23.4779    7.9879 O   0  0  0  0  0  0  0  0  0  0  0  0
   30.4397  -23.0470    2.8806 C   0  0  0  0  0  0  0  0  0  0  0  0
   33.2370  -22.5897    6.2160 O   0  0  0  0  0  0  0  0  0  0  0  0
   31.2795  -23.4490    1.6726 C   0  0  0  0  0  0  0  0  0  0  0  0
   32.4829  -21.0981    8.0163 O   0  0  0  0  0  0  0  0  0  0  0  0
   31.0578  -24.8663    1.3707 N   0  0  0  0  0  0  0  0  0  0  0  0
   30.1433  -25.4080    2.3789 C   0  0  0  0  0  0  0  0  0  0  0  0
   30.8261  -25.2437    3.7259 C   0  0  0  0  0  0  0  0  0  0  0  0
   30.2237  -23.5056    5.3716 C   0  0  0  0  0  0  0  0  0  0  0  0
   30.7121  -22.2528    6.1449 C   0  0  0  0  0  0  0  0  0  0  0  0
   32.1118  -22.3735    7.0880 S   0  0  0  0  0  0  0  0  0  0  0  0
  1  3  1  0  0  0  0
  1  9  1  0  0  0  0
  1 10  1  0  0  0  0
  2 12  1  0  0  0  0
  3  5  1  0  0  0  0
  4 12  2  0  0  0  0
  5  7  1  0  0  0  0
  6 12  2  0  0  0  0
  7  8  1  0  0  0  0
  8  9  1  0  0  0  0
 10 11  1  0  0  0  0
 11 12  1  0  0  0  0
M  END
>  <CHROM.1>
-82.02642252,-80.62734827,-53.51766510,31.39967719,-23.29574929,5.04513840
2.13118692,-1.06339540,-1.48367698

>  <Name>
ligand

>  <RI>
0

>  <Rbt.Current_Directory>
/home/itssahil/PROJECTS/Mol_Feturizer/New_Systems/rnas/4E8N

>  <Rbt.Executable>
rbdock ($Id: //depot/dev/client3/rdock/2013.1/src/exe/rbdock.cxx#4 $)

>  <Rbt.Library>
libRbt.so (2013.1, Build901 2013/11/27)

>  <Rbt.Parameter_File>
/export/apps/rDock/src/rDock_2013.1_src/data/scripts/dock_solv.prm

>  <Rbt.Receptor>
prm/pocket_docking_7.prm

>  <SCORE>
-12.3072

>  <SCORE.INTER>
-9.033

>  <SCORE.INTER.CONST>
1

>  <SCORE.INTER.POLAR>
0

>  <SCORE.INTER.ROT>
3

>  <SCORE.INTER.SOLV>
6.48911

>  <SCORE.INTER.VDW>
-13.785

>  <SCORE.INTER.norm>
-0.75275

>  <SCORE.INTRA>
-3.27421

>  <SCORE.INTRA.DIHEDRAL>
-2.65024

>  <SCORE.INTRA.DIHEDRAL.0>
5.0186

>  <SCORE.INTRA.POLAR>
0

>  <SCORE.INTRA.POLAR.0>
0

>  <SCORE.INTRA.REPUL>
0

>  <SCORE.INTRA.REPUL.0>
0

>  <SCORE.INTRA.SOLV>
0.291113

>  <SCORE.INTRA.SOLV.lig_0>
-16.1608

>  <SCORE.INTRA.VDW>
-2.09465

>  <SCORE.INTRA.VDW.0>
1.14169

>  <SCORE.INTRA.norm>
-0.272851

>  <SCORE.RESTR>
0

>  <SCORE.RESTR.CAVITY>
0

>  <SCORE.RESTR.norm>
0

>  <SCORE.SYSTEM>
0

>  <SCORE.SYSTEM.CONST>
0

>  <SCORE.SYSTEM.DIHEDRAL>
0

>  <SCORE.SYSTEM.SOLV>
0

>  <SCORE.SYSTEM.norm>
0

>  <SCORE.heavy>
12

>  <SCORE.norm>
-1.0256

>  <RMSD>
3.356

$$$$
ligand
 OpenBabel11021811493D
libRbt.so/2013.1/901 2013/11/27
 12 12  0  0  0  0  0  0  0  0999 V2000
   30.9119  -23.8149    4.0565 N   0  0  0  0  0  0  0  0  0  0  0  0
   31.9861  -23.4539    7.9900 O   0  0  0  0  0  0  0  0  0  0  0  0
   30.4046  -23.0523    2.8895 C   0  0  0  0  0  0  0  0  0  0  0  0
   33.2348  -22.5810    6.1871 O   0  0  0  0  0  0  0  0  0  0  0  0
   31.2312  -23.4380    1.6672 C   0  0  0  0  0  0  0  0  0  0  0  0
   32.4942  -21.0697    7.9766 O   0  0  0  0  0  0  0  0  0  0  0  0
   31.0215  -24.8561    1.3605 N   0  0  0  0  0  0  0  0  0  0  0  0
   30.1280  -25.4138    2.3788 C   0  0  0  0  0  0  0  0  0  0  0  0
   30.8285  -25.2490    3.7167 C   0  0  0  0  0  0  0  0  0  0  0  0
   30.2303  -23.5271    5.3807 C   0  0  0  0  0  0  0  0  0  0  0  0
   30.7064  -22.2658    6.1477 C   0  0  0  0  0  0  0  0  0  0  0  0
   32.1205  -22.3615    7.0721 S   0  0  0  0  0  0  0  0  0  0  0  0
  1  3  1  0  0  0  0
  1  9  1  0  0  0  0
  1 10  1  0  0  0  0
  2 12  1  0  0  0  0
  3  5  1  0  0  0  0
  4 12  2  0  0  0  0
  5  7  1  0  0  0  0
  6 12  2  0  0  0  0
  7  8  1  0  0  0  0
  8  9  1  0  0  0  0
 10 11  1  0  0  0  0
 11 12  1  0  0  0  0
M  END
>  <CHROM.1>
-81.48281668,-80.84810356,-54.51422396,31.39416068,-23.29126542,5.03647917
2.16007383,-1.07417890,-1.45735967

>  <Name>
ligand

>  <RI>
0

>  <Rbt.Current_Directory>
/home/itssahil/PROJECTS/Mol_Feturizer/New_Systems/rnas/4E8N

>  <Rbt.Executable>
rbdock ($Id: //depot/dev/client3/rdock/2013.1/src/exe/rbdock.cxx#4 $)

>  <Rbt.Library>
libRbt.so (2013.1, Build901 2013/11/27)

>  <Rbt.Parameter_File>
/export/apps/rDock/src/rDock_2013.1_src/data/scripts/dock_solv.prm

>  <Rbt.Receptor>
prm/pocket_docking_5.prm

>  <SCORE>
-12.3133

>  <SCORE.INTER>
-9.02693

>  <SCORE.INTER.CONST>
1

>  <SCORE.INTER.POLAR>
0

>  <SCORE.INTER.ROT>
3

>  <SCORE.INTER.SOLV>
6.50018

>  <SCORE.INTER.VDW>
-13.7847

>  <SCORE.INTER.norm>
-0.752244

>  <SCORE.INTRA>
-3.28633

>  <SCORE.INTRA.DIHEDRAL>
-2.68407

>  <SCORE.INTRA.DIHEDRAL.0>
5.0186

>  <SCORE.INTRA.POLAR>
0

>  <SCORE.INTRA.POLAR.0>
0

>  <SCORE.INTRA.REPUL>
0

>  <SCORE.INTRA.REPUL.0>
0

>  <SCORE.INTRA.SOLV>
0.294573

>  <SCORE.INTRA.SOLV.lig_0>
-16.1608

>  <SCORE.INTRA.VDW>
-2.09158

>  <SCORE.INTRA.VDW.0>
1.14169

>  <SCORE.INTRA.norm>
-0.273861

>  <SCORE.RESTR>
0

>  <SCORE.RESTR.CAVITY>
0

>  <SCORE.RESTR.norm>
0

>  <SCORE.SYSTEM>
0

>  <SCORE.SYSTEM.CONST>
0

>  <SCORE.SYSTEM.DIHEDRAL>
0

>  <SCORE.SYSTEM.SOLV>
0

>  <SCORE.SYSTEM.norm>
0

>  <SCORE.heavy>
12

>  <SCORE.norm>
-1.0261

>  <RMSD>
3.357

$$$$
ligand
 OpenBabel11021811493D
libRbt.so/2013.1/901 2013/11/27
 12 12  0  0  0  0  0  0  0  0999 V2000
   30.5054  -23.6626    3.4716 N   0  0  0  0  0  0  0  0  0  0  0  0
   31.8071  -23.3511    7.8900 O   0  0  0  0  0  0  0  0  0  0  0  0
   29.5837  -24.8099    3.6588 C   0  0  0  0  0  0  0  0  0  0  0  0
   32.6248  -21.3920    6.8580 O   0  0  0  0  0  0  0  0  0  0  0  0
   28.8109  -25.0223    2.3612 C   0  0  0  0  0  0  0  0  0  0  0  0
   30.6669  -21.2427    8.3341 O   0  0  0  0  0  0  0  0  0  0  0  0
   29.7401  -25.4050    1.2939 N   0  0  0  0  0  0  0  0  0  0  0  0
   31.0968  -25.3933    1.8467 C   0  0  0  0  0  0  0  0  0  0  0  0
   31.3686  -23.9741    2.3154 C   0  0  0  0  0  0  0  0  0  0  0  0
   31.3332  -23.2757    4.6825 C   0  0  0  0  0  0  0  0  0  0  0  0
   30.5922  -22.5254    5.8199 C   0  0  0  0  0  0  0  0  0  0  0  0
   31.4466  -22.1329    7.2268 S   0  0  0  0  0  0  0  0  0  0  0  0
  1  3  1  0  0  0  0
  1  9  1  0  0  0  0
  1 10  1  0  0  0  0
  2 12  1  0  0  0  0
  3  5  1  0  0  0  0
  4 12  2  0  0  0  0
  5  7  1  0  0  0  0
  6 12  2  0  0  0  0
  7  8  1  0  0  0  0
  8  9  1  0  0  0  0
 10 11  1  0  0  0  0
 11 12  1  0  0  0  0
M  END
>  <CHROM.1>
-74.84842935,177.15282444,-65.64228764,30.88675596,-23.33884937,4.98291375
-1.80985740,0.32329697,1.14262251

>  <Name>
ligand

>  <RI>
0

>  <Rbt.Current_Directory>
/home/itssahil/PROJECTS/Mol_Feturizer/New_Systems/rnas/4E8N

>  <Rbt.Executable>
rbdock ($Id: //depot/dev/client3/rdock/2013.1/src/exe/rbdock.cxx#4 $)

>  <Rbt.Library>
libRbt.so (2013.1, Build901 2013/11/27)

>  <Rbt.Parameter_File>
/export/apps/rDock/src/rDock_2013.1_src/data/scripts/dock_solv.prm

>  <Rbt.Receptor>
prm/pocket_docking_4.prm

>  <SCORE>
-12.6084

>  <SCORE.INTER>
-8.62262

>  <SCORE.INTER.CONST>
1

>  <SCORE.INTER.POLAR>
0

>  <SCORE.INTER.ROT>
3

>  <SCORE.INTER.SOLV>
5.23185

>  <SCORE.INTER.VDW>
-13.0924

>  <SCORE.INTER.norm>
-0.718551

>  <SCORE.INTRA>
-3.98582

>  <SCORE.INTRA.DIHEDRAL>
-4.50429

>  <SCORE.INTRA.DIHEDRAL.0>
5.0186

>  <SCORE.INTRA.POLAR>
0

>  <SCORE.INTRA.POLAR.0>
0

>  <SCORE.INTRA.REPUL>
0

>  <SCORE.INTRA.REPUL.0>
0

>  <SCORE.INTRA.SOLV>
-0.10028

>  <SCORE.INTRA.SOLV.lig_0>
-16.1608

>  <SCORE.INTRA.VDW>
-1.68354

>  <SCORE.INTRA.VDW.0>
1.14169

>  <SCORE.INTRA.norm>
-0.332152

>  <SCORE.RESTR>
0

>  <SCORE.RESTR.CAVITY>
0

>  <SCORE.RESTR.norm>
0

>  <SCORE.SYSTEM>
0

>  <SCORE.SYSTEM.CONST>
0

>  <SCORE.SYSTEM.DIHEDRAL>
0

>  <SCORE.SYSTEM.SOLV>
0

>  <SCORE.SYSTEM.norm>
0

>  <SCORE.heavy>
12

>  <SCORE.norm>
-1.0507

>  <RMSD>
3.367

$$$$
ligand
 OpenBabel11021811493D
libRbt.so/2013.1/901 2013/11/27
 12 12  0  0  0  0  0  0  0  0999 V2000
   30.2609  -23.5394    3.4073 N   0  0  0  0  0  0  0  0  0  0  0  0
   31.7887  -23.4241    7.8297 O   0  0  0  0  0  0  0  0  0  0  0  0
   29.5215  -24.8183    3.5436 C   0  0  0  0  0  0  0  0  0  0  0  0
   32.6751  -21.5514    6.6987 O   0  0  0  0  0  0  0  0  0  0  0  0
   28.6253  -24.9880    2.3213 C   0  0  0  0  0  0  0  0  0  0  0  0
   30.8269  -21.2309    8.2849 O   0  0  0  0  0  0  0  0  0  0  0  0
   29.4543  -25.1129    1.1187 N   0  0  0  0  0  0  0  0  0  0  0  0
   30.8571  -24.9742    1.5174 C   0  0  0  0  0  0  0  0  0  0  0  0
   31.0049  -23.5935    2.1335 C   0  0  0  0  0  0  0  0  0  0  0  0
   31.1786  -23.1807    4.5607 C   0  0  0  0  0  0  0  0  0  0  0  0
   30.5086  -22.5609    5.8149 C   0  0  0  0  0  0  0  0  0  0  0  0
   31.4732  -22.1985    7.1571 S   0  0  0  0  0  0  0  0  0  0  0  0
  1  3  1  0  0  0  0
  1  9  1  0  0  0  0
  1 10  1  0  0  0  0
  2 12  1  0  0  0  0
  3  5  1  0  0  0  0
  4 12  2  0  0  0  0
  5  7  1  0  0  0  0
  6 12  2  0  0  0  0
  7  8  1  0  0  0  0
  8  9  1  0  0  0  0
 10 11  1  0  0  0  0
 11 12  1  0  0  0  0
M  END
>  <CHROM.1>
-79.96187746,177.55130980,-75.49422297,30.78904252,-23.27331466,4.87358878
-1.88038097,0.48229047,1.26456394

>  <Name>
ligand

>  <RI>
0

>  <Rbt.Current_Directory>
/home/itssahil/PROJECTS/Mol_Feturizer/New_Systems/rnas/4E8N

>  <Rbt.Executable>
rbdock ($Id: //depot/dev/client3/rdock/2013.1/src/exe/rbdock.cxx#4 $)

>  <Rbt.Library>
libRbt.so (2013.1, Build901 2013/11/27)

>  <Rbt.Parameter_File>
/export/apps/rDock/src/rDock_2013.1_src/data/scripts/dock_solv.prm

>  <Rbt.Receptor>
prm/pocket_docking_5.prm

>  <SCORE>
-12.4862

>  <SCORE.INTER>
-8.85941

>  <SCORE.INTER.CONST>
1

>  <SCORE.INTER.POLAR>
0

>  <SCORE.INTER.ROT>
3

>  <SCORE.INTER.SOLV>
6.15545

>  <SCORE.INTER.VDW>
-13.5581

>  <SCORE.INTER.norm>
-0.738284

>  <SCORE.INTRA>
-3.62677

>  <SCORE.INTRA.DIHEDRAL>
-3.77387

>  <SCORE.INTRA.DIHEDRAL.0>
5.0186

>  <SCORE.INTRA.POLAR>
0

>  <SCORE.INTRA.POLAR.0>
0

>  <SCORE.INTRA.REPUL>
0

>  <SCORE.INTRA.REPUL.0>
0

>  <SCORE.INTRA.SOLV>
-0.0796382

>  <SCORE.INTRA.SOLV.lig_0>
-16.1608

>  <SCORE.INTRA.VDW>
-1.70001

>  <SCORE.INTRA.VDW.0>
1.14169

>  <SCORE.INTRA.norm>
-0.30223

>  <SCORE.RESTR>
0

>  <SCORE.RESTR.CAVITY>
0

>  <SCORE.RESTR.norm>
0

>  <SCORE.SYSTEM>
0

>  <SCORE.SYSTEM.CONST>
0

>  <SCORE.SYSTEM.DIHEDRAL>
0

>  <SCORE.SYSTEM.SOLV>
0

>  <SCORE.SYSTEM.norm>
0

>  <SCORE.heavy>
12

>  <SCORE.norm>
-1.04051

>  <RMSD>
3.378

$$$$
ligand
 OpenBabel11021811493D
libRbt.so/2013.1/901 2013/11/27
 12 12  0  0  0  0  0  0  0  0999 V2000
   30.9250  -23.8219    4.0204 N   0  0  0  0  0  0  0  0  0  0  0  0
   31.9864  -23.4701    7.9812 O   0  0  0  0  0  0  0  0  0  0  0  0
   30.3334  -23.1141    2.8585 C   0  0  0  0  0  0  0  0  0  0  0  0
   33.2230  -22.5647    6.1859 O   0  0  0  0  0  0  0  0  0  0  0  0
   31.1630  -23.4435    1.6218 C   0  0  0  0  0  0  0  0  0  0  0  0
   32.4384  -21.0746    7.9744 O   0  0  0  0  0  0  0  0  0  0  0  0
   31.0625  -24.8769    1.3311 N   0  0  0  0  0  0  0  0  0  0  0  0
   30.2384  -25.4950    2.3728 C   0  0  0  0  0  0  0  0  0  0  0  0
   30.9509  -25.2612    3.6939 C   0  0  0  0  0  0  0  0  0  0  0  0
   30.2499  -23.5772    5.3567 C   0  0  0  0  0  0  0  0  0  0  0  0
   30.6881  -22.3089    6.1347 C   0  0  0  0  0  0  0  0  0  0  0  0
   32.0995  -22.3731    7.0659 S   0  0  0  0  0  0  0  0  0  0  0  0
  1  3  1  0  0  0  0
  1  9  1  0  0  0  0
  1 10  1  0  0  0  0
  2 12  1  0  0  0  0
  3  5  1  0  0  0  0
  4 12  2  0  0  0  0
  5  7  1  0  0  0  0
  6 12  2  0  0  0  0
  7  8  1  0  0  0  0
  8  9  1  0  0  0  0
 10 11  1  0  0  0  0
 11 12  1  0  0  0  0
M  END
>  <CHROM.1>
-84.31738761,-82.08719375,-54.86451014,31.39591810,-23.31416238,5.01928559
2.26040371,-1.15916971,-1.34233229

>  <Name>
ligand

>  <RI>
0

>  <Rbt.Current_Directory>
/home/itssahil/PROJECTS/Mol_Feturizer/New_Systems/rnas/4E8N

>  <Rbt.Executable>
rbdock ($Id: //depot/dev/client3/rdock/2013.1/src/exe/rbdock.cxx#4 $)

>  <Rbt.Library>
libRbt.so (2013.1, Build901 2013/11/27)

>  <Rbt.Parameter_File>
/export/apps/rDock/src/rDock_2013.1_src/data/scripts/dock_solv.prm

>  <Rbt.Receptor>
prm/pocket_docking_5.prm

>  <SCORE>
-12.2491

>  <SCORE.INTER>
-9.10596

>  <SCORE.INTER.CONST>
1

>  <SCORE.INTER.POLAR>
0

>  <SCORE.INTER.ROT>
3

>  <SCORE.INTER.SOLV>
6.44966

>  <SCORE.INTER.VDW>
-13.8205

>  <SCORE.INTER.norm>
-0.75883

>  <SCORE.INTRA>
-3.14311

>  <SCORE.INTRA.DIHEDRAL>
-2.36242

>  <SCORE.INTRA.DIHEDRAL.0>
5.0186

>  <SCORE.INTRA.POLAR>
0

>  <SCORE.INTRA.POLAR.0>
0

>  <SCORE.INTRA.REPUL>
0

>  <SCORE.INTRA.REPUL.0>
0

>  <SCORE.INTRA.SOLV>
0.284832

>  <SCORE.INTRA.SOLV.lig_0>
-16.1608

>  <SCORE.INTRA.VDW>
-2.10432

>  <SCORE.INTRA.VDW.0>
1.14169

>  <SCORE.INTRA.norm>
-0.261926

>  <SCORE.RESTR>
0

>  <SCORE.RESTR.CAVITY>
0

>  <SCORE.RESTR.norm>
0

>  <SCORE.SYSTEM>
0

>  <SCORE.SYSTEM.CONST>
0

>  <SCORE.SYSTEM.DIHEDRAL>
0

>  <SCORE.SYSTEM.SOLV>
0

>  <SCORE.SYSTEM.norm>
0

>  <SCORE.heavy>
12

>  <SCORE.norm>
-1.02076

>  <RMSD>
3.378

$$$$
ligand
 OpenBabel11021811493D
libRbt.so/2013.1/901 2013/11/27
 12 12  0  0  0  0  0  0  0  0999 V2000
   30.2444  -23.5671    3.4080 N   0  0  0  0  0  0  0  0  0  0  0  0
   31.7664  -23.4318    7.8222 O   0  0  0  0  0  0  0  0  0  0  0  0
   29.5226  -24.8546    3.5572 C   0  0  0  0  0  0  0  0  0  0  0  0
   32.6839  -21.5769    6.6868 O   0  0  0  0  0  0  0  0  0  0  0  0
   28.6170  -25.0413    2.3442 C   0  0  0  0  0  0  0  0  0  0  0  0
   30.8367  -21.2226    8.2671 O   0  0  0  0  0  0  0  0  0  0  0  0
   29.4361  -25.1613    1.1343 N   0  0  0  0  0  0  0  0  0  0  0  0
   30.8408  -25.0030    1.5190 C   0  0  0  0  0  0  0  0  0  0  0  0
   30.9769  -23.6177    2.1274 C   0  0  0  0  0  0  0  0  0  0  0  0
   31.1683  -23.1914    4.5510 C   0  0  0  0  0  0  0  0  0  0  0  0
   30.5046  -22.5567    5.8010 C   0  0  0  0  0  0  0  0  0  0  0  0
   31.4712  -22.2041    7.1444 S   0  0  0  0  0  0  0  0  0  0  0  0
  1  3  1  0  0  0  0
  1  9  1  0  0  0  0
  1 10  1  0  0  0  0
  2 12  1  0  0  0  0
  3  5  1  0  0  0  0
  4 12  2  0  0  0  0
  5  7  1  0  0  0  0
  6 12  2  0  0  0  0
  7  8  1  0  0  0  0
  8  9  1  0  0  0  0
 10 11  1  0  0  0  0
 11 12  1  0  0  0  0
M  END
>  <CHROM.1>
-80.76338608,176.31358913,-75.47816347,30.78107749,-23.29274229,4.87016982
-1.88559173,0.49721793,1.26448814

>  <Name>
ligand

>  <RI>
0

>  <Rbt.Current_Directory>
/home/itssahil/PROJECTS/Mol_Feturizer/New_Systems/rnas/4E8N

>  <Rbt.Executable>
rbdock ($Id: //depot/dev/client3/rdock/2013.1/src/exe/rbdock.cxx#4 $)

>  <Rbt.Library>
libRbt.so (2013.1, Build901 2013/11/27)

>  <Rbt.Parameter_File>
/export/apps/rDock/src/rDock_2013.1_src/data/scripts/dock_solv.prm

>  <Rbt.Receptor>
prm/pocket_docking_5.prm

>  <SCORE>
-12.4671

>  <SCORE.INTER>
-8.86975

>  <SCORE.INTER.CONST>
1

>  <SCORE.INTER.POLAR>
0

>  <SCORE.INTER.ROT>
3

>  <SCORE.INTER.SOLV>
6.1019

>  <SCORE.INTER.VDW>
-13.5471

>  <SCORE.INTER.norm>
-0.739146

>  <SCORE.INTRA>
-3.59735

>  <SCORE.INTRA.DIHEDRAL>
-3.70071

>  <SCORE.INTRA.DIHEDRAL.0>
5.0186

>  <SCORE.INTRA.POLAR>
0

>  <SCORE.INTRA.POLAR.0>
0

>  <SCORE.INTRA.REPUL>
0

>  <SCORE.INTRA.REPUL.0>
0

>  <SCORE.INTRA.SOLV>
-0.0795019

>  <SCORE.INTRA.SOLV.lig_0>
-16.1608

>  <SCORE.INTRA.VDW>
-1.70724

>  <SCORE.INTRA.VDW.0>
1.14169

>  <SCORE.INTRA.norm>
-0.299779

>  <SCORE.RESTR>
0

>  <SCORE.RESTR.CAVITY>
0

>  <SCORE.RESTR.norm>
0

>  <SCORE.SYSTEM>
0

>  <SCORE.SYSTEM.CONST>
0

>  <SCORE.SYSTEM.DIHEDRAL>
0

>  <SCORE.SYSTEM.SOLV>
0

>  <SCORE.SYSTEM.norm>
0

>  <SCORE.heavy>
12

>  <SCORE.norm>
-1.03892

>  <RMSD>
3.398

$$$$
ligand
 OpenBabel11021811493D
libRbt.so/2013.1/901 2013/11/27
 12 12  0  0  0  0  0  0  0  0999 V2000
   30.2441  -24.3541    3.7810 N   0  0  0  0  0  0  0  0  0  0  0  0
   31.7558  -23.4338    7.9904 O   0  0  0  0  0  0  0  0  0  0  0  0
   30.6809  -25.5669    3.0467 C   0  0  0  0  0  0  0  0  0  0  0  0
   32.7286  -21.7172    6.6948 O   0  0  0  0  0  0  0  0  0  0  0  0
   29.6912  -25.8262    1.9156 C   0  0  0  0  0  0  0  0  0  0  0  0
   30.8254  -21.1866    8.1546 O   0  0  0  0  0  0  0  0  0  0  0  0
   29.7411  -24.7187    0.9564 N   0  0  0  0  0  0  0  0  0  0  0  0
   30.6920  -23.7243    1.4597 C   0  0  0  0  0  0  0  0  0  0  0  0
   30.1639  -23.2511    2.8032 C   0  0  0  0  0  0  0  0  0  0  0  0
   31.0933  -23.9636    4.9759 C   0  0  0  0  0  0  0  0  0  0  0  0
   30.5776  -22.7821    5.8385 C   0  0  0  0  0  0  0  0  0  0  0  0
   31.4951  -22.2870    7.1713 S   0  0  0  0  0  0  0  0  0  0  0  0
  1  3  1  0  0  0  0
  1  9  1  0  0  0  0
  1 10  1  0  0  0  0
  2 12  1  0  0  0  0
  3  5  1  0  0  0  0
  4 12  2  0  0  0  0
  5  7  1  0  0  0  0
  6 12  2  0  0  0  0
  7  8  1  0  0  0  0
  8  9  1  0  0  0  0
 10 11  1  0  0  0  0
 11 12  1  0  0  0  0
M  END
>  <CHROM.1>
-174.24715197,-179.10798468,-52.78786430,30.90172798,-23.40249536,4.90439476
3.05570646,-1.33781271,-0.53195057

>  <Name>
ligand

>  <RI>
0

>  <Rbt.Current_Directory>
/home/itssahil/PROJECTS/Mol_Feturizer/New_Systems/rnas/4E8N

>  <Rbt.Executable>
rbdock ($Id: //depot/dev/client3/rdock/2013.1/src/exe/rbdock.cxx#4 $)

>  <Rbt.Library>
libRbt.so (2013.1, Build901 2013/11/27)

>  <Rbt.Parameter_File>
/export/apps/rDock/src/rDock_2013.1_src/data/scripts/dock_solv.prm

>  <Rbt.Receptor>
prm/pocket_docking_4.prm

>  <SCORE>
-11.9395

>  <SCORE.INTER>
-8.19448

>  <SCORE.INTER.CONST>
1

>  <SCORE.INTER.POLAR>
0

>  <SCORE.INTER.ROT>
3

>  <SCORE.INTER.SOLV>
7.28005

>  <SCORE.INTER.VDW>
-13.4897

>  <SCORE.INTER.norm>
-0.682873

>  <SCORE.INTRA>
-3.74503

>  <SCORE.INTRA.DIHEDRAL>
-4.84559

>  <SCORE.INTRA.DIHEDRAL.0>
5.0186

>  <SCORE.INTRA.POLAR>
0

>  <SCORE.INTRA.POLAR.0>
0

>  <SCORE.INTRA.REPUL>
0

>  <SCORE.INTRA.REPUL.0>
0

>  <SCORE.INTRA.SOLV>
-0.121868

>  <SCORE.INTRA.SOLV.lig_0>
-16.1608

>  <SCORE.INTRA.VDW>
-1.2613

>  <SCORE.INTRA.VDW.0>
1.14169

>  <SCORE.INTRA.norm>
-0.312085

>  <SCORE.RESTR>
0

>  <SCORE.RESTR.CAVITY>
0

>  <SCORE.RESTR.norm>
0

>  <SCORE.SYSTEM>
0

>  <SCORE.SYSTEM.CONST>
0

>  <SCORE.SYSTEM.DIHEDRAL>
0

>  <SCORE.SYSTEM.SOLV>
0

>  <SCORE.SYSTEM.norm>
0

>  <SCORE.heavy>
12

>  <SCORE.norm>
-0.994959

>  <RMSD>
3.403

$$$$
ligand
 OpenBabel11021811493D
libRbt.so/2013.1/901 2013/11/27
 12 12  0  0  0  0  0  0  0  0999 V2000
   30.2166  -24.3132    3.7510 N   0  0  0  0  0  0  0  0  0  0  0  0
   31.7066  -23.5300    7.9958 O   0  0  0  0  0  0  0  0  0  0  0  0
   30.5501  -25.5750    3.0456 C   0  0  0  0  0  0  0  0  0  0  0  0
   32.7926  -21.8542    6.7372 O   0  0  0  0  0  0  0  0  0  0  0  0
   29.5954  -25.7333    1.8668 C   0  0  0  0  0  0  0  0  0  0  0  0
   30.8988  -21.2369    8.1750 O   0  0  0  0  0  0  0  0  0  0  0  0
   29.8177  -24.6484    0.9062 N   0  0  0  0  0  0  0  0  0  0  0  0
   30.8482  -23.7619    1.4526 C   0  0  0  0  0  0  0  0  0  0  0  0
   30.3102  -23.2184    2.7652 C   0  0  0  0  0  0  0  0  0  0  0  0
   31.0434  -24.0081    4.9857 C   0  0  0  0  0  0  0  0  0  0  0  0
   30.6000  -22.7883    5.8351 C   0  0  0  0  0  0  0  0  0  0  0  0
   31.5223  -22.3607    7.1878 S   0  0  0  0  0  0  0  0  0  0  0  0
  1  3  1  0  0  0  0
  1  9  1  0  0  0  0
  1 10  1  0  0  0  0
  2 12  1  0  0  0  0
  3  5  1  0  0  0  0
  4 12  2  0  0  0  0
  5  7  1  0  0  0  0
  6 12  2  0  0  0  0
  7  8  1  0  0  0  0
  8  9  1  0  0  0  0
 10 11  1  0  0  0  0
 11 12  1  0  0  0  0
M  END
>  <CHROM.1>
-172.75531184,-177.48071461,-51.26421936,30.92071233,-23.42815887,4.90051261
2.58735499,-1.29500674,-0.99418453

>  <Name>
ligand

>  <RI>
0

>  <Rbt.Current_Directory>
/home/itssahil/PROJECTS/Mol_Feturizer/New_Systems/rnas/4E8N

>  <Rbt.Executable>
rbdock ($Id: //depot/dev/client3/rdock/2013.1/src/exe/rbdock.cxx#4 $)

>  <Rbt.Library>
libRbt.so (2013.1, Build901 2013/11/27)

>  <Rbt.Parameter_File>
/export/apps/rDock/src/rDock_2013.1_src/data/scripts/dock_solv.prm

>  <Rbt.Receptor>
prm/pocket_docking_7.prm

>  <SCORE>
-11.9706

>  <SCORE.INTER>
-8.23422

>  <SCORE.INTER.CONST>
1

>  <SCORE.INTER.POLAR>
0

>  <SCORE.INTER.ROT>
3

>  <SCORE.INTER.SOLV>
7.58832

>  <SCORE.INTER.VDW>
-13.6189

>  <SCORE.INTER.norm>
-0.686185

>  <SCORE.INTRA>
-3.73636

>  <SCORE.INTRA.DIHEDRAL>
-4.74015

>  <SCORE.INTRA.DIHEDRAL.0>
5.0186

>  <SCORE.INTRA.POLAR>
0

>  <SCORE.INTRA.POLAR.0>
0

>  <SCORE.INTRA.REPUL>
0

>  <SCORE.INTRA.REPUL.0>
0

>  <SCORE.INTRA.SOLV>
-0.124782

>  <SCORE.INTRA.SOLV.lig_0>
-16.1608

>  <SCORE.INTRA.VDW>
-1.30389

>  <SCORE.INTRA.VDW.0>
1.14169

>  <SCORE.INTRA.norm>
-0.311363

>  <SCORE.RESTR>
0

>  <SCORE.RESTR.CAVITY>
0

>  <SCORE.RESTR.norm>
0

>  <SCORE.SYSTEM>
0

>  <SCORE.SYSTEM.CONST>
0

>  <SCORE.SYSTEM.DIHEDRAL>
0

>  <SCORE.SYSTEM.SOLV>
0

>  <SCORE.SYSTEM.norm>
0

>  <SCORE.heavy>
12

>  <SCORE.norm>
-0.997548

>  <RMSD>
3.422

$$$$
ligand
 OpenBabel11021811493D
libRbt.so/2013.1/901 2013/11/27
 12 12  0  0  0  0  0  0  0  0999 V2000
   30.2341  -24.3083    3.7353 N   0  0  0  0  0  0  0  0  0  0  0  0
   31.6937  -23.5330    8.0045 O   0  0  0  0  0  0  0  0  0  0  0  0
   30.5543  -25.5815    3.0442 C   0  0  0  0  0  0  0  0  0  0  0  0
   32.8049  -21.8825    6.7345 O   0  0  0  0  0  0  0  0  0  0  0  0
   29.5895  -25.7495    1.8750 C   0  0  0  0  0  0  0  0  0  0  0  0
   30.9133  -21.2287    8.1589 O   0  0  0  0  0  0  0  0  0  0  0  0
   29.8110  -24.6789    0.8984 N   0  0  0  0  0  0  0  0  0  0  0  0
   30.8511  -23.7916    1.4249 C   0  0  0  0  0  0  0  0  0  0  0  0
   30.3267  -23.2274    2.7343 C   0  0  0  0  0  0  0  0  0  0  0  0
   31.0723  -23.9921    4.9594 C   0  0  0  0  0  0  0  0  0  0  0  0
   30.6046  -22.7985    5.8325 C   0  0  0  0  0  0  0  0  0  0  0  0
   31.5268  -22.3693    7.1848 S   0  0  0  0  0  0  0  0  0  0  0  0
  1  3  1  0  0  0  0
  1  9  1  0  0  0  0
  1 10  1  0  0  0  0
  2 12  1  0  0  0  0
  3  5  1  0  0  0  0
  4 12  2  0  0  0  0
  5  7  1  0  0  0  0
  6 12  2  0  0  0  0
  7  8  1  0  0  0  0
  8  9  1  0  0  0  0
 10 11  1  0  0  0  0
 11 12  1  0  0  0  0
M  END
>  <CHROM.1>
-170.00288321,-178.17054174,-54.00439338,30.92713041,-23.43741286,4.89155296
2.57516778,-1.29292863,-1.00726633

>  <Name>
ligand

>  <RI>
0

>  <Rbt.Current_Directory>
/home/itssahil/PROJECTS/Mol_Feturizer/New_Systems/rnas/4E8N

>  <Rbt.Executable>
rbdock ($Id: //depot/dev/client3/rdock/2013.1/src/exe/rbdock.cxx#4 $)

>  <Rbt.Library>
libRbt.so (2013.1, Build901 2013/11/27)

>  <Rbt.Parameter_File>
/export/apps/rDock/src/rDock_2013.1_src/data/scripts/dock_solv.prm

>  <Rbt.Receptor>
prm/pocket_docking_7.prm

>  <SCORE>
-11.9881

>  <SCORE.INTER>
-8.14811

>  <SCORE.INTER.CONST>
1

>  <SCORE.INTER.POLAR>
0

>  <SCORE.INTER.ROT>
3

>  <SCORE.INTER.SOLV>
7.56381

>  <SCORE.INTER.VDW>
-13.5533

>  <SCORE.INTER.norm>
-0.679009

>  <SCORE.INTRA>
-3.83994

>  <SCORE.INTRA.DIHEDRAL>
-4.78838

>  <SCORE.INTRA.DIHEDRAL.0>
5.0186

>  <SCORE.INTRA.POLAR>
0

>  <SCORE.INTRA.POLAR.0>
0

>  <SCORE.INTRA.REPUL>
0

>  <SCORE.INTRA.REPUL.0>
0

>  <SCORE.INTRA.SOLV>
-0.120306

>  <SCORE.INTRA.SOLV.lig_0>
-16.1608

>  <SCORE.INTRA.VDW>
-1.3856

>  <SCORE.INTRA.VDW.0>
1.14169

>  <SCORE.INTRA.norm>
-0.319995

>  <SCORE.RESTR>
0

>  <SCORE.RESTR.CAVITY>
0

>  <SCORE.RESTR.norm>
0

>  <SCORE.SYSTEM>
0

>  <SCORE.SYSTEM.CONST>
0

>  <SCORE.SYSTEM.DIHEDRAL>
0

>  <SCORE.SYSTEM.SOLV>
0

>  <SCORE.SYSTEM.norm>
0

>  <SCORE.heavy>
12

>  <SCORE.norm>
-0.999005

>  <RMSD>
3.432

$$$$
ligand
 OpenBabel11021811493D
libRbt.so/2013.1/901 2013/11/27
 12 12  0  0  0  0  0  0  0  0999 V2000
   30.2406  -24.3450    3.7591 N   0  0  0  0  0  0  0  0  0  0  0  0
   31.7357  -23.5161    8.0030 O   0  0  0  0  0  0  0  0  0  0  0  0
   30.6510  -25.5601    3.0134 C   0  0  0  0  0  0  0  0  0  0  0  0
   32.7769  -21.8302    6.7203 O   0  0  0  0  0  0  0  0  0  0  0  0
   29.6529  -25.7904    1.8834 C   0  0  0  0  0  0  0  0  0  0  0  0
   30.8832  -21.2383    8.1689 O   0  0  0  0  0  0  0  0  0  0  0  0
   29.7217  -24.6762    0.9333 N   0  0  0  0  0  0  0  0  0  0  0  0
   30.6936  -23.7050    1.4416 C   0  0  0  0  0  0  0  0  0  0  0  0
   30.1791  -23.2326    2.7907 C   0  0  0  0  0  0  0  0  0  0  0  0
   31.1010  -23.9813    4.9544 C   0  0  0  0  0  0  0  0  0  0  0  0
   30.5961  -22.8165    5.8454 C   0  0  0  0  0  0  0  0  0  0  0  0
   31.5209  -22.3582    7.1863 S   0  0  0  0  0  0  0  0  0  0  0  0
  1  3  1  0  0  0  0
  1  9  1  0  0  0  0
  1 10  1  0  0  0  0
  2 12  1  0  0  0  0
  3  5  1  0  0  0  0
  4 12  2  0  0  0  0
  5  7  1  0  0  0  0
  6 12  2  0  0  0  0
  7  8  1  0  0  0  0
  8  9  1  0  0  0  0
 10 11  1  0  0  0  0
 11 12  1  0  0  0  0
M  END
>  <CHROM.1>
-173.00152576,-179.52522982,-54.83151543,30.90968495,-23.42910326,4.89989189
2.98727953,-1.32853525,-0.58402132

>  <Name>
ligand

>  <RI>
0

>  <Rbt.Current_Directory>
/home/itssahil/PROJECTS/Mol_Feturizer/New_Systems/rnas/4E8N

>  <Rbt.Executable>
rbdock ($Id: //depot/dev/client3/rdock/2013.1/src/exe/rbdock.cxx#4 $)

>  <Rbt.Library>
libRbt.so (2013.1, Build901 2013/11/27)

>  <Rbt.Parameter_File>
/export/apps/rDock/src/rDock_2013.1_src/data/scripts/dock_solv.prm

>  <Rbt.Receptor>
prm/pocket_docking_7.prm

>  <SCORE>
-12.1779

>  <SCORE.INTER>
-8.37003

>  <SCORE.INTER.CONST>
1

>  <SCORE.INTER.POLAR>
0

>  <SCORE.INTER.ROT>
3

>  <SCORE.INTER.SOLV>
7.43026

>  <SCORE.INTER.VDW>
-13.6568

>  <SCORE.INTER.norm>
-0.697503

>  <SCORE.INTRA>
-3.80786

>  <SCORE.INTRA.DIHEDRAL>
-4.89152

>  <SCORE.INTRA.DIHEDRAL.0>
5.0186

>  <SCORE.INTRA.POLAR>
0

>  <SCORE.INTRA.POLAR.0>
0

>  <SCORE.INTRA.REPUL>
0

>  <SCORE.INTRA.REPUL.0>
0

>  <SCORE.INTRA.SOLV>
-0.118229

>  <SCORE.INTRA.SOLV.lig_0>
-16.1608

>  <SCORE.INTRA.VDW>
-1.30299

>  <SCORE.INTRA.VDW.0>
1.14169

>  <SCORE.INTRA.norm>
-0.317322

>  <SCORE.RESTR>
0

>  <SCORE.RESTR.CAVITY>
0

>  <SCORE.RESTR.norm>
0

>  <SCORE.SYSTEM>
0

>  <SCORE.SYSTEM.CONST>
0

>  <SCORE.SYSTEM.DIHEDRAL>
0

>  <SCORE.SYSTEM.SOLV>
0

>  <SCORE.SYSTEM.norm>
0

>  <SCORE.heavy>
12

>  <SCORE.norm>
-1.01482

>  <RMSD>
3.432

$$$$
ligand
 OpenBabel11021811493D
libRbt.so/2013.1/901 2013/11/27
 12 12  0  0  0  0  0  0  0  0999 V2000
   30.8761  -23.6599    3.9722 N   0  0  0  0  0  0  0  0  0  0  0  0
   31.9620  -23.4930    7.9713 O   0  0  0  0  0  0  0  0  0  0  0  0
   30.0038  -23.4472    2.7912 C   0  0  0  0  0  0  0  0  0  0  0  0
   33.1960  -22.5995    6.1684 O   0  0  0  0  0  0  0  0  0  0  0  0
   30.8467  -23.6260    1.5328 C   0  0  0  0  0  0  0  0  0  0  0  0
   32.4919  -21.1137    7.9935 O   0  0  0  0  0  0  0  0  0  0  0  0
   31.3234  -25.0101    1.4540 N   0  0  0  0  0  0  0  0  0  0  0  0
   30.8613  -25.7185    2.6502 C   0  0  0  0  0  0  0  0  0  0  0  0
   31.4694  -25.0057    3.8461 C   0  0  0  0  0  0  0  0  0  0  0  0
   30.2126  -23.4804    5.3245 C   0  0  0  0  0  0  0  0  0  0  0  0
   30.6703  -22.2609    6.1667 C   0  0  0  0  0  0  0  0  0  0  0  0
   32.0950  -22.3857    7.0712 S   0  0  0  0  0  0  0  0  0  0  0  0
  1  3  1  0  0  0  0
  1  9  1  0  0  0  0
  1 10  1  0  0  0  0
  2 12  1  0  0  0  0
  3  5  1  0  0  0  0
  4 12  2  0  0  0  0
  5  7  1  0  0  0  0
  6 12  2  0  0  0  0
  7  8  1  0  0  0  0
  8  9  1  0  0  0  0
 10 11  1  0  0  0  0
 11 12  1  0  0  0  0
M  END
>  <CHROM.1>
-111.72427787,-81.50698743,-57.67679994,31.44291525,-23.34694091,5.04487080
2.00420814,0.98417866,-2.36648609

>  <Name>
ligand

>  <RI>
0

>  <Rbt.Current_Directory>
/home/itssahil/PROJECTS/Mol_Feturizer/New_Systems/rnas/4E8N

>  <Rbt.Executable>
rbdock ($Id: //depot/dev/client3/rdock/2013.1/src/exe/rbdock.cxx#4 $)

>  <Rbt.Library>
libRbt.so (2013.1, Build901 2013/11/27)

>  <Rbt.Parameter_File>
/export/apps/rDock/src/rDock_2013.1_src/data/scripts/dock_solv.prm

>  <Rbt.Receptor>
prm/pocket_docking_8.prm

>  <SCORE>
-11.5955

>  <SCORE.INTER>
-8.96755

>  <SCORE.INTER.CONST>
1

>  <SCORE.INTER.POLAR>
0

>  <SCORE.INTER.ROT>
3

>  <SCORE.INTER.SOLV>
5.9811

>  <SCORE.INTER.VDW>
-13.5721

>  <SCORE.INTER.norm>
-0.747296

>  <SCORE.INTRA>
-2.62795

>  <SCORE.INTRA.DIHEDRAL>
-1.10867

>  <SCORE.INTRA.DIHEDRAL.0>
5.0186

>  <SCORE.INTRA.POLAR>
0

>  <SCORE.INTRA.POLAR.0>
0

>  <SCORE.INTRA.REPUL>
0

>  <SCORE.INTRA.REPUL.0>
0

>  <SCORE.INTRA.SOLV>
0.329108

>  <SCORE.INTRA.SOLV.lig_0>
-16.1608

>  <SCORE.INTRA.VDW>
-2.23817

>  <SCORE.INTRA.VDW.0>
1.14169

>  <SCORE.INTRA.norm>
-0.218996

>  <SCORE.RESTR>
0

>  <SCORE.RESTR.CAVITY>
0

>  <SCORE.RESTR.norm>
0

>  <SCORE.SYSTEM>
0

>  <SCORE.SYSTEM.CONST>
0

>  <SCORE.SYSTEM.DIHEDRAL>
0

>  <SCORE.SYSTEM.SOLV>
0

>  <SCORE.SYSTEM.norm>
0

>  <SCORE.heavy>
12

>  <SCORE.norm>
-0.966292

>  <RMSD>
3.437

$$$$
ligand
 OpenBabel11021811493D
libRbt.so/2013.1/901 2013/11/27
 12 12  0  0  0  0  0  0  0  0999 V2000
   30.2606  -23.5441    3.4424 N   0  0  0  0  0  0  0  0  0  0  0  0
   31.7453  -23.5511    7.9188 O   0  0  0  0  0  0  0  0  0  0  0  0
   29.5207  -24.8233    3.5732 C   0  0  0  0  0  0  0  0  0  0  0  0
   32.8416  -21.8354    6.7245 O   0  0  0  0  0  0  0  0  0  0  0  0
   28.5909  -24.9656    2.3726 C   0  0  0  0  0  0  0  0  0  0  0  0
   31.0388  -21.2470    8.2860 O   0  0  0  0  0  0  0  0  0  0  0  0
   29.3864  -25.0687    1.1456 N   0  0  0  0  0  0  0  0  0  0  0  0
   30.8000  -24.9423    1.5086 C   0  0  0  0  0  0  0  0  0  0  0  0
   30.9695  -23.5747    2.1480 C   0  0  0  0  0  0  0  0  0  0  0  0
   31.2106  -23.2114    4.5773 C   0  0  0  0  0  0  0  0  0  0  0  0
   30.5760  -22.6244    5.8652 C   0  0  0  0  0  0  0  0  0  0  0  0
   31.5729  -22.3238    7.1991 S   0  0  0  0  0  0  0  0  0  0  0  0
  1  3  1  0  0  0  0
  1  9  1  0  0  0  0
  1 10  1  0  0  0  0
  2 12  1  0  0  0  0
  3  5  1  0  0  0  0
  4 12  2  0  0  0  0
  5  7  1  0  0  0  0
  6 12  2  0  0  0  0
  7  8  1  0  0  0  0
  8  9  1  0  0  0  0
 10 11  1  0  0  0  0
 11 12  1  0  0  0  0
M  END
>  <CHROM.1>
-79.54079864,176.24898167,-82.58163093,30.82651712,-23.32878106,4.90598741
-1.91016450,0.48666627,1.30558122

>  <Name>
ligand

>  <RI>
0

>  <Rbt.Current_Directory>
/home/itssahil/PROJECTS/Mol_Feturizer/New_Systems/rnas/4E8N

>  <Rbt.Executable>
rbdock ($Id: //depot/dev/client3/rdock/2013.1/src/exe/rbdock.cxx#4 $)

>  <Rbt.Library>
libRbt.so (2013.1, Build901 2013/11/27)

>  <Rbt.Parameter_File>
/export/apps/rDock/src/rDock_2013.1_src/data/scripts/dock_solv.prm

>  <Rbt.Receptor>
prm/pocket_docking_6.prm

>  <SCORE>
-12.3808

>  <SCORE.INTER>
-9.08234

>  <SCORE.INTER.CONST>
1

>  <SCORE.INTER.POLAR>
0

>  <SCORE.INTER.ROT>
3

>  <SCORE.INTER.SOLV>
6.34768

>  <SCORE.INTER.VDW>
-13.7708

>  <SCORE.INTER.norm>
-0.756861

>  <SCORE.INTRA>
-3.29848

>  <SCORE.INTRA.DIHEDRAL>
-3.21434

>  <SCORE.INTRA.DIHEDRAL.0>
5.0186

>  <SCORE.INTRA.POLAR>
0

>  <SCORE.INTRA.POLAR.0>
0

>  <SCORE.INTRA.REPUL>
0

>  <SCORE.INTRA.REPUL.0>
0

>  <SCORE.INTRA.SOLV>
-0.0630313

>  <SCORE.INTRA.SOLV.lig_0>
-16.1608

>  <SCORE.INTRA.VDW>
-1.6598

>  <SCORE.INTRA.VDW.0>
1.14169

>  <SCORE.INTRA.norm>
-0.274873

>  <SCORE.RESTR>
0

>  <SCORE.RESTR.CAVITY>
0

>  <SCORE.RESTR.norm>
0

>  <SCORE.SYSTEM>
0

>  <SCORE.SYSTEM.CONST>
0

>  <SCORE.SYSTEM.DIHEDRAL>
0

>  <SCORE.SYSTEM.SOLV>
0

>  <SCORE.SYSTEM.norm>
0

>  <SCORE.heavy>
12

>  <SCORE.norm>
-1.03173

>  <RMSD>
3.439

$$$$
ligand
 OpenBabel11021811493D
libRbt.so/2013.1/901 2013/11/27
 12 12  0  0  0  0  0  0  0  0999 V2000
   29.9799  -24.6685    3.8993 N   0  0  0  0  0  0  0  0  0  0  0  0
   30.4297  -21.3937    7.0963 O   0  0  0  0  0  0  0  0  0  0  0  0
   31.1242  -25.4080    3.3122 C   0  0  0  0  0  0  0  0  0  0  0  0
   31.8356  -23.1406    7.8336 O   0  0  0  0  0  0  0  0  0  0  0  0
   30.6800  -26.0012    1.9792 C   0  0  0  0  0  0  0  0  0  0  0  0
   32.8407  -21.1217    6.8596 O   0  0  0  0  0  0  0  0  0  0  0  0
   30.3595  -24.9194    1.0432 N   0  0  0  0  0  0  0  0  0  0  0  0
   30.5294  -23.6453    1.7460 C   0  0  0  0  0  0  0  0  0  0  0  0
   29.5577  -23.6539    2.9137 C   0  0  0  0  0  0  0  0  0  0  0  0
   30.2263  -24.0404    5.2579 C   0  0  0  0  0  0  0  0  0  0  0  0
   31.3509  -22.9751    5.3373 C   0  0  0  0  0  0  0  0  0  0  0  0
   31.6015  -22.1644    6.8014 S   0  0  0  0  0  0  0  0  0  0  0  0
  1  3  1  0  0  0  0
  1  9  1  0  0  0  0
  1 10  1  0  0  0  0
  2 12  1  0  0  0  0
  3  5  1  0  0  0  0
  4 12  2  0  0  0  0
  5  7  1  0  0  0  0
  6 12  2  0  0  0  0
  7  8  1  0  0  0  0
  8  9  1  0  0  0  0
 10 11  1  0  0  0  0
 11 12  1  0  0  0  0
M  END
>  <CHROM.1>
60.87180114,175.90612105,-64.05810893,30.96987262,-23.40734748,4.80718930
-2.71242993,-1.32500952,-0.09014368

>  <Name>
ligand

>  <RI>
0

>  <Rbt.Current_Directory>
/home/itssahil/PROJECTS/Mol_Feturizer/New_Systems/rnas/4E8N

>  <Rbt.Executable>
rbdock ($Id: //depot/dev/client3/rdock/2013.1/src/exe/rbdock.cxx#4 $)

>  <Rbt.Library>
libRbt.so (2013.1, Build901 2013/11/27)

>  <Rbt.Parameter_File>
/export/apps/rDock/src/rDock_2013.1_src/data/scripts/dock_solv.prm

>  <Rbt.Receptor>
prm/pocket_docking_4.prm

>  <SCORE>
-12.137

>  <SCORE.INTER>
-8.62535

>  <SCORE.INTER.CONST>
1

>  <SCORE.INTER.POLAR>
0

>  <SCORE.INTER.ROT>
3

>  <SCORE.INTER.SOLV>
7.68377

>  <SCORE.INTER.VDW>
-13.9115

>  <SCORE.INTER.norm>
-0.718779

>  <SCORE.INTRA>
-3.5117

>  <SCORE.INTRA.DIHEDRAL>
-4.91577

>  <SCORE.INTRA.DIHEDRAL.0>
5.0186

>  <SCORE.INTRA.POLAR>
0

>  <SCORE.INTRA.POLAR.0>
0

>  <SCORE.INTRA.REPUL>
0

>  <SCORE.INTRA.REPUL.0>
0

>  <SCORE.INTRA.SOLV>
-0.0876666

>  <SCORE.INTRA.SOLV.lig_0>
-16.1608

>  <SCORE.INTRA.VDW>
-1.00998

>  <SCORE.INTRA.VDW.0>
1.14169

>  <SCORE.INTRA.norm>
-0.292641

>  <SCORE.RESTR>
0

>  <SCORE.RESTR.CAVITY>
0

>  <SCORE.RESTR.norm>
0

>  <SCORE.SYSTEM>
0

>  <SCORE.SYSTEM.CONST>
0

>  <SCORE.SYSTEM.DIHEDRAL>
0

>  <SCORE.SYSTEM.SOLV>
0

>  <SCORE.SYSTEM.norm>
0

>  <SCORE.heavy>
12

>  <SCORE.norm>
-1.01142

>  <RMSD>
3.442

$$$$
ligand
 OpenBabel11021811493D
libRbt.so/2013.1/901 2013/11/27
 12 12  0  0  0  0  0  0  0  0999 V2000
   30.4950  -24.0102    3.6902 N   0  0  0  0  0  0  0  0  0  0  0  0
   30.2569  -21.2284    7.3989 O   0  0  0  0  0  0  0  0  0  0  0  0
   29.3236  -24.7955    3.2295 C   0  0  0  0  0  0  0  0  0  0  0  0
   31.6426  -23.0392    8.0091 O   0  0  0  0  0  0  0  0  0  0  0  0
   29.5307  -25.1507    1.7608 C   0  0  0  0  0  0  0  0  0  0  0  0
   32.6612  -20.8528    7.5430 O   0  0  0  0  0  0  0  0  0  0  0  0
   30.6979  -26.0277    1.6280 N   0  0  0  0  0  0  0  0  0  0  0  0
   31.2854  -26.2067    2.9580 C   0  0  0  0  0  0  0  0  0  0  0  0
   31.6989  -24.8286    3.4455 C   0  0  0  0  0  0  0  0  0  0  0  0
   30.4443  -23.5301    5.1283 C   0  0  0  0  0  0  0  0  0  0  0  0
   31.4769  -22.4469    5.5361 C   0  0  0  0  0  0  0  0  0  0  0  0
   31.4946  -21.9022    7.1381 S   0  0  0  0  0  0  0  0  0  0  0  0
  1  3  1  0  0  0  0
  1  9  1  0  0  0  0
  1 10  1  0  0  0  0
  2 12  1  0  0  0  0
  3  5  1  0  0  0  0
  4 12  2  0  0  0  0
  5  7  1  0  0  0  0
  6 12  2  0  0  0  0
  7  8  1  0  0  0  0
  8  9  1  0  0  0  0
 10 11  1  0  0  0  0
 11 12  1  0  0  0  0
M  END
>  <CHROM.1>
-166.27748945,-178.42071190,-65.13659907,30.99011491,-23.44191426,5.09771695
1.76912961,0.37311176,-2.28983131

>  <Name>
ligand

>  <RI>
0

>  <Rbt.Current_Directory>
/home/itssahil/PROJECTS/Mol_Feturizer/New_Systems/rnas/4E8N

>  <Rbt.Executable>
rbdock ($Id: //depot/dev/client3/rdock/2013.1/src/exe/rbdock.cxx#4 $)

>  <Rbt.Library>
libRbt.so (2013.1, Build901 2013/11/27)

>  <Rbt.Parameter_File>
/export/apps/rDock/src/rDock_2013.1_src/data/scripts/dock_solv.prm

>  <Rbt.Receptor>
prm/pocket_docking_8.prm

>  <SCORE>
-11.3014

>  <SCORE.INTER>
-7.42098

>  <SCORE.INTER.CONST>
1

>  <SCORE.INTER.POLAR>
0

>  <SCORE.INTER.ROT>
3

>  <SCORE.INTER.SOLV>
5.19404

>  <SCORE.INTER.VDW>
-12.2787

>  <SCORE.INTER.norm>
-0.618415

>  <SCORE.INTRA>
-3.88046

>  <SCORE.INTRA.DIHEDRAL>
-4.7077

>  <SCORE.INTRA.DIHEDRAL.0>
5.0186

>  <SCORE.INTRA.POLAR>
0

>  <SCORE.INTRA.POLAR.0>
0

>  <SCORE.INTRA.REPUL>
0

>  <SCORE.INTRA.REPUL.0>
0

>  <SCORE.INTRA.SOLV>
-0.0980971

>  <SCORE.INTRA.SOLV.lig_0>
-16.1608

>  <SCORE.INTRA.VDW>
-1.47757

>  <SCORE.INTRA.VDW.0>
1.14169

>  <SCORE.INTRA.norm>
-0.323372

>  <SCORE.RESTR>
0

>  <SCORE.RESTR.CAVITY>
0

>  <SCORE.RESTR.norm>
0

>  <SCORE.SYSTEM>
0

>  <SCORE.SYSTEM.CONST>
0

>  <SCORE.SYSTEM.DIHEDRAL>
0

>  <SCORE.SYSTEM.SOLV>
0

>  <SCORE.SYSTEM.norm>
0

>  <SCORE.heavy>
12

>  <SCORE.norm>
-0.941787

>  <RMSD>
3.459

$$$$
ligand
 OpenBabel11021811493D
libRbt.so/2013.1/901 2013/11/27
 12 12  0  0  0  0  0  0  0  0999 V2000
   30.5088  -23.7714    3.3634 N   0  0  0  0  0  0  0  0  0  0  0  0
   32.8400  -21.8936    6.8072 O   0  0  0  0  0  0  0  0  0  0  0  0
   29.4409  -24.7883    3.5261 C   0  0  0  0  0  0  0  0  0  0  0  0
   30.8256  -21.4414    7.9515 O   0  0  0  0  0  0  0  0  0  0  0  0
   28.6776  -24.8982    2.2103 C   0  0  0  0  0  0  0  0  0  0  0  0
   31.8160  -23.6841    8.1065 O   0  0  0  0  0  0  0  0  0  0  0  0
   29.5735  -25.3995    1.1637 N   0  0  0  0  0  0  0  0  0  0  0  0
   30.9067  -25.5651    1.7479 C   0  0  0  0  0  0  0  0  0  0  0  0
   31.3508  -24.1934    2.2268 C   0  0  0  0  0  0  0  0  0  0  0  0
   31.3516  -23.4957    4.5943 C   0  0  0  0  0  0  0  0  0  0  0  0
   30.6803  -22.6753    5.7266 C   0  0  0  0  0  0  0  0  0  0  0  0
   31.5454  -22.4007    7.1547 S   0  0  0  0  0  0  0  0  0  0  0  0
  1  3  1  0  0  0  0
  1  9  1  0  0  0  0
  1 10  1  0  0  0  0
  2 12  1  0  0  0  0
  3  5  1  0  0  0  0
  4 12  2  0  0  0  0
  5  7  1  0  0  0  0
  6 12  2  0  0  0  0
  7  8  1  0  0  0  0
  8  9  1  0  0  0  0
 10 11  1  0  0  0  0
 11 12  1  0  0  0  0
M  END
>  <CHROM.1>
-73.83115016,177.07698074,50.26880832,30.89567448,-23.52193849,4.88787552
-1.84717915,0.16554297,1.15831668

>  <Name>
ligand

>  <RI>
0

>  <Rbt.Current_Directory>
/home/itssahil/PROJECTS/Mol_Feturizer/New_Systems/rnas/4E8N

>  <Rbt.Executable>
rbdock ($Id: //depot/dev/client3/rdock/2013.1/src/exe/rbdock.cxx#4 $)

>  <Rbt.Library>
libRbt.so (2013.1, Build901 2013/11/27)

>  <Rbt.Parameter_File>
/export/apps/rDock/src/rDock_2013.1_src/data/scripts/dock_solv.prm

>  <Rbt.Receptor>
prm/pocket_docking_6.prm

>  <SCORE>
-11.8274

>  <SCORE.INTER>
-7.90133

>  <SCORE.INTER.CONST>
1

>  <SCORE.INTER.POLAR>
0

>  <SCORE.INTER.ROT>
3

>  <SCORE.INTER.SOLV>
7.31498

>  <SCORE.INTER.VDW>
-13.3059

>  <SCORE.INTER.norm>
-0.658445

>  <SCORE.INTRA>
-3.92603

>  <SCORE.INTRA.DIHEDRAL>
-4.40361

>  <SCORE.INTRA.DIHEDRAL.0>
5.0186

>  <SCORE.INTRA.POLAR>
0

>  <SCORE.INTRA.POLAR.0>
0

>  <SCORE.INTRA.REPUL>
0

>  <SCORE.INTRA.REPUL.0>
0

>  <SCORE.INTRA.SOLV>
-0.127929

>  <SCORE.INTRA.SOLV.lig_0>
-16.1608

>  <SCORE.INTRA.VDW>
-1.66027

>  <SCORE.INTRA.VDW.0>
1.14169

>  <SCORE.INTRA.norm>
-0.32717

>  <SCORE.RESTR>
0

>  <SCORE.RESTR.CAVITY>
0

>  <SCORE.RESTR.norm>
0

>  <SCORE.SYSTEM>
0

>  <SCORE.SYSTEM.CONST>
0

>  <SCORE.SYSTEM.DIHEDRAL>
0

>  <SCORE.SYSTEM.SOLV>
0

>  <SCORE.SYSTEM.norm>
0

>  <SCORE.heavy>
12

>  <SCORE.norm>
-0.985614

>  <RMSD>
3.462

$$$$
ligand
 OpenBabel11021811493D
libRbt.so/2013.1/901 2013/11/27
 12 12  0  0  0  0  0  0  0  0999 V2000
   30.2336  -24.3776    3.7537 N   0  0  0  0  0  0  0  0  0  0  0  0
   31.7355  -23.5341    7.9944 O   0  0  0  0  0  0  0  0  0  0  0  0
   30.6349  -25.6013    3.0172 C   0  0  0  0  0  0  0  0  0  0  0  0
   32.7906  -21.8675    6.6978 O   0  0  0  0  0  0  0  0  0  0  0  0
   29.6266  -25.8410    1.8982 C   0  0  0  0  0  0  0  0  0  0  0  0
   30.9034  -21.2476    8.1431 O   0  0  0  0  0  0  0  0  0  0  0  0
   29.6899  -24.7367    0.9360 N   0  0  0  0  0  0  0  0  0  0  0  0
   30.6682  -23.7626    1.4260 C   0  0  0  0  0  0  0  0  0  0  0  0
   30.1664  -23.2752    2.7744 C   0  0  0  0  0  0  0  0  0  0  0  0
   31.1050  -24.0037    4.9378 C   0  0  0  0  0  0  0  0  0  0  0  0
   30.6004  -22.8412    5.8323 C   0  0  0  0  0  0  0  0  0  0  0  0
   31.5304  -22.3807    7.1688 S   0  0  0  0  0  0  0  0  0  0  0  0
  1  3  1  0  0  0  0
  1  9  1  0  0  0  0
  1 10  1  0  0  0  0
  2 12  1  0  0  0  0
  3  5  1  0  0  0  0
  4 12  2  0  0  0  0
  5  7  1  0  0  0  0
  6 12  2  0  0  0  0
  7  8  1  0  0  0  0
  8  9  1  0  0  0  0
 10 11  1  0  0  0  0
 11 12  1  0  0  0  0
M  END
>  <CHROM.1>
-172.19262582,179.94621910,-55.72463204,30.90598342,-23.46246638,4.88891378
2.99353379,-1.32326009,-0.58322745

>  <Name>
ligand

>  <RI>
0

>  <Rbt.Current_Directory>
/home/itssahil/PROJECTS/Mol_Feturizer/New_Systems/rnas/4E8N

>  <Rbt.Executable>
rbdock ($Id: //depot/dev/client3/rdock/2013.1/src/exe/rbdock.cxx#4 $)

>  <Rbt.Library>
libRbt.so (2013.1, Build901 2013/11/27)

>  <Rbt.Parameter_File>
/export/apps/rDock/src/rDock_2013.1_src/data/scripts/dock_solv.prm

>  <Rbt.Receptor>
prm/pocket_docking_5.prm

>  <SCORE>
-12.1088

>  <SCORE.INTER>
-8.27375

>  <SCORE.INTER.CONST>
1

>  <SCORE.INTER.POLAR>
0

>  <SCORE.INTER.ROT>
3

>  <SCORE.INTER.SOLV>
7.39321

>  <SCORE.INTER.VDW>
-13.5802

>  <SCORE.INTER.norm>
-0.689479

>  <SCORE.INTRA>
-3.83504

>  <SCORE.INTRA.DIHEDRAL>
-4.89845

>  <SCORE.INTRA.DIHEDRAL.0>
5.0186

>  <SCORE.INTRA.POLAR>
0

>  <SCORE.INTRA.POLAR.0>
0

>  <SCORE.INTRA.REPUL>
0

>  <SCORE.INTRA.REPUL.0>
0

>  <SCORE.INTRA.SOLV>
-0.116743

>  <SCORE.INTRA.SOLV.lig_0>
-16.1608

>  <SCORE.INTRA.VDW>
-1.32744

>  <SCORE.INTRA.VDW.0>
1.14169

>  <SCORE.INTRA.norm>
-0.319587

>  <SCORE.RESTR>
0

>  <SCORE.RESTR.CAVITY>
0

>  <SCORE.RESTR.norm>
0

>  <SCORE.SYSTEM>
0

>  <SCORE.SYSTEM.CONST>
0

>  <SCORE.SYSTEM.DIHEDRAL>
0

>  <SCORE.SYSTEM.SOLV>
0

>  <SCORE.SYSTEM.norm>
0

>  <SCORE.heavy>
12

>  <SCORE.norm>
-1.00907

>  <RMSD>
3.466

$$$$
ligand
 OpenBabel11021811493D
libRbt.so/2013.1/901 2013/11/27
 12 12  0  0  0  0  0  0  0  0999 V2000
   30.2745  -24.4145    3.7616 N   0  0  0  0  0  0  0  0  0  0  0  0
   31.7555  -23.5243    7.9999 O   0  0  0  0  0  0  0  0  0  0  0  0
   30.7483  -25.5821    2.9785 C   0  0  0  0  0  0  0  0  0  0  0  0
   32.7876  -21.8493    6.6956 O   0  0  0  0  0  0  0  0  0  0  0  0
   29.7285  -25.8711    1.8819 C   0  0  0  0  0  0  0  0  0  0  0  0
   30.8887  -21.2498    8.1342 O   0  0  0  0  0  0  0  0  0  0  0  0
   29.6751  -24.7399    0.9510 N   0  0  0  0  0  0  0  0  0  0  0  0
   30.5882  -23.7045    1.4414 C   0  0  0  0  0  0  0  0  0  0  0  0
   30.0908  -23.2950    2.8172 C   0  0  0  0  0  0  0  0  0  0  0  0
   31.1494  -24.0043    4.9309 C   0  0  0  0  0  0  0  0  0  0  0  0
   30.6139  -22.8609    5.8320 C   0  0  0  0  0  0  0  0  0  0  0  0
   31.5345  -22.3788    7.1674 S   0  0  0  0  0  0  0  0  0  0  0  0
  1  3  1  0  0  0  0
  1  9  1  0  0  0  0
  1 10  1  0  0  0  0
  2 12  1  0  0  0  0
  3  5  1  0  0  0  0
  4 12  2  0  0  0  0
  5  7  1  0  0  0  0
  6 12  2  0  0  0  0
  7  8  1  0  0  0  0
  8  9  1  0  0  0  0
 10 11  1  0  0  0  0
 11 12  1  0  0  0  0
M  END
>  <CHROM.1>
-175.14173200,178.95938546,-56.76407569,30.91734865,-23.46240415,4.88958575
-2.93535673,-1.32267204,-0.21903220

>  <Name>
ligand

>  <RI>
0

>  <Rbt.Current_Directory>
/home/itssahil/PROJECTS/Mol_Feturizer/New_Systems/rnas/4E8N

>  <Rbt.Executable>
rbdock ($Id: //depot/dev/client3/rdock/2013.1/src/exe/rbdock.cxx#4 $)

>  <Rbt.Library>
libRbt.so (2013.1, Build901 2013/11/27)

>  <Rbt.Parameter_File>
/export/apps/rDock/src/rDock_2013.1_src/data/scripts/dock_solv.prm

>  <Rbt.Receptor>
prm/pocket_docking_6.prm

>  <SCORE>
-12.1594

>  <SCORE.INTER>
-8.38332

>  <SCORE.INTER.CONST>
1

>  <SCORE.INTER.POLAR>
0

>  <SCORE.INTER.ROT>
3

>  <SCORE.INTER.SOLV>
7.3099

>  <SCORE.INTER.VDW>
-13.6255

>  <SCORE.INTER.norm>
-0.69861

>  <SCORE.INTRA>
-3.77608

>  <SCORE.INTRA.DIHEDRAL>
-4.96166

>  <SCORE.INTRA.DIHEDRAL.0>
5.0186

>  <SCORE.INTRA.POLAR>
0

>  <SCORE.INTRA.POLAR.0>
0

>  <SCORE.INTRA.REPUL>
0

>  <SCORE.INTRA.REPUL.0>
0

>  <SCORE.INTRA.SOLV>
-0.114073

>  <SCORE.INTRA.SOLV.lig_0>
-16.1608

>  <SCORE.INTRA.VDW>
-1.23822

>  <SCORE.INTRA.VDW.0>
1.14169

>  <SCORE.INTRA.norm>
-0.314673

>  <SCORE.RESTR>
0

>  <SCORE.RESTR.CAVITY>
0

>  <SCORE.RESTR.norm>
0

>  <SCORE.SYSTEM>
0

>  <SCORE.SYSTEM.CONST>
0

>  <SCORE.SYSTEM.DIHEDRAL>
0

>  <SCORE.SYSTEM.SOLV>
0

>  <SCORE.SYSTEM.norm>
0

>  <SCORE.heavy>
12

>  <SCORE.norm>
-1.01328

>  <RMSD>
3.469

$$$$
ligand
 OpenBabel11021811493D
libRbt.so/2013.1/901 2013/11/27
 12 12  0  0  0  0  0  0  0  0999 V2000
   30.8780  -23.7552    3.9618 N   0  0  0  0  0  0  0  0  0  0  0  0
   31.9519  -23.4832    7.9785 O   0  0  0  0  0  0  0  0  0  0  0  0
   29.9694  -23.5939    2.8002 C   0  0  0  0  0  0  0  0  0  0  0  0
   33.1951  -22.5637    6.1950 O   0  0  0  0  0  0  0  0  0  0  0  0
   30.7868  -23.7622    1.5236 C   0  0  0  0  0  0  0  0  0  0  0  0
   32.3940  -21.0859    7.9863 O   0  0  0  0  0  0  0  0  0  0  0  0
   31.3123  -25.1290    1.4542 N   0  0  0  0  0  0  0  0  0  0  0  0
   30.9066  -25.8342    2.6725 C   0  0  0  0  0  0  0  0  0  0  0  0
   31.5173  -25.0802    3.8414 C   0  0  0  0  0  0  0  0  0  0  0  0
   30.2420  -23.5780    5.3275 C   0  0  0  0  0  0  0  0  0  0  0  0
   30.6595  -22.3182    6.1303 C   0  0  0  0  0  0  0  0  0  0  0  0
   32.0658  -22.3812    7.0693 S   0  0  0  0  0  0  0  0  0  0  0  0
  1  3  1  0  0  0  0
  1  9  1  0  0  0  0
  1 10  1  0  0  0  0
  2 12  1  0  0  0  0
  3  5  1  0  0  0  0
  4 12  2  0  0  0  0
  5  7  1  0  0  0  0
  6 12  2  0  0  0  0
  7  8  1  0  0  0  0
  8  9  1  0  0  0  0
 10 11  1  0  0  0  0
 11 12  1  0  0  0  0
M  END
>  <CHROM.1>
-110.86920720,-84.98829708,-55.71664739,31.42958307,-23.40150970,5.04483731
1.97828575,0.96476425,-2.36182012

>  <Name>
ligand

>  <RI>
0

>  <Rbt.Current_Directory>
/home/itssahil/PROJECTS/Mol_Feturizer/New_Systems/rnas/4E8N

>  <Rbt.Executable>
rbdock ($Id: //depot/dev/client3/rdock/2013.1/src/exe/rbdock.cxx#4 $)

>  <Rbt.Library>
libRbt.so (2013.1, Build901 2013/11/27)

>  <Rbt.Parameter_File>
/export/apps/rDock/src/rDock_2013.1_src/data/scripts/dock_solv.prm

>  <Rbt.Receptor>
prm/pocket_docking_8.prm

>  <SCORE>
-11.6003

>  <SCORE.INTER>
-9.22984

>  <SCORE.INTER.CONST>
1

>  <SCORE.INTER.POLAR>
0

>  <SCORE.INTER.ROT>
3

>  <SCORE.INTER.SOLV>
5.83429

>  <SCORE.INTER.VDW>
-13.698

>  <SCORE.INTER.norm>
-0.769153

>  <SCORE.INTRA>
-2.37049

>  <SCORE.INTRA.DIHEDRAL>
-0.623041

>  <SCORE.INTRA.DIHEDRAL.0>
5.0186

>  <SCORE.INTRA.POLAR>
0

>  <SCORE.INTRA.POLAR.0>
0

>  <SCORE.INTRA.REPUL>
0

>  <SCORE.INTRA.REPUL.0>
0

>  <SCORE.INTRA.SOLV>
0.295647

>  <SCORE.INTRA.SOLV.lig_0>
-16.1608

>  <SCORE.INTRA.VDW>
-2.20679

>  <SCORE.INTRA.VDW.0>
1.14169

>  <SCORE.INTRA.norm>
-0.197541

>  <SCORE.RESTR>
0

>  <SCORE.RESTR.CAVITY>
0

>  <SCORE.RESTR.norm>
0

>  <SCORE.SYSTEM>
0

>  <SCORE.SYSTEM.CONST>
0

>  <SCORE.SYSTEM.DIHEDRAL>
0

>  <SCORE.SYSTEM.SOLV>
0

>  <SCORE.SYSTEM.norm>
0

>  <SCORE.heavy>
12

>  <SCORE.norm>
-0.966694

>  <RMSD>
3.474

$$$$
ligand
 OpenBabel11021811493D
libRbt.so/2013.1/901 2013/11/27
 12 12  0  0  0  0  0  0  0  0999 V2000
   30.2398  -24.4164    3.7597 N   0  0  0  0  0  0  0  0  0  0  0  0
   31.7329  -23.5377    7.9955 O   0  0  0  0  0  0  0  0  0  0  0  0
   30.7060  -25.5764    2.9610 C   0  0  0  0  0  0  0  0  0  0  0  0
   32.8094  -21.8960    6.6849 O   0  0  0  0  0  0  0  0  0  0  0  0
   29.6867  -25.8410    1.8577 C   0  0  0  0  0  0  0  0  0  0  0  0
   30.9221  -21.2418    8.1149 O   0  0  0  0  0  0  0  0  0  0  0  0
   29.6453  -24.6959    0.9432 N   0  0  0  0  0  0  0  0  0  0  0  0
   30.5656  -23.6754    1.4509 C   0  0  0  0  0  0  0  0  0  0  0  0
   30.0679  -23.2818    2.8312 C   0  0  0  0  0  0  0  0  0  0  0  0
   31.1149  -24.0306    4.9372 C   0  0  0  0  0  0  0  0  0  0  0  0
   30.6138  -22.8584    5.8208 C   0  0  0  0  0  0  0  0  0  0  0  0
   31.5424  -22.3917    7.1562 S   0  0  0  0  0  0  0  0  0  0  0  0
  1  3  1  0  0  0  0
  1  9  1  0  0  0  0
  1 10  1  0  0  0  0
  2 12  1  0  0  0  0
  3  5  1  0  0  0  0
  4 12  2  0  0  0  0
  5  7  1  0  0  0  0
  6 12  2  0  0  0  0
  7  8  1  0  0  0  0
  8  9  1  0  0  0  0
 10 11  1  0  0  0  0
 11 12  1  0  0  0  0
M  END
>  <CHROM.1>
-177.48238210,179.50973681,-56.05785407,30.90467635,-23.46187624,4.88246470
-2.96924303,-1.31650635,-0.24861349

>  <Name>
ligand

>  <RI>
0

>  <Rbt.Current_Directory>
/home/itssahil/PROJECTS/Mol_Feturizer/New_Systems/rnas/4E8N

>  <Rbt.Executable>
rbdock ($Id: //depot/dev/client3/rdock/2013.1/src/exe/rbdock.cxx#4 $)

>  <Rbt.Library>
libRbt.so (2013.1, Build901 2013/11/27)

>  <Rbt.Parameter_File>
/export/apps/rDock/src/rDock_2013.1_src/data/scripts/dock_solv.prm

>  <Rbt.Receptor>
prm/pocket_docking_6.prm

>  <SCORE>
-12.1092

>  <SCORE.INTER>
-8.40921

>  <SCORE.INTER.CONST>
1

>  <SCORE.INTER.POLAR>
0

>  <SCORE.INTER.ROT>
3

>  <SCORE.INTER.SOLV>
7.35388

>  <SCORE.INTER.VDW>
-13.6574

>  <SCORE.INTER.norm>
-0.700768

>  <SCORE.INTRA>
-3.69997

>  <SCORE.INTRA.DIHEDRAL>
-4.96882

>  <SCORE.INTRA.DIHEDRAL.0>
5.0186

>  <SCORE.INTRA.POLAR>
0

>  <SCORE.INTRA.POLAR.0>
0

>  <SCORE.INTRA.REPUL>
0

>  <SCORE.INTRA.REPUL.0>
0

>  <SCORE.INTRA.SOLV>
-0.114841

>  <SCORE.INTRA.SOLV.lig_0>
-16.1608

>  <SCORE.INTRA.VDW>
-1.15814

>  <SCORE.INTRA.VDW.0>
1.14169

>  <SCORE.INTRA.norm>
-0.308331

>  <SCORE.RESTR>
0

>  <SCORE.RESTR.CAVITY>
0

>  <SCORE.RESTR.norm>
0

>  <SCORE.SYSTEM>
0

>  <SCORE.SYSTEM.CONST>
0

>  <SCORE.SYSTEM.DIHEDRAL>
0

>  <SCORE.SYSTEM.SOLV>
0

>  <SCORE.SYSTEM.norm>
0

>  <SCORE.heavy>
12

>  <SCORE.norm>
-1.0091

>  <RMSD>
3.476

$$$$
ligand
 OpenBabel11021811493D
libRbt.so/2013.1/901 2013/11/27
 12 12  0  0  0  0  0  0  0  0999 V2000
   30.5776  -23.7772    3.4484 N   0  0  0  0  0  0  0  0  0  0  0  0
   31.7863  -23.4635    7.9162 O   0  0  0  0  0  0  0  0  0  0  0  0
   29.4642  -24.7477    3.5876 C   0  0  0  0  0  0  0  0  0  0  0  0
   32.7759  -21.6162    6.8300 O   0  0  0  0  0  0  0  0  0  0  0  0
   28.7584  -24.8659    2.2408 C   0  0  0  0  0  0  0  0  0  0  0  0
   30.8074  -21.2567    8.2550 O   0  0  0  0  0  0  0  0  0  0  0  0
   29.6811  -25.4304    1.2513 N   0  0  0  0  0  0  0  0  0  0  0  0
   30.9785  -25.6300    1.9017 C   0  0  0  0  0  0  0  0  0  0  0  0
   31.4537  -24.2632    2.3642 C   0  0  0  0  0  0  0  0  0  0  0  0
   31.3731  -23.4990    4.7097 C   0  0  0  0  0  0  0  0  0  0  0  0
   30.6807  -22.6272    5.7898 C   0  0  0  0  0  0  0  0  0  0  0  0
   31.5359  -22.2477    7.1998 S   0  0  0  0  0  0  0  0  0  0  0  0
  1  3  1  0  0  0  0
  1  9  1  0  0  0  0
  1 10  1  0  0  0  0
  2 12  1  0  0  0  0
  3  5  1  0  0  0  0
  4 12  2  0  0  0  0
  5  7  1  0  0  0  0
  6 12  2  0  0  0  0
  7  8  1  0  0  0  0
  8  9  1  0  0  0  0
 10 11  1  0  0  0  0
 11 12  1  0  0  0  0
M  END
>  <CHROM.1>
-73.55847215,-178.32417832,-64.53294742,30.91955523,-23.44351840,4.96027995
-1.82316684,0.13727585,1.10703602

>  <Name>
ligand

>  <RI>
0

>  <Rbt.Current_Directory>
/home/itssahil/PROJECTS/Mol_Feturizer/New_Systems/rnas/4E8N

>  <Rbt.Executable>
rbdock ($Id: //depot/dev/client3/rdock/2013.1/src/exe/rbdock.cxx#4 $)

>  <Rbt.Library>
libRbt.so (2013.1, Build901 2013/11/27)

>  <Rbt.Parameter_File>
/export/apps/rDock/src/rDock_2013.1_src/data/scripts/dock_solv.prm

>  <Rbt.Receptor>
prm/pocket_docking_5.prm

>  <SCORE>
-12.7056

>  <SCORE.INTER>
-8.68117

>  <SCORE.INTER.CONST>
1

>  <SCORE.INTER.POLAR>
0

>  <SCORE.INTER.ROT>
3

>  <SCORE.INTER.SOLV>
5.01878

>  <SCORE.INTER.VDW>
-13.0604

>  <SCORE.INTER.norm>
-0.723431

>  <SCORE.INTRA>
-4.02439

>  <SCORE.INTRA.DIHEDRAL>
-4.60945

>  <SCORE.INTRA.DIHEDRAL.0>
5.0186

>  <SCORE.INTRA.POLAR>
0

>  <SCORE.INTRA.POLAR.0>
0

>  <SCORE.INTRA.REPUL>
0

>  <SCORE.INTRA.REPUL.0>
0

>  <SCORE.INTRA.SOLV>
-0.103326

>  <SCORE.INTRA.SOLV.lig_0>
-16.1608

>  <SCORE.INTRA.VDW>
-1.668

>  <SCORE.INTRA.VDW.0>
1.14169

>  <SCORE.INTRA.norm>
-0.335366

>  <SCORE.RESTR>
0

>  <SCORE.RESTR.CAVITY>
0

>  <SCORE.RESTR.norm>
0

>  <SCORE.SYSTEM>
0

>  <SCORE.SYSTEM.CONST>
0

>  <SCORE.SYSTEM.DIHEDRAL>
0

>  <SCORE.SYSTEM.SOLV>
0

>  <SCORE.SYSTEM.norm>
0

>  <SCORE.heavy>
12

>  <SCORE.norm>
-1.0588

>  <RMSD>
3.501

$$$$
ligand
 OpenBabel11021811493D
libRbt.so/2013.1/901 2013/11/27
 12 12  0  0  0  0  0  0  0  0999 V2000
   30.2548  -24.5010    3.8206 N   0  0  0  0  0  0  0  0  0  0  0  0
   32.0862  -22.1792    8.0302 O   0  0  0  0  0  0  0  0  0  0  0  0
   31.5480  -24.9543    3.2523 C   0  0  0  0  0  0  0  0  0  0  0  0
   32.2319  -21.0215    5.9783 O   0  0  0  0  0  0  0  0  0  0  0  0
   31.3115  -26.2605    2.5012 C   0  0  0  0  0  0  0  0  0  0  0  0
   30.1282  -20.9575    7.2451 O   0  0  0  0  0  0  0  0  0  0  0  0
   30.4194  -26.0176    1.3635 N   0  0  0  0  0  0  0  0  0  0  0  0
   30.0271  -24.6063    1.3869 C   0  0  0  0  0  0  0  0  0  0  0  0
   29.3013  -24.3731    2.7010 C   0  0  0  0  0  0  0  0  0  0  0  0
   30.3048  -23.2275    4.6432 C   0  0  0  0  0  0  0  0  0  0  0  0
   31.0828  -23.2960    5.9834 C   0  0  0  0  0  0  0  0  0  0  0  0
   31.4053  -21.8558    6.8112 S   0  0  0  0  0  0  0  0  0  0  0  0
  1  3  1  0  0  0  0
  1  9  1  0  0  0  0
  1 10  1  0  0  0  0
  2 12  1  0  0  0  0
  3  5  1  0  0  0  0
  4 12  2  0  0  0  0
  5  7  1  0  0  0  0
  6 12  2  0  0  0  0
  7  8  1  0  0  0  0
  8  9  1  0  0  0  0
 10 11  1  0  0  0  0
 11 12  1  0  0  0  0
M  END
>  <CHROM.1>
-66.97350993,169.46395670,178.01878171,30.91445653,-23.37154142,4.77613575
1.75929264,0.60118742,-2.32503445

>  <Name>
ligand

>  <RI>
0

>  <Rbt.Current_Directory>
/home/itssahil/PROJECTS/Mol_Feturizer/New_Systems/rnas/4E8N

>  <Rbt.Executable>
rbdock ($Id: //depot/dev/client3/rdock/2013.1/src/exe/rbdock.cxx#4 $)

>  <Rbt.Library>
libRbt.so (2013.1, Build901 2013/11/27)

>  <Rbt.Parameter_File>
/export/apps/rDock/src/rDock_2013.1_src/data/scripts/dock_solv.prm

>  <Rbt.Receptor>
prm/pocket_docking_4.prm

>  <SCORE>
-10.9923

>  <SCORE.INTER>
-7.13822

>  <SCORE.INTER.CONST>
1

>  <SCORE.INTER.POLAR>
0

>  <SCORE.INTER.ROT>
3

>  <SCORE.INTER.SOLV>
4.51298

>  <SCORE.INTER.VDW>
-11.8631

>  <SCORE.INTER.norm>
-0.594851

>  <SCORE.INTRA>
-3.85405

>  <SCORE.INTRA.DIHEDRAL>
-4.48423

>  <SCORE.INTRA.DIHEDRAL.0>
5.0186

>  <SCORE.INTRA.POLAR>
0

>  <SCORE.INTRA.POLAR.0>
0

>  <SCORE.INTRA.REPUL>
0

>  <SCORE.INTRA.REPUL.0>
0

>  <SCORE.INTRA.SOLV>
0.0761063

>  <SCORE.INTRA.SOLV.lig_0>
-16.1608

>  <SCORE.INTRA.VDW>
-1.64999

>  <SCORE.INTRA.VDW.0>
1.14169

>  <SCORE.INTRA.norm>
-0.321171

>  <SCORE.RESTR>
0

>  <SCORE.RESTR.CAVITY>
0

>  <SCORE.RESTR.norm>
0

>  <SCORE.SYSTEM>
0

>  <SCORE.SYSTEM.CONST>
0

>  <SCORE.SYSTEM.DIHEDRAL>
0

>  <SCORE.SYSTEM.SOLV>
0

>  <SCORE.SYSTEM.norm>
0

>  <SCORE.heavy>
12

>  <SCORE.norm>
-0.916022

>  <RMSD>
3.503

$$$$
ligand
 OpenBabel11021811493D
libRbt.so/2013.1/901 2013/11/27
 12 12  0  0  0  0  0  0  0  0999 V2000
   31.5388  -24.2413    4.3161 N   0  0  0  0  0  0  0  0  0  0  0  0
   31.7664  -23.5521    7.9890 O   0  0  0  0  0  0  0  0  0  0  0  0
   32.0118  -23.3624    3.2185 C   0  0  0  0  0  0  0  0  0  0  0  0
   33.2224  -22.5963    6.3957 O   0  0  0  0  0  0  0  0  0  0  0  0
   33.1691  -24.0587    2.5100 C   0  0  0  0  0  0  0  0  0  0  0  0
   32.1479  -21.1454    8.0615 O   0  0  0  0  0  0  0  0  0  0  0  0
   32.6876  -25.2908    1.8782 N   0  0  0  0  0  0  0  0  0  0  0  0
   31.2669  -25.4421    2.2019 C   0  0  0  0  0  0  0  0  0  0  0  0
   31.1680  -25.5375    3.7148 C   0  0  0  0  0  0  0  0  0  0  0  0
   30.4084  -23.6895    5.1638 C   0  0  0  0  0  0  0  0  0  0  0  0
   30.7151  -22.4078    5.9819 C   0  0  0  0  0  0  0  0  0  0  0  0
   31.9793  -22.4434    7.1060 S   0  0  0  0  0  0  0  0  0  0  0  0
  1  3  1  0  0  0  0
  1  9  1  0  0  0  0
  1 10  1  0  0  0  0
  2 12  1  0  0  0  0
  3  5  1  0  0  0  0
  4 12  2  0  0  0  0
  5  7  1  0  0  0  0
  6 12  2  0  0  0  0
  7  8  1  0  0  0  0
  8  9  1  0  0  0  0
 10 11  1  0  0  0  0
 11 12  1  0  0  0  0
M  END
>  <CHROM.1>
-63.62480829,-58.59403267,-53.52323430,31.86973975,-23.49667142,5.16764942
1.56864257,-0.52631572,-2.07074358

>  <Name>
ligand

>  <RI>
0

>  <Rbt.Current_Directory>
/home/itssahil/PROJECTS/Mol_Feturizer/New_Systems/rnas/4E8N

>  <Rbt.Executable>
rbdock ($Id: //depot/dev/client3/rdock/2013.1/src/exe/rbdock.cxx#4 $)

>  <Rbt.Library>
libRbt.so (2013.1, Build901 2013/11/27)

>  <Rbt.Parameter_File>
/export/apps/rDock/src/rDock_2013.1_src/data/scripts/dock_solv.prm

>  <Rbt.Receptor>
prm/pocket_docking_8.prm

>  <SCORE>
-12.8842

>  <SCORE.INTER>
-8.56788

>  <SCORE.INTER.CONST>
1

>  <SCORE.INTER.POLAR>
0

>  <SCORE.INTER.ROT>
3

>  <SCORE.INTER.SOLV>
4.61791

>  <SCORE.INTER.VDW>
-12.8512

>  <SCORE.INTER.norm>
-0.71399

>  <SCORE.INTRA>
-4.31628

>  <SCORE.INTRA.DIHEDRAL>
-4.85515

>  <SCORE.INTRA.DIHEDRAL.0>
5.0186

>  <SCORE.INTRA.POLAR>
0

>  <SCORE.INTRA.POLAR.0>
0

>  <SCORE.INTRA.REPUL>
0

>  <SCORE.INTRA.REPUL.0>
0

>  <SCORE.INTRA.SOLV>
0.558566

>  <SCORE.INTRA.SOLV.lig_0>
-16.1608

>  <SCORE.INTRA.VDW>
-2.16799

>  <SCORE.INTRA.VDW.0>
1.14169

>  <SCORE.INTRA.norm>
-0.35969

>  <SCORE.RESTR>
0

>  <SCORE.RESTR.CAVITY>
0

>  <SCORE.RESTR.norm>
0

>  <SCORE.SYSTEM>
0

>  <SCORE.SYSTEM.CONST>
0

>  <SCORE.SYSTEM.DIHEDRAL>
0

>  <SCORE.SYSTEM.SOLV>
0

>  <SCORE.SYSTEM.norm>
0

>  <SCORE.heavy>
12

>  <SCORE.norm>
-1.07368

>  <RMSD>
3.504

$$$$
ligand
 OpenBabel11021811493D
libRbt.so/2013.1/901 2013/11/27
 12 12  0  0  0  0  0  0  0  0999 V2000
   31.4361  -24.2745    4.3028 N   0  0  0  0  0  0  0  0  0  0  0  0
   32.2498  -21.2089    7.6190 O   0  0  0  0  0  0  0  0  0  0  0  0
   31.9637  -23.4210    3.2102 C   0  0  0  0  0  0  0  0  0  0  0  0
   31.8695  -23.5115    7.9731 O   0  0  0  0  0  0  0  0  0  0  0  0
   33.0783  -24.1829    2.5007 C   0  0  0  0  0  0  0  0  0  0  0  0
   33.5024  -22.8122    6.2762 O   0  0  0  0  0  0  0  0  0  0  0  0
   32.5244  -25.3807    1.8623 N   0  0  0  0  0  0  0  0  0  0  0  0
   31.0964  -25.4472    2.1826 C   0  0  0  0  0  0  0  0  0  0  0  0
   30.9888  -25.5432    3.6949 C   0  0  0  0  0  0  0  0  0  0  0  0
   30.3393  -23.6590    5.1509 C   0  0  0  0  0  0  0  0  0  0  0  0
   30.7237  -22.4074    5.9826 C   0  0  0  0  0  0  0  0  0  0  0  0
   32.0834  -22.4844    6.9869 S   0  0  0  0  0  0  0  0  0  0  0  0
  1  3  1  0  0  0  0
  1  9  1  0  0  0  0
  1 10  1  0  0  0  0
  2 12  1  0  0  0  0
  3  5  1  0  0  0  0
  4 12  2  0  0  0  0
  5  7  1  0  0  0  0
  6 12  2  0  0  0  0
  7  8  1  0  0  0  0
  8  9  1  0  0  0  0
 10 11  1  0  0  0  0
 11 12  1  0  0  0  0
M  END
>  <CHROM.1>
-64.01368465,-51.97405724,178.62057353,31.86801037,-23.54423178,5.09254004
1.61997841,-0.39913143,-2.06329872

>  <Name>
ligand

>  <RI>
0

>  <Rbt.Current_Directory>
/home/itssahil/PROJECTS/Mol_Feturizer/New_Systems/rnas/4E8N

>  <Rbt.Executable>
rbdock ($Id: //depot/dev/client3/rdock/2013.1/src/exe/rbdock.cxx#4 $)

>  <Rbt.Library>
libRbt.so (2013.1, Build901 2013/11/27)

>  <Rbt.Parameter_File>
/export/apps/rDock/src/rDock_2013.1_src/data/scripts/dock_solv.prm

>  <Rbt.Receptor>
prm/pocket_docking_4.prm

>  <SCORE>
-11.3236

>  <SCORE.INTER>
-7.10774

>  <SCORE.INTER.CONST>
1

>  <SCORE.INTER.POLAR>
0

>  <SCORE.INTER.ROT>
3

>  <SCORE.INTER.SOLV>
6.39596

>  <SCORE.INTER.VDW>
-12.4705

>  <SCORE.INTER.norm>
-0.592312

>  <SCORE.INTRA>
-4.22041

>  <SCORE.INTRA.DIHEDRAL>
-4.72345

>  <SCORE.INTRA.DIHEDRAL.0>
5.0186

>  <SCORE.INTRA.POLAR>
0

>  <SCORE.INTRA.POLAR.0>
0

>  <SCORE.INTRA.REPUL>
0

>  <SCORE.INTRA.REPUL.0>
0

>  <SCORE.INTRA.SOLV>
0.883841

>  <SCORE.INTRA.SOLV.lig_0>
-16.1608

>  <SCORE.INTRA.VDW>
-2.30061

>  <SCORE.INTRA.VDW.0>
1.14169

>  <SCORE.INTRA.norm>
-0.351701

>  <SCORE.RESTR>
0.00457382

>  <SCORE.RESTR.CAVITY>
0.00457382

>  <SCORE.RESTR.norm>
0.000381152

>  <SCORE.SYSTEM>
0

>  <SCORE.SYSTEM.CONST>
0

>  <SCORE.SYSTEM.DIHEDRAL>
0

>  <SCORE.SYSTEM.SOLV>
0

>  <SCORE.SYSTEM.norm>
0

>  <SCORE.heavy>
12

>  <SCORE.norm>
-0.943632

>  <RMSD>
3.514

$$$$
ligand
 OpenBabel11021811493D
libRbt.so/2013.1/901 2013/11/27
 12 12  0  0  0  0  0  0  0  0999 V2000
   30.4307  -24.0204    3.6100 N   0  0  0  0  0  0  0  0  0  0  0  0
   30.3520  -21.3126    7.3141 O   0  0  0  0  0  0  0  0  0  0  0  0
   29.2682  -24.8507    3.2099 C   0  0  0  0  0  0  0  0  0  0  0  0
   31.7763  -23.0898    7.9343 O   0  0  0  0  0  0  0  0  0  0  0  0
   29.3891  -25.1615    1.7217 C   0  0  0  0  0  0  0  0  0  0  0  0
   32.7527  -20.8991    7.4032 O   0  0  0  0  0  0  0  0  0  0  0  0
   30.5839  -25.9776    1.4864 N   0  0  0  0  0  0  0  0  0  0  0  0
   31.2702  -26.1585    2.7680 C   0  0  0  0  0  0  0  0  0  0  0  0
   31.6516  -24.7736    3.2622 C   0  0  0  0  0  0  0  0  0  0  0  0
   30.4576  -23.5766    5.0604 C   0  0  0  0  0  0  0  0  0  0  0  0
   31.5539  -22.5521    5.4533 C   0  0  0  0  0  0  0  0  0  0  0  0
   31.5944  -21.9737    7.0430 S   0  0  0  0  0  0  0  0  0  0  0  0
  1  3  1  0  0  0  0
  1  9  1  0  0  0  0
  1 10  1  0  0  0  0
  2 12  1  0  0  0  0
  3  5  1  0  0  0  0
  4 12  2  0  0  0  0
  5  7  1  0  0  0  0
  6 12  2  0  0  0  0
  7  8  1  0  0  0  0
  8  9  1  0  0  0  0
 10 11  1  0  0  0  0
 11 12  1  0  0  0  0
M  END
>  <CHROM.1>
-171.87932200,177.59624701,-60.38351227,31.00808267,-23.47434914,4.99826458
1.79658753,0.29236417,-2.26968156

>  <Name>
ligand

>  <RI>
0

>  <Rbt.Current_Directory>
/home/itssahil/PROJECTS/Mol_Feturizer/New_Systems/rnas/4E8N

>  <Rbt.Executable>
rbdock ($Id: //depot/dev/client3/rdock/2013.1/src/exe/rbdock.cxx#4 $)

>  <Rbt.Library>
libRbt.so (2013.1, Build901 2013/11/27)

>  <Rbt.Parameter_File>
/export/apps/rDock/src/rDock_2013.1_src/data/scripts/dock_solv.prm

>  <Rbt.Receptor>
prm/pocket_docking_8.prm

>  <SCORE>
-11.2626

>  <SCORE.INTER>
-7.41081

>  <SCORE.INTER.CONST>
1

>  <SCORE.INTER.POLAR>
0

>  <SCORE.INTER.ROT>
3

>  <SCORE.INTER.SOLV>
5.07024

>  <SCORE.INTER.VDW>
-12.2306

>  <SCORE.INTER.norm>
-0.617568

>  <SCORE.INTRA>
-3.85177

>  <SCORE.INTRA.DIHEDRAL>
-4.92043

>  <SCORE.INTRA.DIHEDRAL.0>
5.0186

>  <SCORE.INTRA.POLAR>
0

>  <SCORE.INTRA.POLAR.0>
0

>  <SCORE.INTRA.REPUL>
0

>  <SCORE.INTRA.REPUL.0>
0

>  <SCORE.INTRA.SOLV>
-0.107578

>  <SCORE.INTRA.SOLV.lig_0>
-16.1608

>  <SCORE.INTRA.VDW>
-1.33777

>  <SCORE.INTRA.VDW.0>
1.14169

>  <SCORE.INTRA.norm>
-0.320981

>  <SCORE.RESTR>
0

>  <SCORE.RESTR.CAVITY>
0

>  <SCORE.RESTR.norm>
0

>  <SCORE.SYSTEM>
0

>  <SCORE.SYSTEM.CONST>
0

>  <SCORE.SYSTEM.DIHEDRAL>
0

>  <SCORE.SYSTEM.SOLV>
0

>  <SCORE.SYSTEM.norm>
0

>  <SCORE.heavy>
12

>  <SCORE.norm>
-0.938549

>  <RMSD>
3.518

$$$$
ligand
 OpenBabel11021811493D
libRbt.so/2013.1/901 2013/11/27
 12 12  0  0  0  0  0  0  0  0999 V2000
   30.5249  -23.7459    3.4176 N   0  0  0  0  0  0  0  0  0  0  0  0
   31.7174  -23.5673    7.9295 O   0  0  0  0  0  0  0  0  0  0  0  0
   29.4675  -24.7777    3.5533 C   0  0  0  0  0  0  0  0  0  0  0  0
   32.8665  -21.8315    6.8166 O   0  0  0  0  0  0  0  0  0  0  0  0
   28.7100  -24.8661    2.2326 C   0  0  0  0  0  0  0  0  0  0  0  0
   30.9383  -21.2776    8.2343 O   0  0  0  0  0  0  0  0  0  0  0  0
   29.6149  -25.3339    1.1783 N   0  0  0  0  0  0  0  0  0  0  0  0
   30.9478  -25.4983    1.7635 C   0  0  0  0  0  0  0  0  0  0  0  0
   31.3753  -24.1331    2.2749 C   0  0  0  0  0  0  0  0  0  0  0  0
   31.3603  -23.4891    4.6575 C   0  0  0  0  0  0  0  0  0  0  0  0
   30.6894  -22.6683    5.7898 C   0  0  0  0  0  0  0  0  0  0  0  0
   31.5755  -22.3450    7.1947 S   0  0  0  0  0  0  0  0  0  0  0  0
  1  3  1  0  0  0  0
  1  9  1  0  0  0  0
  1 10  1  0  0  0  0
  2 12  1  0  0  0  0
  3  5  1  0  0  0  0
  4 12  2  0  0  0  0
  5  7  1  0  0  0  0
  6 12  2  0  0  0  0
  7  8  1  0  0  0  0
  8  9  1  0  0  0  0
 10 11  1  0  0  0  0
 11 12  1  0  0  0  0
M  END
>  <CHROM.1>
-75.45477738,-179.75532140,-70.99174321,30.91864950,-23.46410565,4.92660548
-1.84190451,0.19756713,1.15654513

>  <Name>
ligand

>  <RI>
0

>  <Rbt.Current_Directory>
/home/itssahil/PROJECTS/Mol_Feturizer/New_Systems/rnas/4E8N

>  <Rbt.Executable>
rbdock ($Id: //depot/dev/client3/rdock/2013.1/src/exe/rbdock.cxx#4 $)

>  <Rbt.Library>
libRbt.so (2013.1, Build901 2013/11/27)

>  <Rbt.Parameter_File>
/export/apps/rDock/src/rDock_2013.1_src/data/scripts/dock_solv.prm

>  <Rbt.Receptor>
prm/pocket_docking_5.prm

>  <SCORE>
-12.9555

>  <SCORE.INTER>
-9.08607

>  <SCORE.INTER.CONST>
1

>  <SCORE.INTER.POLAR>
0

>  <SCORE.INTER.ROT>
3

>  <SCORE.INTER.SOLV>
5.47789

>  <SCORE.INTER.VDW>
-13.4833

>  <SCORE.INTER.norm>
-0.757172

>  <SCORE.INTRA>
-3.86947

>  <SCORE.INTRA.DIHEDRAL>
-4.29986

>  <SCORE.INTRA.DIHEDRAL.0>
5.0186

>  <SCORE.INTRA.POLAR>
0

>  <SCORE.INTRA.POLAR.0>
0

>  <SCORE.INTRA.REPUL>
0

>  <SCORE.INTRA.REPUL.0>
0

>  <SCORE.INTRA.SOLV>
-0.0893216

>  <SCORE.INTRA.SOLV.lig_0>
-16.1608

>  <SCORE.INTRA.VDW>
-1.67488

>  <SCORE.INTRA.VDW.0>
1.14169

>  <SCORE.INTRA.norm>
-0.322456

>  <SCORE.RESTR>
0

>  <SCORE.RESTR.CAVITY>
0

>  <SCORE.RESTR.norm>
0

>  <SCORE.SYSTEM>
0

>  <SCORE.SYSTEM.CONST>
0

>  <SCORE.SYSTEM.DIHEDRAL>
0

>  <SCORE.SYSTEM.SOLV>
0

>  <SCORE.SYSTEM.norm>
0

>  <SCORE.heavy>
12

>  <SCORE.norm>
-1.07963

>  <RMSD>
3.531

$$$$
ligand
 OpenBabel11021811493D
libRbt.so/2013.1/901 2013/11/27
 12 12  0  0  0  0  0  0  0  0999 V2000
   30.5719  -24.6785    3.8429 N   0  0  0  0  0  0  0  0  0  0  0  0
   31.6363  -23.0507    7.9493 O   0  0  0  0  0  0  0  0  0  0  0  0
   31.5461  -24.3954    2.7605 C   0  0  0  0  0  0  0  0  0  0  0  0
   32.8121  -21.2488    6.9785 O   0  0  0  0  0  0  0  0  0  0  0  0
   31.6124  -25.6122    1.8433 C   0  0  0  0  0  0  0  0  0  0  0  0
   30.3633  -21.1368    7.1373 O   0  0  0  0  0  0  0  0  0  0  0  0
   30.3131  -25.8077    1.1930 N   0  0  0  0  0  0  0  0  0  0  0  0
   29.3921  -24.7887    1.7025 C   0  0  0  0  0  0  0  0  0  0  0  0
   29.2828  -25.0049    3.2022 C   0  0  0  0  0  0  0  0  0  0  0  0
   30.4039  -23.5867    4.8826 C   0  0  0  0  0  0  0  0  0  0  0  0
   31.7034  -22.9279    5.4148 C   0  0  0  0  0  0  0  0  0  0  0  0
   31.6483  -22.0913    6.8846 S   0  0  0  0  0  0  0  0  0  0  0  0
  1  3  1  0  0  0  0
  1  9  1  0  0  0  0
  1 10  1  0  0  0  0
  2 12  1  0  0  0  0
  3  5  1  0  0  0  0
  4 12  2  0  0  0  0
  5  7  1  0  0  0  0
  6 12  2  0  0  0  0
  7  8  1  0  0  0  0
  8  9  1  0  0  0  0
 10 11  1  0  0  0  0
 11 12  1  0  0  0  0
M  END
>  <CHROM.1>
-44.29758802,-160.59434862,76.96856475,31.02739806,-23.48550287,4.79679038
1.77945234,-0.02405658,-2.14433079

>  <Name>
ligand

>  <RI>
0

>  <Rbt.Current_Directory>
/home/itssahil/PROJECTS/Mol_Feturizer/New_Systems/rnas/4E8N

>  <Rbt.Executable>
rbdock ($Id: //depot/dev/client3/rdock/2013.1/src/exe/rbdock.cxx#4 $)

>  <Rbt.Library>
libRbt.so (2013.1, Build901 2013/11/27)

>  <Rbt.Parameter_File>
/export/apps/rDock/src/rDock_2013.1_src/data/scripts/dock_solv.prm

>  <Rbt.Receptor>
prm/pocket_docking_8.prm

>  <SCORE>
-9.62441

>  <SCORE.INTER>
-7.15162

>  <SCORE.INTER.CONST>
1

>  <SCORE.INTER.POLAR>
0

>  <SCORE.INTER.ROT>
3

>  <SCORE.INTER.SOLV>
4.44249

>  <SCORE.INTER.VDW>
-11.8486

>  <SCORE.INTER.norm>
-0.595968

>  <SCORE.INTRA>
-2.4728

>  <SCORE.INTRA.DIHEDRAL>
-2.70614

>  <SCORE.INTRA.DIHEDRAL.0>
5.0186

>  <SCORE.INTRA.POLAR>
0

>  <SCORE.INTRA.POLAR.0>
0

>  <SCORE.INTRA.REPUL>
0

>  <SCORE.INTRA.REPUL.0>
0

>  <SCORE.INTRA.SOLV>
-0.0609263

>  <SCORE.INTRA.SOLV.lig_0>
-16.1608

>  <SCORE.INTRA.VDW>
-1.08926

>  <SCORE.INTRA.VDW.0>
1.14169

>  <SCORE.INTRA.norm>
-0.206066

>  <SCORE.RESTR>
0

>  <SCORE.RESTR.CAVITY>
0

>  <SCORE.RESTR.norm>
0

>  <SCORE.SYSTEM>
0

>  <SCORE.SYSTEM.CONST>
0

>  <SCORE.SYSTEM.DIHEDRAL>
0

>  <SCORE.SYSTEM.SOLV>
0

>  <SCORE.SYSTEM.norm>
0

>  <SCORE.heavy>
12

>  <SCORE.norm>
-0.802034

>  <RMSD>
3.533

$$$$
ligand
 OpenBabel11021811493D
libRbt.so/2013.1/901 2013/11/27
 12 12  0  0  0  0  0  0  0  0999 V2000
   30.3451  -23.9406    3.3950 N   0  0  0  0  0  0  0  0  0  0  0  0
   32.8804  -21.9491    6.6569 O   0  0  0  0  0  0  0  0  0  0  0  0
   29.2602  -24.9518    3.4313 C   0  0  0  0  0  0  0  0  0  0  0  0
   30.9157  -21.3726    7.8314 O   0  0  0  0  0  0  0  0  0  0  0  0
   28.5464  -24.9394    2.0835 C   0  0  0  0  0  0  0  0  0  0  0  0
   31.8213  -23.6456    8.0508 O   0  0  0  0  0  0  0  0  0  0  0  0
   29.4758  -25.3638    1.0322 N   0  0  0  0  0  0  0  0  0  0  0  0
   30.7838  -25.5975    1.6492 C   0  0  0  0  0  0  0  0  0  0  0  0
   31.2248  -24.2777    2.2586 C   0  0  0  0  0  0  0  0  0  0  0  0
   31.1434  -23.7819    4.6751 C   0  0  0  0  0  0  0  0  0  0  0  0
   30.6643  -22.6847    5.6614 C   0  0  0  0  0  0  0  0  0  0  0  0
   31.5764  -22.3901    7.0558 S   0  0  0  0  0  0  0  0  0  0  0  0
  1  3  1  0  0  0  0
  1  9  1  0  0  0  0
  1 10  1  0  0  0  0
  2 12  1  0  0  0  0
  3  5  1  0  0  0  0
  4 12  2  0  0  0  0
  5  7  1  0  0  0  0
  6 12  2  0  0  0  0
  7  8  1  0  0  0  0
  8  9  1  0  0  0  0
 10 11  1  0  0  0  0
 11 12  1  0  0  0  0
M  END
>  <CHROM.1>
-93.25165688,-175.89305043,61.93768885,30.83580157,-23.57061786,4.81704199
1.87468180,-0.12548274,-2.00373668

>  <Name>
ligand

>  <RI>
0

>  <Rbt.Current_Directory>
/home/itssahil/PROJECTS/Mol_Feturizer/New_Systems/rnas/4E8N

>  <Rbt.Executable>
rbdock ($Id: //depot/dev/client3/rdock/2013.1/src/exe/rbdock.cxx#4 $)

>  <Rbt.Library>
libRbt.so (2013.1, Build901 2013/11/27)

>  <Rbt.Parameter_File>
/export/apps/rDock/src/rDock_2013.1_src/data/scripts/dock_solv.prm

>  <Rbt.Receptor>
prm/pocket_docking_8.prm

>  <SCORE>
-11.1856

>  <SCORE.INTER>
-7.57006

>  <SCORE.INTER.CONST>
1

>  <SCORE.INTER.POLAR>
0

>  <SCORE.INTER.ROT>
3

>  <SCORE.INTER.SOLV>
7.5102

>  <SCORE.INTER.VDW>
-13.1501

>  <SCORE.INTER.norm>
-0.630839

>  <SCORE.INTRA>
-3.61552

>  <SCORE.INTRA.DIHEDRAL>
-3.4525

>  <SCORE.INTRA.DIHEDRAL.0>
5.0186

>  <SCORE.INTRA.POLAR>
0

>  <SCORE.INTRA.POLAR.0>
0

>  <SCORE.INTRA.REPUL>
0

>  <SCORE.INTRA.REPUL.0>
0

>  <SCORE.INTRA.SOLV>
-0.106782

>  <SCORE.INTRA.SOLV.lig_0>
-16.1608

>  <SCORE.INTRA.VDW>
-1.83588

>  <SCORE.INTRA.VDW.0>
1.14169

>  <SCORE.INTRA.norm>
-0.301293

>  <SCORE.RESTR>
0

>  <SCORE.RESTR.CAVITY>
0

>  <SCORE.RESTR.norm>
0

>  <SCORE.SYSTEM>
0

>  <SCORE.SYSTEM.CONST>
0

>  <SCORE.SYSTEM.DIHEDRAL>
0

>  <SCORE.SYSTEM.SOLV>
0

>  <SCORE.SYSTEM.norm>
0

>  <SCORE.heavy>
12

>  <SCORE.norm>
-0.932132

>  <RMSD>
3.545

$$$$
ligand
 OpenBabel11021811493D
libRbt.so/2013.1/901 2013/11/27
 12 12  0  0  0  0  0  0  0  0999 V2000
   32.2994  -20.8980    7.6713 N   0  0  0  0  0  0  0  0  0  0  0  0
   34.6409  -19.5109    9.6065 O   0  0  0  0  0  0  0  0  0  0  0  0
   32.5548  -20.4273    6.2878 C   0  0  0  0  0  0  0  0  0  0  0  0
   33.5312  -17.8048    8.4109 O   0  0  0  0  0  0  0  0  0  0  0  0
   33.4605  -21.4402    5.5950 C   0  0  0  0  0  0  0  0  0  0  0  0
   33.9483  -17.5094   10.8137 O   0  0  0  0  0  0  0  0  0  0  0  0
   32.7607  -22.7228    5.4755 N   0  0  0  0  0  0  0  0  0  0  0  0
   31.4513  -22.5877    6.1184 C   0  0  0  0  0  0  0  0  0  0  0  0
   31.7100  -22.2480    7.5764 C   0  0  0  0  0  0  0  0  0  0  0  0
   31.4434  -19.9878    8.5314 C   0  0  0  0  0  0  0  0  0  0  0  0
   32.1125  -19.4007    9.8016 C   0  0  0  0  0  0  0  0  0  0  0  0
   33.5707  -18.5581    9.6373 S   0  0  0  0  0  0  0  0  0  0  0  0
  1  3  1  0  0  0  0
  1  9  1  0  0  0  0
  1 10  1  0  0  0  0
  2 12  1  0  0  0  0
  3  5  1  0  0  0  0
  4 12  2  0  0  0  0
  5  7  1  0  0  0  0
  6 12  2  0  0  0  0
  7  8  1  0  0  0  0
  8  9  1  0  0  0  0
 10 11  1  0  0  0  0
 11 12  1  0  0  0  0
M  END
>  <CHROM.1>
-117.71051985,54.25586182,-83.21535849,32.90205394,-20.03713204,8.16885252
1.87555536,-0.56365973,-2.19807304

>  <Name>
ligand

>  <RI>
0

>  <Rbt.Current_Directory>
/home/itssahil/PROJECTS/Mol_Feturizer/New_Systems/rnas/4E8N

>  <Rbt.Executable>
rbdock ($Id: //depot/dev/client3/rdock/2013.1/src/exe/rbdock.cxx#4 $)

>  <Rbt.Library>
libRbt.so (2013.1, Build901 2013/11/27)

>  <Rbt.Parameter_File>
/export/apps/rDock/src/rDock_2013.1_src/data/scripts/dock_solv.prm

>  <Rbt.Receptor>
prm/pocket_docking_5.prm

>  <SCORE>
-11.3358

>  <SCORE.INTER>
-8.39556

>  <SCORE.INTER.CONST>
1

>  <SCORE.INTER.POLAR>
0

>  <SCORE.INTER.ROT>
3

>  <SCORE.INTER.SOLV>
4.87473

>  <SCORE.INTER.VDW>
-12.8219

>  <SCORE.INTER.norm>
-0.69963

>  <SCORE.INTRA>
-2.94026

>  <SCORE.INTRA.DIHEDRAL>
-1.34786

>  <SCORE.INTRA.DIHEDRAL.0>
5.0186

>  <SCORE.INTRA.POLAR>
0

>  <SCORE.INTRA.POLAR.0>
0

>  <SCORE.INTRA.REPUL>
0

>  <SCORE.INTRA.REPUL.0>
0

>  <SCORE.INTRA.SOLV>
0.449253

>  <SCORE.INTRA.SOLV.lig_0>
-16.1608

>  <SCORE.INTRA.VDW>
-2.49096

>  <SCORE.INTRA.VDW.0>
1.14169

>  <SCORE.INTRA.norm>
-0.245022

>  <SCORE.RESTR>
0

>  <SCORE.RESTR.CAVITY>
0

>  <SCORE.RESTR.norm>
0

>  <SCORE.SYSTEM>
0

>  <SCORE.SYSTEM.CONST>
0

>  <SCORE.SYSTEM.DIHEDRAL>
0

>  <SCORE.SYSTEM.SOLV>
0

>  <SCORE.SYSTEM.norm>
0

>  <SCORE.heavy>
12

>  <SCORE.norm>
-0.944651

>  <RMSD>
3.549

$$$$
ligand
 OpenBabel11021811493D
libRbt.so/2013.1/901 2013/11/27
 12 12  0  0  0  0  0  0  0  0999 V2000
   30.3923  -23.8944    3.5353 N   0  0  0  0  0  0  0  0  0  0  0  0
   31.7196  -23.5408    7.9539 O   0  0  0  0  0  0  0  0  0  0  0  0
   29.3219  -24.9216    3.5425 C   0  0  0  0  0  0  0  0  0  0  0  0
   32.8645  -21.8357    6.7904 O   0  0  0  0  0  0  0  0  0  0  0  0
   28.6288  -24.9029    2.1841 C   0  0  0  0  0  0  0  0  0  0  0  0
   30.9726  -21.2378    8.2388 O   0  0  0  0  0  0  0  0  0  0  0  0
   29.5803  -25.3009    1.1423 N   0  0  0  0  0  0  0  0  0  0  0  0
   30.8819  -25.5232    1.7767 C   0  0  0  0  0  0  0  0  0  0  0  0
   31.2943  -24.2047    2.4088 C   0  0  0  0  0  0  0  0  0  0  0  0
   31.1685  -23.7400    4.8295 C   0  0  0  0  0  0  0  0  0  0  0  0
   30.6573  -22.6632    5.8221 C   0  0  0  0  0  0  0  0  0  0  0  0
   31.5761  -22.3284    7.2031 S   0  0  0  0  0  0  0  0  0  0  0  0
  1  3  1  0  0  0  0
  1  9  1  0  0  0  0
  1 10  1  0  0  0  0
  2 12  1  0  0  0  0
  3  5  1  0  0  0  0
  4 12  2  0  0  0  0
  5  7  1  0  0  0  0
  6 12  2  0  0  0  0
  7  8  1  0  0  0  0
  8  9  1  0  0  0  0
 10 11  1  0  0  0  0
 11 12  1  0  0  0  0
M  END
>  <CHROM.1>
-93.18279465,-173.45854420,-58.39499048,30.86583426,-23.50275057,4.95550222
1.85583705,-0.16436450,-2.00313139

>  <Name>
ligand

>  <RI>
0

>  <Rbt.Current_Directory>
/home/itssahil/PROJECTS/Mol_Feturizer/New_Systems/rnas/4E8N

>  <Rbt.Executable>
rbdock ($Id: //depot/dev/client3/rdock/2013.1/src/exe/rbdock.cxx#4 $)

>  <Rbt.Library>
libRbt.so (2013.1, Build901 2013/11/27)

>  <Rbt.Parameter_File>
/export/apps/rDock/src/rDock_2013.1_src/data/scripts/dock_solv.prm

>  <Rbt.Receptor>
prm/pocket_docking_5.prm

>  <SCORE>
-12.3121

>  <SCORE.INTER>
-8.78599

>  <SCORE.INTER.CONST>
1

>  <SCORE.INTER.POLAR>
0

>  <SCORE.INTER.ROT>
3

>  <SCORE.INTER.SOLV>
5.69968

>  <SCORE.INTER.VDW>
-13.3572

>  <SCORE.INTER.norm>
-0.732166

>  <SCORE.INTRA>
-3.52609

>  <SCORE.INTRA.DIHEDRAL>
-3.36327

>  <SCORE.INTRA.DIHEDRAL.0>
5.0186

>  <SCORE.INTRA.POLAR>
0

>  <SCORE.INTRA.POLAR.0>
0

>  <SCORE.INTRA.REPUL>
0

>  <SCORE.INTRA.REPUL.0>
0

>  <SCORE.INTRA.SOLV>
-0.117862

>  <SCORE.INTRA.SOLV.lig_0>
-16.1608

>  <SCORE.INTRA.VDW>
-1.78552

>  <SCORE.INTRA.VDW.0>
1.14169

>  <SCORE.INTRA.norm>
-0.293841

>  <SCORE.RESTR>
0

>  <SCORE.RESTR.CAVITY>
0

>  <SCORE.RESTR.norm>
0

>  <SCORE.SYSTEM>
0

>  <SCORE.SYSTEM.CONST>
0

>  <SCORE.SYSTEM.DIHEDRAL>
0

>  <SCORE.SYSTEM.SOLV>
0

>  <SCORE.SYSTEM.norm>
0

>  <SCORE.heavy>
12

>  <SCORE.norm>
-1.02601

>  <RMSD>
3.560

$$$$
ligand
 OpenBabel11021811493D
libRbt.so/2013.1/901 2013/11/27
 12 12  0  0  0  0  0  0  0  0999 V2000
   30.9636  -24.6058    3.8625 N   0  0  0  0  0  0  0  0  0  0  0  0
   30.8564  -21.6420    8.0712 O   0  0  0  0  0  0  0  0  0  0  0  0
   31.8139  -25.3134    2.8740 C   0  0  0  0  0  0  0  0  0  0  0  0
   32.7607  -23.0022    7.7624 O   0  0  0  0  0  0  0  0  0  0  0  0
   30.9602  -26.3625    2.1694 C   0  0  0  0  0  0  0  0  0  0  0  0
   32.5956  -20.8749    6.5450 O   0  0  0  0  0  0  0  0  0  0  0  0
   29.8988  -25.6994    1.4060 N   0  0  0  0  0  0  0  0  0  0  0  0
   30.0052  -24.2569    1.6387 C   0  0  0  0  0  0  0  0  0  0  0  0
   29.8155  -24.0366    3.1298 C   0  0  0  0  0  0  0  0  0  0  0  0
   31.6602  -23.5456    4.6943 C   0  0  0  0  0  0  0  0  0  0  0  0
   30.9347  -23.0888    5.9870 C   0  0  0  0  0  0  0  0  0  0  0  0
   31.7891  -22.1601    7.1143 S   0  0  0  0  0  0  0  0  0  0  0  0
  1  3  1  0  0  0  0
  1  9  1  0  0  0  0
  1 10  1  0  0  0  0
  2 12  1  0  0  0  0
  3  5  1  0  0  0  0
  4 12  2  0  0  0  0
  5  7  1  0  0  0  0
  6 12  2  0  0  0  0
  7  8  1  0  0  0  0
  8  9  1  0  0  0  0
 10 11  1  0  0  0  0
 11 12  1  0  0  0  0
M  END
>  <CHROM.1>
-162.78021076,167.50495725,168.63317838,31.25697290,-23.51168753,4.92827130
-1.86837006,-0.70910541,0.80561882

>  <Name>
ligand

>  <RI>
0

>  <Rbt.Current_Directory>
/home/itssahil/PROJECTS/Mol_Feturizer/New_Systems/rnas/4E8N

>  <Rbt.Executable>
rbdock ($Id: //depot/dev/client3/rdock/2013.1/src/exe/rbdock.cxx#4 $)

>  <Rbt.Library>
libRbt.so (2013.1, Build901 2013/11/27)

>  <Rbt.Parameter_File>
/export/apps/rDock/src/rDock_2013.1_src/data/scripts/dock_solv.prm

>  <Rbt.Receptor>
prm/pocket_docking_6.prm

>  <SCORE>
-10.8119

>  <SCORE.INTER>
-7.37504

>  <SCORE.INTER.CONST>
1

>  <SCORE.INTER.POLAR>
0

>  <SCORE.INTER.ROT>
3

>  <SCORE.INTER.SOLV>
5.55469

>  <SCORE.INTER.VDW>
-12.3683

>  <SCORE.INTER.norm>
-0.614587

>  <SCORE.INTRA>
-3.43684

>  <SCORE.INTRA.DIHEDRAL>
-3.76284

>  <SCORE.INTRA.DIHEDRAL.0>
5.0186

>  <SCORE.INTRA.POLAR>
0

>  <SCORE.INTRA.POLAR.0>
0

>  <SCORE.INTRA.REPUL>
0

>  <SCORE.INTRA.REPUL.0>
0

>  <SCORE.INTRA.SOLV>
0.0715904

>  <SCORE.INTRA.SOLV.lig_0>
-16.1608

>  <SCORE.INTRA.VDW>
-1.59121

>  <SCORE.INTRA.VDW.0>
1.14169

>  <SCORE.INTRA.norm>
-0.286403

>  <SCORE.RESTR>
0

>  <SCORE.RESTR.CAVITY>
0

>  <SCORE.RESTR.norm>
0

>  <SCORE.SYSTEM>
0

>  <SCORE.SYSTEM.CONST>
0

>  <SCORE.SYSTEM.DIHEDRAL>
0

>  <SCORE.SYSTEM.SOLV>
0

>  <SCORE.SYSTEM.norm>
0

>  <SCORE.heavy>
12

>  <SCORE.norm>
-0.90099

>  <RMSD>
3.568

$$$$
ligand
 OpenBabel11021811493D
libRbt.so/2013.1/901 2013/11/27
 12 12  0  0  0  0  0  0  0  0999 V2000
   30.4568  -24.0464    3.5817 N   0  0  0  0  0  0  0  0  0  0  0  0
   31.7453  -23.1921    7.8829 O   0  0  0  0  0  0  0  0  0  0  0  0
   29.2873  -24.8598    3.1674 C   0  0  0  0  0  0  0  0  0  0  0  0
   32.7685  -21.1805    7.1913 O   0  0  0  0  0  0  0  0  0  0  0  0
   29.4190  -25.1678    1.6795 C   0  0  0  0  0  0  0  0  0  0  0  0
   30.3461  -21.2163    7.5980 O   0  0  0  0  0  0  0  0  0  0  0  0
   30.6051  -25.9994    1.4537 N   0  0  0  0  0  0  0  0  0  0  0  0
   31.2758  -26.1933    2.7416 C   0  0  0  0  0  0  0  0  0  0  0  0
   31.6709  -24.8151    3.2439 C   0  0  0  0  0  0  0  0  0  0  0  0
   30.4750  -23.6073    5.0336 C   0  0  0  0  0  0  0  0  0  0  0  0
   31.5528  -22.5649    5.4308 C   0  0  0  0  0  0  0  0  0  0  0  0
   31.6240  -22.0407    7.0381 S   0  0  0  0  0  0  0  0  0  0  0  0
  1  3  1  0  0  0  0
  1  9  1  0  0  0  0
  1 10  1  0  0  0  0
  2 12  1  0  0  0  0
  3  5  1  0  0  0  0
  4 12  2  0  0  0  0
  5  7  1  0  0  0  0
  6 12  2  0  0  0  0
  7  8  1  0  0  0  0
  8  9  1  0  0  0  0
 10 11  1  0  0  0  0
 11 12  1  0  0  0  0
M  END
>  <CHROM.1>
-170.00800102,-179.83293307,54.66473153,31.02128266,-23.52279365,4.98169191
1.78496291,0.27385093,-2.25066128

>  <Name>
ligand

>  <RI>
0

>  <Rbt.Current_Directory>
/home/itssahil/PROJECTS/Mol_Feturizer/New_Systems/rnas/4E8N

>  <Rbt.Executable>
rbdock ($Id: //depot/dev/client3/rdock/2013.1/src/exe/rbdock.cxx#4 $)

>  <Rbt.Library>
libRbt.so (2013.1, Build901 2013/11/27)

>  <Rbt.Parameter_File>
/export/apps/rDock/src/rDock_2013.1_src/data/scripts/dock_solv.prm

>  <Rbt.Receptor>
prm/pocket_docking_5.prm

>  <SCORE>
-11.8438

>  <SCORE.INTER>
-7.95331

>  <SCORE.INTER.CONST>
1

>  <SCORE.INTER.POLAR>
0

>  <SCORE.INTER.ROT>
3

>  <SCORE.INTER.SOLV>
4.31941

>  <SCORE.INTER.VDW>
-12.342

>  <SCORE.INTER.norm>
-0.662776

>  <SCORE.INTRA>
-3.89051

>  <SCORE.INTRA.DIHEDRAL>
-4.83337

>  <SCORE.INTRA.DIHEDRAL.0>
5.0186

>  <SCORE.INTRA.POLAR>
0

>  <SCORE.INTRA.POLAR.0>
0

>  <SCORE.INTRA.REPUL>
0

>  <SCORE.INTRA.REPUL.0>
0

>  <SCORE.INTRA.SOLV>
-0.115578

>  <SCORE.INTRA.SOLV.lig_0>
-16.1608

>  <SCORE.INTRA.VDW>
-1.41603

>  <SCORE.INTRA.VDW.0>
1.14169

>  <SCORE.INTRA.norm>
-0.324209

>  <SCORE.RESTR>
0

>  <SCORE.RESTR.CAVITY>
0

>  <SCORE.RESTR.norm>
0

>  <SCORE.SYSTEM>
0

>  <SCORE.SYSTEM.CONST>
0

>  <SCORE.SYSTEM.DIHEDRAL>
0

>  <SCORE.SYSTEM.SOLV>
0

>  <SCORE.SYSTEM.norm>
0

>  <SCORE.heavy>
12

>  <SCORE.norm>
-0.986984

>  <RMSD>
3.570

$$$$
ligand
 OpenBabel11021811493D
libRbt.so/2013.1/901 2013/11/27
 12 12  0  0  0  0  0  0  0  0999 V2000
   30.5131  -24.1260    3.5176 N   0  0  0  0  0  0  0  0  0  0  0  0
   30.4982  -21.2424    7.7832 O   0  0  0  0  0  0  0  0  0  0  0  0
   29.2481  -24.8905    3.3904 C   0  0  0  0  0  0  0  0  0  0  0  0
   31.6603  -23.2954    7.8633 O   0  0  0  0  0  0  0  0  0  0  0  0
   28.8726  -24.9562    1.9136 C   0  0  0  0  0  0  0  0  0  0  0  0
   32.7373  -21.3469    6.8250 O   0  0  0  0  0  0  0  0  0  0  0  0
   29.8920  -25.7137    1.1814 N   0  0  0  0  0  0  0  0  0  0  0  0
   30.9434  -26.0933    2.1282 C   0  0  0  0  0  0  0  0  0  0  0  0
   31.5239  -24.8031    2.6816 C   0  0  0  0  0  0  0  0  0  0  0  0
   31.0222  -23.9218    4.9319 C   0  0  0  0  0  0  0  0  0  0  0  0
   30.5165  -22.6589    5.6769 C   0  0  0  0  0  0  0  0  0  0  0  0
   31.3455  -22.1433    7.0591 S   0  0  0  0  0  0  0  0  0  0  0  0
  1  3  1  0  0  0  0
  1  9  1  0  0  0  0
  1 10  1  0  0  0  0
  2 12  1  0  0  0  0
  3  5  1  0  0  0  0
  4 12  2  0  0  0  0
  5  7  1  0  0  0  0
  6 12  2  0  0  0  0
  7  8  1  0  0  0  0
  8  9  1  0  0  0  0
 10 11  1  0  0  0  0
 11 12  1  0  0  0  0
M  END
>  <CHROM.1>
-89.12149934,-163.48144588,-163.02230728,30.81656893,-23.55794959,4.90206767
1.79569122,0.11424674,-2.17267975

>  <Name>
ligand

>  <RI>
0

>  <Rbt.Current_Directory>
/home/itssahil/PROJECTS/Mol_Feturizer/New_Systems/rnas/4E8N

>  <Rbt.Executable>
rbdock ($Id: //depot/dev/client3/rdock/2013.1/src/exe/rbdock.cxx#4 $)

>  <Rbt.Library>
libRbt.so (2013.1, Build901 2013/11/27)

>  <Rbt.Parameter_File>
/export/apps/rDock/src/rDock_2013.1_src/data/scripts/dock_solv.prm

>  <Rbt.Receptor>
prm/pocket_docking_5.prm

>  <SCORE>
-10.5396

>  <SCORE.INTER>
-7.76829

>  <SCORE.INTER.CONST>
1

>  <SCORE.INTER.POLAR>
0

>  <SCORE.INTER.ROT>
3

>  <SCORE.INTER.SOLV>
5.5425

>  <SCORE.INTER.VDW>
-12.6264

>  <SCORE.INTER.norm>
-0.647358

>  <SCORE.INTRA>
-2.77128

>  <SCORE.INTRA.DIHEDRAL>
-2.12987

>  <SCORE.INTRA.DIHEDRAL.0>
5.0186

>  <SCORE.INTRA.POLAR>
0

>  <SCORE.INTRA.POLAR.0>
0

>  <SCORE.INTRA.REPUL>
0

>  <SCORE.INTRA.REPUL.0>
0

>  <SCORE.INTRA.SOLV>
0.0674864

>  <SCORE.INTRA.SOLV.lig_0>
-16.1608

>  <SCORE.INTRA.VDW>
-1.74009

>  <SCORE.INTRA.VDW.0>
1.14169

>  <SCORE.INTRA.norm>
-0.23094

>  <SCORE.RESTR>
0

>  <SCORE.RESTR.CAVITY>
0

>  <SCORE.RESTR.norm>
0

>  <SCORE.SYSTEM>
0

>  <SCORE.SYSTEM.CONST>
0

>  <SCORE.SYSTEM.DIHEDRAL>
0

>  <SCORE.SYSTEM.SOLV>
0

>  <SCORE.SYSTEM.norm>
0

>  <SCORE.heavy>
12

>  <SCORE.norm>
-0.878298

>  <RMSD>
3.581

$$$$
ligand
 OpenBabel11021811493D
libRbt.so/2013.1/901 2013/11/27
 12 12  0  0  0  0  0  0  0  0999 V2000
   29.9666  -24.7932    3.9146 N   0  0  0  0  0  0  0  0  0  0  0  0
   31.7694  -23.4089    7.8669 O   0  0  0  0  0  0  0  0  0  0  0  0
   31.1141  -25.5184    3.3160 C   0  0  0  0  0  0  0  0  0  0  0  0
   32.8876  -21.6454    6.7662 O   0  0  0  0  0  0  0  0  0  0  0  0
   30.6693  -26.1013    1.9785 C   0  0  0  0  0  0  0  0  0  0  0  0
   30.5321  -21.3605    7.4026 O   0  0  0  0  0  0  0  0  0  0  0  0
   30.3378  -25.0123    1.0548 N   0  0  0  0  0  0  0  0  0  0  0  0
   30.5011  -23.7442    1.7699 C   0  0  0  0  0  0  0  0  0  0  0  0
   29.5337  -23.7717    2.9409 C   0  0  0  0  0  0  0  0  0  0  0  0
   30.2134  -24.1773    5.2787 C   0  0  0  0  0  0  0  0  0  0  0  0
   31.3637  -23.1412    5.3755 C   0  0  0  0  0  0  0  0  0  0  0  0
   31.6600  -22.3916    6.8633 S   0  0  0  0  0  0  0  0  0  0  0  0
  1  3  1  0  0  0  0
  1  9  1  0  0  0  0
  1 10  1  0  0  0  0
  2 12  1  0  0  0  0
  3  5  1  0  0  0  0
  4 12  2  0  0  0  0
  5  7  1  0  0  0  0
  6 12  2  0  0  0  0
  7  8  1  0  0  0  0
  8  9  1  0  0  0  0
 10 11  1  0  0  0  0
 11 12  1  0  0  0  0
M  END
>  <CHROM.1>
58.79275223,178.46787507,50.89527597,30.97867181,-23.57752413,4.84824245
-2.35265012,-1.24948220,0.31233006

>  <Name>
ligand

>  <RI>
0

>  <Rbt.Current_Directory>
/home/itssahil/PROJECTS/Mol_Feturizer/New_Systems/rnas/4E8N

>  <Rbt.Executable>
rbdock ($Id: //depot/dev/client3/rdock/2013.1/src/exe/rbdock.cxx#4 $)

>  <Rbt.Library>
libRbt.so (2013.1, Build901 2013/11/27)

>  <Rbt.Parameter_File>
/export/apps/rDock/src/rDock_2013.1_src/data/scripts/dock_solv.prm

>  <Rbt.Receptor>
prm/pocket_docking_6.prm

>  <SCORE>
-13.014

>  <SCORE.INTER>
-9.53881

>  <SCORE.INTER.CONST>
1

>  <SCORE.INTER.POLAR>
0

>  <SCORE.INTER.ROT>
3

>  <SCORE.INTER.SOLV>
7.17185

>  <SCORE.INTER.VDW>
-14.3498

>  <SCORE.INTER.norm>
-0.794901

>  <SCORE.INTRA>
-3.47523

>  <SCORE.INTRA.DIHEDRAL>
-4.80499

>  <SCORE.INTRA.DIHEDRAL.0>
5.0186

>  <SCORE.INTRA.POLAR>
0

>  <SCORE.INTRA.POLAR.0>
0

>  <SCORE.INTRA.REPUL>
0

>  <SCORE.INTRA.REPUL.0>
0

>  <SCORE.INTRA.SOLV>
-0.111261

>  <SCORE.INTRA.SOLV.lig_0>
-16.1608

>  <SCORE.INTRA.VDW>
-1.0171

>  <SCORE.INTRA.VDW.0>
1.14169

>  <SCORE.INTRA.norm>
-0.289603

>  <SCORE.RESTR>
0

>  <SCORE.RESTR.CAVITY>
0

>  <SCORE.RESTR.norm>
0

>  <SCORE.SYSTEM>
0

>  <SCORE.SYSTEM.CONST>
0

>  <SCORE.SYSTEM.DIHEDRAL>
0

>  <SCORE.SYSTEM.SOLV>
0

>  <SCORE.SYSTEM.norm>
0

>  <SCORE.heavy>
12

>  <SCORE.norm>
-1.0845

>  <RMSD>
3.583

$$$$
ligand
 OpenBabel11021811493D
libRbt.so/2013.1/901 2013/11/27
 12 12  0  0  0  0  0  0  0  0999 V2000
   29.9792  -24.8130    3.9158 N   0  0  0  0  0  0  0  0  0  0  0  0
   31.7480  -23.4312    7.8815 O   0  0  0  0  0  0  0  0  0  0  0  0
   31.1589  -25.4940    3.3279 C   0  0  0  0  0  0  0  0  0  0  0  0
   32.8656  -21.6587    6.7947 O   0  0  0  0  0  0  0  0  0  0  0  0
   30.7451  -26.1056    1.9934 C   0  0  0  0  0  0  0  0  0  0  0  0
   30.5057  -21.3852    7.4197 O   0  0  0  0  0  0  0  0  0  0  0  0
   30.3722  -25.0390    1.0594 N   0  0  0  0  0  0  0  0  0  0  0  0
   30.4789  -23.7595    1.7649 C   0  0  0  0  0  0  0  0  0  0  0  0
   29.5081  -23.8183    2.9320 C   0  0  0  0  0  0  0  0  0  0  0  0
   30.1937  -24.1763    5.2759 C   0  0  0  0  0  0  0  0  0  0  0  0
   31.3546  -23.1538    5.3892 C   0  0  0  0  0  0  0  0  0  0  0  0
   31.6403  -22.4098    6.8819 S   0  0  0  0  0  0  0  0  0  0  0  0
  1  3  1  0  0  0  0
  1  9  1  0  0  0  0
  1 10  1  0  0  0  0
  2 12  1  0  0  0  0
  3  5  1  0  0  0  0
  4 12  2  0  0  0  0
  5  7  1  0  0  0  0
  6 12  2  0  0  0  0
  7  8  1  0  0  0  0
  8  9  1  0  0  0  0
 10 11  1  0  0  0  0
 11 12  1  0  0  0  0
M  END
>  <CHROM.1>
55.25895074,179.92494433,51.88626270,30.97620844,-23.59286804,4.85852789
-2.20404758,-1.19932482,0.47110551

>  <Name>
ligand

>  <RI>
0

>  <Rbt.Current_Directory>
/home/itssahil/PROJECTS/Mol_Feturizer/New_Systems/rnas/4E8N

>  <Rbt.Executable>
rbdock ($Id: //depot/dev/client3/rdock/2013.1/src/exe/rbdock.cxx#4 $)

>  <Rbt.Library>
libRbt.so (2013.1, Build901 2013/11/27)

>  <Rbt.Parameter_File>
/export/apps/rDock/src/rDock_2013.1_src/data/scripts/dock_solv.prm

>  <Rbt.Receptor>
prm/pocket_docking_7.prm

>  <SCORE>
-12.9961

>  <SCORE.INTER>
-9.53065

>  <SCORE.INTER.CONST>
1

>  <SCORE.INTER.POLAR>
0

>  <SCORE.INTER.ROT>
3

>  <SCORE.INTER.SOLV>
7.16858

>  <SCORE.INTER.VDW>
-14.3433

>  <SCORE.INTER.norm>
-0.794221

>  <SCORE.INTRA>
-3.46549

>  <SCORE.INTRA.DIHEDRAL>
-4.80286

>  <SCORE.INTRA.DIHEDRAL.0>
5.0186

>  <SCORE.INTRA.POLAR>
0

>  <SCORE.INTRA.POLAR.0>
0

>  <SCORE.INTRA.REPUL>
0

>  <SCORE.INTRA.REPUL.0>
0

>  <SCORE.INTRA.SOLV>
-0.109489

>  <SCORE.INTRA.SOLV.lig_0>
-16.1608

>  <SCORE.INTRA.VDW>
-1.00931

>  <SCORE.INTRA.VDW.0>
1.14169

>  <SCORE.INTRA.norm>
-0.28879

>  <SCORE.RESTR>
0

>  <SCORE.RESTR.CAVITY>
0

>  <SCORE.RESTR.norm>
0

>  <SCORE.SYSTEM>
0

>  <SCORE.SYSTEM.CONST>
0

>  <SCORE.SYSTEM.DIHEDRAL>
0

>  <SCORE.SYSTEM.SOLV>
0

>  <SCORE.SYSTEM.norm>
0

>  <SCORE.heavy>
12

>  <SCORE.norm>
-1.08301

>  <RMSD>
3.591

$$$$
ligand
 OpenBabel11021811493D
libRbt.so/2013.1/901 2013/11/27
 12 12  0  0  0  0  0  0  0  0999 V2000
   30.0140  -24.8460    3.9291 N   0  0  0  0  0  0  0  0  0  0  0  0
   31.7749  -23.4050    7.8705 O   0  0  0  0  0  0  0  0  0  0  0  0
   31.1781  -25.5057    3.2883 C   0  0  0  0  0  0  0  0  0  0  0  0
   32.8804  -21.6365    6.7651 O   0  0  0  0  0  0  0  0  0  0  0  0
   30.7248  -26.0910    1.9548 C   0  0  0  0  0  0  0  0  0  0  0  0
   30.5209  -21.3694    7.3946 O   0  0  0  0  0  0  0  0  0  0  0  0
   30.3148  -25.0070    1.0572 N   0  0  0  0  0  0  0  0  0  0  0  0
   30.4363  -23.7424    1.7868 C   0  0  0  0  0  0  0  0  0  0  0  0
   29.5046  -23.8336    2.9833 C   0  0  0  0  0  0  0  0  0  0  0  0
   30.2687  -24.2376    5.2951 C   0  0  0  0  0  0  0  0  0  0  0  0
   31.3728  -23.1513    5.3771 C   0  0  0  0  0  0  0  0  0  0  0  0
   31.6591  -22.3929    6.8624 S   0  0  0  0  0  0  0  0  0  0  0  0
  1  3  1  0  0  0  0
  1  9  1  0  0  0  0
  1 10  1  0  0  0  0
  2 12  1  0  0  0  0
  3  5  1  0  0  0  0
  4 12  2  0  0  0  0
  5  7  1  0  0  0  0
  6 12  2  0  0  0  0
  7  8  1  0  0  0  0
  8  9  1  0  0  0  0
 10 11  1  0  0  0  0
 11 12  1  0  0  0  0
M  END
>  <CHROM.1>
58.59278787,177.59653313,48.53567208,30.98578091,-23.58871991,4.85073903
-2.24182765,-1.20710537,0.42816767

>  <Name>
ligand

>  <RI>
0

>  <Rbt.Current_Directory>
/home/itssahil/PROJECTS/Mol_Feturizer/New_Systems/rnas/4E8N

>  <Rbt.Executable>
rbdock ($Id: //depot/dev/client3/rdock/2013.1/src/exe/rbdock.cxx#4 $)

>  <Rbt.Library>
libRbt.so (2013.1, Build901 2013/11/27)

>  <Rbt.Parameter_File>
/export/apps/rDock/src/rDock_2013.1_src/data/scripts/dock_solv.prm

>  <Rbt.Receptor>
prm/pocket_docking_6.prm

>  <SCORE>
-12.9734

>  <SCORE.INTER>
-9.56939

>  <SCORE.INTER.CONST>
1

>  <SCORE.INTER.POLAR>
0

>  <SCORE.INTER.ROT>
3

>  <SCORE.INTER.SOLV>
7.17335

>  <SCORE.INTER.VDW>
-14.3707

>  <SCORE.INTER.norm>
-0.797449

>  <SCORE.INTRA>
-3.404

>  <SCORE.INTRA.DIHEDRAL>
-4.67886

>  <SCORE.INTRA.DIHEDRAL.0>
5.0186

>  <SCORE.INTRA.POLAR>
0

>  <SCORE.INTRA.POLAR.0>
0

>  <SCORE.INTRA.REPUL>
0

>  <SCORE.INTRA.REPUL.0>
0

>  <SCORE.INTRA.SOLV>
-0.115714

>  <SCORE.INTRA.SOLV.lig_0>
-16.1608

>  <SCORE.INTRA.VDW>
-1.00671

>  <SCORE.INTRA.VDW.0>
1.14169

>  <SCORE.INTRA.norm>
-0.283666

>  <SCORE.RESTR>
0

>  <SCORE.RESTR.CAVITY>
0

>  <SCORE.RESTR.norm>
0

>  <SCORE.SYSTEM>
0

>  <SCORE.SYSTEM.CONST>
0

>  <SCORE.SYSTEM.DIHEDRAL>
0

>  <SCORE.SYSTEM.SOLV>
0

>  <SCORE.SYSTEM.norm>
0

>  <SCORE.heavy>
12

>  <SCORE.norm>
-1.08112

>  <RMSD>
3.595

$$$$
ligand
 OpenBabel11021811493D
libRbt.so/2013.1/901 2013/11/27
 12 12  0  0  0  0  0  0  0  0999 V2000
   30.7214  -23.6926    3.8764 N   0  0  0  0  0  0  0  0  0  0  0  0
   31.8815  -23.4891    7.9514 O   0  0  0  0  0  0  0  0  0  0  0  0
   29.7915  -24.3358    2.9159 C   0  0  0  0  0  0  0  0  0  0  0  0
   33.2005  -22.6468    6.1843 O   0  0  0  0  0  0  0  0  0  0  0  0
   30.4636  -24.3719    1.5473 C   0  0  0  0  0  0  0  0  0  0  0  0
   32.4401  -21.1162    7.9488 O   0  0  0  0  0  0  0  0  0  0  0  0
   31.6545  -25.2246    1.6079 N   0  0  0  0  0  0  0  0  0  0  0  0
   31.8053  -25.6972    2.9863 C   0  0  0  0  0  0  0  0  0  0  0  0
   31.9793  -24.4648    3.8574 C   0  0  0  0  0  0  0  0  0  0  0  0
   30.2012  -23.5313    5.2923 C   0  0  0  0  0  0  0  0  0  0  0  0
   30.6816  -22.2784    6.0705 C   0  0  0  0  0  0  0  0  0  0  0  0
   32.0657  -22.4018    7.0360 S   0  0  0  0  0  0  0  0  0  0  0  0
  1  3  1  0  0  0  0
  1  9  1  0  0  0  0
  1 10  1  0  0  0  0
  2 12  1  0  0  0  0
  3  5  1  0  0  0  0
  4 12  2  0  0  0  0
  5  7  1  0  0  0  0
  6 12  2  0  0  0  0
  7  8  1  0  0  0  0
  8  9  1  0  0  0  0
 10 11  1  0  0  0  0
 11 12  1  0  0  0  0
M  END
>  <CHROM.1>
-146.87148052,-92.11770428,-54.50113972,31.50287545,-23.45469627,5.06528400
1.78820520,0.31325613,-2.11455559

>  <Name>
ligand

>  <RI>
0

>  <Rbt.Current_Directory>
/home/itssahil/PROJECTS/Mol_Feturizer/New_Systems/rnas/4E8N

>  <Rbt.Executable>
rbdock ($Id: //depot/dev/client3/rdock/2013.1/src/exe/rbdock.cxx#4 $)

>  <Rbt.Library>
libRbt.so (2013.1, Build901 2013/11/27)

>  <Rbt.Parameter_File>
/export/apps/rDock/src/rDock_2013.1_src/data/scripts/dock_solv.prm

>  <Rbt.Receptor>
prm/pocket_docking_4.prm

>  <SCORE>
-11.3059

>  <SCORE.INTER>
-8.97565

>  <SCORE.INTER.CONST>
1

>  <SCORE.INTER.POLAR>
0

>  <SCORE.INTER.ROT>
3

>  <SCORE.INTER.SOLV>
5.31156

>  <SCORE.INTER.VDW>
-13.3543

>  <SCORE.INTER.norm>
-0.747971

>  <SCORE.INTRA>
-2.33025

>  <SCORE.INTRA.DIHEDRAL>
-0.565568

>  <SCORE.INTRA.DIHEDRAL.0>
5.0186

>  <SCORE.INTRA.POLAR>
0

>  <SCORE.INTRA.POLAR.0>
0

>  <SCORE.INTRA.REPUL>
0

>  <SCORE.INTRA.REPUL.0>
0

>  <SCORE.INTRA.SOLV>
0.31622

>  <SCORE.INTRA.SOLV.lig_0>
-16.1608

>  <SCORE.INTRA.VDW>
-2.20557

>  <SCORE.INTRA.VDW.0>
1.14169

>  <SCORE.INTRA.norm>
-0.194187

>  <SCORE.RESTR>
0

>  <SCORE.RESTR.CAVITY>
0

>  <SCORE.RESTR.norm>
0

>  <SCORE.SYSTEM>
0

>  <SCORE.SYSTEM.CONST>
0

>  <SCORE.SYSTEM.DIHEDRAL>
0

>  <SCORE.SYSTEM.SOLV>
0

>  <SCORE.SYSTEM.norm>
0

>  <SCORE.heavy>
12

>  <SCORE.norm>
-0.942158

>  <RMSD>
3.598

$$$$
ligand
 OpenBabel11021811493D
libRbt.so/2013.1/901 2013/11/27
 12 12  0  0  0  0  0  0  0  0999 V2000
   30.3941  -23.9323    3.4683 N   0  0  0  0  0  0  0  0  0  0  0  0
   31.6697  -23.5633    7.9119 O   0  0  0  0  0  0  0  0  0  0  0  0
   29.2939  -24.9274    3.4617 C   0  0  0  0  0  0  0  0  0  0  0  0
   32.8301  -21.8788    6.7339 O   0  0  0  0  0  0  0  0  0  0  0  0
   28.6316  -24.9025    2.0881 C   0  0  0  0  0  0  0  0  0  0  0  0
   30.9321  -21.2534    8.1628 O   0  0  0  0  0  0  0  0  0  0  0  0
   29.5935  -25.3390    1.0716 N   0  0  0  0  0  0  0  0  0  0  0  0
   30.8737  -25.5929    1.7368 C   0  0  0  0  0  0  0  0  0  0  0  0
   31.3110  -24.2806    2.3651 C   0  0  0  0  0  0  0  0  0  0  0  0
   31.1459  -23.7873    4.7778 C   0  0  0  0  0  0  0  0  0  0  0  0
   30.6249  -22.7079    5.7624 C   0  0  0  0  0  0  0  0  0  0  0  0
   31.5367  -22.3600    7.1448 S   0  0  0  0  0  0  0  0  0  0  0  0
  1  3  1  0  0  0  0
  1  9  1  0  0  0  0
  1 10  1  0  0  0  0
  2 12  1  0  0  0  0
  3  5  1  0  0  0  0
  4 12  2  0  0  0  0
  5  7  1  0  0  0  0
  6 12  2  0  0  0  0
  7  8  1  0  0  0  0
  8  9  1  0  0  0  0
 10 11  1  0  0  0  0
 11 12  1  0  0  0  0
M  END
>  <CHROM.1>
-91.80994712,-172.13223463,-59.14370909,30.84472880,-23.53804428,4.89409603
1.84720397,-0.12841332,-2.01517069

>  <Name>
ligand

>  <RI>
0

>  <Rbt.Current_Directory>
/home/itssahil/PROJECTS/Mol_Feturizer/New_Systems/rnas/4E8N

>  <Rbt.Executable>
rbdock ($Id: //depot/dev/client3/rdock/2013.1/src/exe/rbdock.cxx#4 $)

>  <Rbt.Library>
libRbt.so (2013.1, Build901 2013/11/27)

>  <Rbt.Parameter_File>
/export/apps/rDock/src/rDock_2013.1_src/data/scripts/dock_solv.prm

>  <Rbt.Receptor>
prm/pocket_docking_7.prm

>  <SCORE>
-12.2057

>  <SCORE.INTER>
-8.67547

>  <SCORE.INTER.CONST>
1

>  <SCORE.INTER.POLAR>
0

>  <SCORE.INTER.ROT>
3

>  <SCORE.INTER.SOLV>
5.66031

>  <SCORE.INTER.VDW>
-13.2704

>  <SCORE.INTER.norm>
-0.722956

>  <SCORE.INTRA>
-3.5302

>  <SCORE.INTRA.DIHEDRAL>
-3.38235

>  <SCORE.INTRA.DIHEDRAL.0>
5.0186

>  <SCORE.INTRA.POLAR>
0

>  <SCORE.INTRA.POLAR.0>
0

>  <SCORE.INTRA.REPUL>
0

>  <SCORE.INTRA.REPUL.0>
0

>  <SCORE.INTRA.SOLV>
-0.116004

>  <SCORE.INTRA.SOLV.lig_0>
-16.1608

>  <SCORE.INTRA.VDW>
-1.78102

>  <SCORE.INTRA.VDW.0>
1.14169

>  <SCORE.INTRA.norm>
-0.294183

>  <SCORE.RESTR>
0

>  <SCORE.RESTR.CAVITY>
0

>  <SCORE.RESTR.norm>
0

>  <SCORE.SYSTEM>
0

>  <SCORE.SYSTEM.CONST>
0

>  <SCORE.SYSTEM.DIHEDRAL>
0

>  <SCORE.SYSTEM.SOLV>
0

>  <SCORE.SYSTEM.norm>
0

>  <SCORE.heavy>
12

>  <SCORE.norm>
-1.01714

>  <RMSD>
3.605

$$$$
ligand
 OpenBabel11021811493D
libRbt.so/2013.1/901 2013/11/27
 12 12  0  0  0  0  0  0  0  0999 V2000
   30.1049  -24.9389    3.9414 N   0  0  0  0  0  0  0  0  0  0  0  0
   31.7800  -23.2040    7.8264 O   0  0  0  0  0  0  0  0  0  0  0  0
   31.3082  -25.5582    3.3336 C   0  0  0  0  0  0  0  0  0  0  0  0
   32.8195  -21.4646    6.6158 O   0  0  0  0  0  0  0  0  0  0  0  0
   30.8934  -26.2398    2.0338 C   0  0  0  0  0  0  0  0  0  0  0  0
   30.4381  -21.2718    7.1871 O   0  0  0  0  0  0  0  0  0  0  0  0
   30.4181  -25.2320    1.0813 N   0  0  0  0  0  0  0  0  0  0  0  0
   30.4604  -23.9257    1.7431 C   0  0  0  0  0  0  0  0  0  0  0  0
   29.5350  -24.0110    2.9447 C   0  0  0  0  0  0  0  0  0  0  0  0
   30.3202  -24.2448    5.2730 C   0  0  0  0  0  0  0  0  0  0  0  0
   31.4145  -23.1464    5.3152 C   0  0  0  0  0  0  0  0  0  0  0  0
   31.6347  -22.2722    6.7472 S   0  0  0  0  0  0  0  0  0  0  0  0
  1  3  1  0  0  0  0
  1  9  1  0  0  0  0
  1 10  1  0  0  0  0
  2 12  1  0  0  0  0
  3  5  1  0  0  0  0
  4 12  2  0  0  0  0
  5  7  1  0  0  0  0
  6 12  2  0  0  0  0
  7  8  1  0  0  0  0
  8  9  1  0  0  0  0
 10 11  1  0  0  0  0
 11 12  1  0  0  0  0
M  END
>  <CHROM.1>
55.09021036,176.30307002,51.37094726,31.01690985,-23.59378101,4.79774922
-2.08901246,-1.15766537,0.52768474

>  <Name>
ligand

>  <RI>
0

>  <Rbt.Current_Directory>
/home/itssahil/PROJECTS/Mol_Feturizer/New_Systems/rnas/4E8N

>  <Rbt.Executable>
rbdock ($Id: //depot/dev/client3/rdock/2013.1/src/exe/rbdock.cxx#4 $)

>  <Rbt.Library>
libRbt.so (2013.1, Build901 2013/11/27)

>  <Rbt.Parameter_File>
/export/apps/rDock/src/rDock_2013.1_src/data/scripts/dock_solv.prm

>  <Rbt.Receptor>
prm/pocket_docking_7.prm

>  <SCORE>
-12.8235

>  <SCORE.INTER>
-9.34901

>  <SCORE.INTER.CONST>
1

>  <SCORE.INTER.POLAR>
0

>  <SCORE.INTER.ROT>
3

>  <SCORE.INTER.SOLV>
6.59812

>  <SCORE.INTER.VDW>
-14.032

>  <SCORE.INTER.norm>
-0.779084

>  <SCORE.INTRA>
-3.47451

>  <SCORE.INTRA.DIHEDRAL>
-4.72791

>  <SCORE.INTRA.DIHEDRAL.0>
5.0186

>  <SCORE.INTRA.POLAR>
0

>  <SCORE.INTRA.POLAR.0>
0

>  <SCORE.INTRA.REPUL>
0

>  <SCORE.INTRA.REPUL.0>
0

>  <SCORE.INTRA.SOLV>
-0.110139

>  <SCORE.INTRA.SOLV.lig_0>
-16.1608

>  <SCORE.INTRA.VDW>
-1.05548

>  <SCORE.INTRA.VDW.0>
1.14169

>  <SCORE.INTRA.norm>
-0.289542

>  <SCORE.RESTR>
0

>  <SCORE.RESTR.CAVITY>
0

>  <SCORE.RESTR.norm>
0

>  <SCORE.SYSTEM>
0

>  <SCORE.SYSTEM.CONST>
0

>  <SCORE.SYSTEM.DIHEDRAL>
0

>  <SCORE.SYSTEM.SOLV>
0

>  <SCORE.SYSTEM.norm>
0

>  <SCORE.heavy>
12

>  <SCORE.norm>
-1.06863

>  <RMSD>
3.615

$$$$
ligand
 OpenBabel11021811493D
libRbt.so/2013.1/901 2013/11/27
 12 12  0  0  0  0  0  0  0  0999 V2000
   30.0482  -24.9407    3.9344 N   0  0  0  0  0  0  0  0  0  0  0  0
   31.7399  -23.4214    7.8817 O   0  0  0  0  0  0  0  0  0  0  0  0
   31.2652  -25.5607    3.3553 C   0  0  0  0  0  0  0  0  0  0  0  0
   32.8675  -21.6784    6.7584 O   0  0  0  0  0  0  0  0  0  0  0  0
   30.8825  -26.2354    2.0421 C   0  0  0  0  0  0  0  0  0  0  0  0
   30.4962  -21.3973    7.3350 O   0  0  0  0  0  0  0  0  0  0  0  0
   30.4349  -25.2219    1.0821 N   0  0  0  0  0  0  0  0  0  0  0  0
   30.4635  -23.9187    1.7506 C   0  0  0  0  0  0  0  0  0  0  0  0
   29.5069  -24.0068    2.9275 C   0  0  0  0  0  0  0  0  0  0  0  0
   30.2307  -24.2532    5.2742 C   0  0  0  0  0  0  0  0  0  0  0  0
   31.3872  -23.2246    5.3757 C   0  0  0  0  0  0  0  0  0  0  0  0
   31.6443  -22.4326    6.8488 S   0  0  0  0  0  0  0  0  0  0  0  0
  1  3  1  0  0  0  0
  1  9  1  0  0  0  0
  1 10  1  0  0  0  0
  2 12  1  0  0  0  0
  3  5  1  0  0  0  0
  4 12  2  0  0  0  0
  5  7  1  0  0  0  0
  6 12  2  0  0  0  0
  7  8  1  0  0  0  0
  8  9  1  0  0  0  0
 10 11  1  0  0  0  0
 11 12  1  0  0  0  0
M  END
>  <CHROM.1>
51.21962449,-179.65941646,52.04666630,31.00681791,-23.67161124,4.84901363
-2.05297344,-1.11462144,0.60757131

>  <Name>
ligand

>  <RI>
0

>  <Rbt.Current_Directory>
/home/itssahil/PROJECTS/Mol_Feturizer/New_Systems/rnas/4E8N

>  <Rbt.Executable>
rbdock ($Id: //depot/dev/client3/rdock/2013.1/src/exe/rbdock.cxx#4 $)

>  <Rbt.Library>
libRbt.so (2013.1, Build901 2013/11/27)

>  <Rbt.Parameter_File>
/export/apps/rDock/src/rDock_2013.1_src/data/scripts/dock_solv.prm

>  <Rbt.Receptor>
prm/pocket_docking_6.prm

>  <SCORE>
-12.9005

>  <SCORE.INTER>
-9.49489

>  <SCORE.INTER.CONST>
1

>  <SCORE.INTER.POLAR>
0

>  <SCORE.INTER.ROT>
3

>  <SCORE.INTER.SOLV>
6.99791

>  <SCORE.INTER.VDW>
-14.2626

>  <SCORE.INTER.norm>
-0.791241

>  <SCORE.INTRA>
-3.40559

>  <SCORE.INTRA.DIHEDRAL>
-4.70338

>  <SCORE.INTRA.DIHEDRAL.0>
5.0186

>  <SCORE.INTRA.POLAR>
0

>  <SCORE.INTRA.POLAR.0>
0

>  <SCORE.INTRA.REPUL>
0

>  <SCORE.INTRA.REPUL.0>
0

>  <SCORE.INTRA.SOLV>
-0.109362

>  <SCORE.INTRA.SOLV.lig_0>
-16.1608

>  <SCORE.INTRA.VDW>
-0.999218

>  <SCORE.INTRA.VDW.0>
1.14169

>  <SCORE.INTRA.norm>
-0.283799

>  <SCORE.RESTR>
0

>  <SCORE.RESTR.CAVITY>
0

>  <SCORE.RESTR.norm>
0

>  <SCORE.SYSTEM>
0

>  <SCORE.SYSTEM.CONST>
0

>  <SCORE.SYSTEM.DIHEDRAL>
0

>  <SCORE.SYSTEM.SOLV>
0

>  <SCORE.SYSTEM.norm>
0

>  <SCORE.heavy>
12

>  <SCORE.norm>
-1.07504

>  <RMSD>
3.662

$$$$
ligand
 OpenBabel11021811493D
libRbt.so/2013.1/901 2013/11/27
 12 12  0  0  0  0  0  0  0  0999 V2000
   30.6823  -23.4834    3.6180 N   0  0  0  0  0  0  0  0  0  0  0  0
   32.9303  -20.9673    6.2742 O   0  0  0  0  0  0  0  0  0  0  0  0
   30.5285  -23.1907    2.1717 C   0  0  0  0  0  0  0  0  0  0  0  0
   32.8381  -22.8957    7.6323 O   0  0  0  0  0  0  0  0  0  0  0  0
   30.8846  -24.4487    1.3863 C   0  0  0  0  0  0  0  0  0  0  0  0
   33.5668  -23.1075    5.2959 O   0  0  0  0  0  0  0  0  0  0  0  0
   29.9245  -25.5112    1.7001 N   0  0  0  0  0  0  0  0  0  0  0  0
   28.9910  -24.9976    2.7056 C   0  0  0  0  0  0  0  0  0  0  0  0
   29.8164  -24.6377    3.9291 C   0  0  0  0  0  0  0  0  0  0  0  0
   30.4079  -22.3257    4.5591 C   0  0  0  0  0  0  0  0  0  0  0  0
   30.9099  -22.4825    6.0183 C   0  0  0  0  0  0  0  0  0  0  0  0
   32.5688  -22.3532    6.3261 S   0  0  0  0  0  0  0  0  0  0  0  0
  1  3  1  0  0  0  0
  1  9  1  0  0  0  0
  1 10  1  0  0  0  0
  2 12  1  0  0  0  0
  3  5  1  0  0  0  0
  4 12  2  0  0  0  0
  5  7  1  0  0  0  0
  6 12  2  0  0  0  0
  7  8  1  0  0  0  0
  8  9  1  0  0  0  0
 10 11  1  0  0  0  0
 11 12  1  0  0  0  0
M  END
>  <CHROM.1>
-164.48491318,73.58574653,76.00472787,31.36184284,-23.23932977,4.55631141
2.12808027,-0.39142976,-1.84768337

>  <Name>
ligand

>  <RI>
0

>  <Rbt.Current_Directory>
/home/itssahil/PROJECTS/Mol_Feturizer/New_Systems/rnas/4E8N

>  <Rbt.Executable>
rbdock ($Id: //depot/dev/client3/rdock/2013.1/src/exe/rbdock.cxx#4 $)

>  <Rbt.Library>
libRbt.so (2013.1, Build901 2013/11/27)

>  <Rbt.Parameter_File>
/export/apps/rDock/src/rDock_2013.1_src/data/scripts/dock_solv.prm

>  <Rbt.Receptor>
prm/pocket_docking_5.prm

>  <SCORE>
-9.92179

>  <SCORE.INTER>
-6.43159

>  <SCORE.INTER.CONST>
1

>  <SCORE.INTER.POLAR>
0

>  <SCORE.INTER.ROT>
3

>  <SCORE.INTER.SOLV>
6.66089

>  <SCORE.INTER.VDW>
-12.108

>  <SCORE.INTER.norm>
-0.535966

>  <SCORE.INTRA>
-3.4902

>  <SCORE.INTRA.DIHEDRAL>
-3.42083

>  <SCORE.INTRA.DIHEDRAL.0>
5.0186

>  <SCORE.INTRA.POLAR>
0

>  <SCORE.INTRA.POLAR.0>
0

>  <SCORE.INTRA.REPUL>
0

>  <SCORE.INTRA.REPUL.0>
0

>  <SCORE.INTRA.SOLV>
0.381688

>  <SCORE.INTRA.SOLV.lig_0>
-16.1608

>  <SCORE.INTRA.VDW>
-1.97063

>  <SCORE.INTRA.VDW.0>
1.14169

>  <SCORE.INTRA.norm>
-0.29085

>  <SCORE.RESTR>
0

>  <SCORE.RESTR.CAVITY>
0

>  <SCORE.RESTR.norm>
0

>  <SCORE.SYSTEM>
0

>  <SCORE.SYSTEM.CONST>
0

>  <SCORE.SYSTEM.DIHEDRAL>
0

>  <SCORE.SYSTEM.SOLV>
0

>  <SCORE.SYSTEM.norm>
0

>  <SCORE.heavy>
12

>  <SCORE.norm>
-0.826816

>  <RMSD>
3.664

$$$$
ligand
 OpenBabel11021811493D
libRbt.so/2013.1/901 2013/11/27
 12 12  0  0  0  0  0  0  0  0999 V2000
   30.0094  -25.0134    3.7883 N   0  0  0  0  0  0  0  0  0  0  0  0
   32.9043  -21.8314    6.5982 O   0  0  0  0  0  0  0  0  0  0  0  0
   31.2094  -25.6332    3.1746 C   0  0  0  0  0  0  0  0  0  0  0  0
   30.5854  -21.6295    6.9901 O   0  0  0  0  0  0  0  0  0  0  0  0
   30.7948  -26.2832    1.8586 C   0  0  0  0  0  0  0  0  0  0  0  0
   31.8124  -23.5072    7.9918 O   0  0  0  0  0  0  0  0  0  0  0  0
   30.3361  -25.2507    0.9245 N   0  0  0  0  0  0  0  0  0  0  0  0
   30.3888  -23.9589    1.6135 C   0  0  0  0  0  0  0  0  0  0  0  0
   29.4554  -24.0589    2.8080 C   0  0  0  0  0  0  0  0  0  0  0  0
   30.2245  -24.3495    5.1352 C   0  0  0  0  0  0  0  0  0  0  0  0
   31.3531  -23.2884    5.2146 C   0  0  0  0  0  0  0  0  0  0  0  0
   31.6626  -22.5399    6.7003 S   0  0  0  0  0  0  0  0  0  0  0  0
  1  3  1  0  0  0  0
  1  9  1  0  0  0  0
  1 10  1  0  0  0  0
  2 12  1  0  0  0  0
  3  5  1  0  0  0  0
  4 12  2  0  0  0  0
  5  7  1  0  0  0  0
  6 12  2  0  0  0  0
  7  8  1  0  0  0  0
  8  9  1  0  0  0  0
 10 11  1  0  0  0  0
 11 12  1  0  0  0  0
M  END
>  <CHROM.1>
53.67905679,-178.62158483,167.82684390,30.99374849,-23.76330886,4.70204685
-2.24782300,-1.19626644,0.42738579

>  <Name>
ligand

>  <RI>
0

>  <Rbt.Current_Directory>
/home/itssahil/PROJECTS/Mol_Feturizer/New_Systems/rnas/4E8N

>  <Rbt.Executable>
rbdock ($Id: //depot/dev/client3/rdock/2013.1/src/exe/rbdock.cxx#4 $)

>  <Rbt.Library>
libRbt.so (2013.1, Build901 2013/11/27)

>  <Rbt.Parameter_File>
/export/apps/rDock/src/rDock_2013.1_src/data/scripts/dock_solv.prm

>  <Rbt.Receptor>
prm/pocket_docking_5.prm

>  <SCORE>
-11.9412

>  <SCORE.INTER>
-8.6492

>  <SCORE.INTER.CONST>
1

>  <SCORE.INTER.POLAR>
0

>  <SCORE.INTER.ROT>
3

>  <SCORE.INTER.SOLV>
8.7167

>  <SCORE.INTER.VDW>
-14.2717

>  <SCORE.INTER.norm>
-0.720767

>  <SCORE.INTRA>
-3.29201

>  <SCORE.INTRA.DIHEDRAL>
-4.57147

>  <SCORE.INTRA.DIHEDRAL.0>
5.0186

>  <SCORE.INTRA.POLAR>
0

>  <SCORE.INTRA.POLAR.0>
0

>  <SCORE.INTRA.REPUL>
0

>  <SCORE.INTRA.REPUL.0>
0

>  <SCORE.INTRA.SOLV>
0.0847023

>  <SCORE.INTRA.SOLV.lig_0>
-16.1608

>  <SCORE.INTRA.VDW>
-1.04862

>  <SCORE.INTRA.VDW.0>
1.14169

>  <SCORE.INTRA.norm>
-0.274334

>  <SCORE.RESTR>
0

>  <SCORE.RESTR.CAVITY>
0

>  <SCORE.RESTR.norm>
0

>  <SCORE.SYSTEM>
0

>  <SCORE.SYSTEM.CONST>
0

>  <SCORE.SYSTEM.DIHEDRAL>
0

>  <SCORE.SYSTEM.SOLV>
0

>  <SCORE.SYSTEM.norm>
0

>  <SCORE.heavy>
12

>  <SCORE.norm>
-0.995101

>  <RMSD>
3.677

$$$$
ligand
 OpenBabel11021811493D
libRbt.so/2013.1/901 2013/11/27
 12 12  0  0  0  0  0  0  0  0999 V2000
   30.2344  -25.1907    4.0413 N   0  0  0  0  0  0  0  0  0  0  0  0
   30.2689  -21.4835    6.9013 O   0  0  0  0  0  0  0  0  0  0  0  0
   31.5270  -25.5122    3.3881 C   0  0  0  0  0  0  0  0  0  0  0  0
   31.7828  -23.0836    7.7494 O   0  0  0  0  0  0  0  0  0  0  0  0
   31.2468  -26.3961    2.1772 C   0  0  0  0  0  0  0  0  0  0  0  0
   32.6575  -21.0817    6.6261 O   0  0  0  0  0  0  0  0  0  0  0  0
   30.4591  -25.6462    1.1942 N   0  0  0  0  0  0  0  0  0  0  0  0
   30.1737  -24.3230    1.7546 C   0  0  0  0  0  0  0  0  0  0  0  0
   29.3757  -24.5472    3.0277 C   0  0  0  0  0  0  0  0  0  0  0  0
   30.3216  -24.3462    5.2985 C   0  0  0  0  0  0  0  0  0  0  0  0
   31.2793  -23.1270    5.2517 C   0  0  0  0  0  0  0  0  0  0  0  0
   31.4849  -22.2000    6.6523 S   0  0  0  0  0  0  0  0  0  0  0  0
  1  3  1  0  0  0  0
  1  9  1  0  0  0  0
  1 10  1  0  0  0  0
  2 12  1  0  0  0  0
  3  5  1  0  0  0  0
  4 12  2  0  0  0  0
  5  7  1  0  0  0  0
  6 12  2  0  0  0  0
  7  8  1  0  0  0  0
  8  9  1  0  0  0  0
 10 11  1  0  0  0  0
 11 12  1  0  0  0  0
M  END
>  <CHROM.1>
44.29563395,-176.56422699,-69.80267400,30.97643850,-23.68812182,4.78666297
-1.83781365,-0.83512623,0.73457824

>  <Name>
ligand

>  <RI>
0

>  <Rbt.Current_Directory>
/home/itssahil/PROJECTS/Mol_Feturizer/New_Systems/rnas/4E8N

>  <Rbt.Executable>
rbdock ($Id: //depot/dev/client3/rdock/2013.1/src/exe/rbdock.cxx#4 $)

>  <Rbt.Library>
libRbt.so (2013.1, Build901 2013/11/27)

>  <Rbt.Parameter_File>
/export/apps/rDock/src/rDock_2013.1_src/data/scripts/dock_solv.prm

>  <Rbt.Receptor>
prm/pocket_docking_5.prm

>  <SCORE>
-11.8785

>  <SCORE.INTER>
-8.7853

>  <SCORE.INTER.CONST>
1

>  <SCORE.INTER.POLAR>
0

>  <SCORE.INTER.ROT>
3

>  <SCORE.INTER.SOLV>
6.83331

>  <SCORE.INTER.VDW>
-13.7346

>  <SCORE.INTER.norm>
-0.732109

>  <SCORE.INTRA>
-3.09322

>  <SCORE.INTRA.DIHEDRAL>
-4.30012

>  <SCORE.INTRA.DIHEDRAL.0>
5.0186

>  <SCORE.INTRA.POLAR>
0

>  <SCORE.INTRA.POLAR.0>
0

>  <SCORE.INTRA.REPUL>
0

>  <SCORE.INTRA.REPUL.0>
0

>  <SCORE.INTRA.SOLV>
-0.0761714

>  <SCORE.INTRA.SOLV.lig_0>
-16.1608

>  <SCORE.INTRA.VDW>
-0.905076

>  <SCORE.INTRA.VDW.0>
1.14169

>  <SCORE.INTRA.norm>
-0.257768

>  <SCORE.RESTR>
0

>  <SCORE.RESTR.CAVITY>
0

>  <SCORE.RESTR.norm>
0

>  <SCORE.SYSTEM>
0

>  <SCORE.SYSTEM.CONST>
0

>  <SCORE.SYSTEM.DIHEDRAL>
0

>  <SCORE.SYSTEM.SOLV>
0

>  <SCORE.SYSTEM.norm>
0

>  <SCORE.heavy>
12

>  <SCORE.norm>
-0.989877

>  <RMSD>
3.720

$$$$
ligand
 OpenBabel11021811493D
libRbt.so/2013.1/901 2013/11/27
 12 12  0  0  0  0  0  0  0  0999 V2000
   30.3489  -23.5850    3.0132 N   0  0  0  0  0  0  0  0  0  0  0  0
   31.7507  -23.5351    7.9559 O   0  0  0  0  0  0  0  0  0  0  0  0
   29.2279  -24.5536    3.0906 C   0  0  0  0  0  0  0  0  0  0  0  0
   32.8493  -22.0983    6.4392 O   0  0  0  0  0  0  0  0  0  0  0  0
   29.1248  -25.2775    1.7521 C   0  0  0  0  0  0  0  0  0  0  0  0
   30.7164  -21.3908    7.4316 O   0  0  0  0  0  0  0  0  0  0  0  0
   30.3403  -26.0651    1.5254 N   0  0  0  0  0  0  0  0  0  0  0  0
   31.2500  -25.8303    2.6494 C   0  0  0  0  0  0  0  0  0  0  0  0
   31.5642  -24.3440    2.6581 C   0  0  0  0  0  0  0  0  0  0  0  0
   30.5765  -22.7377    4.2507 C   0  0  0  0  0  0  0  0  0  0  0  0
   30.9086  -23.4974    5.5616 C   0  0  0  0  0  0  0  0  0  0  0  0
   31.5792  -22.6350    6.8539 S   0  0  0  0  0  0  0  0  0  0  0  0
  1  3  1  0  0  0  0
  1  9  1  0  0  0  0
  1 10  1  0  0  0  0
  2 12  1  0  0  0  0
  3  5  1  0  0  0  0
  4 12  2  0  0  0  0
  5  7  1  0  0  0  0
  6 12  2  0  0  0  0
  7  8  1  0  0  0  0
  8  9  1  0  0  0  0
 10 11  1  0  0  0  0
 11 12  1  0  0  0  0
M  END
>  <CHROM.1>
60.42491441,163.52278933,177.99220510,30.94958862,-23.64194243,4.74703734
1.85605749,0.48961794,-2.21952379

>  <Name>
ligand

>  <RI>
0

>  <Rbt.Current_Directory>
/home/itssahil/PROJECTS/Mol_Feturizer/New_Systems/rnas/4E8N

>  <Rbt.Executable>
rbdock ($Id: //depot/dev/client3/rdock/2013.1/src/exe/rbdock.cxx#4 $)

>  <Rbt.Library>
libRbt.so (2013.1, Build901 2013/11/27)

>  <Rbt.Parameter_File>
/export/apps/rDock/src/rDock_2013.1_src/data/scripts/dock_solv.prm

>  <Rbt.Receptor>
prm/pocket_docking_5.prm

>  <SCORE>
-11.9395

>  <SCORE.INTER>
-8.89309

>  <SCORE.INTER.CONST>
1

>  <SCORE.INTER.POLAR>
0

>  <SCORE.INTER.ROT>
3

>  <SCORE.INTER.SOLV>
3.95793

>  <SCORE.INTER.VDW>
-12.848

>  <SCORE.INTER.norm>
-0.741091

>  <SCORE.INTRA>
-3.04645

>  <SCORE.INTRA.DIHEDRAL>
-4.04074

>  <SCORE.INTRA.DIHEDRAL.0>
5.0186

>  <SCORE.INTRA.POLAR>
0

>  <SCORE.INTRA.POLAR.0>
0

>  <SCORE.INTRA.REPUL>
0

>  <SCORE.INTRA.REPUL.0>
0

>  <SCORE.INTRA.SOLV>
0.0944702

>  <SCORE.INTRA.SOLV.lig_0>
-16.1608

>  <SCORE.INTRA.VDW>
-1.07331

>  <SCORE.INTRA.VDW.0>
1.14169

>  <SCORE.INTRA.norm>
-0.25387

>  <SCORE.RESTR>
0

>  <SCORE.RESTR.CAVITY>
0

>  <SCORE.RESTR.norm>
0

>  <SCORE.SYSTEM>
0

>  <SCORE.SYSTEM.CONST>
0

>  <SCORE.SYSTEM.DIHEDRAL>
0

>  <SCORE.SYSTEM.SOLV>
0

>  <SCORE.SYSTEM.norm>
0

>  <SCORE.heavy>
12

>  <SCORE.norm>
-0.994961

>  <RMSD>
3.748

$$$$
ligand
 OpenBabel11021811493D
libRbt.so/2013.1/901 2013/11/27
 12 12  0  0  0  0  0  0  0  0999 V2000
   30.2075  -23.6452    2.9370 N   0  0  0  0  0  0  0  0  0  0  0  0
   30.5477  -21.5748    7.0855 O   0  0  0  0  0  0  0  0  0  0  0  0
   29.1650  -24.6918    3.0732 C   0  0  0  0  0  0  0  0  0  0  0  0
   31.6638  -23.4989    7.8753 O   0  0  0  0  0  0  0  0  0  0  0  0
   29.0439  -25.4257    1.7417 C   0  0  0  0  0  0  0  0  0  0  0  0
   32.8886  -21.8888    6.4817 O   0  0  0  0  0  0  0  0  0  0  0  0
   30.2993  -26.1244    1.4506 N   0  0  0  0  0  0  0  0  0  0  0  0
   31.2479  -25.8208    2.5250 C   0  0  0  0  0  0  0  0  0  0  0  0
   31.4539  -24.3157    2.5177 C   0  0  0  0  0  0  0  0  0  0  0  0
   30.4384  -22.7795    4.1611 C   0  0  0  0  0  0  0  0  0  0  0  0
   30.8141  -23.5169    5.4729 C   0  0  0  0  0  0  0  0  0  0  0  0
   31.4681  -22.6211    6.7509 S   0  0  0  0  0  0  0  0  0  0  0  0
  1  3  1  0  0  0  0
  1  9  1  0  0  0  0
  1 10  1  0  0  0  0
  2 12  1  0  0  0  0
  3  5  1  0  0  0  0
  4 12  2  0  0  0  0
  5  7  1  0  0  0  0
  6 12  2  0  0  0  0
  7  8  1  0  0  0  0
  8  9  1  0  0  0  0
 10 11  1  0  0  0  0
 11 12  1  0  0  0  0
M  END
>  <CHROM.1>
57.02831944,164.38078588,56.74687143,30.86410466,-23.66579710,4.65250966
1.84009480,0.31755200,-2.18513427

>  <Name>
ligand

>  <RI>
0

>  <Rbt.Current_Directory>
/home/itssahil/PROJECTS/Mol_Feturizer/New_Systems/rnas/4E8N

>  <Rbt.Executable>
rbdock ($Id: //depot/dev/client3/rdock/2013.1/src/exe/rbdock.cxx#4 $)

>  <Rbt.Library>
libRbt.so (2013.1, Build901 2013/11/27)

>  <Rbt.Parameter_File>
/export/apps/rDock/src/rDock_2013.1_src/data/scripts/dock_solv.prm

>  <Rbt.Receptor>
prm/pocket_docking_7.prm

>  <SCORE>
-11.0584

>  <SCORE.INTER>
-7.91512

>  <SCORE.INTER.CONST>
1

>  <SCORE.INTER.POLAR>
0

>  <SCORE.INTER.ROT>
3

>  <SCORE.INTER.SOLV>
5.45625

>  <SCORE.INTER.VDW>
-12.6955

>  <SCORE.INTER.norm>
-0.659594

>  <SCORE.INTRA>
-3.14328

>  <SCORE.INTRA.DIHEDRAL>
-4.08856

>  <SCORE.INTRA.DIHEDRAL.0>
5.0186

>  <SCORE.INTRA.POLAR>
0

>  <SCORE.INTRA.POLAR.0>
0

>  <SCORE.INTRA.REPUL>
0

>  <SCORE.INTRA.REPUL.0>
0

>  <SCORE.INTRA.SOLV>
-0.0945315

>  <SCORE.INTRA.SOLV.lig_0>
-16.1608

>  <SCORE.INTRA.VDW>
-1.05174

>  <SCORE.INTRA.VDW.0>
1.14169

>  <SCORE.INTRA.norm>
-0.26194

>  <SCORE.RESTR>
0

>  <SCORE.RESTR.CAVITY>
0

>  <SCORE.RESTR.norm>
0

>  <SCORE.SYSTEM>
0

>  <SCORE.SYSTEM.CONST>
0

>  <SCORE.SYSTEM.DIHEDRAL>
0

>  <SCORE.SYSTEM.SOLV>
0

>  <SCORE.SYSTEM.norm>
0

>  <SCORE.heavy>
12

>  <SCORE.norm>
-0.921534

>  <RMSD>
3.780

$$$$
ligand
 OpenBabel11021811493D
libRbt.so/2013.1/901 2013/11/27
 12 12  0  0  0  0  0  0  0  0999 V2000
   30.3127  -24.1712    3.9755 N   0  0  0  0  0  0  0  0  0  0  0  0
   32.8413  -22.8464    7.7214 O   0  0  0  0  0  0  0  0  0  0  0  0
   31.6178  -24.7038    3.5132 C   0  0  0  0  0  0  0  0  0  0  0  0
   33.3073  -22.9978    5.4124 O   0  0  0  0  0  0  0  0  0  0  0  0
   31.3842  -26.0782    2.8946 C   0  0  0  0  0  0  0  0  0  0  0  0
   32.8425  -20.7974    6.4008 O   0  0  0  0  0  0  0  0  0  0  0  0
   30.5439  -25.9426    1.7011 N   0  0  0  0  0  0  0  0  0  0  0  0
   30.1808  -24.5304    1.5590 C   0  0  0  0  0  0  0  0  0  0  0  0
   29.4079  -24.1469    2.8094 C   0  0  0  0  0  0  0  0  0  0  0  0
   30.3564  -22.8185    4.6607 C   0  0  0  0  0  0  0  0  0  0  0  0
   30.8687  -22.7973    6.1246 C   0  0  0  0  0  0  0  0  0  0  0  0
   32.4818  -22.3773    6.4158 S   0  0  0  0  0  0  0  0  0  0  0  0
  1  3  1  0  0  0  0
  1  9  1  0  0  0  0
  1 10  1  0  0  0  0
  2 12  1  0  0  0  0
  3  5  1  0  0  0  0
  4 12  2  0  0  0  0
  5  7  1  0  0  0  0
  6 12  2  0  0  0  0
  7  8  1  0  0  0  0
  8  9  1  0  0  0  0
 10 11  1  0  0  0  0
 11 12  1  0  0  0  0
M  END
>  <CHROM.1>
-76.58586764,98.15794519,-160.98202844,31.50307903,-23.51584767,4.68277634
2.03114444,0.51123992,-2.41398742

>  <Name>
ligand

>  <RI>
0

>  <Rbt.Current_Directory>
/home/itssahil/PROJECTS/Mol_Feturizer/New_Systems/rnas/4E8N

>  <Rbt.Executable>
rbdock ($Id: //depot/dev/client3/rdock/2013.1/src/exe/rbdock.cxx#4 $)

>  <Rbt.Library>
libRbt.so (2013.1, Build901 2013/11/27)

>  <Rbt.Parameter_File>
/export/apps/rDock/src/rDock_2013.1_src/data/scripts/dock_solv.prm

>  <Rbt.Receptor>
prm/pocket_docking_6.prm

>  <SCORE>
-9.04953

>  <SCORE.INTER>
-7.41513

>  <SCORE.INTER.CONST>
1

>  <SCORE.INTER.POLAR>
0

>  <SCORE.INTER.ROT>
3

>  <SCORE.INTER.SOLV>
4.08231

>  <SCORE.INTER.VDW>
-11.9042

>  <SCORE.INTER.norm>
-0.617928

>  <SCORE.INTRA>
-1.6344

>  <SCORE.INTRA.DIHEDRAL>
0.223819

>  <SCORE.INTRA.DIHEDRAL.0>
5.0186

>  <SCORE.INTRA.POLAR>
0

>  <SCORE.INTRA.POLAR.0>
0

>  <SCORE.INTRA.REPUL>
0

>  <SCORE.INTRA.REPUL.0>
0

>  <SCORE.INTRA.SOLV>
0.567999

>  <SCORE.INTRA.SOLV.lig_0>
-16.1608

>  <SCORE.INTRA.VDW>
-2.03031

>  <SCORE.INTRA.VDW.0>
1.14169

>  <SCORE.INTRA.norm>
-0.1362

>  <SCORE.RESTR>
0

>  <SCORE.RESTR.CAVITY>
0

>  <SCORE.RESTR.norm>
0

>  <SCORE.SYSTEM>
0

>  <SCORE.SYSTEM.CONST>
0

>  <SCORE.SYSTEM.DIHEDRAL>
0

>  <SCORE.SYSTEM.SOLV>
0

>  <SCORE.SYSTEM.norm>
0

>  <SCORE.heavy>
12

>  <SCORE.norm>
-0.754127

>  <RMSD>
3.856

$$$$
ligand
 OpenBabel11021811493D
libRbt.so/2013.1/901 2013/11/27
 12 12  0  0  0  0  0  0  0  0999 V2000
   30.2091  -24.7770    3.5159 N   0  0  0  0  0  0  0  0  0  0  0  0
   30.1649  -21.3645    6.7028 O   0  0  0  0  0  0  0  0  0  0  0  0
   31.4896  -25.3833    3.0759 C   0  0  0  0  0  0  0  0  0  0  0  0
   31.8860  -22.5216    7.8300 O   0  0  0  0  0  0  0  0  0  0  0  0
   31.1789  -26.6869    2.3477 C   0  0  0  0  0  0  0  0  0  0  0  0
   32.4329  -21.2177    5.8211 O   0  0  0  0  0  0  0  0  0  0  0  0
   30.4149  -26.3987    1.1301 N   0  0  0  0  0  0  0  0  0  0  0  0
   30.1739  -24.9547    1.0761 C   0  0  0  0  0  0  0  0  0  0  0  0
   29.3707  -24.5960    2.3146 C   0  0  0  0  0  0  0  0  0  0  0  0
   30.3257  -23.4838    4.3003 C   0  0  0  0  0  0  0  0  0  0  0  0
   30.9059  -23.5910    5.7348 C   0  0  0  0  0  0  0  0  0  0  0  0
   31.3397  -22.1701    6.5450 S   0  0  0  0  0  0  0  0  0  0  0  0
  1  3  1  0  0  0  0
  1  9  1  0  0  0  0
  1 10  1  0  0  0  0
  2 12  1  0  0  0  0
  3  5  1  0  0  0  0
  4 12  2  0  0  0  0
  5  7  1  0  0  0  0
  6 12  2  0  0  0  0
  7  8  1  0  0  0  0
  8  9  1  0  0  0  0
 10 11  1  0  0  0  0
 11 12  1  0  0  0  0
M  END
>  <CHROM.1>
-70.25437313,168.31578282,61.67880948,30.89342940,-23.69486289,4.49952449
1.78568059,0.76000195,-2.37633232

>  <Name>
ligand

>  <RI>
0

>  <Rbt.Current_Directory>
/home/itssahil/PROJECTS/Mol_Feturizer/New_Systems/rnas/4E8N

>  <Rbt.Executable>
rbdock ($Id: //depot/dev/client3/rdock/2013.1/src/exe/rbdock.cxx#4 $)

>  <Rbt.Library>
libRbt.so (2013.1, Build901 2013/11/27)

>  <Rbt.Parameter_File>
/export/apps/rDock/src/rDock_2013.1_src/data/scripts/dock_solv.prm

>  <Rbt.Receptor>
prm/pocket_docking_6.prm

>  <SCORE>
-10.998

>  <SCORE.INTER>
-7.13574

>  <SCORE.INTER.CONST>
1

>  <SCORE.INTER.POLAR>
0

>  <SCORE.INTER.ROT>
3

>  <SCORE.INTER.SOLV>
4.64493

>  <SCORE.INTER.VDW>
-11.9055

>  <SCORE.INTER.norm>
-0.594645

>  <SCORE.INTRA>
-3.86222

>  <SCORE.INTRA.DIHEDRAL>
-4.28811

>  <SCORE.INTRA.DIHEDRAL.0>
5.0186

>  <SCORE.INTRA.POLAR>
0

>  <SCORE.INTRA.POLAR.0>
0

>  <SCORE.INTRA.REPUL>
0

>  <SCORE.INTRA.REPUL.0>
0

>  <SCORE.INTRA.SOLV>
-0.0999921

>  <SCORE.INTRA.SOLV.lig_0>
-16.1608

>  <SCORE.INTRA.VDW>
-1.66817

>  <SCORE.INTRA.VDW.0>
1.14169

>  <SCORE.INTRA.norm>
-0.321852

>  <SCORE.RESTR>
0

>  <SCORE.RESTR.CAVITY>
0

>  <SCORE.RESTR.norm>
0

>  <SCORE.SYSTEM>
0

>  <SCORE.SYSTEM.CONST>
0

>  <SCORE.SYSTEM.DIHEDRAL>
0

>  <SCORE.SYSTEM.SOLV>
0

>  <SCORE.SYSTEM.norm>
0

>  <SCORE.heavy>
12

>  <SCORE.norm>
-0.916497

>  <RMSD>
3.877

$$$$
ligand
 OpenBabel11021811493D
libRbt.so/2013.1/901 2013/11/27
 12 12  0  0  0  0  0  0  0  0999 V2000
   30.1039  -24.9803    3.3677 N   0  0  0  0  0  0  0  0  0  0  0  0
   31.7148  -23.1061    7.8609 O   0  0  0  0  0  0  0  0  0  0  0  0
   31.3617  -25.6556    2.9643 C   0  0  0  0  0  0  0  0  0  0  0  0
   32.5356  -22.1892    5.8466 O   0  0  0  0  0  0  0  0  0  0  0  0
   31.0022  -26.8983    2.1564 C   0  0  0  0  0  0  0  0  0  0  0  0
   30.4131  -21.3606    6.7648 O   0  0  0  0  0  0  0  0  0  0  0  0
   30.3281  -26.4998    0.9171 N   0  0  0  0  0  0  0  0  0  0  0  0
   30.1907  -25.0413    0.9235 C   0  0  0  0  0  0  0  0  0  0  0  0
   29.3472  -24.6840    2.1354 C   0  0  0  0  0  0  0  0  0  0  0  0
   30.2661  -23.7367    4.2211 C   0  0  0  0  0  0  0  0  0  0  0  0
   30.7057  -23.9560    5.6923 C   0  0  0  0  0  0  0  0  0  0  0  0
   31.3661  -22.6531    6.5467 S   0  0  0  0  0  0  0  0  0  0  0  0
  1  3  1  0  0  0  0
  1  9  1  0  0  0  0
  1 10  1  0  0  0  0
  2 12  1  0  0  0  0
  3  5  1  0  0  0  0
  4 12  2  0  0  0  0
  5  7  1  0  0  0  0
  6 12  2  0  0  0  0
  7  8  1  0  0  0  0
  8  9  1  0  0  0  0
 10 11  1  0  0  0  0
 11 12  1  0  0  0  0
M  END
>  <CHROM.1>
-72.51165058,161.07889357,-178.88903482,30.85712364,-24.01991700,4.42814371
1.81893143,0.82990701,-2.34541807

>  <Name>
ligand

>  <RI>
0

>  <Rbt.Current_Directory>
/home/itssahil/PROJECTS/Mol_Feturizer/New_Systems/rnas/4E8N

>  <Rbt.Executable>
rbdock ($Id: //depot/dev/client3/rdock/2013.1/src/exe/rbdock.cxx#4 $)

>  <Rbt.Library>
libRbt.so (2013.1, Build901 2013/11/27)

>  <Rbt.Parameter_File>
/export/apps/rDock/src/rDock_2013.1_src/data/scripts/dock_solv.prm

>  <Rbt.Receptor>
prm/pocket_docking_6.prm

>  <SCORE>
-11.6194

>  <SCORE.INTER>
-8.19913

>  <SCORE.INTER.CONST>
1

>  <SCORE.INTER.POLAR>
0

>  <SCORE.INTER.ROT>
3

>  <SCORE.INTER.SOLV>
4.49408

>  <SCORE.INTER.VDW>
-12.5641

>  <SCORE.INTER.norm>
-0.683261

>  <SCORE.INTRA>
-3.42029

>  <SCORE.INTRA.DIHEDRAL>
-3.4582

>  <SCORE.INTRA.DIHEDRAL.0>
5.0186

>  <SCORE.INTRA.POLAR>
0

>  <SCORE.INTRA.POLAR.0>
0

>  <SCORE.INTRA.REPUL>
0

>  <SCORE.INTRA.REPUL.0>
0

>  <SCORE.INTRA.SOLV>
0.0803482

>  <SCORE.INTRA.SOLV.lig_0>
-16.1608

>  <SCORE.INTRA.VDW>
-1.73136

>  <SCORE.INTRA.VDW.0>
1.14169

>  <SCORE.INTRA.norm>
-0.285024

>  <SCORE.RESTR>
0

>  <SCORE.RESTR.CAVITY>
0

>  <SCORE.RESTR.norm>
0

>  <SCORE.SYSTEM>
0

>  <SCORE.SYSTEM.CONST>
0

>  <SCORE.SYSTEM.DIHEDRAL>
0

>  <SCORE.SYSTEM.SOLV>
0

>  <SCORE.SYSTEM.norm>
0

>  <SCORE.heavy>
12

>  <SCORE.norm>
-0.968285

>  <RMSD>
4.135

$$$$
ligand
 OpenBabel11021811493D
libRbt.so/2013.1/901 2013/11/27
 12 12  0  0  0  0  0  0  0  0999 V2000
   30.0465  -25.0524    3.4653 N   0  0  0  0  0  0  0  0  0  0  0  0
   31.8130  -22.9397    7.7928 O   0  0  0  0  0  0  0  0  0  0  0  0
   31.2915  -25.5531    2.8329 C   0  0  0  0  0  0  0  0  0  0  0  0
   32.3928  -21.9876    5.7122 O   0  0  0  0  0  0  0  0  0  0  0  0
   30.9715  -26.8556    2.1068 C   0  0  0  0  0  0  0  0  0  0  0  0
   30.2737  -21.3459    6.7763 O   0  0  0  0  0  0  0  0  0  0  0  0
   30.0285  -26.5904    1.0161 N   0  0  0  0  0  0  0  0  0  0  0  0
   29.6855  -25.1665    1.0482 C   0  0  0  0  0  0  0  0  0  0  0  0
   29.0393  -24.8999    2.3970 C   0  0  0  0  0  0  0  0  0  0  0  0
   30.1831  -23.7757    4.2731 C   0  0  0  0  0  0  0  0  0  0  0  0
   30.7338  -23.9218    5.7158 C   0  0  0  0  0  0  0  0  0  0  0  0
   31.3273  -22.5466    6.5030 S   0  0  0  0  0  0  0  0  0  0  0  0
  1  3  1  0  0  0  0
  1  9  1  0  0  0  0
  1 10  1  0  0  0  0
  2 12  1  0  0  0  0
  3  5  1  0  0  0  0
  4 12  2  0  0  0  0
  5  7  1  0  0  0  0
  6 12  2  0  0  0  0
  7  8  1  0  0  0  0
  8  9  1  0  0  0  0
 10 11  1  0  0  0  0
 11 12  1  0  0  0  0
M  END
>  <CHROM.1>
-80.82210140,162.57143169,-178.22280896,30.73864727,-23.99678158,4.43979866
1.81816385,0.63168153,-2.34471299

>  <Name>
ligand

>  <RI>
0

>  <Rbt.Current_Directory>
/home/itssahil/PROJECTS/Mol_Feturizer/New_Systems/rnas/4E8N

>  <Rbt.Executable>
rbdock ($Id: //depot/dev/client3/rdock/2013.1/src/exe/rbdock.cxx#4 $)

>  <Rbt.Library>
libRbt.so (2013.1, Build901 2013/11/27)

>  <Rbt.Parameter_File>
/export/apps/rDock/src/rDock_2013.1_src/data/scripts/dock_solv.prm

>  <Rbt.Receptor>
prm/pocket_docking_5.prm

>  <SCORE>
-11.3198

>  <SCORE.INTER>
-7.94977

>  <SCORE.INTER.CONST>
1

>  <SCORE.INTER.POLAR>
0

>  <SCORE.INTER.ROT>
3

>  <SCORE.INTER.SOLV>
4.54785

>  <SCORE.INTER.VDW>
-12.4158

>  <SCORE.INTER.norm>
-0.662481

>  <SCORE.INTRA>
-3.37007

>  <SCORE.INTRA.DIHEDRAL>
-3.20875

>  <SCORE.INTRA.DIHEDRAL.0>
5.0186

>  <SCORE.INTRA.POLAR>
0

>  <SCORE.INTRA.POLAR.0>
0

>  <SCORE.INTRA.REPUL>
0

>  <SCORE.INTRA.REPUL.0>
0

>  <SCORE.INTRA.SOLV>
0.0772118

>  <SCORE.INTRA.SOLV.lig_0>
-16.1608

>  <SCORE.INTRA.VDW>
-1.80431

>  <SCORE.INTRA.VDW.0>
1.14169

>  <SCORE.INTRA.norm>
-0.28084

>  <SCORE.RESTR>
0

>  <SCORE.RESTR.CAVITY>
0

>  <SCORE.RESTR.norm>
0

>  <SCORE.SYSTEM>
0

>  <SCORE.SYSTEM.CONST>
0

>  <SCORE.SYSTEM.DIHEDRAL>
0

>  <SCORE.SYSTEM.SOLV>
0

>  <SCORE.SYSTEM.norm>
0

>  <SCORE.heavy>
12

>  <SCORE.norm>
-0.94332

>  <RMSD>
4.159

$$$$
ligand
 OpenBabel11021811493D
libRbt.so/2013.1/901 2013/11/27
 12 12  0  0  0  0  0  0  0  0999 V2000
   30.0957  -25.1241    3.4067 N   0  0  0  0  0  0  0  0  0  0  0  0
   31.7115  -23.1410    7.8497 O   0  0  0  0  0  0  0  0  0  0  0  0
   31.3610  -25.7106    2.9009 C   0  0  0  0  0  0  0  0  0  0  0  0
   32.5424  -22.2961    5.8083 O   0  0  0  0  0  0  0  0  0  0  0  0
   31.0266  -26.9852    2.1329 C   0  0  0  0  0  0  0  0  0  0  0  0
   30.4293  -21.4159    6.6997 O   0  0  0  0  0  0  0  0  0  0  0  0
   30.2225  -26.6508    0.9536 N   0  0  0  0  0  0  0  0  0  0  0  0
   29.9793  -25.2062    0.9643 C   0  0  0  0  0  0  0  0  0  0  0  0
   29.2176  -24.8976    2.2419 C   0  0  0  0  0  0  0  0  0  0  0  0
   30.2378  -23.8624    4.2368 C   0  0  0  0  0  0  0  0  0  0  0  0
   30.6929  -24.0463    5.7082 C   0  0  0  0  0  0  0  0  0  0  0  0
   31.3677  -22.7251    6.5220 S   0  0  0  0  0  0  0  0  0  0  0  0
  1  3  1  0  0  0  0
  1  9  1  0  0  0  0
  1 10  1  0  0  0  0
  2 12  1  0  0  0  0
  3  5  1  0  0  0  0
  4 12  2  0  0  0  0
  5  7  1  0  0  0  0
  6 12  2  0  0  0  0
  7  8  1  0  0  0  0
  8  9  1  0  0  0  0
 10 11  1  0  0  0  0
 11 12  1  0  0  0  0
M  END
>  <CHROM.1>
-77.89707918,159.55695379,-179.71183859,30.82459897,-24.12353580,4.42672046
1.81702060,0.73899029,-2.34287015

>  <Name>
ligand

>  <RI>
0

>  <Rbt.Current_Directory>
/home/itssahil/PROJECTS/Mol_Feturizer/New_Systems/rnas/4E8N

>  <Rbt.Executable>
rbdock ($Id: //depot/dev/client3/rdock/2013.1/src/exe/rbdock.cxx#4 $)

>  <Rbt.Library>
libRbt.so (2013.1, Build901 2013/11/27)

>  <Rbt.Parameter_File>
/export/apps/rDock/src/rDock_2013.1_src/data/scripts/dock_solv.prm

>  <Rbt.Receptor>
prm/pocket_docking_6.prm

>  <SCORE>
-11.3856

>  <SCORE.INTER>
-8.12617

>  <SCORE.INTER.CONST>
1

>  <SCORE.INTER.POLAR>
0

>  <SCORE.INTER.ROT>
3

>  <SCORE.INTER.SOLV>
4.59877

>  <SCORE.INTER.VDW>
-12.5504

>  <SCORE.INTER.norm>
-0.677181

>  <SCORE.INTRA>
-3.25943

>  <SCORE.INTRA.DIHEDRAL>
-3.01625

>  <SCORE.INTRA.DIHEDRAL.0>
5.0186

>  <SCORE.INTRA.POLAR>
0

>  <SCORE.INTRA.POLAR.0>
0

>  <SCORE.INTRA.REPUL>
0

>  <SCORE.INTRA.REPUL.0>
0

>  <SCORE.INTRA.SOLV>
0.0803752

>  <SCORE.INTRA.SOLV.lig_0>
-16.1608

>  <SCORE.INTRA.VDW>
-1.79149

>  <SCORE.INTRA.VDW.0>
1.14169

>  <SCORE.INTRA.norm>
-0.271619

>  <SCORE.RESTR>
0

>  <SCORE.RESTR.CAVITY>
0

>  <SCORE.RESTR.norm>
0

>  <SCORE.SYSTEM>
0

>  <SCORE.SYSTEM.CONST>
0

>  <SCORE.SYSTEM.DIHEDRAL>
0

>  <SCORE.SYSTEM.SOLV>
0

>  <SCORE.SYSTEM.norm>
0

>  <SCORE.heavy>
12

>  <SCORE.norm>
-0.9488

>  <RMSD>
4.242

$$$$
ligand
 OpenBabel11021811493D
libRbt.so/2013.1/901 2013/11/27
 12 12  0  0  0  0  0  0  0  0999 V2000
   30.1533  -25.1456    3.3601 N   0  0  0  0  0  0  0  0  0  0  0  0
   31.6894  -23.1604    7.8284 O   0  0  0  0  0  0  0  0  0  0  0  0
   31.4011  -25.7559    2.8391 C   0  0  0  0  0  0  0  0  0  0  0  0
   32.5428  -22.2934    5.8056 O   0  0  0  0  0  0  0  0  0  0  0  0
   31.0355  -27.0353    2.0936 C   0  0  0  0  0  0  0  0  0  0  0  0
   30.4136  -21.4317    6.6766 O   0  0  0  0  0  0  0  0  0  0  0  0
   30.2146  -26.7045    0.9249 N   0  0  0  0  0  0  0  0  0  0  0  0
   29.9914  -25.2566    0.9214 C   0  0  0  0  0  0  0  0  0  0  0  0
   29.2574  -24.9216    2.2086 C   0  0  0  0  0  0  0  0  0  0  0  0
   30.3277  -23.8757    4.1713 C   0  0  0  0  0  0  0  0  0  0  0  0
   30.7038  -24.0520    5.6658 C   0  0  0  0  0  0  0  0  0  0  0  0
   31.3611  -22.7346    6.4999 S   0  0  0  0  0  0  0  0  0  0  0  0
  1  3  1  0  0  0  0
  1  9  1  0  0  0  0
  1 10  1  0  0  0  0
  2 12  1  0  0  0  0
  3  5  1  0  0  0  0
  4 12  2  0  0  0  0
  5  7  1  0  0  0  0
  6 12  2  0  0  0  0
  7  8  1  0  0  0  0
  8  9  1  0  0  0  0
 10 11  1  0  0  0  0
 11 12  1  0  0  0  0
M  END
>  <CHROM.1>
-82.33037892,161.78362706,-176.93940822,30.83871672,-24.14707574,4.39281863
1.81253240,0.75562107,-2.34612046

>  <Name>
ligand

>  <RI>
0

>  <Rbt.Current_Directory>
/home/itssahil/PROJECTS/Mol_Feturizer/New_Systems/rnas/4E8N

>  <Rbt.Executable>
rbdock ($Id: //depot/dev/client3/rdock/2013.1/src/exe/rbdock.cxx#4 $)

>  <Rbt.Library>
libRbt.so (2013.1, Build901 2013/11/27)

>  <Rbt.Parameter_File>
/export/apps/rDock/src/rDock_2013.1_src/data/scripts/dock_solv.prm

>  <Rbt.Receptor>
prm/pocket_docking_6.prm

>  <SCORE>
-11.3942

>  <SCORE.INTER>
-8.11435

>  <SCORE.INTER.CONST>
1

>  <SCORE.INTER.POLAR>
0

>  <SCORE.INTER.ROT>
3

>  <SCORE.INTER.SOLV>
4.46871

>  <SCORE.INTER.VDW>
-12.4991

>  <SCORE.INTER.norm>
-0.676196

>  <SCORE.INTRA>
-3.27985

>  <SCORE.INTRA.DIHEDRAL>
-3.01218

>  <SCORE.INTRA.DIHEDRAL.0>
5.0186

>  <SCORE.INTRA.POLAR>
0

>  <SCORE.INTRA.POLAR.0>
0

>  <SCORE.INTRA.REPUL>
0

>  <SCORE.INTRA.REPUL.0>
0

>  <SCORE.INTRA.SOLV>
0.0773287

>  <SCORE.INTRA.SOLV.lig_0>
-16.1608

>  <SCORE.INTRA.VDW>
-1.81243

>  <SCORE.INTRA.VDW.0>
1.14169

>  <SCORE.INTRA.norm>
-0.273321

>  <SCORE.RESTR>
0

>  <SCORE.RESTR.CAVITY>
0

>  <SCORE.RESTR.norm>
0

>  <SCORE.SYSTEM>
0

>  <SCORE.SYSTEM.CONST>
0

>  <SCORE.SYSTEM.DIHEDRAL>
0

>  <SCORE.SYSTEM.SOLV>
0

>  <SCORE.SYSTEM.norm>
0

>  <SCORE.heavy>
12

>  <SCORE.norm>
-0.949517

>  <RMSD>
4.273

$$$$
ligand
 OpenBabel11021811493D
libRbt.so/2013.1/901 2013/11/27
 12 12  0  0  0  0  0  0  0  0999 V2000
   30.0946  -25.1688    3.3952 N   0  0  0  0  0  0  0  0  0  0  0  0
   30.3859  -21.6875    6.5281 O   0  0  0  0  0  0  0  0  0  0  0  0
   31.3531  -25.7609    2.8789 C   0  0  0  0  0  0  0  0  0  0  0  0
   31.7424  -23.1318    7.8110 O   0  0  0  0  0  0  0  0  0  0  0  0
   31.0091  -27.0465    2.1339 C   0  0  0  0  0  0  0  0  0  0  0  0
   32.6857  -22.0614    5.8113 O   0  0  0  0  0  0  0  0  0  0  0  0
   30.1871  -26.7296    0.9622 N   0  0  0  0  0  0  0  0  0  0  0  0
   29.9422  -25.2852    0.9562 C   0  0  0  0  0  0  0  0  0  0  0  0
   29.1991  -24.9596    2.2405 C   0  0  0  0  0  0  0  0  0  0  0  0
   30.2473  -23.8954    4.2053 C   0  0  0  0  0  0  0  0  0  0  0  0
   30.6959  -24.0602    5.6810 C   0  0  0  0  0  0  0  0  0  0  0  0
   31.3692  -22.7291    6.4799 S   0  0  0  0  0  0  0  0  0  0  0  0
  1  3  1  0  0  0  0
  1  9  1  0  0  0  0
  1 10  1  0  0  0  0
  2 12  1  0  0  0  0
  3  5  1  0  0  0  0
  4 12  2  0  0  0  0
  5  7  1  0  0  0  0
  6 12  2  0  0  0  0
  7  8  1  0  0  0  0
  8  9  1  0  0  0  0
 10 11  1  0  0  0  0
 11 12  1  0  0  0  0
M  END
>  <CHROM.1>
-79.13129711,160.10385563,61.67973456,30.82808161,-24.15736449,4.39571709
1.82487313,0.68560096,-2.34973403

>  <Name>
ligand

>  <RI>
0

>  <Rbt.Current_Directory>
/home/itssahil/PROJECTS/Mol_Feturizer/New_Systems/rnas/4E8N

>  <Rbt.Executable>
rbdock ($Id: //depot/dev/client3/rdock/2013.1/src/exe/rbdock.cxx#4 $)

>  <Rbt.Library>
libRbt.so (2013.1, Build901 2013/11/27)

>  <Rbt.Parameter_File>
/export/apps/rDock/src/rDock_2013.1_src/data/scripts/dock_solv.prm

>  <Rbt.Receptor>
prm/pocket_docking_7.prm

>  <SCORE>
-10.8848

>  <SCORE.INTER>
-7.55817

>  <SCORE.INTER.CONST>
1

>  <SCORE.INTER.POLAR>
0

>  <SCORE.INTER.ROT>
3

>  <SCORE.INTER.SOLV>
5.63584

>  <SCORE.INTER.VDW>
-12.5174

>  <SCORE.INTER.norm>
-0.629848

>  <SCORE.INTRA>
-3.32659

>  <SCORE.INTRA.DIHEDRAL>
-3.00968

>  <SCORE.INTRA.DIHEDRAL.0>
5.0186

>  <SCORE.INTRA.POLAR>
0

>  <SCORE.INTRA.POLAR.0>
0

>  <SCORE.INTRA.REPUL>
0

>  <SCORE.INTRA.REPUL.0>
0

>  <SCORE.INTRA.SOLV>
-0.0963434

>  <SCORE.INTRA.SOLV.lig_0>
-16.1608

>  <SCORE.INTRA.VDW>
-1.77358

>  <SCORE.INTRA.VDW.0>
1.14169

>  <SCORE.INTRA.norm>
-0.277216

>  <SCORE.RESTR>
0

>  <SCORE.RESTR.CAVITY>
0

>  <SCORE.RESTR.norm>
0

>  <SCORE.SYSTEM>
0

>  <SCORE.SYSTEM.CONST>
0

>  <SCORE.SYSTEM.DIHEDRAL>
0

>  <SCORE.SYSTEM.SOLV>
0

>  <SCORE.SYSTEM.norm>
0

>  <SCORE.heavy>
12

>  <SCORE.norm>
-0.907064

>  <RMSD>
4.305

$$$$
ligand
 OpenBabel11021811493D
libRbt.so/2013.1/901 2013/11/27
 12 12  0  0  0  0  0  0  0  0999 V2000
   30.1611  -25.1903    3.3469 N   0  0  0  0  0  0  0  0  0  0  0  0
   30.4268  -21.6799    6.4562 O   0  0  0  0  0  0  0  0  0  0  0  0
   31.4010  -25.7812    2.7862 C   0  0  0  0  0  0  0  0  0  0  0  0
   31.7119  -23.1411    7.7923 O   0  0  0  0  0  0  0  0  0  0  0  0
   31.0340  -27.0748    2.0664 C   0  0  0  0  0  0  0  0  0  0  0  0
   32.7405  -22.1049    5.8167 O   0  0  0  0  0  0  0  0  0  0  0  0
   30.1646  -26.7719    0.9256 N   0  0  0  0  0  0  0  0  0  0  0  0
   29.9126  -25.3287    0.9170 C   0  0  0  0  0  0  0  0  0  0  0  0
   29.2194  -24.9953    2.2270 C   0  0  0  0  0  0  0  0  0  0  0  0
   30.3396  -23.9092    4.1395 C   0  0  0  0  0  0  0  0  0  0  0  0
   30.7161  -24.0647    5.6362 C   0  0  0  0  0  0  0  0  0  0  0  0
   31.3899  -22.7412    6.4471 S   0  0  0  0  0  0  0  0  0  0  0  0
  1  3  1  0  0  0  0
  1  9  1  0  0  0  0
  1 10  1  0  0  0  0
  2 12  1  0  0  0  0
  3  5  1  0  0  0  0
  4 12  2  0  0  0  0
  5  7  1  0  0  0  0
  6 12  2  0  0  0  0
  7  8  1  0  0  0  0
  8  9  1  0  0  0  0
 10 11  1  0  0  0  0
 11 12  1  0  0  0  0
M  END
>  <CHROM.1>
-84.78281927,161.26100851,62.64716424,30.85301767,-24.17843911,4.35336568
1.82292576,0.67105506,-2.34737818

>  <Name>
ligand

>  <RI>
0

>  <Rbt.Current_Directory>
/home/itssahil/PROJECTS/Mol_Feturizer/New_Systems/rnas/4E8N

>  <Rbt.Executable>
rbdock ($Id: //depot/dev/client3/rdock/2013.1/src/exe/rbdock.cxx#4 $)

>  <Rbt.Library>
libRbt.so (2013.1, Build901 2013/11/27)

>  <Rbt.Parameter_File>
/export/apps/rDock/src/rDock_2013.1_src/data/scripts/dock_solv.prm

>  <Rbt.Receptor>
prm/pocket_docking_8.prm

>  <SCORE>
-10.8624

>  <SCORE.INTER>
-7.59643

>  <SCORE.INTER.CONST>
1

>  <SCORE.INTER.POLAR>
0

>  <SCORE.INTER.ROT>
3

>  <SCORE.INTER.SOLV>
5.47411

>  <SCORE.INTER.VDW>
-12.489

>  <SCORE.INTER.norm>
-0.633036

>  <SCORE.INTRA>
-3.26599

>  <SCORE.INTRA.DIHEDRAL>
-2.80801

>  <SCORE.INTRA.DIHEDRAL.0>
5.0186

>  <SCORE.INTRA.POLAR>
0

>  <SCORE.INTRA.POLAR.0>
0

>  <SCORE.INTRA.REPUL>
0

>  <SCORE.INTRA.REPUL.0>
0

>  <SCORE.INTRA.SOLV>
-0.0965305

>  <SCORE.INTRA.SOLV.lig_0>
-16.1608

>  <SCORE.INTRA.VDW>
-1.81372

>  <SCORE.INTRA.VDW.0>
1.14169

>  <SCORE.INTRA.norm>
-0.272166

>  <SCORE.RESTR>
0

>  <SCORE.RESTR.CAVITY>
0

>  <SCORE.RESTR.norm>
0

>  <SCORE.SYSTEM>
0

>  <SCORE.SYSTEM.CONST>
0

>  <SCORE.SYSTEM.DIHEDRAL>
0

>  <SCORE.SYSTEM.SOLV>
0

>  <SCORE.SYSTEM.norm>
0

>  <SCORE.heavy>
12

>  <SCORE.norm>
-0.905202

>  <RMSD>
4.342

$$$$
ligand
 OpenBabel11021811493D
libRbt.so/2013.1/901 2013/11/27
 12 12  0  0  0  0  0  0  0  0999 V2000
   29.9799  -25.3972    3.1661 N   0  0  0  0  0  0  0  0  0  0  0  0
   32.3731  -22.4072    5.4261 O   0  0  0  0  0  0  0  0  0  0  0  0
   31.2375  -25.9140    2.5725 C   0  0  0  0  0  0  0  0  0  0  0  0
   30.2150  -21.8117    6.1741 O   0  0  0  0  0  0  0  0  0  0  0  0
   30.9315  -27.2342    1.8727 C   0  0  0  0  0  0  0  0  0  0  0  0
   31.7254  -23.0077    7.6983 O   0  0  0  0  0  0  0  0  0  0  0  0
   30.0116  -26.9960    0.7564 N   0  0  0  0  0  0  0  0  0  0  0  0
   29.6693  -25.5716    0.7457 C   0  0  0  0  0  0  0  0  0  0  0  0
   28.9953  -25.2711    2.0736 C   0  0  0  0  0  0  0  0  0  0  0  0
   30.1008  -24.1007    3.9444 C   0  0  0  0  0  0  0  0  0  0  0  0
   30.5905  -24.2142    5.4118 C   0  0  0  0  0  0  0  0  0  0  0  0
   31.2243  -22.8386    6.1664 S   0  0  0  0  0  0  0  0  0  0  0  0
  1  3  1  0  0  0  0
  1  9  1  0  0  0  0
  1 10  1  0  0  0  0
  2 12  1  0  0  0  0
  3  5  1  0  0  0  0
  4 12  2  0  0  0  0
  5  7  1  0  0  0  0
  6 12  2  0  0  0  0
  7  8  1  0  0  0  0
  8  9  1  0  0  0  0
 10 11  1  0  0  0  0
 11 12  1  0  0  0  0
M  END
>  <CHROM.1>
-82.16500437,160.29312993,-60.58760297,30.67385280,-24.33517492,4.13321960
1.81200549,0.61525559,-2.34749771

>  <Name>
ligand

>  <RI>
0

>  <Rbt.Current_Directory>
/home/itssahil/PROJECTS/Mol_Feturizer/New_Systems/rnas/4E8N

>  <Rbt.Executable>
rbdock ($Id: //depot/dev/client3/rdock/2013.1/src/exe/rbdock.cxx#4 $)

>  <Rbt.Library>
libRbt.so (2013.1, Build901 2013/11/27)

>  <Rbt.Parameter_File>
/export/apps/rDock/src/rDock_2013.1_src/data/scripts/dock_solv.prm

>  <Rbt.Receptor>
prm/pocket_docking_6.prm

>  <SCORE>
-10.5322

>  <SCORE.INTER>
-7.26913

>  <SCORE.INTER.CONST>
1

>  <SCORE.INTER.POLAR>
0

>  <SCORE.INTER.ROT>
3

>  <SCORE.INTER.SOLV>
6.02803

>  <SCORE.INTER.VDW>
-12.4554

>  <SCORE.INTER.norm>
-0.605761

>  <SCORE.INTRA>
-3.26305

>  <SCORE.INTRA.DIHEDRAL>
-2.86842

>  <SCORE.INTRA.DIHEDRAL.0>
5.0186

>  <SCORE.INTRA.POLAR>
0

>  <SCORE.INTRA.POLAR.0>
0

>  <SCORE.INTRA.REPUL>
0

>  <SCORE.INTRA.REPUL.0>
0

>  <SCORE.INTRA.SOLV>
-0.10352

>  <SCORE.INTRA.SOLV.lig_0>
-16.1608

>  <SCORE.INTRA.VDW>
-1.77708

>  <SCORE.INTRA.VDW.0>
1.14169

>  <SCORE.INTRA.norm>
-0.271921

>  <SCORE.RESTR>
0

>  <SCORE.RESTR.CAVITY>
0

>  <SCORE.RESTR.norm>
0

>  <SCORE.SYSTEM>
0

>  <SCORE.SYSTEM.CONST>
0

>  <SCORE.SYSTEM.DIHEDRAL>
0

>  <SCORE.SYSTEM.SOLV>
0

>  <SCORE.SYSTEM.norm>
0

>  <SCORE.heavy>
12

>  <SCORE.norm>
-0.877682

>  <RMSD>
4.504

$$$$
ligand
 OpenBabel11021811493D
libRbt.so/2013.1/901 2013/11/27
 12 12  0  0  0  0  0  0  0  0999 V2000
   30.0237  -25.4200    3.1363 N   0  0  0  0  0  0  0  0  0  0  0  0
   32.3503  -22.4106    5.4546 O   0  0  0  0  0  0  0  0  0  0  0  0
   31.2614  -25.9721    2.5330 C   0  0  0  0  0  0  0  0  0  0  0  0
   30.1813  -21.8514    6.1992 O   0  0  0  0  0  0  0  0  0  0  0  0
   30.9161  -27.2917    1.8505 C   0  0  0  0  0  0  0  0  0  0  0  0
   31.6937  -23.0613    7.7103 O   0  0  0  0  0  0  0  0  0  0  0  0
   29.9885  -27.0431    0.7429 N   0  0  0  0  0  0  0  0  0  0  0  0
   29.6795  -25.6113    0.7217 C   0  0  0  0  0  0  0  0  0  0  0  0
   29.0290  -25.2817    2.0544 C   0  0  0  0  0  0  0  0  0  0  0  0
   30.1843  -24.1190    3.8997 C   0  0  0  0  0  0  0  0  0  0  0  0
   30.5862  -24.2348    5.3934 C   0  0  0  0  0  0  0  0  0  0  0  0
   31.2010  -22.8678    6.1786 S   0  0  0  0  0  0  0  0  0  0  0  0
  1  3  1  0  0  0  0
  1  9  1  0  0  0  0
  1 10  1  0  0  0  0
  2 12  1  0  0  0  0
  3  5  1  0  0  0  0
  4 12  2  0  0  0  0
  5  7  1  0  0  0  0
  6 12  2  0  0  0  0
  7  8  1  0  0  0  0
  8  9  1  0  0  0  0
 10 11  1  0  0  0  0
 11 12  1  0  0  0  0
M  END
>  <CHROM.1>
-86.61653160,162.94960451,-56.96999095,30.67373842,-24.36813423,4.12528345
1.80850654,0.64416268,-2.34924402

>  <Name>
ligand

>  <RI>
0

>  <Rbt.Current_Directory>
/home/itssahil/PROJECTS/Mol_Feturizer/New_Systems/rnas/4E8N

>  <Rbt.Executable>
rbdock ($Id: //depot/dev/client3/rdock/2013.1/src/exe/rbdock.cxx#4 $)

>  <Rbt.Library>
libRbt.so (2013.1, Build901 2013/11/27)

>  <Rbt.Parameter_File>
/export/apps/rDock/src/rDock_2013.1_src/data/scripts/dock_solv.prm

>  <Rbt.Receptor>
prm/pocket_docking_8.prm

>  <SCORE>
-10.5484

>  <SCORE.INTER>
-7.25177

>  <SCORE.INTER.CONST>
1

>  <SCORE.INTER.POLAR>
0

>  <SCORE.INTER.ROT>
3

>  <SCORE.INTER.SOLV>
6.04247

>  <SCORE.INTER.VDW>
-12.4487

>  <SCORE.INTER.norm>
-0.604314

>  <SCORE.INTRA>
-3.29661

>  <SCORE.INTRA.DIHEDRAL>
-2.8852

>  <SCORE.INTRA.DIHEDRAL.0>
5.0186

>  <SCORE.INTRA.POLAR>
0

>  <SCORE.INTRA.POLAR.0>
0

>  <SCORE.INTRA.REPUL>
0

>  <SCORE.INTRA.REPUL.0>
0

>  <SCORE.INTRA.SOLV>
-0.114134

>  <SCORE.INTRA.SOLV.lig_0>
-16.1608

>  <SCORE.INTRA.VDW>
-1.79695

>  <SCORE.INTRA.VDW.0>
1.14169

>  <SCORE.INTRA.norm>
-0.274718

>  <SCORE.RESTR>
0

>  <SCORE.RESTR.CAVITY>
0

>  <SCORE.RESTR.norm>
0

>  <SCORE.SYSTEM>
0

>  <SCORE.SYSTEM.CONST>
0

>  <SCORE.SYSTEM.DIHEDRAL>
0

>  <SCORE.SYSTEM.SOLV>
0

>  <SCORE.SYSTEM.norm>
0

>  <SCORE.heavy>
12

>  <SCORE.norm>
-0.879032

>  <RMSD>
4.529

$$$$
ligand
 OpenBabel11021811493D
libRbt.so/2013.1/901 2013/11/27
 12 12  0  0  0  0  0  0  0  0999 V2000
   30.4603  -20.5539    7.2996 N   0  0  0  0  0  0  0  0  0  0  0  0
   30.4089  -24.8118    5.7331 O   0  0  0  0  0  0  0  0  0  0  0  0
   30.5471  -19.1625    6.7924 C   0  0  0  0  0  0  0  0  0  0  0  0
   29.7831  -22.6101    5.1565 O   0  0  0  0  0  0  0  0  0  0  0  0
   29.1820  -18.5035    6.9609 C   0  0  0  0  0  0  0  0  0  0  0  0
   31.8670  -23.5418    4.2486 O   0  0  0  0  0  0  0  0  0  0  0  0
   28.8566  -18.4069    8.3871 N   0  0  0  0  0  0  0  0  0  0  0  0
   29.9434  -19.0325    9.1445 C   0  0  0  0  0  0  0  0  0  0  0  0
   30.0082  -20.4847    8.7031 C   0  0  0  0  0  0  0  0  0  0  0  0
   31.7243  -21.3831    7.1735 C   0  0  0  0  0  0  0  0  0  0  0  0
   31.5369  -22.9107    6.9807 C   0  0  0  0  0  0  0  0  0  0  0  0
   30.8749  -23.4721    5.5282 S   0  0  0  0  0  0  0  0  0  0  0  0
  1  3  1  0  0  0  0
  1  9  1  0  0  0  0
  1 10  1  0  0  0  0
  2 12  1  0  0  0  0
  3  5  1  0  0  0  0
  4 12  2  0  0  0  0
  5  7  1  0  0  0  0
  6 12  2  0  0  0  0
  7  8  1  0  0  0  0
  8  9  1  0  0  0  0
 10 11  1  0  0  0  0
 11 12  1  0  0  0  0
M  END
>  <CHROM.1>
-149.46726267,68.39700607,-161.84394669,30.48217578,-21.52362691,6.66354630
-2.20102978,1.16286270,-2.02126771

>  <Name>
ligand

>  <RI>
0

>  <Rbt.Current_Directory>
/home/itssahil/PROJECTS/Mol_Feturizer/New_Systems/rnas/4E8N

>  <Rbt.Executable>
rbdock ($Id: //depot/dev/client3/rdock/2013.1/src/exe/rbdock.cxx#4 $)

>  <Rbt.Library>
libRbt.so (2013.1, Build901 2013/11/27)

>  <Rbt.Parameter_File>
/export/apps/rDock/src/rDock_2013.1_src/data/scripts/dock_solv.prm

>  <Rbt.Receptor>
prm/pocket_docking_4.prm

>  <SCORE>
-9.84555

>  <SCORE.INTER>
-6.62587

>  <SCORE.INTER.CONST>
1

>  <SCORE.INTER.POLAR>
0

>  <SCORE.INTER.ROT>
3

>  <SCORE.INTER.SOLV>
5.48946

>  <SCORE.INTER.VDW>
-11.8471

>  <SCORE.INTER.norm>
-0.552156

>  <SCORE.INTRA>
-3.21967

>  <SCORE.INTRA.DIHEDRAL>
-2.8385

>  <SCORE.INTRA.DIHEDRAL.0>
5.0186

>  <SCORE.INTRA.POLAR>
0

>  <SCORE.INTRA.POLAR.0>
0

>  <SCORE.INTRA.REPUL>
0

>  <SCORE.INTRA.REPUL.0>
0

>  <SCORE.INTRA.SOLV>
0.668777

>  <SCORE.INTRA.SOLV.lig_0>
-16.1608

>  <SCORE.INTRA.VDW>
-2.13481

>  <SCORE.INTRA.VDW.0>
1.14169

>  <SCORE.INTRA.norm>
-0.268306

>  <SCORE.RESTR>
0

>  <SCORE.RESTR.CAVITY>
0

>  <SCORE.RESTR.norm>
0

>  <SCORE.SYSTEM>
0

>  <SCORE.SYSTEM.CONST>
0

>  <SCORE.SYSTEM.DIHEDRAL>
0

>  <SCORE.SYSTEM.SOLV>
0

>  <SCORE.SYSTEM.norm>
0

>  <SCORE.heavy>
12

>  <SCORE.norm>
-0.820462

>  <RMSD>
5.280

$$$$
ligand
 OpenBabel11021811493D
libRbt.so/2013.1/901 2013/11/27
 12 12  0  0  0  0  0  0  0  0999 V2000
   31.7479  -20.7456    7.6730 N   0  0  0  0  0  0  0  0  0  0  0  0
   32.9345  -22.4614    4.5290 O   0  0  0  0  0  0  0  0  0  0  0  0
   32.6505  -20.1790    8.7051 C   0  0  0  0  0  0  0  0  0  0  0  0
   30.7639  -22.9209    3.7234 O   0  0  0  0  0  0  0  0  0  0  0  0
   32.4937  -18.6619    8.7003 C   0  0  0  0  0  0  0  0  0  0  0  0
   31.3078  -20.6466    4.4759 O   0  0  0  0  0  0  0  0  0  0  0  0
   31.1288  -18.3085    9.1019 N   0  0  0  0  0  0  0  0  0  0  0  0
   30.3813  -19.5506    9.3132 C   0  0  0  0  0  0  0  0  0  0  0  0
   30.3785  -20.2933    7.9880 C   0  0  0  0  0  0  0  0  0  0  0  0
   31.8000  -22.2523    7.5049 C   0  0  0  0  0  0  0  0  0  0  0  0
   31.1041  -22.8357    6.2474 C   0  0  0  0  0  0  0  0  0  0  0  0
   31.5336  -22.2317    4.7262 S   0  0  0  0  0  0  0  0  0  0  0  0
  1  3  1  0  0  0  0
  1  9  1  0  0  0  0
  1 10  1  0  0  0  0
  2 12  1  0  0  0  0
  3  5  1  0  0  0  0
  4 12  2  0  0  0  0
  5  7  1  0  0  0  0
  6 12  2  0  0  0  0
  7  8  1  0  0  0  0
  8  9  1  0  0  0  0
 10 11  1  0  0  0  0
 11 12  1  0  0  0  0
M  END
>  <CHROM.1>
-167.42889985,53.94123414,59.85957551,31.52475433,-21.08035601,6.60582288
1.62963106,1.27279076,0.89930357

>  <Name>
ligand

>  <RI>
0

>  <Rbt.Current_Directory>
/home/itssahil/PROJECTS/Mol_Feturizer/New_Systems/rnas/4E8N

>  <Rbt.Executable>
rbdock ($Id: //depot/dev/client3/rdock/2013.1/src/exe/rbdock.cxx#4 $)

>  <Rbt.Library>
libRbt.so (2013.1, Build901 2013/11/27)

>  <Rbt.Parameter_File>
/export/apps/rDock/src/rDock_2013.1_src/data/scripts/dock_solv.prm

>  <Rbt.Receptor>
prm/pocket_docking_3.prm

>  <SCORE>
-8.51012

>  <SCORE.INTER>
-4.33303

>  <SCORE.INTER.CONST>
1

>  <SCORE.INTER.POLAR>
0

>  <SCORE.INTER.ROT>
3

>  <SCORE.INTER.SOLV>
3.18146

>  <SCORE.INTER.VDW>
-9.54917

>  <SCORE.INTER.norm>
-0.361086

>  <SCORE.INTRA>
-4.17709

>  <SCORE.INTRA.DIHEDRAL>
-4.67934

>  <SCORE.INTRA.DIHEDRAL.0>
5.0186

>  <SCORE.INTRA.POLAR>
0

>  <SCORE.INTRA.POLAR.0>
0

>  <SCORE.INTRA.REPUL>
0

>  <SCORE.INTRA.REPUL.0>
0

>  <SCORE.INTRA.SOLV>
0.511618

>  <SCORE.INTRA.SOLV.lig_0>
-16.1608

>  <SCORE.INTRA.VDW>
-2.09322

>  <SCORE.INTRA.VDW.0>
1.14169

>  <SCORE.INTRA.norm>
-0.34809

>  <SCORE.RESTR>
0

>  <SCORE.RESTR.CAVITY>
0

>  <SCORE.RESTR.norm>
0

>  <SCORE.SYSTEM>
0

>  <SCORE.SYSTEM.CONST>
0

>  <SCORE.SYSTEM.DIHEDRAL>
0

>  <SCORE.SYSTEM.SOLV>
0

>  <SCORE.SYSTEM.norm>
0

>  <SCORE.heavy>
12

>  <SCORE.norm>
-0.709176

>  <RMSD>
5.283

$$$$
ligand
 OpenBabel11021811493D
libRbt.so/2013.1/901 2013/11/27
 12 12  0  0  0  0  0  0  0  0999 V2000
   31.7231  -21.4706    7.6193 N   0  0  0  0  0  0  0  0  0  0  0  0
   31.6295  -24.6737    4.3632 O   0  0  0  0  0  0  0  0  0  0  0  0
   30.4815  -20.7850    8.0547 C   0  0  0  0  0  0  0  0  0  0  0  0
   29.6881  -25.1398    5.6224 O   0  0  0  0  0  0  0  0  0  0  0  0
   30.8715  -19.5194    8.8112 C   0  0  0  0  0  0  0  0  0  0  0  0
   29.4629  -24.0726    3.4212 O   0  0  0  0  0  0  0  0  0  0  0  0
   31.5594  -18.5971    7.9028 N   0  0  0  0  0  0  0  0  0  0  0  0
   31.6758  -19.2489    6.5960 C   0  0  0  0  0  0  0  0  0  0  0  0
   32.4948  -20.5111    6.8052 C   0  0  0  0  0  0  0  0  0  0  0  0
   31.5296  -22.7815    6.8808 C   0  0  0  0  0  0  0  0  0  0  0  0
   30.5828  -22.7540    5.6525 C   0  0  0  0  0  0  0  0  0  0  0  0
   30.3479  -24.1813    4.7745 S   0  0  0  0  0  0  0  0  0  0  0  0
  1  3  1  0  0  0  0
  1  9  1  0  0  0  0
  1 10  1  0  0  0  0
  2 12  1  0  0  0  0
  3  5  1  0  0  0  0
  4 12  2  0  0  0  0
  5  7  1  0  0  0  0
  6 12  2  0  0  0  0
  7  8  1  0  0  0  0
  8  9  1  0  0  0  0
 10 11  1  0  0  0  0
 11 12  1  0  0  0  0
M  END
>  <CHROM.1>
53.23172654,179.03385252,-55.12855877,30.91935554,-22.26663815,6.16615596
1.12528137,1.08673423,0.99399033

>  <Name>
ligand

>  <RI>
0

>  <Rbt.Current_Directory>
/home/itssahil/PROJECTS/Mol_Feturizer/New_Systems/rnas/4E8N

>  <Rbt.Executable>
rbdock ($Id: //depot/dev/client3/rdock/2013.1/src/exe/rbdock.cxx#4 $)

>  <Rbt.Library>
libRbt.so (2013.1, Build901 2013/11/27)

>  <Rbt.Parameter_File>
/export/apps/rDock/src/rDock_2013.1_src/data/scripts/dock_solv.prm

>  <Rbt.Receptor>
prm/pocket_docking_4.prm

>  <SCORE>
-11.1784

>  <SCORE.INTER>
-7.69164

>  <SCORE.INTER.CONST>
1

>  <SCORE.INTER.POLAR>
0

>  <SCORE.INTER.ROT>
3

>  <SCORE.INTER.SOLV>
6.23934

>  <SCORE.INTER.VDW>
-12.8075

>  <SCORE.INTER.norm>
-0.64097

>  <SCORE.INTRA>
-3.48677

>  <SCORE.INTRA.DIHEDRAL>
-4.8384

>  <SCORE.INTRA.DIHEDRAL.0>
5.0186

>  <SCORE.INTRA.POLAR>
0

>  <SCORE.INTRA.POLAR.0>
0

>  <SCORE.INTRA.REPUL>
0

>  <SCORE.INTRA.REPUL.0>
0

>  <SCORE.INTRA.SOLV>
-0.10683

>  <SCORE.INTRA.SOLV.lig_0>
-16.1608

>  <SCORE.INTRA.VDW>
-1.01415

>  <SCORE.INTRA.VDW.0>
1.14169

>  <SCORE.INTRA.norm>
-0.290564

>  <SCORE.RESTR>
0

>  <SCORE.RESTR.CAVITY>
0

>  <SCORE.RESTR.norm>
0

>  <SCORE.SYSTEM>
0

>  <SCORE.SYSTEM.CONST>
0

>  <SCORE.SYSTEM.DIHEDRAL>
0

>  <SCORE.SYSTEM.SOLV>
0

>  <SCORE.SYSTEM.norm>
0

>  <SCORE.heavy>
12

>  <SCORE.norm>
-0.931534

>  <RMSD>
5.288

$$$$
ligand
 OpenBabel11021811493D
libRbt.so/2013.1/901 2013/11/27
 12 12  0  0  0  0  0  0  0  0999 V2000
   31.3445  -22.8781    5.8591 N   0  0  0  0  0  0  0  0  0  0  0  0
   30.9601  -22.1988    2.6587 O   0  0  0  0  0  0  0  0  0  0  0  0
   31.5951  -22.8352    7.3207 C   0  0  0  0  0  0  0  0  0  0  0  0
   30.0331  -23.9876    1.4289 O   0  0  0  0  0  0  0  0  0  0  0  0
   32.4662  -21.6204    7.6235 C   0  0  0  0  0  0  0  0  0  0  0  0
   28.5961  -22.7121    2.9595 O   0  0  0  0  0  0  0  0  0  0  0  0
   31.7326  -20.3955    7.2910 N   0  0  0  0  0  0  0  0  0  0  0  0
   30.4349  -20.7809    6.7309 C   0  0  0  0  0  0  0  0  0  0  0  0
   30.7198  -21.5954    5.4806 C   0  0  0  0  0  0  0  0  0  0  0  0
   30.5223  -24.0529    5.3640 C   0  0  0  0  0  0  0  0  0  0  0  0
   30.6605  -24.4137    3.8618 C   0  0  0  0  0  0  0  0  0  0  0  0
   30.0749  -23.3248    2.7065 S   0  0  0  0  0  0  0  0  0  0  0  0
  1  3  1  0  0  0  0
  1  9  1  0  0  0  0
  1 10  1  0  0  0  0
  2 12  1  0  0  0  0
  3  5  1  0  0  0  0
  4 12  2  0  0  0  0
  5  7  1  0  0  0  0
  6 12  2  0  0  0  0
  7  8  1  0  0  0  0
  8  9  1  0  0  0  0
 10 11  1  0  0  0  0
 11 12  1  0  0  0  0
M  END
>  <CHROM.1>
-158.87943019,-67.23936901,72.75664024,30.66941343,-22.64993468,4.65074159
-0.77461555,1.12552326,-2.70572513

>  <Name>
ligand

>  <RI>
0

>  <Rbt.Current_Directory>
/home/itssahil/PROJECTS/Mol_Feturizer/New_Systems/rnas/4E8N

>  <Rbt.Executable>
rbdock ($Id: //depot/dev/client3/rdock/2013.1/src/exe/rbdock.cxx#4 $)

>  <Rbt.Library>
libRbt.so (2013.1, Build901 2013/11/27)

>  <Rbt.Parameter_File>
/export/apps/rDock/src/rDock_2013.1_src/data/scripts/dock_solv.prm

>  <Rbt.Receptor>
prm/pocket_docking_8.prm

>  <SCORE>
-9.39509

>  <SCORE.INTER>
-5.53704

>  <SCORE.INTER.CONST>
1

>  <SCORE.INTER.POLAR>
0

>  <SCORE.INTER.ROT>
3

>  <SCORE.INTER.SOLV>
6.93964

>  <SCORE.INTER.VDW>
-11.6046

>  <SCORE.INTER.norm>
-0.46142

>  <SCORE.INTRA>
-3.85805

>  <SCORE.INTRA.DIHEDRAL>
-3.83562

>  <SCORE.INTRA.DIHEDRAL.0>
5.0186

>  <SCORE.INTRA.POLAR>
0

>  <SCORE.INTRA.POLAR.0>
0

>  <SCORE.INTRA.REPUL>
0

>  <SCORE.INTRA.REPUL.0>
0

>  <SCORE.INTRA.SOLV>
0.18642

>  <SCORE.INTRA.SOLV.lig_0>
-16.1608

>  <SCORE.INTRA.VDW>
-2.03345

>  <SCORE.INTRA.VDW.0>
1.14169

>  <SCORE.INTRA.norm>
-0.321504

>  <SCORE.RESTR>
0

>  <SCORE.RESTR.CAVITY>
0

>  <SCORE.RESTR.norm>
0

>  <SCORE.SYSTEM>
0

>  <SCORE.SYSTEM.CONST>
0

>  <SCORE.SYSTEM.DIHEDRAL>
0

>  <SCORE.SYSTEM.SOLV>
0

>  <SCORE.SYSTEM.norm>
0

>  <SCORE.heavy>
12

>  <SCORE.norm>
-0.782924

>  <RMSD>
5.318

$$$$
ligand
 OpenBabel11021811493D
libRbt.so/2013.1/901 2013/11/27
 12 12  0  0  0  0  0  0  0  0999 V2000
   31.3063  -22.9449    5.7835 N   0  0  0  0  0  0  0  0  0  0  0  0
   30.1463  -23.8986    1.3161 O   0  0  0  0  0  0  0  0  0  0  0  0
   31.5744  -22.9533    7.2426 C   0  0  0  0  0  0  0  0  0  0  0  0
   28.7032  -22.8995    2.8944 O   0  0  0  0  0  0  0  0  0  0  0  0
   32.5142  -21.7962    7.5652 C   0  0  0  0  0  0  0  0  0  0  0  0
   30.9230  -21.9202    2.5100 O   0  0  0  0  0  0  0  0  0  0  0  0
   31.8455  -20.5248    7.2725 N   0  0  0  0  0  0  0  0  0  0  0  0
   30.5227  -20.8242    6.7186 C   0  0  0  0  0  0  0  0  0  0  0  0
   30.7489  -21.6206    5.4449 C   0  0  0  0  0  0  0  0  0  0  0  0
   30.4155  -24.0598    5.2691 C   0  0  0  0  0  0  0  0  0  0  0  0
   30.5519  -24.4211    3.7668 C   0  0  0  0  0  0  0  0  0  0  0  0
   30.0601  -23.2883    2.6100 S   0  0  0  0  0  0  0  0  0  0  0  0
  1  3  1  0  0  0  0
  1  9  1  0  0  0  0
  1 10  1  0  0  0  0
  2 12  1  0  0  0  0
  3  5  1  0  0  0  0
  4 12  2  0  0  0  0
  5  7  1  0  0  0  0
  6 12  2  0  0  0  0
  7  8  1  0  0  0  0
  8  9  1  0  0  0  0
 10 11  1  0  0  0  0
 11 12  1  0  0  0  0
M  END
>  <CHROM.1>
-156.89220906,-67.11372674,-173.86998888,30.68244411,-22.67061787,4.57330240
-0.39048193,1.22750313,-3.08788753

>  <Name>
ligand

>  <RI>
0

>  <Rbt.Current_Directory>
/home/itssahil/PROJECTS/Mol_Feturizer/New_Systems/rnas/4E8N

>  <Rbt.Executable>
rbdock ($Id: //depot/dev/client3/rdock/2013.1/src/exe/rbdock.cxx#4 $)

>  <Rbt.Library>
libRbt.so (2013.1, Build901 2013/11/27)

>  <Rbt.Parameter_File>
/export/apps/rDock/src/rDock_2013.1_src/data/scripts/dock_solv.prm

>  <Rbt.Receptor>
prm/pocket_docking_8.prm

>  <SCORE>
-9.72702

>  <SCORE.INTER>
-6.05143

>  <SCORE.INTER.CONST>
1

>  <SCORE.INTER.POLAR>
0

>  <SCORE.INTER.ROT>
3

>  <SCORE.INTER.SOLV>
6.08405

>  <SCORE.INTER.VDW>
-11.6623

>  <SCORE.INTER.norm>
-0.504286

>  <SCORE.INTRA>
-3.67559

>  <SCORE.INTRA.DIHEDRAL>
-4.03451

>  <SCORE.INTRA.DIHEDRAL.0>
5.0186

>  <SCORE.INTRA.POLAR>
0

>  <SCORE.INTRA.POLAR.0>
0

>  <SCORE.INTRA.REPUL>
0

>  <SCORE.INTRA.REPUL.0>
0

>  <SCORE.INTRA.SOLV>
0.930415

>  <SCORE.INTRA.SOLV.lig_0>
-16.1608

>  <SCORE.INTRA.VDW>
-2.12354

>  <SCORE.INTRA.VDW.0>
1.14169

>  <SCORE.INTRA.norm>
-0.306299

>  <SCORE.RESTR>
0

>  <SCORE.RESTR.CAVITY>
0

>  <SCORE.RESTR.norm>
0

>  <SCORE.SYSTEM>
0

>  <SCORE.SYSTEM.CONST>
0

>  <SCORE.SYSTEM.DIHEDRAL>
0

>  <SCORE.SYSTEM.SOLV>
0

>  <SCORE.SYSTEM.norm>
0

>  <SCORE.heavy>
12

>  <SCORE.norm>
-0.810585

>  <RMSD>
5.387

$$$$
ligand
 OpenBabel11021811493D
libRbt.so/2013.1/901 2013/11/27
 12 12  0  0  0  0  0  0  0  0999 V2000
   31.5842  -23.0264    4.7999 N   0  0  0  0  0  0  0  0  0  0  0  0
   29.9808  -23.9521    1.4533 O   0  0  0  0  0  0  0  0  0  0  0  0
   33.0212  -22.7054    4.9816 C   0  0  0  0  0  0  0  0  0  0  0  0
   27.8262  -24.1562    2.3955 O   0  0  0  0  0  0  0  0  0  0  0  0
   33.1389  -21.2388    5.3836 C   0  0  0  0  0  0  0  0  0  0  0  0
   29.1655  -22.1561    2.8859 O   0  0  0  0  0  0  0  0  0  0  0  0
   32.4989  -21.0344    6.6866 N   0  0  0  0  0  0  0  0  0  0  0  0
   31.9226  -22.3113    7.1150 C   0  0  0  0  0  0  0  0  0  0  0  0
   30.8967  -22.7050    6.0660 C   0  0  0  0  0  0  0  0  0  0  0  0
   31.2750  -24.4433    4.3551 C   0  0  0  0  0  0  0  0  0  0  0  0
   29.8282  -24.7187    3.8683 C   0  0  0  0  0  0  0  0  0  0  0  0
   29.1891  -23.7565    2.6318 S   0  0  0  0  0  0  0  0  0  0  0  0
  1  3  1  0  0  0  0
  1  9  1  0  0  0  0
  1 10  1  0  0  0  0
  2 12  1  0  0  0  0
  3  5  1  0  0  0  0
  4 12  2  0  0  0  0
  5  7  1  0  0  0  0
  6 12  2  0  0  0  0
  7  8  1  0  0  0  0
  8  9  1  0  0  0  0
 10 11  1  0  0  0  0
 11 12  1  0  0  0  0
M  END
>  <CHROM.1>
-167.32394955,54.49747810,62.51571177,30.64599488,-23.09904549,4.15454618
0.25960579,0.85541947,2.32043635

>  <Name>
ligand

>  <RI>
0

>  <Rbt.Current_Directory>
/home/itssahil/PROJECTS/Mol_Feturizer/New_Systems/rnas/4E8N

>  <Rbt.Executable>
rbdock ($Id: //depot/dev/client3/rdock/2013.1/src/exe/rbdock.cxx#4 $)

>  <Rbt.Library>
libRbt.so (2013.1, Build901 2013/11/27)

>  <Rbt.Parameter_File>
/export/apps/rDock/src/rDock_2013.1_src/data/scripts/dock_solv.prm

>  <Rbt.Receptor>
prm/pocket_docking_6.prm

>  <SCORE>
-11.5352

>  <SCORE.INTER>
-7.33959

>  <SCORE.INTER.CONST>
1

>  <SCORE.INTER.POLAR>
0

>  <SCORE.INTER.ROT>
3

>  <SCORE.INTER.SOLV>
5.26701

>  <SCORE.INTER.VDW>
-12.2487

>  <SCORE.INTER.norm>
-0.611632

>  <SCORE.INTRA>
-4.19563

>  <SCORE.INTRA.DIHEDRAL>
-4.68077

>  <SCORE.INTRA.DIHEDRAL.0>
5.0186

>  <SCORE.INTRA.POLAR>
0

>  <SCORE.INTRA.POLAR.0>
0

>  <SCORE.INTRA.REPUL>
0

>  <SCORE.INTRA.REPUL.0>
0

>  <SCORE.INTRA.SOLV>
0.522555

>  <SCORE.INTRA.SOLV.lig_0>
-16.1608

>  <SCORE.INTRA.VDW>
-2.11652

>  <SCORE.INTRA.VDW.0>
1.14169

>  <SCORE.INTRA.norm>
-0.349636

>  <SCORE.RESTR>
0

>  <SCORE.RESTR.CAVITY>
0

>  <SCORE.RESTR.norm>
0

>  <SCORE.SYSTEM>
0

>  <SCORE.SYSTEM.CONST>
0

>  <SCORE.SYSTEM.DIHEDRAL>
0

>  <SCORE.SYSTEM.SOLV>
0

>  <SCORE.SYSTEM.norm>
0

>  <SCORE.heavy>
12

>  <SCORE.norm>
-0.961268

>  <RMSD>
5.391

$$$$
ligand
 OpenBabel11021811493D
libRbt.so/2013.1/901 2013/11/27
 12 12  0  0  0  0  0  0  0  0999 V2000
   31.5496  -23.0384    4.7747 N   0  0  0  0  0  0  0  0  0  0  0  0
   29.9687  -23.9946    1.4419 O   0  0  0  0  0  0  0  0  0  0  0  0
   32.9788  -22.7048    4.9911 C   0  0  0  0  0  0  0  0  0  0  0  0
   27.8204  -24.1830    2.4016 O   0  0  0  0  0  0  0  0  0  0  0  0
   33.0791  -21.2233    5.3395 C   0  0  0  0  0  0  0  0  0  0  0  0
   29.1833  -22.1987    2.8912 O   0  0  0  0  0  0  0  0  0  0  0  0
   32.3957  -20.9712    6.6118 N   0  0  0  0  0  0  0  0  0  0  0  0
   31.8089  -22.2328    7.0702 C   0  0  0  0  0  0  0  0  0  0  0  0
   30.8195  -22.6710    6.0039 C   0  0  0  0  0  0  0  0  0  0  0  0
   31.2591  -24.4727    4.3753 C   0  0  0  0  0  0  0  0  0  0  0  0
   29.8294  -24.7730    3.8540 C   0  0  0  0  0  0  0  0  0  0  0  0
   29.1891  -23.7978    2.6283 S   0  0  0  0  0  0  0  0  0  0  0  0
  1  3  1  0  0  0  0
  1  9  1  0  0  0  0
  1 10  1  0  0  0  0
  2 12  1  0  0  0  0
  3  5  1  0  0  0  0
  4 12  2  0  0  0  0
  5  7  1  0  0  0  0
  6 12  2  0  0  0  0
  7  8  1  0  0  0  0
  8  9  1  0  0  0  0
 10 11  1  0  0  0  0
 11 12  1  0  0  0  0
M  END
>  <CHROM.1>
-167.41111310,50.64633292,65.30308750,30.61347605,-23.10822319,4.13677479
-0.59977751,0.71236579,-2.84089170

>  <Name>
ligand

>  <RI>
0

>  <Rbt.Current_Directory>
/home/itssahil/PROJECTS/Mol_Feturizer/New_Systems/rnas/4E8N

>  <Rbt.Executable>
rbdock ($Id: //depot/dev/client3/rdock/2013.1/src/exe/rbdock.cxx#4 $)

>  <Rbt.Library>
libRbt.so (2013.1, Build901 2013/11/27)

>  <Rbt.Parameter_File>
/export/apps/rDock/src/rDock_2013.1_src/data/scripts/dock_solv.prm

>  <Rbt.Receptor>
prm/pocket_docking_5.prm

>  <SCORE>
-11.5143

>  <SCORE.INTER>
-7.37342

>  <SCORE.INTER.CONST>
1

>  <SCORE.INTER.POLAR>
0

>  <SCORE.INTER.ROT>
3

>  <SCORE.INTER.SOLV>
4.94444

>  <SCORE.INTER.VDW>
-12.1638

>  <SCORE.INTER.norm>
-0.614452

>  <SCORE.INTRA>
-4.14083

>  <SCORE.INTRA.DIHEDRAL>
-4.41632

>  <SCORE.INTRA.DIHEDRAL.0>
5.0186

>  <SCORE.INTRA.POLAR>
0

>  <SCORE.INTRA.POLAR.0>
0

>  <SCORE.INTRA.REPUL>
0

>  <SCORE.INTRA.REPUL.0>
0

>  <SCORE.INTRA.SOLV>
0.573842

>  <SCORE.INTRA.SOLV.lig_0>
-16.1608

>  <SCORE.INTRA.VDW>
-2.21959

>  <SCORE.INTRA.VDW.0>
1.14169

>  <SCORE.INTRA.norm>
-0.34507

>  <SCORE.RESTR>
0

>  <SCORE.RESTR.CAVITY>
0

>  <SCORE.RESTR.norm>
0

>  <SCORE.SYSTEM>
0

>  <SCORE.SYSTEM.CONST>
0

>  <SCORE.SYSTEM.DIHEDRAL>
0

>  <SCORE.SYSTEM.SOLV>
0

>  <SCORE.SYSTEM.norm>
0

>  <SCORE.heavy>
12

>  <SCORE.norm>
-0.959521

>  <RMSD>
5.392

$$$$
ligand
 OpenBabel11021811493D
libRbt.so/2013.1/901 2013/11/27
 12 12  0  0  0  0  0  0  0  0999 V2000
   31.3436  -22.8397    5.9151 N   0  0  0  0  0  0  0  0  0  0  0  0
   28.9013  -22.8653    3.0390 O   0  0  0  0  0  0  0  0  0  0  0  0
   31.5868  -22.7862    7.3776 C   0  0  0  0  0  0  0  0  0  0  0  0
   31.1530  -22.2391    2.7083 O   0  0  0  0  0  0  0  0  0  0  0  0
   32.4715  -21.5796    7.6738 C   0  0  0  0  0  0  0  0  0  0  0  0
   30.1420  -23.9119    1.2202 O   0  0  0  0  0  0  0  0  0  0  0  0
   31.7552  -20.3488    7.3259 N   0  0  0  0  0  0  0  0  0  0  0  0
   30.4558  -20.7232    6.7623 C   0  0  0  0  0  0  0  0  0  0  0  0
   30.7371  -21.5528    5.5212 C   0  0  0  0  0  0  0  0  0  0  0  0
   30.5094  -24.0087    5.4265 C   0  0  0  0  0  0  0  0  0  0  0  0
   30.6924  -24.4206    3.9423 C   0  0  0  0  0  0  0  0  0  0  0  0
   30.2200  -23.3355    2.7328 S   0  0  0  0  0  0  0  0  0  0  0  0
  1  3  1  0  0  0  0
  1  9  1  0  0  0  0
  1 10  1  0  0  0  0
  2 12  1  0  0  0  0
  3  5  1  0  0  0  0
  4 12  2  0  0  0  0
  5  7  1  0  0  0  0
  6 12  2  0  0  0  0
  7  8  1  0  0  0  0
  8  9  1  0  0  0  0
 10 11  1  0  0  0  0
 11 12  1  0  0  0  0
M  END
>  <CHROM.1>
-156.56499623,-65.44954899,-48.52087474,30.74966987,-22.63873807,4.67863758
-0.60755903,1.23186623,-2.90364185

>  <Name>
ligand

>  <RI>
0

>  <Rbt.Current_Directory>
/home/itssahil/PROJECTS/Mol_Feturizer/New_Systems/rnas/4E8N

>  <Rbt.Executable>
rbdock ($Id: //depot/dev/client3/rdock/2013.1/src/exe/rbdock.cxx#4 $)

>  <Rbt.Library>
libRbt.so (2013.1, Build901 2013/11/27)

>  <Rbt.Parameter_File>
/export/apps/rDock/src/rDock_2013.1_src/data/scripts/dock_solv.prm

>  <Rbt.Receptor>
prm/pocket_docking_7.prm

>  <SCORE>
-9.52705

>  <SCORE.INTER>
-5.73513

>  <SCORE.INTER.CONST>
1

>  <SCORE.INTER.POLAR>
0

>  <SCORE.INTER.ROT>
3

>  <SCORE.INTER.SOLV>
5.86969

>  <SCORE.INTER.VDW>
-11.38

>  <SCORE.INTER.norm>
-0.477928

>  <SCORE.INTRA>
-3.79192

>  <SCORE.INTRA.DIHEDRAL>
-3.86398

>  <SCORE.INTRA.DIHEDRAL.0>
5.0186

>  <SCORE.INTRA.POLAR>
0

>  <SCORE.INTRA.POLAR.0>
0

>  <SCORE.INTRA.REPUL>
0

>  <SCORE.INTRA.REPUL.0>
0

>  <SCORE.INTRA.SOLV>
0.428859

>  <SCORE.INTRA.SOLV.lig_0>
-16.1608

>  <SCORE.INTRA.VDW>
-2.07436

>  <SCORE.INTRA.VDW.0>
1.14169

>  <SCORE.INTRA.norm>
-0.315993

>  <SCORE.RESTR>
0

>  <SCORE.RESTR.CAVITY>
0

>  <SCORE.RESTR.norm>
0

>  <SCORE.SYSTEM>
0

>  <SCORE.SYSTEM.CONST>
0

>  <SCORE.SYSTEM.DIHEDRAL>
0

>  <SCORE.SYSTEM.SOLV>
0

>  <SCORE.SYSTEM.norm>
0

>  <SCORE.heavy>
12

>  <SCORE.norm>
-0.793921

>  <RMSD>
5.414

$$$$
ligand
 OpenBabel11021811493D
libRbt.so/2013.1/901 2013/11/27
 12 12  0  0  0  0  0  0  0  0999 V2000
   30.8042  -22.8182    5.4442 N   0  0  0  0  0  0  0  0  0  0  0  0
   28.7344  -22.6615    3.1937 O   0  0  0  0  0  0  0  0  0  0  0  0
   31.3504  -21.6916    4.6484 C   0  0  0  0  0  0  0  0  0  0  0  0
   29.9545  -24.0688    1.7437 O   0  0  0  0  0  0  0  0  0  0  0  0
   31.0731  -20.3936    5.3997 C   0  0  0  0  0  0  0  0  0  0  0  0
   27.6155  -24.6151    2.2588 O   0  0  0  0  0  0  0  0  0  0  0  0
   31.8027  -20.3972    6.6712 N   0  0  0  0  0  0  0  0  0  0  0  0
   32.4997  -21.6801    6.7915 C   0  0  0  0  0  0  0  0  0  0  0  0
   31.4341  -22.7627    6.7780 C   0  0  0  0  0  0  0  0  0  0  0  0
   30.9527  -24.1960    4.8272 C   0  0  0  0  0  0  0  0  0  0  0  0
   29.6860  -24.8030    4.1691 C   0  0  0  0  0  0  0  0  0  0  0  0
   29.0105  -24.0199    2.8298 S   0  0  0  0  0  0  0  0  0  0  0  0
  1  3  1  0  0  0  0
  1  9  1  0  0  0  0
  1 10  1  0  0  0  0
  2 12  1  0  0  0  0
  3  5  1  0  0  0  0
  4 12  2  0  0  0  0
  5  7  1  0  0  0  0
  6 12  2  0  0  0  0
  7  8  1  0  0  0  0
  8  9  1  0  0  0  0
 10 11  1  0  0  0  0
 11 12  1  0  0  0  0
M  END
>  <CHROM.1>
-102.57630456,63.25067522,-55.40859817,30.22783623,-22.98195805,4.33343341
-0.47047576,0.92773075,3.06142879

>  <Name>
ligand

>  <RI>
0

>  <Rbt.Current_Directory>
/home/itssahil/PROJECTS/Mol_Feturizer/New_Systems/rnas/4E8N

>  <Rbt.Executable>
rbdock ($Id: //depot/dev/client3/rdock/2013.1/src/exe/rbdock.cxx#4 $)

>  <Rbt.Library>
libRbt.so (2013.1, Build901 2013/11/27)

>  <Rbt.Parameter_File>
/export/apps/rDock/src/rDock_2013.1_src/data/scripts/dock_solv.prm

>  <Rbt.Receptor>
prm/pocket_docking_5.prm

>  <SCORE>
-10.5295

>  <SCORE.INTER>
-6.62447

>  <SCORE.INTER.CONST>
1

>  <SCORE.INTER.POLAR>
0

>  <SCORE.INTER.ROT>
3

>  <SCORE.INTER.SOLV>
5.1311

>  <SCORE.INTER.VDW>
-11.7267

>  <SCORE.INTER.norm>
-0.552039

>  <SCORE.INTRA>
-3.90505

>  <SCORE.INTRA.DIHEDRAL>
-2.91979

>  <SCORE.INTRA.DIHEDRAL.0>
5.0186

>  <SCORE.INTRA.POLAR>
0

>  <SCORE.INTRA.POLAR.0>
0

>  <SCORE.INTRA.REPUL>
0

>  <SCORE.INTRA.REPUL.0>
0

>  <SCORE.INTRA.SOLV>
0.0601346

>  <SCORE.INTRA.SOLV.lig_0>
-16.1608

>  <SCORE.INTRA.VDW>
-2.47523

>  <SCORE.INTRA.VDW.0>
1.14169

>  <SCORE.INTRA.norm>
-0.325421

>  <SCORE.RESTR>
0

>  <SCORE.RESTR.CAVITY>
0

>  <SCORE.RESTR.norm>
0

>  <SCORE.SYSTEM>
0

>  <SCORE.SYSTEM.CONST>
0

>  <SCORE.SYSTEM.DIHEDRAL>
0

>  <SCORE.SYSTEM.SOLV>
0

>  <SCORE.SYSTEM.norm>
0

>  <SCORE.heavy>
12

>  <SCORE.norm>
-0.87746

>  <RMSD>
5.425

$$$$
ligand
 OpenBabel11021811493D
libRbt.so/2013.1/901 2013/11/27
 12 12  0  0  0  0  0  0  0  0999 V2000
   31.4758  -22.9186    4.8960 N   0  0  0  0  0  0  0  0  0  0  0  0
   28.9574  -22.5447    3.1437 O   0  0  0  0  0  0  0  0  0  0  0  0
   32.8226  -22.3165    4.7394 C   0  0  0  0  0  0  0  0  0  0  0  0
   29.7790  -24.0616    1.5325 O   0  0  0  0  0  0  0  0  0  0  0  0
   32.7859  -20.9021    5.3090 C   0  0  0  0  0  0  0  0  0  0  0  0
   27.5246  -24.3912    2.4510 O   0  0  0  0  0  0  0  0  0  0  0  0
   32.5212  -20.9602    6.7497 N   0  0  0  0  0  0  0  0  0  0  0  0
   32.3306  -22.3646    7.1204 C   0  0  0  0  0  0  0  0  0  0  0  0
   31.1347  -22.8696    6.3314 C   0  0  0  0  0  0  0  0  0  0  0  0
   31.3111  -24.3217    4.3433 C   0  0  0  0  0  0  0  0  0  0  0  0
   29.8682  -24.7610    3.9814 C   0  0  0  0  0  0  0  0  0  0  0  0
   29.0445  -23.9237    2.7633 S   0  0  0  0  0  0  0  0  0  0  0  0
  1  3  1  0  0  0  0
  1  9  1  0  0  0  0
  1 10  1  0  0  0  0
  2 12  1  0  0  0  0
  3  5  1  0  0  0  0
  4 12  2  0  0  0  0
  5  7  1  0  0  0  0
  6 12  2  0  0  0  0
  7  8  1  0  0  0  0
  8  9  1  0  0  0  0
 10 11  1  0  0  0  0
 11 12  1  0  0  0  0
M  END
>  <CHROM.1>
-156.79375794,62.84160345,-58.95998466,30.56883278,-23.13185895,4.22478775
0.38960457,0.79458775,2.06500592

>  <Name>
ligand

>  <RI>
0

>  <Rbt.Current_Directory>
/home/itssahil/PROJECTS/Mol_Feturizer/New_Systems/rnas/4E8N

>  <Rbt.Executable>
rbdock ($Id: //depot/dev/client3/rdock/2013.1/src/exe/rbdock.cxx#4 $)

>  <Rbt.Library>
libRbt.so (2013.1, Build901 2013/11/27)

>  <Rbt.Parameter_File>
/export/apps/rDock/src/rDock_2013.1_src/data/scripts/dock_solv.prm

>  <Rbt.Receptor>
prm/pocket_docking_7.prm

>  <SCORE>
-11.5837

>  <SCORE.INTER>
-7.3415

>  <SCORE.INTER.CONST>
1

>  <SCORE.INTER.POLAR>
0

>  <SCORE.INTER.ROT>
3

>  <SCORE.INTER.SOLV>
4.8233

>  <SCORE.INTER.VDW>
-12.1021

>  <SCORE.INTER.norm>
-0.611792

>  <SCORE.INTRA>
-4.2422

>  <SCORE.INTRA.DIHEDRAL>
-4.28321

>  <SCORE.INTRA.DIHEDRAL.0>
5.0186

>  <SCORE.INTRA.POLAR>
0

>  <SCORE.INTRA.POLAR.0>
0

>  <SCORE.INTRA.REPUL>
0

>  <SCORE.INTRA.REPUL.0>
0

>  <SCORE.INTRA.SOLV>
0.100398

>  <SCORE.INTRA.SOLV.lig_0>
-16.1608

>  <SCORE.INTRA.VDW>
-2.15079

>  <SCORE.INTRA.VDW.0>
1.14169

>  <SCORE.INTRA.norm>
-0.353517

>  <SCORE.RESTR>
0

>  <SCORE.RESTR.CAVITY>
0

>  <SCORE.RESTR.norm>
0

>  <SCORE.SYSTEM>
0

>  <SCORE.SYSTEM.CONST>
0

>  <SCORE.SYSTEM.DIHEDRAL>
0

>  <SCORE.SYSTEM.SOLV>
0

>  <SCORE.SYSTEM.norm>
0

>  <SCORE.heavy>
12

>  <SCORE.norm>
-0.965308

>  <RMSD>
5.427

$$$$
ligand
 OpenBabel11021811493D
libRbt.so/2013.1/901 2013/11/27
 12 12  0  0  0  0  0  0  0  0999 V2000
   30.8116  -22.8090    5.4437 N   0  0  0  0  0  0  0  0  0  0  0  0
   28.7322  -22.6710    3.1840 O   0  0  0  0  0  0  0  0  0  0  0  0
   31.3110  -21.6617    4.6467 C   0  0  0  0  0  0  0  0  0  0  0  0
   29.9690  -24.0606    1.7310 O   0  0  0  0  0  0  0  0  0  0  0  0
   31.0205  -20.3782    5.4177 C   0  0  0  0  0  0  0  0  0  0  0  0
   27.6392  -24.6402    2.2513 O   0  0  0  0  0  0  0  0  0  0  0  0
   31.7805  -20.3762    6.6713 N   0  0  0  0  0  0  0  0  0  0  0  0
   32.5111  -21.6427    6.7617 C   0  0  0  0  0  0  0  0  0  0  0  0
   31.4721  -22.7510    6.7626 C   0  0  0  0  0  0  0  0  0  0  0  0
   30.9786  -24.1767    4.8093 C   0  0  0  0  0  0  0  0  0  0  0  0
   29.7164  -24.7990    4.1569 C   0  0  0  0  0  0  0  0  0  0  0  0
   29.0268  -24.0253    2.8193 S   0  0  0  0  0  0  0  0  0  0  0  0
  1  3  1  0  0  0  0
  1  9  1  0  0  0  0
  1 10  1  0  0  0  0
  2 12  1  0  0  0  0
  3  5  1  0  0  0  0
  4 12  2  0  0  0  0
  5  7  1  0  0  0  0
  6 12  2  0  0  0  0
  7  8  1  0  0  0  0
  8  9  1  0  0  0  0
 10 11  1  0  0  0  0
 11 12  1  0  0  0  0
M  END
>  <CHROM.1>
-101.69429846,64.15290182,-55.61530590,30.23345933,-22.97427506,4.32484690
-0.50981019,0.91940962,3.10361347

>  <Name>
ligand

>  <RI>
0

>  <Rbt.Current_Directory>
/home/itssahil/PROJECTS/Mol_Feturizer/New_Systems/rnas/4E8N

>  <Rbt.Executable>
rbdock ($Id: //depot/dev/client3/rdock/2013.1/src/exe/rbdock.cxx#4 $)

>  <Rbt.Library>
libRbt.so (2013.1, Build901 2013/11/27)

>  <Rbt.Parameter_File>
/export/apps/rDock/src/rDock_2013.1_src/data/scripts/dock_solv.prm

>  <Rbt.Receptor>
prm/pocket_docking_8.prm

>  <SCORE>
-10.5136

>  <SCORE.INTER>
-6.60644

>  <SCORE.INTER.CONST>
1

>  <SCORE.INTER.POLAR>
0

>  <SCORE.INTER.ROT>
3

>  <SCORE.INTER.SOLV>
5.10917

>  <SCORE.INTER.VDW>
-11.7073

>  <SCORE.INTER.norm>
-0.550537

>  <SCORE.INTRA>
-3.90712

>  <SCORE.INTRA.DIHEDRAL>
-2.94136

>  <SCORE.INTRA.DIHEDRAL.0>
5.0186

>  <SCORE.INTRA.POLAR>
0

>  <SCORE.INTRA.POLAR.0>
0

>  <SCORE.INTRA.REPUL>
0

>  <SCORE.INTRA.REPUL.0>
0

>  <SCORE.INTRA.SOLV>
0.0557606

>  <SCORE.INTRA.SOLV.lig_0>
-16.1608

>  <SCORE.INTRA.VDW>
-2.46432

>  <SCORE.INTRA.VDW.0>
1.14169

>  <SCORE.INTRA.norm>
-0.325593

>  <SCORE.RESTR>
0

>  <SCORE.RESTR.CAVITY>
0

>  <SCORE.RESTR.norm>
0

>  <SCORE.SYSTEM>
0

>  <SCORE.SYSTEM.CONST>
0

>  <SCORE.SYSTEM.DIHEDRAL>
0

>  <SCORE.SYSTEM.SOLV>
0

>  <SCORE.SYSTEM.norm>
0

>  <SCORE.heavy>
12

>  <SCORE.norm>
-0.87613

>  <RMSD>
5.429

$$$$
ligand
 OpenBabel11021811493D
libRbt.so/2013.1/901 2013/11/27
 12 12  0  0  0  0  0  0  0  0999 V2000
   30.8015  -22.8177    5.4368 N   0  0  0  0  0  0  0  0  0  0  0  0
   28.7664  -22.6854    3.1543 O   0  0  0  0  0  0  0  0  0  0  0  0
   31.3463  -21.6931    4.6372 C   0  0  0  0  0  0  0  0  0  0  0  0
   29.9811  -24.1251    1.7318 O   0  0  0  0  0  0  0  0  0  0  0  0
   31.0580  -20.3921    5.3790 C   0  0  0  0  0  0  0  0  0  0  0  0
   27.6370  -24.6470    2.2491 O   0  0  0  0  0  0  0  0  0  0  0  0
   31.7804  -20.3840    6.6546 N   0  0  0  0  0  0  0  0  0  0  0  0
   32.4835  -21.6625    6.7866 C   0  0  0  0  0  0  0  0  0  0  0  0
   31.4236  -22.7508    6.7737 C   0  0  0  0  0  0  0  0  0  0  0  0
   30.9608  -24.1985    4.8290 C   0  0  0  0  0  0  0  0  0  0  0  0
   29.7008  -24.8165    4.1684 C   0  0  0  0  0  0  0  0  0  0  0  0
   29.0343  -24.0516    2.8141 S   0  0  0  0  0  0  0  0  0  0  0  0
  1  3  1  0  0  0  0
  1  9  1  0  0  0  0
  1 10  1  0  0  0  0
  2 12  1  0  0  0  0
  3  5  1  0  0  0  0
  4 12  2  0  0  0  0
  5  7  1  0  0  0  0
  6 12  2  0  0  0  0
  7  8  1  0  0  0  0
  8  9  1  0  0  0  0
 10 11  1  0  0  0  0
 11 12  1  0  0  0  0
M  END
>  <CHROM.1>
-102.61267592,63.68937343,-54.76354384,30.23495145,-22.99459463,4.32104886
-0.47967982,0.93545682,3.06199236

>  <Name>
ligand

>  <RI>
0

>  <Rbt.Current_Directory>
/home/itssahil/PROJECTS/Mol_Feturizer/New_Systems/rnas/4E8N

>  <Rbt.Executable>
rbdock ($Id: //depot/dev/client3/rdock/2013.1/src/exe/rbdock.cxx#4 $)

>  <Rbt.Library>
libRbt.so (2013.1, Build901 2013/11/27)

>  <Rbt.Parameter_File>
/export/apps/rDock/src/rDock_2013.1_src/data/scripts/dock_solv.prm

>  <Rbt.Receptor>
prm/pocket_docking_7.prm

>  <SCORE>
-10.5688

>  <SCORE.INTER>
-6.68321

>  <SCORE.INTER.CONST>
1

>  <SCORE.INTER.POLAR>
0

>  <SCORE.INTER.ROT>
3

>  <SCORE.INTER.SOLV>
5.13597

>  <SCORE.INTER.VDW>
-11.7675

>  <SCORE.INTER.norm>
-0.556934

>  <SCORE.INTRA>
-3.88555

>  <SCORE.INTRA.DIHEDRAL>
-2.89039

>  <SCORE.INTRA.DIHEDRAL.0>
5.0186

>  <SCORE.INTRA.POLAR>
0

>  <SCORE.INTRA.POLAR.0>
0

>  <SCORE.INTRA.REPUL>
0

>  <SCORE.INTRA.REPUL.0>
0

>  <SCORE.INTRA.SOLV>
0.050611

>  <SCORE.INTRA.SOLV.lig_0>
-16.1608

>  <SCORE.INTRA.VDW>
-2.46566

>  <SCORE.INTRA.VDW.0>
1.14169

>  <SCORE.INTRA.norm>
-0.323796

>  <SCORE.RESTR>
0

>  <SCORE.RESTR.CAVITY>
0

>  <SCORE.RESTR.norm>
0

>  <SCORE.SYSTEM>
0

>  <SCORE.SYSTEM.CONST>
0

>  <SCORE.SYSTEM.DIHEDRAL>
0

>  <SCORE.SYSTEM.SOLV>
0

>  <SCORE.SYSTEM.norm>
0

>  <SCORE.heavy>
12

>  <SCORE.norm>
-0.88073

>  <RMSD>
5.439

$$$$
ligand
 OpenBabel11021811493D
libRbt.so/2013.1/901 2013/11/27
 12 12  0  0  0  0  0  0  0  0999 V2000
   31.5228  -22.9942    4.8879 N   0  0  0  0  0  0  0  0  0  0  0  0
   28.9837  -22.5952    3.1067 O   0  0  0  0  0  0  0  0  0  0  0  0
   32.9163  -22.5030    4.7539 C   0  0  0  0  0  0  0  0  0  0  0  0
   29.7675  -24.2342    1.5996 O   0  0  0  0  0  0  0  0  0  0  0  0
   32.9650  -21.0577    5.2384 C   0  0  0  0  0  0  0  0  0  0  0  0
   27.4925  -24.4278    2.5060 O   0  0  0  0  0  0  0  0  0  0  0  0
   32.6420  -21.0081    6.6675 N   0  0  0  0  0  0  0  0  0  0  0  0
   32.3318  -22.3696    7.1107 C   0  0  0  0  0  0  0  0  0  0  0  0
   31.1320  -22.8328    6.3022 C   0  0  0  0  0  0  0  0  0  0  0  0
   31.2735  -24.4125    4.4110 C   0  0  0  0  0  0  0  0  0  0  0  0
   29.8040  -24.7884    4.0866 C   0  0  0  0  0  0  0  0  0  0  0  0
   29.0248  -23.9968    2.8101 S   0  0  0  0  0  0  0  0  0  0  0  0
  1  3  1  0  0  0  0
  1  9  1  0  0  0  0
  1 10  1  0  0  0  0
  2 12  1  0  0  0  0
  3  5  1  0  0  0  0
  4 12  2  0  0  0  0
  5  7  1  0  0  0  0
  6 12  2  0  0  0  0
  7  8  1  0  0  0  0
  8  9  1  0  0  0  0
 10 11  1  0  0  0  0
 11 12  1  0  0  0  0
M  END
>  <CHROM.1>
-159.96357437,64.30430323,-60.94109545,30.58870692,-23.20591709,4.23877931
0.51748604,0.69647297,1.84798933

>  <Name>
ligand

>  <RI>
0

>  <Rbt.Current_Directory>
/home/itssahil/PROJECTS/Mol_Feturizer/New_Systems/rnas/4E8N

>  <Rbt.Executable>
rbdock ($Id: //depot/dev/client3/rdock/2013.1/src/exe/rbdock.cxx#4 $)

>  <Rbt.Library>
libRbt.so (2013.1, Build901 2013/11/27)

>  <Rbt.Parameter_File>
/export/apps/rDock/src/rDock_2013.1_src/data/scripts/dock_solv.prm

>  <Rbt.Receptor>
prm/pocket_docking_6.prm

>  <SCORE>
-11.6551

>  <SCORE.INTER>
-7.40387

>  <SCORE.INTER.CONST>
1

>  <SCORE.INTER.POLAR>
0

>  <SCORE.INTER.ROT>
3

>  <SCORE.INTER.SOLV>
5.00089

>  <SCORE.INTER.VDW>
-12.2029

>  <SCORE.INTER.norm>
-0.616989

>  <SCORE.INTRA>
-4.25118

>  <SCORE.INTRA.DIHEDRAL>
-4.41968

>  <SCORE.INTRA.DIHEDRAL.0>
5.0186

>  <SCORE.INTRA.POLAR>
0

>  <SCORE.INTRA.POLAR.0>
0

>  <SCORE.INTRA.REPUL>
0

>  <SCORE.INTRA.REPUL.0>
0

>  <SCORE.INTRA.SOLV>
0.106981

>  <SCORE.INTRA.SOLV.lig_0>
-16.1608

>  <SCORE.INTRA.VDW>
-2.09483

>  <SCORE.INTRA.VDW.0>
1.14169

>  <SCORE.INTRA.norm>
-0.354265

>  <SCORE.RESTR>
0

>  <SCORE.RESTR.CAVITY>
0

>  <SCORE.RESTR.norm>
0

>  <SCORE.SYSTEM>
0

>  <SCORE.SYSTEM.CONST>
0

>  <SCORE.SYSTEM.DIHEDRAL>
0

>  <SCORE.SYSTEM.SOLV>
0

>  <SCORE.SYSTEM.norm>
0

>  <SCORE.heavy>
12

>  <SCORE.norm>
-0.971254

>  <RMSD>
5.444

$$$$
ligand
 OpenBabel11021811493D
libRbt.so/2013.1/901 2013/11/27
 12 12  0  0  0  0  0  0  0  0999 V2000
   30.8592  -22.7308    5.3390 N   0  0  0  0  0  0  0  0  0  0  0  0
   28.7247  -22.7031    3.1161 O   0  0  0  0  0  0  0  0  0  0  0  0
   31.4114  -21.5695    4.5992 C   0  0  0  0  0  0  0  0  0  0  0  0
   29.9473  -24.0856    1.6444 O   0  0  0  0  0  0  0  0  0  0  0  0
   31.0667  -20.3000    5.3710 C   0  0  0  0  0  0  0  0  0  0  0  0
   27.6607  -24.7275    2.2721 O   0  0  0  0  0  0  0  0  0  0  0  0
   31.7379  -20.3205    6.6741 N   0  0  0  0  0  0  0  0  0  0  0  0
   32.4619  -21.5886    6.7924 C   0  0  0  0  0  0  0  0  0  0  0  0
   31.4264  -22.6966    6.7013 C   0  0  0  0  0  0  0  0  0  0  0  0
   31.0713  -24.0870    4.6933 C   0  0  0  0  0  0  0  0  0  0  0  0
   29.8170  -24.7752    4.0941 C   0  0  0  0  0  0  0  0  0  0  0  0
   29.0490  -24.0554    2.7692 S   0  0  0  0  0  0  0  0  0  0  0  0
  1  3  1  0  0  0  0
  1  9  1  0  0  0  0
  1 10  1  0  0  0  0
  2 12  1  0  0  0  0
  3  5  1  0  0  0  0
  4 12  2  0  0  0  0
  5  7  1  0  0  0  0
  6 12  2  0  0  0  0
  7  8  1  0  0  0  0
  8  9  1  0  0  0  0
 10 11  1  0  0  0  0
 11 12  1  0  0  0  0
M  END
>  <CHROM.1>
-108.89654881,65.43986668,-54.75143342,30.25476315,-22.95292432,4.27577998
-0.53998137,0.92185492,3.11776964

>  <Name>
ligand

>  <RI>
0

>  <Rbt.Current_Directory>
/home/itssahil/PROJECTS/Mol_Feturizer/New_Systems/rnas/4E8N

>  <Rbt.Executable>
rbdock ($Id: //depot/dev/client3/rdock/2013.1/src/exe/rbdock.cxx#4 $)

>  <Rbt.Library>
libRbt.so (2013.1, Build901 2013/11/27)

>  <Rbt.Parameter_File>
/export/apps/rDock/src/rDock_2013.1_src/data/scripts/dock_solv.prm

>  <Rbt.Receptor>
prm/pocket_docking_4.prm

>  <SCORE>
-10.5088

>  <SCORE.INTER>
-6.76208

>  <SCORE.INTER.CONST>
1

>  <SCORE.INTER.POLAR>
0

>  <SCORE.INTER.ROT>
3

>  <SCORE.INTER.SOLV>
4.98095

>  <SCORE.INTER.VDW>
-11.7684

>  <SCORE.INTER.norm>
-0.563506

>  <SCORE.INTRA>
-3.74673

>  <SCORE.INTRA.DIHEDRAL>
-2.5865

>  <SCORE.INTRA.DIHEDRAL.0>
5.0186

>  <SCORE.INTRA.POLAR>
0

>  <SCORE.INTRA.POLAR.0>
0

>  <SCORE.INTRA.REPUL>
0

>  <SCORE.INTRA.REPUL.0>
0

>  <SCORE.INTRA.SOLV>
0.0444808

>  <SCORE.INTRA.SOLV.lig_0>
-16.1608

>  <SCORE.INTRA.VDW>
-2.47572

>  <SCORE.INTRA.VDW.0>
1.14169

>  <SCORE.INTRA.norm>
-0.312227

>  <SCORE.RESTR>
0

>  <SCORE.RESTR.CAVITY>
0

>  <SCORE.RESTR.norm>
0

>  <SCORE.SYSTEM>
0

>  <SCORE.SYSTEM.CONST>
0

>  <SCORE.SYSTEM.DIHEDRAL>
0

>  <SCORE.SYSTEM.SOLV>
0

>  <SCORE.SYSTEM.norm>
0

>  <SCORE.heavy>
12

>  <SCORE.norm>
-0.875734

>  <RMSD>
5.449

$$$$
ligand
 OpenBabel11021811493D
libRbt.so/2013.1/901 2013/11/27
 12 12  0  0  0  0  0  0  0  0999 V2000
   30.8286  -22.8090    5.3450 N   0  0  0  0  0  0  0  0  0  0  0  0
   28.7280  -22.6884    3.1147 O   0  0  0  0  0  0  0  0  0  0  0  0
   31.3744  -21.6626    4.5777 C   0  0  0  0  0  0  0  0  0  0  0  0
   29.9371  -24.0790    1.6395 O   0  0  0  0  0  0  0  0  0  0  0  0
   31.0704  -20.3812    5.3469 C   0  0  0  0  0  0  0  0  0  0  0  0
   27.6206  -24.6633    2.2113 O   0  0  0  0  0  0  0  0  0  0  0  0
   31.7799  -20.3988    6.6296 N   0  0  0  0  0  0  0  0  0  0  0  0
   32.4896  -21.6758    6.7387 C   0  0  0  0  0  0  0  0  0  0  0  0
   31.4368  -22.7699    6.6895 C   0  0  0  0  0  0  0  0  0  0  0  0
   31.0027  -24.1741    4.7066 C   0  0  0  0  0  0  0  0  0  0  0  0
   29.7386  -24.8109    4.0724 C   0  0  0  0  0  0  0  0  0  0  0  0
   29.0184  -24.0431    2.7476 S   0  0  0  0  0  0  0  0  0  0  0  0
  1  3  1  0  0  0  0
  1  9  1  0  0  0  0
  1 10  1  0  0  0  0
  2 12  1  0  0  0  0
  3  5  1  0  0  0  0
  4 12  2  0  0  0  0
  5  7  1  0  0  0  0
  6 12  2  0  0  0  0
  7  8  1  0  0  0  0
  8  9  1  0  0  0  0
 10 11  1  0  0  0  0
 11 12  1  0  0  0  0
M  END
>  <CHROM.1>
-105.16483883,64.04980879,-54.87569473,30.23620664,-22.98854013,4.25508043
-0.50110394,0.92168490,3.09349185

>  <Name>
ligand

>  <RI>
0

>  <Rbt.Current_Directory>
/home/itssahil/PROJECTS/Mol_Feturizer/New_Systems/rnas/4E8N

>  <Rbt.Executable>
rbdock ($Id: //depot/dev/client3/rdock/2013.1/src/exe/rbdock.cxx#4 $)

>  <Rbt.Library>
libRbt.so (2013.1, Build901 2013/11/27)

>  <Rbt.Parameter_File>
/export/apps/rDock/src/rDock_2013.1_src/data/scripts/dock_solv.prm

>  <Rbt.Receptor>
prm/pocket_docking_5.prm

>  <SCORE>
-10.5279

>  <SCORE.INTER>
-6.68856

>  <SCORE.INTER.CONST>
1

>  <SCORE.INTER.POLAR>
0

>  <SCORE.INTER.ROT>
3

>  <SCORE.INTER.SOLV>
5.04553

>  <SCORE.INTER.VDW>
-11.7409

>  <SCORE.INTER.norm>
-0.55738

>  <SCORE.INTRA>
-3.83935

>  <SCORE.INTRA.DIHEDRAL>
-2.77179

>  <SCORE.INTRA.DIHEDRAL.0>
5.0186

>  <SCORE.INTRA.POLAR>
0

>  <SCORE.INTRA.POLAR.0>
0

>  <SCORE.INTRA.REPUL>
0

>  <SCORE.INTRA.REPUL.0>
0

>  <SCORE.INTRA.SOLV>
0.0515775

>  <SCORE.INTRA.SOLV.lig_0>
-16.1608

>  <SCORE.INTRA.VDW>
-2.47924

>  <SCORE.INTRA.VDW.0>
1.14169

>  <SCORE.INTRA.norm>
-0.319946

>  <SCORE.RESTR>
0

>  <SCORE.RESTR.CAVITY>
0

>  <SCORE.RESTR.norm>
0

>  <SCORE.SYSTEM>
0

>  <SCORE.SYSTEM.CONST>
0

>  <SCORE.SYSTEM.DIHEDRAL>
0

>  <SCORE.SYSTEM.SOLV>
0

>  <SCORE.SYSTEM.norm>
0

>  <SCORE.heavy>
12

>  <SCORE.norm>
-0.877326

>  <RMSD>
5.452

$$$$
ligand
 OpenBabel11021811493D
libRbt.so/2013.1/901 2013/11/27
 12 12  0  0  0  0  0  0  0  0999 V2000
   31.5193  -23.0678    4.8579 N   0  0  0  0  0  0  0  0  0  0  0  0
   29.0363  -22.5454    3.0899 O   0  0  0  0  0  0  0  0  0  0  0  0
   32.9454  -22.6602    4.8272 C   0  0  0  0  0  0  0  0  0  0  0  0
   29.7841  -24.1692    1.5485 O   0  0  0  0  0  0  0  0  0  0  0  0
   33.0407  -21.2097    5.2887 C   0  0  0  0  0  0  0  0  0  0  0  0
   27.4868  -24.2997    2.4088 O   0  0  0  0  0  0  0  0  0  0  0  0
   32.6096  -21.1101    6.6863 N   0  0  0  0  0  0  0  0  0  0  0  0
   32.1859  -22.4415    7.1271 C   0  0  0  0  0  0  0  0  0  0  0  0
   31.0284  -22.8531    6.2334 C   0  0  0  0  0  0  0  0  0  0  0  0
   31.2254  -24.4797    4.3876 C   0  0  0  0  0  0  0  0  0  0  0  0
   29.7526  -24.7967    4.0182 C   0  0  0  0  0  0  0  0  0  0  0  0
   29.0287  -23.9382    2.7524 S   0  0  0  0  0  0  0  0  0  0  0  0
  1  3  1  0  0  0  0
  1  9  1  0  0  0  0
  1 10  1  0  0  0  0
  2 12  1  0  0  0  0
  3  5  1  0  0  0  0
  4 12  2  0  0  0  0
  5  7  1  0  0  0  0
  6 12  2  0  0  0  0
  7  8  1  0  0  0  0
  8  9  1  0  0  0  0
 10 11  1  0  0  0  0
 11 12  1  0  0  0  0
M  END
>  <CHROM.1>
-162.81120287,61.61116899,-60.41033168,30.57419102,-23.22353322,4.21309859
-0.65644810,-0.57270579,-1.48080799

>  <Name>
ligand

>  <RI>
0

>  <Rbt.Current_Directory>
/home/itssahil/PROJECTS/Mol_Feturizer/New_Systems/rnas/4E8N

>  <Rbt.Executable>
rbdock ($Id: //depot/dev/client3/rdock/2013.1/src/exe/rbdock.cxx#4 $)

>  <Rbt.Library>
libRbt.so (2013.1, Build901 2013/11/27)

>  <Rbt.Parameter_File>
/export/apps/rDock/src/rDock_2013.1_src/data/scripts/dock_solv.prm

>  <Rbt.Receptor>
prm/pocket_docking_7.prm

>  <SCORE>
-11.7817

>  <SCORE.INTER>
-7.43763

>  <SCORE.INTER.CONST>
1

>  <SCORE.INTER.POLAR>
0

>  <SCORE.INTER.ROT>
3

>  <SCORE.INTER.SOLV>
5.20037

>  <SCORE.INTER.VDW>
-12.2919

>  <SCORE.INTER.norm>
-0.619802

>  <SCORE.INTRA>
-4.34412

>  <SCORE.INTRA.DIHEDRAL>
-4.62035

>  <SCORE.INTRA.DIHEDRAL.0>
5.0186

>  <SCORE.INTRA.POLAR>
0

>  <SCORE.INTRA.POLAR.0>
0

>  <SCORE.INTRA.REPUL>
0

>  <SCORE.INTRA.REPUL.0>
0

>  <SCORE.INTRA.SOLV>
0.112144

>  <SCORE.INTRA.SOLV.lig_0>
-16.1608

>  <SCORE.INTRA.VDW>
-2.09002

>  <SCORE.INTRA.VDW.0>
1.14169

>  <SCORE.INTRA.norm>
-0.36201

>  <SCORE.RESTR>
0

>  <SCORE.RESTR.CAVITY>
0

>  <SCORE.RESTR.norm>
0

>  <SCORE.SYSTEM>
0

>  <SCORE.SYSTEM.CONST>
0

>  <SCORE.SYSTEM.DIHEDRAL>
0

>  <SCORE.SYSTEM.SOLV>
0

>  <SCORE.SYSTEM.norm>
0

>  <SCORE.heavy>
12

>  <SCORE.norm>
-0.981812

>  <RMSD>
5.452

$$$$
ligand
 OpenBabel11021811493D
libRbt.so/2013.1/901 2013/11/27
 12 12  0  0  0  0  0  0  0  0999 V2000
   31.5755  -23.0944    4.7102 N   0  0  0  0  0  0  0  0  0  0  0  0
   29.9534  -24.0433    1.3649 O   0  0  0  0  0  0  0  0  0  0  0  0
   32.9865  -22.6769    4.8983 C   0  0  0  0  0  0  0  0  0  0  0  0
   27.8508  -24.4088    2.3736 O   0  0  0  0  0  0  0  0  0  0  0  0
   33.0010  -21.2167    5.3387 C   0  0  0  0  0  0  0  0  0  0  0  0
   29.0823  -22.3446    2.8808 O   0  0  0  0  0  0  0  0  0  0  0  0
   32.3523  -21.0925    6.6474 N   0  0  0  0  0  0  0  0  0  0  0  0
   31.8695  -22.4179    7.0429 C   0  0  0  0  0  0  0  0  0  0  0  0
   30.8709  -22.8560    5.9852 C   0  0  0  0  0  0  0  0  0  0  0  0
   31.3663  -24.5177    4.2287 C   0  0  0  0  0  0  0  0  0  0  0  0
   29.9356  -24.8889    3.7582 C   0  0  0  0  0  0  0  0  0  0  0  0
   29.1945  -23.9322    2.5755 S   0  0  0  0  0  0  0  0  0  0  0  0
  1  3  1  0  0  0  0
  1  9  1  0  0  0  0
  1 10  1  0  0  0  0
  2 12  1  0  0  0  0
  3  5  1  0  0  0  0
  4 12  2  0  0  0  0
  5  7  1  0  0  0  0
  6 12  2  0  0  0  0
  7  8  1  0  0  0  0
  8  9  1  0  0  0  0
 10 11  1  0  0  0  0
 11 12  1  0  0  0  0
M  END
>  <CHROM.1>
-168.27909041,53.75016141,64.00344937,30.62455301,-23.21478185,4.08839299
-0.39376220,0.83691296,3.13857528

>  <Name>
ligand

>  <RI>
0

>  <Rbt.Current_Directory>
/home/itssahil/PROJECTS/Mol_Feturizer/New_Systems/rnas/4E8N

>  <Rbt.Executable>
rbdock ($Id: //depot/dev/client3/rdock/2013.1/src/exe/rbdock.cxx#4 $)

>  <Rbt.Library>
libRbt.so (2013.1, Build901 2013/11/27)

>  <Rbt.Parameter_File>
/export/apps/rDock/src/rDock_2013.1_src/data/scripts/dock_solv.prm

>  <Rbt.Receptor>
prm/pocket_docking_6.prm

>  <SCORE>
-11.4208

>  <SCORE.INTER>
-7.25509

>  <SCORE.INTER.CONST>
1

>  <SCORE.INTER.POLAR>
0

>  <SCORE.INTER.ROT>
3

>  <SCORE.INTER.SOLV>
5.04491

>  <SCORE.INTER.VDW>
-12.1184

>  <SCORE.INTER.norm>
-0.604591

>  <SCORE.INTRA>
-4.1657

>  <SCORE.INTRA.DIHEDRAL>
-4.65439

>  <SCORE.INTRA.DIHEDRAL.0>
5.0186

>  <SCORE.INTRA.POLAR>
0

>  <SCORE.INTRA.POLAR.0>
0

>  <SCORE.INTRA.REPUL>
0

>  <SCORE.INTRA.REPUL.0>
0

>  <SCORE.INTRA.SOLV>
0.539762

>  <SCORE.INTRA.SOLV.lig_0>
-16.1608

>  <SCORE.INTRA.VDW>
-2.10839

>  <SCORE.INTRA.VDW.0>
1.14169

>  <SCORE.INTRA.norm>
-0.347142

>  <SCORE.RESTR>
0

>  <SCORE.RESTR.CAVITY>
0

>  <SCORE.RESTR.norm>
0

>  <SCORE.SYSTEM>
0

>  <SCORE.SYSTEM.CONST>
0

>  <SCORE.SYSTEM.DIHEDRAL>
0

>  <SCORE.SYSTEM.SOLV>
0

>  <SCORE.SYSTEM.norm>
0

>  <SCORE.heavy>
12

>  <SCORE.norm>
-0.951733

>  <RMSD>
5.458

$$$$
ligand
 OpenBabel11021811493D
libRbt.so/2013.1/901 2013/11/27
 12 12  0  0  0  0  0  0  0  0999 V2000
   31.5563  -22.5352    4.7406 N   0  0  0  0  0  0  0  0  0  0  0  0
   28.2327  -25.2760    3.1176 O   0  0  0  0  0  0  0  0  0  0  0  0
   30.7044  -22.1801    5.9021 C   0  0  0  0  0  0  0  0  0  0  0  0
   30.5601  -25.4593    2.7690 O   0  0  0  0  0  0  0  0  0  0  0  0
   31.4935  -22.4540    7.1783 C   0  0  0  0  0  0  0  0  0  0  0  0
   29.7071  -25.1912    5.0571 O   0  0  0  0  0  0  0  0  0  0  0  0
   32.6610  -21.5691    7.2327 N   0  0  0  0  0  0  0  0  0  0  0  0
   32.6828  -20.7697    6.0053 C   0  0  0  0  0  0  0  0  0  0  0  0
   32.7988  -21.7453    4.8466 C   0  0  0  0  0  0  0  0  0  0  0  0
   30.9164  -22.3656    3.3757 C   0  0  0  0  0  0  0  0  0  0  0  0
   29.5897  -23.1309    3.1302 C   0  0  0  0  0  0  0  0  0  0  0  0
   29.5219  -24.7806    3.5003 S   0  0  0  0  0  0  0  0  0  0  0  0
  1  3  1  0  0  0  0
  1  9  1  0  0  0  0
  1 10  1  0  0  0  0
  2 12  1  0  0  0  0
  3  5  1  0  0  0  0
  4 12  2  0  0  0  0
  5  7  1  0  0  0  0
  6 12  2  0  0  0  0
  7  8  1  0  0  0  0
  8  9  1  0  0  0  0
 10 11  1  0  0  0  0
 11 12  1  0  0  0  0
M  END
>  <CHROM.1>
-56.50064441,-49.96698729,-176.66696189,30.69999386,-23.34462555,4.58802086
-0.51560612,-0.89191887,-1.48947747

>  <Name>
ligand

>  <RI>
0

>  <Rbt.Current_Directory>
/home/itssahil/PROJECTS/Mol_Feturizer/New_Systems/rnas/4E8N

>  <Rbt.Executable>
rbdock ($Id: //depot/dev/client3/rdock/2013.1/src/exe/rbdock.cxx#4 $)

>  <Rbt.Library>
libRbt.so (2013.1, Build901 2013/11/27)

>  <Rbt.Parameter_File>
/export/apps/rDock/src/rDock_2013.1_src/data/scripts/dock_solv.prm

>  <Rbt.Receptor>
prm/pocket_docking_5.prm

>  <SCORE>
-10.7451

>  <SCORE.INTER>
-6.7474

>  <SCORE.INTER.CONST>
1

>  <SCORE.INTER.POLAR>
0

>  <SCORE.INTER.ROT>
3

>  <SCORE.INTER.SOLV>
5.22545

>  <SCORE.INTER.VDW>
-11.8401

>  <SCORE.INTER.norm>
-0.562284

>  <SCORE.INTRA>
-3.99766

>  <SCORE.INTRA.DIHEDRAL>
-4.60412

>  <SCORE.INTRA.DIHEDRAL.0>
5.0186

>  <SCORE.INTRA.POLAR>
0

>  <SCORE.INTRA.POLAR.0>
0

>  <SCORE.INTRA.REPUL>
0

>  <SCORE.INTRA.REPUL.0>
0

>  <SCORE.INTRA.SOLV>
0.950334

>  <SCORE.INTRA.SOLV.lig_0>
-16.1608

>  <SCORE.INTRA.VDW>
-2.17077

>  <SCORE.INTRA.VDW.0>
1.14169

>  <SCORE.INTRA.norm>
-0.333139

>  <SCORE.RESTR>
0

>  <SCORE.RESTR.CAVITY>
0

>  <SCORE.RESTR.norm>
0

>  <SCORE.SYSTEM>
0

>  <SCORE.SYSTEM.CONST>
0

>  <SCORE.SYSTEM.DIHEDRAL>
0

>  <SCORE.SYSTEM.SOLV>
0

>  <SCORE.SYSTEM.norm>
0

>  <SCORE.heavy>
12

>  <SCORE.norm>
-0.895422

>  <RMSD>
5.463

$$$$
ligand
 OpenBabel11021811493D
libRbt.so/2013.1/901 2013/11/27
 12 12  0  0  0  0  0  0  0  0999 V2000
   30.8303  -22.8140    5.3329 N   0  0  0  0  0  0  0  0  0  0  0  0
   28.7213  -22.7090    3.0944 O   0  0  0  0  0  0  0  0  0  0  0  0
   31.3721  -21.6611    4.5726 C   0  0  0  0  0  0  0  0  0  0  0  0
   29.9243  -24.1105    1.6246 O   0  0  0  0  0  0  0  0  0  0  0  0
   31.0640  -20.3854    5.3497 C   0  0  0  0  0  0  0  0  0  0  0  0
   27.6126  -24.6945    2.2162 O   0  0  0  0  0  0  0  0  0  0  0  0
   31.7739  -20.4086    6.6322 N   0  0  0  0  0  0  0  0  0  0  0  0
   32.4878  -21.6838    6.7333 C   0  0  0  0  0  0  0  0  0  0  0  0
   31.4387  -22.7811    6.6775 C   0  0  0  0  0  0  0  0  0  0  0  0
   31.0088  -24.1745    4.6861 C   0  0  0  0  0  0  0  0  0  0  0  0
   29.7425  -24.8203    4.0653 C   0  0  0  0  0  0  0  0  0  0  0  0
   29.0124  -24.0663    2.7380 S   0  0  0  0  0  0  0  0  0  0  0  0
  1  3  1  0  0  0  0
  1  9  1  0  0  0  0
  1 10  1  0  0  0  0
  2 12  1  0  0  0  0
  3  5  1  0  0  0  0
  4 12  2  0  0  0  0
  5  7  1  0  0  0  0
  6 12  2  0  0  0  0
  7  8  1  0  0  0  0
  8  9  1  0  0  0  0
 10 11  1  0  0  0  0
 11 12  1  0  0  0  0
M  END
>  <CHROM.1>
-105.97385965,65.00233485,-54.84722379,30.23270521,-23.00274580,4.24678511
-0.51118990,0.91860637,3.10296068

>  <Name>
ligand

>  <RI>
0

>  <Rbt.Current_Directory>
/home/itssahil/PROJECTS/Mol_Feturizer/New_Systems/rnas/4E8N

>  <Rbt.Executable>
rbdock ($Id: //depot/dev/client3/rdock/2013.1/src/exe/rbdock.cxx#4 $)

>  <Rbt.Library>
libRbt.so (2013.1, Build901 2013/11/27)

>  <Rbt.Parameter_File>
/export/apps/rDock/src/rDock_2013.1_src/data/scripts/dock_solv.prm

>  <Rbt.Receptor>
prm/pocket_docking_6.prm

>  <SCORE>
-10.5276

>  <SCORE.INTER>
-6.72191

>  <SCORE.INTER.CONST>
1

>  <SCORE.INTER.POLAR>
0

>  <SCORE.INTER.ROT>
3

>  <SCORE.INTER.SOLV>
5.0547

>  <SCORE.INTER.VDW>
-11.7662

>  <SCORE.INTER.norm>
-0.560159

>  <SCORE.INTRA>
-3.80571

>  <SCORE.INTRA.DIHEDRAL>
-2.70683

>  <SCORE.INTRA.DIHEDRAL.0>
5.0186

>  <SCORE.INTRA.POLAR>
0

>  <SCORE.INTRA.POLAR.0>
0

>  <SCORE.INTRA.REPUL>
0

>  <SCORE.INTRA.REPUL.0>
0

>  <SCORE.INTRA.SOLV>
0.0460019

>  <SCORE.INTRA.SOLV.lig_0>
-16.1608

>  <SCORE.INTRA.VDW>
-2.4753

>  <SCORE.INTRA.VDW.0>
1.14169

>  <SCORE.INTRA.norm>
-0.317143

>  <SCORE.RESTR>
0

>  <SCORE.RESTR.CAVITY>
0

>  <SCORE.RESTR.norm>
0

>  <SCORE.SYSTEM>
0

>  <SCORE.SYSTEM.CONST>
0

>  <SCORE.SYSTEM.DIHEDRAL>
0

>  <SCORE.SYSTEM.SOLV>
0

>  <SCORE.SYSTEM.norm>
0

>  <SCORE.heavy>
12

>  <SCORE.norm>
-0.877302

>  <RMSD>
5.465

$$$$
ligand
 OpenBabel11021811493D
libRbt.so/2013.1/901 2013/11/27
 12 12  0  0  0  0  0  0  0  0999 V2000
   30.7979  -22.8343    5.4251 N   0  0  0  0  0  0  0  0  0  0  0  0
   27.8920  -24.6631    2.3144 O   0  0  0  0  0  0  0  0  0  0  0  0
   31.3335  -21.7128    4.6150 C   0  0  0  0  0  0  0  0  0  0  0  0
   28.7554  -22.6267    3.1387 O   0  0  0  0  0  0  0  0  0  0  0  0
   31.0649  -20.4099    5.3610 C   0  0  0  0  0  0  0  0  0  0  0  0
   30.0339  -23.8778    1.4551 O   0  0  0  0  0  0  0  0  0  0  0  0
   31.8105  -20.4046    6.6232 N   0  0  0  0  0  0  0  0  0  0  0  0
   32.5096  -21.6864    6.7433 C   0  0  0  0  0  0  0  0  0  0  0  0
   31.4445  -22.7696    6.7505 C   0  0  0  0  0  0  0  0  0  0  0  0
   30.9394  -24.2161    4.8155 C   0  0  0  0  0  0  0  0  0  0  0  0
   29.6880  -24.7931    4.1035 C   0  0  0  0  0  0  0  0  0  0  0  0
   29.0713  -23.9780    2.7549 S   0  0  0  0  0  0  0  0  0  0  0  0
  1  3  1  0  0  0  0
  1  9  1  0  0  0  0
  1 10  1  0  0  0  0
  2 12  1  0  0  0  0
  3  5  1  0  0  0  0
  4 12  2  0  0  0  0
  5  7  1  0  0  0  0
  6 12  2  0  0  0  0
  7  8  1  0  0  0  0
  8  9  1  0  0  0  0
 10 11  1  0  0  0  0
 11 12  1  0  0  0  0
M  END
>  <CHROM.1>
-99.06185353,62.01573674,-177.42953137,30.26826267,-22.96634571,4.27562402
-0.34975023,0.98941652,2.92426053

>  <Name>
ligand

>  <RI>
0

>  <Rbt.Current_Directory>
/home/itssahil/PROJECTS/Mol_Feturizer/New_Systems/rnas/4E8N

>  <Rbt.Executable>
rbdock ($Id: //depot/dev/client3/rdock/2013.1/src/exe/rbdock.cxx#4 $)

>  <Rbt.Library>
libRbt.so (2013.1, Build901 2013/11/27)

>  <Rbt.Parameter_File>
/export/apps/rDock/src/rDock_2013.1_src/data/scripts/dock_solv.prm

>  <Rbt.Receptor>
prm/pocket_docking_4.prm

>  <SCORE>
-10.1428

>  <SCORE.INTER>
-6.50802

>  <SCORE.INTER.CONST>
1

>  <SCORE.INTER.POLAR>
0

>  <SCORE.INTER.ROT>
3

>  <SCORE.INTER.SOLV>
5.55627

>  <SCORE.INTER.VDW>
-11.7908

>  <SCORE.INTER.norm>
-0.542335

>  <SCORE.INTRA>
-3.63483

>  <SCORE.INTRA.DIHEDRAL>
-3.1585

>  <SCORE.INTRA.DIHEDRAL.0>
5.0186

>  <SCORE.INTRA.POLAR>
0

>  <SCORE.INTRA.POLAR.0>
0

>  <SCORE.INTRA.REPUL>
0

>  <SCORE.INTRA.REPUL.0>
0

>  <SCORE.INTRA.SOLV>
0.913869

>  <SCORE.INTRA.SOLV.lig_0>
-16.1608

>  <SCORE.INTRA.VDW>
-2.51252

>  <SCORE.INTRA.VDW.0>
1.14169

>  <SCORE.INTRA.norm>
-0.302902

>  <SCORE.RESTR>
0

>  <SCORE.RESTR.CAVITY>
0

>  <SCORE.RESTR.norm>
0

>  <SCORE.SYSTEM>
0

>  <SCORE.SYSTEM.CONST>
0

>  <SCORE.SYSTEM.DIHEDRAL>
0

>  <SCORE.SYSTEM.SOLV>
0

>  <SCORE.SYSTEM.norm>
0

>  <SCORE.heavy>
12

>  <SCORE.norm>
-0.845237

>  <RMSD>
5.478

$$$$
ligand
 OpenBabel11021811493D
libRbt.so/2013.1/901 2013/11/27
 12 12  0  0  0  0  0  0  0  0999 V2000
   31.3960  -21.3033    6.4455 N   0  0  0  0  0  0  0  0  0  0  0  0
   29.4680  -25.3455    5.6879 O   0  0  0  0  0  0  0  0  0  0  0  0
   32.7412  -20.8144    6.0552 C   0  0  0  0  0  0  0  0  0  0  0  0
   29.1678  -24.8166    3.4071 O   0  0  0  0  0  0  0  0  0  0  0  0
   32.8113  -19.3185    6.3439 C   0  0  0  0  0  0  0  0  0  0  0  0
   31.3363  -25.6911    4.1605 O   0  0  0  0  0  0  0  0  0  0  0  0
   32.6885  -19.0910    7.7869 N   0  0  0  0  0  0  0  0  0  0  0  0
   32.4858  -20.3887    8.4358 C   0  0  0  0  0  0  0  0  0  0  0  0
   31.2005  -20.9678    7.8696 C   0  0  0  0  0  0  0  0  0  0  0  0
   31.1277  -22.7742    6.1893 C   0  0  0  0  0  0  0  0  0  0  0  0
   30.3915  -23.1269    4.8704 C   0  0  0  0  0  0  0  0  0  0  0  0
   30.0678  -24.7524    4.5292 S   0  0  0  0  0  0  0  0  0  0  0  0
  1  3  1  0  0  0  0
  1  9  1  0  0  0  0
  1 10  1  0  0  0  0
  2 12  1  0  0  0  0
  3  5  1  0  0  0  0
  4 12  2  0  0  0  0
  5  7  1  0  0  0  0
  6 12  2  0  0  0  0
  7  8  1  0  0  0  0
  8  9  1  0  0  0  0
 10 11  1  0  0  0  0
 11 12  1  0  0  0  0
M  END
>  <CHROM.1>
-96.16827861,179.87184423,49.01018218,31.09158735,-22.68005795,5.79713416
0.84704698,0.95716561,1.15654855

>  <Name>
ligand

>  <RI>
0

>  <Rbt.Current_Directory>
/home/itssahil/PROJECTS/Mol_Feturizer/New_Systems/rnas/4E8N

>  <Rbt.Executable>
rbdock ($Id: //depot/dev/client3/rdock/2013.1/src/exe/rbdock.cxx#4 $)

>  <Rbt.Library>
libRbt.so (2013.1, Build901 2013/11/27)

>  <Rbt.Parameter_File>
/export/apps/rDock/src/rDock_2013.1_src/data/scripts/dock_solv.prm

>  <Rbt.Receptor>
prm/pocket_docking_7.prm

>  <SCORE>
-11.6952

>  <SCORE.INTER>
-8.29396

>  <SCORE.INTER.CONST>
1

>  <SCORE.INTER.POLAR>
0

>  <SCORE.INTER.ROT>
3

>  <SCORE.INTER.SOLV>
4.93735

>  <SCORE.INTER.VDW>
-12.7751

>  <SCORE.INTER.norm>
-0.691163

>  <SCORE.INTRA>
-3.40124

>  <SCORE.INTRA.DIHEDRAL>
-3.07784

>  <SCORE.INTRA.DIHEDRAL.0>
5.0186

>  <SCORE.INTRA.POLAR>
0

>  <SCORE.INTRA.POLAR.0>
0

>  <SCORE.INTRA.REPUL>
0

>  <SCORE.INTRA.REPUL.0>
0

>  <SCORE.INTRA.SOLV>
-0.133449

>  <SCORE.INTRA.SOLV.lig_0>
-16.1608

>  <SCORE.INTRA.VDW>
-1.7956

>  <SCORE.INTRA.VDW.0>
1.14169

>  <SCORE.INTRA.norm>
-0.283437

>  <SCORE.RESTR>
0

>  <SCORE.RESTR.CAVITY>
0

>  <SCORE.RESTR.norm>
0

>  <SCORE.SYSTEM>
0

>  <SCORE.SYSTEM.CONST>
0

>  <SCORE.SYSTEM.DIHEDRAL>
0

>  <SCORE.SYSTEM.SOLV>
0

>  <SCORE.SYSTEM.norm>
0

>  <SCORE.heavy>
12

>  <SCORE.norm>
-0.9746

>  <RMSD>
5.494

$$$$
ligand
 OpenBabel11021811493D
libRbt.so/2013.1/901 2013/11/27
 12 12  0  0  0  0  0  0  0  0999 V2000
   31.5340  -23.0125    4.9082 N   0  0  0  0  0  0  0  0  0  0  0  0
   27.7856  -24.4942    2.5505 O   0  0  0  0  0  0  0  0  0  0  0  0
   32.9381  -22.5478    4.7927 C   0  0  0  0  0  0  0  0  0  0  0  0
   29.0233  -22.5566    3.0850 O   0  0  0  0  0  0  0  0  0  0  0  0
   33.0033  -21.0958    5.2551 C   0  0  0  0  0  0  0  0  0  0  0  0
   29.8503  -24.0619    1.3287 O   0  0  0  0  0  0  0  0  0  0  0  0
   32.6548  -21.0176    6.6769 N   0  0  0  0  0  0  0  0  0  0  0  0
   32.3125  -22.3662    7.1357 C   0  0  0  0  0  0  0  0  0  0  0  0
   31.1199  -22.8216    6.3122 C   0  0  0  0  0  0  0  0  0  0  0  0
   31.2687  -24.4338    4.4492 C   0  0  0  0  0  0  0  0  0  0  0  0
   29.8070  -24.7769    4.0597 C   0  0  0  0  0  0  0  0  0  0  0  0
   29.0978  -23.9573    2.7601 S   0  0  0  0  0  0  0  0  0  0  0  0
  1  3  1  0  0  0  0
  1  9  1  0  0  0  0
  1 10  1  0  0  0  0
  2 12  1  0  0  0  0
  3  5  1  0  0  0  0
  4 12  2  0  0  0  0
  5  7  1  0  0  0  0
  6 12  2  0  0  0  0
  7  8  1  0  0  0  0
  8  9  1  0  0  0  0
 10 11  1  0  0  0  0
 11 12  1  0  0  0  0
M  END
>  <CHROM.1>
-158.06406212,62.37771869,176.89451316,30.63917053,-23.19502666,4.21938158
0.56490949,0.69981751,1.82093154

>  <Name>
ligand

>  <RI>
0

>  <Rbt.Current_Directory>
/home/itssahil/PROJECTS/Mol_Feturizer/New_Systems/rnas/4E8N

>  <Rbt.Executable>
rbdock ($Id: //depot/dev/client3/rdock/2013.1/src/exe/rbdock.cxx#4 $)

>  <Rbt.Library>
libRbt.so (2013.1, Build901 2013/11/27)

>  <Rbt.Parameter_File>
/export/apps/rDock/src/rDock_2013.1_src/data/scripts/dock_solv.prm

>  <Rbt.Receptor>
prm/pocket_docking_6.prm

>  <SCORE>
-11.0687

>  <SCORE.INTER>
-7.09281

>  <SCORE.INTER.CONST>
1

>  <SCORE.INTER.POLAR>
0

>  <SCORE.INTER.ROT>
3

>  <SCORE.INTER.SOLV>
5.36828

>  <SCORE.INTER.VDW>
-12.118

>  <SCORE.INTER.norm>
-0.591067

>  <SCORE.INTRA>
-3.97591

>  <SCORE.INTRA.DIHEDRAL>
-4.34766

>  <SCORE.INTRA.DIHEDRAL.0>
5.0186

>  <SCORE.INTRA.POLAR>
0

>  <SCORE.INTRA.POLAR.0>
0

>  <SCORE.INTRA.REPUL>
0

>  <SCORE.INTRA.REPUL.0>
0

>  <SCORE.INTRA.SOLV>
0.701187

>  <SCORE.INTRA.SOLV.lig_0>
-16.1608

>  <SCORE.INTRA.VDW>
-2.15267

>  <SCORE.INTRA.VDW.0>
1.14169

>  <SCORE.INTRA.norm>
-0.331325

>  <SCORE.RESTR>
0

>  <SCORE.RESTR.CAVITY>
0

>  <SCORE.RESTR.norm>
0

>  <SCORE.SYSTEM>
0

>  <SCORE.SYSTEM.CONST>
0

>  <SCORE.SYSTEM.DIHEDRAL>
0

>  <SCORE.SYSTEM.SOLV>
0

>  <SCORE.SYSTEM.norm>
0

>  <SCORE.heavy>
12

>  <SCORE.norm>
-0.922393

>  <RMSD>
5.508

$$$$
ligand
 OpenBabel11021811493D
libRbt.so/2013.1/901 2013/11/27
 12 12  0  0  0  0  0  0  0  0999 V2000
   30.7912  -22.7287    6.0291 N   0  0  0  0  0  0  0  0  0  0  0  0
   28.1078  -24.4524    2.5615 O   0  0  0  0  0  0  0  0  0  0  0  0
   30.8723  -21.3136    5.5911 C   0  0  0  0  0  0  0  0  0  0  0  0
   28.9358  -22.3676    3.2962 O   0  0  0  0  0  0  0  0  0  0  0  0
   30.4217  -20.4262    6.7468 C   0  0  0  0  0  0  0  0  0  0  0  0
   30.1749  -23.6129    1.5792 O   0  0  0  0  0  0  0  0  0  0  0  0
   31.3555  -20.5689    7.8679 N   0  0  0  0  0  0  0  0  0  0  0  0
   32.3654  -21.5623    7.4944 C   0  0  0  0  0  0  0  0  0  0  0  0
   31.6272  -22.8651    7.2380 C   0  0  0  0  0  0  0  0  0  0  0  0
   31.1654  -23.7653    4.9867 C   0  0  0  0  0  0  0  0  0  0  0  0
   29.9929  -24.4760    4.2613 C   0  0  0  0  0  0  0  0  0  0  0  0
   29.2815  -23.7158    2.9273 S   0  0  0  0  0  0  0  0  0  0  0  0
  1  3  1  0  0  0  0
  1  9  1  0  0  0  0
  1 10  1  0  0  0  0
  2 12  1  0  0  0  0
  3  5  1  0  0  0  0
  4 12  2  0  0  0  0
  5  7  1  0  0  0  0
  6 12  2  0  0  0  0
  7  8  1  0  0  0  0
  8  9  1  0  0  0  0
 10 11  1  0  0  0  0
 11 12  1  0  0  0  0
M  END
>  <CHROM.1>
-100.38896582,83.82195443,-171.23770673,30.27536220,-22.77967028,4.76982118
-0.87677731,0.89917493,-2.64285715

>  <Name>
ligand

>  <RI>
0

>  <Rbt.Current_Directory>
/home/itssahil/PROJECTS/Mol_Feturizer/New_Systems/rnas/4E8N

>  <Rbt.Executable>
rbdock ($Id: //depot/dev/client3/rdock/2013.1/src/exe/rbdock.cxx#4 $)

>  <Rbt.Library>
libRbt.so (2013.1, Build901 2013/11/27)

>  <Rbt.Parameter_File>
/export/apps/rDock/src/rDock_2013.1_src/data/scripts/dock_solv.prm

>  <Rbt.Receptor>
prm/pocket_docking_4.prm

>  <SCORE>
-9.61886

>  <SCORE.INTER>
-7.09442

>  <SCORE.INTER.CONST>
1

>  <SCORE.INTER.POLAR>
0

>  <SCORE.INTER.ROT>
3

>  <SCORE.INTER.SOLV>
7.30416

>  <SCORE.INTER.VDW>
-12.7643

>  <SCORE.INTER.norm>
-0.591201

>  <SCORE.INTRA>
-2.52444

>  <SCORE.INTRA.DIHEDRAL>
-1.04454

>  <SCORE.INTRA.DIHEDRAL.0>
5.0186

>  <SCORE.INTRA.POLAR>
0

>  <SCORE.INTRA.POLAR.0>
0

>  <SCORE.INTRA.REPUL>
0

>  <SCORE.INTRA.REPUL.0>
0

>  <SCORE.INTRA.SOLV>
0.648643

>  <SCORE.INTRA.SOLV.lig_0>
-16.1608

>  <SCORE.INTRA.VDW>
-2.32649

>  <SCORE.INTRA.VDW.0>
1.14169

>  <SCORE.INTRA.norm>
-0.21037

>  <SCORE.RESTR>
0

>  <SCORE.RESTR.CAVITY>
0

>  <SCORE.RESTR.norm>
0

>  <SCORE.SYSTEM>
0

>  <SCORE.SYSTEM.CONST>
0

>  <SCORE.SYSTEM.DIHEDRAL>
0

>  <SCORE.SYSTEM.SOLV>
0

>  <SCORE.SYSTEM.norm>
0

>  <SCORE.heavy>
12

>  <SCORE.norm>
-0.801572

>  <RMSD>
5.522

$$$$
ligand
 OpenBabel11021811493D
libRbt.so/2013.1/901 2013/11/27
 12 12  0  0  0  0  0  0  0  0999 V2000
   31.5537  -23.0700    4.8899 N   0  0  0  0  0  0  0  0  0  0  0  0
   27.7611  -24.4749    2.5516 O   0  0  0  0  0  0  0  0  0  0  0  0
   32.9759  -22.6557    4.8096 C   0  0  0  0  0  0  0  0  0  0  0  0
   29.0487  -22.5643    3.0647 O   0  0  0  0  0  0  0  0  0  0  0  0
   33.0792  -21.2020    5.2594 C   0  0  0  0  0  0  0  0  0  0  0  0
   29.8318  -24.1054    1.3193 O   0  0  0  0  0  0  0  0  0  0  0  0
   32.6942  -21.0963    6.6699 N   0  0  0  0  0  0  0  0  0  0  0  0
   32.2921  -22.4271    7.1321 C   0  0  0  0  0  0  0  0  0  0  0  0
   31.1076  -22.8496    6.2797 C   0  0  0  0  0  0  0  0  0  0  0  0
   31.2515  -24.4861    4.4377 C   0  0  0  0  0  0  0  0  0  0  0  0
   29.7799  -24.7948    4.0568 C   0  0  0  0  0  0  0  0  0  0  0  0
   29.0871  -23.9693    2.7522 S   0  0  0  0  0  0  0  0  0  0  0  0
  1  3  1  0  0  0  0
  1  9  1  0  0  0  0
  1 10  1  0  0  0  0
  2 12  1  0  0  0  0
  3  5  1  0  0  0  0
  4 12  2  0  0  0  0
  5  7  1  0  0  0  0
  6 12  2  0  0  0  0
  7  8  1  0  0  0  0
  8  9  1  0  0  0  0
 10 11  1  0  0  0  0
 11 12  1  0  0  0  0
M  END
>  <CHROM.1>
-160.09358692,62.72001042,176.83471231,30.64290556,-23.23685024,4.21169974
0.60384409,0.65310638,1.76325381

>  <Name>
ligand

>  <RI>
0

>  <Rbt.Current_Directory>
/home/itssahil/PROJECTS/Mol_Feturizer/New_Systems/rnas/4E8N

>  <Rbt.Executable>
rbdock ($Id: //depot/dev/client3/rdock/2013.1/src/exe/rbdock.cxx#4 $)

>  <Rbt.Library>
libRbt.so (2013.1, Build901 2013/11/27)

>  <Rbt.Parameter_File>
/export/apps/rDock/src/rDock_2013.1_src/data/scripts/dock_solv.prm

>  <Rbt.Receptor>
prm/pocket_docking_4.prm

>  <SCORE>
-11.1811

>  <SCORE.INTER>
-7.18548

>  <SCORE.INTER.CONST>
1

>  <SCORE.INTER.POLAR>
0

>  <SCORE.INTER.ROT>
3

>  <SCORE.INTER.SOLV>
5.55643

>  <SCORE.INTER.VDW>
-12.2425

>  <SCORE.INTER.norm>
-0.59879

>  <SCORE.INTRA>
-3.99559

>  <SCORE.INTRA.DIHEDRAL>
-4.44858

>  <SCORE.INTRA.DIHEDRAL.0>
5.0186

>  <SCORE.INTRA.POLAR>
0

>  <SCORE.INTRA.POLAR.0>
0

>  <SCORE.INTRA.REPUL>
0

>  <SCORE.INTRA.REPUL.0>
0

>  <SCORE.INTRA.SOLV>
0.698957

>  <SCORE.INTRA.SOLV.lig_0>
-16.1608

>  <SCORE.INTRA.VDW>
-2.12078

>  <SCORE.INTRA.VDW.0>
1.14169

>  <SCORE.INTRA.norm>
-0.332966

>  <SCORE.RESTR>
0

>  <SCORE.RESTR.CAVITY>
0

>  <SCORE.RESTR.norm>
0

>  <SCORE.SYSTEM>
0

>  <SCORE.SYSTEM.CONST>
0

>  <SCORE.SYSTEM.DIHEDRAL>
0

>  <SCORE.SYSTEM.SOLV>
0

>  <SCORE.SYSTEM.norm>
0

>  <SCORE.heavy>
12

>  <SCORE.norm>
-0.931756

>  <RMSD>
5.523

$$$$
ligand
 OpenBabel11021811493D
libRbt.so/2013.1/901 2013/11/27
 12 12  0  0  0  0  0  0  0  0999 V2000
   31.5960  -23.0113    4.9026 N   0  0  0  0  0  0  0  0  0  0  0  0
   27.8042  -24.6085    2.6062 O   0  0  0  0  0  0  0  0  0  0  0  0
   33.0148  -22.5795    4.8639 C   0  0  0  0  0  0  0  0  0  0  0  0
   28.9658  -22.6114    3.0899 O   0  0  0  0  0  0  0  0  0  0  0  0
   33.0892  -21.1305    5.3338 C   0  0  0  0  0  0  0  0  0  0  0  0
   29.8407  -24.1190    1.3589 O   0  0  0  0  0  0  0  0  0  0  0  0
   32.6670  -21.0469    6.7352 N   0  0  0  0  0  0  0  0  0  0  0  0
   32.2692  -22.3879    7.1706 C   0  0  0  0  0  0  0  0  0  0  0  0
   31.1120  -22.8135    6.2831 C   0  0  0  0  0  0  0  0  0  0  0  0
   31.3225  -24.4251    4.4255 C   0  0  0  0  0  0  0  0  0  0  0  0
   29.8462  -24.7768    4.1046 C   0  0  0  0  0  0  0  0  0  0  0  0
   29.0950  -24.0146    2.7939 S   0  0  0  0  0  0  0  0  0  0  0  0
  1  3  1  0  0  0  0
  1  9  1  0  0  0  0
  1 10  1  0  0  0  0
  2 12  1  0  0  0  0
  3  5  1  0  0  0  0
  4 12  2  0  0  0  0
  5  7  1  0  0  0  0
  6 12  2  0  0  0  0
  7  8  1  0  0  0  0
  8  9  1  0  0  0  0
 10 11  1  0  0  0  0
 11 12  1  0  0  0  0
M  END
>  <CHROM.1>
-164.53778342,66.59011751,173.46937202,30.65497100,-23.23064290,4.24933302
-0.64279441,-0.62580035,-1.45969466

>  <Name>
ligand

>  <RI>
0

>  <Rbt.Current_Directory>
/home/itssahil/PROJECTS/Mol_Feturizer/New_Systems/rnas/4E8N

>  <Rbt.Executable>
rbdock ($Id: //depot/dev/client3/rdock/2013.1/src/exe/rbdock.cxx#4 $)

>  <Rbt.Library>
libRbt.so (2013.1, Build901 2013/11/27)

>  <Rbt.Parameter_File>
/export/apps/rDock/src/rDock_2013.1_src/data/scripts/dock_solv.prm

>  <Rbt.Receptor>
prm/pocket_docking_6.prm

>  <SCORE>
-11.3007

>  <SCORE.INTER>
-7.38516

>  <SCORE.INTER.CONST>
1

>  <SCORE.INTER.POLAR>
0

>  <SCORE.INTER.ROT>
3

>  <SCORE.INTER.SOLV>
5.51364

>  <SCORE.INTER.VDW>
-12.3613

>  <SCORE.INTER.norm>
-0.61543

>  <SCORE.INTRA>
-3.91554

>  <SCORE.INTRA.DIHEDRAL>
-4.44734

>  <SCORE.INTRA.DIHEDRAL.0>
5.0186

>  <SCORE.INTRA.POLAR>
0

>  <SCORE.INTRA.POLAR.0>
0

>  <SCORE.INTRA.REPUL>
0

>  <SCORE.INTRA.REPUL.0>
0

>  <SCORE.INTRA.SOLV>
0.653193

>  <SCORE.INTRA.SOLV.lig_0>
-16.1608

>  <SCORE.INTRA.VDW>
-2.01846

>  <SCORE.INTRA.VDW.0>
1.14169

>  <SCORE.INTRA.norm>
-0.326295

>  <SCORE.RESTR>
0

>  <SCORE.RESTR.CAVITY>
0

>  <SCORE.RESTR.norm>
0

>  <SCORE.SYSTEM>
0

>  <SCORE.SYSTEM.CONST>
0

>  <SCORE.SYSTEM.DIHEDRAL>
0

>  <SCORE.SYSTEM.SOLV>
0

>  <SCORE.SYSTEM.norm>
0

>  <SCORE.heavy>
12

>  <SCORE.norm>
-0.941725

>  <RMSD>
5.527

$$$$
ligand
 OpenBabel11021811493D
libRbt.so/2013.1/901 2013/11/27
 12 12  0  0  0  0  0  0  0  0999 V2000
   31.6341  -20.5232    6.7782 N   0  0  0  0  0  0  0  0  0  0  0  0
   29.6958  -25.1005    5.4628 O   0  0  0  0  0  0  0  0  0  0  0  0
   32.3104  -20.9477    8.0285 C   0  0  0  0  0  0  0  0  0  0  0  0
   29.7042  -23.3942    3.8318 O   0  0  0  0  0  0  0  0  0  0  0  0
   32.3762  -19.7496    8.9700 C   0  0  0  0  0  0  0  0  0  0  0  0
   31.7341  -24.7341    4.1767 O   0  0  0  0  0  0  0  0  0  0  0  0
   31.0180  -19.3473    9.3476 N   0  0  0  0  0  0  0  0  0  0  0  0
   30.0736  -20.2126    8.6367 C   0  0  0  0  0  0  0  0  0  0  0  0
   30.3080  -19.9933    7.1518 C   0  0  0  0  0  0  0  0  0  0  0  0
   31.5145  -21.5828    5.6993 C   0  0  0  0  0  0  0  0  0  0  0  0
   30.7760  -22.8902    6.0882 C   0  0  0  0  0  0  0  0  0  0  0  0
   30.4547  -24.0325    4.8818 S   0  0  0  0  0  0  0  0  0  0  0  0
  1  3  1  0  0  0  0
  1  9  1  0  0  0  0
  1 10  1  0  0  0  0
  2 12  1  0  0  0  0
  3  5  1  0  0  0  0
  4 12  2  0  0  0  0
  5  7  1  0  0  0  0
  6 12  2  0  0  0  0
  7  8  1  0  0  0  0
  8  9  1  0  0  0  0
 10 11  1  0  0  0  0
 11 12  1  0  0  0  0
M  END
>  <CHROM.1>
57.65603938,173.05350815,-176.28264792,30.90041332,-22.15640452,6.36286452
-1.42036921,-0.04171618,-2.41265771

>  <Name>
ligand

>  <RI>
0

>  <Rbt.Current_Directory>
/home/itssahil/PROJECTS/Mol_Feturizer/New_Systems/rnas/4E8N

>  <Rbt.Executable>
rbdock ($Id: //depot/dev/client3/rdock/2013.1/src/exe/rbdock.cxx#4 $)

>  <Rbt.Library>
libRbt.so (2013.1, Build901 2013/11/27)

>  <Rbt.Parameter_File>
/export/apps/rDock/src/rDock_2013.1_src/data/scripts/dock_solv.prm

>  <Rbt.Receptor>
prm/pocket_docking_3.prm

>  <SCORE>
-12.0181

>  <SCORE.INTER>
-8.6131

>  <SCORE.INTER.CONST>
1

>  <SCORE.INTER.POLAR>
0

>  <SCORE.INTER.ROT>
3

>  <SCORE.INTER.SOLV>
5.48072

>  <SCORE.INTER.VDW>
-13.169

>  <SCORE.INTER.norm>
-0.717758

>  <SCORE.INTRA>
-3.40551

>  <SCORE.INTRA.DIHEDRAL>
-4.77232

>  <SCORE.INTRA.DIHEDRAL.0>
5.0186

>  <SCORE.INTRA.POLAR>
0

>  <SCORE.INTRA.POLAR.0>
0

>  <SCORE.INTRA.REPUL>
0

>  <SCORE.INTRA.REPUL.0>
0

>  <SCORE.INTRA.SOLV>
0.0875684

>  <SCORE.INTRA.SOLV.lig_0>
-16.1608

>  <SCORE.INTRA.VDW>
-1.06313

>  <SCORE.INTRA.VDW.0>
1.14169

>  <SCORE.INTRA.norm>
-0.283792

>  <SCORE.RESTR>
0.000503476

>  <SCORE.RESTR.CAVITY>
0.000503476

>  <SCORE.RESTR.norm>
4.19564e-05

>  <SCORE.SYSTEM>
0

>  <SCORE.SYSTEM.CONST>
0

>  <SCORE.SYSTEM.DIHEDRAL>
0

>  <SCORE.SYSTEM.SOLV>
0

>  <SCORE.SYSTEM.norm>
0

>  <SCORE.heavy>
12

>  <SCORE.norm>
-1.00151

>  <RMSD>
5.530

$$$$
ligand
 OpenBabel11021811493D
libRbt.so/2013.1/901 2013/11/27
 12 12  0  0  0  0  0  0  0  0999 V2000
   31.2111  -22.2314    6.3569 N   0  0  0  0  0  0  0  0  0  0  0  0
   31.0863  -25.9031    4.0618 O   0  0  0  0  0  0  0  0  0  0  0  0
   30.7464  -20.8315    6.1980 C   0  0  0  0  0  0  0  0  0  0  0  0
   29.6231  -24.8578    5.5908 O   0  0  0  0  0  0  0  0  0  0  0  0
   30.0538  -20.4056    7.4884 C   0  0  0  0  0  0  0  0  0  0  0  0
   28.9123  -25.1487    3.2574 O   0  0  0  0  0  0  0  0  0  0  0  0
   31.0243  -20.3996    8.5871 N   0  0  0  0  0  0  0  0  0  0  0  0
   32.3107  -20.8613    8.0597 C   0  0  0  0  0  0  0  0  0  0  0  0
   32.0924  -22.2722    7.5403 C   0  0  0  0  0  0  0  0  0  0  0  0
   31.8926  -22.8425    5.1473 C   0  0  0  0  0  0  0  0  0  0  0  0
   30.9665  -23.3680    4.0194 C   0  0  0  0  0  0  0  0  0  0  0  0
   30.1522  -24.8330    4.2520 S   0  0  0  0  0  0  0  0  0  0  0  0
  1  3  1  0  0  0  0
  1  9  1  0  0  0  0
  1 10  1  0  0  0  0
  2 12  1  0  0  0  0
  3  5  1  0  0  0  0
  4 12  2  0  0  0  0
  5  7  1  0  0  0  0
  6 12  2  0  0  0  0
  7  8  1  0  0  0  0
  8  9  1  0  0  0  0
 10 11  1  0  0  0  0
 11 12  1  0  0  0  0
M  END
>  <CHROM.1>
-79.95484165,-75.79827699,-76.73733542,30.74505474,-23.09397695,5.67833053
-1.34183849,0.28526170,-2.49315895

>  <Name>
ligand

>  <RI>
0

>  <Rbt.Current_Directory>
/home/itssahil/PROJECTS/Mol_Feturizer/New_Systems/rnas/4E8N

>  <Rbt.Executable>
rbdock ($Id: //depot/dev/client3/rdock/2013.1/src/exe/rbdock.cxx#4 $)

>  <Rbt.Library>
libRbt.so (2013.1, Build901 2013/11/27)

>  <Rbt.Parameter_File>
/export/apps/rDock/src/rDock_2013.1_src/data/scripts/dock_solv.prm

>  <Rbt.Receptor>
prm/pocket_docking_6.prm

>  <SCORE>
-11.4363

>  <SCORE.INTER>
-8.15818

>  <SCORE.INTER.CONST>
1

>  <SCORE.INTER.POLAR>
0

>  <SCORE.INTER.ROT>
3

>  <SCORE.INTER.SOLV>
8.35096

>  <SCORE.INTER.VDW>
-13.8224

>  <SCORE.INTER.norm>
-0.679849

>  <SCORE.INTRA>
-3.27814

>  <SCORE.INTRA.DIHEDRAL>
-2.81882

>  <SCORE.INTRA.DIHEDRAL.0>
5.0186

>  <SCORE.INTRA.POLAR>
0

>  <SCORE.INTRA.POLAR.0>
0

>  <SCORE.INTRA.REPUL>
0

>  <SCORE.INTRA.REPUL.0>
0

>  <SCORE.INTRA.SOLV>
0.445614

>  <SCORE.INTRA.SOLV.lig_0>
-16.1608

>  <SCORE.INTRA.VDW>
-2.09154

>  <SCORE.INTRA.VDW.0>
1.14169

>  <SCORE.INTRA.norm>
-0.273179

>  <SCORE.RESTR>
0

>  <SCORE.RESTR.CAVITY>
0

>  <SCORE.RESTR.norm>
0

>  <SCORE.SYSTEM>
0

>  <SCORE.SYSTEM.CONST>
0

>  <SCORE.SYSTEM.DIHEDRAL>
0

>  <SCORE.SYSTEM.SOLV>
0

>  <SCORE.SYSTEM.norm>
0

>  <SCORE.heavy>
12

>  <SCORE.norm>
-0.953027

>  <RMSD>
5.545

$$$$
ligand
 OpenBabel11021811493D
libRbt.so/2013.1/901 2013/11/27
 12 12  0  0  0  0  0  0  0  0999 V2000
   31.0756  -22.9884    5.1096 N   0  0  0  0  0  0  0  0  0  0  0  0
   30.0409  -22.8633    2.2769 O   0  0  0  0  0  0  0  0  0  0  0  0
   32.4959  -23.0210    4.6823 C   0  0  0  0  0  0  0  0  0  0  0  0
   29.5232  -24.9048    1.2110 O   0  0  0  0  0  0  0  0  0  0  0  0
   33.0536  -21.6035    4.7596 C   0  0  0  0  0  0  0  0  0  0  0  0
   27.8381  -23.8399    2.6468 O   0  0  0  0  0  0  0  0  0  0  0  0
   33.0487  -21.1496    6.1535 N   0  0  0  0  0  0  0  0  0  0  0  0
   32.4543  -22.2079    6.9738 C   0  0  0  0  0  0  0  0  0  0  0  0
   31.0364  -22.4125    6.4682 C   0  0  0  0  0  0  0  0  0  0  0  0
   30.3393  -24.3137    5.0570 C   0  0  0  0  0  0  0  0  0  0  0  0
   30.2113  -24.9827    3.6634 C   0  0  0  0  0  0  0  0  0  0  0  0
   29.4149  -24.1436    2.4285 S   0  0  0  0  0  0  0  0  0  0  0  0
  1  3  1  0  0  0  0
  1  9  1  0  0  0  0
  1 10  1  0  0  0  0
  2 12  1  0  0  0  0
  3  5  1  0  0  0  0
  4 12  2  0  0  0  0
  5  7  1  0  0  0  0
  6 12  2  0  0  0  0
  7  8  1  0  0  0  0
  8  9  1  0  0  0  0
 10 11  1  0  0  0  0
 11 12  1  0  0  0  0
M  END
>  <CHROM.1>
-61.48005957,-59.75948289,54.98790631,30.68653813,-23.31161910,4.04235282
0.75606756,0.61011901,1.58010549

>  <Name>
ligand

>  <RI>
0

>  <Rbt.Current_Directory>
/home/itssahil/PROJECTS/Mol_Feturizer/New_Systems/rnas/4E8N

>  <Rbt.Executable>
rbdock ($Id: //depot/dev/client3/rdock/2013.1/src/exe/rbdock.cxx#4 $)

>  <Rbt.Library>
libRbt.so (2013.1, Build901 2013/11/27)

>  <Rbt.Parameter_File>
/export/apps/rDock/src/rDock_2013.1_src/data/scripts/dock_solv.prm

>  <Rbt.Receptor>
prm/pocket_docking_5.prm

>  <SCORE>
-11.9257

>  <SCORE.INTER>
-7.33061

>  <SCORE.INTER.CONST>
1

>  <SCORE.INTER.POLAR>
0

>  <SCORE.INTER.ROT>
3

>  <SCORE.INTER.SOLV>
5.42051

>  <SCORE.INTER.VDW>
-12.2939

>  <SCORE.INTER.norm>
-0.610885

>  <SCORE.INTRA>
-4.59507

>  <SCORE.INTRA.DIHEDRAL>
-4.94539

>  <SCORE.INTRA.DIHEDRAL.0>
5.0186

>  <SCORE.INTRA.POLAR>
0

>  <SCORE.INTRA.POLAR.0>
0

>  <SCORE.INTRA.REPUL>
0

>  <SCORE.INTRA.REPUL.0>
0

>  <SCORE.INTRA.SOLV>
-0.00895893

>  <SCORE.INTRA.SOLV.lig_0>
-16.1608

>  <SCORE.INTRA.VDW>
-2.1179

>  <SCORE.INTRA.VDW.0>
1.14169

>  <SCORE.INTRA.norm>
-0.382923

>  <SCORE.RESTR>
0

>  <SCORE.RESTR.CAVITY>
0

>  <SCORE.RESTR.norm>
0

>  <SCORE.SYSTEM>
0

>  <SCORE.SYSTEM.CONST>
0

>  <SCORE.SYSTEM.DIHEDRAL>
0

>  <SCORE.SYSTEM.SOLV>
0

>  <SCORE.SYSTEM.norm>
0

>  <SCORE.heavy>
12

>  <SCORE.norm>
-0.993807

>  <RMSD>
5.547

$$$$
ligand
 OpenBabel11021811493D
libRbt.so/2013.1/901 2013/11/27
 12 12  0  0  0  0  0  0  0  0999 V2000
   31.0816  -22.9906    5.0996 N   0  0  0  0  0  0  0  0  0  0  0  0
   30.0338  -22.8691    2.2676 O   0  0  0  0  0  0  0  0  0  0  0  0
   32.5028  -23.0284    4.6757 C   0  0  0  0  0  0  0  0  0  0  0  0
   29.5132  -24.9132    1.2082 O   0  0  0  0  0  0  0  0  0  0  0  0
   33.0640  -21.6121    4.7489 C   0  0  0  0  0  0  0  0  0  0  0  0
   27.8331  -23.8463    2.6481 O   0  0  0  0  0  0  0  0  0  0  0  0
   33.0572  -21.1531    6.1411 N   0  0  0  0  0  0  0  0  0  0  0  0
   32.4581  -22.2067    6.9640 C   0  0  0  0  0  0  0  0  0  0  0  0
   31.0409  -22.4096    6.4559 C   0  0  0  0  0  0  0  0  0  0  0  0
   30.3421  -24.3142    5.0502 C   0  0  0  0  0  0  0  0  0  0  0  0
   30.2108  -24.9854    3.6581 C   0  0  0  0  0  0  0  0  0  0  0  0
   29.4092  -24.1495    2.4244 S   0  0  0  0  0  0  0  0  0  0  0  0
  1  3  1  0  0  0  0
  1  9  1  0  0  0  0
  1 10  1  0  0  0  0
  2 12  1  0  0  0  0
  3  5  1  0  0  0  0
  4 12  2  0  0  0  0
  5  7  1  0  0  0  0
  6 12  2  0  0  0  0
  7  8  1  0  0  0  0
  8  9  1  0  0  0  0
 10 11  1  0  0  0  0
 11 12  1  0  0  0  0
M  END
>  <CHROM.1>
-61.69943961,-60.02543772,55.07484545,30.68683182,-23.31583855,4.03539367
0.75562270,0.60562896,1.57599288

>  <Name>
ligand

>  <RI>
0

>  <Rbt.Current_Directory>
/home/itssahil/PROJECTS/Mol_Feturizer/New_Systems/rnas/4E8N

>  <Rbt.Executable>
rbdock ($Id: //depot/dev/client3/rdock/2013.1/src/exe/rbdock.cxx#4 $)

>  <Rbt.Library>
libRbt.so (2013.1, Build901 2013/11/27)

>  <Rbt.Parameter_File>
/export/apps/rDock/src/rDock_2013.1_src/data/scripts/dock_solv.prm

>  <Rbt.Receptor>
prm/pocket_docking_4.prm

>  <SCORE>
-11.9455

>  <SCORE.INTER>
-7.34895

>  <SCORE.INTER.CONST>
1

>  <SCORE.INTER.POLAR>
0

>  <SCORE.INTER.ROT>
3

>  <SCORE.INTER.SOLV>
5.40257

>  <SCORE.INTER.VDW>
-12.3002

>  <SCORE.INTER.norm>
-0.612412

>  <SCORE.INTRA>
-4.59656

>  <SCORE.INTRA.DIHEDRAL>
-4.94544

>  <SCORE.INTRA.DIHEDRAL.0>
5.0186

>  <SCORE.INTRA.POLAR>
0

>  <SCORE.INTRA.POLAR.0>
0

>  <SCORE.INTRA.REPUL>
0

>  <SCORE.INTRA.REPUL.0>
0

>  <SCORE.INTRA.SOLV>
-0.00831631

>  <SCORE.INTRA.SOLV.lig_0>
-16.1608

>  <SCORE.INTRA.VDW>
-2.11968

>  <SCORE.INTRA.VDW.0>
1.14169

>  <SCORE.INTRA.norm>
-0.383047

>  <SCORE.RESTR>
0

>  <SCORE.RESTR.CAVITY>
0

>  <SCORE.RESTR.norm>
0

>  <SCORE.SYSTEM>
0

>  <SCORE.SYSTEM.CONST>
0

>  <SCORE.SYSTEM.DIHEDRAL>
0

>  <SCORE.SYSTEM.SOLV>
0

>  <SCORE.SYSTEM.norm>
0

>  <SCORE.heavy>
12

>  <SCORE.norm>
-0.995459

>  <RMSD>
5.550

$$$$
ligand
 OpenBabel11021811493D
libRbt.so/2013.1/901 2013/11/27
 12 12  0  0  0  0  0  0  0  0999 V2000
   31.2694  -22.6866    4.3907 N   0  0  0  0  0  0  0  0  0  0  0  0
   29.3542  -25.0532    4.1139 O   0  0  0  0  0  0  0  0  0  0  0  0
   30.7001  -22.1715    5.6601 C   0  0  0  0  0  0  0  0  0  0  0  0
   27.5412  -24.8070    2.6225 O   0  0  0  0  0  0  0  0  0  0  0  0
   31.5166  -22.7371    6.8175 C   0  0  0  0  0  0  0  0  0  0  0  0
   29.7701  -25.3217    1.7270 O   0  0  0  0  0  0  0  0  0  0  0  0
   32.8904  -22.2311    6.7421 N   0  0  0  0  0  0  0  0  0  0  0  0
   33.0031  -21.3996    5.5412 C   0  0  0  0  0  0  0  0  0  0  0  0
   32.6925  -22.2960    4.3546 C   0  0  0  0  0  0  0  0  0  0  0  0
   30.5535  -22.2583    3.1237 C   0  0  0  0  0  0  0  0  0  0  0  0
   29.1308  -22.8347    2.9007 C   0  0  0  0  0  0  0  0  0  0  0  0
   28.9318  -24.5145    2.8548 S   0  0  0  0  0  0  0  0  0  0  0  0
  1  3  1  0  0  0  0
  1  9  1  0  0  0  0
  1 10  1  0  0  0  0
  2 12  1  0  0  0  0
  3  5  1  0  0  0  0
  4 12  2  0  0  0  0
  5  7  1  0  0  0  0
  6 12  2  0  0  0  0
  7  8  1  0  0  0  0
  8  9  1  0  0  0  0
 10 11  1  0  0  0  0
 11 12  1  0  0  0  0
M  END
>  <CHROM.1>
-68.49426168,-57.82615506,60.63561549,30.40173090,-23.37427599,4.06381987
-0.57974113,-0.67323709,-1.49010096

>  <Name>
ligand

>  <RI>
0

>  <Rbt.Current_Directory>
/home/itssahil/PROJECTS/Mol_Feturizer/New_Systems/rnas/4E8N

>  <Rbt.Executable>
rbdock ($Id: //depot/dev/client3/rdock/2013.1/src/exe/rbdock.cxx#4 $)

>  <Rbt.Library>
libRbt.so (2013.1, Build901 2013/11/27)

>  <Rbt.Parameter_File>
/export/apps/rDock/src/rDock_2013.1_src/data/scripts/dock_solv.prm

>  <Rbt.Receptor>
prm/pocket_docking_8.prm

>  <SCORE>
-11.3019

>  <SCORE.INTER>
-6.61963

>  <SCORE.INTER.CONST>
1

>  <SCORE.INTER.POLAR>
0

>  <SCORE.INTER.ROT>
3

>  <SCORE.INTER.SOLV>
5.3379

>  <SCORE.INTER.VDW>
-11.7924

>  <SCORE.INTER.norm>
-0.551636

>  <SCORE.INTRA>
-4.68226

>  <SCORE.INTRA.DIHEDRAL>
-4.8372

>  <SCORE.INTRA.DIHEDRAL.0>
5.0186

>  <SCORE.INTRA.POLAR>
0

>  <SCORE.INTRA.POLAR.0>
0

>  <SCORE.INTRA.REPUL>
0

>  <SCORE.INTRA.REPUL.0>
0

>  <SCORE.INTRA.SOLV>
0.0460286

>  <SCORE.INTRA.SOLV.lig_0>
-16.1608

>  <SCORE.INTRA.VDW>
-2.28668

>  <SCORE.INTRA.VDW.0>
1.14169

>  <SCORE.INTRA.norm>
-0.390189

>  <SCORE.RESTR>
0

>  <SCORE.RESTR.CAVITY>
0

>  <SCORE.RESTR.norm>
0

>  <SCORE.SYSTEM>
0

>  <SCORE.SYSTEM.CONST>
0

>  <SCORE.SYSTEM.DIHEDRAL>
0

>  <SCORE.SYSTEM.SOLV>
0

>  <SCORE.SYSTEM.norm>
0

>  <SCORE.heavy>
12

>  <SCORE.norm>
-0.941825

>  <RMSD>
5.554

$$$$
ligand
 OpenBabel11021811493D
libRbt.so/2013.1/901 2013/11/27
 12 12  0  0  0  0  0  0  0  0999 V2000
   31.0759  -22.9621    5.0665 N   0  0  0  0  0  0  0  0  0  0  0  0
   30.0243  -22.8662    2.2524 O   0  0  0  0  0  0  0  0  0  0  0  0
   32.5250  -23.0212    4.7541 C   0  0  0  0  0  0  0  0  0  0  0  0
   29.5358  -24.9186    1.1938 O   0  0  0  0  0  0  0  0  0  0  0  0
   33.0828  -21.6022    4.7904 C   0  0  0  0  0  0  0  0  0  0  0  0
   27.8288  -23.8633    2.6106 O   0  0  0  0  0  0  0  0  0  0  0  0
   32.9719  -21.0661    6.1504 N   0  0  0  0  0  0  0  0  0  0  0  0
   32.3096  -22.0731    6.9831 C   0  0  0  0  0  0  0  0  0  0  0  0
   30.9343  -22.3062    6.3813 C   0  0  0  0  0  0  0  0  0  0  0  0
   30.3387  -24.2875    5.0353 C   0  0  0  0  0  0  0  0  0  0  0  0
   30.2055  -24.9762    3.6518 C   0  0  0  0  0  0  0  0  0  0  0  0
   29.4103  -24.1520    2.4061 S   0  0  0  0  0  0  0  0  0  0  0  0
  1  3  1  0  0  0  0
  1  9  1  0  0  0  0
  1 10  1  0  0  0  0
  2 12  1  0  0  0  0
  3  5  1  0  0  0  0
  4 12  2  0  0  0  0
  5  7  1  0  0  0  0
  6 12  2  0  0  0  0
  7  8  1  0  0  0  0
  8  9  1  0  0  0  0
 10 11  1  0  0  0  0
 11 12  1  0  0  0  0
M  END
>  <CHROM.1>
-66.82253593,-59.54504203,53.87829072,30.66486704,-23.28827529,4.02817693
0.79495501,0.58050192,1.51252750

>  <Name>
ligand

>  <RI>
0

>  <Rbt.Current_Directory>
/home/itssahil/PROJECTS/Mol_Feturizer/New_Systems/rnas/4E8N

>  <Rbt.Executable>
rbdock ($Id: //depot/dev/client3/rdock/2013.1/src/exe/rbdock.cxx#4 $)

>  <Rbt.Library>
libRbt.so (2013.1, Build901 2013/11/27)

>  <Rbt.Parameter_File>
/export/apps/rDock/src/rDock_2013.1_src/data/scripts/dock_solv.prm

>  <Rbt.Receptor>
prm/pocket_docking_4.prm

>  <SCORE>
-11.8371

>  <SCORE.INTER>
-7.19846

>  <SCORE.INTER.CONST>
1

>  <SCORE.INTER.POLAR>
0

>  <SCORE.INTER.ROT>
3

>  <SCORE.INTER.SOLV>
5.10568

>  <SCORE.INTER.VDW>
-12.1009

>  <SCORE.INTER.norm>
-0.599872

>  <SCORE.INTRA>
-4.63864

>  <SCORE.INTRA.DIHEDRAL>
-4.82

>  <SCORE.INTRA.DIHEDRAL.0>
5.0186

>  <SCORE.INTRA.POLAR>
0

>  <SCORE.INTRA.POLAR.0>
0

>  <SCORE.INTRA.REPUL>
0

>  <SCORE.INTRA.REPUL.0>
0

>  <SCORE.INTRA.SOLV>
-0.00577735

>  <SCORE.INTRA.SOLV.lig_0>
-16.1608

>  <SCORE.INTRA.VDW>
-2.22575

>  <SCORE.INTRA.VDW.0>
1.14169

>  <SCORE.INTRA.norm>
-0.386553

>  <SCORE.RESTR>
0

>  <SCORE.RESTR.CAVITY>
0

>  <SCORE.RESTR.norm>
0

>  <SCORE.SYSTEM>
0

>  <SCORE.SYSTEM.CONST>
0

>  <SCORE.SYSTEM.DIHEDRAL>
0

>  <SCORE.SYSTEM.SOLV>
0

>  <SCORE.SYSTEM.norm>
0

>  <SCORE.heavy>
12

>  <SCORE.norm>
-0.986425

>  <RMSD>
5.557

$$$$
ligand
 OpenBabel11021811493D
libRbt.so/2013.1/901 2013/11/27
 12 12  0  0  0  0  0  0  0  0999 V2000
   30.5874  -21.9867    5.4769 N   0  0  0  0  0  0  0  0  0  0  0  0
   28.4751  -25.3140    3.1238 O   0  0  0  0  0  0  0  0  0  0  0  0
   30.9773  -20.6359    5.9504 C   0  0  0  0  0  0  0  0  0  0  0  0
   30.8270  -25.4900    3.2205 O   0  0  0  0  0  0  0  0  0  0  0  0
   30.6031  -20.5167    7.4241 C   0  0  0  0  0  0  0  0  0  0  0  0
   29.5654  -25.1183    5.2953 O   0  0  0  0  0  0  0  0  0  0  0  0
   31.3875  -21.4750    8.2086 N   0  0  0  0  0  0  0  0  0  0  0  0
   32.2177  -22.2488    7.2822 C   0  0  0  0  0  0  0  0  0  0  0  0
   31.2696  -22.9709    6.3400 C   0  0  0  0  0  0  0  0  0  0  0  0
   30.8481  -22.2734    4.0103 C   0  0  0  0  0  0  0  0  0  0  0  0
   29.8039  -23.1568    3.2786 C   0  0  0  0  0  0  0  0  0  0  0  0
   29.6708  -24.7869    3.7125 S   0  0  0  0  0  0  0  0  0  0  0  0
  1  3  1  0  0  0  0
  1  9  1  0  0  0  0
  1 10  1  0  0  0  0
  2 12  1  0  0  0  0
  3  5  1  0  0  0  0
  4 12  2  0  0  0  0
  5  7  1  0  0  0  0
  6 12  2  0  0  0  0
  7  8  1  0  0  0  0
  8  9  1  0  0  0  0
 10 11  1  0  0  0  0
 11 12  1  0  0  0  0
M  END
>  <CHROM.1>
-143.97864675,-67.92066308,167.80461959,30.41208416,-23.23699745,5.08684366
0.50018449,-1.21162354,-0.26402120

>  <Name>
ligand

>  <RI>
0

>  <Rbt.Current_Directory>
/home/itssahil/PROJECTS/Mol_Feturizer/New_Systems/rnas/4E8N

>  <Rbt.Executable>
rbdock ($Id: //depot/dev/client3/rdock/2013.1/src/exe/rbdock.cxx#4 $)

>  <Rbt.Library>
libRbt.so (2013.1, Build901 2013/11/27)

>  <Rbt.Parameter_File>
/export/apps/rDock/src/rDock_2013.1_src/data/scripts/dock_solv.prm

>  <Rbt.Receptor>
prm/pocket_docking_6.prm

>  <SCORE>
-11.2079

>  <SCORE.INTER>
-7.9021

>  <SCORE.INTER.CONST>
1

>  <SCORE.INTER.POLAR>
0

>  <SCORE.INTER.ROT>
3

>  <SCORE.INTER.SOLV>
8.38799

>  <SCORE.INTER.VDW>
-13.6641

>  <SCORE.INTER.norm>
-0.658508

>  <SCORE.INTRA>
-3.30582

>  <SCORE.INTRA.DIHEDRAL>
-2.95912

>  <SCORE.INTRA.DIHEDRAL.0>
5.0186

>  <SCORE.INTRA.POLAR>
0

>  <SCORE.INTRA.POLAR.0>
0

>  <SCORE.INTRA.REPUL>
0

>  <SCORE.INTRA.REPUL.0>
0

>  <SCORE.INTRA.SOLV>
0.825198

>  <SCORE.INTRA.SOLV.lig_0>
-16.1608

>  <SCORE.INTRA.VDW>
-2.23886

>  <SCORE.INTRA.VDW.0>
1.14169

>  <SCORE.INTRA.norm>
-0.275485

>  <SCORE.RESTR>
0

>  <SCORE.RESTR.CAVITY>
0

>  <SCORE.RESTR.norm>
0

>  <SCORE.SYSTEM>
0

>  <SCORE.SYSTEM.CONST>
0

>  <SCORE.SYSTEM.DIHEDRAL>
0

>  <SCORE.SYSTEM.SOLV>
0

>  <SCORE.SYSTEM.norm>
0

>  <SCORE.heavy>
12

>  <SCORE.norm>
-0.933993

>  <RMSD>
5.558

$$$$
ligand
 OpenBabel11021811493D
libRbt.so/2013.1/901 2013/11/27
 12 12  0  0  0  0  0  0  0  0999 V2000
   31.0799  -22.9943    5.0962 N   0  0  0  0  0  0  0  0  0  0  0  0
   30.0278  -22.8751    2.2608 O   0  0  0  0  0  0  0  0  0  0  0  0
   32.5018  -23.0378    4.6753 C   0  0  0  0  0  0  0  0  0  0  0  0
   29.5354  -24.9240    1.1971 O   0  0  0  0  0  0  0  0  0  0  0  0
   33.0690  -21.6241    4.7515 C   0  0  0  0  0  0  0  0  0  0  0  0
   27.8338  -23.8737    2.6240 O   0  0  0  0  0  0  0  0  0  0  0  0
   33.0612  -21.1667    6.1443 N   0  0  0  0  0  0  0  0  0  0  0  0
   32.4558  -22.2188    6.9646 C   0  0  0  0  0  0  0  0  0  0  0  0
   31.0388  -22.4148    6.4532 C   0  0  0  0  0  0  0  0  0  0  0  0
   30.3347  -24.3146    5.0436 C   0  0  0  0  0  0  0  0  0  0  0  0
   30.2147  -24.9898    3.6523 C   0  0  0  0  0  0  0  0  0  0  0  0
   29.4145  -24.1616    2.4125 S   0  0  0  0  0  0  0  0  0  0  0  0
  1  3  1  0  0  0  0
  1  9  1  0  0  0  0
  1 10  1  0  0  0  0
  2 12  1  0  0  0  0
  3  5  1  0  0  0  0
  4 12  2  0  0  0  0
  5  7  1  0  0  0  0
  6 12  2  0  0  0  0
  7  8  1  0  0  0  0
  8  9  1  0  0  0  0
 10 11  1  0  0  0  0
 11 12  1  0  0  0  0
M  END
>  <CHROM.1>
-61.16291228,-60.70202223,54.77394058,30.68900665,-23.32595937,4.02901281
0.76178708,0.60129297,1.56902395

>  <Name>
ligand

>  <RI>
0

>  <Rbt.Current_Directory>
/home/itssahil/PROJECTS/Mol_Feturizer/New_Systems/rnas/4E8N

>  <Rbt.Executable>
rbdock ($Id: //depot/dev/client3/rdock/2013.1/src/exe/rbdock.cxx#4 $)

>  <Rbt.Library>
libRbt.so (2013.1, Build901 2013/11/27)

>  <Rbt.Parameter_File>
/export/apps/rDock/src/rDock_2013.1_src/data/scripts/dock_solv.prm

>  <Rbt.Receptor>
prm/pocket_docking_5.prm

>  <SCORE>
-11.9574

>  <SCORE.INTER>
-7.37606

>  <SCORE.INTER.CONST>
1

>  <SCORE.INTER.POLAR>
0

>  <SCORE.INTER.ROT>
3

>  <SCORE.INTER.SOLV>
5.4071

>  <SCORE.INTER.VDW>
-12.3197

>  <SCORE.INTER.norm>
-0.614672

>  <SCORE.INTRA>
-4.5813

>  <SCORE.INTRA.DIHEDRAL>
-4.94152

>  <SCORE.INTRA.DIHEDRAL.0>
5.0186

>  <SCORE.INTRA.POLAR>
0

>  <SCORE.INTRA.POLAR.0>
0

>  <SCORE.INTRA.REPUL>
0

>  <SCORE.INTRA.REPUL.0>
0

>  <SCORE.INTRA.SOLV>
-0.0121348

>  <SCORE.INTRA.SOLV.lig_0>
-16.1608

>  <SCORE.INTRA.VDW>
-2.10447

>  <SCORE.INTRA.VDW.0>
1.14169

>  <SCORE.INTRA.norm>
-0.381775

>  <SCORE.RESTR>
0

>  <SCORE.RESTR.CAVITY>
0

>  <SCORE.RESTR.norm>
0

>  <SCORE.SYSTEM>
0

>  <SCORE.SYSTEM.CONST>
0

>  <SCORE.SYSTEM.DIHEDRAL>
0

>  <SCORE.SYSTEM.SOLV>
0

>  <SCORE.SYSTEM.norm>
0

>  <SCORE.heavy>
12

>  <SCORE.norm>
-0.996447

>  <RMSD>
5.560

$$$$
ligand
 OpenBabel11021811493D
libRbt.so/2013.1/901 2013/11/27
 12 12  0  0  0  0  0  0  0  0999 V2000
   31.0818  -22.9639    5.1231 N   0  0  0  0  0  0  0  0  0  0  0  0
   29.7147  -24.7744    1.1797 O   0  0  0  0  0  0  0  0  0  0  0  0
   32.5067  -23.0120    4.7130 C   0  0  0  0  0  0  0  0  0  0  0  0
   28.0694  -23.9801    2.6744 O   0  0  0  0  0  0  0  0  0  0  0  0
   33.0795  -21.6011    4.7991 C   0  0  0  0  0  0  0  0  0  0  0  0
   30.0092  -22.5627    2.1617 O   0  0  0  0  0  0  0  0  0  0  0  0
   33.0630  -21.1492    6.1935 N   0  0  0  0  0  0  0  0  0  0  0  0
   32.4467  -22.2017    7.0050 C   0  0  0  0  0  0  0  0  0  0  0  0
   31.0329  -22.3895    6.4821 C   0  0  0  0  0  0  0  0  0  0  0  0
   30.3312  -24.2807    5.0597 C   0  0  0  0  0  0  0  0  0  0  0  0
   30.2106  -24.9452    3.6633 C   0  0  0  0  0  0  0  0  0  0  0  0
   29.4814  -24.0749    2.4086 S   0  0  0  0  0  0  0  0  0  0  0  0
  1  3  1  0  0  0  0
  1  9  1  0  0  0  0
  1 10  1  0  0  0  0
  2 12  1  0  0  0  0
  3  5  1  0  0  0  0
  4 12  2  0  0  0  0
  5  7  1  0  0  0  0
  6 12  2  0  0  0  0
  7  8  1  0  0  0  0
  8  9  1  0  0  0  0
 10 11  1  0  0  0  0
 11 12  1  0  0  0  0
M  END
>  <CHROM.1>
-61.56630372,-57.81931729,169.02360407,30.73290042,-23.26602619,4.04165724
0.72938467,0.67996408,1.66532498

>  <Name>
ligand

>  <RI>
0

>  <Rbt.Current_Directory>
/home/itssahil/PROJECTS/Mol_Feturizer/New_Systems/rnas/4E8N

>  <Rbt.Executable>
rbdock ($Id: //depot/dev/client3/rdock/2013.1/src/exe/rbdock.cxx#4 $)

>  <Rbt.Library>
libRbt.so (2013.1, Build901 2013/11/27)

>  <Rbt.Parameter_File>
/export/apps/rDock/src/rDock_2013.1_src/data/scripts/dock_solv.prm

>  <Rbt.Receptor>
prm/pocket_docking_7.prm

>  <SCORE>
-11.7348

>  <SCORE.INTER>
-7.5617

>  <SCORE.INTER.CONST>
1

>  <SCORE.INTER.POLAR>
0

>  <SCORE.INTER.ROT>
3

>  <SCORE.INTER.SOLV>
5.22817

>  <SCORE.INTER.VDW>
-12.3839

>  <SCORE.INTER.norm>
-0.630142

>  <SCORE.INTRA>
-4.17311

>  <SCORE.INTRA.DIHEDRAL>
-4.70617

>  <SCORE.INTRA.DIHEDRAL.0>
5.0186

>  <SCORE.INTRA.POLAR>
0

>  <SCORE.INTRA.POLAR.0>
0

>  <SCORE.INTRA.REPUL>
0

>  <SCORE.INTRA.REPUL.0>
0

>  <SCORE.INTRA.SOLV>
0.801101

>  <SCORE.INTRA.SOLV.lig_0>
-16.1608

>  <SCORE.INTRA.VDW>
-2.22058

>  <SCORE.INTRA.VDW.0>
1.14169

>  <SCORE.INTRA.norm>
-0.347759

>  <SCORE.RESTR>
0

>  <SCORE.RESTR.CAVITY>
0

>  <SCORE.RESTR.norm>
0

>  <SCORE.SYSTEM>
0

>  <SCORE.SYSTEM.CONST>
0

>  <SCORE.SYSTEM.DIHEDRAL>
0

>  <SCORE.SYSTEM.SOLV>
0

>  <SCORE.SYSTEM.norm>
0

>  <SCORE.heavy>
12

>  <SCORE.norm>
-0.977901

>  <RMSD>
5.560

$$$$
ligand
 OpenBabel11021811493D
libRbt.so/2013.1/901 2013/11/27
 12 12  0  0  0  0  0  0  0  0999 V2000
   31.0886  -22.9846    5.0966 N   0  0  0  0  0  0  0  0  0  0  0  0
   29.9903  -22.8772    2.2435 O   0  0  0  0  0  0  0  0  0  0  0  0
   32.5064  -23.0628    4.6671 C   0  0  0  0  0  0  0  0  0  0  0  0
   29.5033  -24.9417    1.2080 O   0  0  0  0  0  0  0  0  0  0  0  0
   33.1095  -21.6640    4.7431 C   0  0  0  0  0  0  0  0  0  0  0  0
   27.8039  -23.8831    2.6313 O   0  0  0  0  0  0  0  0  0  0  0  0
   33.1215  -21.2100    6.1369 N   0  0  0  0  0  0  0  0  0  0  0  0
   32.4947  -22.2484    6.9585 C   0  0  0  0  0  0  0  0  0  0  0  0
   31.0702  -22.4075    6.4552 C   0  0  0  0  0  0  0  0  0  0  0  0
   30.3100  -24.2855    5.0456 C   0  0  0  0  0  0  0  0  0  0  0  0
   30.1965  -24.9734    3.6600 C   0  0  0  0  0  0  0  0  0  0  0  0
   29.3850  -24.1650    2.4145 S   0  0  0  0  0  0  0  0  0  0  0  0
  1  3  1  0  0  0  0
  1  9  1  0  0  0  0
  1 10  1  0  0  0  0
  2 12  1  0  0  0  0
  3  5  1  0  0  0  0
  4 12  2  0  0  0  0
  5  7  1  0  0  0  0
  6 12  2  0  0  0  0
  7  8  1  0  0  0  0
  8  9  1  0  0  0  0
 10 11  1  0  0  0  0
 11 12  1  0  0  0  0
M  END
>  <CHROM.1>
-59.60510474,-63.14245431,55.28570323,30.68612675,-23.33443925,4.02809348
0.76250718,0.57518837,1.55503037

>  <Name>
ligand

>  <RI>
0

>  <Rbt.Current_Directory>
/home/itssahil/PROJECTS/Mol_Feturizer/New_Systems/rnas/4E8N

>  <Rbt.Executable>
rbdock ($Id: //depot/dev/client3/rdock/2013.1/src/exe/rbdock.cxx#4 $)

>  <Rbt.Library>
libRbt.so (2013.1, Build901 2013/11/27)

>  <Rbt.Parameter_File>
/export/apps/rDock/src/rDock_2013.1_src/data/scripts/dock_solv.prm

>  <Rbt.Receptor>
prm/pocket_docking_8.prm

>  <SCORE>
-11.901

>  <SCORE.INTER>
-7.37033

>  <SCORE.INTER.CONST>
1

>  <SCORE.INTER.POLAR>
0

>  <SCORE.INTER.ROT>
3

>  <SCORE.INTER.SOLV>
5.45862

>  <SCORE.INTER.VDW>
-12.3331

>  <SCORE.INTER.norm>
-0.614194

>  <SCORE.INTRA>
-4.53066

>  <SCORE.INTRA.DIHEDRAL>
-4.92714

>  <SCORE.INTRA.DIHEDRAL.0>
5.0186

>  <SCORE.INTRA.POLAR>
0

>  <SCORE.INTRA.POLAR.0>
0

>  <SCORE.INTRA.REPUL>
0

>  <SCORE.INTRA.REPUL.0>
0

>  <SCORE.INTRA.SOLV>
-0.0148756

>  <SCORE.INTRA.SOLV.lig_0>
-16.1608

>  <SCORE.INTRA.VDW>
-2.05965

>  <SCORE.INTRA.VDW.0>
1.14169

>  <SCORE.INTRA.norm>
-0.377555

>  <SCORE.RESTR>
0

>  <SCORE.RESTR.CAVITY>
0

>  <SCORE.RESTR.norm>
0

>  <SCORE.SYSTEM>
0

>  <SCORE.SYSTEM.CONST>
0

>  <SCORE.SYSTEM.DIHEDRAL>
0

>  <SCORE.SYSTEM.SOLV>
0

>  <SCORE.SYSTEM.norm>
0

>  <SCORE.heavy>
12

>  <SCORE.norm>
-0.99175

>  <RMSD>
5.565

$$$$
ligand
 OpenBabel11021811493D
libRbt.so/2013.1/901 2013/11/27
 12 12  0  0  0  0  0  0  0  0999 V2000
   31.0789  -22.9858    5.1031 N   0  0  0  0  0  0  0  0  0  0  0  0
   29.6671  -24.8066    1.1763 O   0  0  0  0  0  0  0  0  0  0  0  0
   32.5009  -23.0305    4.6824 C   0  0  0  0  0  0  0  0  0  0  0  0
   28.0420  -24.0117    2.6925 O   0  0  0  0  0  0  0  0  0  0  0  0
   33.0701  -21.6177    4.7616 C   0  0  0  0  0  0  0  0  0  0  0  0
   29.9714  -22.5919    2.1485 O   0  0  0  0  0  0  0  0  0  0  0  0
   33.0626  -21.1631    6.1552 N   0  0  0  0  0  0  0  0  0  0  0  0
   32.4555  -22.2159    6.9733 C   0  0  0  0  0  0  0  0  0  0  0  0
   31.0384  -22.4088    6.4612 C   0  0  0  0  0  0  0  0  0  0  0  0
   30.3318  -24.3048    5.0477 C   0  0  0  0  0  0  0  0  0  0  0  0
   30.1990  -24.9702    3.6529 C   0  0  0  0  0  0  0  0  0  0  0  0
   29.4501  -24.1045    2.4067 S   0  0  0  0  0  0  0  0  0  0  0  0
  1  3  1  0  0  0  0
  1  9  1  0  0  0  0
  1 10  1  0  0  0  0
  2 12  1  0  0  0  0
  3  5  1  0  0  0  0
  4 12  2  0  0  0  0
  5  7  1  0  0  0  0
  6 12  2  0  0  0  0
  7  8  1  0  0  0  0
  8  9  1  0  0  0  0
 10 11  1  0  0  0  0
 11 12  1  0  0  0  0
M  END
>  <CHROM.1>
-61.75002448,-58.00348823,169.33723938,30.71719972,-23.28990292,4.02675850
0.71626102,0.68129818,1.67213150

>  <Name>
ligand

>  <RI>
0

>  <Rbt.Current_Directory>
/home/itssahil/PROJECTS/Mol_Feturizer/New_Systems/rnas/4E8N

>  <Rbt.Executable>
rbdock ($Id: //depot/dev/client3/rdock/2013.1/src/exe/rbdock.cxx#4 $)

>  <Rbt.Library>
libRbt.so (2013.1, Build901 2013/11/27)

>  <Rbt.Parameter_File>
/export/apps/rDock/src/rDock_2013.1_src/data/scripts/dock_solv.prm

>  <Rbt.Receptor>
prm/pocket_docking_4.prm

>  <SCORE>
-11.7645

>  <SCORE.INTER>
-7.58122

>  <SCORE.INTER.CONST>
1

>  <SCORE.INTER.POLAR>
0

>  <SCORE.INTER.ROT>
3

>  <SCORE.INTER.SOLV>
5.22643

>  <SCORE.INTER.VDW>
-12.3963

>  <SCORE.INTER.norm>
-0.631769

>  <SCORE.INTRA>
-4.1833

>  <SCORE.INTRA.DIHEDRAL>
-4.72274

>  <SCORE.INTRA.DIHEDRAL.0>
5.0186

>  <SCORE.INTRA.POLAR>
0

>  <SCORE.INTRA.POLAR.0>
0

>  <SCORE.INTRA.REPUL>
0

>  <SCORE.INTRA.REPUL.0>
0

>  <SCORE.INTRA.SOLV>
0.797625

>  <SCORE.INTRA.SOLV.lig_0>
-16.1608

>  <SCORE.INTRA.VDW>
-2.22074

>  <SCORE.INTRA.VDW.0>
1.14169

>  <SCORE.INTRA.norm>
-0.348609

>  <SCORE.RESTR>
0

>  <SCORE.RESTR.CAVITY>
0

>  <SCORE.RESTR.norm>
0

>  <SCORE.SYSTEM>
0

>  <SCORE.SYSTEM.CONST>
0

>  <SCORE.SYSTEM.DIHEDRAL>
0

>  <SCORE.SYSTEM.SOLV>
0

>  <SCORE.SYSTEM.norm>
0

>  <SCORE.heavy>
12

>  <SCORE.norm>
-0.980377

>  <RMSD>
5.568

$$$$
ligand
 OpenBabel11021811493D
libRbt.so/2013.1/901 2013/11/27
 12 12  0  0  0  0  0  0  0  0999 V2000
   31.0819  -23.0039    5.0926 N   0  0  0  0  0  0  0  0  0  0  0  0
   29.9899  -22.8806    2.2622 O   0  0  0  0  0  0  0  0  0  0  0  0
   32.5047  -23.0471    4.6747 C   0  0  0  0  0  0  0  0  0  0  0  0
   29.5271  -24.9333    1.1927 O   0  0  0  0  0  0  0  0  0  0  0  0
   33.0719  -21.6335    4.7538 C   0  0  0  0  0  0  0  0  0  0  0  0
   27.8147  -23.9173    2.6315 O   0  0  0  0  0  0  0  0  0  0  0  0
   33.0612  -21.1778    6.1471 N   0  0  0  0  0  0  0  0  0  0  0  0
   32.4539  -22.2307    6.9649 C   0  0  0  0  0  0  0  0  0  0  0  0
   31.0380  -22.4260    6.4502 C   0  0  0  0  0  0  0  0  0  0  0  0
   30.3366  -24.3240    5.0369 C   0  0  0  0  0  0  0  0  0  0  0  0
   30.2187  -24.9972    3.6445 C   0  0  0  0  0  0  0  0  0  0  0  0
   29.3990  -24.1777    2.4117 S   0  0  0  0  0  0  0  0  0  0  0  0
  1  3  1  0  0  0  0
  1  9  1  0  0  0  0
  1 10  1  0  0  0  0
  2 12  1  0  0  0  0
  3  5  1  0  0  0  0
  4 12  2  0  0  0  0
  5  7  1  0  0  0  0
  6 12  2  0  0  0  0
  7  8  1  0  0  0  0
  8  9  1  0  0  0  0
 10 11  1  0  0  0  0
 11 12  1  0  0  0  0
M  END
>  <CHROM.1>
-61.20211571,-61.66500074,54.63313013,30.68178931,-23.33930495,4.02805772
0.76090603,0.59764090,1.56608074

>  <Name>
ligand

>  <RI>
0

>  <Rbt.Current_Directory>
/home/itssahil/PROJECTS/Mol_Feturizer/New_Systems/rnas/4E8N

>  <Rbt.Executable>
rbdock ($Id: //depot/dev/client3/rdock/2013.1/src/exe/rbdock.cxx#4 $)

>  <Rbt.Library>
libRbt.so (2013.1, Build901 2013/11/27)

>  <Rbt.Parameter_File>
/export/apps/rDock/src/rDock_2013.1_src/data/scripts/dock_solv.prm

>  <Rbt.Receptor>
prm/pocket_docking_7.prm

>  <SCORE>
-11.9675

>  <SCORE.INTER>
-7.39936

>  <SCORE.INTER.CONST>
1

>  <SCORE.INTER.POLAR>
0

>  <SCORE.INTER.ROT>
3

>  <SCORE.INTER.SOLV>
5.40815

>  <SCORE.INTER.VDW>
-12.3356

>  <SCORE.INTER.norm>
-0.616613

>  <SCORE.INTRA>
-4.56815

>  <SCORE.INTRA.DIHEDRAL>
-4.92911

>  <SCORE.INTRA.DIHEDRAL.0>
5.0186

>  <SCORE.INTRA.POLAR>
0

>  <SCORE.INTRA.POLAR.0>
0

>  <SCORE.INTRA.REPUL>
0

>  <SCORE.INTRA.REPUL.0>
0

>  <SCORE.INTRA.SOLV>
-0.0141371

>  <SCORE.INTRA.SOLV.lig_0>
-16.1608

>  <SCORE.INTRA.VDW>
-2.09652

>  <SCORE.INTRA.VDW.0>
1.14169

>  <SCORE.INTRA.norm>
-0.380679

>  <SCORE.RESTR>
0

>  <SCORE.RESTR.CAVITY>
0

>  <SCORE.RESTR.norm>
0

>  <SCORE.SYSTEM>
0

>  <SCORE.SYSTEM.CONST>
0

>  <SCORE.SYSTEM.DIHEDRAL>
0

>  <SCORE.SYSTEM.SOLV>
0

>  <SCORE.SYSTEM.norm>
0

>  <SCORE.heavy>
12

>  <SCORE.norm>
-0.997292

>  <RMSD>
5.569

$$$$
ligand
 OpenBabel11021811493D
libRbt.so/2013.1/901 2013/11/27
 12 12  0  0  0  0  0  0  0  0999 V2000
   31.0733  -23.0023    5.0813 N   0  0  0  0  0  0  0  0  0  0  0  0
   29.9868  -22.8918    2.2453 O   0  0  0  0  0  0  0  0  0  0  0  0
   32.4934  -23.0354    4.6534 C   0  0  0  0  0  0  0  0  0  0  0  0
   29.5120  -24.9486    1.1891 O   0  0  0  0  0  0  0  0  0  0  0  0
   33.0517  -21.6182    4.7308 C   0  0  0  0  0  0  0  0  0  0  0  0
   27.8112  -23.9208    2.6332 O   0  0  0  0  0  0  0  0  0  0  0  0
   33.0477  -21.1647    6.1249 N   0  0  0  0  0  0  0  0  0  0  0  0
   32.4532  -22.2230    6.9452 C   0  0  0  0  0  0  0  0  0  0  0  0
   31.0350  -22.4268    6.4401 C   0  0  0  0  0  0  0  0  0  0  0  0
   30.3364  -24.3273    5.0286 C   0  0  0  0  0  0  0  0  0  0  0  0
   30.2185  -25.0020    3.6370 C   0  0  0  0  0  0  0  0  0  0  0  0
   29.3935  -24.1865    2.4050 S   0  0  0  0  0  0  0  0  0  0  0  0
  1  3  1  0  0  0  0
  1  9  1  0  0  0  0
  1 10  1  0  0  0  0
  2 12  1  0  0  0  0
  3  5  1  0  0  0  0
  4 12  2  0  0  0  0
  5  7  1  0  0  0  0
  6 12  2  0  0  0  0
  7  8  1  0  0  0  0
  8  9  1  0  0  0  0
 10 11  1  0  0  0  0
 11 12  1  0  0  0  0
M  END
>  <CHROM.1>
-60.95107440,-61.49282508,55.14214396,30.67484854,-23.34030353,4.01637561
0.75557420,0.60617486,1.57098642

>  <Name>
ligand

>  <RI>
0

>  <Rbt.Current_Directory>
/home/itssahil/PROJECTS/Mol_Feturizer/New_Systems/rnas/4E8N

>  <Rbt.Executable>
rbdock ($Id: //depot/dev/client3/rdock/2013.1/src/exe/rbdock.cxx#4 $)

>  <Rbt.Library>
libRbt.so (2013.1, Build901 2013/11/27)

>  <Rbt.Parameter_File>
/export/apps/rDock/src/rDock_2013.1_src/data/scripts/dock_solv.prm

>  <Rbt.Receptor>
prm/pocket_docking_5.prm

>  <SCORE>
-11.9838

>  <SCORE.INTER>
-7.40961

>  <SCORE.INTER.CONST>
1

>  <SCORE.INTER.POLAR>
0

>  <SCORE.INTER.ROT>
3

>  <SCORE.INTER.SOLV>
5.35145

>  <SCORE.INTER.VDW>
-12.3236

>  <SCORE.INTER.norm>
-0.617467

>  <SCORE.INTRA>
-4.57416

>  <SCORE.INTRA.DIHEDRAL>
-4.94528

>  <SCORE.INTRA.DIHEDRAL.0>
5.0186

>  <SCORE.INTRA.POLAR>
0

>  <SCORE.INTRA.POLAR.0>
0

>  <SCORE.INTRA.REPUL>
0

>  <SCORE.INTRA.REPUL.0>
0

>  <SCORE.INTRA.SOLV>
-0.0111958

>  <SCORE.INTRA.SOLV.lig_0>
-16.1608

>  <SCORE.INTRA.VDW>
-2.09592

>  <SCORE.INTRA.VDW.0>
1.14169

>  <SCORE.INTRA.norm>
-0.38118

>  <SCORE.RESTR>
0

>  <SCORE.RESTR.CAVITY>
0

>  <SCORE.RESTR.norm>
0

>  <SCORE.SYSTEM>
0

>  <SCORE.SYSTEM.CONST>
0

>  <SCORE.SYSTEM.DIHEDRAL>
0

>  <SCORE.SYSTEM.SOLV>
0

>  <SCORE.SYSTEM.norm>
0

>  <SCORE.heavy>
12

>  <SCORE.norm>
-0.998647

>  <RMSD>
5.571

$$$$
ligand
 OpenBabel11021811493D
libRbt.so/2013.1/901 2013/11/27
 12 12  0  0  0  0  0  0  0  0999 V2000
   29.4602  -25.2283    2.1480 N   0  0  0  0  0  0  0  0  0  0  0  0
   30.2758  -22.7454    6.0064 O   0  0  0  0  0  0  0  0  0  0  0  0
   30.0339  -25.9808    1.0054 C   0  0  0  0  0  0  0  0  0  0  0  0
   30.0680  -24.9545    5.2011 O   0  0  0  0  0  0  0  0  0  0  0  0
   29.6313  -27.4453    1.1437 C   0  0  0  0  0  0  0  0  0  0  0  0
   32.1200  -23.6913    4.7231 O   0  0  0  0  0  0  0  0  0  0  0  0
   28.1746  -27.5663    1.0322 N   0  0  0  0  0  0  0  0  0  0  0  0
   27.6171  -26.2200    0.8811 C   0  0  0  0  0  0  0  0  0  0  0  0
   27.9998  -25.4428    2.1290 C   0  0  0  0  0  0  0  0  0  0  0  0
   29.7942  -23.7495    2.1997 C   0  0  0  0  0  0  0  0  0  0  0  0
   29.6242  -23.0461    3.5716 C   0  0  0  0  0  0  0  0  0  0  0  0
   30.5102  -23.6189    4.8946 S   0  0  0  0  0  0  0  0  0  0  0  0
  1  3  1  0  0  0  0
  1  9  1  0  0  0  0
  1 10  1  0  0  0  0
  2 12  1  0  0  0  0
  3  5  1  0  0  0  0
  4 12  2  0  0  0  0
  5  7  1  0  0  0  0
  6 12  2  0  0  0  0
  7  8  1  0  0  0  0
  8  9  1  0  0  0  0
 10 11  1  0  0  0  0
 11 12  1  0  0  0  0
M  END
>  <CHROM.1>
-160.47504761,59.02911533,175.02561800,29.73113624,-24.81043868,3.17151776
1.98342680,0.40190026,-2.41671271

>  <Name>
ligand

>  <RI>
0

>  <Rbt.Current_Directory>
/home/itssahil/PROJECTS/Mol_Feturizer/New_Systems/rnas/4E8N

>  <Rbt.Executable>
rbdock ($Id: //depot/dev/client3/rdock/2013.1/src/exe/rbdock.cxx#4 $)

>  <Rbt.Library>
libRbt.so (2013.1, Build901 2013/11/27)

>  <Rbt.Parameter_File>
/export/apps/rDock/src/rDock_2013.1_src/data/scripts/dock_solv.prm

>  <Rbt.Receptor>
prm/pocket_docking_6.prm

>  <SCORE>
-12.2573

>  <SCORE.INTER>
-8.23484

>  <SCORE.INTER.CONST>
1

>  <SCORE.INTER.POLAR>
0

>  <SCORE.INTER.ROT>
3

>  <SCORE.INTER.SOLV>
6.62925

>  <SCORE.INTER.VDW>
-13.2996

>  <SCORE.INTER.norm>
-0.686237

>  <SCORE.INTRA>
-4.02242

>  <SCORE.INTRA.DIHEDRAL>
-4.4587

>  <SCORE.INTRA.DIHEDRAL.0>
5.0186

>  <SCORE.INTRA.POLAR>
0

>  <SCORE.INTRA.POLAR.0>
0

>  <SCORE.INTRA.REPUL>
0

>  <SCORE.INTRA.REPUL.0>
0

>  <SCORE.INTRA.SOLV>
0.741043

>  <SCORE.INTRA.SOLV.lig_0>
-16.1608

>  <SCORE.INTRA.VDW>
-2.16359

>  <SCORE.INTRA.VDW.0>
1.14169

>  <SCORE.INTRA.norm>
-0.335201

>  <SCORE.RESTR>
0

>  <SCORE.RESTR.CAVITY>
0

>  <SCORE.RESTR.norm>
0

>  <SCORE.SYSTEM>
0

>  <SCORE.SYSTEM.CONST>
0

>  <SCORE.SYSTEM.DIHEDRAL>
0

>  <SCORE.SYSTEM.SOLV>
0

>  <SCORE.SYSTEM.norm>
0

>  <SCORE.heavy>
12

>  <SCORE.norm>
-1.02144

>  <RMSD>
5.575

$$$$
ligand
 OpenBabel11021811493D
libRbt.so/2013.1/901 2013/11/27
 12 12  0  0  0  0  0  0  0  0999 V2000
   31.0891  -22.9906    5.1021 N   0  0  0  0  0  0  0  0  0  0  0  0
   29.6560  -24.7641    1.1513 O   0  0  0  0  0  0  0  0  0  0  0  0
   32.5164  -23.0710    4.7056 C   0  0  0  0  0  0  0  0  0  0  0  0
   28.0039  -24.0372    2.6725 O   0  0  0  0  0  0  0  0  0  0  0  0
   33.1212  -21.6742    4.8018 C   0  0  0  0  0  0  0  0  0  0  0  0
   29.8931  -22.5549    2.1543 O   0  0  0  0  0  0  0  0  0  0  0  0
   33.1018  -21.2261    6.1975 N   0  0  0  0  0  0  0  0  0  0  0  0
   32.4532  -22.2664    6.9996 C   0  0  0  0  0  0  0  0  0  0  0  0
   31.0404  -22.4193    6.4624 C   0  0  0  0  0  0  0  0  0  0  0  0
   30.3085  -24.2892    5.0272 C   0  0  0  0  0  0  0  0  0  0  0  0
   30.1849  -24.9458    3.6273 C   0  0  0  0  0  0  0  0  0  0  0  0
   29.4151  -24.0853    2.3904 S   0  0  0  0  0  0  0  0  0  0  0  0
  1  3  1  0  0  0  0
  1  9  1  0  0  0  0
  1 10  1  0  0  0  0
  2 12  1  0  0  0  0
  3  5  1  0  0  0  0
  4 12  2  0  0  0  0
  5  7  1  0  0  0  0
  6 12  2  0  0  0  0
  7  8  1  0  0  0  0
  8  9  1  0  0  0  0
 10 11  1  0  0  0  0
 11 12  1  0  0  0  0
M  END
>  <CHROM.1>
-61.61658664,-60.96864593,168.64481686,30.70642928,-23.29575477,4.02707925
0.72728877,0.65288159,1.66317110

>  <Name>
ligand

>  <RI>
0

>  <Rbt.Current_Directory>
/home/itssahil/PROJECTS/Mol_Feturizer/New_Systems/rnas/4E8N

>  <Rbt.Executable>
rbdock ($Id: //depot/dev/client3/rdock/2013.1/src/exe/rbdock.cxx#4 $)

>  <Rbt.Library>
libRbt.so (2013.1, Build901 2013/11/27)

>  <Rbt.Parameter_File>
/export/apps/rDock/src/rDock_2013.1_src/data/scripts/dock_solv.prm

>  <Rbt.Receptor>
prm/pocket_docking_5.prm

>  <SCORE>
-11.734

>  <SCORE.INTER>
-7.57272

>  <SCORE.INTER.CONST>
1

>  <SCORE.INTER.POLAR>
0

>  <SCORE.INTER.ROT>
3

>  <SCORE.INTER.SOLV>
5.39779

>  <SCORE.INTER.VDW>
-12.4477

>  <SCORE.INTER.norm>
-0.63106

>  <SCORE.INTRA>
-4.16127

>  <SCORE.INTRA.DIHEDRAL>
-4.7008

>  <SCORE.INTRA.DIHEDRAL.0>
5.0186

>  <SCORE.INTRA.POLAR>
0

>  <SCORE.INTRA.POLAR.0>
0

>  <SCORE.INTRA.REPUL>
0

>  <SCORE.INTRA.REPUL.0>
0

>  <SCORE.INTRA.SOLV>
0.746361

>  <SCORE.INTRA.SOLV.lig_0>
-16.1608

>  <SCORE.INTRA.VDW>
-2.18406

>  <SCORE.INTRA.VDW.0>
1.14169

>  <SCORE.INTRA.norm>
-0.346773

>  <SCORE.RESTR>
0

>  <SCORE.RESTR.CAVITY>
0

>  <SCORE.RESTR.norm>
0

>  <SCORE.SYSTEM>
0

>  <SCORE.SYSTEM.CONST>
0

>  <SCORE.SYSTEM.DIHEDRAL>
0

>  <SCORE.SYSTEM.SOLV>
0

>  <SCORE.SYSTEM.norm>
0

>  <SCORE.heavy>
12

>  <SCORE.norm>
-0.977833

>  <RMSD>
5.576

$$$$
ligand
 OpenBabel11021811493D
libRbt.so/2013.1/901 2013/11/27
 12 12  0  0  0  0  0  0  0  0999 V2000
   31.2461  -23.2508    5.4688 N   0  0  0  0  0  0  0  0  0  0  0  0
   29.6599  -24.8073    1.2512 O   0  0  0  0  0  0  0  0  0  0  0  0
   31.4691  -22.9833    6.9109 C   0  0  0  0  0  0  0  0  0  0  0  0
   28.3733  -23.4815    2.7204 O   0  0  0  0  0  0  0  0  0  0  0  0
   32.5852  -21.9521    7.0414 C   0  0  0  0  0  0  0  0  0  0  0  0
   30.5873  -22.6857    2.0138 O   0  0  0  0  0  0  0  0  0  0  0  0
   32.1539  -20.6843    6.4450 N   0  0  0  0  0  0  0  0  0  0  0  0
   30.8148  -20.8786    5.8835 C   0  0  0  0  0  0  0  0  0  0  0  0
   30.9348  -21.9602    4.8236 C   0  0  0  0  0  0  0  0  0  0  0  0
   30.1908  -24.2914    5.1454 C   0  0  0  0  0  0  0  0  0  0  0  0
   30.2339  -24.9059    3.7219 C   0  0  0  0  0  0  0  0  0  0  0  0
   29.6917  -23.9746    2.4173 S   0  0  0  0  0  0  0  0  0  0  0  0
  1  3  1  0  0  0  0
  1  9  1  0  0  0  0
  1 10  1  0  0  0  0
  2 12  1  0  0  0  0
  3  5  1  0  0  0  0
  4 12  2  0  0  0  0
  5  7  1  0  0  0  0
  6 12  2  0  0  0  0
  7  8  1  0  0  0  0
  8  9  1  0  0  0  0
 10 11  1  0  0  0  0
 11 12  1  0  0  0  0
M  END
>  <CHROM.1>
-161.73701817,-74.79916421,-172.37153253,30.53597260,-23.10137505,4.21575451
-0.03138419,1.14791007,2.67575187

>  <Name>
ligand

>  <RI>
0

>  <Rbt.Current_Directory>
/home/itssahil/PROJECTS/Mol_Feturizer/New_Systems/rnas/4E8N

>  <Rbt.Executable>
rbdock ($Id: //depot/dev/client3/rdock/2013.1/src/exe/rbdock.cxx#4 $)

>  <Rbt.Library>
libRbt.so (2013.1, Build901 2013/11/27)

>  <Rbt.Parameter_File>
/export/apps/rDock/src/rDock_2013.1_src/data/scripts/dock_solv.prm

>  <Rbt.Receptor>
prm/pocket_docking_7.prm

>  <SCORE>
-9.93748

>  <SCORE.INTER>
-6.5902

>  <SCORE.INTER.CONST>
1

>  <SCORE.INTER.POLAR>
0

>  <SCORE.INTER.ROT>
3

>  <SCORE.INTER.SOLV>
5.69927

>  <SCORE.INTER.VDW>
-11.8932

>  <SCORE.INTER.norm>
-0.549183

>  <SCORE.INTRA>
-3.34728

>  <SCORE.INTRA.DIHEDRAL>
-3.64034

>  <SCORE.INTRA.DIHEDRAL.0>
5.0186

>  <SCORE.INTRA.POLAR>
0

>  <SCORE.INTRA.POLAR.0>
0

>  <SCORE.INTRA.REPUL>
0

>  <SCORE.INTRA.REPUL.0>
0

>  <SCORE.INTRA.SOLV>
0.866368

>  <SCORE.INTRA.SOLV.lig_0>
-16.1608

>  <SCORE.INTRA.VDW>
-1.96029

>  <SCORE.INTRA.VDW.0>
1.14169

>  <SCORE.INTRA.norm>
-0.27894

>  <SCORE.RESTR>
0

>  <SCORE.RESTR.CAVITY>
0

>  <SCORE.RESTR.norm>
0

>  <SCORE.SYSTEM>
0

>  <SCORE.SYSTEM.CONST>
0

>  <SCORE.SYSTEM.DIHEDRAL>
0

>  <SCORE.SYSTEM.SOLV>
0

>  <SCORE.SYSTEM.norm>
0

>  <SCORE.heavy>
12

>  <SCORE.norm>
-0.828123

>  <RMSD>
5.577

$$$$
ligand
 OpenBabel11021811493D
libRbt.so/2013.1/901 2013/11/27
 12 12  0  0  0  0  0  0  0  0999 V2000
   31.0880  -22.9805    5.0988 N   0  0  0  0  0  0  0  0  0  0  0  0
   29.9777  -22.8600    2.2458 O   0  0  0  0  0  0  0  0  0  0  0  0
   32.5159  -23.0247    4.6987 C   0  0  0  0  0  0  0  0  0  0  0  0
   29.5647  -24.9235    1.1765 O   0  0  0  0  0  0  0  0  0  0  0  0
   33.0855  -21.6130    4.7936 C   0  0  0  0  0  0  0  0  0  0  0  0
   27.8257  -23.9459    2.6100 O   0  0  0  0  0  0  0  0  0  0  0  0
   33.0583  -21.1658    6.1895 N   0  0  0  0  0  0  0  0  0  0  0  0
   32.4382  -22.2223    6.9930 C   0  0  0  0  0  0  0  0  0  0  0  0
   31.0284  -22.4108    6.4593 C   0  0  0  0  0  0  0  0  0  0  0  0
   30.3403  -24.2983    5.0256 C   0  0  0  0  0  0  0  0  0  0  0  0
   30.2510  -24.9699    3.6302 C   0  0  0  0  0  0  0  0  0  0  0  0
   29.4162  -24.1702    2.3946 S   0  0  0  0  0  0  0  0  0  0  0  0
  1  3  1  0  0  0  0
  1  9  1  0  0  0  0
  1 10  1  0  0  0  0
  2 12  1  0  0  0  0
  3  5  1  0  0  0  0
  4 12  2  0  0  0  0
  5  7  1  0  0  0  0
  6 12  2  0  0  0  0
  7  8  1  0  0  0  0
  8  9  1  0  0  0  0
 10 11  1  0  0  0  0
 11 12  1  0  0  0  0
M  END
>  <CHROM.1>
-60.59070423,-63.68806366,55.10259960,30.69050990,-23.32658706,4.02973301
0.77614071,0.59106732,1.55227282

>  <Name>
ligand

>  <RI>
0

>  <Rbt.Current_Directory>
/home/itssahil/PROJECTS/Mol_Feturizer/New_Systems/rnas/4E8N

>  <Rbt.Executable>
rbdock ($Id: //depot/dev/client3/rdock/2013.1/src/exe/rbdock.cxx#4 $)

>  <Rbt.Library>
libRbt.so (2013.1, Build901 2013/11/27)

>  <Rbt.Parameter_File>
/export/apps/rDock/src/rDock_2013.1_src/data/scripts/dock_solv.prm

>  <Rbt.Receptor>
prm/pocket_docking_7.prm

>  <SCORE>
-11.9482

>  <SCORE.INTER>
-7.41833

>  <SCORE.INTER.CONST>
1

>  <SCORE.INTER.POLAR>
0

>  <SCORE.INTER.ROT>
3

>  <SCORE.INTER.SOLV>
5.37942

>  <SCORE.INTER.VDW>
-12.3387

>  <SCORE.INTER.norm>
-0.618194

>  <SCORE.INTRA>
-4.52988

>  <SCORE.INTRA.DIHEDRAL>
-4.90411

>  <SCORE.INTRA.DIHEDRAL.0>
5.0186

>  <SCORE.INTRA.POLAR>
0

>  <SCORE.INTRA.POLAR.0>
0

>  <SCORE.INTRA.REPUL>
0

>  <SCORE.INTRA.REPUL.0>
0

>  <SCORE.INTRA.SOLV>
-0.0147797

>  <SCORE.INTRA.SOLV.lig_0>
-16.1608

>  <SCORE.INTRA.VDW>
-2.07043

>  <SCORE.INTRA.VDW.0>
1.14169

>  <SCORE.INTRA.norm>
-0.37749

>  <SCORE.RESTR>
0

>  <SCORE.RESTR.CAVITY>
0

>  <SCORE.RESTR.norm>
0

>  <SCORE.SYSTEM>
0

>  <SCORE.SYSTEM.CONST>
0

>  <SCORE.SYSTEM.DIHEDRAL>
0

>  <SCORE.SYSTEM.SOLV>
0

>  <SCORE.SYSTEM.norm>
0

>  <SCORE.heavy>
12

>  <SCORE.norm>
-0.995684

>  <RMSD>
5.577

$$$$
ligand
 OpenBabel11021811493D
libRbt.so/2013.1/901 2013/11/27
 12 12  0  0  0  0  0  0  0  0999 V2000
   31.0826  -23.0059    5.0855 N   0  0  0  0  0  0  0  0  0  0  0  0
   29.9963  -22.8896    2.2507 O   0  0  0  0  0  0  0  0  0  0  0  0
   32.5063  -23.0510    4.6710 C   0  0  0  0  0  0  0  0  0  0  0  0
   29.5428  -24.9460    1.1841 O   0  0  0  0  0  0  0  0  0  0  0  0
   33.0748  -21.6379    4.7494 C   0  0  0  0  0  0  0  0  0  0  0  0
   27.8222  -23.9308    2.6136 O   0  0  0  0  0  0  0  0  0  0  0  0
   33.0612  -21.1802    6.1420 N   0  0  0  0  0  0  0  0  0  0  0  0
   32.4510  -22.2314    6.9598 C   0  0  0  0  0  0  0  0  0  0  0  0
   31.0361  -22.4260    6.4422 C   0  0  0  0  0  0  0  0  0  0  0  0
   30.3362  -24.3253    5.0299 C   0  0  0  0  0  0  0  0  0  0  0  0
   30.2246  -25.0025    3.6389 C   0  0  0  0  0  0  0  0  0  0  0  0
   29.4080  -24.1879    2.4008 S   0  0  0  0  0  0  0  0  0  0  0  0
  1  3  1  0  0  0  0
  1  9  1  0  0  0  0
  1 10  1  0  0  0  0
  2 12  1  0  0  0  0
  3  5  1  0  0  0  0
  4 12  2  0  0  0  0
  5  7  1  0  0  0  0
  6 12  2  0  0  0  0
  7  8  1  0  0  0  0
  8  9  1  0  0  0  0
 10 11  1  0  0  0  0
 11 12  1  0  0  0  0
M  END
>  <CHROM.1>
-61.01873047,-61.85558658,54.58899313,30.68619542,-23.34536806,4.01970986
0.76505804,0.59681971,1.56093218

>  <Name>
ligand

>  <RI>
0

>  <Rbt.Current_Directory>
/home/itssahil/PROJECTS/Mol_Feturizer/New_Systems/rnas/4E8N

>  <Rbt.Executable>
rbdock ($Id: //depot/dev/client3/rdock/2013.1/src/exe/rbdock.cxx#4 $)

>  <Rbt.Library>
libRbt.so (2013.1, Build901 2013/11/27)

>  <Rbt.Parameter_File>
/export/apps/rDock/src/rDock_2013.1_src/data/scripts/dock_solv.prm

>  <Rbt.Receptor>
prm/pocket_docking_8.prm

>  <SCORE>
-11.9853

>  <SCORE.INTER>
-7.42253

>  <SCORE.INTER.CONST>
1

>  <SCORE.INTER.POLAR>
0

>  <SCORE.INTER.ROT>
3

>  <SCORE.INTER.SOLV>
5.38543

>  <SCORE.INTER.VDW>
-12.3435

>  <SCORE.INTER.norm>
-0.618544

>  <SCORE.INTRA>
-4.56277

>  <SCORE.INTRA.DIHEDRAL>
-4.92699

>  <SCORE.INTRA.DIHEDRAL.0>
5.0186

>  <SCORE.INTRA.POLAR>
0

>  <SCORE.INTRA.POLAR.0>
0

>  <SCORE.INTRA.REPUL>
0

>  <SCORE.INTRA.REPUL.0>
0

>  <SCORE.INTRA.SOLV>
-0.0149961

>  <SCORE.INTRA.SOLV.lig_0>
-16.1608

>  <SCORE.INTRA.VDW>
-2.09178

>  <SCORE.INTRA.VDW.0>
1.14169

>  <SCORE.INTRA.norm>
-0.380231

>  <SCORE.RESTR>
0

>  <SCORE.RESTR.CAVITY>
0

>  <SCORE.RESTR.norm>
0

>  <SCORE.SYSTEM>
0

>  <SCORE.SYSTEM.CONST>
0

>  <SCORE.SYSTEM.DIHEDRAL>
0

>  <SCORE.SYSTEM.SOLV>
0

>  <SCORE.SYSTEM.norm>
0

>  <SCORE.heavy>
12

>  <SCORE.norm>
-0.998775

>  <RMSD>
5.577

$$$$
ligand
 OpenBabel11021811493D
libRbt.so/2013.1/901 2013/11/27
 12 12  0  0  0  0  0  0  0  0999 V2000
   30.4980  -22.0512    5.3678 N   0  0  0  0  0  0  0  0  0  0  0  0
   29.4985  -25.0156    4.8941 O   0  0  0  0  0  0  0  0  0  0  0  0
   30.9538  -20.7415    5.8946 C   0  0  0  0  0  0  0  0  0  0  0  0
   28.4842  -25.4136    2.8002 O   0  0  0  0  0  0  0  0  0  0  0  0
   30.6991  -20.7132    7.3981 C   0  0  0  0  0  0  0  0  0  0  0  0
   30.9236  -25.6146    3.0091 O   0  0  0  0  0  0  0  0  0  0  0  0
   31.5211  -21.7344    8.0543 N   0  0  0  0  0  0  0  0  0  0  0  0
   32.2586  -22.4597    7.0168 C   0  0  0  0  0  0  0  0  0  0  0  0
   31.2237  -23.1017    6.1087 C   0  0  0  0  0  0  0  0  0  0  0  0
   30.6364  -22.2451    3.8697 C   0  0  0  0  0  0  0  0  0  0  0  0
   29.5726  -23.1415    3.1837 C   0  0  0  0  0  0  0  0  0  0  0  0
   29.5995  -24.8074    3.4797 S   0  0  0  0  0  0  0  0  0  0  0  0
  1  3  1  0  0  0  0
  1  9  1  0  0  0  0
  1 10  1  0  0  0  0
  2 12  1  0  0  0  0
  3  5  1  0  0  0  0
  4 12  2  0  0  0  0
  5  7  1  0  0  0  0
  6 12  2  0  0  0  0
  7  8  1  0  0  0  0
  8  9  1  0  0  0  0
 10 11  1  0  0  0  0
 11 12  1  0  0  0  0
M  END
>  <CHROM.1>
-148.05725845,-70.56308141,56.83553215,30.37923520,-23.31792041,4.89150629
0.84272947,-1.06632996,0.15075958

>  <Name>
ligand

>  <RI>
0

>  <Rbt.Current_Directory>
/home/itssahil/PROJECTS/Mol_Feturizer/New_Systems/rnas/4E8N

>  <Rbt.Executable>
rbdock ($Id: //depot/dev/client3/rdock/2013.1/src/exe/rbdock.cxx#4 $)

>  <Rbt.Library>
libRbt.so (2013.1, Build901 2013/11/27)

>  <Rbt.Parameter_File>
/export/apps/rDock/src/rDock_2013.1_src/data/scripts/dock_solv.prm

>  <Rbt.Receptor>
prm/pocket_docking_4.prm

>  <SCORE>
-11.271

>  <SCORE.INTER>
-7.59963

>  <SCORE.INTER.CONST>
1

>  <SCORE.INTER.POLAR>
0

>  <SCORE.INTER.ROT>
3

>  <SCORE.INTER.SOLV>
7.58216

>  <SCORE.INTER.VDW>
-13.1938

>  <SCORE.INTER.norm>
-0.633303

>  <SCORE.INTRA>
-3.67141

>  <SCORE.INTRA.DIHEDRAL>
-3.35392

>  <SCORE.INTRA.DIHEDRAL.0>
5.0186

>  <SCORE.INTRA.POLAR>
0

>  <SCORE.INTRA.POLAR.0>
0

>  <SCORE.INTRA.REPUL>
0

>  <SCORE.INTRA.REPUL.0>
0

>  <SCORE.INTRA.SOLV>
0.000246251

>  <SCORE.INTRA.SOLV.lig_0>
-16.1608

>  <SCORE.INTRA.VDW>
-1.99457

>  <SCORE.INTRA.VDW.0>
1.14169

>  <SCORE.INTRA.norm>
-0.305951

>  <SCORE.RESTR>
0

>  <SCORE.RESTR.CAVITY>
0

>  <SCORE.RESTR.norm>
0

>  <SCORE.SYSTEM>
0

>  <SCORE.SYSTEM.CONST>
0

>  <SCORE.SYSTEM.DIHEDRAL>
0

>  <SCORE.SYSTEM.SOLV>
0

>  <SCORE.SYSTEM.norm>
0

>  <SCORE.heavy>
12

>  <SCORE.norm>
-0.939253

>  <RMSD>
5.579

$$$$
ligand
 OpenBabel11021811493D
libRbt.so/2013.1/901 2013/11/27
 12 12  0  0  0  0  0  0  0  0999 V2000
   31.2385  -22.1823    6.4742 N   0  0  0  0  0  0  0  0  0  0  0  0
   29.7159  -24.9315    5.6087 O   0  0  0  0  0  0  0  0  0  0  0  0
   30.6702  -20.8191    6.3346 C   0  0  0  0  0  0  0  0  0  0  0  0
   29.1260  -24.8989    3.3234 O   0  0  0  0  0  0  0  0  0  0  0  0
   30.0431  -20.4212    7.6667 C   0  0  0  0  0  0  0  0  0  0  0  0
   31.1743  -26.0641    4.0171 O   0  0  0  0  0  0  0  0  0  0  0  0
   31.0859  -20.3341    8.6933 N   0  0  0  0  0  0  0  0  0  0  0  0
   32.3602  -20.7167    8.0802 C   0  0  0  0  0  0  0  0  0  0  0  0
   32.2018  -22.1466    7.5921 C   0  0  0  0  0  0  0  0  0  0  0  0
   31.8730  -22.7646    5.2253 C   0  0  0  0  0  0  0  0  0  0  0  0
   30.9041  -23.2555    4.1179 C   0  0  0  0  0  0  0  0  0  0  0  0
   30.2059  -24.7894    4.2694 S   0  0  0  0  0  0  0  0  0  0  0  0
  1  3  1  0  0  0  0
  1  9  1  0  0  0  0
  1 10  1  0  0  0  0
  2 12  1  0  0  0  0
  3  5  1  0  0  0  0
  4 12  2  0  0  0  0
  5  7  1  0  0  0  0
  6 12  2  0  0  0  0
  7  8  1  0  0  0  0
  8  9  1  0  0  0  0
 10 11  1  0  0  0  0
 11 12  1  0  0  0  0
M  END
>  <CHROM.1>
-74.81623811,-81.66463143,46.45130041,30.79262044,-23.04370817,5.74191450
-1.35686102,0.35528730,-2.50064862

>  <Name>
ligand

>  <RI>
0

>  <Rbt.Current_Directory>
/home/itssahil/PROJECTS/Mol_Feturizer/New_Systems/rnas/4E8N

>  <Rbt.Executable>
rbdock ($Id: //depot/dev/client3/rdock/2013.1/src/exe/rbdock.cxx#4 $)

>  <Rbt.Library>
libRbt.so (2013.1, Build901 2013/11/27)

>  <Rbt.Parameter_File>
/export/apps/rDock/src/rDock_2013.1_src/data/scripts/dock_solv.prm

>  <Rbt.Receptor>
prm/pocket_docking_7.prm

>  <SCORE>
-11.9972

>  <SCORE.INTER>
-8.6902

>  <SCORE.INTER.CONST>
1

>  <SCORE.INTER.POLAR>
0

>  <SCORE.INTER.ROT>
3

>  <SCORE.INTER.SOLV>
7.43718

>  <SCORE.INTER.VDW>
-13.8725

>  <SCORE.INTER.norm>
-0.724184

>  <SCORE.INTRA>
-3.30704

>  <SCORE.INTRA.DIHEDRAL>
-2.59563

>  <SCORE.INTRA.DIHEDRAL.0>
5.0186

>  <SCORE.INTRA.POLAR>
0

>  <SCORE.INTRA.POLAR.0>
0

>  <SCORE.INTRA.REPUL>
0

>  <SCORE.INTRA.REPUL.0>
0

>  <SCORE.INTRA.SOLV>
-0.0182384

>  <SCORE.INTRA.SOLV.lig_0>
-16.1608

>  <SCORE.INTRA.VDW>
-2.00011

>  <SCORE.INTRA.VDW.0>
1.14169

>  <SCORE.INTRA.norm>
-0.275587

>  <SCORE.RESTR>
0

>  <SCORE.RESTR.CAVITY>
0

>  <SCORE.RESTR.norm>
0

>  <SCORE.SYSTEM>
0

>  <SCORE.SYSTEM.CONST>
0

>  <SCORE.SYSTEM.DIHEDRAL>
0

>  <SCORE.SYSTEM.SOLV>
0

>  <SCORE.SYSTEM.norm>
0

>  <SCORE.heavy>
12

>  <SCORE.norm>
-0.99977

>  <RMSD>
5.579

$$$$
ligand
 OpenBabel11021811493D
libRbt.so/2013.1/901 2013/11/27
 12 12  0  0  0  0  0  0  0  0999 V2000
   31.2333  -22.1854    6.4934 N   0  0  0  0  0  0  0  0  0  0  0  0
   29.6996  -24.9471    5.6091 O   0  0  0  0  0  0  0  0  0  0  0  0
   30.6480  -20.8291    6.3557 C   0  0  0  0  0  0  0  0  0  0  0  0
   29.1141  -24.8995    3.3229 O   0  0  0  0  0  0  0  0  0  0  0  0
   30.0363  -20.4314    7.6950 C   0  0  0  0  0  0  0  0  0  0  0  0
   31.1710  -26.0530    4.0107 O   0  0  0  0  0  0  0  0  0  0  0  0
   31.0931  -20.3278    8.7056 N   0  0  0  0  0  0  0  0  0  0  0  0
   32.3623  -20.6996    8.0756 C   0  0  0  0  0  0  0  0  0  0  0  0
   32.2125  -22.1335    7.5968 C   0  0  0  0  0  0  0  0  0  0  0  0
   31.8556  -22.7670    5.2382 C   0  0  0  0  0  0  0  0  0  0  0  0
   30.8763  -23.2478    4.1356 C   0  0  0  0  0  0  0  0  0  0  0  0
   30.1911  -24.7890    4.2721 S   0  0  0  0  0  0  0  0  0  0  0  0
  1  3  1  0  0  0  0
  1  9  1  0  0  0  0
  1 10  1  0  0  0  0
  2 12  1  0  0  0  0
  3  5  1  0  0  0  0
  4 12  2  0  0  0  0
  5  7  1  0  0  0  0
  6 12  2  0  0  0  0
  7  8  1  0  0  0  0
  8  9  1  0  0  0  0
 10 11  1  0  0  0  0
 11 12  1  0  0  0  0
M  END
>  <CHROM.1>
-73.63276627,-82.74293596,47.38466176,30.78318045,-23.04271700,5.74997316
-1.35548914,0.34105454,-2.49696299

>  <Name>
ligand

>  <RI>
0

>  <Rbt.Current_Directory>
/home/itssahil/PROJECTS/Mol_Feturizer/New_Systems/rnas/4E8N

>  <Rbt.Executable>
rbdock ($Id: //depot/dev/client3/rdock/2013.1/src/exe/rbdock.cxx#4 $)

>  <Rbt.Library>
libRbt.so (2013.1, Build901 2013/11/27)

>  <Rbt.Parameter_File>
/export/apps/rDock/src/rDock_2013.1_src/data/scripts/dock_solv.prm

>  <Rbt.Receptor>
prm/pocket_docking_6.prm

>  <SCORE>
-11.9757

>  <SCORE.INTER>
-8.70244

>  <SCORE.INTER.CONST>
1

>  <SCORE.INTER.POLAR>
0

>  <SCORE.INTER.ROT>
3

>  <SCORE.INTER.SOLV>
7.46245

>  <SCORE.INTER.VDW>
-13.8891

>  <SCORE.INTER.norm>
-0.725203

>  <SCORE.INTRA>
-3.27326

>  <SCORE.INTRA.DIHEDRAL>
-2.56153

>  <SCORE.INTRA.DIHEDRAL.0>
5.0186

>  <SCORE.INTRA.POLAR>
0

>  <SCORE.INTRA.POLAR.0>
0

>  <SCORE.INTRA.REPUL>
0

>  <SCORE.INTRA.REPUL.0>
0

>  <SCORE.INTRA.SOLV>
-0.0161318

>  <SCORE.INTRA.SOLV.lig_0>
-16.1608

>  <SCORE.INTRA.VDW>
-1.98443

>  <SCORE.INTRA.VDW.0>
1.14169

>  <SCORE.INTRA.norm>
-0.272771

>  <SCORE.RESTR>
0

>  <SCORE.RESTR.CAVITY>
0

>  <SCORE.RESTR.norm>
0

>  <SCORE.SYSTEM>
0

>  <SCORE.SYSTEM.CONST>
0

>  <SCORE.SYSTEM.DIHEDRAL>
0

>  <SCORE.SYSTEM.SOLV>
0

>  <SCORE.SYSTEM.norm>
0

>  <SCORE.heavy>
12

>  <SCORE.norm>
-0.997975

>  <RMSD>
5.582

$$$$
ligand
 OpenBabel11021811493D
libRbt.so/2013.1/901 2013/11/27
 12 12  0  0  0  0  0  0  0  0999 V2000
   31.0740  -22.9951    5.0876 N   0  0  0  0  0  0  0  0  0  0  0  0
   29.9542  -22.9010    2.2318 O   0  0  0  0  0  0  0  0  0  0  0  0
   32.4946  -23.0526    4.6641 C   0  0  0  0  0  0  0  0  0  0  0  0
   29.5090  -24.9748    1.1960 O   0  0  0  0  0  0  0  0  0  0  0  0
   33.0771  -21.6453    4.7439 C   0  0  0  0  0  0  0  0  0  0  0  0
   27.7928  -23.9564    2.6285 O   0  0  0  0  0  0  0  0  0  0  0  0
   33.0766  -21.1924    6.1382 N   0  0  0  0  0  0  0  0  0  0  0  0
   32.4613  -22.2405    6.9561 C   0  0  0  0  0  0  0  0  0  0  0  0
   31.0414  -22.4196    6.4465 C   0  0  0  0  0  0  0  0  0  0  0  0
   30.3145  -24.3071    5.0320 C   0  0  0  0  0  0  0  0  0  0  0  0
   30.2141  -24.9937    3.6447 C   0  0  0  0  0  0  0  0  0  0  0  0
   29.3788  -24.2023    2.4041 S   0  0  0  0  0  0  0  0  0  0  0  0
  1  3  1  0  0  0  0
  1  9  1  0  0  0  0
  1 10  1  0  0  0  0
  2 12  1  0  0  0  0
  3  5  1  0  0  0  0
  4 12  2  0  0  0  0
  5  7  1  0  0  0  0
  6 12  2  0  0  0  0
  7  8  1  0  0  0  0
  8  9  1  0  0  0  0
 10 11  1  0  0  0  0
 11 12  1  0  0  0  0
M  END
>  <CHROM.1>
-59.74246120,-63.82222161,55.48770547,30.67115126,-23.35225033,4.02052039
0.76442389,0.58672124,1.55196619

>  <Name>
ligand

>  <RI>
0

>  <Rbt.Current_Directory>
/home/itssahil/PROJECTS/Mol_Feturizer/New_Systems/rnas/4E8N

>  <Rbt.Executable>
rbdock ($Id: //depot/dev/client3/rdock/2013.1/src/exe/rbdock.cxx#4 $)

>  <Rbt.Library>
libRbt.so (2013.1, Build901 2013/11/27)

>  <Rbt.Parameter_File>
/export/apps/rDock/src/rDock_2013.1_src/data/scripts/dock_solv.prm

>  <Rbt.Receptor>
prm/pocket_docking_8.prm

>  <SCORE>
-11.963

>  <SCORE.INTER>
-7.44278

>  <SCORE.INTER.CONST>
1

>  <SCORE.INTER.POLAR>
0

>  <SCORE.INTER.ROT>
3

>  <SCORE.INTER.SOLV>
5.36835

>  <SCORE.INTER.VDW>
-12.3513

>  <SCORE.INTER.norm>
-0.620232

>  <SCORE.INTRA>
-4.52017

>  <SCORE.INTRA.DIHEDRAL>
-4.91314

>  <SCORE.INTRA.DIHEDRAL.0>
5.0186

>  <SCORE.INTRA.POLAR>
0

>  <SCORE.INTRA.POLAR.0>
0

>  <SCORE.INTRA.REPUL>
0

>  <SCORE.INTRA.REPUL.0>
0

>  <SCORE.INTRA.SOLV>
-0.014137

>  <SCORE.INTRA.SOLV.lig_0>
-16.1608

>  <SCORE.INTRA.VDW>
-2.05653

>  <SCORE.INTRA.VDW.0>
1.14169

>  <SCORE.INTRA.norm>
-0.376681

>  <SCORE.RESTR>
0

>  <SCORE.RESTR.CAVITY>
0

>  <SCORE.RESTR.norm>
0

>  <SCORE.SYSTEM>
0

>  <SCORE.SYSTEM.CONST>
0

>  <SCORE.SYSTEM.DIHEDRAL>
0

>  <SCORE.SYSTEM.SOLV>
0

>  <SCORE.SYSTEM.norm>
0

>  <SCORE.heavy>
12

>  <SCORE.norm>
-0.996913

>  <RMSD>
5.582

$$$$
ligand
 OpenBabel11021811493D
libRbt.so/2013.1/901 2013/11/27
 12 12  0  0  0  0  0  0  0  0999 V2000
   31.2299  -22.1855    6.4633 N   0  0  0  0  0  0  0  0  0  0  0  0
   29.7608  -24.9778    5.6393 O   0  0  0  0  0  0  0  0  0  0  0  0
   30.6510  -20.8263    6.3283 C   0  0  0  0  0  0  0  0  0  0  0  0
   29.1201  -24.9628    3.3675 O   0  0  0  0  0  0  0  0  0  0  0  0
   30.0336  -20.4319    7.6661 C   0  0  0  0  0  0  0  0  0  0  0  0
   31.2070  -26.0837    4.0181 O   0  0  0  0  0  0  0  0  0  0  0  0
   31.0854  -20.3370    8.6828 N   0  0  0  0  0  0  0  0  0  0  0  0
   32.3565  -20.7113    8.0580 C   0  0  0  0  0  0  0  0  0  0  0  0
   32.2034  -22.1425    7.5722 C   0  0  0  0  0  0  0  0  0  0  0  0
   31.8566  -22.7642    5.2089 C   0  0  0  0  0  0  0  0  0  0  0  0
   30.8808  -23.2810    4.1195 C   0  0  0  0  0  0  0  0  0  0  0  0
   30.2181  -24.8287    4.2893 S   0  0  0  0  0  0  0  0  0  0  0  0
  1  3  1  0  0  0  0
  1  9  1  0  0  0  0
  1 10  1  0  0  0  0
  2 12  1  0  0  0  0
  3  5  1  0  0  0  0
  4 12  2  0  0  0  0
  5  7  1  0  0  0  0
  6 12  2  0  0  0  0
  7  8  1  0  0  0  0
  8  9  1  0  0  0  0
 10 11  1  0  0  0  0
 11 12  1  0  0  0  0
M  END
>  <CHROM.1>
-75.66920112,-81.84812926,46.07896165,30.79482344,-23.06396740,5.74532260
-1.36207493,0.34606308,-2.50636650

>  <Name>
ligand

>  <RI>
0

>  <Rbt.Current_Directory>
/home/itssahil/PROJECTS/Mol_Feturizer/New_Systems/rnas/4E8N

>  <Rbt.Executable>
rbdock ($Id: //depot/dev/client3/rdock/2013.1/src/exe/rbdock.cxx#4 $)

>  <Rbt.Library>
libRbt.so (2013.1, Build901 2013/11/27)

>  <Rbt.Parameter_File>
/export/apps/rDock/src/rDock_2013.1_src/data/scripts/dock_solv.prm

>  <Rbt.Receptor>
prm/pocket_docking_5.prm

>  <SCORE>
-11.9545

>  <SCORE.INTER>
-8.68566

>  <SCORE.INTER.CONST>
1

>  <SCORE.INTER.POLAR>
0

>  <SCORE.INTER.ROT>
3

>  <SCORE.INTER.SOLV>
7.52822

>  <SCORE.INTER.VDW>
-13.8998

>  <SCORE.INTER.norm>
-0.723805

>  <SCORE.INTRA>
-3.26888

>  <SCORE.INTRA.DIHEDRAL>
-2.50784

>  <SCORE.INTRA.DIHEDRAL.0>
5.0186

>  <SCORE.INTRA.POLAR>
0

>  <SCORE.INTRA.POLAR.0>
0

>  <SCORE.INTRA.REPUL>
0

>  <SCORE.INTRA.REPUL.0>
0

>  <SCORE.INTRA.SOLV>
-0.0192622

>  <SCORE.INTRA.SOLV.lig_0>
-16.1608

>  <SCORE.INTRA.VDW>
-2.00533

>  <SCORE.INTRA.VDW.0>
1.14169

>  <SCORE.INTRA.norm>
-0.272407

>  <SCORE.RESTR>
0

>  <SCORE.RESTR.CAVITY>
0

>  <SCORE.RESTR.norm>
0

>  <SCORE.SYSTEM>
0

>  <SCORE.SYSTEM.CONST>
0

>  <SCORE.SYSTEM.DIHEDRAL>
0

>  <SCORE.SYSTEM.SOLV>
0

>  <SCORE.SYSTEM.norm>
0

>  <SCORE.heavy>
12

>  <SCORE.norm>
-0.996212

>  <RMSD>
5.585

$$$$
ligand
 OpenBabel11021811493D
libRbt.so/2013.1/901 2013/11/27
 12 12  0  0  0  0  0  0  0  0999 V2000
   30.6021  -22.0572    5.4202 N   0  0  0  0  0  0  0  0  0  0  0  0
   29.5301  -25.0277    4.9784 O   0  0  0  0  0  0  0  0  0  0  0  0
   31.0420  -20.7214    5.8923 C   0  0  0  0  0  0  0  0  0  0  0  0
   28.6020  -25.4290    2.8455 O   0  0  0  0  0  0  0  0  0  0  0  0
   30.6443  -20.5745    7.3574 C   0  0  0  0  0  0  0  0  0  0  0  0
   31.0082  -25.7817    3.1925 O   0  0  0  0  0  0  0  0  0  0  0  0
   31.3699  -21.5605    8.1640 N   0  0  0  0  0  0  0  0  0  0  0  0
   32.1831  -22.3772    7.2597 C   0  0  0  0  0  0  0  0  0  0  0  0
   31.2229  -23.0639    6.3036 C   0  0  0  0  0  0  0  0  0  0  0  0
   30.8789  -22.3664    3.9611 C   0  0  0  0  0  0  0  0  0  0  0  0
   29.8187  -23.2212    3.2187 C   0  0  0  0  0  0  0  0  0  0  0  0
   29.7185  -24.8743    3.5660 S   0  0  0  0  0  0  0  0  0  0  0  0
  1  3  1  0  0  0  0
  1  9  1  0  0  0  0
  1 10  1  0  0  0  0
  2 12  1  0  0  0  0
  3  5  1  0  0  0  0
  4 12  2  0  0  0  0
  5  7  1  0  0  0  0
  6 12  2  0  0  0  0
  7  8  1  0  0  0  0
  8  9  1  0  0  0  0
 10 11  1  0  0  0  0
 11 12  1  0  0  0  0
M  END
>  <CHROM.1>
-144.61416109,-73.36184561,55.27794397,30.44765644,-23.32734766,4.98179100
0.77755891,-1.15363336,0.04050792

>  <Name>
ligand

>  <RI>
0

>  <Rbt.Current_Directory>
/home/itssahil/PROJECTS/Mol_Feturizer/New_Systems/rnas/4E8N

>  <Rbt.Executable>
rbdock ($Id: //depot/dev/client3/rdock/2013.1/src/exe/rbdock.cxx#4 $)

>  <Rbt.Library>
libRbt.so (2013.1, Build901 2013/11/27)

>  <Rbt.Parameter_File>
/export/apps/rDock/src/rDock_2013.1_src/data/scripts/dock_solv.prm

>  <Rbt.Receptor>
prm/pocket_docking_4.prm

>  <SCORE>
-11.368

>  <SCORE.INTER>
-7.80294

>  <SCORE.INTER.CONST>
1

>  <SCORE.INTER.POLAR>
0

>  <SCORE.INTER.ROT>
3

>  <SCORE.INTER.SOLV>
7.71672

>  <SCORE.INTER.VDW>
-13.3742

>  <SCORE.INTER.norm>
-0.650245

>  <SCORE.INTRA>
-3.56505

>  <SCORE.INTRA.DIHEDRAL>
-2.87492

>  <SCORE.INTRA.DIHEDRAL.0>
5.0186

>  <SCORE.INTRA.POLAR>
0

>  <SCORE.INTRA.POLAR.0>
0

>  <SCORE.INTRA.REPUL>
0

>  <SCORE.INTRA.REPUL.0>
0

>  <SCORE.INTRA.SOLV>
-0.018125

>  <SCORE.INTRA.SOLV.lig_0>
-16.1608

>  <SCORE.INTRA.VDW>
-2.11853

>  <SCORE.INTRA.VDW.0>
1.14169

>  <SCORE.INTRA.norm>
-0.297088

>  <SCORE.RESTR>
0

>  <SCORE.RESTR.CAVITY>
0

>  <SCORE.RESTR.norm>
0

>  <SCORE.SYSTEM>
0

>  <SCORE.SYSTEM.CONST>
0

>  <SCORE.SYSTEM.DIHEDRAL>
0

>  <SCORE.SYSTEM.SOLV>
0

>  <SCORE.SYSTEM.norm>
0

>  <SCORE.heavy>
12

>  <SCORE.norm>
-0.947333

>  <RMSD>
5.590

$$$$
ligand
 OpenBabel11021811493D
libRbt.so/2013.1/901 2013/11/27
 12 12  0  0  0  0  0  0  0  0999 V2000
   31.0566  -22.9776    5.0413 N   0  0  0  0  0  0  0  0  0  0  0  0
   29.9708  -22.9226    2.1814 O   0  0  0  0  0  0  0  0  0  0  0  0
   32.5015  -23.0519    4.7130 C   0  0  0  0  0  0  0  0  0  0  0  0
   29.5246  -25.0074    1.1682 O   0  0  0  0  0  0  0  0  0  0  0  0
   33.0784  -21.6408    4.7610 C   0  0  0  0  0  0  0  0  0  0  0  0
   27.8006  -23.9621    2.5716 O   0  0  0  0  0  0  0  0  0  0  0  0
   32.9887  -21.1204    6.1285 N   0  0  0  0  0  0  0  0  0  0  0  0
   32.3217  -22.1289    6.9557 C   0  0  0  0  0  0  0  0  0  0  0  0
   30.9373  -22.3364    6.3656 C   0  0  0  0  0  0  0  0  0  0  0  0
   30.3016  -24.2927    5.0015 C   0  0  0  0  0  0  0  0  0  0  0  0
   30.2071  -24.9983    3.6233 C   0  0  0  0  0  0  0  0  0  0  0  0
   29.3873  -24.2187    2.3650 S   0  0  0  0  0  0  0  0  0  0  0  0
  1  3  1  0  0  0  0
  1  9  1  0  0  0  0
  1 10  1  0  0  0  0
  2 12  1  0  0  0  0
  3  5  1  0  0  0  0
  4 12  2  0  0  0  0
  5  7  1  0  0  0  0
  6 12  2  0  0  0  0
  7  8  1  0  0  0  0
  8  9  1  0  0  0  0
 10 11  1  0  0  0  0
 11 12  1  0  0  0  0
M  END
>  <CHROM.1>
-63.81259101,-63.15218809,55.32318144,30.64960308,-23.33813440,3.99376393
0.80146977,0.56840530,1.49621629

>  <Name>
ligand

>  <RI>
0

>  <Rbt.Current_Directory>
/home/itssahil/PROJECTS/Mol_Feturizer/New_Systems/rnas/4E8N

>  <Rbt.Executable>
rbdock ($Id: //depot/dev/client3/rdock/2013.1/src/exe/rbdock.cxx#4 $)

>  <Rbt.Library>
libRbt.so (2013.1, Build901 2013/11/27)

>  <Rbt.Parameter_File>
/export/apps/rDock/src/rDock_2013.1_src/data/scripts/dock_solv.prm

>  <Rbt.Receptor>
prm/pocket_docking_6.prm

>  <SCORE>
-11.8521

>  <SCORE.INTER>
-7.28189

>  <SCORE.INTER.CONST>
1

>  <SCORE.INTER.POLAR>
0

>  <SCORE.INTER.ROT>
3

>  <SCORE.INTER.SOLV>
5.07674

>  <SCORE.INTER.VDW>
-12.1468

>  <SCORE.INTER.norm>
-0.606824

>  <SCORE.INTRA>
-4.57022

>  <SCORE.INTRA.DIHEDRAL>
-4.88468

>  <SCORE.INTRA.DIHEDRAL.0>
5.0186

>  <SCORE.INTRA.POLAR>
0

>  <SCORE.INTRA.POLAR.0>
0

>  <SCORE.INTRA.REPUL>
0

>  <SCORE.INTRA.REPUL.0>
0

>  <SCORE.INTRA.SOLV>
-0.00679636

>  <SCORE.INTRA.SOLV.lig_0>
-16.1608

>  <SCORE.INTRA.VDW>
-2.12448

>  <SCORE.INTRA.VDW.0>
1.14169

>  <SCORE.INTRA.norm>
-0.380852

>  <SCORE.RESTR>
0

>  <SCORE.RESTR.CAVITY>
0

>  <SCORE.RESTR.norm>
0

>  <SCORE.SYSTEM>
0

>  <SCORE.SYSTEM.CONST>
0

>  <SCORE.SYSTEM.DIHEDRAL>
0

>  <SCORE.SYSTEM.SOLV>
0

>  <SCORE.SYSTEM.norm>
0

>  <SCORE.heavy>
12

>  <SCORE.norm>
-0.987676

>  <RMSD>
5.598

$$$$
ligand
 OpenBabel11021811493D
libRbt.so/2013.1/901 2013/11/27
 12 12  0  0  0  0  0  0  0  0999 V2000
   31.0947  -23.0060    5.1158 N   0  0  0  0  0  0  0  0  0  0  0  0
   29.6632  -24.8963    1.1878 O   0  0  0  0  0  0  0  0  0  0  0  0
   32.5276  -23.1039    4.7440 C   0  0  0  0  0  0  0  0  0  0  0  0
   28.0819  -23.9775    2.6802 O   0  0  0  0  0  0  0  0  0  0  0  0
   33.1409  -21.7097    4.8225 C   0  0  0  0  0  0  0  0  0  0  0  0
   30.0641  -22.6601    2.0720 O   0  0  0  0  0  0  0  0  0  0  0  0
   33.1023  -21.2340    6.2086 N   0  0  0  0  0  0  0  0  0  0  0  0
   32.4334  -22.2537    7.0204 C   0  0  0  0  0  0  0  0  0  0  0  0
   31.0284  -22.4076    6.4636 C   0  0  0  0  0  0  0  0  0  0  0  0
   30.3062  -24.3003    5.0538 C   0  0  0  0  0  0  0  0  0  0  0  0
   30.2042  -24.9862    3.6662 C   0  0  0  0  0  0  0  0  0  0  0  0
   29.4832  -24.1390    2.3912 S   0  0  0  0  0  0  0  0  0  0  0  0
  1  3  1  0  0  0  0
  1  9  1  0  0  0  0
  1 10  1  0  0  0  0
  2 12  1  0  0  0  0
  3  5  1  0  0  0  0
  4 12  2  0  0  0  0
  5  7  1  0  0  0  0
  6 12  2  0  0  0  0
  7  8  1  0  0  0  0
  8  9  1  0  0  0  0
 10 11  1  0  0  0  0
 11 12  1  0  0  0  0
M  END
>  <CHROM.1>
-61.42007129,-60.14803341,172.49866492,30.74074347,-23.32816318,4.03653427
0.75563186,0.64821902,1.62661311

>  <Name>
ligand

>  <RI>
0

>  <Rbt.Current_Directory>
/home/itssahil/PROJECTS/Mol_Feturizer/New_Systems/rnas/4E8N

>  <Rbt.Executable>
rbdock ($Id: //depot/dev/client3/rdock/2013.1/src/exe/rbdock.cxx#4 $)

>  <Rbt.Library>
libRbt.so (2013.1, Build901 2013/11/27)

>  <Rbt.Parameter_File>
/export/apps/rDock/src/rDock_2013.1_src/data/scripts/dock_solv.prm

>  <Rbt.Receptor>
prm/pocket_docking_8.prm

>  <SCORE>
-11.6704

>  <SCORE.INTER>
-7.43016

>  <SCORE.INTER.CONST>
1

>  <SCORE.INTER.POLAR>
0

>  <SCORE.INTER.ROT>
3

>  <SCORE.INTER.SOLV>
5.45542

>  <SCORE.INTER.VDW>
-12.3719

>  <SCORE.INTER.norm>
-0.61918

>  <SCORE.INTRA>
-4.24028

>  <SCORE.INTRA.DIHEDRAL>
-4.87365

>  <SCORE.INTRA.DIHEDRAL.0>
5.0186

>  <SCORE.INTRA.POLAR>
0

>  <SCORE.INTRA.POLAR.0>
0

>  <SCORE.INTRA.REPUL>
0

>  <SCORE.INTRA.REPUL.0>
0

>  <SCORE.INTRA.SOLV>
0.764211

>  <SCORE.INTRA.SOLV.lig_0>
-16.1608

>  <SCORE.INTRA.VDW>
-2.18556

>  <SCORE.INTRA.VDW.0>
1.14169

>  <SCORE.INTRA.norm>
-0.353357

>  <SCORE.RESTR>
0

>  <SCORE.RESTR.CAVITY>
0

>  <SCORE.RESTR.norm>
0

>  <SCORE.SYSTEM>
0

>  <SCORE.SYSTEM.CONST>
0

>  <SCORE.SYSTEM.DIHEDRAL>
0

>  <SCORE.SYSTEM.SOLV>
0

>  <SCORE.SYSTEM.norm>
0

>  <SCORE.heavy>
12

>  <SCORE.norm>
-0.972536

>  <RMSD>
5.602

$$$$
ligand
 OpenBabel11021811493D
libRbt.so/2013.1/901 2013/11/27
 12 12  0  0  0  0  0  0  0  0999 V2000
   31.3099  -21.3189    6.3964 N   0  0  0  0  0  0  0  0  0  0  0  0
   29.5238  -25.4225    5.5231 O   0  0  0  0  0  0  0  0  0  0  0  0
   31.5196  -21.3837    7.8636 C   0  0  0  0  0  0  0  0  0  0  0  0
   29.4352  -24.3628    3.4157 O   0  0  0  0  0  0  0  0  0  0  0  0
   32.4346  -20.2330    8.2695 C   0  0  0  0  0  0  0  0  0  0  0  0
   31.1305  -26.0947    3.8175 O   0  0  0  0  0  0  0  0  0  0  0  0
   31.7662  -18.9563    8.0007 N   0  0  0  0  0  0  0  0  0  0  0  0
   30.4695  -19.2437    7.3826 C   0  0  0  0  0  0  0  0  0  0  0  0
   30.7540  -19.9866    6.0884 C   0  0  0  0  0  0  0  0  0  0  0  0
   30.4511  -22.4194    5.8025 C   0  0  0  0  0  0  0  0  0  0  0  0
   31.1981  -23.5679    5.0754 C   0  0  0  0  0  0  0  0  0  0  0  0
   30.2977  -24.8599    4.4561 S   0  0  0  0  0  0  0  0  0  0  0  0
  1  3  1  0  0  0  0
  1  9  1  0  0  0  0
  1 10  1  0  0  0  0
  2 12  1  0  0  0  0
  3  5  1  0  0  0  0
  4 12  2  0  0  0  0
  5  7  1  0  0  0  0
  6 12  2  0  0  0  0
  7  8  1  0  0  0  0
  8  9  1  0  0  0  0
 10 11  1  0  0  0  0
 11 12  1  0  0  0  0
M  END
>  <CHROM.1>
-102.06057481,177.17884956,-55.65348770,30.77937037,-22.65093877,5.80777147
-1.27423824,0.86747373,-2.81714959

>  <Name>
ligand

>  <RI>
0

>  <Rbt.Current_Directory>
/home/itssahil/PROJECTS/Mol_Feturizer/New_Systems/rnas/4E8N

>  <Rbt.Executable>
rbdock ($Id: //depot/dev/client3/rdock/2013.1/src/exe/rbdock.cxx#4 $)

>  <Rbt.Library>
libRbt.so (2013.1, Build901 2013/11/27)

>  <Rbt.Parameter_File>
/export/apps/rDock/src/rDock_2013.1_src/data/scripts/dock_solv.prm

>  <Rbt.Receptor>
prm/pocket_docking_7.prm

>  <SCORE>
-11.0617

>  <SCORE.INTER>
-7.6927

>  <SCORE.INTER.CONST>
1

>  <SCORE.INTER.POLAR>
0

>  <SCORE.INTER.ROT>
3

>  <SCORE.INTER.SOLV>
4.92857

>  <SCORE.INTER.VDW>
-12.3713

>  <SCORE.INTER.norm>
-0.641058

>  <SCORE.INTRA>
-3.36904

>  <SCORE.INTRA.DIHEDRAL>
-2.95956

>  <SCORE.INTRA.DIHEDRAL.0>
5.0186

>  <SCORE.INTRA.POLAR>
0

>  <SCORE.INTRA.POLAR.0>
0

>  <SCORE.INTRA.REPUL>
0

>  <SCORE.INTRA.REPUL.0>
0

>  <SCORE.INTRA.SOLV>
-0.124186

>  <SCORE.INTRA.SOLV.lig_0>
-16.1608

>  <SCORE.INTRA.VDW>
-1.82716

>  <SCORE.INTRA.VDW.0>
1.14169

>  <SCORE.INTRA.norm>
-0.280753

>  <SCORE.RESTR>
0

>  <SCORE.RESTR.CAVITY>
0

>  <SCORE.RESTR.norm>
0

>  <SCORE.SYSTEM>
0

>  <SCORE.SYSTEM.CONST>
0

>  <SCORE.SYSTEM.DIHEDRAL>
0

>  <SCORE.SYSTEM.SOLV>
0

>  <SCORE.SYSTEM.norm>
0

>  <SCORE.heavy>
12

>  <SCORE.norm>
-0.921811

>  <RMSD>
5.610

$$$$
ligand
 OpenBabel11021811493D
libRbt.so/2013.1/901 2013/11/27
 12 12  0  0  0  0  0  0  0  0999 V2000
   31.0635  -22.1238    6.1184 N   0  0  0  0  0  0  0  0  0  0  0  0
   29.0192  -25.0965    3.1880 O   0  0  0  0  0  0  0  0  0  0  0  0
   30.8199  -20.6607    6.0875 C   0  0  0  0  0  0  0  0  0  0  0  0
   31.1577  -25.8352    3.8608 O   0  0  0  0  0  0  0  0  0  0  0  0
   30.1497  -20.2573    7.3968 C   0  0  0  0  0  0  0  0  0  0  0  0
   29.5184  -25.1887    5.5723 O   0  0  0  0  0  0  0  0  0  0  0  0
   31.0671  -20.5029    8.5136 N   0  0  0  0  0  0  0  0  0  0  0  0
   32.2893  -21.1039    7.9739 C   0  0  0  0  0  0  0  0  0  0  0  0
   31.8825  -22.4098    7.3127 C   0  0  0  0  0  0  0  0  0  0  0  0
   31.6920  -22.7154    4.8709 C   0  0  0  0  0  0  0  0  0  0  0  0
   30.7213  -23.3247    3.8258 C   0  0  0  0  0  0  0  0  0  0  0  0
   30.1074  -24.8785    4.0947 S   0  0  0  0  0  0  0  0  0  0  0  0
  1  3  1  0  0  0  0
  1  9  1  0  0  0  0
  1 10  1  0  0  0  0
  2 12  1  0  0  0  0
  3  5  1  0  0  0  0
  4 12  2  0  0  0  0
  5  7  1  0  0  0  0
  6 12  2  0  0  0  0
  7  8  1  0  0  0  0
  8  9  1  0  0  0  0
 10 11  1  0  0  0  0
 11 12  1  0  0  0  0
M  END
>  <CHROM.1>
-95.38828695,-79.83949932,166.69972748,30.69905010,-23.11081159,5.53341447
1.28515596,-0.72313426,0.51600095

>  <Name>
ligand

>  <RI>
0

>  <Rbt.Current_Directory>
/home/itssahil/PROJECTS/Mol_Feturizer/New_Systems/rnas/4E8N

>  <Rbt.Executable>
rbdock ($Id: //depot/dev/client3/rdock/2013.1/src/exe/rbdock.cxx#4 $)

>  <Rbt.Library>
libRbt.so (2013.1, Build901 2013/11/27)

>  <Rbt.Parameter_File>
/export/apps/rDock/src/rDock_2013.1_src/data/scripts/dock_solv.prm

>  <Rbt.Receptor>
prm/pocket_docking_6.prm

>  <SCORE>
-10.5633

>  <SCORE.INTER>
-7.77387

>  <SCORE.INTER.CONST>
1

>  <SCORE.INTER.POLAR>
0

>  <SCORE.INTER.ROT>
3

>  <SCORE.INTER.SOLV>
8.5753

>  <SCORE.INTER.VDW>
-13.641

>  <SCORE.INTER.norm>
-0.647822

>  <SCORE.INTRA>
-2.78944

>  <SCORE.INTRA.DIHEDRAL>
-1.6365

>  <SCORE.INTRA.DIHEDRAL.0>
5.0186

>  <SCORE.INTRA.POLAR>
0

>  <SCORE.INTRA.POLAR.0>
0

>  <SCORE.INTRA.REPUL>
0

>  <SCORE.INTRA.REPUL.0>
0

>  <SCORE.INTRA.SOLV>
0.47705

>  <SCORE.INTRA.SOLV.lig_0>
-16.1608

>  <SCORE.INTRA.VDW>
-2.20972

>  <SCORE.INTRA.VDW.0>
1.14169

>  <SCORE.INTRA.norm>
-0.232454

>  <SCORE.RESTR>
0

>  <SCORE.RESTR.CAVITY>
0

>  <SCORE.RESTR.norm>
0

>  <SCORE.SYSTEM>
0

>  <SCORE.SYSTEM.CONST>
0

>  <SCORE.SYSTEM.DIHEDRAL>
0

>  <SCORE.SYSTEM.SOLV>
0

>  <SCORE.SYSTEM.norm>
0

>  <SCORE.heavy>
12

>  <SCORE.norm>
-0.880276

>  <RMSD>
5.623

$$$$
ligand
 OpenBabel11021811493D
libRbt.so/2013.1/901 2013/11/27
 12 12  0  0  0  0  0  0  0  0999 V2000
   31.1527  -22.8229    5.1183 N   0  0  0  0  0  0  0  0  0  0  0  0
   28.2349  -23.8217    2.7142 O   0  0  0  0  0  0  0  0  0  0  0  0
   32.6207  -22.9480    4.9443 C   0  0  0  0  0  0  0  0  0  0  0  0
   30.3131  -22.8579    2.1450 O   0  0  0  0  0  0  0  0  0  0  0  0
   33.2283  -21.5492    4.9676 C   0  0  0  0  0  0  0  0  0  0  0  0
   29.5823  -24.9008    0.9929 O   0  0  0  0  0  0  0  0  0  0  0  0
   33.0157  -20.9438    6.2857 N   0  0  0  0  0  0  0  0  0  0  0  0
   32.2414  -21.8851    7.0985 C   0  0  0  0  0  0  0  0  0  0  0  0
   30.9183  -22.0991    6.3833 C   0  0  0  0  0  0  0  0  0  0  0  0
   30.3698  -24.1216    5.0793 C   0  0  0  0  0  0  0  0  0  0  0  0
   30.3211  -24.8630    3.7177 C   0  0  0  0  0  0  0  0  0  0  0  0
   29.6065  -24.0874    2.3944 S   0  0  0  0  0  0  0  0  0  0  0  0
  1  3  1  0  0  0  0
  1  9  1  0  0  0  0
  1 10  1  0  0  0  0
  2 12  1  0  0  0  0
  3  5  1  0  0  0  0
  4 12  2  0  0  0  0
  5  7  1  0  0  0  0
  6 12  2  0  0  0  0
  7  8  1  0  0  0  0
  8  9  1  0  0  0  0
 10 11  1  0  0  0  0
 11 12  1  0  0  0  0
M  END
>  <CHROM.1>
-67.55425106,-61.86533999,-60.83399166,30.79024307,-23.19442914,4.06620126
0.87376390,0.56948582,1.44612088

>  <Name>
ligand

>  <RI>
0

>  <Rbt.Current_Directory>
/home/itssahil/PROJECTS/Mol_Feturizer/New_Systems/rnas/4E8N

>  <Rbt.Executable>
rbdock ($Id: //depot/dev/client3/rdock/2013.1/src/exe/rbdock.cxx#4 $)

>  <Rbt.Library>
libRbt.so (2013.1, Build901 2013/11/27)

>  <Rbt.Parameter_File>
/export/apps/rDock/src/rDock_2013.1_src/data/scripts/dock_solv.prm

>  <Rbt.Receptor>
prm/pocket_docking_8.prm

>  <SCORE>
-11.6702

>  <SCORE.INTER>
-7.32058

>  <SCORE.INTER.CONST>
1

>  <SCORE.INTER.POLAR>
0

>  <SCORE.INTER.ROT>
3

>  <SCORE.INTER.SOLV>
4.59281

>  <SCORE.INTER.VDW>
-12.0113

>  <SCORE.INTER.norm>
-0.610049

>  <SCORE.INTRA>
-4.34965

>  <SCORE.INTRA.DIHEDRAL>
-4.87103

>  <SCORE.INTRA.DIHEDRAL.0>
5.0186

>  <SCORE.INTRA.POLAR>
0

>  <SCORE.INTRA.POLAR.0>
0

>  <SCORE.INTRA.REPUL>
0

>  <SCORE.INTRA.REPUL.0>
0

>  <SCORE.INTRA.SOLV>
0.554547

>  <SCORE.INTRA.SOLV.lig_0>
-16.1608

>  <SCORE.INTRA.VDW>
-2.19141

>  <SCORE.INTRA.VDW.0>
1.14169

>  <SCORE.INTRA.norm>
-0.362471

>  <SCORE.RESTR>
0

>  <SCORE.RESTR.CAVITY>
0

>  <SCORE.RESTR.norm>
0

>  <SCORE.SYSTEM>
0

>  <SCORE.SYSTEM.CONST>
0

>  <SCORE.SYSTEM.DIHEDRAL>
0

>  <SCORE.SYSTEM.SOLV>
0

>  <SCORE.SYSTEM.norm>
0

>  <SCORE.heavy>
12

>  <SCORE.norm>
-0.972519

>  <RMSD>
5.623

$$$$
ligand
 OpenBabel11021811493D
libRbt.so/2013.1/901 2013/11/27
 12 12  0  0  0  0  0  0  0  0999 V2000
   31.2317  -23.2391    5.4789 N   0  0  0  0  0  0  0  0  0  0  0  0
   28.4830  -23.4017    2.7406 O   0  0  0  0  0  0  0  0  0  0  0  0
   31.4658  -22.9873    6.9220 C   0  0  0  0  0  0  0  0  0  0  0  0
   30.7265  -23.0323    2.1065 O   0  0  0  0  0  0  0  0  0  0  0  0
   32.5821  -21.9566    7.0551 C   0  0  0  0  0  0  0  0  0  0  0  0
   29.4596  -24.8438    1.0350 O   0  0  0  0  0  0  0  0  0  0  0  0
   32.1453  -20.6827    6.4760 N   0  0  0  0  0  0  0  0  0  0  0  0
   30.8020  -20.8719    5.9229 C   0  0  0  0  0  0  0  0  0  0  0  0
   30.9145  -21.9417    4.8502 C   0  0  0  0  0  0  0  0  0  0  0  0
   30.1746  -24.2769    5.1523 C   0  0  0  0  0  0  0  0  0  0  0  0
   30.2481  -24.9246    3.7448 C   0  0  0  0  0  0  0  0  0  0  0  0
   29.7293  -24.0263    2.4080 S   0  0  0  0  0  0  0  0  0  0  0  0
  1  3  1  0  0  0  0
  1  9  1  0  0  0  0
  1 10  1  0  0  0  0
  2 12  1  0  0  0  0
  3  5  1  0  0  0  0
  4 12  2  0  0  0  0
  5  7  1  0  0  0  0
  6 12  2  0  0  0  0
  7  8  1  0  0  0  0
  8  9  1  0  0  0  0
 10 11  1  0  0  0  0
 11 12  1  0  0  0  0
M  END
>  <CHROM.1>
-158.93361681,-75.60914637,-45.34886253,30.54158650,-23.13336802,4.21741434
-0.09463120,1.15869527,2.73905844

>  <Name>
ligand

>  <RI>
0

>  <Rbt.Current_Directory>
/home/itssahil/PROJECTS/Mol_Feturizer/New_Systems/rnas/4E8N

>  <Rbt.Executable>
rbdock ($Id: //depot/dev/client3/rdock/2013.1/src/exe/rbdock.cxx#4 $)

>  <Rbt.Library>
libRbt.so (2013.1, Build901 2013/11/27)

>  <Rbt.Parameter_File>
/export/apps/rDock/src/rDock_2013.1_src/data/scripts/dock_solv.prm

>  <Rbt.Receptor>
prm/pocket_docking_5.prm

>  <SCORE>
-9.72273

>  <SCORE.INTER>
-6.35006

>  <SCORE.INTER.CONST>
1

>  <SCORE.INTER.POLAR>
0

>  <SCORE.INTER.ROT>
3

>  <SCORE.INTER.SOLV>
5.43476

>  <SCORE.INTER.VDW>
-11.645

>  <SCORE.INTER.norm>
-0.529172

>  <SCORE.INTRA>
-3.37266

>  <SCORE.INTRA.DIHEDRAL>
-3.0437

>  <SCORE.INTRA.DIHEDRAL.0>
5.0186

>  <SCORE.INTRA.POLAR>
0

>  <SCORE.INTRA.POLAR.0>
0

>  <SCORE.INTRA.REPUL>
0

>  <SCORE.INTRA.REPUL.0>
0

>  <SCORE.INTRA.SOLV>
0.379527

>  <SCORE.INTRA.SOLV.lig_0>
-16.1608

>  <SCORE.INTRA.VDW>
-2.04058

>  <SCORE.INTRA.VDW.0>
1.14169

>  <SCORE.INTRA.norm>
-0.281055

>  <SCORE.RESTR>
0

>  <SCORE.RESTR.CAVITY>
0

>  <SCORE.RESTR.norm>
0

>  <SCORE.SYSTEM>
0

>  <SCORE.SYSTEM.CONST>
0

>  <SCORE.SYSTEM.DIHEDRAL>
0

>  <SCORE.SYSTEM.SOLV>
0

>  <SCORE.SYSTEM.norm>
0

>  <SCORE.heavy>
12

>  <SCORE.norm>
-0.810227

>  <RMSD>
5.626

$$$$
ligand
 OpenBabel11021811493D
libRbt.so/2013.1/901 2013/11/27
 12 12  0  0  0  0  0  0  0  0999 V2000
   31.0273  -22.8772    5.1154 N   0  0  0  0  0  0  0  0  0  0  0  0
   28.0284  -24.0233    2.7254 O   0  0  0  0  0  0  0  0  0  0  0  0
   32.4704  -22.9866    4.7894 C   0  0  0  0  0  0  0  0  0  0  0  0
   30.0309  -22.8688    2.2468 O   0  0  0  0  0  0  0  0  0  0  0  0
   33.0756  -21.5868    4.8115 C   0  0  0  0  0  0  0  0  0  0  0  0
   29.5005  -24.9185    1.0008 O   0  0  0  0  0  0  0  0  0  0  0  0
   32.9961  -21.0393    6.1691 N   0  0  0  0  0  0  0  0  0  0  0  0
   32.3088  -22.0187    7.0144 C   0  0  0  0  0  0  0  0  0  0  0  0
   30.9206  -22.2093    6.4275 C   0  0  0  0  0  0  0  0  0  0  0  0
   30.2460  -24.1774    5.0995 C   0  0  0  0  0  0  0  0  0  0  0  0
   30.1711  -24.9266    3.7434 C   0  0  0  0  0  0  0  0  0  0  0  0
   29.4244  -24.1615    2.4317 S   0  0  0  0  0  0  0  0  0  0  0  0
  1  3  1  0  0  0  0
  1  9  1  0  0  0  0
  1 10  1  0  0  0  0
  2 12  1  0  0  0  0
  3  5  1  0  0  0  0
  4 12  2  0  0  0  0
  5  7  1  0  0  0  0
  6 12  2  0  0  0  0
  7  8  1  0  0  0  0
  8  9  1  0  0  0  0
 10 11  1  0  0  0  0
 11 12  1  0  0  0  0
M  END
>  <CHROM.1>
-62.16104872,-62.04820523,-66.65001890,30.66480912,-23.26891161,4.05155007
0.81542430,0.59686256,1.49712520

>  <Name>
ligand

>  <RI>
0

>  <Rbt.Current_Directory>
/home/itssahil/PROJECTS/Mol_Feturizer/New_Systems/rnas/4E8N

>  <Rbt.Executable>
rbdock ($Id: //depot/dev/client3/rdock/2013.1/src/exe/rbdock.cxx#4 $)

>  <Rbt.Library>
libRbt.so (2013.1, Build901 2013/11/27)

>  <Rbt.Parameter_File>
/export/apps/rDock/src/rDock_2013.1_src/data/scripts/dock_solv.prm

>  <Rbt.Receptor>
prm/pocket_docking_6.prm

>  <SCORE>
-11.6697

>  <SCORE.INTER>
-7.42394

>  <SCORE.INTER.CONST>
1

>  <SCORE.INTER.POLAR>
0

>  <SCORE.INTER.ROT>
3

>  <SCORE.INTER.SOLV>
4.48874

>  <SCORE.INTER.VDW>
-12.0455

>  <SCORE.INTER.norm>
-0.618662

>  <SCORE.INTRA>
-4.24572

>  <SCORE.INTRA.DIHEDRAL>
-4.87812

>  <SCORE.INTRA.DIHEDRAL.0>
5.0186

>  <SCORE.INTRA.POLAR>
0

>  <SCORE.INTRA.POLAR.0>
0

>  <SCORE.INTRA.REPUL>
0

>  <SCORE.INTRA.REPUL.0>
0

>  <SCORE.INTRA.SOLV>
0.599175

>  <SCORE.INTRA.SOLV.lig_0>
-16.1608

>  <SCORE.INTRA.VDW>
-2.10624

>  <SCORE.INTRA.VDW.0>
1.14169

>  <SCORE.INTRA.norm>
-0.35381

>  <SCORE.RESTR>
0

>  <SCORE.RESTR.CAVITY>
0

>  <SCORE.RESTR.norm>
0

>  <SCORE.SYSTEM>
0

>  <SCORE.SYSTEM.CONST>
0

>  <SCORE.SYSTEM.DIHEDRAL>
0

>  <SCORE.SYSTEM.SOLV>
0

>  <SCORE.SYSTEM.norm>
0

>  <SCORE.heavy>
12

>  <SCORE.norm>
-0.972472

>  <RMSD>
5.626

$$$$
ligand
 OpenBabel11021811493D
libRbt.so/2013.1/901 2013/11/27
 12 12  0  0  0  0  0  0  0  0999 V2000
   31.3678  -21.2705    6.8490 N   0  0  0  0  0  0  0  0  0  0  0  0
   29.4506  -25.2752    5.6705 O   0  0  0  0  0  0  0  0  0  0  0  0
   32.3138  -21.0559    7.9715 C   0  0  0  0  0  0  0  0  0  0  0  0
   29.2043  -24.4966    3.4559 O   0  0  0  0  0  0  0  0  0  0  0  0
   32.4082  -19.5576    8.2407 C   0  0  0  0  0  0  0  0  0  0  0  0
   31.3810  -25.3712    4.1849 O   0  0  0  0  0  0  0  0  0  0  0  0
   31.1064  -19.0572    8.6922 N   0  0  0  0  0  0  0  0  0  0  0  0
   30.1582  -20.1738    8.6710 C   0  0  0  0  0  0  0  0  0  0  0  0
   30.0808  -20.6581    7.2332 C   0  0  0  0  0  0  0  0  0  0  0  0
   31.1780  -22.7104    6.4111 C   0  0  0  0  0  0  0  0  0  0  0  0
   30.3081  -22.9438    5.1483 C   0  0  0  0  0  0  0  0  0  0  0  0
   30.0633  -24.5295    4.6109 S   0  0  0  0  0  0  0  0  0  0  0  0
  1  3  1  0  0  0  0
  1  9  1  0  0  0  0
  1 10  1  0  0  0  0
  2 12  1  0  0  0  0
  3  5  1  0  0  0  0
  4 12  2  0  0  0  0
  5  7  1  0  0  0  0
  6 12  2  0  0  0  0
  7  8  1  0  0  0  0
  8  9  1  0  0  0  0
 10 11  1  0  0  0  0
 11 12  1  0  0  0  0
M  END
>  <CHROM.1>
-173.92607000,179.90594381,58.48561445,30.66425236,-22.55768380,6.19621701
-1.36274560,0.08277124,-2.49395269

>  <Name>
ligand

>  <RI>
0

>  <Rbt.Current_Directory>
/home/itssahil/PROJECTS/Mol_Feturizer/New_Systems/rnas/4E8N

>  <Rbt.Executable>
rbdock ($Id: //depot/dev/client3/rdock/2013.1/src/exe/rbdock.cxx#4 $)

>  <Rbt.Library>
libRbt.so (2013.1, Build901 2013/11/27)

>  <Rbt.Parameter_File>
/export/apps/rDock/src/rDock_2013.1_src/data/scripts/dock_solv.prm

>  <Rbt.Receptor>
prm/pocket_docking_8.prm

>  <SCORE>
-13.5602

>  <SCORE.INTER>
-9.70003

>  <SCORE.INTER.CONST>
1

>  <SCORE.INTER.POLAR>
0

>  <SCORE.INTER.ROT>
3

>  <SCORE.INTER.SOLV>
5.73952

>  <SCORE.INTER.VDW>
-13.9799

>  <SCORE.INTER.norm>
-0.808336

>  <SCORE.INTRA>
-3.86018

>  <SCORE.INTRA.DIHEDRAL>
-4.97585

>  <SCORE.INTRA.DIHEDRAL.0>
5.0186

>  <SCORE.INTRA.POLAR>
0

>  <SCORE.INTRA.POLAR.0>
0

>  <SCORE.INTRA.REPUL>
0

>  <SCORE.INTRA.REPUL.0>
0

>  <SCORE.INTRA.SOLV>
-0.106769

>  <SCORE.INTRA.SOLV.lig_0>
-16.1608

>  <SCORE.INTRA.VDW>
-1.31887

>  <SCORE.INTRA.VDW.0>
1.14169

>  <SCORE.INTRA.norm>
-0.321682

>  <SCORE.RESTR>
0

>  <SCORE.RESTR.CAVITY>
0

>  <SCORE.RESTR.norm>
0

>  <SCORE.SYSTEM>
0

>  <SCORE.SYSTEM.CONST>
0

>  <SCORE.SYSTEM.DIHEDRAL>
0

>  <SCORE.SYSTEM.SOLV>
0

>  <SCORE.SYSTEM.norm>
0

>  <SCORE.heavy>
12

>  <SCORE.norm>
-1.13002

>  <RMSD>
5.633

$$$$
ligand
 OpenBabel11021811493D
libRbt.so/2013.1/901 2013/11/27
 12 12  0  0  0  0  0  0  0  0999 V2000
   31.4407  -21.0826    7.0064 N   0  0  0  0  0  0  0  0  0  0  0  0
   29.6357  -25.0537    5.5417 O   0  0  0  0  0  0  0  0  0  0  0  0
   32.3734  -20.9195    8.1485 C   0  0  0  0  0  0  0  0  0  0  0  0
   29.4590  -24.1534    3.3668 O   0  0  0  0  0  0  0  0  0  0  0  0
   32.4896  -19.4321    8.4655 C   0  0  0  0  0  0  0  0  0  0  0  0
   31.6253  -25.0217    4.1334 O   0  0  0  0  0  0  0  0  0  0  0  0
   31.1899  -18.9231    8.9138 N   0  0  0  0  0  0  0  0  0  0  0  0
   30.2232  -20.0216    8.8443 C   0  0  0  0  0  0  0  0  0  0  0  0
   30.1588  -20.4598    7.3911 C   0  0  0  0  0  0  0  0  0  0  0  0
   31.2328  -22.5047    6.5212 C   0  0  0  0  0  0  0  0  0  0  0  0
   30.4573  -22.6780    5.1891 C   0  0  0  0  0  0  0  0  0  0  0  0
   30.2720  -24.2348    4.5524 S   0  0  0  0  0  0  0  0  0  0  0  0
  1  3  1  0  0  0  0
  1  9  1  0  0  0  0
  1 10  1  0  0  0  0
  2 12  1  0  0  0  0
  3  5  1  0  0  0  0
  4 12  2  0  0  0  0
  5  7  1  0  0  0  0
  6 12  2  0  0  0  0
  7  8  1  0  0  0  0
  8  9  1  0  0  0  0
 10 11  1  0  0  0  0
 11 12  1  0  0  0  0
M  END
>  <CHROM.1>
-170.03255504,176.52798401,56.60142244,30.80299460,-22.32989206,6.25613332
-1.38804186,0.10905865,-2.44626266

>  <Name>
ligand

>  <RI>
0

>  <Rbt.Current_Directory>
/home/itssahil/PROJECTS/Mol_Feturizer/New_Systems/rnas/4E8N

>  <Rbt.Executable>
rbdock ($Id: //depot/dev/client3/rdock/2013.1/src/exe/rbdock.cxx#4 $)

>  <Rbt.Library>
libRbt.so (2013.1, Build901 2013/11/27)

>  <Rbt.Parameter_File>
/export/apps/rDock/src/rDock_2013.1_src/data/scripts/dock_solv.prm

>  <Rbt.Receptor>
prm/pocket_docking_3.prm

>  <SCORE>
-13.0158

>  <SCORE.INTER>
-9.12683

>  <SCORE.INTER.CONST>
1

>  <SCORE.INTER.POLAR>
0

>  <SCORE.INTER.ROT>
3

>  <SCORE.INTER.SOLV>
4.97426

>  <SCORE.INTER.VDW>
-13.3426

>  <SCORE.INTER.norm>
-0.760569

>  <SCORE.INTRA>
-3.88895

>  <SCORE.INTRA.DIHEDRAL>
-4.82762

>  <SCORE.INTRA.DIHEDRAL.0>
5.0186

>  <SCORE.INTRA.POLAR>
0

>  <SCORE.INTRA.POLAR.0>
0

>  <SCORE.INTRA.REPUL>
0

>  <SCORE.INTRA.REPUL.0>
0

>  <SCORE.INTRA.SOLV>
-0.112115

>  <SCORE.INTRA.SOLV.lig_0>
-16.1608

>  <SCORE.INTRA.VDW>
-1.41908

>  <SCORE.INTRA.VDW.0>
1.14169

>  <SCORE.INTRA.norm>
-0.324079

>  <SCORE.RESTR>
0

>  <SCORE.RESTR.CAVITY>
0

>  <SCORE.RESTR.norm>
0

>  <SCORE.SYSTEM>
0

>  <SCORE.SYSTEM.CONST>
0

>  <SCORE.SYSTEM.DIHEDRAL>
0

>  <SCORE.SYSTEM.SOLV>
0

>  <SCORE.SYSTEM.norm>
0

>  <SCORE.heavy>
12

>  <SCORE.norm>
-1.08465

>  <RMSD>
5.638

$$$$
ligand
 OpenBabel11021811493D
libRbt.so/2013.1/901 2013/11/27
 12 12  0  0  0  0  0  0  0  0999 V2000
   31.4127  -21.0682    7.0042 N   0  0  0  0  0  0  0  0  0  0  0  0
   29.6266  -25.0635    5.5356 O   0  0  0  0  0  0  0  0  0  0  0  0
   32.3530  -20.8832    8.1366 C   0  0  0  0  0  0  0  0  0  0  0  0
   29.4670  -24.1579    3.3616 O   0  0  0  0  0  0  0  0  0  0  0  0
   32.3972  -19.3994    8.4870 C   0  0  0  0  0  0  0  0  0  0  0  0
   31.6328  -25.0062    4.1519 O   0  0  0  0  0  0  0  0  0  0  0  0
   31.0801  -18.9689    8.9654 N   0  0  0  0  0  0  0  0  0  0  0  0
   30.1702  -20.1142    8.8835 C   0  0  0  0  0  0  0  0  0  0  0  0
   30.1064  -20.5217    7.4214 C   0  0  0  0  0  0  0  0  0  0  0  0
   31.2709  -22.4878    6.4884 C   0  0  0  0  0  0  0  0  0  0  0  0
   30.4276  -22.6782    5.2006 C   0  0  0  0  0  0  0  0  0  0  0  0
   30.2663  -24.2348    4.5568 S   0  0  0  0  0  0  0  0  0  0  0  0
  1  3  1  0  0  0  0
  1  9  1  0  0  0  0
  1 10  1  0  0  0  0
  2 12  1  0  0  0  0
  3  5  1  0  0  0  0
  4 12  2  0  0  0  0
  5  7  1  0  0  0  0
  6 12  2  0  0  0  0
  7  8  1  0  0  0  0
  8  9  1  0  0  0  0
 10 11  1  0  0  0  0
 11 12  1  0  0  0  0
M  END
>  <CHROM.1>
-172.87576778,178.50850579,60.91917022,30.77723667,-22.33710615,6.26526806
-1.39828908,0.06501840,-2.43228210

>  <Name>
ligand

>  <RI>
0

>  <Rbt.Current_Directory>
/home/itssahil/PROJECTS/Mol_Feturizer/New_Systems/rnas/4E8N

>  <Rbt.Executable>
rbdock ($Id: //depot/dev/client3/rdock/2013.1/src/exe/rbdock.cxx#4 $)

>  <Rbt.Library>
libRbt.so (2013.1, Build901 2013/11/27)

>  <Rbt.Parameter_File>
/export/apps/rDock/src/rDock_2013.1_src/data/scripts/dock_solv.prm

>  <Rbt.Receptor>
prm/pocket_docking_3.prm

>  <SCORE>
-13.0168

>  <SCORE.INTER>
-9.15176

>  <SCORE.INTER.CONST>
1

>  <SCORE.INTER.POLAR>
0

>  <SCORE.INTER.ROT>
3

>  <SCORE.INTER.SOLV>
5.0829

>  <SCORE.INTER.VDW>
-13.3955

>  <SCORE.INTER.norm>
-0.762647

>  <SCORE.INTRA>
-3.86505

>  <SCORE.INTRA.DIHEDRAL>
-4.95037

>  <SCORE.INTRA.DIHEDRAL.0>
5.0186

>  <SCORE.INTRA.POLAR>
0

>  <SCORE.INTRA.POLAR.0>
0

>  <SCORE.INTRA.REPUL>
0

>  <SCORE.INTRA.REPUL.0>
0

>  <SCORE.INTRA.SOLV>
-0.102107

>  <SCORE.INTRA.SOLV.lig_0>
-16.1608

>  <SCORE.INTRA.VDW>
-1.33881

>  <SCORE.INTRA.VDW.0>
1.14169

>  <SCORE.INTRA.norm>
-0.322088

>  <SCORE.RESTR>
0

>  <SCORE.RESTR.CAVITY>
0

>  <SCORE.RESTR.norm>
0

>  <SCORE.SYSTEM>
0

>  <SCORE.SYSTEM.CONST>
0

>  <SCORE.SYSTEM.DIHEDRAL>
0

>  <SCORE.SYSTEM.SOLV>
0

>  <SCORE.SYSTEM.norm>
0

>  <SCORE.heavy>
12

>  <SCORE.norm>
-1.08473

>  <RMSD>
5.639

$$$$
ligand
 OpenBabel11021811493D
libRbt.so/2013.1/901 2013/11/27
 12 12  0  0  0  0  0  0  0  0999 V2000
   31.0275  -22.8887    5.0525 N   0  0  0  0  0  0  0  0  0  0  0  0
   28.0635  -23.9557    2.6777 O   0  0  0  0  0  0  0  0  0  0  0  0
   32.4771  -23.0095    4.7611 C   0  0  0  0  0  0  0  0  0  0  0  0
   30.1235  -22.9302    2.1520 O   0  0  0  0  0  0  0  0  0  0  0  0
   33.0853  -21.6108    4.7601 C   0  0  0  0  0  0  0  0  0  0  0  0
   29.4674  -24.9805    0.9685 O   0  0  0  0  0  0  0  0  0  0  0  0
   32.9775  -21.0280    6.1010 N   0  0  0  0  0  0  0  0  0  0  0  0
   32.2694  -21.9836    6.9562 C   0  0  0  0  0  0  0  0  0  0  0  0
   30.8939  -22.1867    6.3441 C   0  0  0  0  0  0  0  0  0  0  0  0
   30.2434  -24.1873    5.0533 C   0  0  0  0  0  0  0  0  0  0  0  0
   30.1608  -24.9501    3.7052 C   0  0  0  0  0  0  0  0  0  0  0  0
   29.4468  -24.1809    2.3779 S   0  0  0  0  0  0  0  0  0  0  0  0
  1  3  1  0  0  0  0
  1  9  1  0  0  0  0
  1 10  1  0  0  0  0
  2 12  1  0  0  0  0
  3  5  1  0  0  0  0
  4 12  2  0  0  0  0
  5  7  1  0  0  0  0
  6 12  2  0  0  0  0
  7  8  1  0  0  0  0
  8  9  1  0  0  0  0
 10 11  1  0  0  0  0
 11 12  1  0  0  0  0
M  END
>  <CHROM.1>
-63.92255905,-60.43628374,-64.45742665,30.67052676,-23.27846098,3.99616797
0.82844548,0.59032151,1.47621499

>  <Name>
ligand

>  <RI>
0

>  <Rbt.Current_Directory>
/home/itssahil/PROJECTS/Mol_Feturizer/New_Systems/rnas/4E8N

>  <Rbt.Executable>
rbdock ($Id: //depot/dev/client3/rdock/2013.1/src/exe/rbdock.cxx#4 $)

>  <Rbt.Library>
libRbt.so (2013.1, Build901 2013/11/27)

>  <Rbt.Parameter_File>
/export/apps/rDock/src/rDock_2013.1_src/data/scripts/dock_solv.prm

>  <Rbt.Receptor>
prm/pocket_docking_5.prm

>  <SCORE>
-11.638

>  <SCORE.INTER>
-7.32405

>  <SCORE.INTER.CONST>
1

>  <SCORE.INTER.POLAR>
0

>  <SCORE.INTER.ROT>
3

>  <SCORE.INTER.SOLV>
4.39649

>  <SCORE.INTER.VDW>
-11.9482

>  <SCORE.INTER.norm>
-0.610337

>  <SCORE.INTRA>
-4.31394

>  <SCORE.INTRA.DIHEDRAL>
-4.92421

>  <SCORE.INTRA.DIHEDRAL.0>
5.0186

>  <SCORE.INTRA.POLAR>
0

>  <SCORE.INTRA.POLAR.0>
0

>  <SCORE.INTRA.REPUL>
0

>  <SCORE.INTRA.REPUL.0>
0

>  <SCORE.INTRA.SOLV>
0.603174

>  <SCORE.INTRA.SOLV.lig_0>
-16.1608

>  <SCORE.INTRA.VDW>
-2.15342

>  <SCORE.INTRA.VDW.0>
1.14169

>  <SCORE.INTRA.norm>
-0.359495

>  <SCORE.RESTR>
0

>  <SCORE.RESTR.CAVITY>
0

>  <SCORE.RESTR.norm>
0

>  <SCORE.SYSTEM>
0

>  <SCORE.SYSTEM.CONST>
0

>  <SCORE.SYSTEM.DIHEDRAL>
0

>  <SCORE.SYSTEM.SOLV>
0

>  <SCORE.SYSTEM.norm>
0

>  <SCORE.heavy>
12

>  <SCORE.norm>
-0.969832

>  <RMSD>
5.644

$$$$
ligand
 OpenBabel11021811493D
libRbt.so/2013.1/901 2013/11/27
 12 12  0  0  0  0  0  0  0  0999 V2000
   31.3922  -21.3171    6.8344 N   0  0  0  0  0  0  0  0  0  0  0  0
   29.4855  -25.3225    5.6407 O   0  0  0  0  0  0  0  0  0  0  0  0
   32.3331  -21.1062    7.9618 C   0  0  0  0  0  0  0  0  0  0  0  0
   29.2432  -24.5385    3.4275 O   0  0  0  0  0  0  0  0  0  0  0  0
   32.4415  -19.6075    8.2232 C   0  0  0  0  0  0  0  0  0  0  0  0
   31.4199  -25.4104    4.1599 O   0  0  0  0  0  0  0  0  0  0  0  0
   31.1421  -19.0909    8.6635 N   0  0  0  0  0  0  0  0  0  0  0  0
   30.1824  -20.1976    8.6424 C   0  0  0  0  0  0  0  0  0  0  0  0
   30.1092  -20.6891    7.2068 C   0  0  0  0  0  0  0  0  0  0  0  0
   31.1901  -22.7574    6.4033 C   0  0  0  0  0  0  0  0  0  0  0  0
   30.3393  -22.9880    5.1270 C   0  0  0  0  0  0  0  0  0  0  0  0
   30.0993  -24.5728    4.5847 S   0  0  0  0  0  0  0  0  0  0  0  0
  1  3  1  0  0  0  0
  1  9  1  0  0  0  0
  1 10  1  0  0  0  0
  2 12  1  0  0  0  0
  3  5  1  0  0  0  0
  4 12  2  0  0  0  0
  5  7  1  0  0  0  0
  6 12  2  0  0  0  0
  7  8  1  0  0  0  0
  8  9  1  0  0  0  0
 10 11  1  0  0  0  0
 11 12  1  0  0  0  0
M  END
>  <CHROM.1>
-173.25414300,179.09538342,57.69630534,30.69486262,-22.59941501,6.17362239
-1.36427242,0.09468452,-2.49613427

>  <Name>
ligand

>  <RI>
0

>  <Rbt.Current_Directory>
/home/itssahil/PROJECTS/Mol_Feturizer/New_Systems/rnas/4E8N

>  <Rbt.Executable>
rbdock ($Id: //depot/dev/client3/rdock/2013.1/src/exe/rbdock.cxx#4 $)

>  <Rbt.Library>
libRbt.so (2013.1, Build901 2013/11/27)

>  <Rbt.Parameter_File>
/export/apps/rDock/src/rDock_2013.1_src/data/scripts/dock_solv.prm

>  <Rbt.Receptor>
prm/pocket_docking_4.prm

>  <SCORE>
-13.5588

>  <SCORE.INTER>
-9.69094

>  <SCORE.INTER.CONST>
1

>  <SCORE.INTER.POLAR>
0

>  <SCORE.INTER.ROT>
3

>  <SCORE.INTER.SOLV>
5.7981

>  <SCORE.INTER.VDW>
-13.9933

>  <SCORE.INTER.norm>
-0.807578

>  <SCORE.INTRA>
-3.86785

>  <SCORE.INTRA.DIHEDRAL>
-4.95551

>  <SCORE.INTRA.DIHEDRAL.0>
5.0186

>  <SCORE.INTRA.POLAR>
0

>  <SCORE.INTRA.POLAR.0>
0

>  <SCORE.INTRA.REPUL>
0

>  <SCORE.INTRA.REPUL.0>
0

>  <SCORE.INTRA.SOLV>
-0.108725

>  <SCORE.INTRA.SOLV.lig_0>
-16.1608

>  <SCORE.INTRA.VDW>
-1.33574

>  <SCORE.INTRA.VDW.0>
1.14169

>  <SCORE.INTRA.norm>
-0.322321

>  <SCORE.RESTR>
0

>  <SCORE.RESTR.CAVITY>
0

>  <SCORE.RESTR.norm>
0

>  <SCORE.SYSTEM>
0

>  <SCORE.SYSTEM.CONST>
0

>  <SCORE.SYSTEM.DIHEDRAL>
0

>  <SCORE.SYSTEM.SOLV>
0

>  <SCORE.SYSTEM.norm>
0

>  <SCORE.heavy>
12

>  <SCORE.norm>
-1.1299

>  <RMSD>
5.645

$$$$
ligand
 OpenBabel11021811493D
libRbt.so/2013.1/901 2013/11/27
 12 12  0  0  0  0  0  0  0  0999 V2000
   31.3736  -21.2193    6.8906 N   0  0  0  0  0  0  0  0  0  0  0  0
   29.5558  -25.2655    5.5924 O   0  0  0  0  0  0  0  0  0  0  0  0
   32.2932  -21.0016    8.0342 C   0  0  0  0  0  0  0  0  0  0  0  0
   29.3651  -24.4322    3.3921 O   0  0  0  0  0  0  0  0  0  0  0  0
   32.3424  -19.5069    8.3335 C   0  0  0  0  0  0  0  0  0  0  0  0
   31.5426  -25.2521    4.1799 O   0  0  0  0  0  0  0  0  0  0  0  0
   31.0197  -19.0502    8.7705 N   0  0  0  0  0  0  0  0  0  0  0  0
   30.1025  -20.1910    8.7106 C   0  0  0  0  0  0  0  0  0  0  0  0
   30.0639  -20.6489    7.2626 C   0  0  0  0  0  0  0  0  0  0  0  0
   31.2306  -22.6549    6.4218 C   0  0  0  0  0  0  0  0  0  0  0  0
   30.3490  -22.8919    5.1678 C   0  0  0  0  0  0  0  0  0  0  0  0
   30.1809  -24.4690    4.5780 S   0  0  0  0  0  0  0  0  0  0  0  0
  1  3  1  0  0  0  0
  1  9  1  0  0  0  0
  1 10  1  0  0  0  0
  2 12  1  0  0  0  0
  3  5  1  0  0  0  0
  4 12  2  0  0  0  0
  5  7  1  0  0  0  0
  6 12  2  0  0  0  0
  7  8  1  0  0  0  0
  8  9  1  0  0  0  0
 10 11  1  0  0  0  0
 11 12  1  0  0  0  0
M  END
>  <CHROM.1>
-176.00489779,178.64769347,62.01058126,30.70877094,-22.51235405,6.20581711
-1.39214823,0.07985753,-2.47362709

>  <Name>
ligand

>  <RI>
0

>  <Rbt.Current_Directory>
/home/itssahil/PROJECTS/Mol_Feturizer/New_Systems/rnas/4E8N

>  <Rbt.Executable>
rbdock ($Id: //depot/dev/client3/rdock/2013.1/src/exe/rbdock.cxx#4 $)

>  <Rbt.Library>
libRbt.so (2013.1, Build901 2013/11/27)

>  <Rbt.Parameter_File>
/export/apps/rDock/src/rDock_2013.1_src/data/scripts/dock_solv.prm

>  <Rbt.Receptor>
prm/pocket_docking_5.prm

>  <SCORE>
-13.4423

>  <SCORE.INTER>
-9.65707

>  <SCORE.INTER.CONST>
1

>  <SCORE.INTER.POLAR>
0

>  <SCORE.INTER.ROT>
3

>  <SCORE.INTER.SOLV>
5.57905

>  <SCORE.INTER.VDW>
-13.8977

>  <SCORE.INTER.norm>
-0.804756

>  <SCORE.INTRA>
-3.78528

>  <SCORE.INTRA.DIHEDRAL>
-4.98463

>  <SCORE.INTRA.DIHEDRAL.0>
5.0186

>  <SCORE.INTRA.POLAR>
0

>  <SCORE.INTRA.POLAR.0>
0

>  <SCORE.INTRA.REPUL>
0

>  <SCORE.INTRA.REPUL.0>
0

>  <SCORE.INTRA.SOLV>
-0.0989694

>  <SCORE.INTRA.SOLV.lig_0>
-16.1608

>  <SCORE.INTRA.VDW>
-1.24348

>  <SCORE.INTRA.VDW.0>
1.14169

>  <SCORE.INTRA.norm>
-0.31544

>  <SCORE.RESTR>
0

>  <SCORE.RESTR.CAVITY>
0

>  <SCORE.RESTR.norm>
0

>  <SCORE.SYSTEM>
0

>  <SCORE.SYSTEM.CONST>
0

>  <SCORE.SYSTEM.DIHEDRAL>
0

>  <SCORE.SYSTEM.SOLV>
0

>  <SCORE.SYSTEM.norm>
0

>  <SCORE.heavy>
12

>  <SCORE.norm>
-1.1202

>  <RMSD>
5.645

$$$$
ligand
 OpenBabel11021811493D
libRbt.so/2013.1/901 2013/11/27
 12 12  0  0  0  0  0  0  0  0999 V2000
   31.3889  -21.3321    6.7966 N   0  0  0  0  0  0  0  0  0  0  0  0
   29.4760  -25.3246    5.5878 O   0  0  0  0  0  0  0  0  0  0  0  0
   32.3110  -21.1238    7.9399 C   0  0  0  0  0  0  0  0  0  0  0  0
   29.2666  -24.5484    3.3685 O   0  0  0  0  0  0  0  0  0  0  0  0
   32.4191  -19.6254    8.2033 C   0  0  0  0  0  0  0  0  0  0  0  0
   31.4267  -25.4366    4.1301 O   0  0  0  0  0  0  0  0  0  0  0  0
   31.1139  -19.1053    8.6214 N   0  0  0  0  0  0  0  0  0  0  0  0
   30.1516  -20.2093    8.5838 C   0  0  0  0  0  0  0  0  0  0  0  0
   30.1015  -20.7006    7.1471 C   0  0  0  0  0  0  0  0  0  0  0  0
   31.1902  -22.7718    6.3619 C   0  0  0  0  0  0  0  0  0  0  0  0
   30.3569  -23.0001    5.0738 C   0  0  0  0  0  0  0  0  0  0  0  0
   30.1089  -24.5852    4.5358 S   0  0  0  0  0  0  0  0  0  0  0  0
  1  3  1  0  0  0  0
  1  9  1  0  0  0  0
  1 10  1  0  0  0  0
  2 12  1  0  0  0  0
  3  5  1  0  0  0  0
  4 12  2  0  0  0  0
  5  7  1  0  0  0  0
  6 12  2  0  0  0  0
  7  8  1  0  0  0  0
  8  9  1  0  0  0  0
 10 11  1  0  0  0  0
 11 12  1  0  0  0  0
M  END
>  <CHROM.1>
-173.44050043,179.68440237,57.46327475,30.69112207,-22.61303042,6.12927541
-1.36915641,0.10943975,-2.49715944

>  <Name>
ligand

>  <RI>
0

>  <Rbt.Current_Directory>
/home/itssahil/PROJECTS/Mol_Feturizer/New_Systems/rnas/4E8N

>  <Rbt.Executable>
rbdock ($Id: //depot/dev/client3/rdock/2013.1/src/exe/rbdock.cxx#4 $)

>  <Rbt.Library>
libRbt.so (2013.1, Build901 2013/11/27)

>  <Rbt.Parameter_File>
/export/apps/rDock/src/rDock_2013.1_src/data/scripts/dock_solv.prm

>  <Rbt.Receptor>
prm/pocket_docking_5.prm

>  <SCORE>
-13.4923

>  <SCORE.INTER>
-9.62833

>  <SCORE.INTER.CONST>
1

>  <SCORE.INTER.POLAR>
0

>  <SCORE.INTER.ROT>
3

>  <SCORE.INTER.SOLV>
5.72986

>  <SCORE.INTER.VDW>
-13.9288

>  <SCORE.INTER.norm>
-0.802361

>  <SCORE.INTRA>
-3.86398

>  <SCORE.INTRA.DIHEDRAL>
-4.9589

>  <SCORE.INTRA.DIHEDRAL.0>
5.0186

>  <SCORE.INTRA.POLAR>
0

>  <SCORE.INTRA.POLAR.0>
0

>  <SCORE.INTRA.REPUL>
0

>  <SCORE.INTRA.REPUL.0>
0

>  <SCORE.INTRA.SOLV>
-0.109065

>  <SCORE.INTRA.SOLV.lig_0>
-16.1608

>  <SCORE.INTRA.VDW>
-1.33

>  <SCORE.INTRA.VDW.0>
1.14169

>  <SCORE.INTRA.norm>
-0.321998

>  <SCORE.RESTR>
0

>  <SCORE.RESTR.CAVITY>
0

>  <SCORE.RESTR.norm>
0

>  <SCORE.SYSTEM>
0

>  <SCORE.SYSTEM.CONST>
0

>  <SCORE.SYSTEM.DIHEDRAL>
0

>  <SCORE.SYSTEM.SOLV>
0

>  <SCORE.SYSTEM.norm>
0

>  <SCORE.heavy>
12

>  <SCORE.norm>
-1.12436

>  <RMSD>
5.645

$$$$
ligand
 OpenBabel11021811493D
libRbt.so/2013.1/901 2013/11/27
 12 12  0  0  0  0  0  0  0  0999 V2000
   31.3914  -21.0378    7.0432 N   0  0  0  0  0  0  0  0  0  0  0  0
   29.3837  -24.1708    3.4883 O   0  0  0  0  0  0  0  0  0  0  0  0
   32.3252  -20.8403    8.1790 C   0  0  0  0  0  0  0  0  0  0  0  0
   31.5291  -24.7632    4.2744 O   0  0  0  0  0  0  0  0  0  0  0  0
   32.3650  -19.3532    8.5154 C   0  0  0  0  0  0  0  0  0  0  0  0
   29.5589  -25.3116    5.6355 O   0  0  0  0  0  0  0  0  0  0  0  0
   31.0446  -18.9202    8.9822 N   0  0  0  0  0  0  0  0  0  0  0  0
   30.1370  -20.0677    8.9062 C   0  0  0  0  0  0  0  0  0  0  0  0
   30.0820  -20.4894    7.4478 C   0  0  0  0  0  0  0  0  0  0  0  0
   31.2548  -22.4625    6.5404 C   0  0  0  0  0  0  0  0  0  0  0  0
   30.4485  -22.6628    5.2305 C   0  0  0  0  0  0  0  0  0  0  0  0
   30.2400  -24.2332    4.6358 S   0  0  0  0  0  0  0  0  0  0  0  0
  1  3  1  0  0  0  0
  1  9  1  0  0  0  0
  1 10  1  0  0  0  0
  2 12  1  0  0  0  0
  3  5  1  0  0  0  0
  4 12  2  0  0  0  0
  5  7  1  0  0  0  0
  6 12  2  0  0  0  0
  7  8  1  0  0  0  0
  8  9  1  0  0  0  0
 10 11  1  0  0  0  0
 11 12  1  0  0  0  0
M  END
>  <CHROM.1>
-171.41539636,-178.95847850,175.58004506,30.73928267,-22.31734671,6.32629930
-1.38833427,-0.00977973,-2.43573953

>  <Name>
ligand

>  <RI>
0

>  <Rbt.Current_Directory>
/home/itssahil/PROJECTS/Mol_Feturizer/New_Systems/rnas/4E8N

>  <Rbt.Executable>
rbdock ($Id: //depot/dev/client3/rdock/2013.1/src/exe/rbdock.cxx#4 $)

>  <Rbt.Library>
libRbt.so (2013.1, Build901 2013/11/27)

>  <Rbt.Parameter_File>
/export/apps/rDock/src/rDock_2013.1_src/data/scripts/dock_solv.prm

>  <Rbt.Receptor>
prm/pocket_docking_4.prm

>  <SCORE>
-12.1124

>  <SCORE.INTER>
-8.3375

>  <SCORE.INTER.CONST>
1

>  <SCORE.INTER.POLAR>
0

>  <SCORE.INTER.ROT>
3

>  <SCORE.INTER.SOLV>
6.94464

>  <SCORE.INTER.VDW>
-13.4732

>  <SCORE.INTER.norm>
-0.694792

>  <SCORE.INTRA>
-3.77491

>  <SCORE.INTRA.DIHEDRAL>
-4.8853

>  <SCORE.INTRA.DIHEDRAL.0>
5.0186

>  <SCORE.INTRA.POLAR>
0

>  <SCORE.INTRA.POLAR.0>
0

>  <SCORE.INTRA.REPUL>
0

>  <SCORE.INTRA.REPUL.0>
0

>  <SCORE.INTRA.SOLV>
0.0754149

>  <SCORE.INTRA.SOLV.lig_0>
-16.1608

>  <SCORE.INTRA.VDW>
-1.36997

>  <SCORE.INTRA.VDW.0>
1.14169

>  <SCORE.INTRA.norm>
-0.314576

>  <SCORE.RESTR>
0

>  <SCORE.RESTR.CAVITY>
0

>  <SCORE.RESTR.norm>
0

>  <SCORE.SYSTEM>
0

>  <SCORE.SYSTEM.CONST>
0

>  <SCORE.SYSTEM.DIHEDRAL>
0

>  <SCORE.SYSTEM.SOLV>
0

>  <SCORE.SYSTEM.norm>
0

>  <SCORE.heavy>
12

>  <SCORE.norm>
-1.00937

>  <RMSD>
5.648

$$$$
ligand
 OpenBabel11021811493D
libRbt.so/2013.1/901 2013/11/27
 12 12  0  0  0  0  0  0  0  0999 V2000
   31.0207  -22.8808    5.0553 N   0  0  0  0  0  0  0  0  0  0  0  0
   28.0194  -24.0358    2.6837 O   0  0  0  0  0  0  0  0  0  0  0  0
   32.4645  -23.0071    4.7388 C   0  0  0  0  0  0  0  0  0  0  0  0
   30.0312  -22.9201    2.1548 O   0  0  0  0  0  0  0  0  0  0  0  0
   33.0828  -21.6128    4.7503 C   0  0  0  0  0  0  0  0  0  0  0  0
   29.4612  -24.9935    0.9670 O   0  0  0  0  0  0  0  0  0  0  0  0
   33.0007  -21.0509    6.1018 N   0  0  0  0  0  0  0  0  0  0  0  0
   32.2994  -22.0151    6.9530 C   0  0  0  0  0  0  0  0  0  0  0  0
   30.9128  -22.1986    6.3599 C   0  0  0  0  0  0  0  0  0  0  0  0
   30.2272  -24.1736    5.0481 C   0  0  0  0  0  0  0  0  0  0  0  0
   30.1613  -24.9410    3.7017 C   0  0  0  0  0  0  0  0  0  0  0  0
   29.4102  -24.1997    2.3789 S   0  0  0  0  0  0  0  0  0  0  0  0
  1  3  1  0  0  0  0
  1  9  1  0  0  0  0
  1 10  1  0  0  0  0
  2 12  1  0  0  0  0
  3  5  1  0  0  0  0
  4 12  2  0  0  0  0
  5  7  1  0  0  0  0
  6 12  2  0  0  0  0
  7  8  1  0  0  0  0
  8  9  1  0  0  0  0
 10 11  1  0  0  0  0
 11 12  1  0  0  0  0
M  END
>  <CHROM.1>
-61.74030165,-63.25379375,-65.04914122,30.65507100,-23.29108537,3.99514180
0.82070061,0.58587717,1.47829711

>  <Name>
ligand

>  <RI>
0

>  <Rbt.Current_Directory>
/home/itssahil/PROJECTS/Mol_Feturizer/New_Systems/rnas/4E8N

>  <Rbt.Executable>
rbdock ($Id: //depot/dev/client3/rdock/2013.1/src/exe/rbdock.cxx#4 $)

>  <Rbt.Library>
libRbt.so (2013.1, Build901 2013/11/27)

>  <Rbt.Parameter_File>
/export/apps/rDock/src/rDock_2013.1_src/data/scripts/dock_solv.prm

>  <Rbt.Receptor>
prm/pocket_docking_6.prm

>  <SCORE>
-11.6554

>  <SCORE.INTER>
-7.40074

>  <SCORE.INTER.CONST>
1

>  <SCORE.INTER.POLAR>
0

>  <SCORE.INTER.ROT>
3

>  <SCORE.INTER.SOLV>
4.41506

>  <SCORE.INTER.VDW>
-12.0055

>  <SCORE.INTER.norm>
-0.616728

>  <SCORE.INTRA>
-4.25465

>  <SCORE.INTRA.DIHEDRAL>
-4.9022

>  <SCORE.INTRA.DIHEDRAL.0>
5.0186

>  <SCORE.INTRA.POLAR>
0

>  <SCORE.INTRA.POLAR.0>
0

>  <SCORE.INTRA.REPUL>
0

>  <SCORE.INTRA.REPUL.0>
0

>  <SCORE.INTRA.SOLV>
0.5772

>  <SCORE.INTRA.SOLV.lig_0>
-16.1608

>  <SCORE.INTRA.VDW>
-2.09214

>  <SCORE.INTRA.VDW.0>
1.14169

>  <SCORE.INTRA.norm>
-0.354554

>  <SCORE.RESTR>
0

>  <SCORE.RESTR.CAVITY>
0

>  <SCORE.RESTR.norm>
0

>  <SCORE.SYSTEM>
0

>  <SCORE.SYSTEM.CONST>
0

>  <SCORE.SYSTEM.DIHEDRAL>
0

>  <SCORE.SYSTEM.SOLV>
0

>  <SCORE.SYSTEM.norm>
0

>  <SCORE.heavy>
12

>  <SCORE.norm>
-0.971282

>  <RMSD>
5.652

$$$$
ligand
 OpenBabel11021811493D
libRbt.so/2013.1/901 2013/11/27
 12 12  0  0  0  0  0  0  0  0999 V2000
   31.3888  -21.3415    6.8557 N   0  0  0  0  0  0  0  0  0  0  0  0
   29.5032  -25.3460    5.6313 O   0  0  0  0  0  0  0  0  0  0  0  0
   32.3005  -21.1333    8.0073 C   0  0  0  0  0  0  0  0  0  0  0  0
   29.2693  -24.5524    3.4206 O   0  0  0  0  0  0  0  0  0  0  0  0
   32.3812  -19.6371    8.2921 C   0  0  0  0  0  0  0  0  0  0  0  0
   31.4448  -25.4221    4.1592 O   0  0  0  0  0  0  0  0  0  0  0  0
   31.0647  -19.1455    8.7095 N   0  0  0  0  0  0  0  0  0  0  0  0
   30.1219  -20.2653    8.6509 C   0  0  0  0  0  0  0  0  0  0  0  0
   30.0887  -20.7372    7.2072 C   0  0  0  0  0  0  0  0  0  0  0  0
   31.2176  -22.7782    6.3999 C   0  0  0  0  0  0  0  0  0  0  0  0
   30.3534  -23.0069    5.1323 C   0  0  0  0  0  0  0  0  0  0  0  0
   30.1200  -24.5898    4.5817 S   0  0  0  0  0  0  0  0  0  0  0  0
  1  3  1  0  0  0  0
  1  9  1  0  0  0  0
  1 10  1  0  0  0  0
  2 12  1  0  0  0  0
  3  5  1  0  0  0  0
  4 12  2  0  0  0  0
  5  7  1  0  0  0  0
  6 12  2  0  0  0  0
  7  8  1  0  0  0  0
  8  9  1  0  0  0  0
 10 11  1  0  0  0  0
 11 12  1  0  0  0  0
M  END
>  <CHROM.1>
-175.55960044,-179.66017059,58.72130641,30.68847821,-22.62759020,6.18575717
-1.37557471,0.10055572,-2.48791255

>  <Name>
ligand

>  <RI>
0

>  <Rbt.Current_Directory>
/home/itssahil/PROJECTS/Mol_Feturizer/New_Systems/rnas/4E8N

>  <Rbt.Executable>
rbdock ($Id: //depot/dev/client3/rdock/2013.1/src/exe/rbdock.cxx#4 $)

>  <Rbt.Library>
libRbt.so (2013.1, Build901 2013/11/27)

>  <Rbt.Parameter_File>
/export/apps/rDock/src/rDock_2013.1_src/data/scripts/dock_solv.prm

>  <Rbt.Receptor>
prm/pocket_docking_4.prm

>  <SCORE>
-13.5889

>  <SCORE.INTER>
-9.76936

>  <SCORE.INTER.CONST>
1

>  <SCORE.INTER.POLAR>
0

>  <SCORE.INTER.ROT>
3

>  <SCORE.INTER.SOLV>
5.96468

>  <SCORE.INTER.VDW>
-14.1011

>  <SCORE.INTER.norm>
-0.814113

>  <SCORE.INTRA>
-3.81954

>  <SCORE.INTRA.DIHEDRAL>
-4.99714

>  <SCORE.INTRA.DIHEDRAL.0>
5.0186

>  <SCORE.INTRA.POLAR>
0

>  <SCORE.INTRA.POLAR.0>
0

>  <SCORE.INTRA.REPUL>
0

>  <SCORE.INTRA.REPUL.0>
0

>  <SCORE.INTRA.SOLV>
-0.105788

>  <SCORE.INTRA.SOLV.lig_0>
-16.1608

>  <SCORE.INTRA.VDW>
-1.26807

>  <SCORE.INTRA.VDW.0>
1.14169

>  <SCORE.INTRA.norm>
-0.318295

>  <SCORE.RESTR>
0

>  <SCORE.RESTR.CAVITY>
0

>  <SCORE.RESTR.norm>
0

>  <SCORE.SYSTEM>
0

>  <SCORE.SYSTEM.CONST>
0

>  <SCORE.SYSTEM.DIHEDRAL>
0

>  <SCORE.SYSTEM.SOLV>
0

>  <SCORE.SYSTEM.norm>
0

>  <SCORE.heavy>
12

>  <SCORE.norm>
-1.13241

>  <RMSD>
5.659

$$$$
ligand
 OpenBabel11021811493D
libRbt.so/2013.1/901 2013/11/27
 12 12  0  0  0  0  0  0  0  0999 V2000
   31.1889  -20.8644    6.8102 N   0  0  0  0  0  0  0  0  0  0  0  0
   29.7637  -25.0515    5.5497 O   0  0  0  0  0  0  0  0  0  0  0  0
   32.1138  -21.2641    7.8992 C   0  0  0  0  0  0  0  0  0  0  0  0
   29.7965  -23.8098    3.5426 O   0  0  0  0  0  0  0  0  0  0  0  0
   32.7796  -20.0072    8.4497 C   0  0  0  0  0  0  0  0  0  0  0  0
   31.5578  -25.4721    3.9538 O   0  0  0  0  0  0  0  0  0  0  0  0
   31.7659  -19.1427    9.0612 N   0  0  0  0  0  0  0  0  0  0  0  0
   30.4574  -19.7747    8.8750 C   0  0  0  0  0  0  0  0  0  0  0  0
   30.2344  -19.8913    7.3768 C   0  0  0  0  0  0  0  0  0  0  0  0
   30.4626  -21.9978    6.1110 C   0  0  0  0  0  0  0  0  0  0  0  0
   31.3473  -23.0716    5.4252 C   0  0  0  0  0  0  0  0  0  0  0  0
   30.5923  -24.3504    4.6139 S   0  0  0  0  0  0  0  0  0  0  0  0
  1  3  1  0  0  0  0
  1  9  1  0  0  0  0
  1 10  1  0  0  0  0
  2 12  1  0  0  0  0
  3  5  1  0  0  0  0
  4 12  2  0  0  0  0
  5  7  1  0  0  0  0
  6 12  2  0  0  0  0
  7  8  1  0  0  0  0
  8  9  1  0  0  0  0
 10 11  1  0  0  0  0
 11 12  1  0  0  0  0
M  END
>  <CHROM.1>
-59.15748088,-179.29658965,-58.81767257,30.94673106,-22.35732140,6.23232074
1.41509541,-0.32206241,0.64823501

>  <Name>
ligand

>  <RI>
0

>  <Rbt.Current_Directory>
/home/itssahil/PROJECTS/Mol_Feturizer/New_Systems/rnas/4E8N

>  <Rbt.Executable>
rbdock ($Id: //depot/dev/client3/rdock/2013.1/src/exe/rbdock.cxx#4 $)

>  <Rbt.Library>
libRbt.so (2013.1, Build901 2013/11/27)

>  <Rbt.Parameter_File>
/export/apps/rDock/src/rDock_2013.1_src/data/scripts/dock_solv.prm

>  <Rbt.Receptor>
prm/pocket_docking_3.prm

>  <SCORE>
-12.0904

>  <SCORE.INTER>
-8.08799

>  <SCORE.INTER.CONST>
1

>  <SCORE.INTER.POLAR>
0

>  <SCORE.INTER.ROT>
3

>  <SCORE.INTER.SOLV>
5.43352

>  <SCORE.INTER.VDW>
-12.8032

>  <SCORE.INTER.norm>
-0.673999

>  <SCORE.INTRA>
-4.00238

>  <SCORE.INTRA.DIHEDRAL>
-5.00744

>  <SCORE.INTRA.DIHEDRAL.0>
5.0186

>  <SCORE.INTRA.POLAR>
0

>  <SCORE.INTRA.POLAR.0>
0

>  <SCORE.INTRA.REPUL>
0

>  <SCORE.INTRA.REPUL.0>
0

>  <SCORE.INTRA.SOLV>
-0.111874

>  <SCORE.INTRA.SOLV.lig_0>
-16.1608

>  <SCORE.INTRA.VDW>
-1.44273

>  <SCORE.INTRA.VDW.0>
1.14169

>  <SCORE.INTRA.norm>
-0.333532

>  <SCORE.RESTR>
0

>  <SCORE.RESTR.CAVITY>
0

>  <SCORE.RESTR.norm>
0

>  <SCORE.SYSTEM>
0

>  <SCORE.SYSTEM.CONST>
0

>  <SCORE.SYSTEM.DIHEDRAL>
0

>  <SCORE.SYSTEM.SOLV>
0

>  <SCORE.SYSTEM.norm>
0

>  <SCORE.heavy>
12

>  <SCORE.norm>
-1.00753

>  <RMSD>
5.668

$$$$
ligand
 OpenBabel11021811493D
libRbt.so/2013.1/901 2013/11/27
 12 12  0  0  0  0  0  0  0  0999 V2000
   31.0199  -21.2399    6.5600 N   0  0  0  0  0  0  0  0  0  0  0  0
   31.2848  -25.7550    4.1062 O   0  0  0  0  0  0  0  0  0  0  0  0
   31.8267  -21.7066    7.7141 C   0  0  0  0  0  0  0  0  0  0  0  0
   29.4641  -25.4137    5.5692 O   0  0  0  0  0  0  0  0  0  0  0  0
   32.5423  -20.5028    8.3183 C   0  0  0  0  0  0  0  0  0  0  0  0
   29.3514  -24.5184    3.2844 O   0  0  0  0  0  0  0  0  0  0  0  0
   31.5536  -19.5628    8.8549 N   0  0  0  0  0  0  0  0  0  0  0  0
   30.2189  -20.0941    8.5677 C   0  0  0  0  0  0  0  0  0  0  0  0
   30.1017  -20.1962    7.0566 C   0  0  0  0  0  0  0  0  0  0  0  0
   30.2648  -22.3163    5.8034 C   0  0  0  0  0  0  0  0  0  0  0  0
   31.1066  -23.4928    5.2437 C   0  0  0  0  0  0  0  0  0  0  0  0
   30.3024  -24.8165    4.5623 S   0  0  0  0  0  0  0  0  0  0  0  0
  1  3  1  0  0  0  0
  1  9  1  0  0  0  0
  1 10  1  0  0  0  0
  2 12  1  0  0  0  0
  3  5  1  0  0  0  0
  4 12  2  0  0  0  0
  5  7  1  0  0  0  0
  6 12  2  0  0  0  0
  7  8  1  0  0  0  0
  8  9  1  0  0  0  0
 10 11  1  0  0  0  0
 11 12  1  0  0  0  0
M  END
>  <CHROM.1>
-56.16685345,172.43373789,179.29575913,30.68855032,-22.77366972,6.07871083
1.38049177,-0.44159617,0.59088913

>  <Name>
ligand

>  <RI>
0

>  <Rbt.Current_Directory>
/home/itssahil/PROJECTS/Mol_Feturizer/New_Systems/rnas/4E8N

>  <Rbt.Executable>
rbdock ($Id: //depot/dev/client3/rdock/2013.1/src/exe/rbdock.cxx#4 $)

>  <Rbt.Library>
libRbt.so (2013.1, Build901 2013/11/27)

>  <Rbt.Parameter_File>
/export/apps/rDock/src/rDock_2013.1_src/data/scripts/dock_solv.prm

>  <Rbt.Receptor>
prm/pocket_docking_7.prm

>  <SCORE>
-12.5469

>  <SCORE.INTER>
-8.75467

>  <SCORE.INTER.CONST>
1

>  <SCORE.INTER.POLAR>
0

>  <SCORE.INTER.ROT>
3

>  <SCORE.INTER.SOLV>
8.07014

>  <SCORE.INTER.VDW>
-14.1265

>  <SCORE.INTER.norm>
-0.729556

>  <SCORE.INTRA>
-3.79222

>  <SCORE.INTRA.DIHEDRAL>
-4.79126

>  <SCORE.INTRA.DIHEDRAL.0>
5.0186

>  <SCORE.INTRA.POLAR>
0

>  <SCORE.INTRA.POLAR.0>
0

>  <SCORE.INTRA.REPUL>
0

>  <SCORE.INTRA.REPUL.0>
0

>  <SCORE.INTRA.SOLV>
0.077141

>  <SCORE.INTRA.SOLV.lig_0>
-16.1608

>  <SCORE.INTRA.VDW>
-1.43516

>  <SCORE.INTRA.VDW.0>
1.14169

>  <SCORE.INTRA.norm>
-0.316018

>  <SCORE.RESTR>
0

>  <SCORE.RESTR.CAVITY>
0

>  <SCORE.RESTR.norm>
0

>  <SCORE.SYSTEM>
0

>  <SCORE.SYSTEM.CONST>
0

>  <SCORE.SYSTEM.DIHEDRAL>
0

>  <SCORE.SYSTEM.SOLV>
0

>  <SCORE.SYSTEM.norm>
0

>  <SCORE.heavy>
12

>  <SCORE.norm>
-1.04557

>  <RMSD>
5.673

$$$$
ligand
 OpenBabel11021811493D
libRbt.so/2013.1/901 2013/11/27
 12 12  0  0  0  0  0  0  0  0999 V2000
   31.1067  -21.7667    7.3589 N   0  0  0  0  0  0  0  0  0  0  0  0
   31.6265  -25.0375    4.1614 O   0  0  0  0  0  0  0  0  0  0  0  0
   30.1627  -20.6253    7.2750 C   0  0  0  0  0  0  0  0  0  0  0  0
   29.3201  -24.9057    3.6769 O   0  0  0  0  0  0  0  0  0  0  0  0
   29.9632  -20.0625    8.6785 C   0  0  0  0  0  0  0  0  0  0  0  0
   30.8455  -23.2385    2.7135 O   0  0  0  0  0  0  0  0  0  0  0  0
   31.2311  -19.5182    9.1737 N   0  0  0  0  0  0  0  0  0  0  0  0
   32.2576  -19.7606    8.1569 C   0  0  0  0  0  0  0  0  0  0  0  0
   32.3508  -21.2660    7.9759 C   0  0  0  0  0  0  0  0  0  0  0  0
   31.3948  -22.4830    6.0532 C   0  0  0  0  0  0  0  0  0  0  0  0
   30.2507  -23.3537    5.4711 C   0  0  0  0  0  0  0  0  0  0  0  0
   30.5061  -24.1577    4.0043 S   0  0  0  0  0  0  0  0  0  0  0  0
  1  3  1  0  0  0  0
  1  9  1  0  0  0  0
  1 10  1  0  0  0  0
  2 12  1  0  0  0  0
  3  5  1  0  0  0  0
  4 12  2  0  0  0  0
  5  7  1  0  0  0  0
  6 12  2  0  0  0  0
  7  8  1  0  0  0  0
  8  9  1  0  0  0  0
 10 11  1  0  0  0  0
 11 12  1  0  0  0  0
M  END
>  <CHROM.1>
-71.61609157,179.07340003,59.34200219,30.86941433,-22.43512707,5.93282399
-1.45395760,0.07250829,-2.30740778

>  <Name>
ligand

>  <RI>
0

>  <Rbt.Current_Directory>
/home/itssahil/PROJECTS/Mol_Feturizer/New_Systems/rnas/4E8N

>  <Rbt.Executable>
rbdock ($Id: //depot/dev/client3/rdock/2013.1/src/exe/rbdock.cxx#4 $)

>  <Rbt.Library>
libRbt.so (2013.1, Build901 2013/11/27)

>  <Rbt.Parameter_File>
/export/apps/rDock/src/rDock_2013.1_src/data/scripts/dock_solv.prm

>  <Rbt.Receptor>
prm/pocket_docking_3.prm

>  <SCORE>
-10.8352

>  <SCORE.INTER>
-6.73908

>  <SCORE.INTER.CONST>
1

>  <SCORE.INTER.POLAR>
0

>  <SCORE.INTER.ROT>
3

>  <SCORE.INTER.SOLV>
6.09414

>  <SCORE.INTER.VDW>
-12.1241

>  <SCORE.INTER.norm>
-0.56159

>  <SCORE.INTRA>
-4.09611

>  <SCORE.INTRA.DIHEDRAL>
-4.74284

>  <SCORE.INTRA.DIHEDRAL.0>
5.0186

>  <SCORE.INTRA.POLAR>
0

>  <SCORE.INTRA.POLAR.0>
0

>  <SCORE.INTRA.REPUL>
0

>  <SCORE.INTRA.REPUL.0>
0

>  <SCORE.INTRA.SOLV>
-0.109506

>  <SCORE.INTRA.SOLV.lig_0>
-16.1608

>  <SCORE.INTRA.VDW>
-1.66994

>  <SCORE.INTRA.VDW.0>
1.14169

>  <SCORE.INTRA.norm>
-0.341343

>  <SCORE.RESTR>
0

>  <SCORE.RESTR.CAVITY>
0

>  <SCORE.RESTR.norm>
0

>  <SCORE.SYSTEM>
0

>  <SCORE.SYSTEM.CONST>
0

>  <SCORE.SYSTEM.DIHEDRAL>
0

>  <SCORE.SYSTEM.SOLV>
0

>  <SCORE.SYSTEM.norm>
0

>  <SCORE.heavy>
12

>  <SCORE.norm>
-0.902933

>  <RMSD>
5.678

$$$$
ligand
 OpenBabel11021811493D
libRbt.so/2013.1/901 2013/11/27
 12 12  0  0  0  0  0  0  0  0999 V2000
   30.8183  -21.2178    7.6924 N   0  0  0  0  0  0  0  0  0  0  0  0
   29.5355  -25.0599    5.4813 O   0  0  0  0  0  0  0  0  0  0  0  0
   30.0828  -19.9588    7.9660 C   0  0  0  0  0  0  0  0  0  0  0  0
   29.9589  -23.3904    3.8672 O   0  0  0  0  0  0  0  0  0  0  0  0
   30.4173  -19.5051    9.3832 C   0  0  0  0  0  0  0  0  0  0  0  0
   31.5537  -25.2409    4.1261 O   0  0  0  0  0  0  0  0  0  0  0  0
   31.8443  -19.1807    9.4706 N   0  0  0  0  0  0  0  0  0  0  0  0
   32.4548  -19.4628    8.1691 C   0  0  0  0  0  0  0  0  0  0  0  0
   32.2539  -20.9445    7.9007 C   0  0  0  0  0  0  0  0  0  0  0  0
   30.5735  -21.8438    6.3325 C   0  0  0  0  0  0  0  0  0  0  0  0
   31.1996  -23.2417    6.0881 C   0  0  0  0  0  0  0  0  0  0  0  0
   30.5390  -24.2295    4.8834 S   0  0  0  0  0  0  0  0  0  0  0  0
  1  3  1  0  0  0  0
  1  9  1  0  0  0  0
  1 10  1  0  0  0  0
  2 12  1  0  0  0  0
  3  5  1  0  0  0  0
  4 12  2  0  0  0  0
  5  7  1  0  0  0  0
  6 12  2  0  0  0  0
  7  8  1  0  0  0  0
  8  9  1  0  0  0  0
 10 11  1  0  0  0  0
 11 12  1  0  0  0  0
M  END
>  <CHROM.1>
-173.06489716,157.97592353,-91.55462013,30.88057951,-22.23561551,6.53129473
1.43543571,0.04122695,0.71031709

>  <Name>
ligand

>  <RI>
0

>  <Rbt.Current_Directory>
/home/itssahil/PROJECTS/Mol_Feturizer/New_Systems/rnas/4E8N

>  <Rbt.Executable>
rbdock ($Id: //depot/dev/client3/rdock/2013.1/src/exe/rbdock.cxx#4 $)

>  <Rbt.Library>
libRbt.so (2013.1, Build901 2013/11/27)

>  <Rbt.Parameter_File>
/export/apps/rDock/src/rDock_2013.1_src/data/scripts/dock_solv.prm

>  <Rbt.Receptor>
prm/pocket_docking_3.prm

>  <SCORE>
-10.7235

>  <SCORE.INTER>
-8.85619

>  <SCORE.INTER.CONST>
1

>  <SCORE.INTER.POLAR>
0

>  <SCORE.INTER.ROT>
3

>  <SCORE.INTER.SOLV>
6.7214

>  <SCORE.INTER.VDW>
-13.7446

>  <SCORE.INTER.norm>
-0.738016

>  <SCORE.INTRA>
-1.86734

>  <SCORE.INTRA.DIHEDRAL>
-1.40304

>  <SCORE.INTRA.DIHEDRAL.0>
5.0186

>  <SCORE.INTRA.POLAR>
0

>  <SCORE.INTRA.POLAR.0>
0

>  <SCORE.INTRA.REPUL>
0

>  <SCORE.INTRA.REPUL.0>
0

>  <SCORE.INTRA.SOLV>
-0.0334579

>  <SCORE.INTRA.SOLV.lig_0>
-16.1608

>  <SCORE.INTRA.VDW>
-1.1491

>  <SCORE.INTRA.VDW.0>
1.14169

>  <SCORE.INTRA.norm>
-0.155612

>  <SCORE.RESTR>
0

>  <SCORE.RESTR.CAVITY>
0

>  <SCORE.RESTR.norm>
0

>  <SCORE.SYSTEM>
0

>  <SCORE.SYSTEM.CONST>
0

>  <SCORE.SYSTEM.DIHEDRAL>
0

>  <SCORE.SYSTEM.SOLV>
0

>  <SCORE.SYSTEM.norm>
0

>  <SCORE.heavy>
12

>  <SCORE.norm>
-0.893628

>  <RMSD>
5.706

$$$$
ligand
 OpenBabel11021811493D
libRbt.so/2013.1/901 2013/11/27
 12 12  0  0  0  0  0  0  0  0999 V2000
   31.0274  -21.1340    6.7066 N   0  0  0  0  0  0  0  0  0  0  0  0
   29.5647  -25.3062    5.5438 O   0  0  0  0  0  0  0  0  0  0  0  0
   31.9119  -21.5822    7.8101 C   0  0  0  0  0  0  0  0  0  0  0  0
   29.6429  -24.1650    3.4791 O   0  0  0  0  0  0  0  0  0  0  0  0
   32.5857  -20.3547    8.4146 C   0  0  0  0  0  0  0  0  0  0  0  0
   31.3743  -25.8291    3.9964 O   0  0  0  0  0  0  0  0  0  0  0  0
   31.5716  -19.4868    9.0206 N   0  0  0  0  0  0  0  0  0  0  0  0
   30.2571  -20.0868    8.7791 C   0  0  0  0  0  0  0  0  0  0  0  0
   30.0759  -20.1576    7.2724 C   0  0  0  0  0  0  0  0  0  0  0  0
   30.3000  -22.2329    5.9552 C   0  0  0  0  0  0  0  0  0  0  0  0
   31.1781  -23.3567    5.3455 C   0  0  0  0  0  0  0  0  0  0  0  0
   30.4161  -24.6632    4.5869 S   0  0  0  0  0  0  0  0  0  0  0  0
  1  3  1  0  0  0  0
  1  9  1  0  0  0  0
  1 10  1  0  0  0  0
  2 12  1  0  0  0  0
  3  5  1  0  0  0  0
  4 12  2  0  0  0  0
  5  7  1  0  0  0  0
  6 12  2  0  0  0  0
  7  8  1  0  0  0  0
  8  9  1  0  0  0  0
 10 11  1  0  0  0  0
 11 12  1  0  0  0  0
M  END
>  <CHROM.1>
-55.21632246,175.91620925,-59.30029016,30.76752328,-22.66342071,6.17421395
1.41364807,-0.37470268,0.63328313

>  <Name>
ligand

>  <RI>
0

>  <Rbt.Current_Directory>
/home/itssahil/PROJECTS/Mol_Feturizer/New_Systems/rnas/4E8N

>  <Rbt.Executable>
rbdock ($Id: //depot/dev/client3/rdock/2013.1/src/exe/rbdock.cxx#4 $)

>  <Rbt.Library>
libRbt.so (2013.1, Build901 2013/11/27)

>  <Rbt.Parameter_File>
/export/apps/rDock/src/rDock_2013.1_src/data/scripts/dock_solv.prm

>  <Rbt.Receptor>
prm/pocket_docking_4.prm

>  <SCORE>
-13.0894

>  <SCORE.INTER>
-9.21014

>  <SCORE.INTER.CONST>
1

>  <SCORE.INTER.POLAR>
0

>  <SCORE.INTER.ROT>
3

>  <SCORE.INTER.SOLV>
6.54016

>  <SCORE.INTER.VDW>
-13.9201

>  <SCORE.INTER.norm>
-0.767511

>  <SCORE.INTRA>
-3.87926

>  <SCORE.INTRA.DIHEDRAL>
-4.93147

>  <SCORE.INTRA.DIHEDRAL.0>
5.0186

>  <SCORE.INTRA.POLAR>
0

>  <SCORE.INTRA.POLAR.0>
0

>  <SCORE.INTRA.REPUL>
0

>  <SCORE.INTRA.REPUL.0>
0

>  <SCORE.INTRA.SOLV>
-0.108891

>  <SCORE.INTRA.SOLV.lig_0>
-16.1608

>  <SCORE.INTRA.VDW>
-1.35908

>  <SCORE.INTRA.VDW.0>
1.14169

>  <SCORE.INTRA.norm>
-0.323272

>  <SCORE.RESTR>
0

>  <SCORE.RESTR.CAVITY>
0

>  <SCORE.RESTR.norm>
0

>  <SCORE.SYSTEM>
0

>  <SCORE.SYSTEM.CONST>
0

>  <SCORE.SYSTEM.DIHEDRAL>
0

>  <SCORE.SYSTEM.SOLV>
0

>  <SCORE.SYSTEM.norm>
0

>  <SCORE.heavy>
12

>  <SCORE.norm>
-1.09078

>  <RMSD>
5.718

$$$$
ligand
 OpenBabel11021811493D
libRbt.so/2013.1/901 2013/11/27
 12 12  0  0  0  0  0  0  0  0999 V2000
   31.1027  -22.0221    7.2353 N   0  0  0  0  0  0  0  0  0  0  0  0
   31.0406  -23.5348    2.9425 O   0  0  0  0  0  0  0  0  0  0  0  0
   30.2413  -20.8242    7.0814 C   0  0  0  0  0  0  0  0  0  0  0  0
   31.2467  -25.5387    4.1728 O   0  0  0  0  0  0  0  0  0  0  0  0
   30.0419  -20.1957    8.4568 C   0  0  0  0  0  0  0  0  0  0  0  0
   29.0850  -24.9753    3.1509 O   0  0  0  0  0  0  0  0  0  0  0  0
   31.3298  -19.7190    8.9697 N   0  0  0  0  0  0  0  0  0  0  0  0
   32.3650  -20.0685    7.9937 C   0  0  0  0  0  0  0  0  0  0  0  0
   32.3605  -21.5826    7.8707 C   0  0  0  0  0  0  0  0  0  0  0  0
   31.3772  -22.8059    5.9658 C   0  0  0  0  0  0  0  0  0  0  0  0
   30.1687  -23.5384    5.3264 C   0  0  0  0  0  0  0  0  0  0  0  0
   30.4079  -24.4027    3.8914 S   0  0  0  0  0  0  0  0  0  0  0  0
  1  3  1  0  0  0  0
  1  9  1  0  0  0  0
  1 10  1  0  0  0  0
  2 12  1  0  0  0  0
  3  5  1  0  0  0  0
  4 12  2  0  0  0  0
  5  7  1  0  0  0  0
  6 12  2  0  0  0  0
  7  8  1  0  0  0  0
  8  9  1  0  0  0  0
 10 11  1  0  0  0  0
 11 12  1  0  0  0  0
M  END
>  <CHROM.1>
-67.42882588,178.76145932,-52.37289378,30.83776502,-22.68823957,5.79955074
-1.41278190,0.21177166,-2.34707204

>  <Name>
ligand

>  <RI>
0

>  <Rbt.Current_Directory>
/home/itssahil/PROJECTS/Mol_Feturizer/New_Systems/rnas/4E8N

>  <Rbt.Executable>
rbdock ($Id: //depot/dev/client3/rdock/2013.1/src/exe/rbdock.cxx#4 $)

>  <Rbt.Library>
libRbt.so (2013.1, Build901 2013/11/27)

>  <Rbt.Parameter_File>
/export/apps/rDock/src/rDock_2013.1_src/data/scripts/dock_solv.prm

>  <Rbt.Receptor>
prm/pocket_docking_8.prm

>  <SCORE>
-10.4187

>  <SCORE.INTER>
-6.40695

>  <SCORE.INTER.CONST>
1

>  <SCORE.INTER.POLAR>
0

>  <SCORE.INTER.ROT>
3

>  <SCORE.INTER.SOLV>
7.42426

>  <SCORE.INTER.VDW>
-12.3461

>  <SCORE.INTER.norm>
-0.533912

>  <SCORE.INTRA>
-4.0118

>  <SCORE.INTRA.DIHEDRAL>
-4.73158

>  <SCORE.INTRA.DIHEDRAL.0>
5.0186

>  <SCORE.INTRA.POLAR>
0

>  <SCORE.INTRA.POLAR.0>
0

>  <SCORE.INTRA.REPUL>
0

>  <SCORE.INTRA.REPUL.0>
0

>  <SCORE.INTRA.SOLV>
-0.126426

>  <SCORE.INTRA.SOLV.lig_0>
-16.1608

>  <SCORE.INTRA.VDW>
-1.5828

>  <SCORE.INTRA.VDW.0>
1.14169

>  <SCORE.INTRA.norm>
-0.334317

>  <SCORE.RESTR>
0

>  <SCORE.RESTR.CAVITY>
0

>  <SCORE.RESTR.norm>
0

>  <SCORE.SYSTEM>
0

>  <SCORE.SYSTEM.CONST>
0

>  <SCORE.SYSTEM.DIHEDRAL>
0

>  <SCORE.SYSTEM.SOLV>
0

>  <SCORE.SYSTEM.norm>
0

>  <SCORE.heavy>
12

>  <SCORE.norm>
-0.868229

>  <RMSD>
5.719

$$$$
ligand
 OpenBabel11021811493D
libRbt.so/2013.1/901 2013/11/27
 12 12  0  0  0  0  0  0  0  0999 V2000
   31.0673  -22.0165    7.2231 N   0  0  0  0  0  0  0  0  0  0  0  0
   31.0487  -23.5839    2.9405 O   0  0  0  0  0  0  0  0  0  0  0  0
   30.2753  -20.7765    7.0334 C   0  0  0  0  0  0  0  0  0  0  0  0
   31.2777  -25.5602    4.2108 O   0  0  0  0  0  0  0  0  0  0  0  0
   30.0451  -20.1394    8.3999 C   0  0  0  0  0  0  0  0  0  0  0  0
   29.1143  -25.0504    3.1647 O   0  0  0  0  0  0  0  0  0  0  0  0
   31.3306  -19.7285    8.9725 N   0  0  0  0  0  0  0  0  0  0  0  0
   32.3904  -20.1294    8.0439 C   0  0  0  0  0  0  0  0  0  0  0  0
   32.3152  -21.6413    7.9166 C   0  0  0  0  0  0  0  0  0  0  0  0
   31.3597  -22.8125    5.9654 C   0  0  0  0  0  0  0  0  0  0  0  0
   30.1613  -23.5550    5.3185 C   0  0  0  0  0  0  0  0  0  0  0  0
   30.4233  -24.4431    3.9022 S   0  0  0  0  0  0  0  0  0  0  0  0
  1  3  1  0  0  0  0
  1  9  1  0  0  0  0
  1 10  1  0  0  0  0
  2 12  1  0  0  0  0
  3  5  1  0  0  0  0
  4 12  2  0  0  0  0
  5  7  1  0  0  0  0
  6 12  2  0  0  0  0
  7  8  1  0  0  0  0
  8  9  1  0  0  0  0
 10 11  1  0  0  0  0
 11 12  1  0  0  0  0
M  END
>  <CHROM.1>
-71.09306662,179.22126519,-53.46633372,30.84295014,-22.71021730,5.80355137
-1.41419096,0.26685070,-2.36138511

>  <Name>
ligand

>  <RI>
0

>  <Rbt.Current_Directory>
/home/itssahil/PROJECTS/Mol_Feturizer/New_Systems/rnas/4E8N

>  <Rbt.Executable>
rbdock ($Id: //depot/dev/client3/rdock/2013.1/src/exe/rbdock.cxx#4 $)

>  <Rbt.Library>
libRbt.so (2013.1, Build901 2013/11/27)

>  <Rbt.Parameter_File>
/export/apps/rDock/src/rDock_2013.1_src/data/scripts/dock_solv.prm

>  <Rbt.Receptor>
prm/pocket_docking_7.prm

>  <SCORE>
-10.3343

>  <SCORE.INTER>
-6.31036

>  <SCORE.INTER.CONST>
1

>  <SCORE.INTER.POLAR>
0

>  <SCORE.INTER.ROT>
3

>  <SCORE.INTER.SOLV>
7.53972

>  <SCORE.INTER.VDW>
-12.3201

>  <SCORE.INTER.norm>
-0.525863

>  <SCORE.INTRA>
-4.02389

>  <SCORE.INTRA.DIHEDRAL>
-4.65197

>  <SCORE.INTRA.DIHEDRAL.0>
5.0186

>  <SCORE.INTRA.POLAR>
0

>  <SCORE.INTRA.POLAR.0>
0

>  <SCORE.INTRA.REPUL>
0

>  <SCORE.INTRA.REPUL.0>
0

>  <SCORE.INTRA.SOLV>
-0.125262

>  <SCORE.INTRA.SOLV.lig_0>
-16.1608

>  <SCORE.INTRA.VDW>
-1.63527

>  <SCORE.INTRA.VDW.0>
1.14169

>  <SCORE.INTRA.norm>
-0.335324

>  <SCORE.RESTR>
0

>  <SCORE.RESTR.CAVITY>
0

>  <SCORE.RESTR.norm>
0

>  <SCORE.SYSTEM>
0

>  <SCORE.SYSTEM.CONST>
0

>  <SCORE.SYSTEM.DIHEDRAL>
0

>  <SCORE.SYSTEM.SOLV>
0

>  <SCORE.SYSTEM.norm>
0

>  <SCORE.heavy>
12

>  <SCORE.norm>
-0.861188

>  <RMSD>
5.736

$$$$
ligand
 OpenBabel11021811493D
libRbt.so/2013.1/901 2013/11/27
 12 12  0  0  0  0  0  0  0  0999 V2000
   31.1056  -21.9394    7.2515 N   0  0  0  0  0  0  0  0  0  0  0  0
   29.2131  -24.9633    3.5406 O   0  0  0  0  0  0  0  0  0  0  0  0
   30.2292  -20.7481    7.1347 C   0  0  0  0  0  0  0  0  0  0  0  0
   30.8693  -23.4066    2.9040 O   0  0  0  0  0  0  0  0  0  0  0  0
   30.0309  -20.1590    8.5274 C   0  0  0  0  0  0  0  0  0  0  0  0
   31.5511  -25.5292    3.9357 O   0  0  0  0  0  0  0  0  0  0  0  0
   31.3162  -19.6807    9.0454 N   0  0  0  0  0  0  0  0  0  0  0  0
   32.3495  -19.9917    8.0545 C   0  0  0  0  0  0  0  0  0  0  0  0
   32.3620  -21.5020    7.8911 C   0  0  0  0  0  0  0  0  0  0  0  0
   31.3816  -22.6858    5.9600 C   0  0  0  0  0  0  0  0  0  0  0  0
   30.2038  -23.4990    5.3621 C   0  0  0  0  0  0  0  0  0  0  0  0
   30.4488  -24.3414    3.9152 S   0  0  0  0  0  0  0  0  0  0  0  0
  1  3  1  0  0  0  0
  1  9  1  0  0  0  0
  1 10  1  0  0  0  0
  2 12  1  0  0  0  0
  3  5  1  0  0  0  0
  4 12  2  0  0  0  0
  5  7  1  0  0  0  0
  6 12  2  0  0  0  0
  7  8  1  0  0  0  0
  8  9  1  0  0  0  0
 10 11  1  0  0  0  0
 11 12  1  0  0  0  0
M  END
>  <CHROM.1>
-71.67585460,179.48170516,-177.67593735,30.86571690,-22.62540907,5.83684140
-1.43571252,0.18060702,-2.34006876

>  <Name>
ligand

>  <RI>
0

>  <Rbt.Current_Directory>
/home/itssahil/PROJECTS/Mol_Feturizer/New_Systems/rnas/4E8N

>  <Rbt.Executable>
rbdock ($Id: //depot/dev/client3/rdock/2013.1/src/exe/rbdock.cxx#4 $)

>  <Rbt.Library>
libRbt.so (2013.1, Build901 2013/11/27)

>  <Rbt.Parameter_File>
/export/apps/rDock/src/rDock_2013.1_src/data/scripts/dock_solv.prm

>  <Rbt.Receptor>
prm/pocket_docking_6.prm

>  <SCORE>
-10.8522

>  <SCORE.INTER>
-6.83506

>  <SCORE.INTER.CONST>
1

>  <SCORE.INTER.POLAR>
0

>  <SCORE.INTER.ROT>
3

>  <SCORE.INTER.SOLV>
6.39108

>  <SCORE.INTER.VDW>
-12.2871

>  <SCORE.INTER.norm>
-0.569588

>  <SCORE.INTRA>
-4.0171

>  <SCORE.INTRA.DIHEDRAL>
-4.7267

>  <SCORE.INTRA.DIHEDRAL.0>
5.0186

>  <SCORE.INTRA.POLAR>
0

>  <SCORE.INTRA.POLAR.0>
0

>  <SCORE.INTRA.REPUL>
0

>  <SCORE.INTRA.REPUL.0>
0

>  <SCORE.INTRA.SOLV>
0.0712151

>  <SCORE.INTRA.SOLV.lig_0>
-16.1608

>  <SCORE.INTRA.VDW>
-1.68936

>  <SCORE.INTRA.VDW.0>
1.14169

>  <SCORE.INTRA.norm>
-0.334759

>  <SCORE.RESTR>
0

>  <SCORE.RESTR.CAVITY>
0

>  <SCORE.RESTR.norm>
0

>  <SCORE.SYSTEM>
0

>  <SCORE.SYSTEM.CONST>
0

>  <SCORE.SYSTEM.DIHEDRAL>
0

>  <SCORE.SYSTEM.SOLV>
0

>  <SCORE.SYSTEM.norm>
0

>  <SCORE.heavy>
12

>  <SCORE.norm>
-0.904347

>  <RMSD>
5.765

$$$$
ligand
 OpenBabel11021811493D
libRbt.so/2013.1/901 2013/11/27
 12 12  0  0  0  0  0  0  0  0999 V2000
   31.1129  -22.0925    7.1886 N   0  0  0  0  0  0  0  0  0  0  0  0
   31.2060  -25.6896    4.2621 O   0  0  0  0  0  0  0  0  0  0  0  0
   30.2894  -20.8698    7.0218 C   0  0  0  0  0  0  0  0  0  0  0  0
   29.1066  -24.9994    3.4327 O   0  0  0  0  0  0  0  0  0  0  0  0
   30.0999  -20.2274    8.3920 C   0  0  0  0  0  0  0  0  0  0  0  0
   31.1364  -23.8454    2.6694 O   0  0  0  0  0  0  0  0  0  0  0  0
   31.3982  -19.7869    8.9111 N   0  0  0  0  0  0  0  0  0  0  0  0
   32.4289  -20.1735    7.9445 C   0  0  0  0  0  0  0  0  0  0  0  0
   32.3791  -21.6876    7.8303 C   0  0  0  0  0  0  0  0  0  0  0  0
   31.3721  -22.8918    5.9257 C   0  0  0  0  0  0  0  0  0  0  0  0
   30.1552  -23.6291    5.3080 C   0  0  0  0  0  0  0  0  0  0  0  0
   30.3905  -24.5628    3.9165 S   0  0  0  0  0  0  0  0  0  0  0  0
  1  3  1  0  0  0  0
  1  9  1  0  0  0  0
  1 10  1  0  0  0  0
  2 12  1  0  0  0  0
  3  5  1  0  0  0  0
  4 12  2  0  0  0  0
  5  7  1  0  0  0  0
  6 12  2  0  0  0  0
  7  8  1  0  0  0  0
  8  9  1  0  0  0  0
 10 11  1  0  0  0  0
 11 12  1  0  0  0  0
M  END
>  <CHROM.1>
-69.36385718,-178.75339712,67.39600505,30.85937227,-22.79929174,5.78432784
-1.41324699,0.15357536,-2.35438078

>  <Name>
ligand

>  <RI>
0

>  <Rbt.Current_Directory>
/home/itssahil/PROJECTS/Mol_Feturizer/New_Systems/rnas/4E8N

>  <Rbt.Executable>
rbdock ($Id: //depot/dev/client3/rdock/2013.1/src/exe/rbdock.cxx#4 $)

>  <Rbt.Library>
libRbt.so (2013.1, Build901 2013/11/27)

>  <Rbt.Parameter_File>
/export/apps/rDock/src/rDock_2013.1_src/data/scripts/dock_solv.prm

>  <Rbt.Receptor>
prm/pocket_docking_8.prm

>  <SCORE>
-11.1573

>  <SCORE.INTER>
-7.12958

>  <SCORE.INTER.CONST>
1

>  <SCORE.INTER.POLAR>
0

>  <SCORE.INTER.ROT>
3

>  <SCORE.INTER.SOLV>
6.57602

>  <SCORE.INTER.VDW>
-12.5451

>  <SCORE.INTER.norm>
-0.594132

>  <SCORE.INTRA>
-4.0277

>  <SCORE.INTRA.DIHEDRAL>
-4.68048

>  <SCORE.INTRA.DIHEDRAL.0>
5.0186

>  <SCORE.INTRA.POLAR>
0

>  <SCORE.INTRA.POLAR.0>
0

>  <SCORE.INTRA.REPUL>
0

>  <SCORE.INTRA.REPUL.0>
0

>  <SCORE.INTRA.SOLV>
-0.0919094

>  <SCORE.INTRA.SOLV.lig_0>
-16.1608

>  <SCORE.INTRA.VDW>
-1.6415

>  <SCORE.INTRA.VDW.0>
1.14169

>  <SCORE.INTRA.norm>
-0.335642

>  <SCORE.RESTR>
0

>  <SCORE.RESTR.CAVITY>
0

>  <SCORE.RESTR.norm>
0

>  <SCORE.SYSTEM>
0

>  <SCORE.SYSTEM.CONST>
0

>  <SCORE.SYSTEM.DIHEDRAL>
0

>  <SCORE.SYSTEM.SOLV>
0

>  <SCORE.SYSTEM.norm>
0

>  <SCORE.heavy>
12

>  <SCORE.norm>
-0.929774

>  <RMSD>
5.769

$$$$
ligand
 OpenBabel11021811493D
libRbt.so/2013.1/901 2013/11/27
 12 12  0  0  0  0  0  0  0  0999 V2000
   31.0969  -21.9594    7.2581 N   0  0  0  0  0  0  0  0  0  0  0  0
   29.1950  -25.0139    3.5792 O   0  0  0  0  0  0  0  0  0  0  0  0
   30.2338  -20.7611    7.1163 C   0  0  0  0  0  0  0  0  0  0  0  0
   30.8859  -23.4921    2.9495 O   0  0  0  0  0  0  0  0  0  0  0  0
   30.0323  -20.1478    8.4981 C   0  0  0  0  0  0  0  0  0  0  0  0
   31.5184  -25.6234    3.9947 O   0  0  0  0  0  0  0  0  0  0  0  0
   31.3190  -19.6746    9.0173 N   0  0  0  0  0  0  0  0  0  0  0  0
   32.3556  -20.0121    8.0387 C   0  0  0  0  0  0  0  0  0  0  0  0
   32.3535  -21.5248    7.8994 C   0  0  0  0  0  0  0  0  0  0  0  0
   31.3738  -22.7291    5.9806 C   0  0  0  0  0  0  0  0  0  0  0  0
   30.1997  -23.5618    5.4027 C   0  0  0  0  0  0  0  0  0  0  0  0
   30.4396  -24.4146    3.9610 S   0  0  0  0  0  0  0  0  0  0  0  0
  1  3  1  0  0  0  0
  1  9  1  0  0  0  0
  1 10  1  0  0  0  0
  2 12  1  0  0  0  0
  3  5  1  0  0  0  0
  4 12  2  0  0  0  0
  5  7  1  0  0  0  0
  6 12  2  0  0  0  0
  7  8  1  0  0  0  0
  8  9  1  0  0  0  0
 10 11  1  0  0  0  0
 11 12  1  0  0  0  0
M  END
>  <CHROM.1>
-72.83933161,178.69364802,-175.56965503,30.86030441,-22.66880197,5.85526459
-1.43365154,0.19083163,-2.35752373

>  <Name>
ligand

>  <RI>
0

>  <Rbt.Current_Directory>
/home/itssahil/PROJECTS/Mol_Feturizer/New_Systems/rnas/4E8N

>  <Rbt.Executable>
rbdock ($Id: //depot/dev/client3/rdock/2013.1/src/exe/rbdock.cxx#4 $)

>  <Rbt.Library>
libRbt.so (2013.1, Build901 2013/11/27)

>  <Rbt.Parameter_File>
/export/apps/rDock/src/rDock_2013.1_src/data/scripts/dock_solv.prm

>  <Rbt.Receptor>
prm/pocket_docking_4.prm

>  <SCORE>
-10.8197

>  <SCORE.INTER>
-6.84049

>  <SCORE.INTER.CONST>
1

>  <SCORE.INTER.POLAR>
0

>  <SCORE.INTER.ROT>
3

>  <SCORE.INTER.SOLV>
6.53355

>  <SCORE.INTER.VDW>
-12.3382

>  <SCORE.INTER.norm>
-0.570041

>  <SCORE.INTRA>
-3.97925

>  <SCORE.INTRA.DIHEDRAL>
-4.63586

>  <SCORE.INTRA.DIHEDRAL.0>
5.0186

>  <SCORE.INTRA.POLAR>
0

>  <SCORE.INTRA.POLAR.0>
0

>  <SCORE.INTRA.REPUL>
0

>  <SCORE.INTRA.REPUL.0>
0

>  <SCORE.INTRA.SOLV>
0.0708447

>  <SCORE.INTRA.SOLV.lig_0>
-16.1608

>  <SCORE.INTRA.VDW>
-1.69674

>  <SCORE.INTRA.VDW.0>
1.14169

>  <SCORE.INTRA.norm>
-0.331604

>  <SCORE.RESTR>
0

>  <SCORE.RESTR.CAVITY>
0

>  <SCORE.RESTR.norm>
0

>  <SCORE.SYSTEM>
0

>  <SCORE.SYSTEM.CONST>
0

>  <SCORE.SYSTEM.DIHEDRAL>
0

>  <SCORE.SYSTEM.SOLV>
0

>  <SCORE.SYSTEM.norm>
0

>  <SCORE.heavy>
12

>  <SCORE.norm>
-0.901645

>  <RMSD>
5.773

$$$$
ligand
 OpenBabel11021811493D
libRbt.so/2013.1/901 2013/11/27
 12 12  0  0  0  0  0  0  0  0999 V2000
   31.0078  -21.9273    7.1389 N   0  0  0  0  0  0  0  0  0  0  0  0
   31.3943  -25.5065    4.1442 O   0  0  0  0  0  0  0  0  0  0  0  0
   30.2545  -20.6496    7.1086 C   0  0  0  0  0  0  0  0  0  0  0  0
   29.1623  -25.0761    3.5079 O   0  0  0  0  0  0  0  0  0  0  0  0
   30.0938  -20.1523    8.5414 C   0  0  0  0  0  0  0  0  0  0  0  0
   30.9549  -23.6348    2.6453 O   0  0  0  0  0  0  0  0  0  0  0  0
   31.4118  -19.8449    9.1048 N   0  0  0  0  0  0  0  0  0  0  0  0
   32.4245  -20.1798    8.1006 C   0  0  0  0  0  0  0  0  0  0  0  0
   32.2912  -21.6669    7.8202 C   0  0  0  0  0  0  0  0  0  0  0  0
   31.2288  -22.5960    5.7954 C   0  0  0  0  0  0  0  0  0  0  0  0
   30.1709  -23.6425    5.3576 C   0  0  0  0  0  0  0  0  0  0  0  0
   30.4130  -24.4881    3.9120 S   0  0  0  0  0  0  0  0  0  0  0  0
  1  3  1  0  0  0  0
  1  9  1  0  0  0  0
  1 10  1  0  0  0  0
  2 12  1  0  0  0  0
  3  5  1  0  0  0  0
  4 12  2  0  0  0  0
  5  7  1  0  0  0  0
  6 12  2  0  0  0  0
  7  8  1  0  0  0  0
  8  9  1  0  0  0  0
 10 11  1  0  0  0  0
 11 12  1  0  0  0  0
M  END
>  <CHROM.1>
-92.41386651,-176.39733046,77.19428468,30.84261537,-22.70942230,5.81052845
1.42512820,-0.15355631,0.80603397

>  <Name>
ligand

>  <RI>
0

>  <Rbt.Current_Directory>
/home/itssahil/PROJECTS/Mol_Feturizer/New_Systems/rnas/4E8N

>  <Rbt.Executable>
rbdock ($Id: //depot/dev/client3/rdock/2013.1/src/exe/rbdock.cxx#4 $)

>  <Rbt.Library>
libRbt.so (2013.1, Build901 2013/11/27)

>  <Rbt.Parameter_File>
/export/apps/rDock/src/rDock_2013.1_src/data/scripts/dock_solv.prm

>  <Rbt.Receptor>
prm/pocket_docking_7.prm

>  <SCORE>
-10.537

>  <SCORE.INTER>
-7.25064

>  <SCORE.INTER.CONST>
1

>  <SCORE.INTER.POLAR>
0

>  <SCORE.INTER.ROT>
3

>  <SCORE.INTER.SOLV>
6.6591

>  <SCORE.INTER.VDW>
-12.6535

>  <SCORE.INTER.norm>
-0.60422

>  <SCORE.INTRA>
-3.28637

>  <SCORE.INTRA.DIHEDRAL>
-2.82972

>  <SCORE.INTRA.DIHEDRAL.0>
5.0186

>  <SCORE.INTRA.POLAR>
0

>  <SCORE.INTRA.POLAR.0>
0

>  <SCORE.INTRA.REPUL>
0

>  <SCORE.INTRA.REPUL.0>
0

>  <SCORE.INTRA.SOLV>
-0.0728608

>  <SCORE.INTRA.SOLV.lig_0>
-16.1608

>  <SCORE.INTRA.VDW>
-1.83508

>  <SCORE.INTRA.VDW.0>
1.14169

>  <SCORE.INTRA.norm>
-0.273864

>  <SCORE.RESTR>
0

>  <SCORE.RESTR.CAVITY>
0

>  <SCORE.RESTR.norm>
0

>  <SCORE.SYSTEM>
0

>  <SCORE.SYSTEM.CONST>
0

>  <SCORE.SYSTEM.DIHEDRAL>
0

>  <SCORE.SYSTEM.SOLV>
0

>  <SCORE.SYSTEM.norm>
0

>  <SCORE.heavy>
12

>  <SCORE.norm>
-0.878085

>  <RMSD>
5.774

$$$$
ligand
 OpenBabel11021811493D
libRbt.so/2013.1/901 2013/11/27
 12 12  0  0  0  0  0  0  0  0999 V2000
   29.4593  -25.4700    1.9900 N   0  0  0  0  0  0  0  0  0  0  0  0
   31.7169  -24.2333    4.5729 O   0  0  0  0  0  0  0  0  0  0  0  0
   29.9791  -26.2543    0.8430 C   0  0  0  0  0  0  0  0  0  0  0  0
   30.2252  -22.9431    5.8698 O   0  0  0  0  0  0  0  0  0  0  0  0
   29.4500  -27.6802    0.9567 C   0  0  0  0  0  0  0  0  0  0  0  0
   29.6804  -25.2911    5.3955 O   0  0  0  0  0  0  0  0  0  0  0  0
   27.9897  -27.6734    0.8284 N   0  0  0  0  0  0  0  0  0  0  0  0
   27.5522  -26.2821    0.6904 C   0  0  0  0  0  0  0  0  0  0  0  0
   27.9862  -25.5571    1.9529 C   0  0  0  0  0  0  0  0  0  0  0  0
   29.9191  -24.0264    2.0657 C   0  0  0  0  0  0  0  0  0  0  0  0
   29.6704  -23.2872    3.4065 C   0  0  0  0  0  0  0  0  0  0  0  0
   30.3397  -23.9256    4.8235 S   0  0  0  0  0  0  0  0  0  0  0  0
  1  3  1  0  0  0  0
  1  9  1  0  0  0  0
  1 10  1  0  0  0  0
  2 12  1  0  0  0  0
  3  5  1  0  0  0  0
  4 12  2  0  0  0  0
  5  7  1  0  0  0  0
  6 12  2  0  0  0  0
  7  8  1  0  0  0  0
  8  9  1  0  0  0  0
 10 11  1  0  0  0  0
 11 12  1  0  0  0  0
M  END
>  <CHROM.1>
-166.12496874,58.23311879,47.83582119,29.60866033,-25.06434412,3.05151433
2.10858060,0.83413370,-2.62197358

>  <Name>
ligand

>  <RI>
0

>  <Rbt.Current_Directory>
/home/itssahil/PROJECTS/Mol_Feturizer/New_Systems/rnas/4E8N

>  <Rbt.Executable>
rbdock ($Id: //depot/dev/client3/rdock/2013.1/src/exe/rbdock.cxx#4 $)

>  <Rbt.Library>
libRbt.so (2013.1, Build901 2013/11/27)

>  <Rbt.Parameter_File>
/export/apps/rDock/src/rDock_2013.1_src/data/scripts/dock_solv.prm

>  <Rbt.Receptor>
prm/pocket_docking_8.prm

>  <SCORE>
-12.7889

>  <SCORE.INTER>
-8.7923

>  <SCORE.INTER.CONST>
1

>  <SCORE.INTER.POLAR>
0

>  <SCORE.INTER.ROT>
3

>  <SCORE.INTER.SOLV>
7.79702

>  <SCORE.INTER.VDW>
-14.0605

>  <SCORE.INTER.norm>
-0.732692

>  <SCORE.INTRA>
-3.99662

>  <SCORE.INTRA.DIHEDRAL>
-4.41937

>  <SCORE.INTRA.DIHEDRAL.0>
5.0186

>  <SCORE.INTRA.POLAR>
0

>  <SCORE.INTRA.POLAR.0>
0

>  <SCORE.INTRA.REPUL>
0

>  <SCORE.INTRA.REPUL.0>
0

>  <SCORE.INTRA.SOLV>
0.394188

>  <SCORE.INTRA.SOLV.lig_0>
-16.1608

>  <SCORE.INTRA.VDW>
-1.98403

>  <SCORE.INTRA.VDW.0>
1.14169

>  <SCORE.INTRA.norm>
-0.333052

>  <SCORE.RESTR>
0

>  <SCORE.RESTR.CAVITY>
0

>  <SCORE.RESTR.norm>
0

>  <SCORE.SYSTEM>
0

>  <SCORE.SYSTEM.CONST>
0

>  <SCORE.SYSTEM.DIHEDRAL>
0

>  <SCORE.SYSTEM.SOLV>
0

>  <SCORE.SYSTEM.norm>
0

>  <SCORE.heavy>
12

>  <SCORE.norm>
-1.06574

>  <RMSD>
5.789

$$$$
ligand
 OpenBabel11021811493D
libRbt.so/2013.1/901 2013/11/27
 12 12  0  0  0  0  0  0  0  0999 V2000
   30.7048  -21.7719    7.0554 N   0  0  0  0  0  0  0  0  0  0  0  0
   29.2466  -24.4875    3.5513 O   0  0  0  0  0  0  0  0  0  0  0  0
   30.0896  -20.4460    7.3092 C   0  0  0  0  0  0  0  0  0  0  0  0
   31.4305  -23.7611    3.0274 O   0  0  0  0  0  0  0  0  0  0  0  0
   30.3574  -20.0618    8.7607 C   0  0  0  0  0  0  0  0  0  0  0  0
   31.0822  -26.0767    3.7699 O   0  0  0  0  0  0  0  0  0  0  0  0
   31.7994  -19.8976    8.9667 N   0  0  0  0  0  0  0  0  0  0  0  0
   32.4775  -20.2172    7.7080 C   0  0  0  0  0  0  0  0  0  0  0  0
   32.1404  -21.6619    7.3811 C   0  0  0  0  0  0  0  0  0  0  0  0
   30.5028  -22.3383    5.6627 C   0  0  0  0  0  0  0  0  0  0  0  0
   30.7648  -23.8568    5.4854 C   0  0  0  0  0  0  0  0  0  0  0  0
   30.6255  -24.5311    3.9397 S   0  0  0  0  0  0  0  0  0  0  0  0
  1  3  1  0  0  0  0
  1  9  1  0  0  0  0
  1 10  1  0  0  0  0
  2 12  1  0  0  0  0
  3  5  1  0  0  0  0
  4 12  2  0  0  0  0
  5  7  1  0  0  0  0
  6 12  2  0  0  0  0
  7  8  1  0  0  0  0
  8  9  1  0  0  0  0
 10 11  1  0  0  0  0
 11 12  1  0  0  0  0
M  END
>  <CHROM.1>
-162.95197792,-177.19681749,-67.94970652,30.89528540,-22.69583391,5.77284299
1.45874636,-0.09501906,0.77991081

>  <Name>
ligand

>  <RI>
0

>  <Rbt.Current_Directory>
/home/itssahil/PROJECTS/Mol_Feturizer/New_Systems/rnas/4E8N

>  <Rbt.Executable>
rbdock ($Id: //depot/dev/client3/rdock/2013.1/src/exe/rbdock.cxx#4 $)

>  <Rbt.Library>
libRbt.so (2013.1, Build901 2013/11/27)

>  <Rbt.Parameter_File>
/export/apps/rDock/src/rDock_2013.1_src/data/scripts/dock_solv.prm

>  <Rbt.Receptor>
prm/pocket_docking_6.prm

>  <SCORE>
-10.8227

>  <SCORE.INTER>
-7.00455

>  <SCORE.INTER.CONST>
1

>  <SCORE.INTER.POLAR>
0

>  <SCORE.INTER.ROT>
3

>  <SCORE.INTER.SOLV>
6.64324

>  <SCORE.INTER.VDW>
-12.4841

>  <SCORE.INTER.norm>
-0.583712

>  <SCORE.INTRA>
-3.81817

>  <SCORE.INTRA.DIHEDRAL>
-4.46295

>  <SCORE.INTRA.DIHEDRAL.0>
5.0186

>  <SCORE.INTRA.POLAR>
0

>  <SCORE.INTRA.POLAR.0>
0

>  <SCORE.INTRA.REPUL>
0

>  <SCORE.INTRA.REPUL.0>
0

>  <SCORE.INTRA.SOLV>
-0.0924368

>  <SCORE.INTRA.SOLV.lig_0>
-16.1608

>  <SCORE.INTRA.VDW>
-1.54047

>  <SCORE.INTRA.VDW.0>
1.14169

>  <SCORE.INTRA.norm>
-0.318181

>  <SCORE.RESTR>
0

>  <SCORE.RESTR.CAVITY>
0

>  <SCORE.RESTR.norm>
0

>  <SCORE.SYSTEM>
0

>  <SCORE.SYSTEM.CONST>
0

>  <SCORE.SYSTEM.DIHEDRAL>
0

>  <SCORE.SYSTEM.SOLV>
0

>  <SCORE.SYSTEM.norm>
0

>  <SCORE.heavy>
12

>  <SCORE.norm>
-0.901893

>  <RMSD>
5.794

$$$$
ligand
 OpenBabel11021811493D
libRbt.so/2013.1/901 2013/11/27
 12 12  0  0  0  0  0  0  0  0999 V2000
   30.7229  -21.7350    7.1358 N   0  0  0  0  0  0  0  0  0  0  0  0
   30.9700  -25.9169    4.1522 O   0  0  0  0  0  0  0  0  0  0  0  0
   30.1208  -20.3935    7.3333 C   0  0  0  0  0  0  0  0  0  0  0  0
   29.3134  -24.3522    3.5363 O   0  0  0  0  0  0  0  0  0  0  0  0
   30.2638  -20.0145    8.8037 C   0  0  0  0  0  0  0  0  0  0  0  0
   31.6539  -23.9250    2.9246 O   0  0  0  0  0  0  0  0  0  0  0  0
   31.6845  -19.8867    9.1416 N   0  0  0  0  0  0  0  0  0  0  0  0
   32.4671  -20.2250    7.9502 C   0  0  0  0  0  0  0  0  0  0  0  0
   32.1248  -21.6611    7.5921 C   0  0  0  0  0  0  0  0  0  0  0  0
   30.6354  -22.2977    5.7298 C   0  0  0  0  0  0  0  0  0  0  0  0
   30.7305  -23.8397    5.5913 C   0  0  0  0  0  0  0  0  0  0  0  0
   30.6491  -24.5242    4.0460 S   0  0  0  0  0  0  0  0  0  0  0  0
  1  3  1  0  0  0  0
  1  9  1  0  0  0  0
  1 10  1  0  0  0  0
  2 12  1  0  0  0  0
  3  5  1  0  0  0  0
  4 12  2  0  0  0  0
  5  7  1  0  0  0  0
  6 12  2  0  0  0  0
  7  8  1  0  0  0  0
  8  9  1  0  0  0  0
 10 11  1  0  0  0  0
 11 12  1  0  0  0  0
M  END
>  <CHROM.1>
-156.95149956,-179.61179568,170.93005799,30.90769383,-22.66930358,5.88177896
1.47099420,-0.12111417,0.78959533

>  <Name>
ligand

>  <RI>
0

>  <Rbt.Current_Directory>
/home/itssahil/PROJECTS/Mol_Feturizer/New_Systems/rnas/4E8N

>  <Rbt.Executable>
rbdock ($Id: //depot/dev/client3/rdock/2013.1/src/exe/rbdock.cxx#4 $)

>  <Rbt.Library>
libRbt.so (2013.1, Build901 2013/11/27)

>  <Rbt.Parameter_File>
/export/apps/rDock/src/rDock_2013.1_src/data/scripts/dock_solv.prm

>  <Rbt.Receptor>
prm/pocket_docking_6.prm

>  <SCORE>
-11.4708

>  <SCORE.INTER>
-7.77163

>  <SCORE.INTER.CONST>
1

>  <SCORE.INTER.POLAR>
0

>  <SCORE.INTER.ROT>
3

>  <SCORE.INTER.SOLV>
6.54662

>  <SCORE.INTER.VDW>
-12.9633

>  <SCORE.INTER.norm>
-0.647636

>  <SCORE.INTRA>
-3.69917

>  <SCORE.INTRA.DIHEDRAL>
-4.13798

>  <SCORE.INTRA.DIHEDRAL.0>
5.0186

>  <SCORE.INTRA.POLAR>
0

>  <SCORE.INTRA.POLAR.0>
0

>  <SCORE.INTRA.REPUL>
0

>  <SCORE.INTRA.REPUL.0>
0

>  <SCORE.INTRA.SOLV>
0.0708096

>  <SCORE.INTRA.SOLV.lig_0>
-16.1608

>  <SCORE.INTRA.VDW>
-1.66559

>  <SCORE.INTRA.VDW.0>
1.14169

>  <SCORE.INTRA.norm>
-0.308264

>  <SCORE.RESTR>
0

>  <SCORE.RESTR.CAVITY>
0

>  <SCORE.RESTR.norm>
0

>  <SCORE.SYSTEM>
0

>  <SCORE.SYSTEM.CONST>
0

>  <SCORE.SYSTEM.DIHEDRAL>
0

>  <SCORE.SYSTEM.SOLV>
0

>  <SCORE.SYSTEM.norm>
0

>  <SCORE.heavy>
12

>  <SCORE.norm>
-0.9559

>  <RMSD>
5.813

$$$$
ligand
 OpenBabel11021811493D
libRbt.so/2013.1/901 2013/11/27
 12 12  0  0  0  0  0  0  0  0999 V2000
   29.5040  -25.2920    2.0155 N   0  0  0  0  0  0  0  0  0  0  0  0
   29.7150  -25.2082    5.3091 O   0  0  0  0  0  0  0  0  0  0  0  0
   29.9183  -25.8991    0.7269 C   0  0  0  0  0  0  0  0  0  0  0  0
   31.8177  -24.6372    4.4010 O   0  0  0  0  0  0  0  0  0  0  0  0
   29.4975  -27.3651    0.7290 C   0  0  0  0  0  0  0  0  0  0  0  0
   30.9069  -23.3016    6.2507 O   0  0  0  0  0  0  0  0  0  0  0  0
   28.0352  -27.4557    0.7805 N   0  0  0  0  0  0  0  0  0  0  0  0
   27.4985  -26.0954    0.8674 C   0  0  0  0  0  0  0  0  0  0  0  0
   28.0467  -25.4870    2.1470 C   0  0  0  0  0  0  0  0  0  0  0  0
   29.8797  -23.8353    2.2105 C   0  0  0  0  0  0  0  0  0  0  0  0
   29.7915  -23.2825    3.6571 C   0  0  0  0  0  0  0  0  0  0  0  0
   30.5660  -24.1299    4.9002 S   0  0  0  0  0  0  0  0  0  0  0  0
  1  3  1  0  0  0  0
  1  9  1  0  0  0  0
  1 10  1  0  0  0  0
  2 12  1  0  0  0  0
  3  5  1  0  0  0  0
  4 12  2  0  0  0  0
  5  7  1  0  0  0  0
  6 12  2  0  0  0  0
  7  8  1  0  0  0  0
  8  9  1  0  0  0  0
 10 11  1  0  0  0  0
 11 12  1  0  0  0  0
M  END
>  <CHROM.1>
-164.81837103,51.45742616,-81.74252550,29.72647085,-25.04421749,3.10371944
-1.97545074,-0.04043257,1.00990749

>  <Name>
ligand

>  <RI>
0

>  <Rbt.Current_Directory>
/home/itssahil/PROJECTS/Mol_Feturizer/New_Systems/rnas/4E8N

>  <Rbt.Executable>
rbdock ($Id: //depot/dev/client3/rdock/2013.1/src/exe/rbdock.cxx#4 $)

>  <Rbt.Library>
libRbt.so (2013.1, Build901 2013/11/27)

>  <Rbt.Parameter_File>
/export/apps/rDock/src/rDock_2013.1_src/data/scripts/dock_solv.prm

>  <Rbt.Receptor>
prm/pocket_docking_8.prm

>  <SCORE>
-13.4448

>  <SCORE.INTER>
-9.78774

>  <SCORE.INTER.CONST>
1

>  <SCORE.INTER.POLAR>
0

>  <SCORE.INTER.ROT>
3

>  <SCORE.INTER.SOLV>
6.40666

>  <SCORE.INTER.VDW>
-14.2607

>  <SCORE.INTER.norm>
-0.815645

>  <SCORE.INTRA>
-3.65707

>  <SCORE.INTRA.DIHEDRAL>
-3.42268

>  <SCORE.INTRA.DIHEDRAL.0>
5.0186

>  <SCORE.INTRA.POLAR>
0

>  <SCORE.INTRA.POLAR.0>
0

>  <SCORE.INTRA.REPUL>
0

>  <SCORE.INTRA.REPUL.0>
0

>  <SCORE.INTRA.SOLV>
0.350931

>  <SCORE.INTRA.SOLV.lig_0>
-16.1608

>  <SCORE.INTRA.VDW>
-2.12119

>  <SCORE.INTRA.VDW.0>
1.14169

>  <SCORE.INTRA.norm>
-0.304756

>  <SCORE.RESTR>
0

>  <SCORE.RESTR.CAVITY>
0

>  <SCORE.RESTR.norm>
0

>  <SCORE.SYSTEM>
0

>  <SCORE.SYSTEM.CONST>
0

>  <SCORE.SYSTEM.DIHEDRAL>
0

>  <SCORE.SYSTEM.SOLV>
0

>  <SCORE.SYSTEM.norm>
0

>  <SCORE.heavy>
12

>  <SCORE.norm>
-1.1204

>  <RMSD>
5.815

$$$$
ligand
 OpenBabel11021811493D
libRbt.so/2013.1/901 2013/11/27
 12 12  0  0  0  0  0  0  0  0999 V2000
   31.7735  -20.0432    8.2932 N   0  0  0  0  0  0  0  0  0  0  0  0
   32.0776  -22.2315    4.8344 O   0  0  0  0  0  0  0  0  0  0  0  0
   32.9478  -20.0469    9.1997 C   0  0  0  0  0  0  0  0  0  0  0  0
   33.5768  -20.7688    5.9229 O   0  0  0  0  0  0  0  0  0  0  0  0
   33.3647  -18.6017    9.4520 C   0  0  0  0  0  0  0  0  0  0  0  0
   34.2731  -23.0804    5.4686 O   0  0  0  0  0  0  0  0  0  0  0  0
   32.2926  -17.8988   10.1629 N   0  0  0  0  0  0  0  0  0  0  0  0
   31.1727  -18.8283   10.3300 C   0  0  0  0  0  0  0  0  0  0  0  0
   30.7225  -19.2299    8.9358 C   0  0  0  0  0  0  0  0  0  0  0  0
   31.2416  -21.4071    7.8955 C   0  0  0  0  0  0  0  0  0  0  0  0
   32.2785  -22.4274    7.3572 C   0  0  0  0  0  0  0  0  0  0  0  0
   33.0459  -22.1066    5.8836 S   0  0  0  0  0  0  0  0  0  0  0  0
  1  3  1  0  0  0  0
  1  9  1  0  0  0  0
  1 10  1  0  0  0  0
  2 12  1  0  0  0  0
  3  5  1  0  0  0  0
  4 12  2  0  0  0  0
  5  7  1  0  0  0  0
  6 12  2  0  0  0  0
  7  8  1  0  0  0  0
  8  9  1  0  0  0  0
 10 11  1  0  0  0  0
 11 12  1  0  0  0  0
M  END
>  <CHROM.1>
-50.31722581,-66.19226480,-69.49687473,32.48627681,-20.74698353,7.55620681
1.79554210,0.21562206,0.81196365

>  <Name>
ligand

>  <RI>
0

>  <Rbt.Current_Directory>
/home/itssahil/PROJECTS/Mol_Feturizer/New_Systems/rnas/4E8N

>  <Rbt.Executable>
rbdock ($Id: //depot/dev/client3/rdock/2013.1/src/exe/rbdock.cxx#4 $)

>  <Rbt.Library>
libRbt.so (2013.1, Build901 2013/11/27)

>  <Rbt.Parameter_File>
/export/apps/rDock/src/rDock_2013.1_src/data/scripts/dock_solv.prm

>  <Rbt.Receptor>
prm/pocket_docking_5.prm

>  <SCORE>
-10.6093

>  <SCORE.INTER>
-6.80643

>  <SCORE.INTER.CONST>
1

>  <SCORE.INTER.POLAR>
0

>  <SCORE.INTER.ROT>
3

>  <SCORE.INTER.SOLV>
5.44615

>  <SCORE.INTER.VDW>
-11.953

>  <SCORE.INTER.norm>
-0.567203

>  <SCORE.INTRA>
-3.80282

>  <SCORE.INTRA.DIHEDRAL>
-4.55462

>  <SCORE.INTRA.DIHEDRAL.0>
5.0186

>  <SCORE.INTRA.POLAR>
0

>  <SCORE.INTRA.POLAR.0>
0

>  <SCORE.INTRA.REPUL>
0

>  <SCORE.INTRA.REPUL.0>
0

>  <SCORE.INTRA.SOLV>
0.594322

>  <SCORE.INTRA.SOLV.lig_0>
-16.1608

>  <SCORE.INTRA.VDW>
-1.82267

>  <SCORE.INTRA.VDW.0>
1.14169

>  <SCORE.INTRA.norm>
-0.316902

>  <SCORE.RESTR>
0

>  <SCORE.RESTR.CAVITY>
0

>  <SCORE.RESTR.norm>
0

>  <SCORE.SYSTEM>
0

>  <SCORE.SYSTEM.CONST>
0

>  <SCORE.SYSTEM.DIHEDRAL>
0

>  <SCORE.SYSTEM.SOLV>
0

>  <SCORE.SYSTEM.norm>
0

>  <SCORE.heavy>
12

>  <SCORE.norm>
-0.884104

>  <RMSD>
5.895

$$$$
ligand
 OpenBabel11021811493D
libRbt.so/2013.1/901 2013/11/27
 12 12  0  0  0  0  0  0  0  0999 V2000
   31.1455  -21.9653    5.2014 N   0  0  0  0  0  0  0  0  0  0  0  0
   28.5463  -25.0165    2.8721 O   0  0  0  0  0  0  0  0  0  0  0  0
   32.6275  -22.0133    5.2482 C   0  0  0  0  0  0  0  0  0  0  0  0
   29.8804  -24.6186    0.9660 O   0  0  0  0  0  0  0  0  0  0  0  0
   33.1341  -20.6856    5.8019 C   0  0  0  0  0  0  0  0  0  0  0  0
   30.7272  -26.0971    2.7355 O   0  0  0  0  0  0  0  0  0  0  0  0
   32.6791  -20.5257    7.1863 N   0  0  0  0  0  0  0  0  0  0  0  0
   31.8478  -21.6826    7.5278 C   0  0  0  0  0  0  0  0  0  0  0  0
   30.6698  -21.6765    6.5686 C   0  0  0  0  0  0  0  0  0  0  0  0
   30.4622  -23.1950    4.6339 C   0  0  0  0  0  0  0  0  0  0  0  0
   30.4159  -23.3132    3.0880 C   0  0  0  0  0  0  0  0  0  0  0  0
   29.8747  -24.7607    2.3988 S   0  0  0  0  0  0  0  0  0  0  0  0
  1  3  1  0  0  0  0
  1  9  1  0  0  0  0
  1 10  1  0  0  0  0
  2 12  1  0  0  0  0
  3  5  1  0  0  0  0
  4 12  2  0  0  0  0
  5  7  1  0  0  0  0
  6 12  2  0  0  0  0
  7  8  1  0  0  0  0
  8  9  1  0  0  0  0
 10 11  1  0  0  0  0
 11 12  1  0  0  0  0
M  END
>  <CHROM.1>
-80.25326936,171.12012694,58.15897426,30.85555256,-23.20181350,4.24812879
1.10672665,0.51911017,1.09783296

>  <Name>
ligand

>  <RI>
0

>  <Rbt.Current_Directory>
/home/itssahil/PROJECTS/Mol_Feturizer/New_Systems/rnas/4E8N

>  <Rbt.Executable>
rbdock ($Id: //depot/dev/client3/rdock/2013.1/src/exe/rbdock.cxx#4 $)

>  <Rbt.Library>
libRbt.so (2013.1, Build901 2013/11/27)

>  <Rbt.Parameter_File>
/export/apps/rDock/src/rDock_2013.1_src/data/scripts/dock_solv.prm

>  <Rbt.Receptor>
prm/pocket_docking_4.prm

>  <SCORE>
-8.32941

>  <SCORE.INTER>
-4.5232

>  <SCORE.INTER.CONST>
1

>  <SCORE.INTER.POLAR>
0

>  <SCORE.INTER.ROT>
3

>  <SCORE.INTER.SOLV>
3.95841

>  <SCORE.INTER.VDW>
-9.93493

>  <SCORE.INTER.norm>
-0.376933

>  <SCORE.INTRA>
-3.80621

>  <SCORE.INTRA.DIHEDRAL>
-4.02394

>  <SCORE.INTRA.DIHEDRAL.0>
5.0186

>  <SCORE.INTRA.POLAR>
0

>  <SCORE.INTRA.POLAR.0>
0

>  <SCORE.INTRA.REPUL>
0

>  <SCORE.INTRA.REPUL.0>
0

>  <SCORE.INTRA.SOLV>
-0.111253

>  <SCORE.INTRA.SOLV.lig_0>
-16.1608

>  <SCORE.INTRA.VDW>
-1.73861

>  <SCORE.INTRA.VDW.0>
1.14169

>  <SCORE.INTRA.norm>
-0.317184

>  <SCORE.RESTR>
0

>  <SCORE.RESTR.CAVITY>
0

>  <SCORE.RESTR.norm>
0

>  <SCORE.SYSTEM>
0

>  <SCORE.SYSTEM.CONST>
0

>  <SCORE.SYSTEM.DIHEDRAL>
0

>  <SCORE.SYSTEM.SOLV>
0

>  <SCORE.SYSTEM.norm>
0

>  <SCORE.heavy>
12

>  <SCORE.norm>
-0.694117

>  <RMSD>
5.906

$$$$
ligand
 OpenBabel11021811493D
libRbt.so/2013.1/901 2013/11/27
 12 12  0  0  0  0  0  0  0  0999 V2000
   31.0430  -23.1198    5.0592 N   0  0  0  0  0  0  0  0  0  0  0  0
   31.1666  -23.8444    1.9647 O   0  0  0  0  0  0  0  0  0  0  0  0
   32.4533  -23.2142    4.6087 C   0  0  0  0  0  0  0  0  0  0  0  0
   31.4809  -26.0791    2.6566 O   0  0  0  0  0  0  0  0  0  0  0  0
   33.0700  -21.8204    4.6648 C   0  0  0  0  0  0  0  0  0  0  0  0
   29.7481  -25.5713    0.9910 O   0  0  0  0  0  0  0  0  0  0  0  0
   33.1075  -21.3561    6.0547 N   0  0  0  0  0  0  0  0  0  0  0  0
   32.4841  -22.3826    6.8937 C   0  0  0  0  0  0  0  0  0  0  0  0
   31.0506  -22.5324    6.4134 C   0  0  0  0  0  0  0  0  0  0  0  0
   30.2521  -24.4140    5.0300 C   0  0  0  0  0  0  0  0  0  0  0  0
   29.5540  -24.7717    3.6918 C   0  0  0  0  0  0  0  0  0  0  0  0
   30.5117  -25.0662    2.3282 S   0  0  0  0  0  0  0  0  0  0  0  0
  1  3  1  0  0  0  0
  1  9  1  0  0  0  0
  1 10  1  0  0  0  0
  2 12  1  0  0  0  0
  3  5  1  0  0  0  0
  4 12  2  0  0  0  0
  5  7  1  0  0  0  0
  6 12  2  0  0  0  0
  7  8  1  0  0  0  0
  8  9  1  0  0  0  0
 10 11  1  0  0  0  0
 11 12  1  0  0  0  0
M  END
>  <CHROM.1>
-86.86870964,63.78012435,-66.29104210,31.23394245,-23.85695069,3.94924798
1.09542031,0.63612281,1.19697126

>  <Name>
ligand

>  <RI>
0

>  <Rbt.Current_Directory>
/home/itssahil/PROJECTS/Mol_Feturizer/New_Systems/rnas/4E8N

>  <Rbt.Executable>
rbdock ($Id: //depot/dev/client3/rdock/2013.1/src/exe/rbdock.cxx#4 $)

>  <Rbt.Library>
libRbt.so (2013.1, Build901 2013/11/27)

>  <Rbt.Parameter_File>
/export/apps/rDock/src/rDock_2013.1_src/data/scripts/dock_solv.prm

>  <Rbt.Receptor>
prm/pocket_docking_8.prm

>  <SCORE>
-10.0817

>  <SCORE.INTER>
-5.86345

>  <SCORE.INTER.CONST>
1

>  <SCORE.INTER.POLAR>
0

>  <SCORE.INTER.ROT>
3

>  <SCORE.INTER.SOLV>
4.91141

>  <SCORE.INTER.VDW>
-11.1461

>  <SCORE.INTER.norm>
-0.488621

>  <SCORE.INTRA>
-4.21828

>  <SCORE.INTRA.DIHEDRAL>
-3.78181

>  <SCORE.INTRA.DIHEDRAL.0>
5.0186

>  <SCORE.INTRA.POLAR>
0

>  <SCORE.INTRA.POLAR.0>
0

>  <SCORE.INTRA.REPUL>
0

>  <SCORE.INTRA.REPUL.0>
0

>  <SCORE.INTRA.SOLV>
0.162305

>  <SCORE.INTRA.SOLV.lig_0>
-16.1608

>  <SCORE.INTRA.VDW>
-2.40853

>  <SCORE.INTRA.VDW.0>
1.14169

>  <SCORE.INTRA.norm>
-0.351523

>  <SCORE.RESTR>
0

>  <SCORE.RESTR.CAVITY>
0

>  <SCORE.RESTR.norm>
0

>  <SCORE.SYSTEM>
0

>  <SCORE.SYSTEM.CONST>
0

>  <SCORE.SYSTEM.DIHEDRAL>
0

>  <SCORE.SYSTEM.SOLV>
0

>  <SCORE.SYSTEM.norm>
0

>  <SCORE.heavy>
12

>  <SCORE.norm>
-0.840144

>  <RMSD>
5.951

$$$$
ligand
 OpenBabel11021811493D
libRbt.so/2013.1/901 2013/11/27
 12 12  0  0  0  0  0  0  0  0999 V2000
   31.0423  -23.1529    4.8457 N   0  0  0  0  0  0  0  0  0  0  0  0
   29.3632  -25.2208    1.0117 O   0  0  0  0  0  0  0  0  0  0  0  0
   32.4805  -23.1759    4.4825 C   0  0  0  0  0  0  0  0  0  0  0  0
   30.6183  -23.3500    1.7163 O   0  0  0  0  0  0  0  0  0  0  0  0
   33.0182  -21.7507    4.5585 C   0  0  0  0  0  0  0  0  0  0  0  0
   31.6245  -25.5873    1.8454 O   0  0  0  0  0  0  0  0  0  0  0  0
   32.9461  -21.2722    5.9423 N   0  0  0  0  0  0  0  0  0  0  0  0
   32.3277  -22.3228    6.7547 C   0  0  0  0  0  0  0  0  0  0  0  0
   30.9362  -22.5535    6.1905 C   0  0  0  0  0  0  0  0  0  0  0  0
   30.3241  -24.4877    4.7847 C   0  0  0  0  0  0  0  0  0  0  0  0
   29.4923  -24.7715    3.5066 C   0  0  0  0  0  0  0  0  0  0  0  0
   30.2669  -24.7165    2.0032 S   0  0  0  0  0  0  0  0  0  0  0  0
  1  3  1  0  0  0  0
  1  9  1  0  0  0  0
  1 10  1  0  0  0  0
  2 12  1  0  0  0  0
  3  5  1  0  0  0  0
  4 12  2  0  0  0  0
  5  7  1  0  0  0  0
  6 12  2  0  0  0  0
  7  8  1  0  0  0  0
  8  9  1  0  0  0  0
 10 11  1  0  0  0  0
 11 12  1  0  0  0  0
M  END
>  <CHROM.1>
-98.59064990,57.17518827,170.66144591,31.09478465,-23.67832593,3.71006782
1.06442281,0.61151060,1.27696526

>  <Name>
ligand

>  <RI>
0

>  <Rbt.Current_Directory>
/home/itssahil/PROJECTS/Mol_Feturizer/New_Systems/rnas/4E8N

>  <Rbt.Executable>
rbdock ($Id: //depot/dev/client3/rdock/2013.1/src/exe/rbdock.cxx#4 $)

>  <Rbt.Library>
libRbt.so (2013.1, Build901 2013/11/27)

>  <Rbt.Parameter_File>
/export/apps/rDock/src/rDock_2013.1_src/data/scripts/dock_solv.prm

>  <Rbt.Receptor>
prm/pocket_docking_6.prm

>  <SCORE>
-9.72808

>  <SCORE.INTER>
-6.05023

>  <SCORE.INTER.CONST>
1

>  <SCORE.INTER.POLAR>
0

>  <SCORE.INTER.ROT>
3

>  <SCORE.INTER.SOLV>
4.27535

>  <SCORE.INTER.VDW>
-11.0586

>  <SCORE.INTER.norm>
-0.504186

>  <SCORE.INTRA>
-3.67785

>  <SCORE.INTRA.DIHEDRAL>
-2.98907

>  <SCORE.INTRA.DIHEDRAL.0>
5.0186

>  <SCORE.INTRA.POLAR>
0

>  <SCORE.INTRA.POLAR.0>
0

>  <SCORE.INTRA.REPUL>
0

>  <SCORE.INTRA.REPUL.0>
0

>  <SCORE.INTRA.SOLV>
0.967748

>  <SCORE.INTRA.SOLV.lig_0>
-16.1608

>  <SCORE.INTRA.VDW>
-2.66719

>  <SCORE.INTRA.VDW.0>
1.14169

>  <SCORE.INTRA.norm>
-0.306487

>  <SCORE.RESTR>
0

>  <SCORE.RESTR.CAVITY>
0

>  <SCORE.RESTR.norm>
0

>  <SCORE.SYSTEM>
0

>  <SCORE.SYSTEM.CONST>
0

>  <SCORE.SYSTEM.DIHEDRAL>
0

>  <SCORE.SYSTEM.SOLV>
0

>  <SCORE.SYSTEM.norm>
0

>  <SCORE.heavy>
12

>  <SCORE.norm>
-0.810673

>  <RMSD>
5.973

$$$$
ligand
 OpenBabel11021811493D
libRbt.so/2013.1/901 2013/11/27
 12 12  0  0  0  0  0  0  0  0999 V2000
   31.8665  -20.3106    8.7846 N   0  0  0  0  0  0  0  0  0  0  0  0
   30.3682  -22.1711    4.9661 O   0  0  0  0  0  0  0  0  0  0  0  0
   30.7477  -19.3953    9.1183 C   0  0  0  0  0  0  0  0  0  0  0  0
   32.5440  -23.0837    5.0378 O   0  0  0  0  0  0  0  0  0  0  0  0
   30.9006  -18.9596   10.5719 C   0  0  0  0  0  0  0  0  0  0  0  0
   30.6250  -24.5117    5.5972 O   0  0  0  0  0  0  0  0  0  0  0  0
   32.1339  -18.1817   10.7238 N   0  0  0  0  0  0  0  0  0  0  0  0
   32.8120  -18.1471    9.4257 C   0  0  0  0  0  0  0  0  0  0  0  0
   33.1244  -19.5866    9.0540 C   0  0  0  0  0  0  0  0  0  0  0  0
   31.8558  -20.8821    7.3795 C   0  0  0  0  0  0  0  0  0  0  0  0
   31.4747  -22.3793    7.2411 C   0  0  0  0  0  0  0  0  0  0  0  0
   31.2623  -23.0247    5.6914 S   0  0  0  0  0  0  0  0  0  0  0  0
  1  3  1  0  0  0  0
  1  9  1  0  0  0  0
  1 10  1  0  0  0  0
  2 12  1  0  0  0  0
  3  5  1  0  0  0  0
  4 12  2  0  0  0  0
  5  7  1  0  0  0  0
  6 12  2  0  0  0  0
  7  8  1  0  0  0  0
  8  9  1  0  0  0  0
 10 11  1  0  0  0  0
 11 12  1  0  0  0  0
M  END
>  <CHROM.1>
-106.99022807,172.67290163,-50.65598392,31.59287423,-21.16003973,7.52113649
1.44447319,0.30142152,0.81835549

>  <Name>
ligand

>  <RI>
0

>  <Rbt.Current_Directory>
/home/itssahil/PROJECTS/Mol_Feturizer/New_Systems/rnas/4E8N

>  <Rbt.Executable>
rbdock ($Id: //depot/dev/client3/rdock/2013.1/src/exe/rbdock.cxx#4 $)

>  <Rbt.Library>
libRbt.so (2013.1, Build901 2013/11/27)

>  <Rbt.Parameter_File>
/export/apps/rDock/src/rDock_2013.1_src/data/scripts/dock_solv.prm

>  <Rbt.Receptor>
prm/pocket_docking_5.prm

>  <SCORE>
-10.842

>  <SCORE.INTER>
-7.74368

>  <SCORE.INTER.CONST>
1

>  <SCORE.INTER.POLAR>
0

>  <SCORE.INTER.ROT>
3

>  <SCORE.INTER.SOLV>
6.76118

>  <SCORE.INTER.VDW>
-13.0162

>  <SCORE.INTER.norm>
-0.645306

>  <SCORE.INTRA>
-3.09834

>  <SCORE.INTRA.DIHEDRAL>
-2.41173

>  <SCORE.INTRA.DIHEDRAL.0>
5.0186

>  <SCORE.INTRA.POLAR>
0

>  <SCORE.INTRA.POLAR.0>
0

>  <SCORE.INTRA.REPUL>
0

>  <SCORE.INTRA.REPUL.0>
0

>  <SCORE.INTRA.SOLV>
-0.133463

>  <SCORE.INTRA.SOLV.lig_0>
-16.1608

>  <SCORE.INTRA.VDW>
-1.82574

>  <SCORE.INTRA.VDW.0>
1.14169

>  <SCORE.INTRA.norm>
-0.258195

>  <SCORE.RESTR>
0

>  <SCORE.RESTR.CAVITY>
0

>  <SCORE.RESTR.norm>
0

>  <SCORE.SYSTEM>
0

>  <SCORE.SYSTEM.CONST>
0

>  <SCORE.SYSTEM.DIHEDRAL>
0

>  <SCORE.SYSTEM.SOLV>
0

>  <SCORE.SYSTEM.norm>
0

>  <SCORE.heavy>
12

>  <SCORE.norm>
-0.903501

>  <RMSD>
5.974

$$$$
ligand
 OpenBabel11021811493D
libRbt.so/2013.1/901 2013/11/27
 12 12  0  0  0  0  0  0  0  0999 V2000
   32.1415  -20.3423    8.9031 N   0  0  0  0  0  0  0  0  0  0  0  0
   30.4799  -22.0354    5.0420 O   0  0  0  0  0  0  0  0  0  0  0  0
   30.9395  -19.5088    9.1505 C   0  0  0  0  0  0  0  0  0  0  0  0
   32.5707  -23.1199    5.1974 O   0  0  0  0  0  0  0  0  0  0  0  0
   31.0084  -18.9779   10.5786 C   0  0  0  0  0  0  0  0  0  0  0  0
   30.5220  -24.3908    5.6691 O   0  0  0  0  0  0  0  0  0  0  0  0
   32.1663  -18.0894   10.7164 N   0  0  0  0  0  0  0  0  0  0  0  0
   32.8804  -18.0720    9.4374 C   0  0  0  0  0  0  0  0  0  0  0  0
   33.3247  -19.4984    9.1621 C   0  0  0  0  0  0  0  0  0  0  0  0
   32.2241  -20.9932    7.5354 C   0  0  0  0  0  0  0  0  0  0  0  0
   31.4711  -22.3378    7.3591 C   0  0  0  0  0  0  0  0  0  0  0  0
   31.2720  -22.9600    5.7982 S   0  0  0  0  0  0  0  0  0  0  0  0
  1  3  1  0  0  0  0
  1  9  1  0  0  0  0
  1 10  1  0  0  0  0
  2 12  1  0  0  0  0
  3  5  1  0  0  0  0
  4 12  2  0  0  0  0
  5  7  1  0  0  0  0
  6 12  2  0  0  0  0
  7  8  1  0  0  0  0
  8  9  1  0  0  0  0
 10 11  1  0  0  0  0
 11 12  1  0  0  0  0
M  END
>  <CHROM.1>
-84.12192902,168.32087313,-62.66674272,31.68791221,-21.12926681,7.60418303
-1.41883146,-0.29482037,-2.32135740

>  <Name>
ligand

>  <RI>
0

>  <Rbt.Current_Directory>
/home/itssahil/PROJECTS/Mol_Feturizer/New_Systems/rnas/4E8N

>  <Rbt.Executable>
rbdock ($Id: //depot/dev/client3/rdock/2013.1/src/exe/rbdock.cxx#4 $)

>  <Rbt.Library>
libRbt.so (2013.1, Build901 2013/11/27)

>  <Rbt.Parameter_File>
/export/apps/rDock/src/rDock_2013.1_src/data/scripts/dock_solv.prm

>  <Rbt.Receptor>
prm/pocket_docking_8.prm

>  <SCORE>
-11.5358

>  <SCORE.INTER>
-7.91894

>  <SCORE.INTER.CONST>
1

>  <SCORE.INTER.POLAR>
0

>  <SCORE.INTER.ROT>
3

>  <SCORE.INTER.SOLV>
7.01021

>  <SCORE.INTER.VDW>
-13.216

>  <SCORE.INTER.norm>
-0.659912

>  <SCORE.INTRA>
-3.61683

>  <SCORE.INTRA.DIHEDRAL>
-3.58003

>  <SCORE.INTRA.DIHEDRAL.0>
5.0186

>  <SCORE.INTRA.POLAR>
0

>  <SCORE.INTRA.POLAR.0>
0

>  <SCORE.INTRA.REPUL>
0

>  <SCORE.INTRA.REPUL.0>
0

>  <SCORE.INTRA.SOLV>
-0.105124

>  <SCORE.INTRA.SOLV.lig_0>
-16.1608

>  <SCORE.INTRA.VDW>
-1.77425

>  <SCORE.INTRA.VDW.0>
1.14169

>  <SCORE.INTRA.norm>
-0.301403

>  <SCORE.RESTR>
0

>  <SCORE.RESTR.CAVITY>
0

>  <SCORE.RESTR.norm>
0

>  <SCORE.SYSTEM>
0

>  <SCORE.SYSTEM.CONST>
0

>  <SCORE.SYSTEM.DIHEDRAL>
0

>  <SCORE.SYSTEM.SOLV>
0

>  <SCORE.SYSTEM.norm>
0

>  <SCORE.heavy>
12

>  <SCORE.norm>
-0.961314

>  <RMSD>
5.978

$$$$
ligand
 OpenBabel11021811493D
libRbt.so/2013.1/901 2013/11/27
 12 12  0  0  0  0  0  0  0  0999 V2000
   31.0368  -23.1606    4.8121 N   0  0  0  0  0  0  0  0  0  0  0  0
   29.3360  -25.2337    0.9860 O   0  0  0  0  0  0  0  0  0  0  0  0
   32.4818  -23.1926    4.4775 C   0  0  0  0  0  0  0  0  0  0  0  0
   30.5495  -23.3290    1.6724 O   0  0  0  0  0  0  0  0  0  0  0  0
   33.0234  -21.7687    4.5494 C   0  0  0  0  0  0  0  0  0  0  0  0
   31.6118  -25.5400    1.8042 O   0  0  0  0  0  0  0  0  0  0  0  0
   32.9261  -21.2757    5.9266 N   0  0  0  0  0  0  0  0  0  0  0  0
   32.2878  -22.3156    6.7374 C   0  0  0  0  0  0  0  0  0  0  0  0
   30.9067  -22.5469    6.1484 C   0  0  0  0  0  0  0  0  0  0  0  0
   30.3147  -24.4932    4.7508 C   0  0  0  0  0  0  0  0  0  0  0  0
   29.4726  -24.7693    3.4778 C   0  0  0  0  0  0  0  0  0  0  0  0
   30.2343  -24.7024    1.9683 S   0  0  0  0  0  0  0  0  0  0  0  0
  1  3  1  0  0  0  0
  1  9  1  0  0  0  0
  1 10  1  0  0  0  0
  2 12  1  0  0  0  0
  3  5  1  0  0  0  0
  4 12  2  0  0  0  0
  5  7  1  0  0  0  0
  6 12  2  0  0  0  0
  7  8  1  0  0  0  0
  8  9  1  0  0  0  0
 10 11  1  0  0  0  0
 11 12  1  0  0  0  0
M  END
>  <CHROM.1>
-100.36309508,56.88852702,169.16550333,31.07172753,-23.67395787,3.68149149
1.06397215,0.60237160,1.27839494

>  <Name>
ligand

>  <RI>
0

>  <Rbt.Current_Directory>
/home/itssahil/PROJECTS/Mol_Feturizer/New_Systems/rnas/4E8N

>  <Rbt.Executable>
rbdock ($Id: //depot/dev/client3/rdock/2013.1/src/exe/rbdock.cxx#4 $)

>  <Rbt.Library>
libRbt.so (2013.1, Build901 2013/11/27)

>  <Rbt.Parameter_File>
/export/apps/rDock/src/rDock_2013.1_src/data/scripts/dock_solv.prm

>  <Rbt.Receptor>
prm/pocket_docking_8.prm

>  <SCORE>
-9.74466

>  <SCORE.INTER>
-6.1417

>  <SCORE.INTER.CONST>
1

>  <SCORE.INTER.POLAR>
0

>  <SCORE.INTER.ROT>
3

>  <SCORE.INTER.SOLV>
4.30001

>  <SCORE.INTER.VDW>
-11.1278

>  <SCORE.INTER.norm>
-0.511809

>  <SCORE.INTRA>
-3.60295

>  <SCORE.INTRA.DIHEDRAL>
-2.81988

>  <SCORE.INTRA.DIHEDRAL.0>
5.0186

>  <SCORE.INTRA.POLAR>
0

>  <SCORE.INTRA.POLAR.0>
0

>  <SCORE.INTRA.REPUL>
0

>  <SCORE.INTRA.REPUL.0>
0

>  <SCORE.INTRA.SOLV>
0.956952

>  <SCORE.INTRA.SOLV.lig_0>
-16.1608

>  <SCORE.INTRA.VDW>
-2.67149

>  <SCORE.INTRA.VDW.0>
1.14169

>  <SCORE.INTRA.norm>
-0.300246

>  <SCORE.RESTR>
0

>  <SCORE.RESTR.CAVITY>
0

>  <SCORE.RESTR.norm>
0

>  <SCORE.SYSTEM>
0

>  <SCORE.SYSTEM.CONST>
0

>  <SCORE.SYSTEM.DIHEDRAL>
0

>  <SCORE.SYSTEM.SOLV>
0

>  <SCORE.SYSTEM.norm>
0

>  <SCORE.heavy>
12

>  <SCORE.norm>
-0.812055

>  <RMSD>
5.980

$$$$
ligand
 OpenBabel11021811493D
libRbt.so/2013.1/901 2013/11/27
 12 12  0  0  0  0  0  0  0  0999 V2000
   32.1728  -20.2896    8.9059 N   0  0  0  0  0  0  0  0  0  0  0  0
   30.5812  -24.1034    5.8413 O   0  0  0  0  0  0  0  0  0  0  0  0
   30.9627  -19.4763    9.1799 C   0  0  0  0  0  0  0  0  0  0  0  0
   30.5797  -21.9127    4.9623 O   0  0  0  0  0  0  0  0  0  0  0  0
   31.0433  -18.9630   10.6139 C   0  0  0  0  0  0  0  0  0  0  0  0
   32.6697  -23.2037    4.9632 O   0  0  0  0  0  0  0  0  0  0  0  0
   32.1905  -18.0602   10.7481 N   0  0  0  0  0  0  0  0  0  0  0  0
   32.8872  -18.0163    9.4602 C   0  0  0  0  0  0  0  0  0  0  0  0
   33.3475  -19.4326    9.1604 C   0  0  0  0  0  0  0  0  0  0  0  0
   32.2462  -20.9215    7.5288 C   0  0  0  0  0  0  0  0  0  0  0  0
   31.4633  -22.2456    7.3292 C   0  0  0  0  0  0  0  0  0  0  0  0
   31.3015  -22.8668    5.7636 S   0  0  0  0  0  0  0  0  0  0  0  0
  1  3  1  0  0  0  0
  1  9  1  0  0  0  0
  1 10  1  0  0  0  0
  2 12  1  0  0  0  0
  3  5  1  0  0  0  0
  4 12  2  0  0  0  0
  5  7  1  0  0  0  0
  6 12  2  0  0  0  0
  7  8  1  0  0  0  0
  8  9  1  0  0  0  0
 10 11  1  0  0  0  0
 11 12  1  0  0  0  0
M  END
>  <CHROM.1>
-81.78250825,170.36358930,178.30040014,31.72577766,-21.05631886,7.59271546
-1.43005100,-0.33448980,-2.30017577

>  <Name>
ligand

>  <RI>
0

>  <Rbt.Current_Directory>
/home/itssahil/PROJECTS/Mol_Feturizer/New_Systems/rnas/4E8N

>  <Rbt.Executable>
rbdock ($Id: //depot/dev/client3/rdock/2013.1/src/exe/rbdock.cxx#4 $)

>  <Rbt.Library>
libRbt.so (2013.1, Build901 2013/11/27)

>  <Rbt.Parameter_File>
/export/apps/rDock/src/rDock_2013.1_src/data/scripts/dock_solv.prm

>  <Rbt.Receptor>
prm/pocket_docking_8.prm

>  <SCORE>
-11.666

>  <SCORE.INTER>
-7.95144

>  <SCORE.INTER.CONST>
1

>  <SCORE.INTER.POLAR>
0

>  <SCORE.INTER.ROT>
3

>  <SCORE.INTER.SOLV>
5.91916

>  <SCORE.INTER.VDW>
-12.874

>  <SCORE.INTER.norm>
-0.66262

>  <SCORE.INTRA>
-3.71458

>  <SCORE.INTRA.DIHEDRAL>
-3.88565

>  <SCORE.INTRA.DIHEDRAL.0>
5.0186

>  <SCORE.INTRA.POLAR>
0

>  <SCORE.INTRA.POLAR.0>
0

>  <SCORE.INTRA.REPUL>
0

>  <SCORE.INTRA.REPUL.0>
0

>  <SCORE.INTRA.SOLV>
0.0722013

>  <SCORE.INTRA.SOLV.lig_0>
-16.1608

>  <SCORE.INTRA.VDW>
-1.80786

>  <SCORE.INTRA.VDW.0>
1.14169

>  <SCORE.INTRA.norm>
-0.309548

>  <SCORE.RESTR>
0

>  <SCORE.RESTR.CAVITY>
0

>  <SCORE.RESTR.norm>
0

>  <SCORE.SYSTEM>
0

>  <SCORE.SYSTEM.CONST>
0

>  <SCORE.SYSTEM.DIHEDRAL>
0

>  <SCORE.SYSTEM.SOLV>
0

>  <SCORE.SYSTEM.norm>
0

>  <SCORE.heavy>
12

>  <SCORE.norm>
-0.972168

>  <RMSD>
5.993

$$$$
ligand
 OpenBabel11021811493D
libRbt.so/2013.1/901 2013/11/27
 12 12  0  0  0  0  0  0  0  0999 V2000
   31.8975  -20.3302    8.7940 N   0  0  0  0  0  0  0  0  0  0  0  0
   30.7429  -24.2884    5.7193 O   0  0  0  0  0  0  0  0  0  0  0  0
   30.7862  -19.3942    9.0933 C   0  0  0  0  0  0  0  0  0  0  0  0
   30.5323  -22.1124    4.8291 O   0  0  0  0  0  0  0  0  0  0  0  0
   30.8923  -18.9742   10.5557 C   0  0  0  0  0  0  0  0  0  0  0  0
   32.7389  -23.1918    4.8499 O   0  0  0  0  0  0  0  0  0  0  0  0
   32.1349  -18.2242   10.7619 N   0  0  0  0  0  0  0  0  0  0  0  0
   32.8629  -18.1930    9.4910 C   0  0  0  0  0  0  0  0  0  0  0  0
   33.1590  -19.6356    9.1180 C   0  0  0  0  0  0  0  0  0  0  0  0
   31.9287  -20.8894    7.3842 C   0  0  0  0  0  0  0  0  0  0  0  0
   31.4281  -22.3463    7.2032 C   0  0  0  0  0  0  0  0  0  0  0  0
   31.3388  -22.9874    5.6398 S   0  0  0  0  0  0  0  0  0  0  0  0
  1  3  1  0  0  0  0
  1  9  1  0  0  0  0
  1 10  1  0  0  0  0
  2 12  1  0  0  0  0
  3  5  1  0  0  0  0
  4 12  2  0  0  0  0
  5  7  1  0  0  0  0
  6 12  2  0  0  0  0
  7  8  1  0  0  0  0
  8  9  1  0  0  0  0
 10 11  1  0  0  0  0
 11 12  1  0  0  0  0
M  END
>  <CHROM.1>
-102.87636571,175.82948116,-174.94576499,31.65800511,-21.14989584,7.50310322
1.46622484,0.28278164,0.83360093

>  <Name>
ligand

>  <RI>
0

>  <Rbt.Current_Directory>
/home/itssahil/PROJECTS/Mol_Feturizer/New_Systems/rnas/4E8N

>  <Rbt.Executable>
rbdock ($Id: //depot/dev/client3/rdock/2013.1/src/exe/rbdock.cxx#4 $)

>  <Rbt.Library>
libRbt.so (2013.1, Build901 2013/11/27)

>  <Rbt.Parameter_File>
/export/apps/rDock/src/rDock_2013.1_src/data/scripts/dock_solv.prm

>  <Rbt.Receptor>
prm/pocket_docking_7.prm

>  <SCORE>
-10.9603

>  <SCORE.INTER>
-7.69676

>  <SCORE.INTER.CONST>
1

>  <SCORE.INTER.POLAR>
0

>  <SCORE.INTER.ROT>
3

>  <SCORE.INTER.SOLV>
5.94667

>  <SCORE.INTER.VDW>
-12.7134

>  <SCORE.INTER.norm>
-0.641397

>  <SCORE.INTRA>
-3.26354

>  <SCORE.INTRA.DIHEDRAL>
-2.8688

>  <SCORE.INTRA.DIHEDRAL.0>
5.0186

>  <SCORE.INTRA.POLAR>
0

>  <SCORE.INTRA.POLAR.0>
0

>  <SCORE.INTRA.REPUL>
0

>  <SCORE.INTRA.REPUL.0>
0

>  <SCORE.INTRA.SOLV>
0.0678708

>  <SCORE.INTRA.SOLV.lig_0>
-16.1608

>  <SCORE.INTRA.VDW>
-1.86307

>  <SCORE.INTRA.VDW.0>
1.14169

>  <SCORE.INTRA.norm>
-0.271961

>  <SCORE.RESTR>
0

>  <SCORE.RESTR.CAVITY>
0

>  <SCORE.RESTR.norm>
0

>  <SCORE.SYSTEM>
0

>  <SCORE.SYSTEM.CONST>
0

>  <SCORE.SYSTEM.DIHEDRAL>
0

>  <SCORE.SYSTEM.SOLV>
0

>  <SCORE.SYSTEM.norm>
0

>  <SCORE.heavy>
12

>  <SCORE.norm>
-0.913358

>  <RMSD>
5.997

$$$$
ligand
 OpenBabel11021811493D
libRbt.so/2013.1/901 2013/11/27
 12 12  0  0  0  0  0  0  0  0999 V2000
   30.8222  -22.6418    6.2674 N   0  0  0  0  0  0  0  0  0  0  0  0
   29.3921  -24.8416    1.8402 O   0  0  0  0  0  0  0  0  0  0  0  0
   30.6858  -21.1898    5.9953 C   0  0  0  0  0  0  0  0  0  0  0  0
   31.5823  -23.9622    1.8806 O   0  0  0  0  0  0  0  0  0  0  0  0
   30.2279  -20.5016    7.2770 C   0  0  0  0  0  0  0  0  0  0  0  0
   31.1470  -26.1461    2.9178 O   0  0  0  0  0  0  0  0  0  0  0  0
   31.2652  -20.6368    8.3041 N   0  0  0  0  0  0  0  0  0  0  0  0
   32.3566  -21.4382    7.7448 C   0  0  0  0  0  0  0  0  0  0  0  0
   31.7697  -22.7935    7.3891 C   0  0  0  0  0  0  0  0  0  0  0  0
   31.2333  -23.4996    5.0857 C   0  0  0  0  0  0  0  0  0  0  0  0
   30.1642  -23.7237    3.9844 C   0  0  0  0  0  0  0  0  0  0  0  0
   30.5714  -24.6581    2.6337 S   0  0  0  0  0  0  0  0  0  0  0  0
  1  3  1  0  0  0  0
  1  9  1  0  0  0  0
  1 10  1  0  0  0  0
  2 12  1  0  0  0  0
  3  5  1  0  0  0  0
  4 12  2  0  0  0  0
  5  7  1  0  0  0  0
  6 12  2  0  0  0  0
  7  8  1  0  0  0  0
  8  9  1  0  0  0  0
 10 11  1  0  0  0  0
 11 12  1  0  0  0  0
M  END
>  <CHROM.1>
-72.10849952,179.32750805,173.78851441,30.89367535,-23.21928831,4.78805227
-1.41175618,0.80783705,-2.30383302

>  <Name>
ligand

>  <RI>
0

>  <Rbt.Current_Directory>
/home/itssahil/PROJECTS/Mol_Feturizer/New_Systems/rnas/4E8N

>  <Rbt.Executable>
rbdock ($Id: //depot/dev/client3/rdock/2013.1/src/exe/rbdock.cxx#4 $)

>  <Rbt.Library>
libRbt.so (2013.1, Build901 2013/11/27)

>  <Rbt.Parameter_File>
/export/apps/rDock/src/rDock_2013.1_src/data/scripts/dock_solv.prm

>  <Rbt.Receptor>
prm/pocket_docking_5.prm

>  <SCORE>
-9.3888

>  <SCORE.INTER>
-5.40659

>  <SCORE.INTER.CONST>
1

>  <SCORE.INTER.POLAR>
0

>  <SCORE.INTER.ROT>
3

>  <SCORE.INTER.SOLV>
6.35484

>  <SCORE.INTER.VDW>
-11.3227

>  <SCORE.INTER.norm>
-0.450549

>  <SCORE.INTRA>
-3.98222

>  <SCORE.INTRA.DIHEDRAL>
-4.63821

>  <SCORE.INTRA.DIHEDRAL.0>
5.0186

>  <SCORE.INTRA.POLAR>
0

>  <SCORE.INTRA.POLAR.0>
0

>  <SCORE.INTRA.REPUL>
0

>  <SCORE.INTRA.REPUL.0>
0

>  <SCORE.INTRA.SOLV>
0.0708499

>  <SCORE.INTRA.SOLV.lig_0>
-16.1608

>  <SCORE.INTRA.VDW>
-1.69854

>  <SCORE.INTRA.VDW.0>
1.14169

>  <SCORE.INTRA.norm>
-0.331851

>  <SCORE.RESTR>
0

>  <SCORE.RESTR.CAVITY>
0

>  <SCORE.RESTR.norm>
0

>  <SCORE.SYSTEM>
0

>  <SCORE.SYSTEM.CONST>
0

>  <SCORE.SYSTEM.DIHEDRAL>
0

>  <SCORE.SYSTEM.SOLV>
0

>  <SCORE.SYSTEM.norm>
0

>  <SCORE.heavy>
12

>  <SCORE.norm>
-0.7824

>  <RMSD>
6.026

$$$$
ligand
 OpenBabel11021811493D
libRbt.so/2013.1/901 2013/11/27
 12 12  0  0  0  0  0  0  0  0999 V2000
   30.8373  -23.1281    4.8828 N   0  0  0  0  0  0  0  0  0  0  0  0
   31.0817  -25.9011    3.4910 O   0  0  0  0  0  0  0  0  0  0  0  0
   30.7346  -22.1292    5.9748 C   0  0  0  0  0  0  0  0  0  0  0  0
   29.6499  -26.2763    1.6523 O   0  0  0  0  0  0  0  0  0  0  0  0
   31.6251  -22.5832    7.1268 C   0  0  0  0  0  0  0  0  0  0  0  0
   31.6047  -24.8153    1.3720 O   0  0  0  0  0  0  0  0  0  0  0  0
   33.0256  -22.5835    6.6936 N   0  0  0  0  0  0  0  0  0  0  0  0
   33.0644  -22.1969    5.2811 C   0  0  0  0  0  0  0  0  0  0  0  0
   32.2634  -23.2379    4.5179 C   0  0  0  0  0  0  0  0  0  0  0  0
   29.9800  -22.8609    3.6603 C   0  0  0  0  0  0  0  0  0  0  0  0
   29.3757  -24.1009    2.9508 C   0  0  0  0  0  0  0  0  0  0  0  0
   30.4229  -25.2968    2.3708 S   0  0  0  0  0  0  0  0  0  0  0  0
  1  3  1  0  0  0  0
  1  9  1  0  0  0  0
  1 10  1  0  0  0  0
  2 12  1  0  0  0  0
  3  5  1  0  0  0  0
  4 12  2  0  0  0  0
  5  7  1  0  0  0  0
  6 12  2  0  0  0  0
  7  8  1  0  0  0  0
  8  9  1  0  0  0  0
 10 11  1  0  0  0  0
 11 12  1  0  0  0  0
M  END
>  <CHROM.1>
-144.21343164,-58.17729973,65.07738179,31.06037457,-23.96227445,3.93456588
1.23711345,-0.11627689,0.89014694

>  <Name>
ligand

>  <RI>
0

>  <Rbt.Current_Directory>
/home/itssahil/PROJECTS/Mol_Feturizer/New_Systems/rnas/4E8N

>  <Rbt.Executable>
rbdock ($Id: //depot/dev/client3/rdock/2013.1/src/exe/rbdock.cxx#4 $)

>  <Rbt.Library>
libRbt.so (2013.1, Build901 2013/11/27)

>  <Rbt.Parameter_File>
/export/apps/rDock/src/rDock_2013.1_src/data/scripts/dock_solv.prm

>  <Rbt.Receptor>
prm/pocket_docking_8.prm

>  <SCORE>
-10.0413

>  <SCORE.INTER>
-5.91741

>  <SCORE.INTER.CONST>
1

>  <SCORE.INTER.POLAR>
0

>  <SCORE.INTER.ROT>
3

>  <SCORE.INTER.SOLV>
5.79892

>  <SCORE.INTER.VDW>
-11.4779

>  <SCORE.INTER.norm>
-0.493117

>  <SCORE.INTRA>
-4.12385

>  <SCORE.INTRA.DIHEDRAL>
-3.46546

>  <SCORE.INTRA.DIHEDRAL.0>
5.0186

>  <SCORE.INTRA.POLAR>
0

>  <SCORE.INTRA.POLAR.0>
0

>  <SCORE.INTRA.REPUL>
0

>  <SCORE.INTRA.REPUL.0>
0

>  <SCORE.INTRA.SOLV>
0.212321

>  <SCORE.INTRA.SOLV.lig_0>
-16.1608

>  <SCORE.INTRA.VDW>
-2.49728

>  <SCORE.INTRA.VDW.0>
1.14169

>  <SCORE.INTRA.norm>
-0.343654

>  <SCORE.RESTR>
0

>  <SCORE.RESTR.CAVITY>
0

>  <SCORE.RESTR.norm>
0

>  <SCORE.SYSTEM>
0

>  <SCORE.SYSTEM.CONST>
0

>  <SCORE.SYSTEM.DIHEDRAL>
0

>  <SCORE.SYSTEM.SOLV>
0

>  <SCORE.SYSTEM.norm>
0

>  <SCORE.heavy>
12

>  <SCORE.norm>
-0.836771

>  <RMSD>
6.055

$$$$
ligand
 OpenBabel11021811493D
libRbt.so/2013.1/901 2013/11/27
 12 12  0  0  0  0  0  0  0  0999 V2000
   30.5745  -26.0729    1.6170 N   0  0  0  0  0  0  0  0  0  0  0  0
   29.5558  -25.2787    5.2996 O   0  0  0  0  0  0  0  0  0  0  0  0
   29.7897  -27.2111    1.0790 C   0  0  0  0  0  0  0  0  0  0  0  0
   30.7497  -23.2429    5.2551 O   0  0  0  0  0  0  0  0  0  0  0  0
   29.0158  -26.7265   -0.1426 C   0  0  0  0  0  0  0  0  0  0  0  0
   29.2044  -23.7678    3.4190 O   0  0  0  0  0  0  0  0  0  0  0  0
   29.9571  -26.3352   -1.1962 N   0  0  0  0  0  0  0  0  0  0  0  0
   31.3163  -26.4994   -0.6750 C   0  0  0  0  0  0  0  0  0  0  0  0
   31.4403  -25.5798    0.5279 C   0  0  0  0  0  0  0  0  0  0  0  0
   31.3819  -26.3602    2.8687 C   0  0  0  0  0  0  0  0  0  0  0  0
   31.6223  -25.1666    3.8297 C   0  0  0  0  0  0  0  0  0  0  0  0
   30.2824  -24.3590    4.4747 S   0  0  0  0  0  0  0  0  0  0  0  0
  1  3  1  0  0  0  0
  1  9  1  0  0  0  0
  1 10  1  0  0  0  0
  2 12  1  0  0  0  0
  3  5  1  0  0  0  0
  4 12  2  0  0  0  0
  5  7  1  0  0  0  0
  6 12  2  0  0  0  0
  7  8  1  0  0  0  0
  8  9  1  0  0  0  0
 10 11  1  0  0  0  0
 11 12  1  0  0  0  0
M  END
>  <CHROM.1>
-150.71586664,58.24293370,63.84202137,30.37822877,-25.39339663,2.48633853
-1.56395421,-0.07127841,1.14122505

>  <Name>
ligand

>  <RI>
0

>  <Rbt.Current_Directory>
/home/itssahil/PROJECTS/Mol_Feturizer/New_Systems/rnas/4E8N

>  <Rbt.Executable>
rbdock ($Id: //depot/dev/client3/rdock/2013.1/src/exe/rbdock.cxx#4 $)

>  <Rbt.Library>
libRbt.so (2013.1, Build901 2013/11/27)

>  <Rbt.Parameter_File>
/export/apps/rDock/src/rDock_2013.1_src/data/scripts/dock_solv.prm

>  <Rbt.Receptor>
prm/pocket_docking_7.prm

>  <SCORE>
-11.0487

>  <SCORE.INTER>
-7.0542

>  <SCORE.INTER.CONST>
1

>  <SCORE.INTER.POLAR>
0

>  <SCORE.INTER.ROT>
3

>  <SCORE.INTER.SOLV>
7.63352

>  <SCORE.INTER.VDW>
-12.8473

>  <SCORE.INTER.norm>
-0.58785

>  <SCORE.INTRA>
-3.99448

>  <SCORE.INTRA.DIHEDRAL>
-3.89957

>  <SCORE.INTRA.DIHEDRAL.0>
5.0186

>  <SCORE.INTRA.POLAR>
0

>  <SCORE.INTRA.POLAR.0>
0

>  <SCORE.INTRA.REPUL>
0

>  <SCORE.INTRA.REPUL.0>
0

>  <SCORE.INTRA.SOLV>
0.479121

>  <SCORE.INTRA.SOLV.lig_0>
-16.1608

>  <SCORE.INTRA.VDW>
-2.28425

>  <SCORE.INTRA.VDW.0>
1.14169

>  <SCORE.INTRA.norm>
-0.332873

>  <SCORE.RESTR>
0

>  <SCORE.RESTR.CAVITY>
0

>  <SCORE.RESTR.norm>
0

>  <SCORE.SYSTEM>
0

>  <SCORE.SYSTEM.CONST>
0

>  <SCORE.SYSTEM.DIHEDRAL>
0

>  <SCORE.SYSTEM.SOLV>
0

>  <SCORE.SYSTEM.norm>
0

>  <SCORE.heavy>
12

>  <SCORE.norm>
-0.920723

>  <RMSD>
6.069

$$$$
ligand
 OpenBabel11021811493D
libRbt.so/2013.1/901 2013/11/27
 12 12  0  0  0  0  0  0  0  0999 V2000
   32.1110  -18.7870    8.6694 N   0  0  0  0  0  0  0  0  0  0  0  0
   31.7972  -23.4112    7.9481 O   0  0  0  0  0  0  0  0  0  0  0  0
   33.0122  -17.8289    7.9831 C   0  0  0  0  0  0  0  0  0  0  0  0
   30.5780  -22.9020    5.9921 O   0  0  0  0  0  0  0  0  0  0  0  0
   32.5939  -16.4142    8.3701 C   0  0  0  0  0  0  0  0  0  0  0  0
   33.0190  -22.6262    5.9901 O   0  0  0  0  0  0  0  0  0  0  0  0
   32.7969  -16.2188    9.8087 N   0  0  0  0  0  0  0  0  0  0  0  0
   33.2814  -17.4802   10.3747 C   0  0  0  0  0  0  0  0  0  0  0  0
   32.2040  -18.5201   10.1182 C   0  0  0  0  0  0  0  0  0  0  0  0
   32.3533  -20.2538    8.3678 C   0  0  0  0  0  0  0  0  0  0  0  0
   31.2939  -20.9663    7.4869 C   0  0  0  0  0  0  0  0  0  0  0  0
   31.6554  -22.4942    6.8558 S   0  0  0  0  0  0  0  0  0  0  0  0
  1  3  1  0  0  0  0
  1  9  1  0  0  0  0
  1 10  1  0  0  0  0
  2 12  1  0  0  0  0
  3  5  1  0  0  0  0
  4 12  2  0  0  0  0
  5  7  1  0  0  0  0
  6 12  2  0  0  0  0
  7  8  1  0  0  0  0
  8  9  1  0  0  0  0
 10 11  1  0  0  0  0
 11 12  1  0  0  0  0
M  END
>  <CHROM.1>
-108.37372487,167.69937886,64.55006171,32.15809298,-20.17322736,7.99403324
0.38261144,1.38018434,1.62810898

>  <Name>
ligand

>  <RI>
0

>  <Rbt.Current_Directory>
/home/itssahil/PROJECTS/Mol_Feturizer/New_Systems/rnas/4E8N

>  <Rbt.Executable>
rbdock ($Id: //depot/dev/client3/rdock/2013.1/src/exe/rbdock.cxx#4 $)

>  <Rbt.Library>
libRbt.so (2013.1, Build901 2013/11/27)

>  <Rbt.Parameter_File>
/export/apps/rDock/src/rDock_2013.1_src/data/scripts/dock_solv.prm

>  <Rbt.Receptor>
prm/pocket_docking_6.prm

>  <SCORE>
-10.0273

>  <SCORE.INTER>
-7.02914

>  <SCORE.INTER.CONST>
1

>  <SCORE.INTER.POLAR>
0

>  <SCORE.INTER.ROT>
3

>  <SCORE.INTER.SOLV>
2.80691

>  <SCORE.INTER.VDW>
-11.2217

>  <SCORE.INTER.norm>
-0.585762

>  <SCORE.INTRA>
-2.99815

>  <SCORE.INTRA.DIHEDRAL>
-2.17861

>  <SCORE.INTRA.DIHEDRAL.0>
5.0186

>  <SCORE.INTRA.POLAR>
0

>  <SCORE.INTRA.POLAR.0>
0

>  <SCORE.INTRA.REPUL>
0

>  <SCORE.INTRA.REPUL.0>
0

>  <SCORE.INTRA.SOLV>
-0.0996957

>  <SCORE.INTRA.SOLV.lig_0>
-16.1608

>  <SCORE.INTRA.VDW>
-1.859

>  <SCORE.INTRA.VDW.0>
1.14169

>  <SCORE.INTRA.norm>
-0.249846

>  <SCORE.RESTR>
0

>  <SCORE.RESTR.CAVITY>
0

>  <SCORE.RESTR.norm>
0

>  <SCORE.SYSTEM>
0

>  <SCORE.SYSTEM.CONST>
0

>  <SCORE.SYSTEM.DIHEDRAL>
0

>  <SCORE.SYSTEM.SOLV>
0

>  <SCORE.SYSTEM.norm>
0

>  <SCORE.heavy>
12

>  <SCORE.norm>
-0.835608

>  <RMSD>
6.107

$$$$
ligand
 OpenBabel11021811493D
libRbt.so/2013.1/901 2013/11/27
 12 12  0  0  0  0  0  0  0  0999 V2000
   29.0039  -25.7454    1.9963 N   0  0  0  0  0  0  0  0  0  0  0  0
   29.3074  -25.3026    5.4836 O   0  0  0  0  0  0  0  0  0  0  0  0
   30.0130  -25.6277    0.9152 C   0  0  0  0  0  0  0  0  0  0  0  0
   31.3398  -25.4693    4.2948 O   0  0  0  0  0  0  0  0  0  0  0  0
   30.3426  -27.0288    0.4108 C   0  0  0  0  0  0  0  0  0  0  0  0
   31.0680  -23.6858    5.9621 O   0  0  0  0  0  0  0  0  0  0  0  0
   29.1491  -27.6247   -0.1972 N   0  0  0  0  0  0  0  0  0  0  0  0
   28.0432  -26.6748   -0.0529 C   0  0  0  0  0  0  0  0  0  0  0  0
   27.8394  -26.4599    1.4372 C   0  0  0  0  0  0  0  0  0  0  0  0
   28.5826  -24.4436    2.6513 C   0  0  0  0  0  0  0  0  0  0  0  0
   29.6477  -23.7275    3.5224 C   0  0  0  0  0  0  0  0  0  0  0  0
   30.3422  -24.5706    4.8147 S   0  0  0  0  0  0  0  0  0  0  0  0
  1  3  1  0  0  0  0
  1  9  1  0  0  0  0
  1 10  1  0  0  0  0
  2 12  1  0  0  0  0
  3  5  1  0  0  0  0
  4 12  2  0  0  0  0
  5  7  1  0  0  0  0
  6 12  2  0  0  0  0
  7  8  1  0  0  0  0
  8  9  1  0  0  0  0
 10 11  1  0  0  0  0
 11 12  1  0  0  0  0
M  END
>  <CHROM.1>
-68.90861297,-56.99145925,-41.78070006,29.66163228,-25.41789629,2.89240245
1.85656759,0.25321043,-2.10180896

>  <Name>
ligand

>  <RI>
0

>  <Rbt.Current_Directory>
/home/itssahil/PROJECTS/Mol_Feturizer/New_Systems/rnas/4E8N

>  <Rbt.Executable>
rbdock ($Id: //depot/dev/client3/rdock/2013.1/src/exe/rbdock.cxx#4 $)

>  <Rbt.Library>
libRbt.so (2013.1, Build901 2013/11/27)

>  <Rbt.Parameter_File>
/export/apps/rDock/src/rDock_2013.1_src/data/scripts/dock_solv.prm

>  <Rbt.Receptor>
prm/pocket_docking_7.prm

>  <SCORE>
-14.5114

>  <SCORE.INTER>
-10.5218

>  <SCORE.INTER.CONST>
1

>  <SCORE.INTER.POLAR>
0

>  <SCORE.INTER.ROT>
3

>  <SCORE.INTER.SOLV>
5.56638

>  <SCORE.INTER.VDW>
-14.47

>  <SCORE.INTER.norm>
-0.876815

>  <SCORE.INTRA>
-3.98967

>  <SCORE.INTRA.DIHEDRAL>
-4.03125

>  <SCORE.INTRA.DIHEDRAL.0>
5.0186

>  <SCORE.INTRA.POLAR>
0

>  <SCORE.INTRA.POLAR.0>
0

>  <SCORE.INTRA.REPUL>
0

>  <SCORE.INTRA.REPUL.0>
0

>  <SCORE.INTRA.SOLV>
0.453537

>  <SCORE.INTRA.SOLV.lig_0>
-16.1608

>  <SCORE.INTRA.VDW>
-2.20081

>  <SCORE.INTRA.VDW.0>
1.14169

>  <SCORE.INTRA.norm>
-0.332472

>  <SCORE.RESTR>
0

>  <SCORE.RESTR.CAVITY>
0

>  <SCORE.RESTR.norm>
0

>  <SCORE.SYSTEM>
0

>  <SCORE.SYSTEM.CONST>
0

>  <SCORE.SYSTEM.DIHEDRAL>
0

>  <SCORE.SYSTEM.SOLV>
0

>  <SCORE.SYSTEM.norm>
0

>  <SCORE.heavy>
12

>  <SCORE.norm>
-1.20929

>  <RMSD>
6.112

$$$$
ligand
 OpenBabel11021811493D
libRbt.so/2013.1/901 2013/11/27
 12 12  0  0  0  0  0  0  0  0999 V2000
   32.1967  -18.4935    8.4970 N   0  0  0  0  0  0  0  0  0  0  0  0
   31.7704  -23.5821    7.8776 O   0  0  0  0  0  0  0  0  0  0  0  0
   33.2445  -18.5747    9.5441 C   0  0  0  0  0  0  0  0  0  0  0  0
   30.8280  -22.2815    6.1479 O   0  0  0  0  0  0  0  0  0  0  0  0
   33.1663  -17.3152   10.4008 C   0  0  0  0  0  0  0  0  0  0  0  0
   33.2604  -22.6201    6.2051 O   0  0  0  0  0  0  0  0  0  0  0  0
   31.8794  -17.2778   11.1019 N   0  0  0  0  0  0  0  0  0  0  0  0
   31.0999  -18.4454   10.6834 C   0  0  0  0  0  0  0  0  0  0  0  0
   30.9000  -18.3259    9.1822 C   0  0  0  0  0  0  0  0  0  0  0  0
   32.1509  -19.6507    7.5172 C   0  0  0  0  0  0  0  0  0  0  0  0
   31.8888  -21.0577    8.1153 C   0  0  0  0  0  0  0  0  0  0  0  0
   31.9165  -22.3983    7.0831 S   0  0  0  0  0  0  0  0  0  0  0  0
  1  3  1  0  0  0  0
  1  9  1  0  0  0  0
  1 10  1  0  0  0  0
  2 12  1  0  0  0  0
  3  5  1  0  0  0  0
  4 12  2  0  0  0  0
  5  7  1  0  0  0  0
  6 12  2  0  0  0  0
  7  8  1  0  0  0  0
  8  9  1  0  0  0  0
 10 11  1  0  0  0  0
 11 12  1  0  0  0  0
M  END
>  <CHROM.1>
60.39919895,-176.47572289,174.83956928,32.01272037,-20.31415701,8.33868752
-1.53961717,-0.37667199,-2.52504807

>  <Name>
ligand

>  <RI>
0

>  <Rbt.Current_Directory>
/home/itssahil/PROJECTS/Mol_Feturizer/New_Systems/rnas/4E8N

>  <Rbt.Executable>
rbdock ($Id: //depot/dev/client3/rdock/2013.1/src/exe/rbdock.cxx#4 $)

>  <Rbt.Library>
libRbt.so (2013.1, Build901 2013/11/27)

>  <Rbt.Parameter_File>
/export/apps/rDock/src/rDock_2013.1_src/data/scripts/dock_solv.prm

>  <Rbt.Receptor>
prm/pocket_docking_7.prm

>  <SCORE>
-10.8933

>  <SCORE.INTER>
-7.4789

>  <SCORE.INTER.CONST>
1

>  <SCORE.INTER.POLAR>
0

>  <SCORE.INTER.ROT>
3

>  <SCORE.INTER.SOLV>
4.366

>  <SCORE.INTER.VDW>
-12.0413

>  <SCORE.INTER.norm>
-0.623241

>  <SCORE.INTRA>
-3.41439

>  <SCORE.INTRA.DIHEDRAL>
-4.90738

>  <SCORE.INTRA.DIHEDRAL.0>
5.0186

>  <SCORE.INTRA.POLAR>
0

>  <SCORE.INTRA.POLAR.0>
0

>  <SCORE.INTRA.REPUL>
0

>  <SCORE.INTRA.REPUL.0>
0

>  <SCORE.INTRA.SOLV>
0.0867532

>  <SCORE.INTRA.SOLV.lig_0>
-16.1608

>  <SCORE.INTRA.VDW>
-1.00408

>  <SCORE.INTRA.VDW.0>
1.14169

>  <SCORE.INTRA.norm>
-0.284533

>  <SCORE.RESTR>
0

>  <SCORE.RESTR.CAVITY>
0

>  <SCORE.RESTR.norm>
0

>  <SCORE.SYSTEM>
0

>  <SCORE.SYSTEM.CONST>
0

>  <SCORE.SYSTEM.DIHEDRAL>
0

>  <SCORE.SYSTEM.SOLV>
0

>  <SCORE.SYSTEM.norm>
0

>  <SCORE.heavy>
12

>  <SCORE.norm>
-0.907774

>  <RMSD>
6.201

$$$$
ligand
 OpenBabel11021811493D
libRbt.so/2013.1/901 2013/11/27
 12 12  0  0  0  0  0  0  0  0999 V2000
   32.1332  -19.0720    8.9043 N   0  0  0  0  0  0  0  0  0  0  0  0
   32.9735  -22.6940    6.2163 O   0  0  0  0  0  0  0  0  0  0  0  0
   33.1760  -18.4272    9.7396 C   0  0  0  0  0  0  0  0  0  0  0  0
   31.7623  -23.5985    8.0293 O   0  0  0  0  0  0  0  0  0  0  0  0
   32.7253  -17.0053   10.0581 C   0  0  0  0  0  0  0  0  0  0  0  0
   30.6443  -23.3190    5.8598 O   0  0  0  0  0  0  0  0  0  0  0  0
   31.5071  -17.0476   10.8726 N   0  0  0  0  0  0  0  0  0  0  0  0
   31.1243  -18.4512   11.0449 C   0  0  0  0  0  0  0  0  0  0  0  0
   30.8645  -19.0101    9.6564 C   0  0  0  0  0  0  0  0  0  0  0  0
   32.4314  -20.4892    8.4527 C   0  0  0  0  0  0  0  0  0  0  0  0
   31.4150  -21.1355    7.4754 C   0  0  0  0  0  0  0  0  0  0  0  0
   31.7167  -22.6998    6.9052 S   0  0  0  0  0  0  0  0  0  0  0  0
  1  3  1  0  0  0  0
  1  9  1  0  0  0  0
  1 10  1  0  0  0  0
  2 12  1  0  0  0  0
  3  5  1  0  0  0  0
  4 12  2  0  0  0  0
  5  7  1  0  0  0  0
  6 12  2  0  0  0  0
  7  8  1  0  0  0  0
  8  9  1  0  0  0  0
 10 11  1  0  0  0  0
 11 12  1  0  0  0  0
M  END
>  <CHROM.1>
-174.69904320,178.40165025,-59.32083786,31.85572746,-20.56753205,8.38337852
-1.52462751,-0.43184755,-2.51364766

>  <Name>
ligand

>  <RI>
0

>  <Rbt.Current_Directory>
/home/itssahil/PROJECTS/Mol_Feturizer/New_Systems/rnas/4E8N

>  <Rbt.Executable>
rbdock ($Id: //depot/dev/client3/rdock/2013.1/src/exe/rbdock.cxx#4 $)

>  <Rbt.Library>
libRbt.so (2013.1, Build901 2013/11/27)

>  <Rbt.Parameter_File>
/export/apps/rDock/src/rDock_2013.1_src/data/scripts/dock_solv.prm

>  <Rbt.Receptor>
prm/pocket_docking_7.prm

>  <SCORE>
-11.4683

>  <SCORE.INTER>
-7.67064

>  <SCORE.INTER.CONST>
1

>  <SCORE.INTER.POLAR>
0

>  <SCORE.INTER.ROT>
3

>  <SCORE.INTER.SOLV>
6.3541

>  <SCORE.INTER.VDW>
-12.8318

>  <SCORE.INTER.norm>
-0.63922

>  <SCORE.INTRA>
-3.79764

>  <SCORE.INTRA.DIHEDRAL>
-4.97867

>  <SCORE.INTRA.DIHEDRAL.0>
5.0186

>  <SCORE.INTRA.POLAR>
0

>  <SCORE.INTRA.POLAR.0>
0

>  <SCORE.INTRA.REPUL>
0

>  <SCORE.INTRA.REPUL.0>
0

>  <SCORE.INTRA.SOLV>
-0.108995

>  <SCORE.INTRA.SOLV.lig_0>
-16.1608

>  <SCORE.INTRA.VDW>
-1.2538

>  <SCORE.INTRA.VDW.0>
1.14169

>  <SCORE.INTRA.norm>
-0.31647

>  <SCORE.RESTR>
0

>  <SCORE.RESTR.CAVITY>
0

>  <SCORE.RESTR.norm>
0

>  <SCORE.SYSTEM>
0

>  <SCORE.SYSTEM.CONST>
0

>  <SCORE.SYSTEM.DIHEDRAL>
0

>  <SCORE.SYSTEM.SOLV>
0

>  <SCORE.SYSTEM.norm>
0

>  <SCORE.heavy>
12

>  <SCORE.norm>
-0.95569

>  <RMSD>
6.211

$$$$
ligand
 OpenBabel11021811493D
libRbt.so/2013.1/901 2013/11/27
 12 12  0  0  0  0  0  0  0  0999 V2000
   32.0760  -19.0283    8.9109 N   0  0  0  0  0  0  0  0  0  0  0  0
   31.7511  -23.5316    7.9151 O   0  0  0  0  0  0  0  0  0  0  0  0
   33.1239  -18.4174    9.7649 C   0  0  0  0  0  0  0  0  0  0  0  0
   30.5012  -22.9768    5.9911 O   0  0  0  0  0  0  0  0  0  0  0  0
   32.6901  -16.9983   10.1169 C   0  0  0  0  0  0  0  0  0  0  0  0
   32.9480  -22.7665    5.9340 O   0  0  0  0  0  0  0  0  0  0  0  0
   31.4688  -17.0451   10.9264 N   0  0  0  0  0  0  0  0  0  0  0  0
   31.0678  -18.4475   11.0630 C   0  0  0  0  0  0  0  0  0  0  0  0
   30.8057  -18.9688    9.6604 C   0  0  0  0  0  0  0  0  0  0  0  0
   32.3579  -20.4376    8.4254 C   0  0  0  0  0  0  0  0  0  0  0  0
   31.3033  -21.0711    7.4807 C   0  0  0  0  0  0  0  0  0  0  0  0
   31.6089  -22.6038    6.8320 S   0  0  0  0  0  0  0  0  0  0  0  0
  1  3  1  0  0  0  0
  1  9  1  0  0  0  0
  1 10  1  0  0  0  0
  2 12  1  0  0  0  0
  3  5  1  0  0  0  0
  4 12  2  0  0  0  0
  5  7  1  0  0  0  0
  6 12  2  0  0  0  0
  7  8  1  0  0  0  0
  8  9  1  0  0  0  0
 10 11  1  0  0  0  0
 11 12  1  0  0  0  0
M  END
>  <CHROM.1>
-177.41923980,176.32940766,60.13096806,31.78751311,-20.50718062,8.35964315
-1.52725125,-0.39248745,-2.49274704

>  <Name>
ligand

>  <RI>
0

>  <Rbt.Current_Directory>
/home/itssahil/PROJECTS/Mol_Feturizer/New_Systems/rnas/4E8N

>  <Rbt.Executable>
rbdock ($Id: //depot/dev/client3/rdock/2013.1/src/exe/rbdock.cxx#4 $)

>  <Rbt.Library>
libRbt.so (2013.1, Build901 2013/11/27)

>  <Rbt.Parameter_File>
/export/apps/rDock/src/rDock_2013.1_src/data/scripts/dock_solv.prm

>  <Rbt.Receptor>
prm/pocket_docking_7.prm

>  <SCORE>
-12.0645

>  <SCORE.INTER>
-8.34508

>  <SCORE.INTER.CONST>
1

>  <SCORE.INTER.POLAR>
0

>  <SCORE.INTER.ROT>
3

>  <SCORE.INTER.SOLV>
4.35701

>  <SCORE.INTER.VDW>
-12.6157

>  <SCORE.INTER.norm>
-0.695423

>  <SCORE.INTRA>
-3.71942

>  <SCORE.INTRA.DIHEDRAL>
-4.96163

>  <SCORE.INTRA.DIHEDRAL.0>
5.0186

>  <SCORE.INTRA.POLAR>
0

>  <SCORE.INTRA.POLAR.0>
0

>  <SCORE.INTRA.REPUL>
0

>  <SCORE.INTRA.REPUL.0>
0

>  <SCORE.INTRA.SOLV>
-0.10287

>  <SCORE.INTRA.SOLV.lig_0>
-16.1608

>  <SCORE.INTRA.VDW>
-1.18717

>  <SCORE.INTRA.VDW.0>
1.14169

>  <SCORE.INTRA.norm>
-0.309951

>  <SCORE.RESTR>
0

>  <SCORE.RESTR.CAVITY>
0

>  <SCORE.RESTR.norm>
0

>  <SCORE.SYSTEM>
0

>  <SCORE.SYSTEM.CONST>
0

>  <SCORE.SYSTEM.DIHEDRAL>
0

>  <SCORE.SYSTEM.SOLV>
0

>  <SCORE.SYSTEM.norm>
0

>  <SCORE.heavy>
12

>  <SCORE.norm>
-1.00537

>  <RMSD>
6.259

$$$$
ligand
 OpenBabel11021811493D
libRbt.so/2013.1/901 2013/11/27
 12 12  0  0  0  0  0  0  0  0999 V2000
   29.1493  -24.3886    2.2760 N   0  0  0  0  0  0  0  0  0  0  0  0
   26.6430  -22.4904    2.5690 O   0  0  0  0  0  0  0  0  0  0  0  0
   30.4230  -25.1491    2.2683 C   0  0  0  0  0  0  0  0  0  0  0  0
   25.1039  -23.1365    0.9000 O   0  0  0  0  0  0  0  0  0  0  0  0
   31.5317  -24.2247    1.7759 C   0  0  0  0  0  0  0  0  0  0  0  0
   24.5724  -23.5774    3.2576 O   0  0  0  0  0  0  0  0  0  0  0  0
   31.7105  -23.1232    2.7266 N   0  0  0  0  0  0  0  0  0  0  0  0
   30.7152  -23.2754    3.7907 C   0  0  0  0  0  0  0  0  0  0  0  0
   29.3494  -23.2010    3.1295 C   0  0  0  0  0  0  0  0  0  0  0  0
   27.9183  -25.1659    2.7020 C   0  0  0  0  0  0  0  0  0  0  0  0
   26.6276  -24.9318    1.8742 C   0  0  0  0  0  0  0  0  0  0  0  0
   25.7397  -23.5151    2.1352 S   0  0  0  0  0  0  0  0  0  0  0  0
  1  3  1  0  0  0  0
  1  9  1  0  0  0  0
  1 10  1  0  0  0  0
  2 12  1  0  0  0  0
  3  5  1  0  0  0  0
  4 12  2  0  0  0  0
  5  7  1  0  0  0  0
  6 12  2  0  0  0  0
  7  8  1  0  0  0  0
  8  9  1  0  0  0  0
 10 11  1  0  0  0  0
 11 12  1  0  0  0  0
M  END
>  <CHROM.1>
-137.56271569,-77.08003057,28.82015065,27.96285190,-23.79300241,2.41442021
0.02663465,0.11214474,-2.66808249

>  <Name>
ligand

>  <RI>
0

>  <Rbt.Current_Directory>
/home/itssahil/PROJECTS/Mol_Feturizer/New_Systems/rnas/4E8N

>  <Rbt.Executable>
rbdock ($Id: //depot/dev/client3/rdock/2013.1/src/exe/rbdock.cxx#4 $)

>  <Rbt.Library>
libRbt.so (2013.1, Build901 2013/11/27)

>  <Rbt.Parameter_File>
/export/apps/rDock/src/rDock_2013.1_src/data/scripts/dock_solv.prm

>  <Rbt.Receptor>
prm/pocket_docking_8.prm

>  <SCORE>
-11.7838

>  <SCORE.INTER>
-9.81341

>  <SCORE.INTER.CONST>
1

>  <SCORE.INTER.POLAR>
0

>  <SCORE.INTER.ROT>
3

>  <SCORE.INTER.SOLV>
9.4115

>  <SCORE.INTER.VDW>
-15.2794

>  <SCORE.INTER.norm>
-0.817784

>  <SCORE.INTRA>
-2.00086

>  <SCORE.INTRA.DIHEDRAL>
-0.247419

>  <SCORE.INTRA.DIHEDRAL.0>
5.0186

>  <SCORE.INTRA.POLAR>
0

>  <SCORE.INTRA.POLAR.0>
0

>  <SCORE.INTRA.REPUL>
0

>  <SCORE.INTRA.REPUL.0>
0

>  <SCORE.INTRA.SOLV>
-0.138502

>  <SCORE.INTRA.SOLV.lig_0>
-16.1608

>  <SCORE.INTRA.VDW>
-1.8079

>  <SCORE.INTRA.VDW.0>
1.14169

>  <SCORE.INTRA.norm>
-0.166738

>  <SCORE.RESTR>
0.0304516

>  <SCORE.RESTR.CAVITY>
0.0304516

>  <SCORE.RESTR.norm>
0.00253763

>  <SCORE.SYSTEM>
0

>  <SCORE.SYSTEM.CONST>
0

>  <SCORE.SYSTEM.DIHEDRAL>
0

>  <SCORE.SYSTEM.SOLV>
0

>  <SCORE.SYSTEM.norm>
0

>  <SCORE.heavy>
12

>  <SCORE.norm>
-0.981985

>  <RMSD>
6.270

$$$$
ligand
 OpenBabel11021811493D
libRbt.so/2013.1/901 2013/11/27
 12 12  0  0  0  0  0  0  0  0999 V2000
   29.0000  -24.2721    3.0291 N   0  0  0  0  0  0  0  0  0  0  0  0
   24.9089  -23.9304    3.1883 O   0  0  0  0  0  0  0  0  0  0  0  0
   29.9052  -23.9687    1.8935 C   0  0  0  0  0  0  0  0  0  0  0  0
   26.7054  -22.5003    2.6413 O   0  0  0  0  0  0  0  0  0  0  0  0
   30.8800  -22.8813    2.3332 C   0  0  0  0  0  0  0  0  0  0  0  0
   24.9531  -22.9181    0.9711 O   0  0  0  0  0  0  0  0  0  0  0  0
   31.7271  -23.3904    3.4159 N   0  0  0  0  0  0  0  0  0  0  0  0
   31.2943  -24.7547    3.7282 C   0  0  0  0  0  0  0  0  0  0  0  0
   29.8448  -24.6652    4.1740 C   0  0  0  0  0  0  0  0  0  0  0  0
   27.9276  -25.3106    2.7599 C   0  0  0  0  0  0  0  0  0  0  0  0
   26.7909  -24.8999    1.7877 C   0  0  0  0  0  0  0  0  0  0  0  0
   25.8422  -23.5515    2.1689 S   0  0  0  0  0  0  0  0  0  0  0  0
  1  3  1  0  0  0  0
  1  9  1  0  0  0  0
  1 10  1  0  0  0  0
  2 12  1  0  0  0  0
  3  5  1  0  0  0  0
  4 12  2  0  0  0  0
  5  7  1  0  0  0  0
  6 12  2  0  0  0  0
  7  8  1  0  0  0  0
  8  9  1  0  0  0  0
 10 11  1  0  0  0  0
 11 12  1  0  0  0  0
M  END
>  <CHROM.1>
-69.49511538,-58.93642577,-76.81515693,27.99658874,-23.86093148,2.61419154
0.18886309,0.12610686,2.55911320

>  <Name>
ligand

>  <RI>
0

>  <Rbt.Current_Directory>
/home/itssahil/PROJECTS/Mol_Feturizer/New_Systems/rnas/4E8N

>  <Rbt.Executable>
rbdock ($Id: //depot/dev/client3/rdock/2013.1/src/exe/rbdock.cxx#4 $)

>  <Rbt.Library>
libRbt.so (2013.1, Build901 2013/11/27)

>  <Rbt.Parameter_File>
/export/apps/rDock/src/rDock_2013.1_src/data/scripts/dock_solv.prm

>  <Rbt.Receptor>
prm/pocket_docking_8.prm

>  <SCORE>
-14.1901

>  <SCORE.INTER>
-10.3154

>  <SCORE.INTER.CONST>
1

>  <SCORE.INTER.POLAR>
0

>  <SCORE.INTER.ROT>
3

>  <SCORE.INTER.SOLV>
9.27761

>  <SCORE.INTER.VDW>
-15.5695

>  <SCORE.INTER.norm>
-0.859616

>  <SCORE.INTRA>
-3.92203

>  <SCORE.INTRA.DIHEDRAL>
-4.18507

>  <SCORE.INTRA.DIHEDRAL.0>
5.0186

>  <SCORE.INTRA.POLAR>
0

>  <SCORE.INTRA.POLAR.0>
0

>  <SCORE.INTRA.REPUL>
0

>  <SCORE.INTRA.REPUL.0>
0

>  <SCORE.INTRA.SOLV>
0.660029

>  <SCORE.INTRA.SOLV.lig_0>
-16.1608

>  <SCORE.INTRA.VDW>
-2.1595

>  <SCORE.INTRA.VDW.0>
1.14169

>  <SCORE.INTRA.norm>
-0.326835

>  <SCORE.RESTR>
0.0473633

>  <SCORE.RESTR.CAVITY>
0.0473633

>  <SCORE.RESTR.norm>
0.00394694

>  <SCORE.SYSTEM>
0

>  <SCORE.SYSTEM.CONST>
0

>  <SCORE.SYSTEM.DIHEDRAL>
0

>  <SCORE.SYSTEM.SOLV>
0

>  <SCORE.SYSTEM.norm>
0

>  <SCORE.heavy>
12

>  <SCORE.norm>
-1.1825

>  <RMSD>
6.272

$$$$
ligand
 OpenBabel11021811493D
libRbt.so/2013.1/901 2013/11/27
 12 12  0  0  0  0  0  0  0  0999 V2000
   29.0798  -24.0569    2.9864 N   0  0  0  0  0  0  0  0  0  0  0  0
   24.6742  -23.7444    3.1389 O   0  0  0  0  0  0  0  0  0  0  0  0
   30.1661  -23.3422    2.2723 C   0  0  0  0  0  0  0  0  0  0  0  0
   26.6081  -22.5254    2.5506 O   0  0  0  0  0  0  0  0  0  0  0  0
   30.8590  -22.4101    3.2608 C   0  0  0  0  0  0  0  0  0  0  0  0
   25.1728  -23.4291    0.7736 O   0  0  0  0  0  0  0  0  0  0  0  0
   31.5035  -23.2020    4.3127 N   0  0  0  0  0  0  0  0  0  0  0  0
   31.2030  -24.6146    4.0666 C   0  0  0  0  0  0  0  0  0  0  0  0
   29.6922  -24.7606    4.1305 C   0  0  0  0  0  0  0  0  0  0  0  0
   28.2478  -25.0053    2.1441 C   0  0  0  0  0  0  0  0  0  0  0  0
   26.7311  -25.0692    2.4627 C   0  0  0  0  0  0  0  0  0  0  0  0
   25.7957  -23.6754    2.2492 S   0  0  0  0  0  0  0  0  0  0  0  0
  1  3  1  0  0  0  0
  1  9  1  0  0  0  0
  1 10  1  0  0  0  0
  2 12  1  0  0  0  0
  3  5  1  0  0  0  0
  4 12  2  0  0  0  0
  5  7  1  0  0  0  0
  6 12  2  0  0  0  0
  7  8  1  0  0  0  0
  8  9  1  0  0  0  0
 10 11  1  0  0  0  0
 11 12  1  0  0  0  0
M  END
>  <CHROM.1>
-142.62907001,62.90557686,-153.26960455,27.98770498,-23.78803261,2.78288884
0.09632945,0.27125447,2.82099618

>  <Name>
ligand

>  <RI>
0

>  <Rbt.Current_Directory>
/home/itssahil/PROJECTS/Mol_Feturizer/New_Systems/rnas/4E8N

>  <Rbt.Executable>
rbdock ($Id: //depot/dev/client3/rdock/2013.1/src/exe/rbdock.cxx#4 $)

>  <Rbt.Library>
libRbt.so (2013.1, Build901 2013/11/27)

>  <Rbt.Parameter_File>
/export/apps/rDock/src/rDock_2013.1_src/data/scripts/dock_solv.prm

>  <Rbt.Receptor>
prm/pocket_docking_7.prm

>  <SCORE>
-15.7479

>  <SCORE.INTER>
-12.9683

>  <SCORE.INTER.CONST>
1

>  <SCORE.INTER.POLAR>
0

>  <SCORE.INTER.ROT>
3

>  <SCORE.INTER.SOLV>
8.81386

>  <SCORE.INTER.VDW>
-17.1835

>  <SCORE.INTER.norm>
-1.08069

>  <SCORE.INTRA>
-2.77959

>  <SCORE.INTRA.DIHEDRAL>
-1.90325

>  <SCORE.INTRA.DIHEDRAL.0>
5.0186

>  <SCORE.INTRA.POLAR>
0

>  <SCORE.INTRA.POLAR.0>
0

>  <SCORE.INTRA.REPUL>
0

>  <SCORE.INTRA.REPUL.0>
0

>  <SCORE.INTRA.SOLV>
0.750162

>  <SCORE.INTRA.SOLV.lig_0>
-16.1608

>  <SCORE.INTRA.VDW>
-2.20304

>  <SCORE.INTRA.VDW.0>
1.14169

>  <SCORE.INTRA.norm>
-0.231632

>  <SCORE.RESTR>
0

>  <SCORE.RESTR.CAVITY>
0

>  <SCORE.RESTR.norm>
0

>  <SCORE.SYSTEM>
0

>  <SCORE.SYSTEM.CONST>
0

>  <SCORE.SYSTEM.DIHEDRAL>
0

>  <SCORE.SYSTEM.SOLV>
0

>  <SCORE.SYSTEM.norm>
0

>  <SCORE.heavy>
12

>  <SCORE.norm>
-1.31232

>  <RMSD>
6.283

$$$$
ligand
 OpenBabel11021811493D
libRbt.so/2013.1/901 2013/11/27
 12 12  0  0  0  0  0  0  0  0999 V2000
   29.0785  -24.2723    2.8505 N   0  0  0  0  0  0  0  0  0  0  0  0
   24.8832  -23.9153    3.2013 O   0  0  0  0  0  0  0  0  0  0  0  0
   29.9921  -24.2250    1.6826 C   0  0  0  0  0  0  0  0  0  0  0  0
   26.6880  -22.4972    2.6506 O   0  0  0  0  0  0  0  0  0  0  0  0
   31.0366  -23.1423    1.9330 C   0  0  0  0  0  0  0  0  0  0  0  0
   24.9405  -22.9202    0.9766 O   0  0  0  0  0  0  0  0  0  0  0  0
   31.8585  -23.5114    3.0894 N   0  0  0  0  0  0  0  0  0  0  0  0
   31.3434  -24.7723    3.6289 C   0  0  0  0  0  0  0  0  0  0  0  0
   29.9058  -24.5167    4.0483 C   0  0  0  0  0  0  0  0  0  0  0  0
   27.9410  -25.2717    2.7594 C   0  0  0  0  0  0  0  0  0  0  0  0
   26.7664  -24.9036    1.8156 C   0  0  0  0  0  0  0  0  0  0  0  0
   25.8222  -23.5482    2.1827 S   0  0  0  0  0  0  0  0  0  0  0  0
  1  3  1  0  0  0  0
  1  9  1  0  0  0  0
  1 10  1  0  0  0  0
  2 12  1  0  0  0  0
  3  5  1  0  0  0  0
  4 12  2  0  0  0  0
  5  7  1  0  0  0  0
  6 12  2  0  0  0  0
  7  8  1  0  0  0  0
  8  9  1  0  0  0  0
 10 11  1  0  0  0  0
 11 12  1  0  0  0  0
M  END
>  <CHROM.1>
-74.47955266,-64.48799574,-79.73592578,28.02888929,-23.89351894,2.52301004
0.17991292,0.04345100,2.40110640

>  <Name>
ligand

>  <RI>
0

>  <Rbt.Current_Directory>
/home/itssahil/PROJECTS/Mol_Feturizer/New_Systems/rnas/4E8N

>  <Rbt.Executable>
rbdock ($Id: //depot/dev/client3/rdock/2013.1/src/exe/rbdock.cxx#4 $)

>  <Rbt.Library>
libRbt.so (2013.1, Build901 2013/11/27)

>  <Rbt.Parameter_File>
/export/apps/rDock/src/rDock_2013.1_src/data/scripts/dock_solv.prm

>  <Rbt.Receptor>
prm/pocket_docking_7.prm

>  <SCORE>
-14.1953

>  <SCORE.INTER>
-10.5288

>  <SCORE.INTER.CONST>
1

>  <SCORE.INTER.POLAR>
0

>  <SCORE.INTER.ROT>
3

>  <SCORE.INTER.SOLV>
9.32367

>  <SCORE.INTER.VDW>
-15.7271

>  <SCORE.INTER.norm>
-0.877404

>  <SCORE.INTRA>
-3.69987

>  <SCORE.INTRA.DIHEDRAL>
-3.68965

>  <SCORE.INTRA.DIHEDRAL.0>
5.0186

>  <SCORE.INTRA.POLAR>
0

>  <SCORE.INTRA.POLAR.0>
0

>  <SCORE.INTRA.REPUL>
0

>  <SCORE.INTRA.REPUL.0>
0

>  <SCORE.INTRA.SOLV>
0.585616

>  <SCORE.INTRA.SOLV.lig_0>
-16.1608

>  <SCORE.INTRA.VDW>
-2.14785

>  <SCORE.INTRA.VDW.0>
1.14169

>  <SCORE.INTRA.norm>
-0.308322

>  <SCORE.RESTR>
0.0334148

>  <SCORE.RESTR.CAVITY>
0.0334148

>  <SCORE.RESTR.norm>
0.00278457

>  <SCORE.SYSTEM>
0

>  <SCORE.SYSTEM.CONST>
0

>  <SCORE.SYSTEM.DIHEDRAL>
0

>  <SCORE.SYSTEM.SOLV>
0

>  <SCORE.SYSTEM.norm>
0

>  <SCORE.heavy>
12

>  <SCORE.norm>
-1.18294

>  <RMSD>
6.290

$$$$
ligand
 OpenBabel11021811493D
libRbt.so/2013.1/901 2013/11/27
 12 12  0  0  0  0  0  0  0  0999 V2000
   29.0323  -24.3217    2.9751 N   0  0  0  0  0  0  0  0  0  0  0  0
   24.8858  -23.9256    3.1801 O   0  0  0  0  0  0  0  0  0  0  0  0
   29.9714  -24.1687    1.8368 C   0  0  0  0  0  0  0  0  0  0  0  0
   26.7020  -22.5101    2.6610 O   0  0  0  0  0  0  0  0  0  0  0  0
   30.9974  -23.1004    2.2004 C   0  0  0  0  0  0  0  0  0  0  0  0
   24.9670  -22.9056    0.9675 O   0  0  0  0  0  0  0  0  0  0  0  0
   31.7972  -23.5563    3.3412 N   0  0  0  0  0  0  0  0  0  0  0  0
   31.2847  -24.8626    3.7623 C   0  0  0  0  0  0  0  0  0  0  0  0
   29.8352  -24.6567    4.1676 C   0  0  0  0  0  0  0  0  0  0  0  0
   27.9088  -25.3211    2.7749 C   0  0  0  0  0  0  0  0  0  0  0  0
   26.7761  -24.9072    1.7994 C   0  0  0  0  0  0  0  0  0  0  0  0
   25.8352  -23.5515    2.1738 S   0  0  0  0  0  0  0  0  0  0  0  0
  1  3  1  0  0  0  0
  1  9  1  0  0  0  0
  1 10  1  0  0  0  0
  2 12  1  0  0  0  0
  3  5  1  0  0  0  0
  4 12  2  0  0  0  0
  5  7  1  0  0  0  0
  6 12  2  0  0  0  0
  7  8  1  0  0  0  0
  8  9  1  0  0  0  0
 10 11  1  0  0  0  0
 11 12  1  0  0  0  0
M  END
>  <CHROM.1>
-72.43046808,-62.62115000,-77.60272156,28.01138453,-23.91514715,2.59644655
0.20835695,0.08405907,2.47640204

>  <Name>
ligand

>  <RI>
0

>  <Rbt.Current_Directory>
/home/itssahil/PROJECTS/Mol_Feturizer/New_Systems/rnas/4E8N

>  <Rbt.Executable>
rbdock ($Id: //depot/dev/client3/rdock/2013.1/src/exe/rbdock.cxx#4 $)

>  <Rbt.Library>
libRbt.so (2013.1, Build901 2013/11/27)

>  <Rbt.Parameter_File>
/export/apps/rDock/src/rDock_2013.1_src/data/scripts/dock_solv.prm

>  <Rbt.Receptor>
prm/pocket_docking_7.prm

>  <SCORE>
-14.118

>  <SCORE.INTER>
-10.3058

>  <SCORE.INTER.CONST>
1

>  <SCORE.INTER.POLAR>
0

>  <SCORE.INTER.ROT>
3

>  <SCORE.INTER.SOLV>
9.35168

>  <SCORE.INTER.VDW>
-15.5878

>  <SCORE.INTER.norm>
-0.858816

>  <SCORE.INTRA>
-3.85041

>  <SCORE.INTRA.DIHEDRAL>
-3.99481

>  <SCORE.INTRA.DIHEDRAL.0>
5.0186

>  <SCORE.INTRA.POLAR>
0

>  <SCORE.INTRA.POLAR.0>
0

>  <SCORE.INTRA.REPUL>
0

>  <SCORE.INTRA.REPUL.0>
0

>  <SCORE.INTRA.SOLV>
0.60813

>  <SCORE.INTRA.SOLV.lig_0>
-16.1608

>  <SCORE.INTRA.VDW>
-2.15707

>  <SCORE.INTRA.VDW.0>
1.14169

>  <SCORE.INTRA.norm>
-0.320868

>  <SCORE.RESTR>
0.0382447

>  <SCORE.RESTR.CAVITY>
0.0382447

>  <SCORE.RESTR.norm>
0.00318706

>  <SCORE.SYSTEM>
0

>  <SCORE.SYSTEM.CONST>
0

>  <SCORE.SYSTEM.DIHEDRAL>
0

>  <SCORE.SYSTEM.SOLV>
0

>  <SCORE.SYSTEM.norm>
0

>  <SCORE.heavy>
12

>  <SCORE.norm>
-1.1765

>  <RMSD>
6.292

$$$$
ligand
 OpenBabel11021811493D
libRbt.so/2013.1/901 2013/11/27
 12 12  0  0  0  0  0  0  0  0999 V2000
   29.0822  -24.3037    2.8876 N   0  0  0  0  0  0  0  0  0  0  0  0
   24.8942  -23.9302    3.1923 O   0  0  0  0  0  0  0  0  0  0  0  0
   30.0051  -24.2429    1.7277 C   0  0  0  0  0  0  0  0  0  0  0  0
   26.6889  -22.4979    2.6450 O   0  0  0  0  0  0  0  0  0  0  0  0
   31.0591  -23.1766    2.0075 C   0  0  0  0  0  0  0  0  0  0  0  0
   24.9439  -22.9283    0.9704 O   0  0  0  0  0  0  0  0  0  0  0  0
   31.8681  -23.5776    3.1623 N   0  0  0  0  0  0  0  0  0  0  0  0
   31.3356  -24.8434    3.6726 C   0  0  0  0  0  0  0  0  0  0  0  0
   29.8977  -24.5809    4.0864 C   0  0  0  0  0  0  0  0  0  0  0  0
   27.9349  -25.2888    2.7680 C   0  0  0  0  0  0  0  0  0  0  0  0
   26.7839  -24.9013    1.8031 C   0  0  0  0  0  0  0  0  0  0  0  0
   25.8303  -23.5536    2.1744 S   0  0  0  0  0  0  0  0  0  0  0  0
  1  3  1  0  0  0  0
  1  9  1  0  0  0  0
  1 10  1  0  0  0  0
  2 12  1  0  0  0  0
  3  5  1  0  0  0  0
  4 12  2  0  0  0  0
  5  7  1  0  0  0  0
  6 12  2  0  0  0  0
  7  8  1  0  0  0  0
  8  9  1  0  0  0  0
 10 11  1  0  0  0  0
 11 12  1  0  0  0  0
M  END
>  <CHROM.1>
-73.38933851,-65.61725158,-77.93401476,28.03474572,-23.91825792,2.54231245
0.19442831,0.04847193,2.41101612

>  <Name>
ligand

>  <RI>
0

>  <Rbt.Current_Directory>
/home/itssahil/PROJECTS/Mol_Feturizer/New_Systems/rnas/4E8N

>  <Rbt.Executable>
rbdock ($Id: //depot/dev/client3/rdock/2013.1/src/exe/rbdock.cxx#4 $)

>  <Rbt.Library>
libRbt.so (2013.1, Build901 2013/11/27)

>  <Rbt.Parameter_File>
/export/apps/rDock/src/rDock_2013.1_src/data/scripts/dock_solv.prm

>  <Rbt.Receptor>
prm/pocket_docking_8.prm

>  <SCORE>
-14.1694

>  <SCORE.INTER>
-10.4305

>  <SCORE.INTER.CONST>
1

>  <SCORE.INTER.POLAR>
0

>  <SCORE.INTER.ROT>
3

>  <SCORE.INTER.SOLV>
9.33917

>  <SCORE.INTER.VDW>
-15.6667

>  <SCORE.INTER.norm>
-0.869209

>  <SCORE.INTRA>
-3.77455

>  <SCORE.INTRA.DIHEDRAL>
-3.83648

>  <SCORE.INTRA.DIHEDRAL.0>
5.0186

>  <SCORE.INTRA.POLAR>
0

>  <SCORE.INTRA.POLAR.0>
0

>  <SCORE.INTRA.REPUL>
0

>  <SCORE.INTRA.REPUL.0>
0

>  <SCORE.INTRA.SOLV>
0.567555

>  <SCORE.INTRA.SOLV.lig_0>
-16.1608

>  <SCORE.INTRA.VDW>
-2.14009

>  <SCORE.INTRA.VDW.0>
1.14169

>  <SCORE.INTRA.norm>
-0.314546

>  <SCORE.RESTR>
0.0356353

>  <SCORE.RESTR.CAVITY>
0.0356353

>  <SCORE.RESTR.norm>
0.00296961

>  <SCORE.SYSTEM>
0

>  <SCORE.SYSTEM.CONST>
0

>  <SCORE.SYSTEM.DIHEDRAL>
0

>  <SCORE.SYSTEM.SOLV>
0

>  <SCORE.SYSTEM.norm>
0

>  <SCORE.heavy>
12

>  <SCORE.norm>
-1.18079

>  <RMSD>
6.297

$$$$
ligand
 OpenBabel11021811493D
libRbt.so/2013.1/901 2013/11/27
 12 12  0  0  0  0  0  0  0  0999 V2000
   29.0886  -24.3398    2.8601 N   0  0  0  0  0  0  0  0  0  0  0  0
   24.8792  -23.9132    3.1878 O   0  0  0  0  0  0  0  0  0  0  0  0
   29.9877  -24.3342    1.6800 C   0  0  0  0  0  0  0  0  0  0  0  0
   26.6855  -22.5025    2.6231 O   0  0  0  0  0  0  0  0  0  0  0  0
   31.0745  -23.2890    1.9088 C   0  0  0  0  0  0  0  0  0  0  0  0
   24.9419  -22.9469    0.9506 O   0  0  0  0  0  0  0  0  0  0  0  0
   31.8976  -23.6802    3.0570 N   0  0  0  0  0  0  0  0  0  0  0  0
   31.3438  -24.9175    3.6125 C   0  0  0  0  0  0  0  0  0  0  0  0
   29.9223  -24.6063    4.0488 C   0  0  0  0  0  0  0  0  0  0  0  0
   27.9140  -25.2972    2.7913 C   0  0  0  0  0  0  0  0  0  0  0  0
   26.7656  -24.9194    1.8195 C   0  0  0  0  0  0  0  0  0  0  0  0
   25.8206  -23.5594    2.1668 S   0  0  0  0  0  0  0  0  0  0  0  0
  1  3  1  0  0  0  0
  1  9  1  0  0  0  0
  1 10  1  0  0  0  0
  2 12  1  0  0  0  0
  3  5  1  0  0  0  0
  4 12  2  0  0  0  0
  5  7  1  0  0  0  0
  6 12  2  0  0  0  0
  7  8  1  0  0  0  0
  8  9  1  0  0  0  0
 10 11  1  0  0  0  0
 11 12  1  0  0  0  0
M  END
>  <CHROM.1>
-72.22832159,-67.53514522,-78.12542919,28.03344765,-23.95389451,2.51262059
0.19737290,0.02204185,2.37304495

>  <Name>
ligand

>  <RI>
0

>  <Rbt.Current_Directory>
/home/itssahil/PROJECTS/Mol_Feturizer/New_Systems/rnas/4E8N

>  <Rbt.Executable>
rbdock ($Id: //depot/dev/client3/rdock/2013.1/src/exe/rbdock.cxx#4 $)

>  <Rbt.Library>
libRbt.so (2013.1, Build901 2013/11/27)

>  <Rbt.Parameter_File>
/export/apps/rDock/src/rDock_2013.1_src/data/scripts/dock_solv.prm

>  <Rbt.Receptor>
prm/pocket_docking_7.prm

>  <SCORE>
-14.2007

>  <SCORE.INTER>
-10.5308

>  <SCORE.INTER.CONST>
1

>  <SCORE.INTER.POLAR>
0

>  <SCORE.INTER.ROT>
3

>  <SCORE.INTER.SOLV>
9.41547

>  <SCORE.INTER.VDW>
-15.759

>  <SCORE.INTER.norm>
-0.877565

>  <SCORE.INTRA>
-3.70992

>  <SCORE.INTRA.DIHEDRAL>
-3.77783

>  <SCORE.INTRA.DIHEDRAL.0>
5.0186

>  <SCORE.INTRA.POLAR>
0

>  <SCORE.INTRA.POLAR.0>
0

>  <SCORE.INTRA.REPUL>
0

>  <SCORE.INTRA.REPUL.0>
0

>  <SCORE.INTRA.SOLV>
0.544349

>  <SCORE.INTRA.SOLV.lig_0>
-16.1608

>  <SCORE.INTRA.VDW>
-2.09318

>  <SCORE.INTRA.VDW.0>
1.14169

>  <SCORE.INTRA.norm>
-0.30916

>  <SCORE.RESTR>
0.0400196

>  <SCORE.RESTR.CAVITY>
0.0400196

>  <SCORE.RESTR.norm>
0.00333497

>  <SCORE.SYSTEM>
0

>  <SCORE.SYSTEM.CONST>
0

>  <SCORE.SYSTEM.DIHEDRAL>
0

>  <SCORE.SYSTEM.SOLV>
0

>  <SCORE.SYSTEM.norm>
0

>  <SCORE.heavy>
12

>  <SCORE.norm>
-1.18339

>  <RMSD>
6.320

$$$$
ligand
 OpenBabel11021811493D
libRbt.so/2013.1/901 2013/11/27
 12 12  0  0  0  0  0  0  0  0999 V2000
   29.2409  -24.4397    2.4841 N   0  0  0  0  0  0  0  0  0  0  0  0
   24.8551  -23.8847    3.2176 O   0  0  0  0  0  0  0  0  0  0  0  0
   30.3758  -25.2144    1.9250 C   0  0  0  0  0  0  0  0  0  0  0  0
   26.7048  -22.5287    2.6595 O   0  0  0  0  0  0  0  0  0  0  0  0
   31.5175  -24.2477    1.6278 C   0  0  0  0  0  0  0  0  0  0  0  0
   24.9885  -22.9756    0.9596 O   0  0  0  0  0  0  0  0  0  0  0  0
   31.9958  -23.6537    2.8798 N   0  0  0  0  0  0  0  0  0  0  0  0
   31.1633  -24.1639    3.9720 C   0  0  0  0  0  0  0  0  0  0  0  0
   29.7376  -23.7288    3.6786 C   0  0  0  0  0  0  0  0  0  0  0  0
   27.9906  -25.2370    2.8039 C   0  0  0  0  0  0  0  0  0  0  0  0
   26.7476  -24.9659    1.9166 C   0  0  0  0  0  0  0  0  0  0  0  0
   25.8264  -23.5771    2.2096 S   0  0  0  0  0  0  0  0  0  0  0  0
  1  3  1  0  0  0  0
  1  9  1  0  0  0  0
  1 10  1  0  0  0  0
  2 12  1  0  0  0  0
  3  5  1  0  0  0  0
  4 12  2  0  0  0  0
  5  7  1  0  0  0  0
  6 12  2  0  0  0  0
  7  8  1  0  0  0  0
  8  9  1  0  0  0  0
 10 11  1  0  0  0  0
 11 12  1  0  0  0  0
M  END
>  <CHROM.1>
-111.40076715,-78.10872065,-86.69828337,28.09441228,-23.97857022,2.49029211
-0.02106006,0.16563253,-2.14754081

>  <Name>
ligand

>  <RI>
0

>  <Rbt.Current_Directory>
/home/itssahil/PROJECTS/Mol_Feturizer/New_Systems/rnas/4E8N

>  <Rbt.Executable>
rbdock ($Id: //depot/dev/client3/rdock/2013.1/src/exe/rbdock.cxx#4 $)

>  <Rbt.Library>
libRbt.so (2013.1, Build901 2013/11/27)

>  <Rbt.Parameter_File>
/export/apps/rDock/src/rDock_2013.1_src/data/scripts/dock_solv.prm

>  <Rbt.Receptor>
prm/pocket_docking_7.prm

>  <SCORE>
-11.8139

>  <SCORE.INTER>
-9.87616

>  <SCORE.INTER.CONST>
1

>  <SCORE.INTER.POLAR>
0

>  <SCORE.INTER.ROT>
3

>  <SCORE.INTER.SOLV>
8.51507

>  <SCORE.INTER.VDW>
-15.0225

>  <SCORE.INTER.norm>
-0.823014

>  <SCORE.INTRA>
-1.98096

>  <SCORE.INTRA.DIHEDRAL>
-0.0881892

>  <SCORE.INTRA.DIHEDRAL.0>
5.0186

>  <SCORE.INTRA.POLAR>
0

>  <SCORE.INTRA.POLAR.0>
0

>  <SCORE.INTRA.REPUL>
0

>  <SCORE.INTRA.REPUL.0>
0

>  <SCORE.INTRA.SOLV>
0.494878

>  <SCORE.INTRA.SOLV.lig_0>
-16.1608

>  <SCORE.INTRA.VDW>
-2.18431

>  <SCORE.INTRA.VDW.0>
1.14169

>  <SCORE.INTRA.norm>
-0.16508

>  <SCORE.RESTR>
0.0432056

>  <SCORE.RESTR.CAVITY>
0.0432056

>  <SCORE.RESTR.norm>
0.00360046

>  <SCORE.SYSTEM>
0

>  <SCORE.SYSTEM.CONST>
0

>  <SCORE.SYSTEM.DIHEDRAL>
0

>  <SCORE.SYSTEM.SOLV>
0

>  <SCORE.SYSTEM.norm>
0

>  <SCORE.heavy>
12

>  <SCORE.norm>
-0.984493

>  <RMSD>
6.349

$$$$
ligand
 OpenBabel11021811493D
libRbt.so/2013.1/901 2013/11/27
 12 12  0  0  0  0  0  0  0  0999 V2000
   29.0494  -24.2042    2.6711 N   0  0  0  0  0  0  0  0  0  0  0  0
   24.6012  -23.6330    3.1342 O   0  0  0  0  0  0  0  0  0  0  0  0
   30.1486  -23.7292    1.7953 C   0  0  0  0  0  0  0  0  0  0  0  0
   26.5997  -22.5312    2.5311 O   0  0  0  0  0  0  0  0  0  0  0  0
   31.0042  -22.7465    2.5880 C   0  0  0  0  0  0  0  0  0  0  0  0
   25.1370  -23.4144    0.7661 O   0  0  0  0  0  0  0  0  0  0  0  0
   31.6386  -23.4432    3.7109 N   0  0  0  0  0  0  0  0  0  0  0  0
   31.1769  -24.8335    3.7022 C   0  0  0  0  0  0  0  0  0  0  0  0
   29.6679  -24.7971    3.8732 C   0  0  0  0  0  0  0  0  0  0  0  0
   28.0649  -25.1657    2.0330 C   0  0  0  0  0  0  0  0  0  0  0  0
   26.5946  -25.0794    2.5196 C   0  0  0  0  0  0  0  0  0  0  0  0
   25.7330  -23.6473    2.2550 S   0  0  0  0  0  0  0  0  0  0  0  0
  1  3  1  0  0  0  0
  1  9  1  0  0  0  0
  1 10  1  0  0  0  0
  2 12  1  0  0  0  0
  3  5  1  0  0  0  0
  4 12  2  0  0  0  0
  5  7  1  0  0  0  0
  6 12  2  0  0  0  0
  7  8  1  0  0  0  0
  8  9  1  0  0  0  0
 10 11  1  0  0  0  0
 11 12  1  0  0  0  0
M  END
>  <CHROM.1>
-146.94856282,63.02821378,-161.70462386,27.95747830,-23.88553147,2.58116747
0.14024059,0.14047446,2.64464543

>  <Name>
ligand

>  <RI>
0

>  <Rbt.Current_Directory>
/home/itssahil/PROJECTS/Mol_Feturizer/New_Systems/rnas/4E8N

>  <Rbt.Executable>
rbdock ($Id: //depot/dev/client3/rdock/2013.1/src/exe/rbdock.cxx#4 $)

>  <Rbt.Library>
libRbt.so (2013.1, Build901 2013/11/27)

>  <Rbt.Parameter_File>
/export/apps/rDock/src/rDock_2013.1_src/data/scripts/dock_solv.prm

>  <Rbt.Receptor>
prm/pocket_docking_7.prm

>  <SCORE>
-16.0428

>  <SCORE.INTER>
-12.7196

>  <SCORE.INTER.CONST>
1

>  <SCORE.INTER.POLAR>
0

>  <SCORE.INTER.ROT>
3

>  <SCORE.INTER.SOLV>
8.86784

>  <SCORE.INTER.VDW>
-17.0357

>  <SCORE.INTER.norm>
-1.05997

>  <SCORE.INTRA>
-3.32322

>  <SCORE.INTRA.DIHEDRAL>
-2.89789

>  <SCORE.INTRA.DIHEDRAL.0>
5.0186

>  <SCORE.INTRA.POLAR>
0

>  <SCORE.INTRA.POLAR.0>
0

>  <SCORE.INTRA.REPUL>
0

>  <SCORE.INTRA.REPUL.0>
0

>  <SCORE.INTRA.SOLV>
0.730186

>  <SCORE.INTRA.SOLV.lig_0>
-16.1608

>  <SCORE.INTRA.VDW>
-2.23937

>  <SCORE.INTRA.VDW.0>
1.14169

>  <SCORE.INTRA.norm>
-0.276935

>  <SCORE.RESTR>
0

>  <SCORE.RESTR.CAVITY>
0

>  <SCORE.RESTR.norm>
0

>  <SCORE.SYSTEM>
0

>  <SCORE.SYSTEM.CONST>
0

>  <SCORE.SYSTEM.DIHEDRAL>
0

>  <SCORE.SYSTEM.SOLV>
0

>  <SCORE.SYSTEM.norm>
0

>  <SCORE.heavy>
12

>  <SCORE.norm>
-1.3369

>  <RMSD>
6.352

$$$$
ligand
 OpenBabel11021811493D
libRbt.so/2013.1/901 2013/11/27
 12 12  0  0  0  0  0  0  0  0999 V2000
   29.0620  -24.2243    2.5612 N   0  0  0  0  0  0  0  0  0  0  0  0
   24.6002  -23.6247    3.1299 O   0  0  0  0  0  0  0  0  0  0  0  0
   30.1774  -23.8478    1.6585 C   0  0  0  0  0  0  0  0  0  0  0  0
   26.6062  -22.5266    2.5451 O   0  0  0  0  0  0  0  0  0  0  0  0
   31.0677  -22.8460    2.3865 C   0  0  0  0  0  0  0  0  0  0  0  0
   25.1543  -23.4004    0.7665 O   0  0  0  0  0  0  0  0  0  0  0  0
   31.6768  -23.4893    3.5546 N   0  0  0  0  0  0  0  0  0  0  0  0
   31.1656  -24.8598    3.6366 C   0  0  0  0  0  0  0  0  0  0  0  0
   29.6588  -24.7581    3.8013 C   0  0  0  0  0  0  0  0  0  0  0  0
   28.0436  -25.1900    1.9857 C   0  0  0  0  0  0  0  0  0  0  0  0
   26.5941  -25.0748    2.5257 C   0  0  0  0  0  0  0  0  0  0  0  0
   25.7385  -23.6395    2.2591 S   0  0  0  0  0  0  0  0  0  0  0  0
  1  3  1  0  0  0  0
  1  9  1  0  0  0  0
  1 10  1  0  0  0  0
  2 12  1  0  0  0  0
  3  5  1  0  0  0  0
  4 12  2  0  0  0  0
  5  7  1  0  0  0  0
  6 12  2  0  0  0  0
  7  8  1  0  0  0  0
  8  9  1  0  0  0  0
 10 11  1  0  0  0  0
 11 12  1  0  0  0  0
M  END
>  <CHROM.1>
-150.50726088,62.98113281,-164.79789068,27.96763632,-23.90323365,2.52558539
0.14406371,0.10047286,2.56518676

>  <Name>
ligand

>  <RI>
0

>  <Rbt.Current_Directory>
/home/itssahil/PROJECTS/Mol_Feturizer/New_Systems/rnas/4E8N

>  <Rbt.Executable>
rbdock ($Id: //depot/dev/client3/rdock/2013.1/src/exe/rbdock.cxx#4 $)

>  <Rbt.Library>
libRbt.so (2013.1, Build901 2013/11/27)

>  <Rbt.Parameter_File>
/export/apps/rDock/src/rDock_2013.1_src/data/scripts/dock_solv.prm

>  <Rbt.Receptor>
prm/pocket_docking_7.prm

>  <SCORE>
-16.1986

>  <SCORE.INTER>
-12.6613

>  <SCORE.INTER.CONST>
1

>  <SCORE.INTER.POLAR>
0

>  <SCORE.INTER.ROT>
3

>  <SCORE.INTER.SOLV>
8.9066

>  <SCORE.INTER.VDW>
-17.0097

>  <SCORE.INTER.norm>
-1.05511

>  <SCORE.INTRA>
-3.53726

>  <SCORE.INTRA.DIHEDRAL>
-3.34793

>  <SCORE.INTRA.DIHEDRAL.0>
5.0186

>  <SCORE.INTRA.POLAR>
0

>  <SCORE.INTRA.POLAR.0>
0

>  <SCORE.INTRA.REPUL>
0

>  <SCORE.INTRA.REPUL.0>
0

>  <SCORE.INTRA.SOLV>
0.71773

>  <SCORE.INTRA.SOLV.lig_0>
-16.1608

>  <SCORE.INTRA.VDW>
-2.22216

>  <SCORE.INTRA.VDW.0>
1.14169

>  <SCORE.INTRA.norm>
-0.294772

>  <SCORE.RESTR>
0

>  <SCORE.RESTR.CAVITY>
0

>  <SCORE.RESTR.norm>
0

>  <SCORE.SYSTEM>
0

>  <SCORE.SYSTEM.CONST>
0

>  <SCORE.SYSTEM.DIHEDRAL>
0

>  <SCORE.SYSTEM.SOLV>
0

>  <SCORE.SYSTEM.norm>
0

>  <SCORE.heavy>
12

>  <SCORE.norm>
-1.34988

>  <RMSD>
6.364

$$$$
ligand
 OpenBabel11021811493D
libRbt.so/2013.1/901 2013/11/27
 12 12  0  0  0  0  0  0  0  0999 V2000
   29.1301  -24.6917    2.9434 N   0  0  0  0  0  0  0  0  0  0  0  0
   24.6035  -23.6352    3.1370 O   0  0  0  0  0  0  0  0  0  0  0  0
   29.3166  -23.2212    3.0046 C   0  0  0  0  0  0  0  0  0  0  0  0
   26.6063  -22.5386    2.5386 O   0  0  0  0  0  0  0  0  0  0  0  0
   30.4032  -22.9169    4.0306 C   0  0  0  0  0  0  0  0  0  0  0  0
   25.1340  -23.3974    0.7696 O   0  0  0  0  0  0  0  0  0  0  0  0
   31.6785  -23.4794    3.5763 N   0  0  0  0  0  0  0  0  0  0  0  0
   31.4399  -24.1858    2.3152 C   0  0  0  0  0  0  0  0  0  0  0  0
   30.4386  -25.2891    2.6115 C   0  0  0  0  0  0  0  0  0  0  0  0
   28.0504  -25.1819    1.9973 C   0  0  0  0  0  0  0  0  0  0  0  0
   26.5873  -25.0866    2.5034 C   0  0  0  0  0  0  0  0  0  0  0  0
   25.7328  -23.6474    2.2546 S   0  0  0  0  0  0  0  0  0  0  0  0
  1  3  1  0  0  0  0
  1  9  1  0  0  0  0
  1 10  1  0  0  0  0
  2 12  1  0  0  0  0
  3  5  1  0  0  0  0
  4 12  2  0  0  0  0
  5  7  1  0  0  0  0
  6 12  2  0  0  0  0
  7  8  1  0  0  0  0
  8  9  1  0  0  0  0
 10 11  1  0  0  0  0
 11 12  1  0  0  0  0
M  END
>  <CHROM.1>
-79.19285752,87.14563823,-162.40240304,27.93599291,-23.88880075,2.58873502
-0.01915465,0.18408562,-2.67648371

>  <Name>
ligand

>  <RI>
0

>  <Rbt.Current_Directory>
/home/itssahil/PROJECTS/Mol_Feturizer/New_Systems/rnas/4E8N

>  <Rbt.Executable>
rbdock ($Id: //depot/dev/client3/rdock/2013.1/src/exe/rbdock.cxx#4 $)

>  <Rbt.Library>
libRbt.so (2013.1, Build901 2013/11/27)

>  <Rbt.Parameter_File>
/export/apps/rDock/src/rDock_2013.1_src/data/scripts/dock_solv.prm

>  <Rbt.Receptor>
prm/pocket_docking_8.prm

>  <SCORE>
-14.5

>  <SCORE.INTER>
-12.4154

>  <SCORE.INTER.CONST>
1

>  <SCORE.INTER.POLAR>
0

>  <SCORE.INTER.ROT>
3

>  <SCORE.INTER.SOLV>
7.97005

>  <SCORE.INTER.VDW>
-16.5336

>  <SCORE.INTER.norm>
-1.03462

>  <SCORE.INTRA>
-2.08462

>  <SCORE.INTRA.DIHEDRAL>
-1.30273

>  <SCORE.INTRA.DIHEDRAL.0>
5.0186

>  <SCORE.INTRA.POLAR>
0

>  <SCORE.INTRA.POLAR.0>
0

>  <SCORE.INTRA.REPUL>
0

>  <SCORE.INTRA.REPUL.0>
0

>  <SCORE.INTRA.SOLV>
0.697577

>  <SCORE.INTRA.SOLV.lig_0>
-16.1608

>  <SCORE.INTRA.VDW>
-1.78205

>  <SCORE.INTRA.VDW.0>
1.14169

>  <SCORE.INTRA.norm>
-0.173719

>  <SCORE.RESTR>
0

>  <SCORE.RESTR.CAVITY>
0

>  <SCORE.RESTR.norm>
0

>  <SCORE.SYSTEM>
0

>  <SCORE.SYSTEM.CONST>
0

>  <SCORE.SYSTEM.DIHEDRAL>
0

>  <SCORE.SYSTEM.SOLV>
0

>  <SCORE.SYSTEM.norm>
0

>  <SCORE.heavy>
12

>  <SCORE.norm>
-1.20833

>  <RMSD>
6.384

$$$$
ligand
 OpenBabel11021811493D
libRbt.so/2013.1/901 2013/11/27
 12 12  0  0  0  0  0  0  0  0999 V2000
   29.1200  -24.4451    2.1628 N   0  0  0  0  0  0  0  0  0  0  0  0
   25.4723  -23.7839    0.9542 O   0  0  0  0  0  0  0  0  0  0  0  0
   30.3436  -24.5184    1.3272 C   0  0  0  0  0  0  0  0  0  0  0  0
   24.7110  -23.8305    3.1880 O   0  0  0  0  0  0  0  0  0  0  0  0
   31.2534  -23.3538    1.7041 C   0  0  0  0  0  0  0  0  0  0  0  0
   26.6893  -22.4884    2.6225 O   0  0  0  0  0  0  0  0  0  0  0  0
   31.6903  -23.5029    3.0955 N   0  0  0  0  0  0  0  0  0  0  0  0
   31.0477  -24.6979    3.6479 C   0  0  0  0  0  0  0  0  0  0  0  0
   29.5483  -24.4646    3.5753 C   0  0  0  0  0  0  0  0  0  0  0  0
   28.0725  -25.5092    1.8953 C   0  0  0  0  0  0  0  0  0  0  0  0
   26.6918  -25.3114    2.5738 C   0  0  0  0  0  0  0  0  0  0  0  0
   25.8671  -23.8540    2.3301 S   0  0  0  0  0  0  0  0  0  0  0  0
  1  3  1  0  0  0  0
  1  9  1  0  0  0  0
  1 10  1  0  0  0  0
  2 12  1  0  0  0  0
  3  5  1  0  0  0  0
  4 12  2  0  0  0  0
  5  7  1  0  0  0  0
  6 12  2  0  0  0  0
  7  8  1  0  0  0  0
  8  9  1  0  0  0  0
 10 11  1  0  0  0  0
 11 12  1  0  0  0  0
M  END
>  <CHROM.1>
-169.68386697,54.28727081,67.41091217,28.05514997,-24.09527776,2.40911337
-0.01585040,0.07436271,-2.27132201

>  <Name>
ligand

>  <RI>
0

>  <Rbt.Current_Directory>
/home/itssahil/PROJECTS/Mol_Feturizer/New_Systems/rnas/4E8N

>  <Rbt.Executable>
rbdock ($Id: //depot/dev/client3/rdock/2013.1/src/exe/rbdock.cxx#4 $)

>  <Rbt.Library>
libRbt.so (2013.1, Build901 2013/11/27)

>  <Rbt.Parameter_File>
/export/apps/rDock/src/rDock_2013.1_src/data/scripts/dock_solv.prm

>  <Rbt.Receptor>
prm/pocket_docking_8.prm

>  <SCORE>
-13.736

>  <SCORE.INTER>
-9.67313

>  <SCORE.INTER.CONST>
1

>  <SCORE.INTER.POLAR>
0

>  <SCORE.INTER.ROT>
3

>  <SCORE.INTER.SOLV>
10.3031

>  <SCORE.INTER.VDW>
-15.4831

>  <SCORE.INTER.norm>
-0.806094

>  <SCORE.INTRA>
-4.11401

>  <SCORE.INTRA.DIHEDRAL>
-4.62214

>  <SCORE.INTRA.DIHEDRAL.0>
5.0186

>  <SCORE.INTRA.POLAR>
0

>  <SCORE.INTRA.POLAR.0>
0

>  <SCORE.INTRA.REPUL>
0

>  <SCORE.INTRA.REPUL.0>
0

>  <SCORE.INTRA.SOLV>
0.555879

>  <SCORE.INTRA.SOLV.lig_0>
-16.1608

>  <SCORE.INTRA.VDW>
-2.08088

>  <SCORE.INTRA.VDW.0>
1.14169

>  <SCORE.INTRA.norm>
-0.342834

>  <SCORE.RESTR>
0.0511732

>  <SCORE.RESTR.CAVITY>
0.0511732

>  <SCORE.RESTR.norm>
0.00426443

>  <SCORE.SYSTEM>
0

>  <SCORE.SYSTEM.CONST>
0

>  <SCORE.SYSTEM.DIHEDRAL>
0

>  <SCORE.SYSTEM.SOLV>
0

>  <SCORE.SYSTEM.norm>
0

>  <SCORE.heavy>
12

>  <SCORE.norm>
-1.14466

>  <RMSD>
6.407

$$$$
ligand
 OpenBabel11021811493D
libRbt.so/2013.1/901 2013/11/27
 12 12  0  0  0  0  0  0  0  0999 V2000
   29.1390  -24.8504    2.8100 N   0  0  0  0  0  0  0  0  0  0  0  0
   24.5843  -23.6051    3.1348 O   0  0  0  0  0  0  0  0  0  0  0  0
   29.3356  -23.3886    2.9689 C   0  0  0  0  0  0  0  0  0  0  0  0
   26.6062  -22.5465    2.5322 O   0  0  0  0  0  0  0  0  0  0  0  0
   30.5184  -23.1617    3.9047 C   0  0  0  0  0  0  0  0  0  0  0  0
   25.1365  -23.4189    0.7677 O   0  0  0  0  0  0  0  0  0  0  0  0
   31.7412  -23.6809    3.2847 N   0  0  0  0  0  0  0  0  0  0  0  0
   31.3780  -24.2862    2.0010 C   0  0  0  0  0  0  0  0  0  0  0  0
   30.4067  -25.4139    2.3055 C   0  0  0  0  0  0  0  0  0  0  0  0
   27.9703  -25.2689    1.9381 C   0  0  0  0  0  0  0  0  0  0  0  0
   26.5534  -25.0942    2.5445 C   0  0  0  0  0  0  0  0  0  0  0  0
   25.7202  -23.6488    2.2619 S   0  0  0  0  0  0  0  0  0  0  0  0
  1  3  1  0  0  0  0
  1  9  1  0  0  0  0
  1 10  1  0  0  0  0
  2 12  1  0  0  0  0
  3  5  1  0  0  0  0
  4 12  2  0  0  0  0
  5  7  1  0  0  0  0
  6 12  2  0  0  0  0
  7  8  1  0  0  0  0
  8  9  1  0  0  0  0
 10 11  1  0  0  0  0
 11 12  1  0  0  0  0
M  END
>  <CHROM.1>
-73.62664377,91.78266246,-168.04620238,27.93232204,-23.96863215,2.49974320
0.02268436,0.15817667,-2.63515519

>  <Name>
ligand

>  <RI>
0

>  <Rbt.Current_Directory>
/home/itssahil/PROJECTS/Mol_Feturizer/New_Systems/rnas/4E8N

>  <Rbt.Executable>
rbdock ($Id: //depot/dev/client3/rdock/2013.1/src/exe/rbdock.cxx#4 $)

>  <Rbt.Library>
libRbt.so (2013.1, Build901 2013/11/27)

>  <Rbt.Parameter_File>
/export/apps/rDock/src/rDock_2013.1_src/data/scripts/dock_solv.prm

>  <Rbt.Receptor>
prm/pocket_docking_8.prm

>  <SCORE>
-14.3581

>  <SCORE.INTER>
-12.1621

>  <SCORE.INTER.CONST>
1

>  <SCORE.INTER.POLAR>
0

>  <SCORE.INTER.ROT>
3

>  <SCORE.INTER.SOLV>
7.97043

>  <SCORE.INTER.VDW>
-16.3649

>  <SCORE.INTER.norm>
-1.01351

>  <SCORE.INTRA>
-2.19598

>  <SCORE.INTRA.DIHEDRAL>
-1.28929

>  <SCORE.INTRA.DIHEDRAL.0>
5.0186

>  <SCORE.INTRA.POLAR>
0

>  <SCORE.INTRA.POLAR.0>
0

>  <SCORE.INTRA.REPUL>
0

>  <SCORE.INTRA.REPUL.0>
0

>  <SCORE.INTRA.SOLV>
0.653493

>  <SCORE.INTRA.SOLV.lig_0>
-16.1608

>  <SCORE.INTRA.VDW>
-1.87808

>  <SCORE.INTRA.VDW.0>
1.14169

>  <SCORE.INTRA.norm>
-0.182998

>  <SCORE.RESTR>
0

>  <SCORE.RESTR.CAVITY>
0

>  <SCORE.RESTR.norm>
0

>  <SCORE.SYSTEM>
0

>  <SCORE.SYSTEM.CONST>
0

>  <SCORE.SYSTEM.DIHEDRAL>
0

>  <SCORE.SYSTEM.SOLV>
0

>  <SCORE.SYSTEM.norm>
0

>  <SCORE.heavy>
12

>  <SCORE.norm>
-1.19651

>  <RMSD>
6.432

$$$$
ligand
 OpenBabel11021811493D
libRbt.so/2013.1/901 2013/11/27
 12 12  0  0  0  0  0  0  0  0999 V2000
   29.0378  -25.7920    0.9361 N   0  0  0  0  0  0  0  0  0  0  0  0
   29.7028  -25.3253    5.5259 O   0  0  0  0  0  0  0  0  0  0  0  0
   27.9157  -26.7622    0.9132 C   0  0  0  0  0  0  0  0  0  0  0  0
   31.6075  -24.4407    4.4484 O   0  0  0  0  0  0  0  0  0  0  0  0
   27.2649  -26.7117   -0.4653 C   0  0  0  0  0  0  0  0  0  0  0  0
   29.9670  -22.9035    5.4386 O   0  0  0  0  0  0  0  0  0  0  0  0
   28.2248  -27.1618   -1.4778 N   0  0  0  0  0  0  0  0  0  0  0  0
   29.4938  -27.4495   -0.8047 C   0  0  0  0  0  0  0  0  0  0  0  0
   29.9553  -26.1523   -0.1627 C   0  0  0  0  0  0  0  0  0  0  0  0
   29.7823  -25.6741    2.2526 C   0  0  0  0  0  0  0  0  0  0  0  0
   29.4123  -24.4677    3.1546 C   0  0  0  0  0  0  0  0  0  0  0  0
   30.1885  -24.3012    4.6489 S   0  0  0  0  0  0  0  0  0  0  0  0
  1  3  1  0  0  0  0
  1  9  1  0  0  0  0
  1 10  1  0  0  0  0
  2 12  1  0  0  0  0
  3  5  1  0  0  0  0
  4 12  2  0  0  0  0
  5  7  1  0  0  0  0
  6 12  2  0  0  0  0
  7  8  1  0  0  0  0
  8  9  1  0  0  0  0
 10 11  1  0  0  0  0
 11 12  1  0  0  0  0
M  END
>  <CHROM.1>
-100.17058155,178.82131259,-71.04920628,29.48767618,-25.43136224,2.37533371
1.85103089,-0.09964432,-2.00409273

>  <Name>
ligand

>  <RI>
0

>  <Rbt.Current_Directory>
/home/itssahil/PROJECTS/Mol_Feturizer/New_Systems/rnas/4E8N

>  <Rbt.Executable>
rbdock ($Id: //depot/dev/client3/rdock/2013.1/src/exe/rbdock.cxx#4 $)

>  <Rbt.Library>
libRbt.so (2013.1, Build901 2013/11/27)

>  <Rbt.Parameter_File>
/export/apps/rDock/src/rDock_2013.1_src/data/scripts/dock_solv.prm

>  <Rbt.Receptor>
prm/pocket_docking_8.prm

>  <SCORE>
-12.1624

>  <SCORE.INTER>
-8.90158

>  <SCORE.INTER.CONST>
1

>  <SCORE.INTER.POLAR>
0

>  <SCORE.INTER.ROT>
3

>  <SCORE.INTER.SOLV>
6.42415

>  <SCORE.INTER.VDW>
-13.6758

>  <SCORE.INTER.norm>
-0.741798

>  <SCORE.INTRA>
-3.26084

>  <SCORE.INTRA.DIHEDRAL>
-2.85031

>  <SCORE.INTRA.DIHEDRAL.0>
5.0186

>  <SCORE.INTRA.POLAR>
0

>  <SCORE.INTRA.POLAR.0>
0

>  <SCORE.INTRA.REPUL>
0

>  <SCORE.INTRA.REPUL.0>
0

>  <SCORE.INTRA.SOLV>
-0.0912673

>  <SCORE.INTRA.SOLV.lig_0>
-16.1608

>  <SCORE.INTRA.VDW>
-1.79005

>  <SCORE.INTRA.VDW.0>
1.14169

>  <SCORE.INTRA.norm>
-0.271736

>  <SCORE.RESTR>
0

>  <SCORE.RESTR.CAVITY>
0

>  <SCORE.RESTR.norm>
0

>  <SCORE.SYSTEM>
0

>  <SCORE.SYSTEM.CONST>
0

>  <SCORE.SYSTEM.DIHEDRAL>
0

>  <SCORE.SYSTEM.SOLV>
0

>  <SCORE.SYSTEM.norm>
0

>  <SCORE.heavy>
12

>  <SCORE.norm>
-1.01353

>  <RMSD>
6.457

$$$$
ligand
 OpenBabel11021811493D
libRbt.so/2013.1/901 2013/11/27
 12 12  0  0  0  0  0  0  0  0999 V2000
   29.5962  -25.8507    1.2854 N   0  0  0  0  0  0  0  0  0  0  0  0
   31.8797  -24.0213    4.3500 O   0  0  0  0  0  0  0  0  0  0  0  0
   30.1199  -26.1586   -0.0680 C   0  0  0  0  0  0  0  0  0  0  0  0
   30.1083  -24.9082    5.6335 O   0  0  0  0  0  0  0  0  0  0  0  0
   29.9258  -27.6484   -0.3310 C   0  0  0  0  0  0  0  0  0  0  0  0
   31.2177  -26.3367    3.9712 O   0  0  0  0  0  0  0  0  0  0  0  0
   28.4934  -27.9591   -0.3586 N   0  0  0  0  0  0  0  0  0  0  0  0
   27.7556  -26.7275   -0.0671 C   0  0  0  0  0  0  0  0  0  0  0  0
   28.1831  -26.2762    1.3191 C   0  0  0  0  0  0  0  0  0  0  0  0
   29.7437  -24.4107    1.7390 C   0  0  0  0  0  0  0  0  0  0  0  0
   29.5909  -24.1418    3.2590 C   0  0  0  0  0  0  0  0  0  0  0  0
   30.7042  -24.8408    4.3245 S   0  0  0  0  0  0  0  0  0  0  0  0
  1  3  1  0  0  0  0
  1  9  1  0  0  0  0
  1 10  1  0  0  0  0
  2 12  1  0  0  0  0
  3  5  1  0  0  0  0
  4 12  2  0  0  0  0
  5  7  1  0  0  0  0
  6 12  2  0  0  0  0
  7  8  1  0  0  0  0
  8  9  1  0  0  0  0
 10 11  1  0  0  0  0
 11 12  1  0  0  0  0
M  END
>  <CHROM.1>
-162.99428803,63.05412583,82.03217629,29.90347506,-25.66454295,2.37714325
1.97114582,0.41962650,-2.20759711

>  <Name>
ligand

>  <RI>
0

>  <Rbt.Current_Directory>
/home/itssahil/PROJECTS/Mol_Feturizer/New_Systems/rnas/4E8N

>  <Rbt.Executable>
rbdock ($Id: //depot/dev/client3/rdock/2013.1/src/exe/rbdock.cxx#4 $)

>  <Rbt.Library>
libRbt.so (2013.1, Build901 2013/11/27)

>  <Rbt.Parameter_File>
/export/apps/rDock/src/rDock_2013.1_src/data/scripts/dock_solv.prm

>  <Rbt.Receptor>
prm/pocket_docking_8.prm

>  <SCORE>
-11.1945

>  <SCORE.INTER>
-7.60518

>  <SCORE.INTER.CONST>
1

>  <SCORE.INTER.POLAR>
0

>  <SCORE.INTER.ROT>
3

>  <SCORE.INTER.SOLV>
6.31494

>  <SCORE.INTER.VDW>
-12.7751

>  <SCORE.INTER.norm>
-0.633765

>  <SCORE.INTRA>
-3.58936

>  <SCORE.INTRA.DIHEDRAL>
-3.51076

>  <SCORE.INTRA.DIHEDRAL.0>
5.0186

>  <SCORE.INTRA.POLAR>
0

>  <SCORE.INTRA.POLAR.0>
0

>  <SCORE.INTRA.REPUL>
0

>  <SCORE.INTRA.REPUL.0>
0

>  <SCORE.INTRA.SOLV>
0.516894

>  <SCORE.INTRA.SOLV.lig_0>
-16.1608

>  <SCORE.INTRA.VDW>
-2.09243

>  <SCORE.INTRA.VDW.0>
1.14169

>  <SCORE.INTRA.norm>
-0.299113

>  <SCORE.RESTR>
0

>  <SCORE.RESTR.CAVITY>
0

>  <SCORE.RESTR.norm>
0

>  <SCORE.SYSTEM>
0

>  <SCORE.SYSTEM.CONST>
0

>  <SCORE.SYSTEM.DIHEDRAL>
0

>  <SCORE.SYSTEM.SOLV>
0

>  <SCORE.SYSTEM.norm>
0

>  <SCORE.heavy>
12

>  <SCORE.norm>
-0.932878

>  <RMSD>
6.536

$$$$
ligand
 OpenBabel11021811493D
libRbt.so/2013.1/901 2013/11/27
 12 12  0  0  0  0  0  0  0  0999 V2000
   29.1801  -25.5439    2.4797 N   0  0  0  0  0  0  0  0  0  0  0  0
   24.6252  -23.6338    3.1628 O   0  0  0  0  0  0  0  0  0  0  0  0
   29.5643  -24.4769    3.4362 C   0  0  0  0  0  0  0  0  0  0  0  0
   26.5976  -22.5192    2.5002 O   0  0  0  0  0  0  0  0  0  0  0  0
   30.8273  -24.9194    4.1678 C   0  0  0  0  0  0  0  0  0  0  0  0
   25.0957  -23.4246    0.7800 O   0  0  0  0  0  0  0  0  0  0  0  0
   31.9320  -25.0384    3.2116 N   0  0  0  0  0  0  0  0  0  0  0  0
   31.4104  -24.7402    1.8754 C   0  0  0  0  0  0  0  0  0  0  0  0
   30.3318  -25.7696    1.5844 C   0  0  0  0  0  0  0  0  0  0  0  0
   27.9120  -25.2939    1.6856 C   0  0  0  0  0  0  0  0  0  0  0  0
   26.6134  -25.0674    2.5031 C   0  0  0  0  0  0  0  0  0  0  0  0
   25.7332  -23.6439    2.2537 S   0  0  0  0  0  0  0  0  0  0  0  0
  1  3  1  0  0  0  0
  1  9  1  0  0  0  0
  1 10  1  0  0  0  0
  2 12  1  0  0  0  0
  3  5  1  0  0  0  0
  4 12  2  0  0  0  0
  5  7  1  0  0  0  0
  6 12  2  0  0  0  0
  7  8  1  0  0  0  0
  8  9  1  0  0  0  0
 10 11  1  0  0  0  0
 11 12  1  0  0  0  0
M  END
>  <CHROM.1>
-58.28098564,123.72583318,-177.10768071,27.98692960,-24.38446716,2.43975015
0.01209745,0.29696773,-2.00635263

>  <Name>
ligand

>  <RI>
0

>  <Rbt.Current_Directory>
/home/itssahil/PROJECTS/Mol_Feturizer/New_Systems/rnas/4E8N

>  <Rbt.Executable>
rbdock ($Id: //depot/dev/client3/rdock/2013.1/src/exe/rbdock.cxx#4 $)

>  <Rbt.Library>
libRbt.so (2013.1, Build901 2013/11/27)

>  <Rbt.Parameter_File>
/export/apps/rDock/src/rDock_2013.1_src/data/scripts/dock_solv.prm

>  <Rbt.Receptor>
prm/pocket_docking_7.prm

>  <SCORE>
-13.4535

>  <SCORE.INTER>
-12.1546

>  <SCORE.INTER.CONST>
1

>  <SCORE.INTER.POLAR>
0

>  <SCORE.INTER.ROT>
3

>  <SCORE.INTER.SOLV>
9.39162

>  <SCORE.INTER.VDW>
-16.8336

>  <SCORE.INTER.norm>
-1.01288

>  <SCORE.INTRA>
-1.29885

>  <SCORE.INTRA.DIHEDRAL>
0.477202

>  <SCORE.INTRA.DIHEDRAL.0>
5.0186

>  <SCORE.INTRA.POLAR>
0

>  <SCORE.INTRA.POLAR.0>
0

>  <SCORE.INTRA.REPUL>
0

>  <SCORE.INTRA.REPUL.0>
0

>  <SCORE.INTRA.SOLV>
0.323143

>  <SCORE.INTRA.SOLV.lig_0>
-16.1608

>  <SCORE.INTRA.VDW>
-1.69903

>  <SCORE.INTRA.VDW.0>
1.14169

>  <SCORE.INTRA.norm>
-0.108238

>  <SCORE.RESTR>
0

>  <SCORE.RESTR.CAVITY>
0

>  <SCORE.RESTR.norm>
0

>  <SCORE.SYSTEM>
0

>  <SCORE.SYSTEM.CONST>
0

>  <SCORE.SYSTEM.DIHEDRAL>
0

>  <SCORE.SYSTEM.SOLV>
0

>  <SCORE.SYSTEM.norm>
0

>  <SCORE.heavy>
12

>  <SCORE.norm>
-1.12112

>  <RMSD>
6.640

$$$$
ligand
 OpenBabel11021811493D
libRbt.so/2013.1/901 2013/11/27
 12 12  0  0  0  0  0  0  0  0999 V2000
   29.0386  -26.0874    1.7314 N   0  0  0  0  0  0  0  0  0  0  0  0
   26.5997  -22.5557    2.4087 O   0  0  0  0  0  0  0  0  0  0  0  0
   29.9651  -25.0812    2.3059 C   0  0  0  0  0  0  0  0  0  0  0  0
   25.2547  -23.7688    0.8951 O   0  0  0  0  0  0  0  0  0  0  0  0
   31.2648  -25.7846    2.6828 C   0  0  0  0  0  0  0  0  0  0  0  0
   24.5169  -23.5239    3.2254 O   0  0  0  0  0  0  0  0  0  0  0  0
   31.9111  -26.3024    1.4732 N   0  0  0  0  0  0  0  0  0  0  0  0
   31.0431  -26.0044    0.3312 C   0  0  0  0  0  0  0  0  0  0  0  0
   29.7241  -26.7143    0.5842 C   0  0  0  0  0  0  0  0  0  0  0  0
   27.6682  -25.5726    1.3338 C   0  0  0  0  0  0  0  0  0  0  0  0
   26.7470  -25.0887    2.4841 C   0  0  0  0  0  0  0  0  0  0  0  0
   25.7833  -23.7205    2.2336 S   0  0  0  0  0  0  0  0  0  0  0  0
  1  3  1  0  0  0  0
  1  9  1  0  0  0  0
  1 10  1  0  0  0  0
  2 12  1  0  0  0  0
  3  5  1  0  0  0  0
  4 12  2  0  0  0  0
  5  7  1  0  0  0  0
  6 12  2  0  0  0  0
  7  8  1  0  0  0  0
  8  9  1  0  0  0  0
 10 11  1  0  0  0  0
 11 12  1  0  0  0  0
M  END
>  <CHROM.1>
-66.33854675,141.36059165,-79.94431121,27.96984817,-24.84179346,1.85882230
0.37380961,0.27506148,-2.20805743

>  <Name>
ligand

>  <RI>
0

>  <Rbt.Current_Directory>
/home/itssahil/PROJECTS/Mol_Feturizer/New_Systems/rnas/4E8N

>  <Rbt.Executable>
rbdock ($Id: //depot/dev/client3/rdock/2013.1/src/exe/rbdock.cxx#4 $)

>  <Rbt.Library>
libRbt.so (2013.1, Build901 2013/11/27)

>  <Rbt.Parameter_File>
/export/apps/rDock/src/rDock_2013.1_src/data/scripts/dock_solv.prm

>  <Rbt.Receptor>
prm/pocket_docking_8.prm

>  <SCORE>
-12.9071

>  <SCORE.INTER>
-11.1884

>  <SCORE.INTER.CONST>
1

>  <SCORE.INTER.POLAR>
0

>  <SCORE.INTER.ROT>
3

>  <SCORE.INTER.SOLV>
8.61355

>  <SCORE.INTER.VDW>
-15.9301

>  <SCORE.INTER.norm>
-0.932366

>  <SCORE.INTRA>
-1.71874

>  <SCORE.INTRA.DIHEDRAL>
-0.0764509

>  <SCORE.INTRA.DIHEDRAL.0>
5.0186

>  <SCORE.INTRA.POLAR>
0

>  <SCORE.INTRA.POLAR.0>
0

>  <SCORE.INTRA.REPUL>
0

>  <SCORE.INTRA.REPUL.0>
0

>  <SCORE.INTRA.SOLV>
-0.07442

>  <SCORE.INTRA.SOLV.lig_0>
-16.1608

>  <SCORE.INTRA.VDW>
-1.6433

>  <SCORE.INTRA.VDW.0>
1.14169

>  <SCORE.INTRA.norm>
-0.143228

>  <SCORE.RESTR>
0

>  <SCORE.RESTR.CAVITY>
0

>  <SCORE.RESTR.norm>
0

>  <SCORE.SYSTEM>
0

>  <SCORE.SYSTEM.CONST>
0

>  <SCORE.SYSTEM.DIHEDRAL>
0

>  <SCORE.SYSTEM.SOLV>
0

>  <SCORE.SYSTEM.norm>
0

>  <SCORE.heavy>
12

>  <SCORE.norm>
-1.07559

>  <RMSD>
6.978

$$$$
ligand
 OpenBabel11021811493D
libRbt.so/2013.1/901 2013/11/27
 12 12  0  0  0  0  0  0  0  0999 V2000
   28.8918  -25.1858    1.2186 N   0  0  0  0  0  0  0  0  0  0  0  0
   24.6132  -23.6813    3.0966 O   0  0  0  0  0  0  0  0  0  0  0  0
   28.8867  -26.5518    0.6399 C   0  0  0  0  0  0  0  0  0  0  0  0
   26.6062  -22.5561    2.5188 O   0  0  0  0  0  0  0  0  0  0  0  0
   29.5950  -26.5046   -0.7100 C   0  0  0  0  0  0  0  0  0  0  0  0
   25.1901  -23.4800    0.7367 O   0  0  0  0  0  0  0  0  0  0  0  0
   31.0016  -26.1412   -0.5136 N   0  0  0  0  0  0  0  0  0  0  0  0
   31.2127  -25.8979    0.9156 C   0  0  0  0  0  0  0  0  0  0  0  0
   30.2990  -24.7487    1.3060 C   0  0  0  0  0  0  0  0  0  0  0  0
   28.1882  -25.0312    2.5536 C   0  0  0  0  0  0  0  0  0  0  0  0
   26.6389  -25.1042    2.5351 C   0  0  0  0  0  0  0  0  0  0  0  0
   25.7614  -23.6880    2.2389 S   0  0  0  0  0  0  0  0  0  0  0  0
  1  3  1  0  0  0  0
  1  9  1  0  0  0  0
  1 10  1  0  0  0  0
  2 12  1  0  0  0  0
  3  5  1  0  0  0  0
  4 12  2  0  0  0  0
  5  7  1  0  0  0  0
  6 12  2  0  0  0  0
  7  8  1  0  0  0  0
  8  9  1  0  0  0  0
 10 11  1  0  0  0  0
 11 12  1  0  0  0  0
M  END
>  <CHROM.1>
-72.16289504,-86.81247492,-140.43037772,27.77625516,-24.71829024,1.48175474
-0.54459449,-0.21352557,1.02867518

>  <Name>
ligand

>  <RI>
0

>  <Rbt.Current_Directory>
/home/itssahil/PROJECTS/Mol_Feturizer/New_Systems/rnas/4E8N

>  <Rbt.Executable>
rbdock ($Id: //depot/dev/client3/rdock/2013.1/src/exe/rbdock.cxx#4 $)

>  <Rbt.Library>
libRbt.so (2013.1, Build901 2013/11/27)

>  <Rbt.Parameter_File>
/export/apps/rDock/src/rDock_2013.1_src/data/scripts/dock_solv.prm

>  <Rbt.Receptor>
prm/pocket_docking_7.prm

>  <SCORE>
-13.5749

>  <SCORE.INTER>
-12.1739

>  <SCORE.INTER.CONST>
1

>  <SCORE.INTER.POLAR>
0

>  <SCORE.INTER.ROT>
3

>  <SCORE.INTER.SOLV>
10.7069

>  <SCORE.INTER.VDW>
-17.2849

>  <SCORE.INTER.norm>
-1.0145

>  <SCORE.INTRA>
-1.40356

>  <SCORE.INTRA.DIHEDRAL>
0.262394

>  <SCORE.INTRA.DIHEDRAL.0>
5.0186

>  <SCORE.INTRA.POLAR>
0

>  <SCORE.INTRA.POLAR.0>
0

>  <SCORE.INTRA.REPUL>
0

>  <SCORE.INTRA.REPUL.0>
0

>  <SCORE.INTRA.SOLV>
0.369607

>  <SCORE.INTRA.SOLV.lig_0>
-16.1608

>  <SCORE.INTRA.VDW>
-1.71956

>  <SCORE.INTRA.VDW.0>
1.14169

>  <SCORE.INTRA.norm>
-0.116963

>  <SCORE.RESTR>
0.00262364

>  <SCORE.RESTR.CAVITY>
0.00262364

>  <SCORE.RESTR.norm>
0.000218637

>  <SCORE.SYSTEM>
0

>  <SCORE.SYSTEM.CONST>
0

>  <SCORE.SYSTEM.DIHEDRAL>
0

>  <SCORE.SYSTEM.SOLV>
0

>  <SCORE.SYSTEM.norm>
0

>  <SCORE.heavy>
12

>  <SCORE.norm>
-1.13124

>  <RMSD>
7.046

$$$$
ligand
 OpenBabel11021811493D
libRbt.so/2013.1/901 2013/11/27
 12 12  0  0  0  0  0  0  0  0999 V2000
   29.5531  -23.7295    3.7034 N   0  0  0  0  0  0  0  0  0  0  0  0
   27.6048  -27.4765    1.5599 O   0  0  0  0  0  0  0  0  0  0  0  0
   30.3155  -22.7503    2.8905 C   0  0  0  0  0  0  0  0  0  0  0  0
   26.7559  -25.9087    0.0128 O   0  0  0  0  0  0  0  0  0  0  0  0
   30.5284  -21.4932    3.7275 C   0  0  0  0  0  0  0  0  0  0  0  0
   29.1412  -26.4920   -0.0566 O   0  0  0  0  0  0  0  0  0  0  0  0
   31.3657  -21.8122    4.8878 N   0  0  0  0  0  0  0  0  0  0  0  0
   31.6557  -23.2479    4.8578 C   0  0  0  0  0  0  0  0  0  0  0  0
   30.3208  -23.9682    4.9414 C   0  0  0  0  0  0  0  0  0  0  0  0
   29.2099  -25.0360    3.0133 C   0  0  0  0  0  0  0  0  0  0  0  0
   27.9887  -25.0171    2.0571 C   0  0  0  0  0  0  0  0  0  0  0  0
   27.8510  -26.2339    0.8894 S   0  0  0  0  0  0  0  0  0  0  0  0
  1  3  1  0  0  0  0
  1  9  1  0  0  0  0
  1 10  1  0  0  0  0
  2 12  1  0  0  0  0
  3  5  1  0  0  0  0
  4 12  2  0  0  0  0
  5  7  1  0  0  0  0
  6 12  2  0  0  0  0
  7  8  1  0  0  0  0
  8  9  1  0  0  0  0
 10 11  1  0  0  0  0
 11 12  1  0  0  0  0
M  END
>  <CHROM.1>
-80.24849622,159.93890478,67.76374736,29.16909163,-24.66756944,2.46840412
-0.24285099,1.02293756,2.61798881

>  <Name>
ligand

>  <RI>
0

>  <Rbt.Current_Directory>
/home/itssahil/PROJECTS/Mol_Feturizer/New_Systems/rnas/4E8N

>  <Rbt.Executable>
rbdock ($Id: //depot/dev/client3/rdock/2013.1/src/exe/rbdock.cxx#4 $)

>  <Rbt.Library>
libRbt.so (2013.1, Build901 2013/11/27)

>  <Rbt.Parameter_File>
/export/apps/rDock/src/rDock_2013.1_src/data/scripts/dock_solv.prm

>  <Rbt.Receptor>
prm/pocket_docking_7.prm

>  <SCORE>
-10.292

>  <SCORE.INTER>
-7.065

>  <SCORE.INTER.CONST>
1

>  <SCORE.INTER.POLAR>
0

>  <SCORE.INTER.ROT>
3

>  <SCORE.INTER.SOLV>
5.42577

>  <SCORE.INTER.VDW>
-12.1186

>  <SCORE.INTER.norm>
-0.58875

>  <SCORE.INTRA>
-3.22698

>  <SCORE.INTRA.DIHEDRAL>
-2.77937

>  <SCORE.INTRA.DIHEDRAL.0>
5.0186

>  <SCORE.INTRA.POLAR>
0

>  <SCORE.INTRA.POLAR.0>
0

>  <SCORE.INTRA.REPUL>
0

>  <SCORE.INTRA.REPUL.0>
0

>  <SCORE.INTRA.SOLV>
-0.0831823

>  <SCORE.INTRA.SOLV.lig_0>
-16.1608

>  <SCORE.INTRA.VDW>
-1.7957

>  <SCORE.INTRA.VDW.0>
1.14169

>  <SCORE.INTRA.norm>
-0.268915

>  <SCORE.RESTR>
0

>  <SCORE.RESTR.CAVITY>
0

>  <SCORE.RESTR.norm>
0

>  <SCORE.SYSTEM>
0

>  <SCORE.SYSTEM.CONST>
0

>  <SCORE.SYSTEM.DIHEDRAL>
0

>  <SCORE.SYSTEM.SOLV>
0

>  <SCORE.SYSTEM.norm>
0

>  <SCORE.heavy>
12

>  <SCORE.norm>
-0.857665

>  <RMSD>
7.181

$$$$
ligand
 OpenBabel11021811493D
libRbt.so/2013.1/901 2013/11/27
 12 12  0  0  0  0  0  0  0  0999 V2000
   28.4055  -26.6630    0.6120 N   0  0  0  0  0  0  0  0  0  0  0  0
   29.8863  -23.6118    2.0976 O   0  0  0  0  0  0  0  0  0  0  0  0
   29.6913  -26.2031    0.0322 C   0  0  0  0  0  0  0  0  0  0  0  0
   29.8198  -24.2639    4.3652 O   0  0  0  0  0  0  0  0  0  0  0  0
   30.3719  -27.3948   -0.6333 C   0  0  0  0  0  0  0  0  0  0  0  0
   30.8599  -25.7592    2.7169 O   0  0  0  0  0  0  0  0  0  0  0  0
   29.5534  -27.8635   -1.7556 N   0  0  0  0  0  0  0  0  0  0  0  0
   28.3377  -27.0475   -1.8032 C   0  0  0  0  0  0  0  0  0  0  0  0
   27.6148  -27.2575   -0.4837 C   0  0  0  0  0  0  0  0  0  0  0  0
   27.6033  -25.6127    1.3565 C   0  0  0  0  0  0  0  0  0  0  0  0
   28.0822  -25.2583    2.7886 C   0  0  0  0  0  0  0  0  0  0  0  0
   29.6658  -24.7014    3.0021 S   0  0  0  0  0  0  0  0  0  0  0  0
  1  3  1  0  0  0  0
  1  9  1  0  0  0  0
  1 10  1  0  0  0  0
  2 12  1  0  0  0  0
  3  5  1  0  0  0  0
  4 12  2  0  0  0  0
  5  7  1  0  0  0  0
  6 12  2  0  0  0  0
  7  8  1  0  0  0  0
  8  9  1  0  0  0  0
 10 11  1  0  0  0  0
 11 12  1  0  0  0  0
M  END
>  <CHROM.1>
-77.60748879,57.57028725,51.97814485,29.23710226,-25.80661593,1.27309938
1.72552338,0.03892005,-2.14044737

>  <Name>
ligand

>  <RI>
0

>  <Rbt.Current_Directory>
/home/itssahil/PROJECTS/Mol_Feturizer/New_Systems/rnas/4E8N

>  <Rbt.Executable>
rbdock ($Id: //depot/dev/client3/rdock/2013.1/src/exe/rbdock.cxx#4 $)

>  <Rbt.Library>
libRbt.so (2013.1, Build901 2013/11/27)

>  <Rbt.Parameter_File>
/export/apps/rDock/src/rDock_2013.1_src/data/scripts/dock_solv.prm

>  <Rbt.Receptor>
prm/pocket_docking_8.prm

>  <SCORE>
-10.2803

>  <SCORE.INTER>
-6.09782

>  <SCORE.INTER.CONST>
1

>  <SCORE.INTER.POLAR>
0

>  <SCORE.INTER.ROT>
3

>  <SCORE.INTER.SOLV>
3.66826

>  <SCORE.INTER.VDW>
-10.888

>  <SCORE.INTER.norm>
-0.508152

>  <SCORE.INTRA>
-4.18246

>  <SCORE.INTRA.DIHEDRAL>
-4.29907

>  <SCORE.INTRA.DIHEDRAL.0>
5.0186

>  <SCORE.INTRA.POLAR>
0

>  <SCORE.INTRA.POLAR.0>
0

>  <SCORE.INTRA.REPUL>
0

>  <SCORE.INTRA.REPUL.0>
0

>  <SCORE.INTRA.SOLV>
0.535176

>  <SCORE.INTRA.SOLV.lig_0>
-16.1608

>  <SCORE.INTRA.VDW>
-2.30052

>  <SCORE.INTRA.VDW.0>
1.14169

>  <SCORE.INTRA.norm>
-0.348539

>  <SCORE.RESTR>
0

>  <SCORE.RESTR.CAVITY>
0

>  <SCORE.RESTR.norm>
0

>  <SCORE.SYSTEM>
0

>  <SCORE.SYSTEM.CONST>
0

>  <SCORE.SYSTEM.DIHEDRAL>
0

>  <SCORE.SYSTEM.SOLV>
0

>  <SCORE.SYSTEM.norm>
0

>  <SCORE.heavy>
12

>  <SCORE.norm>
-0.85669

>  <RMSD>
7.397

$$$$
ligand
 OpenBabel11021811493D
libRbt.so/2013.1/901 2013/11/27
 12 12  0  0  0  0  0  0  0  0999 V2000
   28.4481  -25.5222    0.9032 N   0  0  0  0  0  0  0  0  0  0  0  0
   24.5482  -23.5852    3.0787 O   0  0  0  0  0  0  0  0  0  0  0  0
   27.9873  -26.8281    0.3709 C   0  0  0  0  0  0  0  0  0  0  0  0
   26.6008  -22.5703    2.5057 O   0  0  0  0  0  0  0  0  0  0  0  0
   28.4487  -26.9462   -1.0780 C   0  0  0  0  0  0  0  0  0  0  0  0
   25.1831  -23.4976    0.7267 O   0  0  0  0  0  0  0  0  0  0  0  0
   29.9136  -26.9710   -1.1259 N   0  0  0  0  0  0  0  0  0  0  0  0
   30.4157  -26.8171    0.2417 C   0  0  0  0  0  0  0  0  0  0  0  0
   29.9150  -25.4742    0.7456 C   0  0  0  0  0  0  0  0  0  0  0  0
   28.0419  -25.2104    2.3311 C   0  0  0  0  0  0  0  0  0  0  0  0
   26.5201  -25.1149    2.6157 C   0  0  0  0  0  0  0  0  0  0  0  0
   25.7127  -23.6740    2.2481 S   0  0  0  0  0  0  0  0  0  0  0  0
  1  3  1  0  0  0  0
  1  9  1  0  0  0  0
  1 10  1  0  0  0  0
  2 12  1  0  0  0  0
  3  5  1  0  0  0  0
  4 12  2  0  0  0  0
  5  7  1  0  0  0  0
  6 12  2  0  0  0  0
  7  8  1  0  0  0  0
  8  9  1  0  0  0  0
 10 11  1  0  0  0  0
 11 12  1  0  0  0  0
M  END
>  <CHROM.1>
-61.83481439,-81.41653623,-155.28591931,27.39531282,-24.98181702,1.26538940
-0.74619125,-0.30132119,0.99607356

>  <Name>
ligand

>  <RI>
0

>  <Rbt.Current_Directory>
/home/itssahil/PROJECTS/Mol_Feturizer/New_Systems/rnas/4E8N

>  <Rbt.Executable>
rbdock ($Id: //depot/dev/client3/rdock/2013.1/src/exe/rbdock.cxx#4 $)

>  <Rbt.Library>
libRbt.so (2013.1, Build901 2013/11/27)

>  <Rbt.Parameter_File>
/export/apps/rDock/src/rDock_2013.1_src/data/scripts/dock_solv.prm

>  <Rbt.Receptor>
prm/pocket_docking_7.prm

>  <SCORE>
-14.0671

>  <SCORE.INTER>
-11.4964

>  <SCORE.INTER.CONST>
1

>  <SCORE.INTER.POLAR>
0

>  <SCORE.INTER.ROT>
3

>  <SCORE.INTER.SOLV>
9.08323

>  <SCORE.INTER.VDW>
-16.292

>  <SCORE.INTER.norm>
-0.958036

>  <SCORE.INTRA>
-2.5707

>  <SCORE.INTRA.DIHEDRAL>
-2.10538

>  <SCORE.INTRA.DIHEDRAL.0>
5.0186

>  <SCORE.INTRA.POLAR>
0

>  <SCORE.INTRA.POLAR.0>
0

>  <SCORE.INTRA.REPUL>
0

>  <SCORE.INTRA.REPUL.0>
0

>  <SCORE.INTRA.SOLV>
0.449635

>  <SCORE.INTRA.SOLV.lig_0>
-16.1608

>  <SCORE.INTRA.VDW>
-1.74283

>  <SCORE.INTRA.VDW.0>
1.14169

>  <SCORE.INTRA.norm>
-0.214225

>  <SCORE.RESTR>
0

>  <SCORE.RESTR.CAVITY>
0

>  <SCORE.RESTR.norm>
0

>  <SCORE.SYSTEM>
0

>  <SCORE.SYSTEM.CONST>
0

>  <SCORE.SYSTEM.DIHEDRAL>
0

>  <SCORE.SYSTEM.SOLV>
0

>  <SCORE.SYSTEM.norm>
0

>  <SCORE.heavy>
12

>  <SCORE.norm>
-1.17226

>  <RMSD>
7.428

$$$$
ligand
 OpenBabel11021811493D
libRbt.so/2013.1/901 2013/11/27
 12 12  0  0  0  0  0  0  0  0999 V2000
   29.4083  -24.3568    2.9919 N   0  0  0  0  0  0  0  0  0  0  0  0
   26.5449  -26.6713   -0.5850 O   0  0  0  0  0  0  0  0  0  0  0  0
   30.2438  -23.2158    2.5437 C   0  0  0  0  0  0  0  0  0  0  0  0
   28.8846  -26.5962   -0.8887 O   0  0  0  0  0  0  0  0  0  0  0  0
   30.2007  -22.1365    3.6204 C   0  0  0  0  0  0  0  0  0  0  0  0
   27.9087  -28.3922    0.4740 O   0  0  0  0  0  0  0  0  0  0  0  0
   30.8161  -22.6451    4.8499 N   0  0  0  0  0  0  0  0  0  0  0  0
   31.2066  -24.0382    4.6199 C   0  0  0  0  0  0  0  0  0  0  0  0
   29.9349  -24.8038    4.2965 C   0  0  0  0  0  0  0  0  0  0  0  0
   29.2988  -25.5170    2.0208 C   0  0  0  0  0  0  0  0  0  0  0  0
   27.9378  -25.6917    1.2975 C   0  0  0  0  0  0  0  0  0  0  0  0
   27.8193  -26.8303    0.0513 S   0  0  0  0  0  0  0  0  0  0  0  0
  1  3  1  0  0  0  0
  1  9  1  0  0  0  0
  1 10  1  0  0  0  0
  2 12  1  0  0  0  0
  3  5  1  0  0  0  0
  4 12  2  0  0  0  0
  5  7  1  0  0  0  0
  6 12  2  0  0  0  0
  7  8  1  0  0  0  0
  8  9  1  0  0  0  0
 10 11  1  0  0  0  0
 11 12  1  0  0  0  0
M  END
>  <CHROM.1>
-107.70823607,171.70959950,-171.61008695,29.01227579,-25.30565747,1.83924875
0.39809929,-1.07028633,-0.28249676

>  <Name>
ligand

>  <RI>
0

>  <Rbt.Current_Directory>
/home/itssahil/PROJECTS/Mol_Feturizer/New_Systems/rnas/4E8N

>  <Rbt.Executable>
rbdock ($Id: //depot/dev/client3/rdock/2013.1/src/exe/rbdock.cxx#4 $)

>  <Rbt.Library>
libRbt.so (2013.1, Build901 2013/11/27)

>  <Rbt.Parameter_File>
/export/apps/rDock/src/rDock_2013.1_src/data/scripts/dock_solv.prm

>  <Rbt.Receptor>
prm/pocket_docking_7.prm

>  <SCORE>
-9.62382

>  <SCORE.INTER>
-6.61295

>  <SCORE.INTER.CONST>
1

>  <SCORE.INTER.POLAR>
0

>  <SCORE.INTER.ROT>
3

>  <SCORE.INTER.SOLV>
5.51042

>  <SCORE.INTER.VDW>
-11.8454

>  <SCORE.INTER.norm>
-0.551079

>  <SCORE.INTRA>
-3.01087

>  <SCORE.INTRA.DIHEDRAL>
-2.37279

>  <SCORE.INTRA.DIHEDRAL.0>
5.0186

>  <SCORE.INTRA.POLAR>
0

>  <SCORE.INTRA.POLAR.0>
0

>  <SCORE.INTRA.REPUL>
0

>  <SCORE.INTRA.REPUL.0>
0

>  <SCORE.INTRA.SOLV>
0.0677105

>  <SCORE.INTRA.SOLV.lig_0>
-16.1608

>  <SCORE.INTRA.VDW>
-1.85833

>  <SCORE.INTRA.VDW.0>
1.14169

>  <SCORE.INTRA.norm>
-0.250906

>  <SCORE.RESTR>
0

>  <SCORE.RESTR.CAVITY>
0

>  <SCORE.RESTR.norm>
0

>  <SCORE.SYSTEM>
0

>  <SCORE.SYSTEM.CONST>
0

>  <SCORE.SYSTEM.DIHEDRAL>
0

>  <SCORE.SYSTEM.SOLV>
0

>  <SCORE.SYSTEM.norm>
0

>  <SCORE.heavy>
12

>  <SCORE.norm>
-0.801985

>  <RMSD>
7.908

$$$$
ligand
 OpenBabel11021811493D
libRbt.so/2013.1/901 2013/11/27
 12 12  0  0  0  0  0  0  0  0999 V2000
   29.9164  -24.8741    2.7698 N   0  0  0  0  0  0  0  0  0  0  0  0
   26.7285  -25.9559   -0.3408 O   0  0  0  0  0  0  0  0  0  0  0  0
   29.7491  -24.7830    4.2411 C   0  0  0  0  0  0  0  0  0  0  0  0
   28.3708  -27.0291   -1.6534 O   0  0  0  0  0  0  0  0  0  0  0  0
   30.9853  -24.1064    4.8243 C   0  0  0  0  0  0  0  0  0  0  0  0
   27.3840  -28.2284    0.2499 O   0  0  0  0  0  0  0  0  0  0  0  0
   31.0705  -22.7292    4.3292 N   0  0  0  0  0  0  0  0  0  0  0  0
   29.9587  -22.5107    3.4005 C   0  0  0  0  0  0  0  0  0  0  0  0
   30.1326  -23.5041    2.2645 C   0  0  0  0  0  0  0  0  0  0  0  0
   28.7925  -25.5622    2.0185 C   0  0  0  0  0  0  0  0  0  0  0  0
   29.0992  -26.0080    0.5648 C   0  0  0  0  0  0  0  0  0  0  0  0
   27.8890  -26.7965   -0.3166 S   0  0  0  0  0  0  0  0  0  0  0  0
  1  3  1  0  0  0  0
  1  9  1  0  0  0  0
  1 10  1  0  0  0  0
  2 12  1  0  0  0  0
  3  5  1  0  0  0  0
  4 12  2  0  0  0  0
  5  7  1  0  0  0  0
  6 12  2  0  0  0  0
  7  8  1  0  0  0  0
  8  9  1  0  0  0  0
 10 11  1  0  0  0  0
 11 12  1  0  0  0  0
M  END
>  <CHROM.1>
-164.16760017,179.31421838,56.10981043,29.00065120,-25.38487333,1.58263167
0.06775880,1.11636011,2.40221554

>  <Name>
ligand

>  <RI>
0

>  <Rbt.Current_Directory>
/home/itssahil/PROJECTS/Mol_Feturizer/New_Systems/rnas/4E8N

>  <Rbt.Executable>
rbdock ($Id: //depot/dev/client3/rdock/2013.1/src/exe/rbdock.cxx#4 $)

>  <Rbt.Library>
libRbt.so (2013.1, Build901 2013/11/27)

>  <Rbt.Parameter_File>
/export/apps/rDock/src/rDock_2013.1_src/data/scripts/dock_solv.prm

>  <Rbt.Receptor>
prm/pocket_docking_8.prm

>  <SCORE>
-10.7964

>  <SCORE.INTER>
-6.85846

>  <SCORE.INTER.CONST>
1

>  <SCORE.INTER.POLAR>
0

>  <SCORE.INTER.ROT>
3

>  <SCORE.INTER.SOLV>
4.39425

>  <SCORE.INTER.VDW>
-11.6371

>  <SCORE.INTER.norm>
-0.571539

>  <SCORE.INTRA>
-3.93791

>  <SCORE.INTRA.DIHEDRAL>
-4.6563

>  <SCORE.INTRA.DIHEDRAL.0>
5.0186

>  <SCORE.INTRA.POLAR>
0

>  <SCORE.INTRA.POLAR.0>
0

>  <SCORE.INTRA.REPUL>
0

>  <SCORE.INTRA.REPUL.0>
0

>  <SCORE.INTRA.SOLV>
-0.114257

>  <SCORE.INTRA.SOLV.lig_0>
-16.1608

>  <SCORE.INTRA.VDW>
-1.55263

>  <SCORE.INTRA.VDW.0>
1.14169

>  <SCORE.INTRA.norm>
-0.32816

>  <SCORE.RESTR>
0

>  <SCORE.RESTR.CAVITY>
0

>  <SCORE.RESTR.norm>
0

>  <SCORE.SYSTEM>
0

>  <SCORE.SYSTEM.CONST>
0

>  <SCORE.SYSTEM.DIHEDRAL>
0

>  <SCORE.SYSTEM.SOLV>
0

>  <SCORE.SYSTEM.norm>
0

>  <SCORE.heavy>
12

>  <SCORE.norm>
-0.899698

>  <RMSD>
8.047

$$$$
ligand
 OpenBabel11021811493D
libRbt.so/2013.1/901 2013/11/27
 12 12  0  0  0  0  0  0  0  0999 V2000
   29.4797  -24.2201    2.3559 N   0  0  0  0  0  0  0  0  0  0  0  0
   27.9427  -26.6510   -1.2405 O   0  0  0  0  0  0  0  0  0  0  0  0
   30.4742  -23.1425    2.1307 C   0  0  0  0  0  0  0  0  0  0  0  0
   29.1267  -28.2081    0.0807 O   0  0  0  0  0  0  0  0  0  0  0  0
   30.3487  -22.1284    3.2630 C   0  0  0  0  0  0  0  0  0  0  0  0
   26.6709  -28.2691    0.0660 O   0  0  0  0  0  0  0  0  0  0  0  0
   30.7061  -22.7654    4.5340 N   0  0  0  0  0  0  0  0  0  0  0  0
   31.0058  -24.1744    4.2676 C   0  0  0  0  0  0  0  0  0  0  0  0
   29.7429  -24.7915    3.6912 C   0  0  0  0  0  0  0  0  0  0  0  0
   29.4309  -25.3056    1.2975 C   0  0  0  0  0  0  0  0  0  0  0  0
   28.1412  -26.1657    1.2431 C   0  0  0  0  0  0  0  0  0  0  0  0
   27.9891  -27.3274    0.0222 S   0  0  0  0  0  0  0  0  0  0  0  0
  1  3  1  0  0  0  0
  1  9  1  0  0  0  0
  1 10  1  0  0  0  0
  2 12  1  0  0  0  0
  3  5  1  0  0  0  0
  4 12  2  0  0  0  0
  5  7  1  0  0  0  0
  6 12  2  0  0  0  0
  7  8  1  0  0  0  0
  8  9  1  0  0  0  0
 10 11  1  0  0  0  0
 11 12  1  0  0  0  0
M  END
>  <CHROM.1>
-160.72828027,176.23584930,-64.74250211,29.09469331,-25.53185185,1.57438129
0.12801647,-1.13689831,-0.70937982

>  <Name>
ligand

>  <RI>
0

>  <Rbt.Current_Directory>
/home/itssahil/PROJECTS/Mol_Feturizer/New_Systems/rnas/4E8N

>  <Rbt.Executable>
rbdock ($Id: //depot/dev/client3/rdock/2013.1/src/exe/rbdock.cxx#4 $)

>  <Rbt.Library>
libRbt.so (2013.1, Build901 2013/11/27)

>  <Rbt.Parameter_File>
/export/apps/rDock/src/rDock_2013.1_src/data/scripts/dock_solv.prm

>  <Rbt.Receptor>
prm/pocket_docking_8.prm

>  <SCORE>
-10.352

>  <SCORE.INTER>
-6.49243

>  <SCORE.INTER.CONST>
1

>  <SCORE.INTER.POLAR>
0

>  <SCORE.INTER.ROT>
3

>  <SCORE.INTER.SOLV>
4.16131

>  <SCORE.INTER.VDW>
-11.3154

>  <SCORE.INTER.norm>
-0.541036

>  <SCORE.INTRA>
-3.85958

>  <SCORE.INTRA.DIHEDRAL>
-4.42686

>  <SCORE.INTRA.DIHEDRAL.0>
5.0186

>  <SCORE.INTRA.POLAR>
0

>  <SCORE.INTRA.POLAR.0>
0

>  <SCORE.INTRA.REPUL>
0

>  <SCORE.INTRA.REPUL.0>
0

>  <SCORE.INTRA.SOLV>
-0.101231

>  <SCORE.INTRA.SOLV.lig_0>
-16.1608

>  <SCORE.INTRA.VDW>
-1.59553

>  <SCORE.INTRA.VDW.0>
1.14169

>  <SCORE.INTRA.norm>
-0.321632

>  <SCORE.RESTR>
0

>  <SCORE.RESTR.CAVITY>
0

>  <SCORE.RESTR.norm>
0

>  <SCORE.SYSTEM>
0

>  <SCORE.SYSTEM.CONST>
0

>  <SCORE.SYSTEM.DIHEDRAL>
0

>  <SCORE.SYSTEM.SOLV>
0

>  <SCORE.SYSTEM.norm>
0

>  <SCORE.heavy>
12

>  <SCORE.norm>
-0.862667

>  <RMSD>
8.119

$$$$
ligand
 OpenBabel11021811493D
libRbt.so/2013.1/901 2013/11/27
 12 12  0  0  0  0  0  0  0  0999 V2000
   31.2847   -8.7449   -1.0936 N   0  0  0  0  0  0  0  0  0  0  0  0
   31.2740   -6.1671    0.4499 O   0  0  0  0  0  0  0  0  0  0  0  0
   30.5457   -9.4585   -2.1638 C   0  0  0  0  0  0  0  0  0  0  0  0
   29.6681   -6.9830    1.9754 O   0  0  0  0  0  0  0  0  0  0  0  0
   30.7649   -8.7149   -3.4773 C   0  0  0  0  0  0  0  0  0  0  0  0
   31.7412   -5.9844    2.8355 O   0  0  0  0  0  0  0  0  0  0  0  0
   32.1836   -8.7718   -3.8424 N   0  0  0  0  0  0  0  0  0  0  0  0
   32.8984   -9.4814   -2.7786 C   0  0  0  0  0  0  0  0  0  0  0  0
   32.7010   -8.6783   -1.5043 C   0  0  0  0  0  0  0  0  0  0  0  0
   31.1476   -9.3228    0.3022 C   0  0  0  0  0  0  0  0  0  0  0  0
   31.6859   -8.4548    1.4697 C   0  0  0  0  0  0  0  0  0  0  0  0
   31.0722   -6.8907    1.6704 S   0  0  0  0  0  0  0  0  0  0  0  0
  1  3  1  0  0  0  0
  1  9  1  0  0  0  0
  1 10  1  0  0  0  0
  2 12  1  0  0  0  0
  3  5  1  0  0  0  0
  4 12  2  0  0  0  0
  5  7  1  0  0  0  0
  6 12  2  0  0  0  0
  7  8  1  0  0  0  0
  8  9  1  0  0  0  0
 10 11  1  0  0  0  0
 11 12  1  0  0  0  0
M  END
>  <CHROM.1>
-168.95916410,57.12646536,-56.38483419,31.36582524,-7.96643616,-0.23805051
1.42750291,-0.25368549,-2.05774625

>  <Name>
ligand

>  <RI>
0

>  <Rbt.Current_Directory>
/home/itssahil/PROJECTS/Mol_Feturizer/New_Systems/rnas/4E8N

>  <Rbt.Executable>
rbdock ($Id: //depot/dev/client3/rdock/2013.1/src/exe/rbdock.cxx#4 $)

>  <Rbt.Library>
libRbt.so (2013.1, Build901 2013/11/27)

>  <Rbt.Parameter_File>
/export/apps/rDock/src/rDock_2013.1_src/data/scripts/dock_solv.prm

>  <Rbt.Receptor>
prm/blind_docking_40.prm

>  <SCORE>
-15.9546

>  <SCORE.INTER>
-11.6044

>  <SCORE.INTER.CONST>
1

>  <SCORE.INTER.POLAR>
0

>  <SCORE.INTER.ROT>
3

>  <SCORE.INTER.SOLV>
7.93938

>  <SCORE.INTER.VDW>
-15.9827

>  <SCORE.INTER.norm>
-0.967036

>  <SCORE.INTRA>
-4.35018

>  <SCORE.INTRA.DIHEDRAL>
-4.79861

>  <SCORE.INTRA.DIHEDRAL.0>
5.0186

>  <SCORE.INTRA.POLAR>
0

>  <SCORE.INTRA.POLAR.0>
0

>  <SCORE.INTRA.REPUL>
0

>  <SCORE.INTRA.REPUL.0>
0

>  <SCORE.INTRA.SOLV>
0.0977591

>  <SCORE.INTRA.SOLV.lig_0>
-16.1608

>  <SCORE.INTRA.VDW>
-1.99975

>  <SCORE.INTRA.VDW.0>
1.14169

>  <SCORE.INTRA.norm>
-0.362515

>  <SCORE.RESTR>
0

>  <SCORE.RESTR.CAVITY>
0

>  <SCORE.RESTR.norm>
0

>  <SCORE.SYSTEM>
0

>  <SCORE.SYSTEM.CONST>
0

>  <SCORE.SYSTEM.DIHEDRAL>
0

>  <SCORE.SYSTEM.SOLV>
0

>  <SCORE.SYSTEM.norm>
0

>  <SCORE.heavy>
12

>  <SCORE.norm>
-1.32955

>  <RMSD>
14.215

$$$$
ligand
 OpenBabel11021811493D
libRbt.so/2013.1/901 2013/11/27
 12 12  0  0  0  0  0  0  0  0999 V2000
   32.6527   -9.0261   -1.1965 N   0  0  0  0  0  0  0  0  0  0  0  0
   30.0239   -6.5300    1.4594 O   0  0  0  0  0  0  0  0  0  0  0  0
   33.7441   -8.1595   -1.7049 C   0  0  0  0  0  0  0  0  0  0  0  0
   31.5535   -7.3055    3.0813 O   0  0  0  0  0  0  0  0  0  0  0  0
   34.5690   -8.9626   -2.7053 C   0  0  0  0  0  0  0  0  0  0  0  0
   31.7238   -4.9887    2.2824 O   0  0  0  0  0  0  0  0  0  0  0  0
   33.7377   -9.3068   -3.8626 N   0  0  0  0  0  0  0  0  0  0  0  0
   32.3855   -8.7990   -3.6177 C   0  0  0  0  0  0  0  0  0  0  0  0
   31.8767   -9.4892   -2.3637 C   0  0  0  0  0  0  0  0  0  0  0  0
   31.7470   -8.4031   -0.1511 C   0  0  0  0  0  0  0  0  0  0  0  0
   32.3324   -7.2154    0.6567 C   0  0  0  0  0  0  0  0  0  0  0  0
   31.3932   -6.5240    1.8827 S   0  0  0  0  0  0  0  0  0  0  0  0
  1  3  1  0  0  0  0
  1  9  1  0  0  0  0
  1 10  1  0  0  0  0
  2 12  1  0  0  0  0
  3  5  1  0  0  0  0
  4 12  2  0  0  0  0
  5  7  1  0  0  0  0
  6 12  2  0  0  0  0
  7  8  1  0  0  0  0
  8  9  1  0  0  0  0
 10 11  1  0  0  0  0
 11 12  1  0  0  0  0
M  END
>  <CHROM.1>
-22.85507832,-177.36115465,-36.53040074,32.18798950,-7.71404378,-0.20810900
1.22688290,-0.23201131,-2.14199973

>  <Name>
ligand

>  <RI>
0

>  <Rbt.Current_Directory>
/home/itssahil/PROJECTS/Mol_Feturizer/New_Systems/rnas/4E8N

>  <Rbt.Executable>
rbdock ($Id: //depot/dev/client3/rdock/2013.1/src/exe/rbdock.cxx#4 $)

>  <Rbt.Library>
libRbt.so (2013.1, Build901 2013/11/27)

>  <Rbt.Parameter_File>
/export/apps/rDock/src/rDock_2013.1_src/data/scripts/dock_solv.prm

>  <Rbt.Receptor>
prm/blind_docking_40.prm

>  <SCORE>
-12.51

>  <SCORE.INTER>
-11.1754

>  <SCORE.INTER.CONST>
1

>  <SCORE.INTER.POLAR>
0

>  <SCORE.INTER.ROT>
3

>  <SCORE.INTER.SOLV>
7.5213

>  <SCORE.INTER.VDW>
-15.5574

>  <SCORE.INTER.norm>
-0.931282

>  <SCORE.INTRA>
-1.33466

>  <SCORE.INTRA.DIHEDRAL>
-2.22021

>  <SCORE.INTRA.DIHEDRAL.0>
5.0186

>  <SCORE.INTRA.POLAR>
0

>  <SCORE.INTRA.POLAR.0>
0

>  <SCORE.INTRA.REPUL>
0

>  <SCORE.INTRA.REPUL.0>
0

>  <SCORE.INTRA.SOLV>
-0.144904

>  <SCORE.INTRA.SOLV.lig_0>
-16.1608

>  <SCORE.INTRA.VDW>
-0.152105

>  <SCORE.INTRA.VDW.0>
1.14169

>  <SCORE.INTRA.norm>
-0.111222

>  <SCORE.RESTR>
0

>  <SCORE.RESTR.CAVITY>
0

>  <SCORE.RESTR.norm>
0

>  <SCORE.SYSTEM>
0

>  <SCORE.SYSTEM.CONST>
0

>  <SCORE.SYSTEM.DIHEDRAL>
0

>  <SCORE.SYSTEM.SOLV>
0

>  <SCORE.SYSTEM.norm>
0

>  <SCORE.heavy>
12

>  <SCORE.norm>
-1.0425

>  <RMSD>
14.495

$$$$
ligand
 OpenBabel11021811493D
libRbt.so/2013.1/901 2013/11/27
 12 12  0  0  0  0  0  0  0  0999 V2000
   30.9452   -6.0659    2.3544 N   0  0  0  0  0  0  0  0  0  0  0  0
   32.2636   -3.0520    5.7561 O   0  0  0  0  0  0  0  0  0  0  0  0
   30.8201   -7.0270    3.4775 C   0  0  0  0  0  0  0  0  0  0  0  0
   30.4947   -4.5524    5.3186 O   0  0  0  0  0  0  0  0  0  0  0  0
   29.5491   -7.8445    3.2712 C   0  0  0  0  0  0  0  0  0  0  0  0
   32.7616   -5.4363    5.6572 O   0  0  0  0  0  0  0  0  0  0  0  0
   29.6739   -8.6457    2.0499 N   0  0  0  0  0  0  0  0  0  0  0  0
   30.9634   -8.3310    1.4298 C   0  0  0  0  0  0  0  0  0  0  0  0
   30.9436   -6.8477    1.1022 C   0  0  0  0  0  0  0  0  0  0  0  0
   32.1394   -5.1324    2.4136 C   0  0  0  0  0  0  0  0  0  0  0  0
   32.0323   -3.9277    3.3849 C   0  0  0  0  0  0  0  0  0  0  0  0
   31.8706   -4.2307    5.0418 S   0  0  0  0  0  0  0  0  0  0  0  0
  1  3  1  0  0  0  0
  1  9  1  0  0  0  0
  1 10  1  0  0  0  0
  2 12  1  0  0  0  0
  3  5  1  0  0  0  0
  4 12  2  0  0  0  0
  5  7  1  0  0  0  0
  6 12  2  0  0  0  0
  7  8  1  0  0  0  0
  8  9  1  0  0  0  0
 10 11  1  0  0  0  0
 11 12  1  0  0  0  0
M  END
>  <CHROM.1>
-77.67258212,62.45874046,159.69277367,31.28697617,-5.71669519,3.65466901
-2.15260054,0.97772092,1.20685753

>  <Name>
ligand

>  <RI>
0

>  <Rbt.Current_Directory>
/home/itssahil/PROJECTS/Mol_Feturizer/New_Systems/rnas/4E8N

>  <Rbt.Executable>
rbdock ($Id: //depot/dev/client3/rdock/2013.1/src/exe/rbdock.cxx#4 $)

>  <Rbt.Library>
libRbt.so (2013.1, Build901 2013/11/27)

>  <Rbt.Parameter_File>
/export/apps/rDock/src/rDock_2013.1_src/data/scripts/dock_solv.prm

>  <Rbt.Receptor>
prm/blind_docking_40.prm

>  <SCORE>
-14.9654

>  <SCORE.INTER>
-11.2255

>  <SCORE.INTER.CONST>
1

>  <SCORE.INTER.POLAR>
0

>  <SCORE.INTER.ROT>
3

>  <SCORE.INTER.SOLV>
6.29939

>  <SCORE.INTER.VDW>
-15.1835

>  <SCORE.INTER.norm>
-0.935458

>  <SCORE.INTRA>
-3.7399

>  <SCORE.INTRA.DIHEDRAL>
-3.5378

>  <SCORE.INTRA.DIHEDRAL.0>
5.0186

>  <SCORE.INTRA.POLAR>
0

>  <SCORE.INTRA.POLAR.0>
0

>  <SCORE.INTRA.REPUL>
0

>  <SCORE.INTRA.REPUL.0>
0

>  <SCORE.INTRA.SOLV>
1.01648

>  <SCORE.INTRA.SOLV.lig_0>
-16.1608

>  <SCORE.INTRA.VDW>
-2.47924

>  <SCORE.INTRA.VDW.0>
1.14169

>  <SCORE.INTRA.norm>
-0.311658

>  <SCORE.RESTR>
0

>  <SCORE.RESTR.CAVITY>
0

>  <SCORE.RESTR.norm>
0

>  <SCORE.SYSTEM>
0

>  <SCORE.SYSTEM.CONST>
0

>  <SCORE.SYSTEM.DIHEDRAL>
0

>  <SCORE.SYSTEM.SOLV>
0

>  <SCORE.SYSTEM.norm>
0

>  <SCORE.heavy>
12

>  <SCORE.norm>
-1.24712

>  <RMSD>
15.197

$$$$
ligand
 OpenBabel11021811493D
libRbt.so/2013.1/901 2013/11/27
 12 12  0  0  0  0  0  0  0  0999 V2000
   30.9598   -6.0811    2.3547 N   0  0  0  0  0  0  0  0  0  0  0  0
   32.3586   -3.0267    5.7232 O   0  0  0  0  0  0  0  0  0  0  0  0
   30.7942   -7.0221    3.4897 C   0  0  0  0  0  0  0  0  0  0  0  0
   30.5193   -4.4585    5.3508 O   0  0  0  0  0  0  0  0  0  0  0  0
   29.5204   -7.8295    3.2625 C   0  0  0  0  0  0  0  0  0  0  0  0
   32.7539   -5.4314    5.6588 O   0  0  0  0  0  0  0  0  0  0  0  0
   29.6691   -8.6522    2.0583 N   0  0  0  0  0  0  0  0  0  0  0  0
   30.9780   -8.3613    1.4682 C   0  0  0  0  0  0  0  0  0  0  0  0
   30.9833   -6.8836    1.1160 C   0  0  0  0  0  0  0  0  0  0  0  0
   32.1622   -5.1594    2.4309 C   0  0  0  0  0  0  0  0  0  0  0  0
   32.0398   -3.9341    3.3741 C   0  0  0  0  0  0  0  0  0  0  0  0
   31.9012   -4.2003    5.0395 S   0  0  0  0  0  0  0  0  0  0  0  0
  1  3  1  0  0  0  0
  1  9  1  0  0  0  0
  1 10  1  0  0  0  0
  2 12  1  0  0  0  0
  3  5  1  0  0  0  0
  4 12  2  0  0  0  0
  5  7  1  0  0  0  0
  6 12  2  0  0  0  0
  7  8  1  0  0  0  0
  8  9  1  0  0  0  0
 10 11  1  0  0  0  0
 11 12  1  0  0  0  0
M  END
>  <CHROM.1>
-77.94386105,65.39339676,156.02533006,31.30432864,-5.70867336,3.65952666
-2.14166661,0.95718174,1.18172719

>  <Name>
ligand

>  <RI>
0

>  <Rbt.Current_Directory>
/home/itssahil/PROJECTS/Mol_Feturizer/New_Systems/rnas/4E8N

>  <Rbt.Executable>
rbdock ($Id: //depot/dev/client3/rdock/2013.1/src/exe/rbdock.cxx#4 $)

>  <Rbt.Library>
libRbt.so (2013.1, Build901 2013/11/27)

>  <Rbt.Parameter_File>
/export/apps/rDock/src/rDock_2013.1_src/data/scripts/dock_solv.prm

>  <Rbt.Receptor>
prm/blind_docking_60.prm

>  <SCORE>
-14.9343

>  <SCORE.INTER>
-11.3518

>  <SCORE.INTER.CONST>
1

>  <SCORE.INTER.POLAR>
0

>  <SCORE.INTER.ROT>
3

>  <SCORE.INTER.SOLV>
6.34379

>  <SCORE.INTER.VDW>
-15.2824

>  <SCORE.INTER.norm>
-0.94598

>  <SCORE.INTRA>
-3.58256

>  <SCORE.INTRA.DIHEDRAL>
-3.12257

>  <SCORE.INTRA.DIHEDRAL.0>
5.0186

>  <SCORE.INTRA.POLAR>
0

>  <SCORE.INTRA.POLAR.0>
0

>  <SCORE.INTRA.REPUL>
0

>  <SCORE.INTRA.REPUL.0>
0

>  <SCORE.INTRA.SOLV>
0.96916

>  <SCORE.INTRA.SOLV.lig_0>
-16.1608

>  <SCORE.INTRA.VDW>
-2.50586

>  <SCORE.INTRA.VDW.0>
1.14169

>  <SCORE.INTRA.norm>
-0.298547

>  <SCORE.RESTR>
0

>  <SCORE.RESTR.CAVITY>
0

>  <SCORE.RESTR.norm>
0

>  <SCORE.SYSTEM>
0

>  <SCORE.SYSTEM.CONST>
0

>  <SCORE.SYSTEM.DIHEDRAL>
0

>  <SCORE.SYSTEM.SOLV>
0

>  <SCORE.SYSTEM.norm>
0

>  <SCORE.heavy>
12

>  <SCORE.norm>
-1.24453

>  <RMSD>
15.202

$$$$
ligand
 OpenBabel11021811493D
libRbt.so/2013.1/901 2013/11/27
 12 12  0  0  0  0  0  0  0  0999 V2000
   31.9873   -6.1968    2.2897 N   0  0  0  0  0  0  0  0  0  0  0  0
   32.9009   -7.7370   -0.1923 O   0  0  0  0  0  0  0  0  0  0  0  0
   32.1667   -6.2402    3.7617 C   0  0  0  0  0  0  0  0  0  0  0  0
   32.1626   -9.9788   -0.2211 O   0  0  0  0  0  0  0  0  0  0  0  0
   33.4873   -5.5591    4.1052 C   0  0  0  0  0  0  0  0  0  0  0  0
   30.9762   -8.3075   -1.5754 O   0  0  0  0  0  0  0  0  0  0  0  0
   33.4191   -4.1420    3.7360 N   0  0  0  0  0  0  0  0  0  0  0  0
   32.1157   -3.8969    3.1138 C   0  0  0  0  0  0  0  0  0  0  0  0
   32.0442   -4.7799    1.8797 C   0  0  0  0  0  0  0  0  0  0  0  0
   30.7367   -6.8697    1.7564 C   0  0  0  0  0  0  0  0  0  0  0  0
   30.8946   -8.3261    1.2468 C   0  0  0  0  0  0  0  0  0  0  0  0
   31.7554   -8.5982   -0.1844 S   0  0  0  0  0  0  0  0  0  0  0  0
  1  3  1  0  0  0  0
  1  9  1  0  0  0  0
  1 10  1  0  0  0  0
  2 12  1  0  0  0  0
  3  5  1  0  0  0  0
  4 12  2  0  0  0  0
  5  7  1  0  0  0  0
  6 12  2  0  0  0  0
  7  8  1  0  0  0  0
  8  9  1  0  0  0  0
 10 11  1  0  0  0  0
 11 12  1  0  0  0  0
M  END
>  <CHROM.1>
-96.50117781,-70.15912589,40.57047810,32.02450448,-6.95611221,1.40028967
-1.14534821,1.12462072,-2.75658229

>  <Name>
ligand

>  <RI>
0

>  <Rbt.Current_Directory>
/home/itssahil/PROJECTS/Mol_Feturizer/New_Systems/rnas/4E8N

>  <Rbt.Executable>
rbdock ($Id: //depot/dev/client3/rdock/2013.1/src/exe/rbdock.cxx#4 $)

>  <Rbt.Library>
libRbt.so (2013.1, Build901 2013/11/27)

>  <Rbt.Parameter_File>
/export/apps/rDock/src/rDock_2013.1_src/data/scripts/dock_solv.prm

>  <Rbt.Receptor>
prm/blind_docking_40.prm

>  <SCORE>
-11.242

>  <SCORE.INTER>
-7.91209

>  <SCORE.INTER.CONST>
1

>  <SCORE.INTER.POLAR>
0

>  <SCORE.INTER.ROT>
3

>  <SCORE.INTER.SOLV>
5.25206

>  <SCORE.INTER.VDW>
-12.6254

>  <SCORE.INTER.norm>
-0.659341

>  <SCORE.INTRA>
-3.32988

>  <SCORE.INTRA.DIHEDRAL>
-2.12095

>  <SCORE.INTRA.DIHEDRAL.0>
5.0186

>  <SCORE.INTRA.POLAR>
0

>  <SCORE.INTRA.POLAR.0>
0

>  <SCORE.INTRA.REPUL>
0

>  <SCORE.INTRA.REPUL.0>
0

>  <SCORE.INTRA.SOLV>
-0.0369235

>  <SCORE.INTRA.SOLV.lig_0>
-16.1608

>  <SCORE.INTRA.VDW>
-2.25095

>  <SCORE.INTRA.VDW.0>
1.14169

>  <SCORE.INTRA.norm>
-0.27749

>  <SCORE.RESTR>
0

>  <SCORE.RESTR.CAVITY>
0

>  <SCORE.RESTR.norm>
0

>  <SCORE.SYSTEM>
0

>  <SCORE.SYSTEM.CONST>
0

>  <SCORE.SYSTEM.DIHEDRAL>
0

>  <SCORE.SYSTEM.SOLV>
0

>  <SCORE.SYSTEM.norm>
0

>  <SCORE.heavy>
12

>  <SCORE.norm>
-0.936831

>  <RMSD>
15.600

$$$$
ligand
 OpenBabel11021811493D
libRbt.so/2013.1/901 2013/11/27
 12 12  0  0  0  0  0  0  0  0999 V2000
   32.4382   -5.9553    2.3275 N   0  0  0  0  0  0  0  0  0  0  0  0
   33.6301   -7.9952   -1.4257 O   0  0  0  0  0  0  0  0  0  0  0  0
   31.4089   -6.1468    3.3786 C   0  0  0  0  0  0  0  0  0  0  0  0
   32.9309  -10.1110   -0.6469 O   0  0  0  0  0  0  0  0  0  0  0  0
   31.9122   -5.5039    4.6669 C   0  0  0  0  0  0  0  0  0  0  0  0
   31.2917   -8.6224   -1.7107 O   0  0  0  0  0  0  0  0  0  0  0  0
   32.0452   -4.0568    4.4736 N   0  0  0  0  0  0  0  0  0  0  0  0
   31.6966   -3.7500    3.0841 C   0  0  0  0  0  0  0  0  0  0  0  0
   32.6810   -4.5042    2.2067 C   0  0  0  0  0  0  0  0  0  0  0  0
   32.1256   -6.5708    0.9768 C   0  0  0  0  0  0  0  0  0  0  0  0
   32.4365   -8.0816    0.8129 C   0  0  0  0  0  0  0  0  0  0  0  0
   32.5923   -8.7152   -0.7484 S   0  0  0  0  0  0  0  0  0  0  0  0
  1  3  1  0  0  0  0
  1  9  1  0  0  0  0
  1 10  1  0  0  0  0
  2 12  1  0  0  0  0
  3  5  1  0  0  0  0
  4 12  2  0  0  0  0
  5  7  1  0  0  0  0
  6 12  2  0  0  0  0
  7  8  1  0  0  0  0
  8  9  1  0  0  0  0
 10 11  1  0  0  0  0
 11 12  1  0  0  0  0
M  END
>  <CHROM.1>
-82.36595540,-160.54034082,57.64687173,32.30724104,-6.92919885,1.15954956
2.09769807,1.37623369,0.32233228

>  <Name>
ligand

>  <RI>
0

>  <Rbt.Current_Directory>
/home/itssahil/PROJECTS/Mol_Feturizer/New_Systems/rnas/4E8N

>  <Rbt.Executable>
rbdock ($Id: //depot/dev/client3/rdock/2013.1/src/exe/rbdock.cxx#4 $)

>  <Rbt.Library>
libRbt.so (2013.1, Build901 2013/11/27)

>  <Rbt.Parameter_File>
/export/apps/rDock/src/rDock_2013.1_src/data/scripts/dock_solv.prm

>  <Rbt.Receptor>
prm/blind_docking_40.prm

>  <SCORE>
-11.9924

>  <SCORE.INTER>
-8.70946

>  <SCORE.INTER.CONST>
1

>  <SCORE.INTER.POLAR>
0

>  <SCORE.INTER.ROT>
3

>  <SCORE.INTER.SOLV>
7.65311

>  <SCORE.INTER.VDW>
-13.9573

>  <SCORE.INTER.norm>
-0.725788

>  <SCORE.INTRA>
-3.28296

>  <SCORE.INTRA.DIHEDRAL>
-2.87648

>  <SCORE.INTRA.DIHEDRAL.0>
5.0186

>  <SCORE.INTRA.POLAR>
0

>  <SCORE.INTRA.POLAR.0>
0

>  <SCORE.INTRA.REPUL>
0

>  <SCORE.INTRA.REPUL.0>
0

>  <SCORE.INTRA.SOLV>
-0.11058

>  <SCORE.INTRA.SOLV.lig_0>
-16.1608

>  <SCORE.INTRA.VDW>
-1.78942

>  <SCORE.INTRA.VDW.0>
1.14169

>  <SCORE.INTRA.norm>
-0.27358

>  <SCORE.RESTR>
0

>  <SCORE.RESTR.CAVITY>
0

>  <SCORE.RESTR.norm>
0

>  <SCORE.SYSTEM>
0

>  <SCORE.SYSTEM.CONST>
0

>  <SCORE.SYSTEM.DIHEDRAL>
0

>  <SCORE.SYSTEM.SOLV>
0

>  <SCORE.SYSTEM.norm>
0

>  <SCORE.heavy>
12

>  <SCORE.norm>
-0.999368

>  <RMSD>
15.838

$$$$
ligand
 OpenBabel11021811493D
libRbt.so/2013.1/901 2013/11/27
 12 12  0  0  0  0  0  0  0  0999 V2000
   31.9432   -5.7453    3.5093 N   0  0  0  0  0  0  0  0  0  0  0  0
   32.9794   -6.9846    0.4960 O   0  0  0  0  0  0  0  0  0  0  0  0
   31.6217   -4.8603    4.6557 C   0  0  0  0  0  0  0  0  0  0  0  0
   31.5188   -8.6919   -0.2277 O   0  0  0  0  0  0  0  0  0  0  0  0
   32.7897   -3.9024    4.8657 C   0  0  0  0  0  0  0  0  0  0  0  0
   30.6897   -6.3838   -0.0861 O   0  0  0  0  0  0  0  0  0  0  0  0
   32.9272   -3.0321    3.6940 N   0  0  0  0  0  0  0  0  0  0  0  0
   31.9197   -3.4334    2.7092 C   0  0  0  0  0  0  0  0  0  0  0  0
   32.2120   -4.8790    2.3448 C   0  0  0  0  0  0  0  0  0  0  0  0
   30.9045   -6.7998    3.1771 C   0  0  0  0  0  0  0  0  0  0  0  0
   31.3390   -7.9177    2.1935 C   0  0  0  0  0  0  0  0  0  0  0  0
   31.6478   -7.5077    0.5811 S   0  0  0  0  0  0  0  0  0  0  0  0
  1  3  1  0  0  0  0
  1  9  1  0  0  0  0
  1 10  1  0  0  0  0
  2 12  1  0  0  0  0
  3  5  1  0  0  0  0
  4 12  2  0  0  0  0
  5  7  1  0  0  0  0
  6 12  2  0  0  0  0
  7  8  1  0  0  0  0
  8  9  1  0  0  0  0
 10 11  1  0  0  0  0
 11 12  1  0  0  0  0
M  END
>  <CHROM.1>
-167.44672379,-67.49620562,81.97192744,31.84855505,-6.04757681,2.09235717
1.09283734,1.24917378,1.22674176

>  <Name>
ligand

>  <RI>
0

>  <Rbt.Current_Directory>
/home/itssahil/PROJECTS/Mol_Feturizer/New_Systems/rnas/4E8N

>  <Rbt.Executable>
rbdock ($Id: //depot/dev/client3/rdock/2013.1/src/exe/rbdock.cxx#4 $)

>  <Rbt.Library>
libRbt.so (2013.1, Build901 2013/11/27)

>  <Rbt.Parameter_File>
/export/apps/rDock/src/rDock_2013.1_src/data/scripts/dock_solv.prm

>  <Rbt.Receptor>
prm/blind_docking_100.prm

>  <SCORE>
-12.2886

>  <SCORE.INTER>
-8.86651

>  <SCORE.INTER.CONST>
1

>  <SCORE.INTER.POLAR>
0

>  <SCORE.INTER.ROT>
3

>  <SCORE.INTER.SOLV>
6.68353

>  <SCORE.INTER.VDW>
-13.7389

>  <SCORE.INTER.norm>
-0.738876

>  <SCORE.INTRA>
-3.42206

>  <SCORE.INTRA.DIHEDRAL>
-3.5204

>  <SCORE.INTRA.DIHEDRAL.0>
5.0186

>  <SCORE.INTRA.POLAR>
0

>  <SCORE.INTRA.POLAR.0>
0

>  <SCORE.INTRA.REPUL>
0

>  <SCORE.INTRA.REPUL.0>
0

>  <SCORE.INTRA.SOLV>
0.312645

>  <SCORE.INTRA.SOLV.lig_0>
-16.1608

>  <SCORE.INTRA.VDW>
-1.81818

>  <SCORE.INTRA.VDW.0>
1.14169

>  <SCORE.INTRA.norm>
-0.285172

>  <SCORE.RESTR>
0

>  <SCORE.RESTR.CAVITY>
0

>  <SCORE.RESTR.norm>
0

>  <SCORE.SYSTEM>
0

>  <SCORE.SYSTEM.CONST>
0

>  <SCORE.SYSTEM.DIHEDRAL>
0

>  <SCORE.SYSTEM.SOLV>
0

>  <SCORE.SYSTEM.norm>
0

>  <SCORE.heavy>
12

>  <SCORE.norm>
-1.02405

>  <RMSD>
16.160

$$$$
ligand
 OpenBabel11021811493D
libRbt.so/2013.1/901 2013/11/27
 12 12  0  0  0  0  0  0  0  0999 V2000
   31.4395   -5.2179    3.1719 N   0  0  0  0  0  0  0  0  0  0  0  0
   30.9595   -6.2702    0.0839 O   0  0  0  0  0  0  0  0  0  0  0  0
   32.4769   -4.7704    2.2105 C   0  0  0  0  0  0  0  0  0  0  0  0
   32.7297   -7.6484    0.8179 O   0  0  0  0  0  0  0  0  0  0  0  0
   32.4029   -3.2513    2.0962 C   0  0  0  0  0  0  0  0  0  0  0  0
   30.8034   -8.6704   -0.3133 O   0  0  0  0  0  0  0  0  0  0  0  0
   32.7426   -2.6450    3.3869 N   0  0  0  0  0  0  0  0  0  0  0  0
   32.9804   -3.7251    4.3477 C   0  0  0  0  0  0  0  0  0  0  0  0
   31.6883   -4.5177    4.4474 C   0  0  0  0  0  0  0  0  0  0  0  0
   31.3368   -6.7166    3.3829 C   0  0  0  0  0  0  0  0  0  0  0  0
   30.6347   -7.5294    2.2638 C   0  0  0  0  0  0  0  0  0  0  0  0
   31.3003   -7.5145    0.7081 S   0  0  0  0  0  0  0  0  0  0  0  0
  1  3  1  0  0  0  0
  1  9  1  0  0  0  0
  1 10  1  0  0  0  0
  2 12  1  0  0  0  0
  3  5  1  0  0  0  0
  4 12  2  0  0  0  0
  5  7  1  0  0  0  0
  6 12  2  0  0  0  0
  7  8  1  0  0  0  0
  8  9  1  0  0  0  0
 10 11  1  0  0  0  0
 11 12  1  0  0  0  0
M  END
>  <CHROM.1>
-76.48320376,61.12482941,-77.21017126,31.73609208,-5.93252829,2.01301941
0.90565348,1.19235680,1.27465534

>  <Name>
ligand

>  <RI>
0

>  <Rbt.Current_Directory>
/home/itssahil/PROJECTS/Mol_Feturizer/New_Systems/rnas/4E8N

>  <Rbt.Executable>
rbdock ($Id: //depot/dev/client3/rdock/2013.1/src/exe/rbdock.cxx#4 $)

>  <Rbt.Library>
libRbt.so (2013.1, Build901 2013/11/27)

>  <Rbt.Parameter_File>
/export/apps/rDock/src/rDock_2013.1_src/data/scripts/dock_solv.prm

>  <Rbt.Receptor>
prm/blind_docking_40.prm

>  <SCORE>
-13.3239

>  <SCORE.INTER>
-9.26178

>  <SCORE.INTER.CONST>
1

>  <SCORE.INTER.POLAR>
0

>  <SCORE.INTER.ROT>
3

>  <SCORE.INTER.SOLV>
6.9744

>  <SCORE.INTER.VDW>
-14.0993

>  <SCORE.INTER.norm>
-0.771815

>  <SCORE.INTRA>
-4.0621

>  <SCORE.INTRA.DIHEDRAL>
-3.85756

>  <SCORE.INTRA.DIHEDRAL.0>
5.0186

>  <SCORE.INTRA.POLAR>
0

>  <SCORE.INTRA.POLAR.0>
0

>  <SCORE.INTRA.REPUL>
0

>  <SCORE.INTRA.REPUL.0>
0

>  <SCORE.INTRA.SOLV>
0.29421

>  <SCORE.INTRA.SOLV.lig_0>
-16.1608

>  <SCORE.INTRA.VDW>
-2.28043

>  <SCORE.INTRA.VDW.0>
1.14169

>  <SCORE.INTRA.norm>
-0.338509

>  <SCORE.RESTR>
0

>  <SCORE.RESTR.CAVITY>
0

>  <SCORE.RESTR.norm>
0

>  <SCORE.SYSTEM>
0

>  <SCORE.SYSTEM.CONST>
0

>  <SCORE.SYSTEM.DIHEDRAL>
0

>  <SCORE.SYSTEM.SOLV>
0

>  <SCORE.SYSTEM.norm>
0

>  <SCORE.heavy>
12

>  <SCORE.norm>
-1.11032

>  <RMSD>
16.311

$$$$
ligand
 OpenBabel11021811493D
libRbt.so/2013.1/901 2013/11/27
 12 12  0  0  0  0  0  0  0  0999 V2000
   44.2192  -14.2061    5.9543 N   0  0  0  0  0  0  0  0  0  0  0  0
   48.1117  -12.1004    5.5055 O   0  0  0  0  0  0  0  0  0  0  0  0
   43.6117  -15.1507    4.9850 C   0  0  0  0  0  0  0  0  0  0  0  0
   48.3664  -12.7808    3.2596 O   0  0  0  0  0  0  0  0  0  0  0  0
   42.9117  -16.2576    5.7668 C   0  0  0  0  0  0  0  0  0  0  0  0
   46.9993  -10.8037    3.7666 O   0  0  0  0  0  0  0  0  0  0  0  0
   41.8053  -15.6871    6.5411 N   0  0  0  0  0  0  0  0  0  0  0  0
   41.8016  -14.2377    6.3280 C   0  0  0  0  0  0  0  0  0  0  0  0
   43.1369  -13.7157    6.8302 C   0  0  0  0  0  0  0  0  0  0  0  0
   44.9994  -13.0528    5.3524 C   0  0  0  0  0  0  0  0  0  0  0  0
   46.2141  -13.4249    4.4625 C   0  0  0  0  0  0  0  0  0  0  0  0
   47.4461  -12.2846    4.2497 S   0  0  0  0  0  0  0  0  0  0  0  0
  1  3  1  0  0  0  0
  1  9  1  0  0  0  0
  1 10  1  0  0  0  0
  2 12  1  0  0  0  0
  3  5  1  0  0  0  0
  4 12  2  0  0  0  0
  5  7  1  0  0  0  0
  6 12  2  0  0  0  0
  7  8  1  0  0  0  0
  8  9  1  0  0  0  0
 10 11  1  0  0  0  0
 11 12  1  0  0  0  0
M  END
>  <CHROM.1>
-60.03068842,-156.94170331,67.30701608,45.28941273,-13.46047009,5.12303907
2.79477353,-0.51747706,-2.79789643

>  <Name>
ligand

>  <RI>
0

>  <Rbt.Current_Directory>
/home/itssahil/PROJECTS/Mol_Feturizer/New_Systems/rnas/4E8N

>  <Rbt.Executable>
rbdock ($Id: //depot/dev/client3/rdock/2013.1/src/exe/rbdock.cxx#4 $)

>  <Rbt.Library>
libRbt.so (2013.1, Build901 2013/11/27)

>  <Rbt.Parameter_File>
/export/apps/rDock/src/rDock_2013.1_src/data/scripts/dock_solv.prm

>  <Rbt.Receptor>
prm/blind_docking_80.prm

>  <SCORE>
-10.067

>  <SCORE.INTER>
-7.13138

>  <SCORE.INTER.CONST>
1

>  <SCORE.INTER.POLAR>
0

>  <SCORE.INTER.ROT>
3

>  <SCORE.INTER.SOLV>
7.8359

>  <SCORE.INTER.VDW>
-12.9662

>  <SCORE.INTER.norm>
-0.594282

>  <SCORE.INTRA>
-3.09394

>  <SCORE.INTRA.DIHEDRAL>
-3.09342

>  <SCORE.INTRA.DIHEDRAL.0>
5.0186

>  <SCORE.INTRA.POLAR>
0

>  <SCORE.INTRA.POLAR.0>
0

>  <SCORE.INTRA.REPUL>
0

>  <SCORE.INTRA.REPUL.0>
0

>  <SCORE.INTRA.SOLV>
-0.0849207

>  <SCORE.INTRA.SOLV.lig_0>
-16.1608

>  <SCORE.INTRA.VDW>
-1.50477

>  <SCORE.INTRA.VDW.0>
1.14169

>  <SCORE.INTRA.norm>
-0.257829

>  <SCORE.RESTR>
0.158338

>  <SCORE.RESTR.CAVITY>
0.158338

>  <SCORE.RESTR.norm>
0.0131948

>  <SCORE.SYSTEM>
0

>  <SCORE.SYSTEM.CONST>
0

>  <SCORE.SYSTEM.DIHEDRAL>
0

>  <SCORE.SYSTEM.SOLV>
0

>  <SCORE.SYSTEM.norm>
0

>  <SCORE.heavy>
12

>  <SCORE.norm>
-0.838916

>  <RMSD>
16.485

$$$$
ligand
 OpenBabel11021811493D
libRbt.so/2013.1/901 2013/11/27
 12 12  0  0  0  0  0  0  0  0999 V2000
   31.7877   -4.3230   11.9932 N   0  0  0  0  0  0  0  0  0  0  0  0
   33.1886   -8.3639   10.1228 O   0  0  0  0  0  0  0  0  0  0  0  0
   32.9577   -4.0173   12.8525 C   0  0  0  0  0  0  0  0  0  0  0  0
   30.8323   -8.4092   10.2564 O   0  0  0  0  0  0  0  0  0  0  0  0
   32.9816   -2.5151   13.1152 C   0  0  0  0  0  0  0  0  0  0  0  0
   31.9039   -8.0734    8.0715 O   0  0  0  0  0  0  0  0  0  0  0  0
   31.7916   -2.1319   13.8809 N   0  0  0  0  0  0  0  0  0  0  0  0
   30.9708   -3.3298   14.0745 C   0  0  0  0  0  0  0  0  0  0  0  0
   30.5855   -3.8274   12.6918 C   0  0  0  0  0  0  0  0  0  0  0  0
   31.6251   -5.7767   11.5912 C   0  0  0  0  0  0  0  0  0  0  0  0
   31.9741   -6.1349   10.1230 C   0  0  0  0  0  0  0  0  0  0  0  0
   31.9725   -7.7626    9.6605 S   0  0  0  0  0  0  0  0  0  0  0  0
  1  3  1  0  0  0  0
  1  9  1  0  0  0  0
  1 10  1  0  0  0  0
  2 12  1  0  0  0  0
  3  5  1  0  0  0  0
  4 12  2  0  0  0  0
  5  7  1  0  0  0  0
  6 12  2  0  0  0  0
  7  8  1  0  0  0  0
  8  9  1  0  0  0  0
 10 11  1  0  0  0  0
 11 12  1  0  0  0  0
M  END
>  <CHROM.1>
-106.11013389,173.52186192,-78.30327399,31.89243800,-5.70098768,11.29667636
-1.59136868,-0.24134847,-2.47871781

>  <Name>
ligand

>  <RI>
0

>  <Rbt.Current_Directory>
/home/itssahil/PROJECTS/Mol_Feturizer/New_Systems/rnas/4E8N

>  <Rbt.Executable>
rbdock ($Id: //depot/dev/client3/rdock/2013.1/src/exe/rbdock.cxx#4 $)

>  <Rbt.Library>
libRbt.so (2013.1, Build901 2013/11/27)

>  <Rbt.Parameter_File>
/export/apps/rDock/src/rDock_2013.1_src/data/scripts/dock_solv.prm

>  <Rbt.Receptor>
prm/blind_docking_40.prm

>  <SCORE>
-11.3023

>  <SCORE.INTER>
-8.51289

>  <SCORE.INTER.CONST>
1

>  <SCORE.INTER.POLAR>
0

>  <SCORE.INTER.ROT>
3

>  <SCORE.INTER.SOLV>
14.055

>  <SCORE.INTER.VDW>
-15.9603

>  <SCORE.INTER.norm>
-0.709407

>  <SCORE.INTRA>
-2.78942

>  <SCORE.INTRA.DIHEDRAL>
-1.96474

>  <SCORE.INTRA.DIHEDRAL.0>
5.0186

>  <SCORE.INTRA.POLAR>
0

>  <SCORE.INTRA.POLAR.0>
0

>  <SCORE.INTRA.REPUL>
0

>  <SCORE.INTRA.REPUL.0>
0

>  <SCORE.INTRA.SOLV>
-0.0744639

>  <SCORE.INTRA.SOLV.lig_0>
-16.1608

>  <SCORE.INTRA.VDW>
-1.76982

>  <SCORE.INTRA.VDW.0>
1.14169

>  <SCORE.INTRA.norm>
-0.232452

>  <SCORE.RESTR>
0

>  <SCORE.RESTR.CAVITY>
0

>  <SCORE.RESTR.norm>
0

>  <SCORE.SYSTEM>
0

>  <SCORE.SYSTEM.CONST>
0

>  <SCORE.SYSTEM.DIHEDRAL>
0

>  <SCORE.SYSTEM.SOLV>
0

>  <SCORE.SYSTEM.norm>
0

>  <SCORE.heavy>
12

>  <SCORE.norm>
-0.941859

>  <RMSD>
17.392

$$$$
ligand
 OpenBabel11021811493D
libRbt.so/2013.1/901 2013/11/27
 12 12  0  0  0  0  0  0  0  0999 V2000
   32.8544   -4.8712    3.5577 N   0  0  0  0  0  0  0  0  0  0  0  0
   32.9843   -0.6997    5.5008 O   0  0  0  0  0  0  0  0  0  0  0  0
   31.8062   -4.7629    2.5134 C   0  0  0  0  0  0  0  0  0  0  0  0
   35.2289   -1.2140    4.9823 O   0  0  0  0  0  0  0  0  0  0  0  0
   31.7316   -6.0913    1.7678 C   0  0  0  0  0  0  0  0  0  0  0  0
   34.0284    0.4341    3.6122 O   0  0  0  0  0  0  0  0  0  0  0  0
   31.2952   -7.1462    2.6875 N   0  0  0  0  0  0  0  0  0  0  0  0
   31.1382   -6.5530    4.0177 C   0  0  0  0  0  0  0  0  0  0  0  0
   32.4995   -6.0136    4.4225 C   0  0  0  0  0  0  0  0  0  0  0  0
   33.0999   -3.6200    4.3795 C   0  0  0  0  0  0  0  0  0  0  0  0
   33.4020   -2.3188    3.5910 C   0  0  0  0  0  0  0  0  0  0  0  0
   33.9192   -0.9522    4.4443 S   0  0  0  0  0  0  0  0  0  0  0  0
  1  3  1  0  0  0  0
  1  9  1  0  0  0  0
  1 10  1  0  0  0  0
  2 12  1  0  0  0  0
  3  5  1  0  0  0  0
  4 12  2  0  0  0  0
  5  7  1  0  0  0  0
  6 12  2  0  0  0  0
  7  8  1  0  0  0  0
  8  9  1  0  0  0  0
 10 11  1  0  0  0  0
 11 12  1  0  0  0  0
M  END
>  <CHROM.1>
-53.68995604,-170.60644842,-52.63146282,32.97286008,-3.29989203,3.87925874
-2.80582267,-1.16237120,-0.95649313

>  <Name>
ligand

>  <RI>
0

>  <Rbt.Current_Directory>
/home/itssahil/PROJECTS/Mol_Feturizer/New_Systems/rnas/4E8N

>  <Rbt.Executable>
rbdock ($Id: //depot/dev/client3/rdock/2013.1/src/exe/rbdock.cxx#4 $)

>  <Rbt.Library>
libRbt.so (2013.1, Build901 2013/11/27)

>  <Rbt.Parameter_File>
/export/apps/rDock/src/rDock_2013.1_src/data/scripts/dock_solv.prm

>  <Rbt.Receptor>
prm/blind_docking_80.prm

>  <SCORE>
-13.7583

>  <SCORE.INTER>
-10.1423

>  <SCORE.INTER.CONST>
1

>  <SCORE.INTER.POLAR>
0

>  <SCORE.INTER.ROT>
3

>  <SCORE.INTER.SOLV>
4.76943

>  <SCORE.INTER.VDW>
-13.9513

>  <SCORE.INTER.norm>
-0.845192

>  <SCORE.INTRA>
-3.61595

>  <SCORE.INTRA.DIHEDRAL>
-4.50744

>  <SCORE.INTRA.DIHEDRAL.0>
5.0186

>  <SCORE.INTRA.POLAR>
0

>  <SCORE.INTRA.POLAR.0>
0

>  <SCORE.INTRA.REPUL>
0

>  <SCORE.INTRA.REPUL.0>
0

>  <SCORE.INTRA.SOLV>
-0.12302

>  <SCORE.INTRA.SOLV.lig_0>
-16.1608

>  <SCORE.INTRA.VDW>
-1.30073

>  <SCORE.INTRA.VDW.0>
1.14169

>  <SCORE.INTRA.norm>
-0.30133

>  <SCORE.RESTR>
0

>  <SCORE.RESTR.CAVITY>
0

>  <SCORE.RESTR.norm>
0

>  <SCORE.SYSTEM>
0

>  <SCORE.SYSTEM.CONST>
0

>  <SCORE.SYSTEM.DIHEDRAL>
0

>  <SCORE.SYSTEM.SOLV>
0

>  <SCORE.SYSTEM.norm>
0

>  <SCORE.heavy>
12

>  <SCORE.norm>
-1.14652

>  <RMSD>
17.593

$$$$
ligand
 OpenBabel11021811493D
libRbt.so/2013.1/901 2013/11/27
 12 12  0  0  0  0  0  0  0  0999 V2000
   33.1793   -3.5769    2.5998 N   0  0  0  0  0  0  0  0  0  0  0  0
   30.7673   -6.4054   -0.0671 O   0  0  0  0  0  0  0  0  0  0  0  0
   33.0863   -3.1013    4.0019 C   0  0  0  0  0  0  0  0  0  0  0  0
   31.6175   -8.2626    1.1162 O   0  0  0  0  0  0  0  0  0  0  0  0
   34.3438   -2.2997    4.3219 C   0  0  0  0  0  0  0  0  0  0  0  0
   29.7217   -7.0104    2.0504 O   0  0  0  0  0  0  0  0  0  0  0  0
   34.3897   -1.1016    3.4784 N   0  0  0  0  0  0  0  0  0  0  0  0
   33.2299   -1.1310    2.5839 C   0  0  0  0  0  0  0  0  0  0  0  0
   33.3556   -2.3889    1.7416 C   0  0  0  0  0  0  0  0  0  0  0  0
   32.0255   -4.4342    2.1151 C   0  0  0  0  0  0  0  0  0  0  0  0
   32.3276   -5.9373    1.8796 C   0  0  0  0  0  0  0  0  0  0  0  0
   31.1137   -6.9182    1.2257 S   0  0  0  0  0  0  0  0  0  0  0  0
  1  3  1  0  0  0  0
  1  9  1  0  0  0  0
  1 10  1  0  0  0  0
  2 12  1  0  0  0  0
  3  5  1  0  0  0  0
  4 12  2  0  0  0  0
  5  7  1  0  0  0  0
  6 12  2  0  0  0  0
  7  8  1  0  0  0  0
  8  9  1  0  0  0  0
 10 11  1  0  0  0  0
 11 12  1  0  0  0  0
M  END
>  <CHROM.1>
-109.69674067,-175.33310443,60.64584619,32.25287604,-4.70670574,2.11973193
-0.36822203,1.06765738,2.37209961

>  <Name>
ligand

>  <RI>
0

>  <Rbt.Current_Directory>
/home/itssahil/PROJECTS/Mol_Feturizer/New_Systems/rnas/4E8N

>  <Rbt.Executable>
rbdock ($Id: //depot/dev/client3/rdock/2013.1/src/exe/rbdock.cxx#4 $)

>  <Rbt.Library>
libRbt.so (2013.1, Build901 2013/11/27)

>  <Rbt.Parameter_File>
/export/apps/rDock/src/rDock_2013.1_src/data/scripts/dock_solv.prm

>  <Rbt.Receptor>
prm/blind_docking_100.prm

>  <SCORE>
-12.8296

>  <SCORE.INTER>
-9.55796

>  <SCORE.INTER.CONST>
1

>  <SCORE.INTER.POLAR>
0

>  <SCORE.INTER.ROT>
3

>  <SCORE.INTER.SOLV>
6.01382

>  <SCORE.INTER.VDW>
-13.9766

>  <SCORE.INTER.norm>
-0.796496

>  <SCORE.INTRA>
-3.27167

>  <SCORE.INTRA.DIHEDRAL>
-2.66455

>  <SCORE.INTRA.DIHEDRAL.0>
5.0186

>  <SCORE.INTRA.POLAR>
0

>  <SCORE.INTRA.POLAR.0>
0

>  <SCORE.INTRA.REPUL>
0

>  <SCORE.INTRA.REPUL.0>
0

>  <SCORE.INTRA.SOLV>
-0.109885

>  <SCORE.INTRA.SOLV.lig_0>
-16.1608

>  <SCORE.INTRA.VDW>
-1.88445

>  <SCORE.INTRA.VDW.0>
1.14169

>  <SCORE.INTRA.norm>
-0.272639

>  <SCORE.RESTR>
0

>  <SCORE.RESTR.CAVITY>
0

>  <SCORE.RESTR.norm>
0

>  <SCORE.SYSTEM>
0

>  <SCORE.SYSTEM.CONST>
0

>  <SCORE.SYSTEM.DIHEDRAL>
0

>  <SCORE.SYSTEM.SOLV>
0

>  <SCORE.SYSTEM.norm>
0

>  <SCORE.heavy>
12

>  <SCORE.norm>
-1.06914

>  <RMSD>
17.630

$$$$
ligand
 OpenBabel11021811493D
libRbt.so/2013.1/901 2013/11/27
 12 12  0  0  0  0  0  0  0  0999 V2000
   32.8638   -3.0964    3.0603 N   0  0  0  0  0  0  0  0  0  0  0  0
   32.9347   -7.0360    0.8094 O   0  0  0  0  0  0  0  0  0  0  0  0
   33.3424   -1.7768    2.5803 C   0  0  0  0  0  0  0  0  0  0  0  0
   31.0401   -7.7963    1.9944 O   0  0  0  0  0  0  0  0  0  0  0  0
   33.5607   -0.8753    3.7911 C   0  0  0  0  0  0  0  0  0  0  0  0
   30.7276   -6.3559    0.0291 O   0  0  0  0  0  0  0  0  0  0  0  0
   34.6311   -1.4272    4.6270 N   0  0  0  0  0  0  0  0  0  0  0  0
   35.0748   -2.6866    4.0243 C   0  0  0  0  0  0  0  0  0  0  0  0
   33.8716   -3.6139    4.0067 C   0  0  0  0  0  0  0  0  0  0  0  0
   32.5516   -4.1177    1.9829 C   0  0  0  0  0  0  0  0  0  0  0  0
   31.8534   -5.4236    2.4447 C   0  0  0  0  0  0  0  0  0  0  0  0
   31.6470   -6.6753    1.3249 S   0  0  0  0  0  0  0  0  0  0  0  0
  1  3  1  0  0  0  0
  1  9  1  0  0  0  0
  1 10  1  0  0  0  0
  2 12  1  0  0  0  0
  3  5  1  0  0  0  0
  4 12  2  0  0  0  0
  5  7  1  0  0  0  0
  6 12  2  0  0  0  0
  7  8  1  0  0  0  0
  8  9  1  0  0  0  0
 10 11  1  0  0  0  0
 11 12  1  0  0  0  0
M  END
>  <CHROM.1>
-171.18917584,-172.77836531,57.21009967,32.69007760,-4.55583090,2.39084154
0.94074527,-0.79923235,0.01457918

>  <Name>
ligand

>  <RI>
0

>  <Rbt.Current_Directory>
/home/itssahil/PROJECTS/Mol_Feturizer/New_Systems/rnas/4E8N

>  <Rbt.Executable>
rbdock ($Id: //depot/dev/client3/rdock/2013.1/src/exe/rbdock.cxx#4 $)

>  <Rbt.Library>
libRbt.so (2013.1, Build901 2013/11/27)

>  <Rbt.Parameter_File>
/export/apps/rDock/src/rDock_2013.1_src/data/scripts/dock_solv.prm

>  <Rbt.Receptor>
prm/blind_docking_40.prm

>  <SCORE>
-12.5171

>  <SCORE.INTER>
-8.70133

>  <SCORE.INTER.CONST>
1

>  <SCORE.INTER.POLAR>
0

>  <SCORE.INTER.ROT>
3

>  <SCORE.INTER.SOLV>
6.84337

>  <SCORE.INTER.VDW>
-13.682

>  <SCORE.INTER.norm>
-0.725111

>  <SCORE.INTRA>
-3.8158

>  <SCORE.INTRA.DIHEDRAL>
-4.71595

>  <SCORE.INTRA.DIHEDRAL.0>
5.0186

>  <SCORE.INTRA.POLAR>
0

>  <SCORE.INTRA.POLAR.0>
0

>  <SCORE.INTRA.REPUL>
0

>  <SCORE.INTRA.REPUL.0>
0

>  <SCORE.INTRA.SOLV>
-0.107855

>  <SCORE.INTRA.SOLV.lig_0>
-16.1608

>  <SCORE.INTRA.VDW>
-1.4039

>  <SCORE.INTRA.VDW.0>
1.14169

>  <SCORE.INTRA.norm>
-0.317984

>  <SCORE.RESTR>
0

>  <SCORE.RESTR.CAVITY>
0

>  <SCORE.RESTR.norm>
0

>  <SCORE.SYSTEM>
0

>  <SCORE.SYSTEM.CONST>
0

>  <SCORE.SYSTEM.DIHEDRAL>
0

>  <SCORE.SYSTEM.SOLV>
0

>  <SCORE.SYSTEM.norm>
0

>  <SCORE.heavy>
12

>  <SCORE.norm>
-1.04309

>  <RMSD>
17.759

$$$$
ligand
 OpenBabel11021811493D
libRbt.so/2013.1/901 2013/11/27
 12 12  0  0  0  0  0  0  0  0999 V2000
   45.1763  -13.3712    5.6709 N   0  0  0  0  0  0  0  0  0  0  0  0
   49.1854  -12.7761    3.1031 O   0  0  0  0  0  0  0  0  0  0  0  0
   44.1628  -14.4433    5.5148 C   0  0  0  0  0  0  0  0  0  0  0  0
   47.3387  -11.5335    2.3173 O   0  0  0  0  0  0  0  0  0  0  0  0
   43.2356  -14.4080    6.7253 C   0  0  0  0  0  0  0  0  0  0  0  0
   49.1115  -10.3848    3.5712 O   0  0  0  0  0  0  0  0  0  0  0  0
   42.5004  -13.1399    6.7433 N   0  0  0  0  0  0  0  0  0  0  0  0
   42.9629  -12.3304    5.6133 C   0  0  0  0  0  0  0  0  0  0  0  0
   44.4495  -12.0951    5.8200 C   0  0  0  0  0  0  0  0  0  0  0  0
   46.2174  -13.2813    4.5713 C   0  0  0  0  0  0  0  0  0  0  0  0
   47.3462  -12.2356    4.7670 C   0  0  0  0  0  0  0  0  0  0  0  0
   48.2423  -11.7440    3.4184 S   0  0  0  0  0  0  0  0  0  0  0  0
  1  3  1  0  0  0  0
  1  9  1  0  0  0  0
  1 10  1  0  0  0  0
  2 12  1  0  0  0  0
  3  5  1  0  0  0  0
  4 12  2  0  0  0  0
  5  7  1  0  0  0  0
  6 12  2  0  0  0  0
  7  8  1  0  0  0  0
  8  9  1  0  0  0  0
 10 11  1  0  0  0  0
 11 12  1  0  0  0  0
M  END
>  <CHROM.1>
-175.67816468,-161.40245675,-77.11484190,46.13804143,-12.52731990,4.63179617
-2.75633262,0.46190827,-0.18482900

>  <Name>
ligand

>  <RI>
0

>  <Rbt.Current_Directory>
/home/itssahil/PROJECTS/Mol_Feturizer/New_Systems/rnas/4E8N

>  <Rbt.Executable>
rbdock ($Id: //depot/dev/client3/rdock/2013.1/src/exe/rbdock.cxx#4 $)

>  <Rbt.Library>
libRbt.so (2013.1, Build901 2013/11/27)

>  <Rbt.Parameter_File>
/export/apps/rDock/src/rDock_2013.1_src/data/scripts/dock_solv.prm

>  <Rbt.Receptor>
prm/blind_docking_100.prm

>  <SCORE>
-16.0539

>  <SCORE.INTER>
-13.3372

>  <SCORE.INTER.CONST>
1

>  <SCORE.INTER.POLAR>
0

>  <SCORE.INTER.ROT>
3

>  <SCORE.INTER.SOLV>
9.89627

>  <SCORE.INTER.VDW>
-17.7902

>  <SCORE.INTER.norm>
-1.11144

>  <SCORE.INTRA>
-2.81146

>  <SCORE.INTRA.DIHEDRAL>
-3.13614

>  <SCORE.INTRA.DIHEDRAL.0>
5.0186

>  <SCORE.INTRA.POLAR>
0

>  <SCORE.INTRA.POLAR.0>
0

>  <SCORE.INTRA.REPUL>
0

>  <SCORE.INTRA.REPUL.0>
0

>  <SCORE.INTRA.SOLV>
-0.0573725

>  <SCORE.INTRA.SOLV.lig_0>
-16.1608

>  <SCORE.INTRA.VDW>
-1.2147

>  <SCORE.INTRA.VDW.0>
1.14169

>  <SCORE.INTRA.norm>
-0.234288

>  <SCORE.RESTR>
0.0948291

>  <SCORE.RESTR.CAVITY>
0.0948291

>  <SCORE.RESTR.norm>
0.00790242

>  <SCORE.SYSTEM>
0

>  <SCORE.SYSTEM.CONST>
0

>  <SCORE.SYSTEM.DIHEDRAL>
0

>  <SCORE.SYSTEM.SOLV>
0

>  <SCORE.SYSTEM.norm>
0

>  <SCORE.heavy>
12

>  <SCORE.norm>
-1.33782

>  <RMSD>
17.774

$$$$
ligand
 OpenBabel11021811493D
libRbt.so/2013.1/901 2013/11/27
 12 12  0  0  0  0  0  0  0  0999 V2000
   33.3645   -3.9829    4.3074 N   0  0  0  0  0  0  0  0  0  0  0  0
   34.0055    0.6034    3.9458 O   0  0  0  0  0  0  0  0  0  0  0  0
   34.0926   -5.2736    4.3775 C   0  0  0  0  0  0  0  0  0  0  0  0
   33.0272   -0.8619    5.5167 O   0  0  0  0  0  0  0  0  0  0  0  0
   33.8142   -5.9092    5.7357 C   0  0  0  0  0  0  0  0  0  0  0  0
   35.3798   -1.1781    4.8840 O   0  0  0  0  0  0  0  0  0  0  0  0
   32.3879   -6.2298    5.8442 N   0  0  0  0  0  0  0  0  0  0  0  0
   31.7248   -5.7714    4.6209 C   0  0  0  0  0  0  0  0  0  0  0  0
   31.9356   -4.2690    4.5428 C   0  0  0  0  0  0  0  0  0  0  0  0
   33.5584   -3.1834    3.0329 C   0  0  0  0  0  0  0  0  0  0  0  0
   33.2399   -1.6673    3.1084 C   0  0  0  0  0  0  0  0  0  0  0  0
   33.8991   -0.7598    4.3753 S   0  0  0  0  0  0  0  0  0  0  0  0
  1  3  1  0  0  0  0
  1  9  1  0  0  0  0
  1 10  1  0  0  0  0
  2 12  1  0  0  0  0
  3  5  1  0  0  0  0
  4 12  2  0  0  0  0
  5  7  1  0  0  0  0
  6 12  2  0  0  0  0
  7  8  1  0  0  0  0
  8  9  1  0  0  0  0
 10 11  1  0  0  0  0
 11 12  1  0  0  0  0
M  END
>  <CHROM.1>
-159.48609474,49.22947792,154.08078448,33.44259677,-2.89296048,4.51815341
1.83993883,0.53428130,2.86219077

>  <Name>
ligand

>  <RI>
0

>  <Rbt.Current_Directory>
/home/itssahil/PROJECTS/Mol_Feturizer/New_Systems/rnas/4E8N

>  <Rbt.Executable>
rbdock ($Id: //depot/dev/client3/rdock/2013.1/src/exe/rbdock.cxx#4 $)

>  <Rbt.Library>
libRbt.so (2013.1, Build901 2013/11/27)

>  <Rbt.Parameter_File>
/export/apps/rDock/src/rDock_2013.1_src/data/scripts/dock_solv.prm

>  <Rbt.Receptor>
prm/blind_docking_60.prm

>  <SCORE>
-10.888

>  <SCORE.INTER>
-7.67851

>  <SCORE.INTER.CONST>
1

>  <SCORE.INTER.POLAR>
0

>  <SCORE.INTER.ROT>
3

>  <SCORE.INTER.SOLV>
4.47053

>  <SCORE.INTER.VDW>
-12.2092

>  <SCORE.INTER.norm>
-0.639876

>  <SCORE.INTRA>
-3.20954

>  <SCORE.INTRA.DIHEDRAL>
-2.64376

>  <SCORE.INTRA.DIHEDRAL.0>
5.0186

>  <SCORE.INTRA.POLAR>
0

>  <SCORE.INTRA.POLAR.0>
0

>  <SCORE.INTRA.REPUL>
0

>  <SCORE.INTRA.REPUL.0>
0

>  <SCORE.INTRA.SOLV>
0.82744

>  <SCORE.INTRA.SOLV.lig_0>
-16.1608

>  <SCORE.INTRA.VDW>
-2.30138

>  <SCORE.INTRA.VDW.0>
1.14169

>  <SCORE.INTRA.norm>
-0.267461

>  <SCORE.RESTR>
0

>  <SCORE.RESTR.CAVITY>
0

>  <SCORE.RESTR.norm>
0

>  <SCORE.SYSTEM>
0

>  <SCORE.SYSTEM.CONST>
0

>  <SCORE.SYSTEM.DIHEDRAL>
0

>  <SCORE.SYSTEM.SOLV>
0

>  <SCORE.SYSTEM.norm>
0

>  <SCORE.heavy>
12

>  <SCORE.norm>
-0.907337

>  <RMSD>
18.129

$$$$
ligand
 OpenBabel11021811493D
libRbt.so/2013.1/901 2013/11/27
 12 12  0  0  0  0  0  0  0  0999 V2000
   31.6629   -4.3812   13.1418 N   0  0  0  0  0  0  0  0  0  0  0  0
   33.9044   -6.6354    9.9862 O   0  0  0  0  0  0  0  0  0  0  0  0
   30.5955   -3.3832   12.8854 C   0  0  0  0  0  0  0  0  0  0  0  0
   31.9160   -7.6053    9.1631 O   0  0  0  0  0  0  0  0  0  0  0  0
   29.8979   -3.0755   14.2063 C   0  0  0  0  0  0  0  0  0  0  0  0
   32.6241   -5.4131    8.3101 O   0  0  0  0  0  0  0  0  0  0  0  0
   30.8472   -2.4423   15.1266 N   0  0  0  0  0  0  0  0  0  0  0  0
   32.1515   -2.3806   14.4625 C   0  0  0  0  0  0  0  0  0  0  0  0
   32.5621   -3.8126   14.1651 C   0  0  0  0  0  0  0  0  0  0  0  0
   32.4428   -4.8418   11.9249 C   0  0  0  0  0  0  0  0  0  0  0  0
   31.7099   -5.8029   10.9527 C   0  0  0  0  0  0  0  0  0  0  0  0
   32.5460   -6.3874    9.6027 S   0  0  0  0  0  0  0  0  0  0  0  0
  1  3  1  0  0  0  0
  1  9  1  0  0  0  0
  1 10  1  0  0  0  0
  2 12  1  0  0  0  0
  3  5  1  0  0  0  0
  4 12  2  0  0  0  0
  5  7  1  0  0  0  0
  6 12  2  0  0  0  0
  7  8  1  0  0  0  0
  8  9  1  0  0  0  0
 10 11  1  0  0  0  0
 11 12  1  0  0  0  0
M  END
>  <CHROM.1>
-73.65084531,-178.16009695,37.59254577,31.99330237,-4.89813819,11.68172753
-1.80616307,0.15759926,-2.15223148

>  <Name>
ligand

>  <RI>
0

>  <Rbt.Current_Directory>
/home/itssahil/PROJECTS/Mol_Feturizer/New_Systems/rnas/4E8N

>  <Rbt.Executable>
rbdock ($Id: //depot/dev/client3/rdock/2013.1/src/exe/rbdock.cxx#4 $)

>  <Rbt.Library>
libRbt.so (2013.1, Build901 2013/11/27)

>  <Rbt.Parameter_File>
/export/apps/rDock/src/rDock_2013.1_src/data/scripts/dock_solv.prm

>  <Rbt.Receptor>
prm/blind_docking_40.prm

>  <SCORE>
-15.2625

>  <SCORE.INTER>
-11.982

>  <SCORE.INTER.CONST>
1

>  <SCORE.INTER.POLAR>
0

>  <SCORE.INTER.ROT>
3

>  <SCORE.INTER.SOLV>
17.4109

>  <SCORE.INTER.VDW>
-19.3916

>  <SCORE.INTER.norm>
-0.998498

>  <SCORE.INTRA>
-3.43842

>  <SCORE.INTRA.DIHEDRAL>
-3.56735

>  <SCORE.INTRA.DIHEDRAL.0>
5.0186

>  <SCORE.INTRA.POLAR>
0

>  <SCORE.INTRA.POLAR.0>
0

>  <SCORE.INTRA.REPUL>
0

>  <SCORE.INTRA.REPUL.0>
0

>  <SCORE.INTRA.SOLV>
-0.151286

>  <SCORE.INTRA.SOLV.lig_0>
-16.1608

>  <SCORE.INTRA.VDW>
-1.5791

>  <SCORE.INTRA.VDW.0>
1.14169

>  <SCORE.INTRA.norm>
-0.286535

>  <SCORE.RESTR>
0.157883

>  <SCORE.RESTR.CAVITY>
0.157883

>  <SCORE.RESTR.norm>
0.0131569

>  <SCORE.SYSTEM>
0

>  <SCORE.SYSTEM.CONST>
0

>  <SCORE.SYSTEM.DIHEDRAL>
0

>  <SCORE.SYSTEM.SOLV>
0

>  <SCORE.SYSTEM.norm>
0

>  <SCORE.heavy>
12

>  <SCORE.norm>
-1.27188

>  <RMSD>
18.199

$$$$
ligand
 OpenBabel11021811493D
libRbt.so/2013.1/901 2013/11/27
 12 12  0  0  0  0  0  0  0  0999 V2000
   32.1339   -3.4472    3.0768 N   0  0  0  0  0  0  0  0  0  0  0  0
   33.1604   -0.6368    4.6913 O   0  0  0  0  0  0  0  0  0  0  0  0
   32.6831   -3.5848    4.4480 C   0  0  0  0  0  0  0  0  0  0  0  0
   35.1860   -1.1046    3.5733 O   0  0  0  0  0  0  0  0  0  0  0  0
   31.6562   -4.3168    5.3058 C   0  0  0  0  0  0  0  0  0  0  0  0
   34.1980    1.1361    3.3787 O   0  0  0  0  0  0  0  0  0  0  0  0
   31.4699   -5.6778    4.7937 N   0  0  0  0  0  0  0  0  0  0  0  0
   32.3030   -5.8315    3.5985 C   0  0  0  0  0  0  0  0  0  0  0  0
   31.8185   -4.8044    2.5894 C   0  0  0  0  0  0  0  0  0  0  0  0
   33.0082   -2.7011    2.0868 C   0  0  0  0  0  0  0  0  0  0  0  0
   33.0338   -1.1551    2.2097 C   0  0  0  0  0  0  0  0  0  0  0  0
   33.9046   -0.4545    3.4802 S   0  0  0  0  0  0  0  0  0  0  0  0
  1  3  1  0  0  0  0
  1  9  1  0  0  0  0
  1 10  1  0  0  0  0
  2 12  1  0  0  0  0
  3  5  1  0  0  0  0
  4 12  2  0  0  0  0
  5  7  1  0  0  0  0
  6 12  2  0  0  0  0
  7  8  1  0  0  0  0
  8  9  1  0  0  0  0
 10 11  1  0  0  0  0
 11 12  1  0  0  0  0
M  END
>  <CHROM.1>
-76.92890486,74.83263309,-74.70211001,33.01607964,-2.42506781,3.59968771
-3.04722774,1.15540524,1.35762998

>  <Name>
ligand

>  <RI>
0

>  <Rbt.Current_Directory>
/home/itssahil/PROJECTS/Mol_Feturizer/New_Systems/rnas/4E8N

>  <Rbt.Executable>
rbdock ($Id: //depot/dev/client3/rdock/2013.1/src/exe/rbdock.cxx#4 $)

>  <Rbt.Library>
libRbt.so (2013.1, Build901 2013/11/27)

>  <Rbt.Parameter_File>
/export/apps/rDock/src/rDock_2013.1_src/data/scripts/dock_solv.prm

>  <Rbt.Receptor>
prm/blind_docking_100.prm

>  <SCORE>
-13.3496

>  <SCORE.INTER>
-9.56767

>  <SCORE.INTER.CONST>
1

>  <SCORE.INTER.POLAR>
0

>  <SCORE.INTER.ROT>
3

>  <SCORE.INTER.SOLV>
5.46859

>  <SCORE.INTER.VDW>
-13.8013

>  <SCORE.INTER.norm>
-0.797306

>  <SCORE.INTRA>
-3.78198

>  <SCORE.INTRA.DIHEDRAL>
-3.22129

>  <SCORE.INTRA.DIHEDRAL.0>
5.0186

>  <SCORE.INTRA.POLAR>
0

>  <SCORE.INTRA.POLAR.0>
0

>  <SCORE.INTRA.REPUL>
0

>  <SCORE.INTRA.REPUL.0>
0

>  <SCORE.INTRA.SOLV>
0.14362

>  <SCORE.INTRA.SOLV.lig_0>
-16.1608

>  <SCORE.INTRA.VDW>
-2.24315

>  <SCORE.INTRA.VDW.0>
1.14169

>  <SCORE.INTRA.norm>
-0.315165

>  <SCORE.RESTR>
0

>  <SCORE.RESTR.CAVITY>
0

>  <SCORE.RESTR.norm>
0

>  <SCORE.SYSTEM>
0

>  <SCORE.SYSTEM.CONST>
0

>  <SCORE.SYSTEM.DIHEDRAL>
0

>  <SCORE.SYSTEM.SOLV>
0

>  <SCORE.SYSTEM.norm>
0

>  <SCORE.heavy>
12

>  <SCORE.norm>
-1.11247

>  <RMSD>
18.650

$$$$
ligand
 OpenBabel11021811493D
libRbt.so/2013.1/901 2013/11/27
 12 12  0  0  0  0  0  0  0  0999 V2000
   48.0932  -11.5631    3.1559 N   0  0  0  0  0  0  0  0  0  0  0  0
   44.7144  -12.3966    5.8605 O   0  0  0  0  0  0  0  0  0  0  0  0
   49.2145  -12.5272    3.2743 C   0  0  0  0  0  0  0  0  0  0  0  0
   44.2069  -14.3778    4.6819 O   0  0  0  0  0  0  0  0  0  0  0  0
   50.2835  -12.1487    2.2544 C   0  0  0  0  0  0  0  0  0  0  0  0
   45.6455  -14.4993    6.6695 O   0  0  0  0  0  0  0  0  0  0  0  0
   50.8319  -10.8299    2.5849 N   0  0  0  0  0  0  0  0  0  0  0  0
   50.1129  -10.3190    3.7546 C   0  0  0  0  0  0  0  0  0  0  0  0
   48.6500  -10.2113    3.3594 C   0  0  0  0  0  0  0  0  0  0  0  0
   46.9101  -11.8100    4.0727 C   0  0  0  0  0  0  0  0  0  0  0  0
   46.4699  -13.2858    4.2571 C   0  0  0  0  0  0  0  0  0  0  0  0
   45.2361  -13.6346    5.3614 S   0  0  0  0  0  0  0  0  0  0  0  0
  1  3  1  0  0  0  0
  1  9  1  0  0  0  0
  1 10  1  0  0  0  0
  2 12  1  0  0  0  0
  3  5  1  0  0  0  0
  4 12  2  0  0  0  0
  5  7  1  0  0  0  0
  6 12  2  0  0  0  0
  7  8  1  0  0  0  0
  8  9  1  0  0  0  0
 10 11  1  0  0  0  0
 11 12  1  0  0  0  0
M  END
>  <CHROM.1>
-40.89353394,175.23395857,5.58646192,47.23271110,-12.47056025,4.27530293
0.39564723,0.52834872,0.10893057

>  <Name>
ligand

>  <RI>
0

>  <Rbt.Current_Directory>
/home/itssahil/PROJECTS/Mol_Feturizer/New_Systems/rnas/4E8N

>  <Rbt.Executable>
rbdock ($Id: //depot/dev/client3/rdock/2013.1/src/exe/rbdock.cxx#4 $)

>  <Rbt.Library>
libRbt.so (2013.1, Build901 2013/11/27)

>  <Rbt.Parameter_File>
/export/apps/rDock/src/rDock_2013.1_src/data/scripts/dock_solv.prm

>  <Rbt.Receptor>
prm/blind_docking_100.prm

>  <SCORE>
5.19023

>  <SCORE.INTER>
6.32897

>  <SCORE.INTER.CONST>
1

>  <SCORE.INTER.POLAR>
0

>  <SCORE.INTER.ROT>
3

>  <SCORE.INTER.SOLV>
14.7622

>  <SCORE.INTER.VDW>
-6.30142

>  <SCORE.INTER.norm>
0.527414

>  <SCORE.INTRA>
-1.18399

>  <SCORE.INTRA.DIHEDRAL>
-0.936598

>  <SCORE.INTRA.DIHEDRAL.0>
5.0186

>  <SCORE.INTRA.POLAR>
0

>  <SCORE.INTRA.POLAR.0>
0

>  <SCORE.INTRA.REPUL>
0

>  <SCORE.INTRA.REPUL.0>
0

>  <SCORE.INTRA.SOLV>
-0.173788

>  <SCORE.INTRA.SOLV.lig_0>
-16.1608

>  <SCORE.INTRA.VDW>
-0.628794

>  <SCORE.INTRA.VDW.0>
1.14169

>  <SCORE.INTRA.norm>
-0.0986656

>  <SCORE.RESTR>
0.045248

>  <SCORE.RESTR.CAVITY>
0.045248

>  <SCORE.RESTR.norm>
0.00377067

>  <SCORE.SYSTEM>
0

>  <SCORE.SYSTEM.CONST>
0

>  <SCORE.SYSTEM.DIHEDRAL>
0

>  <SCORE.SYSTEM.SOLV>
0

>  <SCORE.SYSTEM.norm>
0

>  <SCORE.heavy>
12

>  <SCORE.norm>
0.432519

>  <RMSD>
19.190

$$$$
ligand
 OpenBabel11021811493D
libRbt.so/2013.1/901 2013/11/27
 12 12  0  0  0  0  0  0  0  0999 V2000
   22.6905   -1.8130    5.7306 N   0  0  0  0  0  0  0  0  0  0  0  0
   24.3499   -1.4073   10.0475 O   0  0  0  0  0  0  0  0  0  0  0  0
   21.3488   -1.5009    5.1798 C   0  0  0  0  0  0  0  0  0  0  0  0
   26.3095   -0.4533    9.1411 O   0  0  0  0  0  0  0  0  0  0  0  0
   21.2477   -2.1114    3.7858 C   0  0  0  0  0  0  0  0  0  0  0  0
   24.2981    0.9367    9.3797 O   0  0  0  0  0  0  0  0  0  0  0  0
   21.3281   -3.5719    3.8828 N   0  0  0  0  0  0  0  0  0  0  0  0
   21.5335   -3.9232    5.2902 C   0  0  0  0  0  0  0  0  0  0  0  0
   22.8424   -3.2812    5.7174 C   0  0  0  0  0  0  0  0  0  0  0  0
   22.9884   -1.2456    7.1056 C   0  0  0  0  0  0  0  0  0  0  0  0
   24.4811   -1.1820    7.5225 C   0  0  0  0  0  0  0  0  0  0  0  0
   24.8759   -0.5380    9.0367 S   0  0  0  0  0  0  0  0  0  0  0  0
  1  3  1  0  0  0  0
  1  9  1  0  0  0  0
  1 10  1  0  0  0  0
  2 12  1  0  0  0  0
  3  5  1  0  0  0  0
  4 12  2  0  0  0  0
  5  7  1  0  0  0  0
  6 12  2  0  0  0  0
  7  8  1  0  0  0  0
  8  9  1  0  0  0  0
 10 11  1  0  0  0  0
 11 12  1  0  0  0  0
M  END
>  <CHROM.1>
-162.22272414,179.13512411,65.91127352,23.40469784,-1.52538384,7.11011602
2.57957132,0.87375876,-2.94408712

>  <Name>
ligand

>  <RI>
0

>  <Rbt.Current_Directory>
/home/itssahil/PROJECTS/Mol_Feturizer/New_Systems/rnas/4E8N

>  <Rbt.Executable>
rbdock ($Id: //depot/dev/client3/rdock/2013.1/src/exe/rbdock.cxx#4 $)

>  <Rbt.Library>
libRbt.so (2013.1, Build901 2013/11/27)

>  <Rbt.Parameter_File>
/export/apps/rDock/src/rDock_2013.1_src/data/scripts/dock_solv.prm

>  <Rbt.Receptor>
prm/blind_docking_40.prm

>  <SCORE>
-13.3152

>  <SCORE.INTER>
-9.41639

>  <SCORE.INTER.CONST>
1

>  <SCORE.INTER.POLAR>
0

>  <SCORE.INTER.ROT>
3

>  <SCORE.INTER.SOLV>
7.95123

>  <SCORE.INTER.VDW>
-14.528

>  <SCORE.INTER.norm>
-0.784699

>  <SCORE.INTRA>
-3.89876

>  <SCORE.INTRA.DIHEDRAL>
-4.5069

>  <SCORE.INTRA.DIHEDRAL.0>
5.0186

>  <SCORE.INTRA.POLAR>
0

>  <SCORE.INTRA.POLAR.0>
0

>  <SCORE.INTRA.REPUL>
0

>  <SCORE.INTRA.REPUL.0>
0

>  <SCORE.INTRA.SOLV>
-0.0938698

>  <SCORE.INTRA.SOLV.lig_0>
-16.1608

>  <SCORE.INTRA.VDW>
-1.59838

>  <SCORE.INTRA.VDW.0>
1.14169

>  <SCORE.INTRA.norm>
-0.324897

>  <SCORE.RESTR>
0

>  <SCORE.RESTR.CAVITY>
0

>  <SCORE.RESTR.norm>
0

>  <SCORE.SYSTEM>
0

>  <SCORE.SYSTEM.CONST>
0

>  <SCORE.SYSTEM.DIHEDRAL>
0

>  <SCORE.SYSTEM.SOLV>
0

>  <SCORE.SYSTEM.norm>
0

>  <SCORE.heavy>
12

>  <SCORE.norm>
-1.1096

>  <RMSD>
20.736

$$$$
ligand
 OpenBabel11021811493D
libRbt.so/2013.1/901 2013/11/27
 12 12  0  0  0  0  0  0  0  0999 V2000
   22.5313   -1.7439    5.5559 N   0  0  0  0  0  0  0  0  0  0  0  0
   24.2167   -1.2988    9.8698 O   0  0  0  0  0  0  0  0  0  0  0  0
   21.1598   -1.5327    5.0315 C   0  0  0  0  0  0  0  0  0  0  0  0
   26.0768   -0.1730    8.9509 O   0  0  0  0  0  0  0  0  0  0  0  0
   21.0886   -2.1147    3.6236 C   0  0  0  0  0  0  0  0  0  0  0  0
   23.9612    1.0420    9.2390 O   0  0  0  0  0  0  0  0  0  0  0  0
   21.2931   -3.5652    3.6813 N   0  0  0  0  0  0  0  0  0  0  0  0
   21.5491   -3.9327    5.0762 C   0  0  0  0  0  0  0  0  0  0  0  0
   22.8059   -3.1933    5.5024 C   0  0  0  0  0  0  0  0  0  0  0  0
   22.8019   -1.1878    6.9411 C   0  0  0  0  0  0  0  0  0  0  0  0
   24.2904   -1.0277    7.3470 C   0  0  0  0  0  0  0  0  0  0  0  0
   24.6537   -0.3747    8.8653 S   0  0  0  0  0  0  0  0  0  0  0  0
  1  3  1  0  0  0  0
  1  9  1  0  0  0  0
  1 10  1  0  0  0  0
  2 12  1  0  0  0  0
  3  5  1  0  0  0  0
  4 12  2  0  0  0  0
  5  7  1  0  0  0  0
  6 12  2  0  0  0  0
  7  8  1  0  0  0  0
  8  9  1  0  0  0  0
 10 11  1  0  0  0  0
 11 12  1  0  0  0  0
M  END
>  <CHROM.1>
-163.06269400,178.43894324,66.87236995,23.24056360,-1.43286908,6.93299725
2.46117845,0.83848118,-2.82881809

>  <Name>
ligand

>  <RI>
0

>  <Rbt.Current_Directory>
/home/itssahil/PROJECTS/Mol_Feturizer/New_Systems/rnas/4E8N

>  <Rbt.Executable>
rbdock ($Id: //depot/dev/client3/rdock/2013.1/src/exe/rbdock.cxx#4 $)

>  <Rbt.Library>
libRbt.so (2013.1, Build901 2013/11/27)

>  <Rbt.Parameter_File>
/export/apps/rDock/src/rDock_2013.1_src/data/scripts/dock_solv.prm

>  <Rbt.Receptor>
prm/blind_docking_40.prm

>  <SCORE>
-13.3658

>  <SCORE.INTER>
-9.48141

>  <SCORE.INTER.CONST>
1

>  <SCORE.INTER.POLAR>
0

>  <SCORE.INTER.ROT>
3

>  <SCORE.INTER.SOLV>
7.98248

>  <SCORE.INTER.VDW>
-14.5818

>  <SCORE.INTER.norm>
-0.790118

>  <SCORE.INTRA>
-3.88441

>  <SCORE.INTRA.DIHEDRAL>
-4.5086

>  <SCORE.INTRA.DIHEDRAL.0>
5.0186

>  <SCORE.INTRA.POLAR>
0

>  <SCORE.INTRA.POLAR.0>
0

>  <SCORE.INTRA.REPUL>
0

>  <SCORE.INTRA.REPUL.0>
0

>  <SCORE.INTRA.SOLV>
-0.0916509

>  <SCORE.INTRA.SOLV.lig_0>
-16.1608

>  <SCORE.INTRA.VDW>
-1.58429

>  <SCORE.INTRA.VDW.0>
1.14169

>  <SCORE.INTRA.norm>
-0.323701

>  <SCORE.RESTR>
0

>  <SCORE.RESTR.CAVITY>
0

>  <SCORE.RESTR.norm>
0

>  <SCORE.SYSTEM>
0

>  <SCORE.SYSTEM.CONST>
0

>  <SCORE.SYSTEM.DIHEDRAL>
0

>  <SCORE.SYSTEM.SOLV>
0

>  <SCORE.SYSTEM.norm>
0

>  <SCORE.heavy>
12

>  <SCORE.norm>
-1.11382

>  <RMSD>
20.855

$$$$
ligand
 OpenBabel11021811493D
libRbt.so/2013.1/901 2013/11/27
 12 12  0  0  0  0  0  0  0  0999 V2000
   23.2949   -0.5166    7.2924 N   0  0  0  0  0  0  0  0  0  0  0  0
   19.6125   -1.9648    3.9996 O   0  0  0  0  0  0  0  0  0  0  0  0
   24.7318   -0.5303    7.6613 C   0  0  0  0  0  0  0  0  0  0  0  0
   21.7696   -1.6010    3.1128 O   0  0  0  0  0  0  0  0  0  0  0  0
   24.9533    0.4943    8.7691 C   0  0  0  0  0  0  0  0  0  0  0  0
   21.2691   -3.7407    4.2109 O   0  0  0  0  0  0  0  0  0  0  0  0
   24.2123    0.0892    9.9674 N   0  0  0  0  0  0  0  0  0  0  0  0
   23.4740   -1.1363    9.6524 C   0  0  0  0  0  0  0  0  0  0  0  0
   22.5219   -0.7971    8.5182 C   0  0  0  0  0  0  0  0  0  0  0  0
   22.8928   -1.4515    6.1675 C   0  0  0  0  0  0  0  0  0  0  0  0
   21.4480   -1.3024    5.6230 C   0  0  0  0  0  0  0  0  0  0  0  0
   21.0183   -2.1397    4.2167 S   0  0  0  0  0  0  0  0  0  0  0  0
  1  3  1  0  0  0  0
  1  9  1  0  0  0  0
  1 10  1  0  0  0  0
  2 12  1  0  0  0  0
  3  5  1  0  0  0  0
  4 12  2  0  0  0  0
  5  7  1  0  0  0  0
  6 12  2  0  0  0  0
  7  8  1  0  0  0  0
  8  9  1  0  0  0  0
 10 11  1  0  0  0  0
 11 12  1  0  0  0  0
M  END
>  <CHROM.1>
-171.14195225,170.49258741,173.68367126,22.39843457,-1.34077001,6.28837500
-0.95772444,-0.47847742,-1.64091198

>  <Name>
ligand

>  <RI>
0

>  <Rbt.Current_Directory>
/home/itssahil/PROJECTS/Mol_Feturizer/New_Systems/rnas/4E8N

>  <Rbt.Executable>
rbdock ($Id: //depot/dev/client3/rdock/2013.1/src/exe/rbdock.cxx#4 $)

>  <Rbt.Library>
libRbt.so (2013.1, Build901 2013/11/27)

>  <Rbt.Parameter_File>
/export/apps/rDock/src/rDock_2013.1_src/data/scripts/dock_solv.prm

>  <Rbt.Receptor>
prm/blind_docking_40.prm

>  <SCORE>
-11.9242

>  <SCORE.INTER>
-8.31534

>  <SCORE.INTER.CONST>
1

>  <SCORE.INTER.POLAR>
0

>  <SCORE.INTER.ROT>
3

>  <SCORE.INTER.SOLV>
6.4545

>  <SCORE.INTER.VDW>
-13.2951

>  <SCORE.INTER.norm>
-0.692945

>  <SCORE.INTRA>
-3.60889

>  <SCORE.INTRA.DIHEDRAL>
-4.5008

>  <SCORE.INTRA.DIHEDRAL.0>
5.0186

>  <SCORE.INTRA.POLAR>
0

>  <SCORE.INTRA.POLAR.0>
0

>  <SCORE.INTRA.REPUL>
0

>  <SCORE.INTRA.REPUL.0>
0

>  <SCORE.INTRA.SOLV>
0.0745281

>  <SCORE.INTRA.SOLV.lig_0>
-16.1608

>  <SCORE.INTRA.VDW>
-1.39576

>  <SCORE.INTRA.VDW.0>
1.14169

>  <SCORE.INTRA.norm>
-0.300741

>  <SCORE.RESTR>
0

>  <SCORE.RESTR.CAVITY>
0

>  <SCORE.RESTR.norm>
0

>  <SCORE.SYSTEM>
0

>  <SCORE.SYSTEM.CONST>
0

>  <SCORE.SYSTEM.DIHEDRAL>
0

>  <SCORE.SYSTEM.SOLV>
0

>  <SCORE.SYSTEM.norm>
0

>  <SCORE.heavy>
12

>  <SCORE.norm>
-0.993686

>  <RMSD>
21.889

$$$$
ligand
 OpenBabel11021811493D
libRbt.so/2013.1/901 2013/11/27
 12 12  0  0  0  0  0  0  0  0999 V2000
   30.2386   -4.2626   23.7717 N   0  0  0  0  0  0  0  0  0  0  0  0
   34.9153   -3.8896   24.1054 O   0  0  0  0  0  0  0  0  0  0  0  0
   29.3143   -4.4069   24.9232 C   0  0  0  0  0  0  0  0  0  0  0  0
   34.7170   -2.0273   22.6687 O   0  0  0  0  0  0  0  0  0  0  0  0
   27.8839   -4.4087   24.3939 C   0  0  0  0  0  0  0  0  0  0  0  0
   34.0229   -1.8115   25.0152 O   0  0  0  0  0  0  0  0  0  0  0  0
   27.6766   -5.5851   23.5441 N   0  0  0  0  0  0  0  0  0  0  0  0
   28.9440   -6.3154   23.4622 C   0  0  0  0  0  0  0  0  0  0  0  0
   29.9567   -5.3706   22.8379 C   0  0  0  0  0  0  0  0  0  0  0  0
   31.7151   -4.1993   24.1137 C   0  0  0  0  0  0  0  0  0  0  0  0
   32.6189   -3.3930   23.1446 C   0  0  0  0  0  0  0  0  0  0  0  0
   34.0888   -2.7839   23.7204 S   0  0  0  0  0  0  0  0  0  0  0  0
  1  3  1  0  0  0  0
  1  9  1  0  0  0  0
  1 10  1  0  0  0  0
  2 12  1  0  0  0  0
  3  5  1  0  0  0  0
  4 12  2  0  0  0  0
  5  7  1  0  0  0  0
  6 12  2  0  0  0  0
  7  8  1  0  0  0  0
  8  9  1  0  0  0  0
 10 11  1  0  0  0  0
 11 12  1  0  0  0  0
M  END
>  <CHROM.1>
-150.92298980,157.05480458,62.52428351,31.69814013,-3.87499466,23.80394716
2.84246392,-0.30338973,-2.39622037

>  <Name>
ligand

>  <RI>
0

>  <Rbt.Current_Directory>
/home/itssahil/PROJECTS/Mol_Feturizer/New_Systems/rnas/4E8N

>  <Rbt.Executable>
rbdock ($Id: //depot/dev/client3/rdock/2013.1/src/exe/rbdock.cxx#4 $)

>  <Rbt.Library>
libRbt.so (2013.1, Build901 2013/11/27)

>  <Rbt.Parameter_File>
/export/apps/rDock/src/rDock_2013.1_src/data/scripts/dock_solv.prm

>  <Rbt.Receptor>
prm/blind_docking_80.prm

>  <SCORE>
-14.6978

>  <SCORE.INTER>
-11.8367

>  <SCORE.INTER.CONST>
1

>  <SCORE.INTER.POLAR>
0

>  <SCORE.INTER.ROT>
3

>  <SCORE.INTER.SOLV>
8.37939

>  <SCORE.INTER.VDW>
-16.2843

>  <SCORE.INTER.norm>
-0.986392

>  <SCORE.INTRA>
-2.86107

>  <SCORE.INTRA.DIHEDRAL>
-2.18286

>  <SCORE.INTRA.DIHEDRAL.0>
5.0186

>  <SCORE.INTRA.POLAR>
0

>  <SCORE.INTRA.POLAR.0>
0

>  <SCORE.INTRA.REPUL>
0

>  <SCORE.INTRA.REPUL.0>
0

>  <SCORE.INTRA.SOLV>
-0.098625

>  <SCORE.INTRA.SOLV.lig_0>
-16.1608

>  <SCORE.INTRA.VDW>
-1.72033

>  <SCORE.INTRA.VDW.0>
1.14169

>  <SCORE.INTRA.norm>
-0.238422

>  <SCORE.RESTR>
0

>  <SCORE.RESTR.CAVITY>
0

>  <SCORE.RESTR.norm>
0

>  <SCORE.SYSTEM>
0

>  <SCORE.SYSTEM.CONST>
0

>  <SCORE.SYSTEM.DIHEDRAL>
0

>  <SCORE.SYSTEM.SOLV>
0

>  <SCORE.SYSTEM.norm>
0

>  <SCORE.heavy>
12

>  <SCORE.norm>
-1.22481

>  <RMSD>
24.981

$$$$
ligand
 OpenBabel11021811493D
libRbt.so/2013.1/901 2013/11/27
 12 12  0  0  0  0  0  0  0  0999 V2000
   30.9878   -4.3977   23.1977 N   0  0  0  0  0  0  0  0  0  0  0  0
   32.5437   -1.9707   24.4517 O   0  0  0  0  0  0  0  0  0  0  0  0
   30.6390   -4.4279   24.6393 C   0  0  0  0  0  0  0  0  0  0  0  0
   34.6487   -3.0205   24.6479 O   0  0  0  0  0  0  0  0  0  0  0  0
   29.1559   -4.1019   24.7818 C   0  0  0  0  0  0  0  0  0  0  0  0
   34.4521   -0.9663   23.3151 O   0  0  0  0  0  0  0  0  0  0  0  0
   28.3590   -5.1510   24.1390 N   0  0  0  0  0  0  0  0  0  0  0  0
   29.2810   -6.1173   23.5370 C   0  0  0  0  0  0  0  0  0  0  0  0
   30.1040   -5.3591   22.5095 C   0  0  0  0  0  0  0  0  0  0  0  0
   32.4443   -4.6603   22.8647 C   0  0  0  0  0  0  0  0  0  0  0  0
   33.3115   -3.4224   22.5161 C   0  0  0  0  0  0  0  0  0  0  0  0
   33.7372   -2.3522   23.7559 S   0  0  0  0  0  0  0  0  0  0  0  0
  1  3  1  0  0  0  0
  1  9  1  0  0  0  0
  1 10  1  0  0  0  0
  2 12  1  0  0  0  0
  3  5  1  0  0  0  0
  4 12  2  0  0  0  0
  5  7  1  0  0  0  0
  6 12  2  0  0  0  0
  7  8  1  0  0  0  0
  8  9  1  0  0  0  0
 10 11  1  0  0  0  0
 11 12  1  0  0  0  0
M  END
>  <CHROM.1>
-102.26419662,71.85904651,-51.91409441,31.90501748,-3.63346938,23.71550278
-2.73184360,0.42201509,0.74649701

>  <Name>
ligand

>  <RI>
0

>  <Rbt.Current_Directory>
/home/itssahil/PROJECTS/Mol_Feturizer/New_Systems/rnas/4E8N

>  <Rbt.Executable>
rbdock ($Id: //depot/dev/client3/rdock/2013.1/src/exe/rbdock.cxx#4 $)

>  <Rbt.Library>
libRbt.so (2013.1, Build901 2013/11/27)

>  <Rbt.Parameter_File>
/export/apps/rDock/src/rDock_2013.1_src/data/scripts/dock_solv.prm

>  <Rbt.Receptor>
prm/blind_docking_60.prm

>  <SCORE>
-15.8009

>  <SCORE.INTER>
-12.2302

>  <SCORE.INTER.CONST>
1

>  <SCORE.INTER.POLAR>
0

>  <SCORE.INTER.ROT>
3

>  <SCORE.INTER.SOLV>
9.05744

>  <SCORE.INTER.VDW>
-16.7726

>  <SCORE.INTER.norm>
-1.01918

>  <SCORE.INTRA>
-3.57077

>  <SCORE.INTRA.DIHEDRAL>
-2.3478

>  <SCORE.INTRA.DIHEDRAL.0>
5.0186

>  <SCORE.INTRA.POLAR>
0

>  <SCORE.INTRA.POLAR.0>
0

>  <SCORE.INTRA.REPUL>
0

>  <SCORE.INTRA.REPUL.0>
0

>  <SCORE.INTRA.SOLV>
-0.0268233

>  <SCORE.INTRA.SOLV.lig_0>
-16.1608

>  <SCORE.INTRA.VDW>
-2.38346

>  <SCORE.INTRA.VDW.0>
1.14169

>  <SCORE.INTRA.norm>
-0.297564

>  <SCORE.RESTR>
0

>  <SCORE.RESTR.CAVITY>
0

>  <SCORE.RESTR.norm>
0

>  <SCORE.SYSTEM>
0

>  <SCORE.SYSTEM.CONST>
0

>  <SCORE.SYSTEM.DIHEDRAL>
0

>  <SCORE.SYSTEM.SOLV>
0

>  <SCORE.SYSTEM.norm>
0

>  <SCORE.heavy>
12

>  <SCORE.norm>
-1.31674

>  <RMSD>
24.998

$$$$
ligand
 OpenBabel11021811493D
libRbt.so/2013.1/901 2013/11/27
 12 12  0  0  0  0  0  0  0  0999 V2000
   30.9861   -4.3855   23.1992 N   0  0  0  0  0  0  0  0  0  0  0  0
   32.5480   -1.9572   24.4344 O   0  0  0  0  0  0  0  0  0  0  0  0
   30.6558   -4.4297   24.6448 C   0  0  0  0  0  0  0  0  0  0  0  0
   34.6525   -3.0108   24.6155 O   0  0  0  0  0  0  0  0  0  0  0  0
   29.1752   -4.1030   24.8097 C   0  0  0  0  0  0  0  0  0  0  0  0
   34.4507   -0.9543   23.2870 O   0  0  0  0  0  0  0  0  0  0  0  0
   28.3684   -5.1445   24.1665 N   0  0  0  0  0  0  0  0  0  0  0  0
   29.2811   -6.1060   23.5431 C   0  0  0  0  0  0  0  0  0  0  0  0
   30.0920   -5.3387   22.5129 C   0  0  0  0  0  0  0  0  0  0  0  0
   32.4378   -4.6468   22.8450 C   0  0  0  0  0  0  0  0  0  0  0  0
   33.3009   -3.4073   22.4918 C   0  0  0  0  0  0  0  0  0  0  0  0
   33.7363   -2.3397   23.7303 S   0  0  0  0  0  0  0  0  0  0  0  0
  1  3  1  0  0  0  0
  1  9  1  0  0  0  0
  1 10  1  0  0  0  0
  2 12  1  0  0  0  0
  3  5  1  0  0  0  0
  4 12  2  0  0  0  0
  5  7  1  0  0  0  0
  6 12  2  0  0  0  0
  7  8  1  0  0  0  0
  8  9  1  0  0  0  0
 10 11  1  0  0  0  0
 11 12  1  0  0  0  0
M  END
>  <CHROM.1>
-102.52001154,71.50472223,-52.11413877,31.90648381,-3.62291371,23.70680313
-2.74122419,0.43285789,0.75721269

>  <Name>
ligand

>  <RI>
0

>  <Rbt.Current_Directory>
/home/itssahil/PROJECTS/Mol_Feturizer/New_Systems/rnas/4E8N

>  <Rbt.Executable>
rbdock ($Id: //depot/dev/client3/rdock/2013.1/src/exe/rbdock.cxx#4 $)

>  <Rbt.Library>
libRbt.so (2013.1, Build901 2013/11/27)

>  <Rbt.Parameter_File>
/export/apps/rDock/src/rDock_2013.1_src/data/scripts/dock_solv.prm

>  <Rbt.Receptor>
prm/blind_docking_60.prm

>  <SCORE>
-15.8253

>  <SCORE.INTER>
-12.2376

>  <SCORE.INTER.CONST>
1

>  <SCORE.INTER.POLAR>
0

>  <SCORE.INTER.ROT>
3

>  <SCORE.INTER.SOLV>
9.04703

>  <SCORE.INTER.VDW>
-16.7741

>  <SCORE.INTER.norm>
-1.0198

>  <SCORE.INTRA>
-3.58763

>  <SCORE.INTRA.DIHEDRAL>
-2.37307

>  <SCORE.INTRA.DIHEDRAL.0>
5.0186

>  <SCORE.INTRA.POLAR>
0

>  <SCORE.INTRA.POLAR.0>
0

>  <SCORE.INTRA.REPUL>
0

>  <SCORE.INTRA.REPUL.0>
0

>  <SCORE.INTRA.SOLV>
-0.0226633

>  <SCORE.INTRA.SOLV.lig_0>
-16.1608

>  <SCORE.INTRA.VDW>
-2.38976

>  <SCORE.INTRA.VDW.0>
1.14169

>  <SCORE.INTRA.norm>
-0.298969

>  <SCORE.RESTR>
0

>  <SCORE.RESTR.CAVITY>
0

>  <SCORE.RESTR.norm>
0

>  <SCORE.SYSTEM>
0

>  <SCORE.SYSTEM.CONST>
0

>  <SCORE.SYSTEM.DIHEDRAL>
0

>  <SCORE.SYSTEM.SOLV>
0

>  <SCORE.SYSTEM.norm>
0

>  <SCORE.heavy>
12

>  <SCORE.norm>
-1.31877

>  <RMSD>
25.002

$$$$
ligand
 OpenBabel11021811493D
libRbt.so/2013.1/901 2013/11/27
 12 12  0  0  0  0  0  0  0  0999 V2000
   26.1140   -4.4899   24.4947 N   0  0  0  0  0  0  0  0  0  0  0  0
   29.8662   -6.9820   23.4389 O   0  0  0  0  0  0  0  0  0  0  0  0
   25.5517   -5.2294   25.6513 C   0  0  0  0  0  0  0  0  0  0  0  0
   29.7257   -5.3029   21.7858 O   0  0  0  0  0  0  0  0  0  0  0  0
   24.5167   -4.3403   26.3329 C   0  0  0  0  0  0  0  0  0  0  0  0
   31.4276   -5.1131   23.5472 O   0  0  0  0  0  0  0  0  0  0  0  0
   23.4009   -4.0935   25.4147 N   0  0  0  0  0  0  0  0  0  0  0  0
   23.7071   -4.7494   24.1410 C   0  0  0  0  0  0  0  0  0  0  0  0
   24.9862   -4.1187   23.6176 C   0  0  0  0  0  0  0  0  0  0  0  0
   27.1984   -5.2090   23.7148 C   0  0  0  0  0  0  0  0  0  0  0  0
   28.6643   -4.8326   24.0543 C   0  0  0  0  0  0  0  0  0  0  0  0
   29.9155   -5.5719   23.1875 S   0  0  0  0  0  0  0  0  0  0  0  0
  1  3  1  0  0  0  0
  1  9  1  0  0  0  0
  1 10  1  0  0  0  0
  2 12  1  0  0  0  0
  3  5  1  0  0  0  0
  4 12  2  0  0  0  0
  5  7  1  0  0  0  0
  6 12  2  0  0  0  0
  7  8  1  0  0  0  0
  8  9  1  0  0  0  0
 10 11  1  0  0  0  0
 11 12  1  0  0  0  0
M  END
>  <CHROM.1>
-98.10297403,-178.38084159,-62.51681002,27.45518086,-5.08079065,23.99118840
-2.84044343,0.22341769,-1.48957932

>  <Name>
ligand

>  <RI>
0

>  <Rbt.Current_Directory>
/home/itssahil/PROJECTS/Mol_Feturizer/New_Systems/rnas/4E8N

>  <Rbt.Executable>
rbdock ($Id: //depot/dev/client3/rdock/2013.1/src/exe/rbdock.cxx#4 $)

>  <Rbt.Library>
libRbt.so (2013.1, Build901 2013/11/27)

>  <Rbt.Parameter_File>
/export/apps/rDock/src/rDock_2013.1_src/data/scripts/dock_solv.prm

>  <Rbt.Receptor>
prm/blind_docking_60.prm

>  <SCORE>
-13.9714

>  <SCORE.INTER>
-10.504

>  <SCORE.INTER.CONST>
1

>  <SCORE.INTER.POLAR>
0

>  <SCORE.INTER.ROT>
3

>  <SCORE.INTER.SOLV>
6.92579

>  <SCORE.INTER.VDW>
-14.9113

>  <SCORE.INTER.norm>
-0.875333

>  <SCORE.INTRA>
-3.46742

>  <SCORE.INTRA.DIHEDRAL>
-3.22303

>  <SCORE.INTRA.DIHEDRAL.0>
5.0186

>  <SCORE.INTRA.POLAR>
0

>  <SCORE.INTRA.POLAR.0>
0

>  <SCORE.INTRA.REPUL>
0

>  <SCORE.INTRA.REPUL.0>
0

>  <SCORE.INTRA.SOLV>
-0.109891

>  <SCORE.INTRA.SOLV.lig_0>
-16.1608

>  <SCORE.INTRA.VDW>
-1.80096

>  <SCORE.INTRA.VDW.0>
1.14169

>  <SCORE.INTRA.norm>
-0.288952

>  <SCORE.RESTR>
0

>  <SCORE.RESTR.CAVITY>
0

>  <SCORE.RESTR.norm>
0

>  <SCORE.SYSTEM>
0

>  <SCORE.SYSTEM.CONST>
0

>  <SCORE.SYSTEM.DIHEDRAL>
0

>  <SCORE.SYSTEM.SOLV>
0

>  <SCORE.SYSTEM.norm>
0

>  <SCORE.heavy>
12

>  <SCORE.norm>
-1.16428

>  <RMSD>
25.018

$$$$
ligand
 OpenBabel11021811493D
libRbt.so/2013.1/901 2013/11/27
 12 12  0  0  0  0  0  0  0  0999 V2000
   29.1785   -4.9921   24.4082 N   0  0  0  0  0  0  0  0  0  0  0  0
   33.8717   -4.0686   23.9661 O   0  0  0  0  0  0  0  0  0  0  0  0
   28.1239   -4.2460   23.6787 C   0  0  0  0  0  0  0  0  0  0  0  0
   33.2042   -3.0684   21.9349 O   0  0  0  0  0  0  0  0  0  0  0  0
   26.8770   -5.1215   23.6085 C   0  0  0  0  0  0  0  0  0  0  0  0
   32.7343   -1.9141   24.0519 O   0  0  0  0  0  0  0  0  0  0  0  0
   26.3629   -5.3524   24.9618 N   0  0  0  0  0  0  0  0  0  0  0  0
   27.2692   -4.6997   25.9098 C   0  0  0  0  0  0  0  0  0  0  0  0
   28.6320   -5.3473   25.7326 C   0  0  0  0  0  0  0  0  0  0  0  0
   30.5152   -4.2871   24.5403 C   0  0  0  0  0  0  0  0  0  0  0  0
   31.4357   -4.3032   23.2920 C   0  0  0  0  0  0  0  0  0  0  0  0
   32.8306   -3.3452   23.2976 S   0  0  0  0  0  0  0  0  0  0  0  0
  1  3  1  0  0  0  0
  1  9  1  0  0  0  0
  1 10  1  0  0  0  0
  2 12  1  0  0  0  0
  3  5  1  0  0  0  0
  4 12  2  0  0  0  0
  5  7  1  0  0  0  0
  6 12  2  0  0  0  0
  7  8  1  0  0  0  0
  8  9  1  0  0  0  0
 10 11  1  0  0  0  0
 11 12  1  0  0  0  0
M  END
>  <CHROM.1>
-78.26053196,171.02945987,83.77307852,30.44221691,-4.10841066,24.01384522
-2.83489639,-0.25395102,-1.38074707

>  <Name>
ligand

>  <RI>
0

>  <Rbt.Current_Directory>
/home/itssahil/PROJECTS/Mol_Feturizer/New_Systems/rnas/4E8N

>  <Rbt.Executable>
rbdock ($Id: //depot/dev/client3/rdock/2013.1/src/exe/rbdock.cxx#4 $)

>  <Rbt.Library>
libRbt.so (2013.1, Build901 2013/11/27)

>  <Rbt.Parameter_File>
/export/apps/rDock/src/rDock_2013.1_src/data/scripts/dock_solv.prm

>  <Rbt.Receptor>
prm/blind_docking_60.prm

>  <SCORE>
-14.9368

>  <SCORE.INTER>
-11.7131

>  <SCORE.INTER.CONST>
1

>  <SCORE.INTER.POLAR>
0

>  <SCORE.INTER.ROT>
3

>  <SCORE.INTER.SOLV>
8.63176

>  <SCORE.INTER.VDW>
-16.286

>  <SCORE.INTER.norm>
-0.976089

>  <SCORE.INTRA>
-3.22371

>  <SCORE.INTRA.DIHEDRAL>
-2.88825

>  <SCORE.INTRA.DIHEDRAL.0>
5.0186

>  <SCORE.INTRA.POLAR>
0

>  <SCORE.INTRA.POLAR.0>
0

>  <SCORE.INTRA.REPUL>
0

>  <SCORE.INTRA.REPUL.0>
0

>  <SCORE.INTRA.SOLV>
-0.0538537

>  <SCORE.INTRA.SOLV.lig_0>
-16.1608

>  <SCORE.INTRA.VDW>
-1.75266

>  <SCORE.INTRA.VDW.0>
1.14169

>  <SCORE.INTRA.norm>
-0.268642

>  <SCORE.RESTR>
0

>  <SCORE.RESTR.CAVITY>
0

>  <SCORE.RESTR.norm>
0

>  <SCORE.SYSTEM>
0

>  <SCORE.SYSTEM.CONST>
0

>  <SCORE.SYSTEM.DIHEDRAL>
0

>  <SCORE.SYSTEM.SOLV>
0

>  <SCORE.SYSTEM.norm>
0

>  <SCORE.heavy>
12

>  <SCORE.norm>
-1.24473

>  <RMSD>
25.149

$$$$
ligand
 OpenBabel11021811493D
libRbt.so/2013.1/901 2013/11/27
 12 12  0  0  0  0  0  0  0  0999 V2000
   30.0391   -4.3254   23.9954 N   0  0  0  0  0  0  0  0  0  0  0  0
   34.4189   -4.2390   23.5816 O   0  0  0  0  0  0  0  0  0  0  0  0
   29.4337   -4.5109   25.3370 C   0  0  0  0  0  0  0  0  0  0  0  0
   34.2445   -2.0718   22.6624 O   0  0  0  0  0  0  0  0  0  0  0  0
   27.9175   -4.4244   25.1962 C   0  0  0  0  0  0  0  0  0  0  0  0
   34.8112   -2.3248   25.0393 O   0  0  0  0  0  0  0  0  0  0  0  0
   27.4378   -5.5336   24.3663 N   0  0  0  0  0  0  0  0  0  0  0  0
   28.6015   -6.3036   23.9202 C   0  0  0  0  0  0  0  0  0  0  0  0
   29.4695   -5.3581   23.1076 C   0  0  0  0  0  0  0  0  0  0  0  0
   31.5552   -4.3398   23.9471 C   0  0  0  0  0  0  0  0  0  0  0  0
   32.2652   -2.9617   23.9982 C   0  0  0  0  0  0  0  0  0  0  0  0
   33.9446   -2.9041   23.7984 S   0  0  0  0  0  0  0  0  0  0  0  0
  1  3  1  0  0  0  0
  1  9  1  0  0  0  0
  1 10  1  0  0  0  0
  2 12  1  0  0  0  0
  3  5  1  0  0  0  0
  4 12  2  0  0  0  0
  5  7  1  0  0  0  0
  6 12  2  0  0  0  0
  7  8  1  0  0  0  0
  8  9  1  0  0  0  0
 10 11  1  0  0  0  0
 11 12  1  0  0  0  0
M  END
>  <CHROM.1>
-95.20180548,-174.20472266,1.04731459,31.54024867,-3.95712206,24.04298649
2.95994019,-0.36841188,-2.27060399

>  <Name>
ligand

>  <RI>
0

>  <Rbt.Current_Directory>
/home/itssahil/PROJECTS/Mol_Feturizer/New_Systems/rnas/4E8N

>  <Rbt.Executable>
rbdock ($Id: //depot/dev/client3/rdock/2013.1/src/exe/rbdock.cxx#4 $)

>  <Rbt.Library>
libRbt.so (2013.1, Build901 2013/11/27)

>  <Rbt.Parameter_File>
/export/apps/rDock/src/rDock_2013.1_src/data/scripts/dock_solv.prm

>  <Rbt.Receptor>
prm/blind_docking_80.prm

>  <SCORE>
-13.9845

>  <SCORE.INTER>
-12.519

>  <SCORE.INTER.CONST>
1

>  <SCORE.INTER.POLAR>
0

>  <SCORE.INTER.ROT>
3

>  <SCORE.INTER.SOLV>
8.3936

>  <SCORE.INTER.VDW>
-16.7439

>  <SCORE.INTER.norm>
-1.04325

>  <SCORE.INTRA>
-1.46545

>  <SCORE.INTRA.DIHEDRAL>
0.310277

>  <SCORE.INTRA.DIHEDRAL.0>
5.0186

>  <SCORE.INTRA.POLAR>
0

>  <SCORE.INTRA.POLAR.0>
0

>  <SCORE.INTRA.REPUL>
0

>  <SCORE.INTRA.REPUL.0>
0

>  <SCORE.INTRA.SOLV>
-0.185155

>  <SCORE.INTRA.SOLV.lig_0>
-16.1608

>  <SCORE.INTRA.VDW>
-1.52801

>  <SCORE.INTRA.VDW.0>
1.14169

>  <SCORE.INTRA.norm>
-0.12212

>  <SCORE.RESTR>
0

>  <SCORE.RESTR.CAVITY>
0

>  <SCORE.RESTR.norm>
0

>  <SCORE.SYSTEM>
0

>  <SCORE.SYSTEM.CONST>
0

>  <SCORE.SYSTEM.DIHEDRAL>
0

>  <SCORE.SYSTEM.SOLV>
0

>  <SCORE.SYSTEM.norm>
0

>  <SCORE.heavy>
12

>  <SCORE.norm>
-1.16537

>  <RMSD>
25.160

$$$$
ligand
 OpenBabel11021811493D
libRbt.so/2013.1/901 2013/11/27
 12 12  0  0  0  0  0  0  0  0999 V2000
   31.6436   -3.3542   23.7379 N   0  0  0  0  0  0  0  0  0  0  0  0
   28.1692   -4.7521   26.3467 O   0  0  0  0  0  0  0  0  0  0  0  0
   32.5918   -4.3902   23.2599 C   0  0  0  0  0  0  0  0  0  0  0  0
   27.2988   -3.9516   24.3038 O   0  0  0  0  0  0  0  0  0  0  0  0
   33.5160   -3.7555   22.2259 C   0  0  0  0  0  0  0  0  0  0  0  0
   27.2538   -6.3643   24.7638 O   0  0  0  0  0  0  0  0  0  0  0  0
   34.3255   -2.7138   22.8652 N   0  0  0  0  0  0  0  0  0  0  0  0
   33.9153   -2.6166   24.2682 C   0  0  0  0  0  0  0  0  0  0  0  0
   32.4448   -2.2350   24.2712 C   0  0  0  0  0  0  0  0  0  0  0  0
   30.6128   -3.8183   24.7494 C   0  0  0  0  0  0  0  0  0  0  0  0
   29.6467   -4.9421   24.2914 C   0  0  0  0  0  0  0  0  0  0  0  0
   28.0821   -4.9819   24.9347 S   0  0  0  0  0  0  0  0  0  0  0  0
  1  3  1  0  0  0  0
  1  9  1  0  0  0  0
  1 10  1  0  0  0  0
  2 12  1  0  0  0  0
  3  5  1  0  0  0  0
  4 12  2  0  0  0  0
  5  7  1  0  0  0  0
  6 12  2  0  0  0  0
  7  8  1  0  0  0  0
  8  9  1  0  0  0  0
 10 11  1  0  0  0  0
 11 12  1  0  0  0  0
M  END
>  <CHROM.1>
-60.35388355,-149.23834634,-44.25763092,30.43800416,-4.11471510,24.27012895
0.04187155,0.43555180,0.78182703

>  <Name>
ligand

>  <RI>
0

>  <Rbt.Current_Directory>
/home/itssahil/PROJECTS/Mol_Feturizer/New_Systems/rnas/4E8N

>  <Rbt.Executable>
rbdock ($Id: //depot/dev/client3/rdock/2013.1/src/exe/rbdock.cxx#4 $)

>  <Rbt.Library>
libRbt.so (2013.1, Build901 2013/11/27)

>  <Rbt.Parameter_File>
/export/apps/rDock/src/rDock_2013.1_src/data/scripts/dock_solv.prm

>  <Rbt.Receptor>
prm/blind_docking_60.prm

>  <SCORE>
-11.6729

>  <SCORE.INTER>
-9.40715

>  <SCORE.INTER.CONST>
1

>  <SCORE.INTER.POLAR>
0

>  <SCORE.INTER.ROT>
3

>  <SCORE.INTER.SOLV>
9.8629

>  <SCORE.INTER.VDW>
-15.1591

>  <SCORE.INTER.norm>
-0.783929

>  <SCORE.INTRA>
-2.26792

>  <SCORE.INTRA.DIHEDRAL>
-1.54434

>  <SCORE.INTRA.DIHEDRAL.0>
5.0186

>  <SCORE.INTRA.POLAR>
0

>  <SCORE.INTRA.POLAR.0>
0

>  <SCORE.INTRA.REPUL>
0

>  <SCORE.INTRA.REPUL.0>
0

>  <SCORE.INTRA.SOLV>
-0.129754

>  <SCORE.INTRA.SOLV.lig_0>
-16.1608

>  <SCORE.INTRA.VDW>
-1.43087

>  <SCORE.INTRA.VDW.0>
1.14169

>  <SCORE.INTRA.norm>
-0.188993

>  <SCORE.RESTR>
0.00215334

>  <SCORE.RESTR.CAVITY>
0.00215334

>  <SCORE.RESTR.norm>
0.000179445

>  <SCORE.SYSTEM>
0

>  <SCORE.SYSTEM.CONST>
0

>  <SCORE.SYSTEM.DIHEDRAL>
0

>  <SCORE.SYSTEM.SOLV>
0

>  <SCORE.SYSTEM.norm>
0

>  <SCORE.heavy>
12

>  <SCORE.norm>
-0.972743

>  <RMSD>
25.209

$$$$
ligand
 OpenBabel11021811493D
libRbt.so/2013.1/901 2013/11/27
 12 12  0  0  0  0  0  0  0  0999 V2000
   28.5406   -5.1539   24.4793 N   0  0  0  0  0  0  0  0  0  0  0  0
   25.1439   -6.0874   27.2196 O   0  0  0  0  0  0  0  0  0  0  0  0
   29.0641   -6.2546   23.6335 C   0  0  0  0  0  0  0  0  0  0  0  0
   24.7146   -3.7664   27.1968 O   0  0  0  0  0  0  0  0  0  0  0  0
   29.5313   -5.6618   22.3082 C   0  0  0  0  0  0  0  0  0  0  0  0
   24.6689   -5.0157   25.0822 O   0  0  0  0  0  0  0  0  0  0  0  0
   30.6545   -4.7505   22.5472 N   0  0  0  0  0  0  0  0  0  0  0  0
   30.8932   -4.6925   23.9914 C   0  0  0  0  0  0  0  0  0  0  0  0
   29.6207   -4.1585   24.6266 C   0  0  0  0  0  0  0  0  0  0  0  0
   27.9887   -5.5647   25.8312 C   0  0  0  0  0  0  0  0  0  0  0  0
   27.0460   -4.5529   26.5336 C   0  0  0  0  0  0  0  0  0  0  0  0
   25.3809   -4.8542   26.5290 S   0  0  0  0  0  0  0  0  0  0  0  0
  1  3  1  0  0  0  0
  1  9  1  0  0  0  0
  1 10  1  0  0  0  0
  2 12  1  0  0  0  0
  3  5  1  0  0  0  0
  4 12  2  0  0  0  0
  5  7  1  0  0  0  0
  6 12  2  0  0  0  0
  7  8  1  0  0  0  0
  8  9  1  0  0  0  0
 10 11  1  0  0  0  0
 11 12  1  0  0  0  0
M  END
>  <CHROM.1>
-161.12554137,103.90728093,61.76183998,27.45590543,-5.02243086,25.18834015
0.53356165,-0.27810072,-2.07720346

>  <Name>
ligand

>  <RI>
0

>  <Rbt.Current_Directory>
/home/itssahil/PROJECTS/Mol_Feturizer/New_Systems/rnas/4E8N

>  <Rbt.Executable>
rbdock ($Id: //depot/dev/client3/rdock/2013.1/src/exe/rbdock.cxx#4 $)

>  <Rbt.Library>
libRbt.so (2013.1, Build901 2013/11/27)

>  <Rbt.Parameter_File>
/export/apps/rDock/src/rDock_2013.1_src/data/scripts/dock_solv.prm

>  <Rbt.Receptor>
prm/blind_docking_100.prm

>  <SCORE>
-13.1007

>  <SCORE.INTER>
-11.399

>  <SCORE.INTER.CONST>
1

>  <SCORE.INTER.POLAR>
0

>  <SCORE.INTER.ROT>
3

>  <SCORE.INTER.SOLV>
8.48257

>  <SCORE.INTER.VDW>
-16.0269

>  <SCORE.INTER.norm>
-0.949917

>  <SCORE.INTRA>
-1.70172

>  <SCORE.INTRA.DIHEDRAL>
0.057281

>  <SCORE.INTRA.DIHEDRAL.0>
5.0186

>  <SCORE.INTRA.POLAR>
0

>  <SCORE.INTRA.POLAR.0>
0

>  <SCORE.INTRA.REPUL>
0

>  <SCORE.INTRA.REPUL.0>
0

>  <SCORE.INTRA.SOLV>
0.0678095

>  <SCORE.INTRA.SOLV.lig_0>
-16.1608

>  <SCORE.INTRA.VDW>
-1.76427

>  <SCORE.INTRA.VDW.0>
1.14169

>  <SCORE.INTRA.norm>
-0.14181

>  <SCORE.RESTR>
0

>  <SCORE.RESTR.CAVITY>
0

>  <SCORE.RESTR.norm>
0

>  <SCORE.SYSTEM>
0

>  <SCORE.SYSTEM.CONST>
0

>  <SCORE.SYSTEM.DIHEDRAL>
0

>  <SCORE.SYSTEM.SOLV>
0

>  <SCORE.SYSTEM.norm>
0

>  <SCORE.heavy>
12

>  <SCORE.norm>
-1.09173

>  <RMSD>
25.216

$$$$
ligand
 OpenBabel11021811493D
libRbt.so/2013.1/901 2013/11/27
 12 12  0  0  0  0  0  0  0  0999 V2000
   29.9110   -4.2780   24.0807 N   0  0  0  0  0  0  0  0  0  0  0  0
   34.5580   -3.5061   24.2952 O   0  0  0  0  0  0  0  0  0  0  0  0
   29.4236   -4.5070   25.4631 C   0  0  0  0  0  0  0  0  0  0  0  0
   33.7021   -2.9363   22.1704 O   0  0  0  0  0  0  0  0  0  0  0  0
   27.8988   -4.4755   25.4464 C   0  0  0  0  0  0  0  0  0  0  0  0
   34.3056   -1.1458   23.7403 O   0  0  0  0  0  0  0  0  0  0  0  0
   27.3939   -5.5889   24.6375 N   0  0  0  0  0  0  0  0  0  0  0  0
   28.5447   -6.3075   24.0849 C   0  0  0  0  0  0  0  0  0  0  0  0
   29.3091   -5.3174   23.2227 C   0  0  0  0  0  0  0  0  0  0  0  0
   31.4177   -4.2345   23.9102 C   0  0  0  0  0  0  0  0  0  0  0  0
   32.1056   -2.8661   24.1554 C   0  0  0  0  0  0  0  0  0  0  0  0
   33.6785   -2.6312   23.5774 S   0  0  0  0  0  0  0  0  0  0  0  0
  1  3  1  0  0  0  0
  1  9  1  0  0  0  0
  1 10  1  0  0  0  0
  2 12  1  0  0  0  0
  3  5  1  0  0  0  0
  4 12  2  0  0  0  0
  5  7  1  0  0  0  0
  6 12  2  0  0  0  0
  7  8  1  0  0  0  0
  8  9  1  0  0  0  0
 10 11  1  0  0  0  0
 11 12  1  0  0  0  0
M  END
>  <CHROM.1>
-85.68696244,-163.14602050,-66.00656002,31.36806308,-3.81112248,23.99909148
2.97949209,-0.46563274,-2.27847089

>  <Name>
ligand

>  <RI>
0

>  <Rbt.Current_Directory>
/home/itssahil/PROJECTS/Mol_Feturizer/New_Systems/rnas/4E8N

>  <Rbt.Executable>
rbdock ($Id: //depot/dev/client3/rdock/2013.1/src/exe/rbdock.cxx#4 $)

>  <Rbt.Library>
libRbt.so (2013.1, Build901 2013/11/27)

>  <Rbt.Parameter_File>
/export/apps/rDock/src/rDock_2013.1_src/data/scripts/dock_solv.prm

>  <Rbt.Receptor>
prm/blind_docking_60.prm

>  <SCORE>
-15.62

>  <SCORE.INTER>
-12.3461

>  <SCORE.INTER.CONST>
1

>  <SCORE.INTER.POLAR>
0

>  <SCORE.INTER.ROT>
3

>  <SCORE.INTER.SOLV>
8.24531

>  <SCORE.INTER.VDW>
-16.5792

>  <SCORE.INTER.norm>
-1.02884

>  <SCORE.INTRA>
-3.27392

>  <SCORE.INTRA.DIHEDRAL>
-2.91061

>  <SCORE.INTRA.DIHEDRAL.0>
5.0186

>  <SCORE.INTRA.POLAR>
0

>  <SCORE.INTRA.POLAR.0>
0

>  <SCORE.INTRA.REPUL>
0

>  <SCORE.INTRA.REPUL.0>
0

>  <SCORE.INTRA.SOLV>
-0.098127

>  <SCORE.INTRA.SOLV.lig_0>
-16.1608

>  <SCORE.INTRA.VDW>
-1.76956

>  <SCORE.INTRA.VDW.0>
1.14169

>  <SCORE.INTRA.norm>
-0.272827

>  <SCORE.RESTR>
0

>  <SCORE.RESTR.CAVITY>
0

>  <SCORE.RESTR.norm>
0

>  <SCORE.SYSTEM>
0

>  <SCORE.SYSTEM.CONST>
0

>  <SCORE.SYSTEM.DIHEDRAL>
0

>  <SCORE.SYSTEM.SOLV>
0

>  <SCORE.SYSTEM.norm>
0

>  <SCORE.heavy>
12

>  <SCORE.norm>
-1.30167

>  <RMSD>
25.241

$$$$
ligand
 OpenBabel11021811493D
libRbt.so/2013.1/901 2013/11/27
 12 12  0  0  0  0  0  0  0  0999 V2000
   30.7077   -4.5362   24.2832 N   0  0  0  0  0  0  0  0  0  0  0  0
   35.3523   -2.4579   23.7410 O   0  0  0  0  0  0  0  0  0  0  0  0
   30.3213   -5.0558   22.9484 C   0  0  0  0  0  0  0  0  0  0  0  0
   33.6315   -0.9958   23.0531 O   0  0  0  0  0  0  0  0  0  0  0  0
   29.5583   -6.3619   23.1436 C   0  0  0  0  0  0  0  0  0  0  0  0
   34.0232   -1.3425   25.4534 O   0  0  0  0  0  0  0  0  0  0  0  0
   28.3095   -6.0976   23.8645 N   0  0  0  0  0  0  0  0  0  0  0  0
   28.2665   -4.6700   24.1905 C   0  0  0  0  0  0  0  0  0  0  0  0
   29.4697   -4.3837   25.0727 C   0  0  0  0  0  0  0  0  0  0  0  0
   31.5171   -3.2532   24.2838 C   0  0  0  0  0  0  0  0  0  0  0  0
   32.9769   -3.3523   23.7689 C   0  0  0  0  0  0  0  0  0  0  0  0
   34.0071   -2.0274   23.9847 S   0  0  0  0  0  0  0  0  0  0  0  0
  1  3  1  0  0  0  0
  1  9  1  0  0  0  0
  1 10  1  0  0  0  0
  2 12  1  0  0  0  0
  3  5  1  0  0  0  0
  4 12  2  0  0  0  0
  5  7  1  0  0  0  0
  6 12  2  0  0  0  0
  7  8  1  0  0  0  0
  8  9  1  0  0  0  0
 10 11  1  0  0  0  0
 11 12  1  0  0  0  0
M  END
>  <CHROM.1>
-70.31929742,-169.87413114,166.02292083,31.83320733,-3.48787190,23.98560950
2.68424007,-0.41466133,-2.41082228

>  <Name>
ligand

>  <RI>
0

>  <Rbt.Current_Directory>
/home/itssahil/PROJECTS/Mol_Feturizer/New_Systems/rnas/4E8N

>  <Rbt.Executable>
rbdock ($Id: //depot/dev/client3/rdock/2013.1/src/exe/rbdock.cxx#4 $)

>  <Rbt.Library>
libRbt.so (2013.1, Build901 2013/11/27)

>  <Rbt.Parameter_File>
/export/apps/rDock/src/rDock_2013.1_src/data/scripts/dock_solv.prm

>  <Rbt.Receptor>
prm/blind_docking_80.prm

>  <SCORE>
-15.0428

>  <SCORE.INTER>
-11.4292

>  <SCORE.INTER.CONST>
1

>  <SCORE.INTER.POLAR>
0

>  <SCORE.INTER.ROT>
3

>  <SCORE.INTER.SOLV>
9.20199

>  <SCORE.INTER.VDW>
-16.2868

>  <SCORE.INTER.norm>
-0.952433

>  <SCORE.INTRA>
-3.61362

>  <SCORE.INTRA.DIHEDRAL>
-3.97186

>  <SCORE.INTRA.DIHEDRAL.0>
5.0186

>  <SCORE.INTRA.POLAR>
0

>  <SCORE.INTRA.POLAR.0>
0

>  <SCORE.INTRA.REPUL>
0

>  <SCORE.INTRA.REPUL.0>
0

>  <SCORE.INTRA.SOLV>
0.0687656

>  <SCORE.INTRA.SOLV.lig_0>
-16.1608

>  <SCORE.INTRA.VDW>
-1.66207

>  <SCORE.INTRA.VDW.0>
1.14169

>  <SCORE.INTRA.norm>
-0.301135

>  <SCORE.RESTR>
0

>  <SCORE.RESTR.CAVITY>
0

>  <SCORE.RESTR.norm>
0

>  <SCORE.SYSTEM>
0

>  <SCORE.SYSTEM.CONST>
0

>  <SCORE.SYSTEM.DIHEDRAL>
0

>  <SCORE.SYSTEM.SOLV>
0

>  <SCORE.SYSTEM.norm>
0

>  <SCORE.heavy>
12

>  <SCORE.norm>
-1.25357

>  <RMSD>
25.286

$$$$
ligand
 OpenBabel11021811493D
libRbt.so/2013.1/901 2013/11/27
 12 12  0  0  0  0  0  0  0  0999 V2000
   33.1382   -3.0946   23.9077 N   0  0  0  0  0  0  0  0  0  0  0  0
   28.8359   -4.6031   22.8327 O   0  0  0  0  0  0  0  0  0  0  0  0
   33.6140   -1.9647   24.7430 C   0  0  0  0  0  0  0  0  0  0  0  0
   29.5530   -6.7623   23.4616 O   0  0  0  0  0  0  0  0  0  0  0  0
   35.1030   -1.7659   24.4794 C   0  0  0  0  0  0  0  0  0  0  0  0
   28.9808   -5.1322   25.2080 O   0  0  0  0  0  0  0  0  0  0  0  0
   35.3050   -1.3654   23.0837 N   0  0  0  0  0  0  0  0  0  0  0  0
   33.9985   -1.3523   22.4212 C   0  0  0  0  0  0  0  0  0  0  0  0
   33.4496   -2.7665   22.5026 C   0  0  0  0  0  0  0  0  0  0  0  0
   31.6766   -3.4668   24.0704 C   0  0  0  0  0  0  0  0  0  0  0  0
   31.2548   -4.8678   23.5555 C   0  0  0  0  0  0  0  0  0  0  0  0
   29.6453   -5.3539   23.7466 S   0  0  0  0  0  0  0  0  0  0  0  0
  1  3  1  0  0  0  0
  1  9  1  0  0  0  0
  1 10  1  0  0  0  0
  2 12  1  0  0  0  0
  3  5  1  0  0  0  0
  4 12  2  0  0  0  0
  5  7  1  0  0  0  0
  6 12  2  0  0  0  0
  7  8  1  0  0  0  0
  8  9  1  0  0  0  0
 10 11  1  0  0  0  0
 11 12  1  0  0  0  0
M  END
>  <CHROM.1>
-162.36750047,178.43008944,71.86015831,31.73053725,-3.77188943,23.68026408
-0.05477260,0.63286019,1.58414987

>  <Name>
ligand

>  <RI>
0

>  <Rbt.Current_Directory>
/home/itssahil/PROJECTS/Mol_Feturizer/New_Systems/rnas/4E8N

>  <Rbt.Executable>
rbdock ($Id: //depot/dev/client3/rdock/2013.1/src/exe/rbdock.cxx#4 $)

>  <Rbt.Library>
libRbt.so (2013.1, Build901 2013/11/27)

>  <Rbt.Parameter_File>
/export/apps/rDock/src/rDock_2013.1_src/data/scripts/dock_solv.prm

>  <Rbt.Receptor>
prm/blind_docking_60.prm

>  <SCORE>
-13.7023

>  <SCORE.INTER>
-9.93366

>  <SCORE.INTER.CONST>
1

>  <SCORE.INTER.POLAR>
0

>  <SCORE.INTER.ROT>
3

>  <SCORE.INTER.SOLV>
10.3813

>  <SCORE.INTER.VDW>
-15.6829

>  <SCORE.INTER.norm>
-0.827805

>  <SCORE.INTRA>
-3.76867

>  <SCORE.INTRA.DIHEDRAL>
-4.25007

>  <SCORE.INTRA.DIHEDRAL.0>
5.0186

>  <SCORE.INTRA.POLAR>
0

>  <SCORE.INTRA.POLAR.0>
0

>  <SCORE.INTRA.REPUL>
0

>  <SCORE.INTRA.REPUL.0>
0

>  <SCORE.INTRA.SOLV>
-0.0807043

>  <SCORE.INTRA.SOLV.lig_0>
-16.1608

>  <SCORE.INTRA.VDW>
-1.60328

>  <SCORE.INTRA.VDW.0>
1.14169

>  <SCORE.INTRA.norm>
-0.314056

>  <SCORE.RESTR>
0

>  <SCORE.RESTR.CAVITY>
0

>  <SCORE.RESTR.norm>
0

>  <SCORE.SYSTEM>
0

>  <SCORE.SYSTEM.CONST>
0

>  <SCORE.SYSTEM.DIHEDRAL>
0

>  <SCORE.SYSTEM.SOLV>
0

>  <SCORE.SYSTEM.norm>
0

>  <SCORE.heavy>
12

>  <SCORE.norm>
-1.14186

>  <RMSD>
25.302

$$$$
ligand
 OpenBabel11021811493D
libRbt.so/2013.1/901 2013/11/27
 12 12  0  0  0  0  0  0  0  0999 V2000
   30.5553   -4.5473   24.4245 N   0  0  0  0  0  0  0  0  0  0  0  0
   33.7356   -1.5170   25.1638 O   0  0  0  0  0  0  0  0  0  0  0  0
   29.9923   -5.0281   23.1389 C   0  0  0  0  0  0  0  0  0  0  0  0
   35.1992   -2.5464   23.6242 O   0  0  0  0  0  0  0  0  0  0  0  0
   29.2381   -6.3277   23.4007 C   0  0  0  0  0  0  0  0  0  0  0  0
   33.6026   -0.8618   22.8195 O   0  0  0  0  0  0  0  0  0  0  0  0
   28.0967   -6.0635   24.2818 N   0  0  0  0  0  0  0  0  0  0  0  0
   28.1204   -4.6440   24.6430 C   0  0  0  0  0  0  0  0  0  0  0  0
   29.4314   -4.3967   25.3697 C   0  0  0  0  0  0  0  0  0  0  0  0
   31.3801   -3.2763   24.3503 C   0  0  0  0  0  0  0  0  0  0  0  0
   32.8033   -3.4058   23.7472 C   0  0  0  0  0  0  0  0  0  0  0  0
   33.8548   -2.0843   23.8530 S   0  0  0  0  0  0  0  0  0  0  0  0
  1  3  1  0  0  0  0
  1  9  1  0  0  0  0
  1 10  1  0  0  0  0
  2 12  1  0  0  0  0
  3  5  1  0  0  0  0
  4 12  2  0  0  0  0
  5  7  1  0  0  0  0
  6 12  2  0  0  0  0
  7  8  1  0  0  0  0
  8  9  1  0  0  0  0
 10 11  1  0  0  0  0
 11 12  1  0  0  0  0
M  END
>  <CHROM.1>
-74.80592086,-170.76404058,42.24614270,31.65863682,-3.50652980,24.04169310
2.76370032,-0.47400183,-2.39837248

>  <Name>
ligand

>  <RI>
0

>  <Rbt.Current_Directory>
/home/itssahil/PROJECTS/Mol_Feturizer/New_Systems/rnas/4E8N

>  <Rbt.Executable>
rbdock ($Id: //depot/dev/client3/rdock/2013.1/src/exe/rbdock.cxx#4 $)

>  <Rbt.Library>
libRbt.so (2013.1, Build901 2013/11/27)

>  <Rbt.Parameter_File>
/export/apps/rDock/src/rDock_2013.1_src/data/scripts/dock_solv.prm

>  <Rbt.Receptor>
prm/blind_docking_100.prm

>  <SCORE>
-14.4143

>  <SCORE.INTER>
-10.9252

>  <SCORE.INTER.CONST>
1

>  <SCORE.INTER.POLAR>
0

>  <SCORE.INTER.ROT>
3

>  <SCORE.INTER.SOLV>
9.95255

>  <SCORE.INTER.VDW>
-16.201

>  <SCORE.INTER.norm>
-0.91043

>  <SCORE.INTRA>
-3.48915

>  <SCORE.INTRA.DIHEDRAL>
-3.58757

>  <SCORE.INTRA.DIHEDRAL.0>
5.0186

>  <SCORE.INTRA.POLAR>
0

>  <SCORE.INTRA.POLAR.0>
0

>  <SCORE.INTRA.REPUL>
0

>  <SCORE.INTRA.REPUL.0>
0

>  <SCORE.INTRA.SOLV>
-0.143684

>  <SCORE.INTRA.SOLV.lig_0>
-16.1608

>  <SCORE.INTRA.VDW>
-1.62353

>  <SCORE.INTRA.VDW.0>
1.14169

>  <SCORE.INTRA.norm>
-0.290763

>  <SCORE.RESTR>
0

>  <SCORE.RESTR.CAVITY>
0

>  <SCORE.RESTR.norm>
0

>  <SCORE.SYSTEM>
0

>  <SCORE.SYSTEM.CONST>
0

>  <SCORE.SYSTEM.DIHEDRAL>
0

>  <SCORE.SYSTEM.SOLV>
0

>  <SCORE.SYSTEM.norm>
0

>  <SCORE.heavy>
12

>  <SCORE.norm>
-1.20119

>  <RMSD>
25.361

$$$$
ligand
 OpenBabel11021811493D
libRbt.so/2013.1/901 2013/11/27
 12 12  0  0  0  0  0  0  0  0999 V2000
   26.2898   -5.4746   25.6798 N   0  0  0  0  0  0  0  0  0  0  0  0
   29.9403   -7.0481   23.4156 O   0  0  0  0  0  0  0  0  0  0  0  0
   25.4459   -4.3999   25.1020 C   0  0  0  0  0  0  0  0  0  0  0  0
   29.4912   -5.5625   21.6370 O   0  0  0  0  0  0  0  0  0  0  0  0
   24.0345   -4.5439   25.6617 C   0  0  0  0  0  0  0  0  0  0  0  0
   30.6702   -4.7316   23.6256 O   0  0  0  0  0  0  0  0  0  0  0  0
   24.0562   -4.3223   27.1106 N   0  0  0  0  0  0  0  0  0  0  0  0
   25.4457   -4.0937   27.5145 C   0  0  0  0  0  0  0  0  0  0  0  0
   26.2221   -5.3473   27.1489 C   0  0  0  0  0  0  0  0  0  0  0  0
   27.7287   -5.5142   25.2010 C   0  0  0  0  0  0  0  0  0  0  0  0
   27.9512   -5.4912   23.6661 C   0  0  0  0  0  0  0  0  0  0  0  0
   29.5167   -5.7239   23.0676 S   0  0  0  0  0  0  0  0  0  0  0  0
  1  3  1  0  0  0  0
  1  9  1  0  0  0  0
  1 10  1  0  0  0  0
  2 12  1  0  0  0  0
  3  5  1  0  0  0  0
  4 12  2  0  0  0  0
  5  7  1  0  0  0  0
  6 12  2  0  0  0  0
  7  8  1  0  0  0  0
  8  9  1  0  0  0  0
 10 11  1  0  0  0  0
 11 12  1  0  0  0  0
M  END
>  <CHROM.1>
-50.71458584,-172.60373779,64.16437415,27.53363645,-5.25637249,24.66821216
-2.50538227,0.23997632,-1.57223587

>  <Name>
ligand

>  <RI>
0

>  <Rbt.Current_Directory>
/home/itssahil/PROJECTS/Mol_Feturizer/New_Systems/rnas/4E8N

>  <Rbt.Executable>
rbdock ($Id: //depot/dev/client3/rdock/2013.1/src/exe/rbdock.cxx#4 $)

>  <Rbt.Library>
libRbt.so (2013.1, Build901 2013/11/27)

>  <Rbt.Parameter_File>
/export/apps/rDock/src/rDock_2013.1_src/data/scripts/dock_solv.prm

>  <Rbt.Receptor>
prm/blind_docking_80.prm

>  <SCORE>
-13.3162

>  <SCORE.INTER>
-9.66809

>  <SCORE.INTER.CONST>
1

>  <SCORE.INTER.POLAR>
0

>  <SCORE.INTER.ROT>
3

>  <SCORE.INTER.SOLV>
7.12371

>  <SCORE.INTER.VDW>
-14.42

>  <SCORE.INTER.norm>
-0.805674

>  <SCORE.INTRA>
-3.64808

>  <SCORE.INTRA.DIHEDRAL>
-4.6628

>  <SCORE.INTRA.DIHEDRAL.0>
5.0186

>  <SCORE.INTRA.POLAR>
0

>  <SCORE.INTRA.POLAR.0>
0

>  <SCORE.INTRA.REPUL>
0

>  <SCORE.INTRA.REPUL.0>
0

>  <SCORE.INTRA.SOLV>
-0.0947007

>  <SCORE.INTRA.SOLV.lig_0>
-16.1608

>  <SCORE.INTRA.VDW>
-1.26933

>  <SCORE.INTRA.VDW.0>
1.14169

>  <SCORE.INTRA.norm>
-0.304007

>  <SCORE.RESTR>
0

>  <SCORE.RESTR.CAVITY>
0

>  <SCORE.RESTR.norm>
0

>  <SCORE.SYSTEM>
0

>  <SCORE.SYSTEM.CONST>
0

>  <SCORE.SYSTEM.DIHEDRAL>
0

>  <SCORE.SYSTEM.SOLV>
0

>  <SCORE.SYSTEM.norm>
0

>  <SCORE.heavy>
12

>  <SCORE.norm>
-1.10968

>  <RMSD>
25.517

$$$$
ligand
 OpenBabel11021811493D
libRbt.so/2013.1/901 2013/11/27
 12 12  0  0  0  0  0  0  0  0999 V2000
   32.2637   -3.3062   23.2861 N   0  0  0  0  0  0  0  0  0  0  0  0
   29.8748   -3.4894   25.5578 O   0  0  0  0  0  0  0  0  0  0  0  0
   33.6496   -3.2526   22.7596 C   0  0  0  0  0  0  0  0  0  0  0  0
   27.9721   -3.9471   24.2379 O   0  0  0  0  0  0  0  0  0  0  0  0
   33.9869   -1.7996   22.4415 C   0  0  0  0  0  0  0  0  0  0  0  0
   28.7899   -5.6591   25.7984 O   0  0  0  0  0  0  0  0  0  0  0  0
   33.9809   -1.0124   23.6782 N   0  0  0  0  0  0  0  0  0  0  0  0
   33.5963   -1.8990   24.7792 C   0  0  0  0  0  0  0  0  0  0  0  0
   32.2034   -2.4158   24.4619 C   0  0  0  0  0  0  0  0  0  0  0  0
   31.7372   -4.6889   23.6209 C   0  0  0  0  0  0  0  0  0  0  0  0
   30.2079   -4.9040   23.4766 C   0  0  0  0  0  0  0  0  0  0  0  0
   29.2012   -4.4777   24.7682 S   0  0  0  0  0  0  0  0  0  0  0  0
  1  3  1  0  0  0  0
  1  9  1  0  0  0  0
  1 10  1  0  0  0  0
  2 12  1  0  0  0  0
  3  5  1  0  0  0  0
  4 12  2  0  0  0  0
  5  7  1  0  0  0  0
  6 12  2  0  0  0  0
  7  8  1  0  0  0  0
  8  9  1  0  0  0  0
 10 11  1  0  0  0  0
 11 12  1  0  0  0  0
M  END
>  <CHROM.1>
-150.14597257,-84.87119274,23.81406654,31.16419633,-3.53483819,24.17226661
-0.14923918,-0.54918056,-2.37081278

>  <Name>
ligand

>  <RI>
0

>  <Rbt.Current_Directory>
/home/itssahil/PROJECTS/Mol_Feturizer/New_Systems/rnas/4E8N

>  <Rbt.Executable>
rbdock ($Id: //depot/dev/client3/rdock/2013.1/src/exe/rbdock.cxx#4 $)

>  <Rbt.Library>
libRbt.so (2013.1, Build901 2013/11/27)

>  <Rbt.Parameter_File>
/export/apps/rDock/src/rDock_2013.1_src/data/scripts/dock_solv.prm

>  <Rbt.Receptor>
prm/blind_docking_100.prm

>  <SCORE>
-11.485

>  <SCORE.INTER>
-10.1515

>  <SCORE.INTER.CONST>
1

>  <SCORE.INTER.POLAR>
0

>  <SCORE.INTER.ROT>
3

>  <SCORE.INTER.SOLV>
10.017

>  <SCORE.INTER.VDW>
-15.7067

>  <SCORE.INTER.norm>
-0.845955

>  <SCORE.INTRA>
-1.33349

>  <SCORE.INTRA.DIHEDRAL>
0.460293

>  <SCORE.INTRA.DIHEDRAL.0>
5.0186

>  <SCORE.INTRA.POLAR>
0

>  <SCORE.INTRA.POLAR.0>
0

>  <SCORE.INTRA.REPUL>
0

>  <SCORE.INTRA.REPUL.0>
0

>  <SCORE.INTRA.SOLV>
-0.173944

>  <SCORE.INTRA.SOLV.lig_0>
-16.1608

>  <SCORE.INTRA.VDW>
-1.47667

>  <SCORE.INTRA.VDW.0>
1.14169

>  <SCORE.INTRA.norm>
-0.111125

>  <SCORE.RESTR>
0

>  <SCORE.RESTR.CAVITY>
0

>  <SCORE.RESTR.norm>
0

>  <SCORE.SYSTEM>
0

>  <SCORE.SYSTEM.CONST>
0

>  <SCORE.SYSTEM.DIHEDRAL>
0

>  <SCORE.SYSTEM.SOLV>
0

>  <SCORE.SYSTEM.norm>
0

>  <SCORE.heavy>
12

>  <SCORE.norm>
-0.957079

>  <RMSD>
25.546

$$$$
ligand
 OpenBabel11021811493D
libRbt.so/2013.1/901 2013/11/27
 12 12  0  0  0  0  0  0  0  0999 V2000
   28.6769   -5.5192   24.9904 N   0  0  0  0  0  0  0  0  0  0  0  0
   24.4617   -4.1998   26.2614 O   0  0  0  0  0  0  0  0  0  0  0  0
   29.2852   -4.1985   24.6959 C   0  0  0  0  0  0  0  0  0  0  0  0
   24.9633   -6.0130   27.6870 O   0  0  0  0  0  0  0  0  0  0  0  0
   30.7438   -4.4171   24.3075 C   0  0  0  0  0  0  0  0  0  0  0  0
   25.0189   -3.7280   28.5872 O   0  0  0  0  0  0  0  0  0  0  0  0
   30.8098   -5.1920   23.0648 N   0  0  0  0  0  0  0  0  0  0  0  0
   29.4409   -5.5290   22.6663 C   0  0  0  0  0  0  0  0  0  0  0  0
   28.8477   -6.3613   23.7902 C   0  0  0  0  0  0  0  0  0  0  0  0
   27.2277   -5.4939   25.4379 C   0  0  0  0  0  0  0  0  0  0  0  0
   26.9108   -4.6829   26.7216 C   0  0  0  0  0  0  0  0  0  0  0  0
   25.3226   -4.6720   27.3054 S   0  0  0  0  0  0  0  0  0  0  0  0
  1  3  1  0  0  0  0
  1  9  1  0  0  0  0
  1 10  1  0  0  0  0
  2 12  1  0  0  0  0
  3  5  1  0  0  0  0
  4 12  2  0  0  0  0
  5  7  1  0  0  0  0
  6 12  2  0  0  0  0
  7  8  1  0  0  0  0
  8  9  1  0  0  0  0
 10 11  1  0  0  0  0
 11 12  1  0  0  0  0
M  END
>  <CHROM.1>
-59.16880200,-177.47286595,-56.52332404,27.33734014,-4.95878029,25.69626100
0.52572237,-0.45005015,-2.36263560

>  <Name>
ligand

>  <RI>
0

>  <Rbt.Current_Directory>
/home/itssahil/PROJECTS/Mol_Feturizer/New_Systems/rnas/4E8N

>  <Rbt.Executable>
rbdock ($Id: //depot/dev/client3/rdock/2013.1/src/exe/rbdock.cxx#4 $)

>  <Rbt.Library>
libRbt.so (2013.1, Build901 2013/11/27)

>  <Rbt.Parameter_File>
/export/apps/rDock/src/rDock_2013.1_src/data/scripts/dock_solv.prm

>  <Rbt.Receptor>
prm/blind_docking_60.prm

>  <SCORE>
-16.0853

>  <SCORE.INTER>
-12.1095

>  <SCORE.INTER.CONST>
1

>  <SCORE.INTER.POLAR>
0

>  <SCORE.INTER.ROT>
3

>  <SCORE.INTER.SOLV>
9.13004

>  <SCORE.INTER.VDW>
-16.7163

>  <SCORE.INTER.norm>
-1.00912

>  <SCORE.INTRA>
-3.9758

>  <SCORE.INTRA.DIHEDRAL>
-4.956

>  <SCORE.INTRA.DIHEDRAL.0>
5.0186

>  <SCORE.INTRA.POLAR>
0

>  <SCORE.INTRA.POLAR.0>
0

>  <SCORE.INTRA.REPUL>
0

>  <SCORE.INTRA.REPUL.0>
0

>  <SCORE.INTRA.SOLV>
-0.116805

>  <SCORE.INTRA.SOLV.lig_0>
-16.1608

>  <SCORE.INTRA.VDW>
-1.4394

>  <SCORE.INTRA.VDW.0>
1.14169

>  <SCORE.INTRA.norm>
-0.331317

>  <SCORE.RESTR>
0

>  <SCORE.RESTR.CAVITY>
0

>  <SCORE.RESTR.norm>
0

>  <SCORE.SYSTEM>
0

>  <SCORE.SYSTEM.CONST>
0

>  <SCORE.SYSTEM.DIHEDRAL>
0

>  <SCORE.SYSTEM.SOLV>
0

>  <SCORE.SYSTEM.norm>
0

>  <SCORE.heavy>
12

>  <SCORE.norm>
-1.34044

>  <RMSD>
25.592

$$$$
ligand
 OpenBabel11021811493D
libRbt.so/2013.1/901 2013/11/27
 12 12  0  0  0  0  0  0  0  0999 V2000
   28.6277   -5.5131   25.0048 N   0  0  0  0  0  0  0  0  0  0  0  0
   25.1606   -3.6762   28.3372 O   0  0  0  0  0  0  0  0  0  0  0  0
   29.2463   -4.1901   24.7441 C   0  0  0  0  0  0  0  0  0  0  0  0
   24.3469   -4.3941   26.2410 O   0  0  0  0  0  0  0  0  0  0  0  0
   30.7056   -4.4094   24.3587 C   0  0  0  0  0  0  0  0  0  0  0  0
   24.7829   -6.0599   27.9931 O   0  0  0  0  0  0  0  0  0  0  0  0
   30.7734   -5.1559   23.0989 N   0  0  0  0  0  0  0  0  0  0  0  0
   29.4046   -5.4745   22.6852 C   0  0  0  0  0  0  0  0  0  0  0  0
   28.7997   -6.3285   23.7864 C   0  0  0  0  0  0  0  0  0  0  0  0
   27.1762   -5.4885   25.4449 C   0  0  0  0  0  0  0  0  0  0  0  0
   26.8433   -4.6317   26.6943 C   0  0  0  0  0  0  0  0  0  0  0  0
   25.2684   -4.6718   27.3119 S   0  0  0  0  0  0  0  0  0  0  0  0
  1  3  1  0  0  0  0
  1  9  1  0  0  0  0
  1 10  1  0  0  0  0
  2 12  1  0  0  0  0
  3  5  1  0  0  0  0
  4 12  2  0  0  0  0
  5  7  1  0  0  0  0
  6 12  2  0  0  0  0
  7  8  1  0  0  0  0
  8  9  1  0  0  0  0
 10 11  1  0  0  0  0
 11 12  1  0  0  0  0
M  END
>  <CHROM.1>
-55.42783496,-174.77115207,-172.30189531,27.28882405,-4.95975249,25.71072355
0.51157945,-0.45238726,-2.35475320

>  <Name>
ligand

>  <RI>
0

>  <Rbt.Current_Directory>
/home/itssahil/PROJECTS/Mol_Feturizer/New_Systems/rnas/4E8N

>  <Rbt.Executable>
rbdock ($Id: //depot/dev/client3/rdock/2013.1/src/exe/rbdock.cxx#4 $)

>  <Rbt.Library>
libRbt.so (2013.1, Build901 2013/11/27)

>  <Rbt.Parameter_File>
/export/apps/rDock/src/rDock_2013.1_src/data/scripts/dock_solv.prm

>  <Rbt.Receptor>
prm/blind_docking_80.prm

>  <SCORE>
-16.1633

>  <SCORE.INTER>
-12.4543

>  <SCORE.INTER.CONST>
1

>  <SCORE.INTER.POLAR>
0

>  <SCORE.INTER.ROT>
3

>  <SCORE.INTER.SOLV>
8.58804

>  <SCORE.INTER.VDW>
-16.7655

>  <SCORE.INTER.norm>
-1.03786

>  <SCORE.INTRA>
-3.70901

>  <SCORE.INTRA.DIHEDRAL>
-4.74218

>  <SCORE.INTRA.DIHEDRAL.0>
5.0186

>  <SCORE.INTRA.POLAR>
0

>  <SCORE.INTRA.POLAR.0>
0

>  <SCORE.INTRA.REPUL>
0

>  <SCORE.INTRA.REPUL.0>
0

>  <SCORE.INTRA.SOLV>
0.0735965

>  <SCORE.INTRA.SOLV.lig_0>
-16.1608

>  <SCORE.INTRA.VDW>
-1.37472

>  <SCORE.INTRA.VDW.0>
1.14169

>  <SCORE.INTRA.norm>
-0.309084

>  <SCORE.RESTR>
0

>  <SCORE.RESTR.CAVITY>
0

>  <SCORE.RESTR.norm>
0

>  <SCORE.SYSTEM>
0

>  <SCORE.SYSTEM.CONST>
0

>  <SCORE.SYSTEM.DIHEDRAL>
0

>  <SCORE.SYSTEM.SOLV>
0

>  <SCORE.SYSTEM.norm>
0

>  <SCORE.heavy>
12

>  <SCORE.norm>
-1.34694

>  <RMSD>
25.601

$$$$
ligand
 OpenBabel11021811493D
libRbt.so/2013.1/901 2013/11/27
 12 12  0  0  0  0  0  0  0  0999 V2000
   26.7800   -5.3352   25.1002 N   0  0  0  0  0  0  0  0  0  0  0  0
   24.6904   -6.2258   29.7196 O   0  0  0  0  0  0  0  0  0  0  0  0
   28.1883   -4.8700   25.1347 C   0  0  0  0  0  0  0  0  0  0  0  0
   25.0213   -3.9598   29.1474 O   0  0  0  0  0  0  0  0  0  0  0  0
   28.9391   -5.5249   23.9798 C   0  0  0  0  0  0  0  0  0  0  0  0
   23.0680   -5.1503   28.2521 O   0  0  0  0  0  0  0  0  0  0  0  0
   28.3795   -5.0629   22.7061 N   0  0  0  0  0  0  0  0  0  0  0  0
   27.2542   -4.1723   23.0006 C   0  0  0  0  0  0  0  0  0  0  0  0
   26.2344   -4.9922   23.7722 C   0  0  0  0  0  0  0  0  0  0  0  0
   25.8851   -4.8148   26.2091 C   0  0  0  0  0  0  0  0  0  0  0  0
   25.7121   -5.7300   27.4495 C   0  0  0  0  0  0  0  0  0  0  0  0
   24.6317   -5.2587   28.6635 S   0  0  0  0  0  0  0  0  0  0  0  0
  1  3  1  0  0  0  0
  1  9  1  0  0  0  0
  1 10  1  0  0  0  0
  2 12  1  0  0  0  0
  3  5  1  0  0  0  0
  4 12  2  0  0  0  0
  5  7  1  0  0  0  0
  6 12  2  0  0  0  0
  7  8  1  0  0  0  0
  8  9  1  0  0  0  0
 10 11  1  0  0  0  0
 11 12  1  0  0  0  0
M  END
>  <CHROM.1>
-95.50538026,-175.27171524,-177.49095542,26.02088229,-5.10770578,26.42668216
-0.97816198,-0.21848749,1.77179180

>  <Name>
ligand

>  <RI>
0

>  <Rbt.Current_Directory>
/home/itssahil/PROJECTS/Mol_Feturizer/New_Systems/rnas/4E8N

>  <Rbt.Executable>
rbdock ($Id: //depot/dev/client3/rdock/2013.1/src/exe/rbdock.cxx#4 $)

>  <Rbt.Library>
libRbt.so (2013.1, Build901 2013/11/27)

>  <Rbt.Parameter_File>
/export/apps/rDock/src/rDock_2013.1_src/data/scripts/dock_solv.prm

>  <Rbt.Receptor>
prm/blind_docking_80.prm

>  <SCORE>
-14.8478

>  <SCORE.INTER>
-11.4218

>  <SCORE.INTER.CONST>
1

>  <SCORE.INTER.POLAR>
0

>  <SCORE.INTER.ROT>
3

>  <SCORE.INTER.SOLV>
6.93596

>  <SCORE.INTER.VDW>
-15.5265

>  <SCORE.INTER.norm>
-0.951814

>  <SCORE.INTRA>
-3.42602

>  <SCORE.INTRA.DIHEDRAL>
-3.2903

>  <SCORE.INTRA.DIHEDRAL.0>
5.0186

>  <SCORE.INTRA.POLAR>
0

>  <SCORE.INTRA.POLAR.0>
0

>  <SCORE.INTRA.REPUL>
0

>  <SCORE.INTRA.REPUL.0>
0

>  <SCORE.INTRA.SOLV>
0.0684903

>  <SCORE.INTRA.SOLV.lig_0>
-16.1608

>  <SCORE.INTRA.VDW>
-1.81511

>  <SCORE.INTRA.VDW.0>
1.14169

>  <SCORE.INTRA.norm>
-0.285501

>  <SCORE.RESTR>
0

>  <SCORE.RESTR.CAVITY>
0

>  <SCORE.RESTR.norm>
0

>  <SCORE.SYSTEM>
0

>  <SCORE.SYSTEM.CONST>
0

>  <SCORE.SYSTEM.DIHEDRAL>
0

>  <SCORE.SYSTEM.SOLV>
0

>  <SCORE.SYSTEM.norm>
0

>  <SCORE.heavy>
12

>  <SCORE.norm>
-1.23732

>  <RMSD>
26.225

$$$$
ligand
 OpenBabel11021811493D
libRbt.so/2013.1/901 2013/11/27
 12 12  0  0  0  0  0  0  0  0999 V2000
   26.7738   -5.0134   25.8931 N   0  0  0  0  0  0  0  0  0  0  0  0
   24.8657   -5.2954   29.7949 O   0  0  0  0  0  0  0  0  0  0  0  0
   28.2283   -4.9529   25.6071 C   0  0  0  0  0  0  0  0  0  0  0  0
   23.0342   -5.8536   28.4144 O   0  0  0  0  0  0  0  0  0  0  0  0
   28.5456   -5.9672   24.5132 C   0  0  0  0  0  0  0  0  0  0  0  0
   25.1715   -7.0238   28.1032 O   0  0  0  0  0  0  0  0  0  0  0  0
   27.8617   -5.5831   23.2747 N   0  0  0  0  0  0  0  0  0  0  0  0
   27.0676   -4.3826   23.5476 C   0  0  0  0  0  0  0  0  0  0  0  0
   26.0635   -4.7549   24.6252 C   0  0  0  0  0  0  0  0  0  0  0  0
   26.2782   -4.0947   26.9938 C   0  0  0  0  0  0  0  0  0  0  0  0
   24.8132   -4.2978   27.4613 C   0  0  0  0  0  0  0  0  0  0  0  0
   24.4535   -5.6155   28.4601 S   0  0  0  0  0  0  0  0  0  0  0  0
  1  3  1  0  0  0  0
  1  9  1  0  0  0  0
  1 10  1  0  0  0  0
  2 12  1  0  0  0  0
  3  5  1  0  0  0  0
  4 12  2  0  0  0  0
  5  7  1  0  0  0  0
  6 12  2  0  0  0  0
  7  8  1  0  0  0  0
  8  9  1  0  0  0  0
 10 11  1  0  0  0  0
 11 12  1  0  0  0  0
M  END
>  <CHROM.1>
-170.73073463,76.02723856,78.11955281,25.88846364,-5.29708657,26.65849271
-0.83549391,-0.46970013,2.07397683

>  <Name>
ligand

>  <RI>
0

>  <Rbt.Current_Directory>
/home/itssahil/PROJECTS/Mol_Feturizer/New_Systems/rnas/4E8N

>  <Rbt.Executable>
rbdock ($Id: //depot/dev/client3/rdock/2013.1/src/exe/rbdock.cxx#4 $)

>  <Rbt.Library>
libRbt.so (2013.1, Build901 2013/11/27)

>  <Rbt.Parameter_File>
/export/apps/rDock/src/rDock_2013.1_src/data/scripts/dock_solv.prm

>  <Rbt.Receptor>
prm/blind_docking_80.prm

>  <SCORE>
-12.7835

>  <SCORE.INTER>
-9.53788

>  <SCORE.INTER.CONST>
1

>  <SCORE.INTER.POLAR>
0

>  <SCORE.INTER.ROT>
3

>  <SCORE.INTER.SOLV>
8.4137

>  <SCORE.INTER.VDW>
-14.7631

>  <SCORE.INTER.norm>
-0.794823

>  <SCORE.INTRA>
-3.24562

>  <SCORE.INTRA.DIHEDRAL>
-3.22872

>  <SCORE.INTRA.DIHEDRAL.0>
5.0186

>  <SCORE.INTRA.POLAR>
0

>  <SCORE.INTRA.POLAR.0>
0

>  <SCORE.INTRA.REPUL>
0

>  <SCORE.INTRA.REPUL.0>
0

>  <SCORE.INTRA.SOLV>
0.364328

>  <SCORE.INTRA.SOLV.lig_0>
-16.1608

>  <SCORE.INTRA.VDW>
-1.81342

>  <SCORE.INTRA.VDW.0>
1.14169

>  <SCORE.INTRA.norm>
-0.270468

>  <SCORE.RESTR>
0

>  <SCORE.RESTR.CAVITY>
0

>  <SCORE.RESTR.norm>
0

>  <SCORE.SYSTEM>
0

>  <SCORE.SYSTEM.CONST>
0

>  <SCORE.SYSTEM.DIHEDRAL>
0

>  <SCORE.SYSTEM.SOLV>
0

>  <SCORE.SYSTEM.norm>
0

>  <SCORE.heavy>
12

>  <SCORE.norm>
-1.06529

>  <RMSD>
26.398

$$$$
ligand
 OpenBabel11021811493D
libRbt.so/2013.1/901 2013/11/27
 12 12  0  0  0  0  0  0  0  0999 V2000
   35.4994   -0.8570   22.8052 N   0  0  0  0  0  0  0  0  0  0  0  0
   33.1674   -2.6160   21.9937 O   0  0  0  0  0  0  0  0  0  0  0  0
   36.8483   -0.6987   22.2083 C   0  0  0  0  0  0  0  0  0  0  0  0
   34.0202   -4.5318   23.0773 O   0  0  0  0  0  0  0  0  0  0  0  0
   36.7281    0.1968   20.9796 C   0  0  0  0  0  0  0  0  0  0  0  0
   31.7327   -3.7891   23.5774 O   0  0  0  0  0  0  0  0  0  0  0  0
   36.2945    1.5360   21.3890 N   0  0  0  0  0  0  0  0  0  0  0  0
   36.0772    1.5201   22.8377 C   0  0  0  0  0  0  0  0  0  0  0  0
   34.9895    0.4948   23.1082 C   0  0  0  0  0  0  0  0  0  0  0  0
   35.4175   -1.7571   24.0234 C   0  0  0  0  0  0  0  0  0  0  0  0
   34.0197   -2.3346   24.3681 C   0  0  0  0  0  0  0  0  0  0  0  0
   33.2479   -3.3270   23.2355 S   0  0  0  0  0  0  0  0  0  0  0  0
  1  3  1  0  0  0  0
  1  9  1  0  0  0  0
  1 10  1  0  0  0  0
  2 12  1  0  0  0  0
  3  5  1  0  0  0  0
  4 12  2  0  0  0  0
  5  7  1  0  0  0  0
  6 12  2  0  0  0  0
  7  8  1  0  0  0  0
  8  9  1  0  0  0  0
 10 11  1  0  0  0  0
 11 12  1  0  0  0  0
M  END
>  <CHROM.1>
-159.40756642,60.98905166,-54.96495070,34.63021008,-1.60383116,22.84380060
0.55505480,0.80856831,0.58177978

>  <Name>
ligand

>  <RI>
0

>  <Rbt.Current_Directory>
/home/itssahil/PROJECTS/Mol_Feturizer/New_Systems/rnas/4E8N

>  <Rbt.Executable>
rbdock ($Id: //depot/dev/client3/rdock/2013.1/src/exe/rbdock.cxx#4 $)

>  <Rbt.Library>
libRbt.so (2013.1, Build901 2013/11/27)

>  <Rbt.Parameter_File>
/export/apps/rDock/src/rDock_2013.1_src/data/scripts/dock_solv.prm

>  <Rbt.Receptor>
prm/blind_docking_60.prm

>  <SCORE>
-14.6144

>  <SCORE.INTER>
-10.3181

>  <SCORE.INTER.CONST>
1

>  <SCORE.INTER.POLAR>
0

>  <SCORE.INTER.ROT>
3

>  <SCORE.INTER.SOLV>
7.46102

>  <SCORE.INTER.VDW>
-14.9657

>  <SCORE.INTER.norm>
-0.859838

>  <SCORE.INTRA>
-4.29637

>  <SCORE.INTRA.DIHEDRAL>
-4.3892

>  <SCORE.INTRA.DIHEDRAL.0>
5.0186

>  <SCORE.INTRA.POLAR>
0

>  <SCORE.INTRA.POLAR.0>
0

>  <SCORE.INTRA.REPUL>
0

>  <SCORE.INTRA.REPUL.0>
0

>  <SCORE.INTRA.SOLV>
0.0804388

>  <SCORE.INTRA.SOLV.lig_0>
-16.1608

>  <SCORE.INTRA.VDW>
-2.14199

>  <SCORE.INTRA.VDW.0>
1.14169

>  <SCORE.INTRA.norm>
-0.358031

>  <SCORE.RESTR>
0

>  <SCORE.RESTR.CAVITY>
0

>  <SCORE.RESTR.norm>
0

>  <SCORE.SYSTEM>
0

>  <SCORE.SYSTEM.CONST>
0

>  <SCORE.SYSTEM.DIHEDRAL>
0

>  <SCORE.SYSTEM.SOLV>
0

>  <SCORE.SYSTEM.norm>
0

>  <SCORE.heavy>
12

>  <SCORE.norm>
-1.21787

>  <RMSD>
26.517

$$$$
ligand
 OpenBabel11021811493D
libRbt.so/2013.1/901 2013/11/27
 12 12  0  0  0  0  0  0  0  0999 V2000
   35.4418   -0.6555   22.7024 N   0  0  0  0  0  0  0  0  0  0  0  0
   32.0374   -3.5231   23.8241 O   0  0  0  0  0  0  0  0  0  0  0  0
   36.6964   -0.4718   21.9321 C   0  0  0  0  0  0  0  0  0  0  0  0
   33.1974   -2.5726   22.0012 O   0  0  0  0  0  0  0  0  0  0  0  0
   36.4204    0.4988   20.7884 C   0  0  0  0  0  0  0  0  0  0  0  0
   33.9787   -4.7037   22.9408 O   0  0  0  0  0  0  0  0  0  0  0  0
   36.0710    1.8137   21.3343 N   0  0  0  0  0  0  0  0  0  0  0  0
   36.0585    1.7103   22.7956 C   0  0  0  0  0  0  0  0  0  0  0  0
   35.0022    0.6791   23.1546 C   0  0  0  0  0  0  0  0  0  0  0  0
   35.5161   -1.6284   23.8639 C   0  0  0  0  0  0  0  0  0  0  0  0
   34.1768   -2.2550   24.3323 C   0  0  0  0  0  0  0  0  0  0  0  0
   33.3284   -3.2546   23.2626 S   0  0  0  0  0  0  0  0  0  0  0  0
  1  3  1  0  0  0  0
  1  9  1  0  0  0  0
  1 10  1  0  0  0  0
  2 12  1  0  0  0  0
  3  5  1  0  0  0  0
  4 12  2  0  0  0  0
  5  7  1  0  0  0  0
  6 12  2  0  0  0  0
  7  8  1  0  0  0  0
  8  9  1  0  0  0  0
 10 11  1  0  0  0  0
 11 12  1  0  0  0  0
M  END
>  <CHROM.1>
-157.19722212,63.88551584,-170.34393372,34.63223848,-1.46427962,22.79859312
0.48483515,0.93252978,0.69705207

>  <Name>
ligand

>  <RI>
0

>  <Rbt.Current_Directory>
/home/itssahil/PROJECTS/Mol_Feturizer/New_Systems/rnas/4E8N

>  <Rbt.Executable>
rbdock ($Id: //depot/dev/client3/rdock/2013.1/src/exe/rbdock.cxx#4 $)

>  <Rbt.Library>
libRbt.so (2013.1, Build901 2013/11/27)

>  <Rbt.Parameter_File>
/export/apps/rDock/src/rDock_2013.1_src/data/scripts/dock_solv.prm

>  <Rbt.Receptor>
prm/blind_docking_60.prm

>  <SCORE>
-13.8727

>  <SCORE.INTER>
-10.0582

>  <SCORE.INTER.CONST>
1

>  <SCORE.INTER.POLAR>
0

>  <SCORE.INTER.ROT>
3

>  <SCORE.INTER.SOLV>
8.35331

>  <SCORE.INTER.VDW>
-15.0899

>  <SCORE.INTER.norm>
-0.838183

>  <SCORE.INTRA>
-3.81451

>  <SCORE.INTRA.DIHEDRAL>
-4.04677

>  <SCORE.INTRA.DIHEDRAL.0>
5.0186

>  <SCORE.INTRA.POLAR>
0

>  <SCORE.INTRA.POLAR.0>
0

>  <SCORE.INTRA.REPUL>
0

>  <SCORE.INTRA.REPUL.0>
0

>  <SCORE.INTRA.SOLV>
0.685163

>  <SCORE.INTRA.SOLV.lig_0>
-16.1608

>  <SCORE.INTRA.VDW>
-2.1337

>  <SCORE.INTRA.VDW.0>
1.14169

>  <SCORE.INTRA.norm>
-0.317875

>  <SCORE.RESTR>
0

>  <SCORE.RESTR.CAVITY>
0

>  <SCORE.RESTR.norm>
0

>  <SCORE.SYSTEM>
0

>  <SCORE.SYSTEM.CONST>
0

>  <SCORE.SYSTEM.DIHEDRAL>
0

>  <SCORE.SYSTEM.SOLV>
0

>  <SCORE.SYSTEM.norm>
0

>  <SCORE.heavy>
12

>  <SCORE.norm>
-1.15606

>  <RMSD>
26.594

$$$$
ligand
 OpenBabel11021811493D
libRbt.so/2013.1/901 2013/11/27
 12 12  0  0  0  0  0  0  0  0999 V2000
   35.2346   -0.5476   23.2469 N   0  0  0  0  0  0  0  0  0  0  0  0
   33.6312   -4.7962   23.1163 O   0  0  0  0  0  0  0  0  0  0  0  0
   36.4716   -0.7918   22.4650 C   0  0  0  0  0  0  0  0  0  0  0  0
   32.2951   -3.1235   24.1106 O   0  0  0  0  0  0  0  0  0  0  0  0
   36.4391    0.0953   21.2248 C   0  0  0  0  0  0  0  0  0  0  0  0
   33.3258   -2.6927   21.9227 O   0  0  0  0  0  0  0  0  0  0  0  0
   36.4733    1.5042   21.6282 N   0  0  0  0  0  0  0  0  0  0  0  0
   36.4712    1.5578   23.0922 C   0  0  0  0  0  0  0  0  0  0  0  0
   35.1848    0.8952   23.5549 C   0  0  0  0  0  0  0  0  0  0  0  0
   35.0729   -1.3802   24.5045 C   0  0  0  0  0  0  0  0  0  0  0  0
   34.8259   -2.8986   24.3057 C   0  0  0  0  0  0  0  0  0  0  0  0
   33.5026   -3.3922   23.3738 S   0  0  0  0  0  0  0  0  0  0  0  0
  1  3  1  0  0  0  0
  1  9  1  0  0  0  0
  1 10  1  0  0  0  0
  2 12  1  0  0  0  0
  3  5  1  0  0  0  0
  4 12  2  0  0  0  0
  5  7  1  0  0  0  0
  6 12  2  0  0  0  0
  7  8  1  0  0  0  0
  8  9  1  0  0  0  0
 10 11  1  0  0  0  0
 11 12  1  0  0  0  0
M  END
>  <CHROM.1>
-68.79926570,-56.87541127,168.78306261,34.72215475,-1.56336153,23.07652868
0.19822849,0.99263449,1.11399097

>  <Name>
ligand

>  <RI>
0

>  <Rbt.Current_Directory>
/home/itssahil/PROJECTS/Mol_Feturizer/New_Systems/rnas/4E8N

>  <Rbt.Executable>
rbdock ($Id: //depot/dev/client3/rdock/2013.1/src/exe/rbdock.cxx#4 $)

>  <Rbt.Library>
libRbt.so (2013.1, Build901 2013/11/27)

>  <Rbt.Parameter_File>
/export/apps/rDock/src/rDock_2013.1_src/data/scripts/dock_solv.prm

>  <Rbt.Receptor>
prm/blind_docking_100.prm

>  <SCORE>
-14.5534

>  <SCORE.INTER>
-10.3684

>  <SCORE.INTER.CONST>
1

>  <SCORE.INTER.POLAR>
0

>  <SCORE.INTER.ROT>
3

>  <SCORE.INTER.SOLV>
7.55665

>  <SCORE.INTER.VDW>
-15.0312

>  <SCORE.INTER.norm>
-0.864034

>  <SCORE.INTRA>
-4.18503

>  <SCORE.INTRA.DIHEDRAL>
-4.52222

>  <SCORE.INTRA.DIHEDRAL.0>
5.0186

>  <SCORE.INTRA.POLAR>
0

>  <SCORE.INTRA.POLAR.0>
0

>  <SCORE.INTRA.REPUL>
0

>  <SCORE.INTRA.REPUL.0>
0

>  <SCORE.INTRA.SOLV>
0.793115

>  <SCORE.INTRA.SOLV.lig_0>
-16.1608

>  <SCORE.INTRA.VDW>
-2.32048

>  <SCORE.INTRA.VDW.0>
1.14169

>  <SCORE.INTRA.norm>
-0.348753

>  <SCORE.RESTR>
0

>  <SCORE.RESTR.CAVITY>
0

>  <SCORE.RESTR.norm>
0

>  <SCORE.SYSTEM>
0

>  <SCORE.SYSTEM.CONST>
0

>  <SCORE.SYSTEM.DIHEDRAL>
0

>  <SCORE.SYSTEM.SOLV>
0

>  <SCORE.SYSTEM.norm>
0

>  <SCORE.heavy>
12

>  <SCORE.norm>
-1.21279

>  <RMSD>
26.725

$$$$
ligand
 OpenBabel11021811493D
libRbt.so/2013.1/901 2013/11/27
 12 12  0  0  0  0  0  0  0  0999 V2000
   26.8952   -4.4640   25.6017 N   0  0  0  0  0  0  0  0  0  0  0  0
   25.0494   -3.4023   29.8015 O   0  0  0  0  0  0  0  0  0  0  0  0
   26.3427   -5.1460   24.4057 C   0  0  0  0  0  0  0  0  0  0  0  0
   22.9863   -4.1398   28.9233 O   0  0  0  0  0  0  0  0  0  0  0  0
   27.0387   -4.5869   23.1692 C   0  0  0  0  0  0  0  0  0  0  0  0
   24.6638   -5.8011   29.6020 O   0  0  0  0  0  0  0  0  0  0  0  0
   28.4655   -4.9205   23.2163 N   0  0  0  0  0  0  0  0  0  0  0  0
   28.7249   -5.6303   24.4713 C   0  0  0  0  0  0  0  0  0  0  0  0
   28.3554   -4.6809   25.5982 C   0  0  0  0  0  0  0  0  0  0  0  0
   26.2867   -4.8664   26.9318 C   0  0  0  0  0  0  0  0  0  0  0  0
   25.0024   -4.1122   27.3649 C   0  0  0  0  0  0  0  0  0  0  0  0
   24.4111   -4.3469   28.9330 S   0  0  0  0  0  0  0  0  0  0  0  0
  1  3  1  0  0  0  0
  1  9  1  0  0  0  0
  1 10  1  0  0  0  0
  2 12  1  0  0  0  0
  3  5  1  0  0  0  0
  4 12  2  0  0  0  0
  5  7  1  0  0  0  0
  6 12  2  0  0  0  0
  7  8  1  0  0  0  0
  8  9  1  0  0  0  0
 10 11  1  0  0  0  0
 11 12  1  0  0  0  0
M  END
>  <CHROM.1>
-86.09087375,-170.87779485,87.91712391,25.95834251,-4.63702887,26.82064152
0.94395804,0.22104659,-1.52969883

>  <Name>
ligand

>  <RI>
0

>  <Rbt.Current_Directory>
/home/itssahil/PROJECTS/Mol_Feturizer/New_Systems/rnas/4E8N

>  <Rbt.Executable>
rbdock ($Id: //depot/dev/client3/rdock/2013.1/src/exe/rbdock.cxx#4 $)

>  <Rbt.Library>
libRbt.so (2013.1, Build901 2013/11/27)

>  <Rbt.Parameter_File>
/export/apps/rDock/src/rDock_2013.1_src/data/scripts/dock_solv.prm

>  <Rbt.Receptor>
prm/blind_docking_100.prm

>  <SCORE>
-15.413

>  <SCORE.INTER>
-12.5705

>  <SCORE.INTER.CONST>
1

>  <SCORE.INTER.POLAR>
0

>  <SCORE.INTER.ROT>
3

>  <SCORE.INTER.SOLV>
6.8491

>  <SCORE.INTER.VDW>
-16.2634

>  <SCORE.INTER.norm>
-1.04754

>  <SCORE.INTRA>
-2.84252

>  <SCORE.INTRA.DIHEDRAL>
-2.03646

>  <SCORE.INTRA.DIHEDRAL.0>
5.0186

>  <SCORE.INTRA.POLAR>
0

>  <SCORE.INTRA.POLAR.0>
0

>  <SCORE.INTRA.REPUL>
0

>  <SCORE.INTRA.REPUL.0>
0

>  <SCORE.INTRA.SOLV>
-0.0474015

>  <SCORE.INTRA.SOLV.lig_0>
-16.1608

>  <SCORE.INTRA.VDW>
-1.80059

>  <SCORE.INTRA.VDW.0>
1.14169

>  <SCORE.INTRA.norm>
-0.236877

>  <SCORE.RESTR>
0

>  <SCORE.RESTR.CAVITY>
0

>  <SCORE.RESTR.norm>
0

>  <SCORE.SYSTEM>
0

>  <SCORE.SYSTEM.CONST>
0

>  <SCORE.SYSTEM.DIHEDRAL>
0

>  <SCORE.SYSTEM.SOLV>
0

>  <SCORE.SYSTEM.norm>
0

>  <SCORE.heavy>
12

>  <SCORE.norm>
-1.28442

>  <RMSD>
26.765

$$$$
ligand
 OpenBabel11021811493D
libRbt.so/2013.1/901 2013/11/27
 12 12  0  0  0  0  0  0  0  0999 V2000
   35.5422   -0.3174   23.1469 N   0  0  0  0  0  0  0  0  0  0  0  0
   33.7597   -4.5265   23.3685 O   0  0  0  0  0  0  0  0  0  0  0  0
   36.7806   -0.6767   22.4134 C   0  0  0  0  0  0  0  0  0  0  0  0
   32.4999   -2.7462   24.2712 O   0  0  0  0  0  0  0  0  0  0  0  0
   36.8174    0.1200   21.1133 C   0  0  0  0  0  0  0  0  0  0  0  0
   33.4611   -2.5162   22.0222 O   0  0  0  0  0  0  0  0  0  0  0  0
   36.9142    1.5508   21.4173 N   0  0  0  0  0  0  0  0  0  0  0  0
   36.8856    1.7089   22.8734 C   0  0  0  0  0  0  0  0  0  0  0  0
   35.5586    1.1445   23.3513 C   0  0  0  0  0  0  0  0  0  0  0  0
   35.3138   -1.0491   24.4559 C   0  0  0  0  0  0  0  0  0  0  0  0
   35.0407   -2.5731   24.3617 C   0  0  0  0  0  0  0  0  0  0  0  0
   33.6735   -3.1037   23.5176 S   0  0  0  0  0  0  0  0  0  0  0  0
  1  3  1  0  0  0  0
  1  9  1  0  0  0  0
  1 10  1  0  0  0  0
  2 12  1  0  0  0  0
  3  5  1  0  0  0  0
  4 12  2  0  0  0  0
  5  7  1  0  0  0  0
  6 12  2  0  0  0  0
  7  8  1  0  0  0  0
  8  9  1  0  0  0  0
 10 11  1  0  0  0  0
 11 12  1  0  0  0  0
M  END
>  <CHROM.1>
-66.87232566,-61.59487286,170.06143015,34.98510521,-1.33920589,23.07831340
0.20214591,0.94546686,1.01996461

>  <Name>
ligand

>  <RI>
0

>  <Rbt.Current_Directory>
/home/itssahil/PROJECTS/Mol_Feturizer/New_Systems/rnas/4E8N

>  <Rbt.Executable>
rbdock ($Id: //depot/dev/client3/rdock/2013.1/src/exe/rbdock.cxx#4 $)

>  <Rbt.Library>
libRbt.so (2013.1, Build901 2013/11/27)

>  <Rbt.Parameter_File>
/export/apps/rDock/src/rDock_2013.1_src/data/scripts/dock_solv.prm

>  <Rbt.Receptor>
prm/blind_docking_80.prm

>  <SCORE>
-14.2987

>  <SCORE.INTER>
-10.0816

>  <SCORE.INTER.CONST>
1

>  <SCORE.INTER.POLAR>
0

>  <SCORE.INTER.ROT>
3

>  <SCORE.INTER.SOLV>
7.25738

>  <SCORE.INTER.VDW>
-14.7402

>  <SCORE.INTER.norm>
-0.840133

>  <SCORE.INTRA>
-4.21706

>  <SCORE.INTRA.DIHEDRAL>
-4.6677

>  <SCORE.INTRA.DIHEDRAL.0>
5.0186

>  <SCORE.INTRA.POLAR>
0

>  <SCORE.INTRA.POLAR.0>
0

>  <SCORE.INTRA.REPUL>
0

>  <SCORE.INTRA.REPUL.0>
0

>  <SCORE.INTRA.SOLV>
0.720508

>  <SCORE.INTRA.SOLV.lig_0>
-16.1608

>  <SCORE.INTRA.VDW>
-2.24346

>  <SCORE.INTRA.VDW.0>
1.14169

>  <SCORE.INTRA.norm>
-0.351422

>  <SCORE.RESTR>
0

>  <SCORE.RESTR.CAVITY>
0

>  <SCORE.RESTR.norm>
0

>  <SCORE.SYSTEM>
0

>  <SCORE.SYSTEM.CONST>
0

>  <SCORE.SYSTEM.DIHEDRAL>
0

>  <SCORE.SYSTEM.SOLV>
0

>  <SCORE.SYSTEM.norm>
0

>  <SCORE.heavy>
12

>  <SCORE.norm>
-1.19155

>  <RMSD>
26.898

$$$$
ligand
 OpenBabel11021811493D
libRbt.so/2013.1/901 2013/11/27
 12 12  0  0  0  0  0  0  0  0999 V2000
   26.1561   -5.1941   27.5238 N   0  0  0  0  0  0  0  0  0  0  0  0
   27.9172   -4.3987   23.3564 O   0  0  0  0  0  0  0  0  0  0  0  0
   25.1176   -6.1547   27.9707 C   0  0  0  0  0  0  0  0  0  0  0  0
   30.0806   -4.3087   24.2962 O   0  0  0  0  0  0  0  0  0  0  0  0
   24.6598   -5.7516   29.3686 C   0  0  0  0  0  0  0  0  0  0  0  0
   29.0687   -6.4963   23.8219 O   0  0  0  0  0  0  0  0  0  0  0  0
   24.0141   -4.4367   29.3134 N   0  0  0  0  0  0  0  0  0  0  0  0
   24.0887   -3.9516   27.9330 C   0  0  0  0  0  0  0  0  0  0  0  0
   25.5632   -3.8436   27.5837 C   0  0  0  0  0  0  0  0  0  0  0  0
   26.7626   -5.4641   26.1598 C   0  0  0  0  0  0  0  0  0  0  0  0
   28.1229   -4.7831   25.8571 C   0  0  0  0  0  0  0  0  0  0  0  0
   28.8056   -4.9771   24.3209 S   0  0  0  0  0  0  0  0  0  0  0  0
  1  3  1  0  0  0  0
  1  9  1  0  0  0  0
  1 10  1  0  0  0  0
  2 12  1  0  0  0  0
  3  5  1  0  0  0  0
  4 12  2  0  0  0  0
  5  7  1  0  0  0  0
  6 12  2  0  0  0  0
  7  8  1  0  0  0  0
  8  9  1  0  0  0  0
 10 11  1  0  0  0  0
 11 12  1  0  0  0  0
M  END
>  <CHROM.1>
-161.20557908,-176.61301456,62.34998911,26.96621981,-4.98248713,26.17674897
-2.92947910,0.77704636,-0.33015294

>  <Name>
ligand

>  <RI>
0

>  <Rbt.Current_Directory>
/home/itssahil/PROJECTS/Mol_Feturizer/New_Systems/rnas/4E8N

>  <Rbt.Executable>
rbdock ($Id: //depot/dev/client3/rdock/2013.1/src/exe/rbdock.cxx#4 $)

>  <Rbt.Library>
libRbt.so (2013.1, Build901 2013/11/27)

>  <Rbt.Parameter_File>
/export/apps/rDock/src/rDock_2013.1_src/data/scripts/dock_solv.prm

>  <Rbt.Receptor>
prm/blind_docking_60.prm

>  <SCORE>
-15.2213

>  <SCORE.INTER>
-11.2939

>  <SCORE.INTER.CONST>
1

>  <SCORE.INTER.POLAR>
0

>  <SCORE.INTER.ROT>
3

>  <SCORE.INTER.SOLV>
7.94374

>  <SCORE.INTER.VDW>
-15.7772

>  <SCORE.INTER.norm>
-0.94116

>  <SCORE.INTRA>
-3.92738

>  <SCORE.INTRA.DIHEDRAL>
-4.49352

>  <SCORE.INTRA.DIHEDRAL.0>
5.0186

>  <SCORE.INTRA.POLAR>
0

>  <SCORE.INTRA.POLAR.0>
0

>  <SCORE.INTRA.REPUL>
0

>  <SCORE.INTRA.REPUL.0>
0

>  <SCORE.INTRA.SOLV>
-0.100855

>  <SCORE.INTRA.SOLV.lig_0>
-16.1608

>  <SCORE.INTRA.VDW>
-1.63019

>  <SCORE.INTRA.VDW.0>
1.14169

>  <SCORE.INTRA.norm>
-0.327281

>  <SCORE.RESTR>
0

>  <SCORE.RESTR.CAVITY>
0

>  <SCORE.RESTR.norm>
0

>  <SCORE.SYSTEM>
0

>  <SCORE.SYSTEM.CONST>
0

>  <SCORE.SYSTEM.DIHEDRAL>
0

>  <SCORE.SYSTEM.SOLV>
0

>  <SCORE.SYSTEM.norm>
0

>  <SCORE.heavy>
12

>  <SCORE.norm>
-1.26844

>  <RMSD>
26.904

$$$$
ligand
 OpenBabel11021811493D
libRbt.so/2013.1/901 2013/11/27
 12 12  0  0  0  0  0  0  0  0999 V2000
   36.6665   -0.1086   21.7438 N   0  0  0  0  0  0  0  0  0  0  0  0
   34.9691   -3.5011   24.2167 O   0  0  0  0  0  0  0  0  0  0  0  0
   38.0491   -0.6186   21.9150 C   0  0  0  0  0  0  0  0  0  0  0  0
   34.9816   -2.1612   26.1601 O   0  0  0  0  0  0  0  0  0  0  0  0
   38.9942    0.2799   21.1239 C   0  0  0  0  0  0  0  0  0  0  0  0
   33.1034   -1.9764   24.5875 O   0  0  0  0  0  0  0  0  0  0  0  0
   38.9760    1.6315   21.6913 N   0  0  0  0  0  0  0  0  0  0  0  0
   38.0075    1.6499   22.7903 C   0  0  0  0  0  0  0  0  0  0  0  0
   36.6563    1.2979   22.1919 C   0  0  0  0  0  0  0  0  0  0  0  0
   35.5772   -0.9088   22.4323 C   0  0  0  0  0  0  0  0  0  0  0  0
   35.7100   -1.0861   23.9675 C   0  0  0  0  0  0  0  0  0  0  0  0
   34.7008   -2.1974   24.7483 S   0  0  0  0  0  0  0  0  0  0  0  0
  1  3  1  0  0  0  0
  1  9  1  0  0  0  0
  1 10  1  0  0  0  0
  2 12  1  0  0  0  0
  3  5  1  0  0  0  0
  4 12  2  0  0  0  0
  5  7  1  0  0  0  0
  6 12  2  0  0  0  0
  7  8  1  0  0  0  0
  8  9  1  0  0  0  0
 10 11  1  0  0  0  0
 11 12  1  0  0  0  0
M  END
>  <CHROM.1>
57.83856549,-168.73639858,61.40708897,36.14742958,-0.84647056,23.33993697
-0.44670727,-0.77772589,-2.93063579

>  <Name>
ligand

>  <RI>
0

>  <Rbt.Current_Directory>
/home/itssahil/PROJECTS/Mol_Feturizer/New_Systems/rnas/4E8N

>  <Rbt.Executable>
rbdock ($Id: //depot/dev/client3/rdock/2013.1/src/exe/rbdock.cxx#4 $)

>  <Rbt.Library>
libRbt.so (2013.1, Build901 2013/11/27)

>  <Rbt.Parameter_File>
/export/apps/rDock/src/rDock_2013.1_src/data/scripts/dock_solv.prm

>  <Rbt.Receptor>
prm/blind_docking_80.prm

>  <SCORE>
-13.0201

>  <SCORE.INTER>
-9.67228

>  <SCORE.INTER.CONST>
1

>  <SCORE.INTER.POLAR>
0

>  <SCORE.INTER.ROT>
3

>  <SCORE.INTER.SOLV>
6.26506

>  <SCORE.INTER.VDW>
-14.1365

>  <SCORE.INTER.norm>
-0.806023

>  <SCORE.INTRA>
-3.34785

>  <SCORE.INTRA.DIHEDRAL>
-4.52083

>  <SCORE.INTRA.DIHEDRAL.0>
5.0186

>  <SCORE.INTRA.POLAR>
0

>  <SCORE.INTRA.POLAR.0>
0

>  <SCORE.INTRA.REPUL>
0

>  <SCORE.INTRA.REPUL.0>
0

>  <SCORE.INTRA.SOLV>
-0.0875457

>  <SCORE.INTRA.SOLV.lig_0>
-16.1608

>  <SCORE.INTRA.VDW>
-1.04367

>  <SCORE.INTRA.VDW.0>
1.14169

>  <SCORE.INTRA.norm>
-0.278988

>  <SCORE.RESTR>
0

>  <SCORE.RESTR.CAVITY>
0

>  <SCORE.RESTR.norm>
0

>  <SCORE.SYSTEM>
0

>  <SCORE.SYSTEM.CONST>
0

>  <SCORE.SYSTEM.DIHEDRAL>
0

>  <SCORE.SYSTEM.SOLV>
0

>  <SCORE.SYSTEM.norm>
0

>  <SCORE.heavy>
12

>  <SCORE.norm>
-1.08501

>  <RMSD>
27.445

$$$$
ligand
 OpenBabel11021811493D
libRbt.so/2013.1/901 2013/11/27
 12 12  0  0  0  0  0  0  0  0999 V2000
   35.7280   -0.4447   23.2606 N   0  0  0  0  0  0  0  0  0  0  0  0
   35.1193   -2.1592   26.9428 O   0  0  0  0  0  0  0  0  0  0  0  0
   34.7289    0.4624   22.6443 C   0  0  0  0  0  0  0  0  0  0  0  0
   34.9189    0.0434   26.1181 O   0  0  0  0  0  0  0  0  0  0  0  0
   35.4061    1.7982   22.3557 C   0  0  0  0  0  0  0  0  0  0  0  0
   32.9649   -1.0363   27.1434 O   0  0  0  0  0  0  0  0  0  0  0  0
   36.4645    1.6067   21.3596 N   0  0  0  0  0  0  0  0  0  0  0  0
   36.5303    0.1796   21.0352 C   0  0  0  0  0  0  0  0  0  0  0  0
   36.8650   -0.5498   22.3251 C   0  0  0  0  0  0  0  0  0  0  0  0
   35.2183   -1.8174   23.6567 C   0  0  0  0  0  0  0  0  0  0  0  0
   34.0403   -1.8569   24.6651 C   0  0  0  0  0  0  0  0  0  0  0  0
   34.2830   -1.2441   26.2237 S   0  0  0  0  0  0  0  0  0  0  0  0
  1  3  1  0  0  0  0
  1  9  1  0  0  0  0
  1 10  1  0  0  0  0
  2 12  1  0  0  0  0
  3  5  1  0  0  0  0
  4 12  2  0  0  0  0
  5  7  1  0  0  0  0
  6 12  2  0  0  0  0
  7  8  1  0  0  0  0
  8  9  1  0  0  0  0
 10 11  1  0  0  0  0
 11 12  1  0  0  0  0
M  END
>  <CHROM.1>
-58.46906521,-63.42875715,-72.38199913,35.07746360,-0.51533357,24.27347683
-0.84749291,-0.99357593,2.61480786

>  <Name>
ligand

>  <RI>
0

>  <Rbt.Current_Directory>
/home/itssahil/PROJECTS/Mol_Feturizer/New_Systems/rnas/4E8N

>  <Rbt.Executable>
rbdock ($Id: //depot/dev/client3/rdock/2013.1/src/exe/rbdock.cxx#4 $)

>  <Rbt.Library>
libRbt.so (2013.1, Build901 2013/11/27)

>  <Rbt.Parameter_File>
/export/apps/rDock/src/rDock_2013.1_src/data/scripts/dock_solv.prm

>  <Rbt.Receptor>
prm/blind_docking_60.prm

>  <SCORE>
-13.6344

>  <SCORE.INTER>
-9.62174

>  <SCORE.INTER.CONST>
1

>  <SCORE.INTER.POLAR>
0

>  <SCORE.INTER.ROT>
3

>  <SCORE.INTER.SOLV>
6.95286

>  <SCORE.INTER.VDW>
-14.3321

>  <SCORE.INTER.norm>
-0.801812

>  <SCORE.INTRA>
-4.01262

>  <SCORE.INTRA.DIHEDRAL>
-4.6199

>  <SCORE.INTRA.DIHEDRAL.0>
5.0186

>  <SCORE.INTRA.POLAR>
0

>  <SCORE.INTRA.POLAR.0>
0

>  <SCORE.INTRA.REPUL>
0

>  <SCORE.INTRA.REPUL.0>
0

>  <SCORE.INTRA.SOLV>
0.616063

>  <SCORE.INTRA.SOLV.lig_0>
-16.1608

>  <SCORE.INTRA.VDW>
-2.01071

>  <SCORE.INTRA.VDW.0>
1.14169

>  <SCORE.INTRA.norm>
-0.334385

>  <SCORE.RESTR>
0

>  <SCORE.RESTR.CAVITY>
0

>  <SCORE.RESTR.norm>
0

>  <SCORE.SYSTEM>
0

>  <SCORE.SYSTEM.CONST>
0

>  <SCORE.SYSTEM.DIHEDRAL>
0

>  <SCORE.SYSTEM.SOLV>
0

>  <SCORE.SYSTEM.norm>
0

>  <SCORE.heavy>
12

>  <SCORE.norm>
-1.1362

>  <RMSD>
27.848

$$$$
ligand
 OpenBabel11021811493D
libRbt.so/2013.1/901 2013/11/27
 12 12  0  0  0  0  0  0  0  0999 V2000
   35.4474   -0.3465   23.2395 N   0  0  0  0  0  0  0  0  0  0  0  0
   33.1590   -1.3279   26.4489 O   0  0  0  0  0  0  0  0  0  0  0  0
   34.6717    0.6456   22.4552 C   0  0  0  0  0  0  0  0  0  0  0  0
   35.1681   -1.9938   27.4939 O   0  0  0  0  0  0  0  0  0  0  0  0
   35.5357    1.8876   22.2625 C   0  0  0  0  0  0  0  0  0  0  0  0
   35.0644    0.1910   26.3754 O   0  0  0  0  0  0  0  0  0  0  0  0
   36.7114    1.5470   21.4559 N   0  0  0  0  0  0  0  0  0  0  0  0
   36.6639    0.1116   21.1668 C   0  0  0  0  0  0  0  0  0  0  0  0
   36.7004   -0.6080   22.5042 C   0  0  0  0  0  0  0  0  0  0  0  0
   34.7260   -1.6402   23.5662 C   0  0  0  0  0  0  0  0  0  0  0  0
   34.9983   -2.2537   24.9646 C   0  0  0  0  0  0  0  0  0  0  0  0
   34.5878   -1.3575   26.3399 S   0  0  0  0  0  0  0  0  0  0  0  0
  1  3  1  0  0  0  0
  1  9  1  0  0  0  0
  1 10  1  0  0  0  0
  2 12  1  0  0  0  0
  3  5  1  0  0  0  0
  4 12  2  0  0  0  0
  5  7  1  0  0  0  0
  6 12  2  0  0  0  0
  7  8  1  0  0  0  0
  8  9  1  0  0  0  0
 10 11  1  0  0  0  0
 11 12  1  0  0  0  0
M  END
>  <CHROM.1>
-142.41442990,61.28975558,71.37122432,35.19517725,-0.53500949,24.32512846
-0.73831258,-1.15407226,2.79629688

>  <Name>
ligand

>  <RI>
0

>  <Rbt.Current_Directory>
/home/itssahil/PROJECTS/Mol_Feturizer/New_Systems/rnas/4E8N

>  <Rbt.Executable>
rbdock ($Id: //depot/dev/client3/rdock/2013.1/src/exe/rbdock.cxx#4 $)

>  <Rbt.Library>
libRbt.so (2013.1, Build901 2013/11/27)

>  <Rbt.Parameter_File>
/export/apps/rDock/src/rDock_2013.1_src/data/scripts/dock_solv.prm

>  <Rbt.Receptor>
prm/blind_docking_60.prm

>  <SCORE>
-13.4969

>  <SCORE.INTER>
-9.8209

>  <SCORE.INTER.CONST>
1

>  <SCORE.INTER.POLAR>
0

>  <SCORE.INTER.ROT>
3

>  <SCORE.INTER.SOLV>
7.72374

>  <SCORE.INTER.VDW>
-14.7218

>  <SCORE.INTER.norm>
-0.818408

>  <SCORE.INTRA>
-3.67604

>  <SCORE.INTRA.DIHEDRAL>
-3.10966

>  <SCORE.INTRA.DIHEDRAL.0>
5.0186

>  <SCORE.INTRA.POLAR>
0

>  <SCORE.INTRA.POLAR.0>
0

>  <SCORE.INTRA.REPUL>
0

>  <SCORE.INTRA.REPUL.0>
0

>  <SCORE.INTRA.SOLV>
0.507621

>  <SCORE.INTRA.SOLV.lig_0>
-16.1608

>  <SCORE.INTRA.VDW>
-2.37502

>  <SCORE.INTRA.VDW.0>
1.14169

>  <SCORE.INTRA.norm>
-0.306337

>  <SCORE.RESTR>
0

>  <SCORE.RESTR.CAVITY>
0

>  <SCORE.RESTR.norm>
0

>  <SCORE.SYSTEM>
0

>  <SCORE.SYSTEM.CONST>
0

>  <SCORE.SYSTEM.DIHEDRAL>
0

>  <SCORE.SYSTEM.SOLV>
0

>  <SCORE.SYSTEM.norm>
0

>  <SCORE.heavy>
12

>  <SCORE.norm>
-1.12474

>  <RMSD>
27.893

$$$$
ligand
 OpenBabel11021811493D
libRbt.so/2013.1/901 2013/11/27
 12 12  0  0  0  0  0  0  0  0999 V2000
   35.3733   -1.0552   25.8359 N   0  0  0  0  0  0  0  0  0  0  0  0
   33.9458   -5.0824   22.9656 O   0  0  0  0  0  0  0  0  0  0  0  0
   34.8179   -0.9423   27.2069 C   0  0  0  0  0  0  0  0  0  0  0  0
   32.2240   -3.7741   23.9120 O   0  0  0  0  0  0  0  0  0  0  0  0
   35.9205   -0.4380   28.1321 C   0  0  0  0  0  0  0  0  0  0  0  0
   33.3047   -3.0173   21.8398 O   0  0  0  0  0  0  0  0  0  0  0  0
   36.3168    0.9152   27.7310 N   0  0  0  0  0  0  0  0  0  0  0  0
   35.5440    1.2811   26.5415 C   0  0  0  0  0  0  0  0  0  0  0  0
   35.8962    0.2733   25.4608 C   0  0  0  0  0  0  0  0  0  0  0  0
   34.4227   -1.5860   24.7796 C   0  0  0  0  0  0  0  0  0  0  0  0
   34.6329   -3.0559   24.3310 C   0  0  0  0  0  0  0  0  0  0  0  0
   33.5126   -3.7505   23.2700 S   0  0  0  0  0  0  0  0  0  0  0  0
  1  3  1  0  0  0  0
  1  9  1  0  0  0  0
  1 10  1  0  0  0  0
  2 12  1  0  0  0  0
  3  5  1  0  0  0  0
  4 12  2  0  0  0  0
  5  7  1  0  0  0  0
  6 12  2  0  0  0  0
  7  8  1  0  0  0  0
  8  9  1  0  0  0  0
 10 11  1  0  0  0  0
 11 12  1  0  0  0  0
M  END
>  <CHROM.1>
-104.02109621,174.07631825,177.80149482,34.50526009,-1.94995762,24.91925671
0.27528173,1.16445400,2.04017570

>  <Name>
ligand

>  <RI>
0

>  <Rbt.Current_Directory>
/home/itssahil/PROJECTS/Mol_Feturizer/New_Systems/rnas/4E8N

>  <Rbt.Executable>
rbdock ($Id: //depot/dev/client3/rdock/2013.1/src/exe/rbdock.cxx#4 $)

>  <Rbt.Library>
libRbt.so (2013.1, Build901 2013/11/27)

>  <Rbt.Parameter_File>
/export/apps/rDock/src/rDock_2013.1_src/data/scripts/dock_solv.prm

>  <Rbt.Receptor>
prm/blind_docking_100.prm

>  <SCORE>
-13.8673

>  <SCORE.INTER>
-10.6081

>  <SCORE.INTER.CONST>
1

>  <SCORE.INTER.POLAR>
0

>  <SCORE.INTER.ROT>
3

>  <SCORE.INTER.SOLV>
8.36193

>  <SCORE.INTER.VDW>
-15.4594

>  <SCORE.INTER.norm>
-0.884006

>  <SCORE.INTRA>
-3.25926

>  <SCORE.INTRA.DIHEDRAL>
-2.81145

>  <SCORE.INTRA.DIHEDRAL.0>
5.0186

>  <SCORE.INTRA.POLAR>
0

>  <SCORE.INTRA.POLAR.0>
0

>  <SCORE.INTRA.REPUL>
0

>  <SCORE.INTRA.REPUL.0>
0

>  <SCORE.INTRA.SOLV>
0.0685699

>  <SCORE.INTRA.SOLV.lig_0>
-16.1608

>  <SCORE.INTRA.VDW>
-1.88782

>  <SCORE.INTRA.VDW.0>
1.14169

>  <SCORE.INTRA.norm>
-0.271605

>  <SCORE.RESTR>
0

>  <SCORE.RESTR.CAVITY>
0

>  <SCORE.RESTR.norm>
0

>  <SCORE.SYSTEM>
0

>  <SCORE.SYSTEM.CONST>
0

>  <SCORE.SYSTEM.DIHEDRAL>
0

>  <SCORE.SYSTEM.SOLV>
0

>  <SCORE.SYSTEM.norm>
0

>  <SCORE.heavy>
12

>  <SCORE.norm>
-1.15561

>  <RMSD>
28.054

$$$$
ligand
 OpenBabel11021811493D
libRbt.so/2013.1/901 2013/11/27
 12 12  0  0  0  0  0  0  0  0999 V2000
   35.3245   -0.9492   25.7680 N   0  0  0  0  0  0  0  0  0  0  0  0
   33.3996   -2.9252   22.0502 O   0  0  0  0  0  0  0  0  0  0  0  0
   34.8131   -1.2650   27.1244 C   0  0  0  0  0  0  0  0  0  0  0  0
   33.8497   -5.0392   22.9989 O   0  0  0  0  0  0  0  0  0  0  0  0
   35.7978   -0.7126   28.1498 C   0  0  0  0  0  0  0  0  0  0  0  0
   31.9340   -3.7391   23.8200 O   0  0  0  0  0  0  0  0  0  0  0  0
   35.8403    0.7494   28.0512 N   0  0  0  0  0  0  0  0  0  0  0  0
   34.9554    1.1569   26.9570 C   0  0  0  0  0  0  0  0  0  0  0  0
   35.4967    0.5149   25.6911 C   0  0  0  0  0  0  0  0  0  0  0  0
   34.4884   -1.4620   24.6108 C   0  0  0  0  0  0  0  0  0  0  0  0
   34.6121   -2.9723   24.2798 C   0  0  0  0  0  0  0  0  0  0  0  0
   33.4562   -3.6804   23.2670 S   0  0  0  0  0  0  0  0  0  0  0  0
  1  3  1  0  0  0  0
  1  9  1  0  0  0  0
  1 10  1  0  0  0  0
  2 12  1  0  0  0  0
  3  5  1  0  0  0  0
  4 12  2  0  0  0  0
  5  7  1  0  0  0  0
  6 12  2  0  0  0  0
  7  8  1  0  0  0  0
  8  9  1  0  0  0  0
 10 11  1  0  0  0  0
 11 12  1  0  0  0  0
M  END
>  <CHROM.1>
-77.09096424,165.56442118,54.25239873,34.35520017,-1.94831635,24.97610938
0.05603315,-1.21380634,-0.71060383

>  <Name>
ligand

>  <RI>
0

>  <Rbt.Current_Directory>
/home/itssahil/PROJECTS/Mol_Feturizer/New_Systems/rnas/4E8N

>  <Rbt.Executable>
rbdock ($Id: //depot/dev/client3/rdock/2013.1/src/exe/rbdock.cxx#4 $)

>  <Rbt.Library>
libRbt.so (2013.1, Build901 2013/11/27)

>  <Rbt.Parameter_File>
/export/apps/rDock/src/rDock_2013.1_src/data/scripts/dock_solv.prm

>  <Rbt.Receptor>
prm/blind_docking_60.prm

>  <SCORE>
-14.9032

>  <SCORE.INTER>
-11.2891

>  <SCORE.INTER.CONST>
1

>  <SCORE.INTER.POLAR>
0

>  <SCORE.INTER.ROT>
3

>  <SCORE.INTER.SOLV>
7.95302

>  <SCORE.INTER.VDW>
-15.7771

>  <SCORE.INTER.norm>
-0.940762

>  <SCORE.INTRA>
-3.61408

>  <SCORE.INTRA.DIHEDRAL>
-3.66959

>  <SCORE.INTRA.DIHEDRAL.0>
5.0186

>  <SCORE.INTRA.POLAR>
0

>  <SCORE.INTRA.POLAR.0>
0

>  <SCORE.INTRA.REPUL>
0

>  <SCORE.INTRA.REPUL.0>
0

>  <SCORE.INTRA.SOLV>
-0.115397

>  <SCORE.INTRA.SOLV.lig_0>
-16.1608

>  <SCORE.INTRA.VDW>
-1.72159

>  <SCORE.INTRA.VDW.0>
1.14169

>  <SCORE.INTRA.norm>
-0.301173

>  <SCORE.RESTR>
0

>  <SCORE.RESTR.CAVITY>
0

>  <SCORE.RESTR.norm>
0

>  <SCORE.SYSTEM>
0

>  <SCORE.SYSTEM.CONST>
0

>  <SCORE.SYSTEM.DIHEDRAL>
0

>  <SCORE.SYSTEM.SOLV>
0

>  <SCORE.SYSTEM.norm>
0

>  <SCORE.heavy>
12

>  <SCORE.norm>
-1.24194

>  <RMSD>
28.070

$$$$
ligand
 OpenBabel11021811493D
libRbt.so/2013.1/901 2013/11/27
 12 12  0  0  0  0  0  0  0  0999 V2000
   15.3471    2.0234    4.7673 N   0  0  0  0  0  0  0  0  0  0  0  0
   16.9773    3.9682    2.9264 O   0  0  0  0  0  0  0  0  0  0  0  0
   16.6970    1.5713    5.1848 C   0  0  0  0  0  0  0  0  0  0  0  0
   16.5342    3.7448    0.6187 O   0  0  0  0  0  0  0  0  0  0  0  0
   17.0324    2.2285    6.5196 C   0  0  0  0  0  0  0  0  0  0  0  0
   14.7718    4.5990    2.1016 O   0  0  0  0  0  0  0  0  0  0  0  0
   16.0994    1.7566    7.5471 N   0  0  0  0  0  0  0  0  0  0  0  0
   15.1363    0.8569    6.9075 C   0  0  0  0  0  0  0  0  0  0  0  0
   14.4087    1.6704    5.8508 C   0  0  0  0  0  0  0  0  0  0  0  0
   14.8591    1.4992    3.4301 C   0  0  0  0  0  0  0  0  0  0  0  0
   15.6714    1.9239    2.1788 C   0  0  0  0  0  0  0  0  0  0  0  0
   16.0106    3.5655    1.9480 S   0  0  0  0  0  0  0  0  0  0  0  0
  1  3  1  0  0  0  0
  1  9  1  0  0  0  0
  1 10  1  0  0  0  0
  2 12  1  0  0  0  0
  3  5  1  0  0  0  0
  4 12  2  0  0  0  0
  5  7  1  0  0  0  0
  6 12  2  0  0  0  0
  7  8  1  0  0  0  0
  8  9  1  0  0  0  0
 10 11  1  0  0  0  0
 11 12  1  0  0  0  0
M  END
>  <CHROM.1>
-63.33573753,-50.86430436,70.94469147,15.82484012,2.60624235,3.88636665,1.62222728
0.52500213,1.96320758

>  <Name>
ligand

>  <RI>
0

>  <Rbt.Current_Directory>
/home/itssahil/PROJECTS/Mol_Feturizer/New_Systems/rnas/4E8N

>  <Rbt.Executable>
rbdock ($Id: //depot/dev/client3/rdock/2013.1/src/exe/rbdock.cxx#4 $)

>  <Rbt.Library>
libRbt.so (2013.1, Build901 2013/11/27)

>  <Rbt.Parameter_File>
/export/apps/rDock/src/rDock_2013.1_src/data/scripts/dock_solv.prm

>  <Rbt.Receptor>
prm/blind_docking_20.prm

>  <SCORE>
-9.45994

>  <SCORE.INTER>
-5.04492

>  <SCORE.INTER.CONST>
1

>  <SCORE.INTER.POLAR>
0

>  <SCORE.INTER.ROT>
3

>  <SCORE.INTER.SOLV>
6.98765

>  <SCORE.INTER.VDW>
-11.2925

>  <SCORE.INTER.norm>
-0.42041

>  <SCORE.INTRA>
-4.41501

>  <SCORE.INTRA.DIHEDRAL>
-4.36738

>  <SCORE.INTRA.DIHEDRAL.0>
5.0186

>  <SCORE.INTRA.POLAR>
0

>  <SCORE.INTRA.POLAR.0>
0

>  <SCORE.INTRA.REPUL>
0

>  <SCORE.INTRA.REPUL.0>
0

>  <SCORE.INTRA.SOLV>
0.129746

>  <SCORE.INTRA.SOLV.lig_0>
-16.1608

>  <SCORE.INTRA.VDW>
-2.2962

>  <SCORE.INTRA.VDW.0>
1.14169

>  <SCORE.INTRA.norm>
-0.367918

>  <SCORE.RESTR>
0

>  <SCORE.RESTR.CAVITY>
0

>  <SCORE.RESTR.norm>
0

>  <SCORE.SYSTEM>
0

>  <SCORE.SYSTEM.CONST>
0

>  <SCORE.SYSTEM.DIHEDRAL>
0

>  <SCORE.SYSTEM.SOLV>
0

>  <SCORE.SYSTEM.norm>
0

>  <SCORE.heavy>
12

>  <SCORE.norm>
-0.788328

>  <RMSD>
28.084

$$$$
ligand
 OpenBabel11021811493D
libRbt.so/2013.1/901 2013/11/27
 12 12  0  0  0  0  0  0  0  0999 V2000
   34.7169   -0.1944   25.5801 N   0  0  0  0  0  0  0  0  0  0  0  0
   34.7848   -3.6035   24.1445 O   0  0  0  0  0  0  0  0  0  0  0  0
   35.2476    0.9475   26.3645 C   0  0  0  0  0  0  0  0  0  0  0  0
   32.7678   -2.3896   24.3182 O   0  0  0  0  0  0  0  0  0  0  0  0
   34.2853    1.2298   27.5136 C   0  0  0  0  0  0  0  0  0  0  0  0
   33.3339   -3.4774   22.1896 O   0  0  0  0  0  0  0  0  0  0  0  0
   34.2549    0.0795   28.4219 N   0  0  0  0  0  0  0  0  0  0  0  0
   35.1254   -0.9603   27.8675 C   0  0  0  0  0  0  0  0  0  0  0  0
   34.5573   -1.3311   26.5082 C   0  0  0  0  0  0  0  0  0  0  0  0
   35.5289   -0.5937   24.3625 C   0  0  0  0  0  0  0  0  0  0  0  0
   34.7502   -1.2505   23.1928 C   0  0  0  0  0  0  0  0  0  0  0  0
   33.9035   -2.6863   23.4842 S   0  0  0  0  0  0  0  0  0  0  0  0
  1  3  1  0  0  0  0
  1  9  1  0  0  0  0
  1 10  1  0  0  0  0
  2 12  1  0  0  0  0
  3  5  1  0  0  0  0
  4 12  2  0  0  0  0
  5  7  1  0  0  0  0
  6 12  2  0  0  0  0
  7  8  1  0  0  0  0
  8  9  1  0  0  0  0
 10 11  1  0  0  0  0
 11 12  1  0  0  0  0
M  END
>  <CHROM.1>
-151.77822489,-59.48411713,-49.87951056,34.36296827,-1.38750090,25.10080821
-1.16831797,-1.14463811,-1.84936432

>  <Name>
ligand

>  <RI>
0

>  <Rbt.Current_Directory>
/home/itssahil/PROJECTS/Mol_Feturizer/New_Systems/rnas/4E8N

>  <Rbt.Executable>
rbdock ($Id: //depot/dev/client3/rdock/2013.1/src/exe/rbdock.cxx#4 $)

>  <Rbt.Library>
libRbt.so (2013.1, Build901 2013/11/27)

>  <Rbt.Parameter_File>
/export/apps/rDock/src/rDock_2013.1_src/data/scripts/dock_solv.prm

>  <Rbt.Receptor>
prm/blind_docking_60.prm

>  <SCORE>
-15.3124

>  <SCORE.INTER>
-11.34

>  <SCORE.INTER.CONST>
1

>  <SCORE.INTER.POLAR>
0

>  <SCORE.INTER.ROT>
3

>  <SCORE.INTER.SOLV>
7.79462

>  <SCORE.INTER.VDW>
-15.7582

>  <SCORE.INTER.norm>
-0.945001

>  <SCORE.INTRA>
-3.97237

>  <SCORE.INTRA.DIHEDRAL>
-3.75824

>  <SCORE.INTRA.DIHEDRAL.0>
5.0186

>  <SCORE.INTRA.POLAR>
0

>  <SCORE.INTRA.POLAR.0>
0

>  <SCORE.INTRA.REPUL>
0

>  <SCORE.INTRA.REPUL.0>
0

>  <SCORE.INTRA.SOLV>
0.430946

>  <SCORE.INTRA.SOLV.lig_0>
-16.1608

>  <SCORE.INTRA.VDW>
-2.30872

>  <SCORE.INTRA.VDW.0>
1.14169

>  <SCORE.INTRA.norm>
-0.331031

>  <SCORE.RESTR>
0

>  <SCORE.RESTR.CAVITY>
0

>  <SCORE.RESTR.norm>
0

>  <SCORE.SYSTEM>
0

>  <SCORE.SYSTEM.CONST>
0

>  <SCORE.SYSTEM.DIHEDRAL>
0

>  <SCORE.SYSTEM.SOLV>
0

>  <SCORE.SYSTEM.norm>
0

>  <SCORE.heavy>
12

>  <SCORE.norm>
-1.27603

>  <RMSD>
28.423

$$$$
ligand
 OpenBabel11021811493D
libRbt.so/2013.1/901 2013/11/27
 12 12  0  0  0  0  0  0  0  0999 V2000
   34.6545   -0.1648   25.7195 N   0  0  0  0  0  0  0  0  0  0  0  0
   34.7598   -3.5844   24.2369 O   0  0  0  0  0  0  0  0  0  0  0  0
   35.1517    0.9782   26.5241 C   0  0  0  0  0  0  0  0  0  0  0  0
   32.7595   -2.3362   24.3478 O   0  0  0  0  0  0  0  0  0  0  0  0
   34.1281    1.2801   27.6137 C   0  0  0  0  0  0  0  0  0  0  0  0
   33.3986   -3.3920   22.2237 O   0  0  0  0  0  0  0  0  0  0  0  0
   34.0331    0.1379   28.5278 N   0  0  0  0  0  0  0  0  0  0  0  0
   34.9226   -0.9155   28.0325 C   0  0  0  0  0  0  0  0  0  0  0  0
   34.4294   -1.2918   26.6458 C   0  0  0  0  0  0  0  0  0  0  0  0
   35.5306   -0.5828   24.5538 C   0  0  0  0  0  0  0  0  0  0  0  0
   34.8096   -1.2128   23.3335 C   0  0  0  0  0  0  0  0  0  0  0  0
   33.9250   -2.6377   23.5580 S   0  0  0  0  0  0  0  0  0  0  0  0
  1  3  1  0  0  0  0
  1  9  1  0  0  0  0
  1 10  1  0  0  0  0
  2 12  1  0  0  0  0
  3  5  1  0  0  0  0
  4 12  2  0  0  0  0
  5  7  1  0  0  0  0
  6 12  2  0  0  0  0
  7  8  1  0  0  0  0
  8  9  1  0  0  0  0
 10 11  1  0  0  0  0
 11 12  1  0  0  0  0
M  END
>  <CHROM.1>
-150.47733687,-60.40419237,-50.77841820,34.31033331,-1.34426914,25.20923906
-1.28459976,-1.11254632,-1.95221523

>  <Name>
ligand

>  <RI>
0

>  <Rbt.Current_Directory>
/home/itssahil/PROJECTS/Mol_Feturizer/New_Systems/rnas/4E8N

>  <Rbt.Executable>
rbdock ($Id: //depot/dev/client3/rdock/2013.1/src/exe/rbdock.cxx#4 $)

>  <Rbt.Library>
libRbt.so (2013.1, Build901 2013/11/27)

>  <Rbt.Parameter_File>
/export/apps/rDock/src/rDock_2013.1_src/data/scripts/dock_solv.prm

>  <Rbt.Receptor>
prm/blind_docking_60.prm

>  <SCORE>
-15.2099

>  <SCORE.INTER>
-11.2283

>  <SCORE.INTER.CONST>
1

>  <SCORE.INTER.POLAR>
0

>  <SCORE.INTER.ROT>
3

>  <SCORE.INTER.SOLV>
7.98324

>  <SCORE.INTER.VDW>
-15.7466

>  <SCORE.INTER.norm>
-0.935694

>  <SCORE.INTRA>
-3.9816

>  <SCORE.INTRA.DIHEDRAL>
-3.71994

>  <SCORE.INTRA.DIHEDRAL.0>
5.0186

>  <SCORE.INTRA.POLAR>
0

>  <SCORE.INTRA.POLAR.0>
0

>  <SCORE.INTRA.REPUL>
0

>  <SCORE.INTRA.REPUL.0>
0

>  <SCORE.INTRA.SOLV>
0.435585

>  <SCORE.INTRA.SOLV.lig_0>
-16.1608

>  <SCORE.INTRA.VDW>
-2.33942

>  <SCORE.INTRA.VDW.0>
1.14169

>  <SCORE.INTRA.norm>
-0.3318

>  <SCORE.RESTR>
0

>  <SCORE.RESTR.CAVITY>
0

>  <SCORE.RESTR.norm>
0

>  <SCORE.SYSTEM>
0

>  <SCORE.SYSTEM.CONST>
0

>  <SCORE.SYSTEM.DIHEDRAL>
0

>  <SCORE.SYSTEM.SOLV>
0

>  <SCORE.SYSTEM.norm>
0

>  <SCORE.heavy>
12

>  <SCORE.norm>
-1.26749

>  <RMSD>
28.526

$$$$
ligand
 OpenBabel11021811493D
libRbt.so/2013.1/901 2013/11/27
 12 12  0  0  0  0  0  0  0  0999 V2000
   34.6971   -0.8745   25.7069 N   0  0  0  0  0  0  0  0  0  0  0  0
   34.7106   -0.2909   21.1179 O   0  0  0  0  0  0  0  0  0  0  0  0
   35.8412    0.0539   25.8803 C   0  0  0  0  0  0  0  0  0  0  0  0
   35.0064    0.8166   23.1813 O   0  0  0  0  0  0  0  0  0  0  0  0
   35.4426    1.1244   26.8908 C   0  0  0  0  0  0  0  0  0  0  0  0
   36.8634   -0.4904   22.2442 O   0  0  0  0  0  0  0  0  0  0  0  0
   35.2095    0.5028   28.1978 N   0  0  0  0  0  0  0  0  0  0  0  0
   35.3910   -0.9435   28.0520 C   0  0  0  0  0  0  0  0  0  0  0  0
   34.3625   -1.4161   27.0387 C   0  0  0  0  0  0  0  0  0  0  0  0
   34.8984   -1.9900   24.6988 C   0  0  0  0  0  0  0  0  0  0  0  0
   34.5012   -1.6807   23.2316 C   0  0  0  0  0  0  0  0  0  0  0  0
   35.2576   -0.3912   22.4388 S   0  0  0  0  0  0  0  0  0  0  0  0
  1  3  1  0  0  0  0
  1  9  1  0  0  0  0
  1 10  1  0  0  0  0
  2 12  1  0  0  0  0
  3  5  1  0  0  0  0
  4 12  2  0  0  0  0
  5  7  1  0  0  0  0
  6 12  2  0  0  0  0
  7  8  1  0  0  0  0
  8  9  1  0  0  0  0
 10 11  1  0  0  0  0
 11 12  1  0  0  0  0
M  END
>  <CHROM.1>
-89.15405780,58.89545986,-178.93742981,35.19956422,-0.44342508,24.57614506
1.64860174,1.18012497,1.47130404

>  <Name>
ligand

>  <RI>
0

>  <Rbt.Current_Directory>
/home/itssahil/PROJECTS/Mol_Feturizer/New_Systems/rnas/4E8N

>  <Rbt.Executable>
rbdock ($Id: //depot/dev/client3/rdock/2013.1/src/exe/rbdock.cxx#4 $)

>  <Rbt.Library>
libRbt.so (2013.1, Build901 2013/11/27)

>  <Rbt.Parameter_File>
/export/apps/rDock/src/rDock_2013.1_src/data/scripts/dock_solv.prm

>  <Rbt.Receptor>
prm/blind_docking_100.prm

>  <SCORE>
-13.3158

>  <SCORE.INTER>
-9.58565

>  <SCORE.INTER.CONST>
1

>  <SCORE.INTER.POLAR>
0

>  <SCORE.INTER.ROT>
3

>  <SCORE.INTER.SOLV>
7.69934

>  <SCORE.INTER.VDW>
-14.5569

>  <SCORE.INTER.norm>
-0.798805

>  <SCORE.INTRA>
-3.73017

>  <SCORE.INTRA.DIHEDRAL>
-3.77284

>  <SCORE.INTRA.DIHEDRAL.0>
5.0186

>  <SCORE.INTRA.POLAR>
0

>  <SCORE.INTRA.POLAR.0>
0

>  <SCORE.INTRA.REPUL>
0

>  <SCORE.INTRA.REPUL.0>
0

>  <SCORE.INTRA.SOLV>
1.01779

>  <SCORE.INTRA.SOLV.lig_0>
-16.1608

>  <SCORE.INTRA.VDW>
-2.35264

>  <SCORE.INTRA.VDW.0>
1.14169

>  <SCORE.INTRA.norm>
-0.310847

>  <SCORE.RESTR>
0

>  <SCORE.RESTR.CAVITY>
0

>  <SCORE.RESTR.norm>
0

>  <SCORE.SYSTEM>
0

>  <SCORE.SYSTEM.CONST>
0

>  <SCORE.SYSTEM.DIHEDRAL>
0

>  <SCORE.SYSTEM.SOLV>
0

>  <SCORE.SYSTEM.norm>
0

>  <SCORE.heavy>
12

>  <SCORE.norm>
-1.10965

>  <RMSD>
28.725

$$$$
ligand
 OpenBabel11021811493D
libRbt.so/2013.1/901 2013/11/27
 12 12  0  0  0  0  0  0  0  0999 V2000
   34.6178   -0.5940   26.2801 N   0  0  0  0  0  0  0  0  0  0  0  0
   33.5063   -3.9133   23.1443 O   0  0  0  0  0  0  0  0  0  0  0  0
   34.8184    0.8230   26.6710 C   0  0  0  0  0  0  0  0  0  0  0  0
   32.5432   -2.1759   24.4192 O   0  0  0  0  0  0  0  0  0  0  0  0
   33.8586    1.1476   27.8109 C   0  0  0  0  0  0  0  0  0  0  0  0
   33.5778   -1.6445   22.2554 O   0  0  0  0  0  0  0  0  0  0  0  0
   34.2005    0.3396   28.9854 N   0  0  0  0  0  0  0  0  0  0  0  0
   35.3168   -0.5376   28.6240 C   0  0  0  0  0  0  0  0  0  0  0  0
   34.8329   -1.4190   27.4852 C   0  0  0  0  0  0  0  0  0  0  0  0
   35.4659   -1.0865   25.1229 C   0  0  0  0  0  0  0  0  0  0  0  0
   35.0745   -2.4556   24.5078 C   0  0  0  0  0  0  0  0  0  0  0  0
   33.6564   -2.5597   23.5905 S   0  0  0  0  0  0  0  0  0  0  0  0
  1  3  1  0  0  0  0
  1  9  1  0  0  0  0
  1 10  1  0  0  0  0
  2 12  1  0  0  0  0
  3  5  1  0  0  0  0
  4 12  2  0  0  0  0
  5  7  1  0  0  0  0
  6 12  2  0  0  0  0
  7  8  1  0  0  0  0
  8  9  1  0  0  0  0
 10 11  1  0  0  0  0
 11 12  1  0  0  0  0
M  END
>  <CHROM.1>
-167.78098138,71.37350652,-179.53663799,34.19647299,-1.34654005,25.46324381
1.15708226,-1.10463162,0.65627660

>  <Name>
ligand

>  <RI>
0

>  <Rbt.Current_Directory>
/home/itssahil/PROJECTS/Mol_Feturizer/New_Systems/rnas/4E8N

>  <Rbt.Executable>
rbdock ($Id: //depot/dev/client3/rdock/2013.1/src/exe/rbdock.cxx#4 $)

>  <Rbt.Library>
libRbt.so (2013.1, Build901 2013/11/27)

>  <Rbt.Parameter_File>
/export/apps/rDock/src/rDock_2013.1_src/data/scripts/dock_solv.prm

>  <Rbt.Receptor>
prm/blind_docking_100.prm

>  <SCORE>
-14.6657

>  <SCORE.INTER>
-10.9025

>  <SCORE.INTER.CONST>
1

>  <SCORE.INTER.POLAR>
0

>  <SCORE.INTER.ROT>
3

>  <SCORE.INTER.SOLV>
9.03363

>  <SCORE.INTER.VDW>
-15.8795

>  <SCORE.INTER.norm>
-0.908538

>  <SCORE.INTRA>
-3.76329

>  <SCORE.INTRA.DIHEDRAL>
-4.35269

>  <SCORE.INTRA.DIHEDRAL.0>
5.0186

>  <SCORE.INTRA.POLAR>
0

>  <SCORE.INTRA.POLAR.0>
0

>  <SCORE.INTRA.REPUL>
0

>  <SCORE.INTRA.REPUL.0>
0

>  <SCORE.INTRA.SOLV>
0.599786

>  <SCORE.INTRA.SOLV.lig_0>
-16.1608

>  <SCORE.INTRA.VDW>
-1.88683

>  <SCORE.INTRA.VDW.0>
1.14169

>  <SCORE.INTRA.norm>
-0.313607

>  <SCORE.RESTR>
0

>  <SCORE.RESTR.CAVITY>
0

>  <SCORE.RESTR.norm>
0

>  <SCORE.SYSTEM>
0

>  <SCORE.SYSTEM.CONST>
0

>  <SCORE.SYSTEM.DIHEDRAL>
0

>  <SCORE.SYSTEM.SOLV>
0

>  <SCORE.SYSTEM.norm>
0

>  <SCORE.heavy>
12

>  <SCORE.norm>
-1.22215

>  <RMSD>
28.730

$$$$
ligand
 OpenBabel11021811493D
libRbt.so/2013.1/901 2013/11/27
 12 12  0  0  0  0  0  0  0  0999 V2000
   34.8319   -0.8900   25.3057 N   0  0  0  0  0  0  0  0  0  0  0  0
   33.6573    1.5082   27.9270 O   0  0  0  0  0  0  0  0  0  0  0  0
   34.8852   -2.3411   25.0015 C   0  0  0  0  0  0  0  0  0  0  0  0
   32.4895   -0.4837   27.4363 O   0  0  0  0  0  0  0  0  0  0  0  0
   33.9880   -2.6132   23.7985 C   0  0  0  0  0  0  0  0  0  0  0  0
   33.0030    0.0606   29.7761 O   0  0  0  0  0  0  0  0  0  0  0  0
   34.5223   -1.9215   22.6216 N   0  0  0  0  0  0  0  0  0  0  0  0
   35.7063   -1.1656   23.0374 C   0  0  0  0  0  0  0  0  0  0  0  0
   35.2454   -0.1680   24.0864 C   0  0  0  0  0  0  0  0  0  0  0  0
   35.6381   -0.4371   26.5082 C   0  0  0  0  0  0  0  0  0  0  0  0
   34.9895   -0.6523   27.9007 C   0  0  0  0  0  0  0  0  0  0  0  0
   33.5212    0.1166   28.2417 S   0  0  0  0  0  0  0  0  0  0  0  0
  1  3  1  0  0  0  0
  1  9  1  0  0  0  0
  1 10  1  0  0  0  0
  2 12  1  0  0  0  0
  3  5  1  0  0  0  0
  4 12  2  0  0  0  0
  5  7  1  0  0  0  0
  6 12  2  0  0  0  0
  7  8  1  0  0  0  0
  8  9  1  0  0  0  0
 10 11  1  0  0  0  0
 11 12  1  0  0  0  0
M  END
>  <CHROM.1>
-80.58054138,-60.91532481,-51.09875204,34.25242755,-0.63339795,26.25779176
-1.21405980,0.67564142,0.98238293

>  <Name>
ligand

>  <RI>
0

>  <Rbt.Current_Directory>
/home/itssahil/PROJECTS/Mol_Feturizer/New_Systems/rnas/4E8N

>  <Rbt.Executable>
rbdock ($Id: //depot/dev/client3/rdock/2013.1/src/exe/rbdock.cxx#4 $)

>  <Rbt.Library>
libRbt.so (2013.1, Build901 2013/11/27)

>  <Rbt.Parameter_File>
/export/apps/rDock/src/rDock_2013.1_src/data/scripts/dock_solv.prm

>  <Rbt.Receptor>
prm/blind_docking_100.prm

>  <SCORE>
-15.551

>  <SCORE.INTER>
-11.4305

>  <SCORE.INTER.CONST>
1

>  <SCORE.INTER.POLAR>
0

>  <SCORE.INTER.ROT>
3

>  <SCORE.INTER.SOLV>
9.33246

>  <SCORE.INTER.VDW>
-16.3311

>  <SCORE.INTER.norm>
-0.952541

>  <SCORE.INTRA>
-4.12056

>  <SCORE.INTRA.DIHEDRAL>
-4.09833

>  <SCORE.INTRA.DIHEDRAL.0>
5.0186

>  <SCORE.INTRA.POLAR>
0

>  <SCORE.INTRA.POLAR.0>
0

>  <SCORE.INTRA.REPUL>
0

>  <SCORE.INTRA.REPUL.0>
0

>  <SCORE.INTRA.SOLV>
0.45328

>  <SCORE.INTRA.SOLV.lig_0>
-16.1608

>  <SCORE.INTRA.VDW>
-2.29803

>  <SCORE.INTRA.VDW.0>
1.14169

>  <SCORE.INTRA.norm>
-0.34338

>  <SCORE.RESTR>
0

>  <SCORE.RESTR.CAVITY>
0

>  <SCORE.RESTR.norm>
0

>  <SCORE.SYSTEM>
0

>  <SCORE.SYSTEM.CONST>
0

>  <SCORE.SYSTEM.DIHEDRAL>
0

>  <SCORE.SYSTEM.SOLV>
0

>  <SCORE.SYSTEM.norm>
0

>  <SCORE.heavy>
12

>  <SCORE.norm>
-1.29592

>  <RMSD>
28.745

$$$$
ligand
 OpenBabel11021811493D
libRbt.so/2013.1/901 2013/11/27
 12 12  0  0  0  0  0  0  0  0999 V2000
   34.9032   -0.7941   25.3452 N   0  0  0  0  0  0  0  0  0  0  0  0
   33.4137   -0.0570   29.6808 O   0  0  0  0  0  0  0  0  0  0  0  0
   34.9401   -2.2586   25.1114 C   0  0  0  0  0  0  0  0  0  0  0  0
   33.6857    1.5724   27.9947 O   0  0  0  0  0  0  0  0  0  0  0  0
   33.9936   -2.5856   23.9610 C   0  0  0  0  0  0  0  0  0  0  0  0
   32.4011   -0.4624   27.5007 O   0  0  0  0  0  0  0  0  0  0  0  0
   34.4810   -1.9554   22.7304 N   0  0  0  0  0  0  0  0  0  0  0  0
   35.6831   -1.1854   23.0596 C   0  0  0  0  0  0  0  0  0  0  0  0
   35.2682   -0.1351   24.0758 C   0  0  0  0  0  0  0  0  0  0  0  0
   35.7592   -0.2861   26.4899 C   0  0  0  0  0  0  0  0  0  0  0  0
   35.1930   -0.4810   27.9208 C   0  0  0  0  0  0  0  0  0  0  0  0
   33.6719    0.1628   28.2883 S   0  0  0  0  0  0  0  0  0  0  0  0
  1  3  1  0  0  0  0
  1  9  1  0  0  0  0
  1 10  1  0  0  0  0
  2 12  1  0  0  0  0
  3  5  1  0  0  0  0
  4 12  2  0  0  0  0
  5  7  1  0  0  0  0
  6 12  2  0  0  0  0
  7  8  1  0  0  0  0
  8  9  1  0  0  0  0
 10 11  1  0  0  0  0
 11 12  1  0  0  0  0
M  END
>  <CHROM.1>
-78.19134561,-56.62502324,-175.75955378,34.33699618,-0.59133701,26.30031053
-1.26785595,0.60515667,1.03029524

>  <Name>
ligand

>  <RI>
0

>  <Rbt.Current_Directory>
/home/itssahil/PROJECTS/Mol_Feturizer/New_Systems/rnas/4E8N

>  <Rbt.Executable>
rbdock ($Id: //depot/dev/client3/rdock/2013.1/src/exe/rbdock.cxx#4 $)

>  <Rbt.Library>
libRbt.so (2013.1, Build901 2013/11/27)

>  <Rbt.Parameter_File>
/export/apps/rDock/src/rDock_2013.1_src/data/scripts/dock_solv.prm

>  <Rbt.Receptor>
prm/blind_docking_60.prm

>  <SCORE>
-14.8785

>  <SCORE.INTER>
-10.7622

>  <SCORE.INTER.CONST>
1

>  <SCORE.INTER.POLAR>
0

>  <SCORE.INTER.ROT>
3

>  <SCORE.INTER.SOLV>
9.06318

>  <SCORE.INTER.VDW>
-15.7959

>  <SCORE.INTER.norm>
-0.896854

>  <SCORE.INTRA>
-4.11621

>  <SCORE.INTRA.DIHEDRAL>
-4.34445

>  <SCORE.INTRA.DIHEDRAL.0>
5.0186

>  <SCORE.INTRA.POLAR>
0

>  <SCORE.INTRA.POLAR.0>
0

>  <SCORE.INTRA.REPUL>
0

>  <SCORE.INTRA.REPUL.0>
0

>  <SCORE.INTRA.SOLV>
0.758104

>  <SCORE.INTRA.SOLV.lig_0>
-16.1608

>  <SCORE.INTRA.VDW>
-2.32304

>  <SCORE.INTRA.VDW.0>
1.14169

>  <SCORE.INTRA.norm>
-0.343017

>  <SCORE.RESTR>
0

>  <SCORE.RESTR.CAVITY>
0

>  <SCORE.RESTR.norm>
0

>  <SCORE.SYSTEM>
0

>  <SCORE.SYSTEM.CONST>
0

>  <SCORE.SYSTEM.DIHEDRAL>
0

>  <SCORE.SYSTEM.SOLV>
0

>  <SCORE.SYSTEM.norm>
0

>  <SCORE.heavy>
12

>  <SCORE.norm>
-1.23987

>  <RMSD>
28.819

$$$$
ligand
 OpenBabel11021811493D
libRbt.so/2013.1/901 2013/11/27
 12 12  0  0  0  0  0  0  0  0999 V2000
   34.5628   -0.2678   26.1406 N   0  0  0  0  0  0  0  0  0  0  0  0
   33.6417   -2.4533   22.1157 O   0  0  0  0  0  0  0  0  0  0  0  0
   35.5320    0.7993   26.4911 C   0  0  0  0  0  0  0  0  0  0  0  0
   33.7096   -0.3164   23.1162 O   0  0  0  0  0  0  0  0  0  0  0  0
   34.7501    2.0461   26.8916 C   0  0  0  0  0  0  0  0  0  0  0  0
   35.7897   -1.3107   22.2683 O   0  0  0  0  0  0  0  0  0  0  0  0
   33.9768    1.7711   28.1063 N   0  0  0  0  0  0  0  0  0  0  0  0
   34.1906    0.3690   28.4733 C   0  0  0  0  0  0  0  0  0  0  0  0
   33.6879   -0.4714   27.3119 C   0  0  0  0  0  0  0  0  0  0  0  0
   35.1648   -1.5798   25.6742 C   0  0  0  0  0  0  0  0  0  0  0  0
   34.4245   -2.3149   24.5264 C   0  0  0  0  0  0  0  0  0  0  0  0
   34.3701   -1.5904   22.9982 S   0  0  0  0  0  0  0  0  0  0  0  0
  1  3  1  0  0  0  0
  1  9  1  0  0  0  0
  1 10  1  0  0  0  0
  2 12  1  0  0  0  0
  3  5  1  0  0  0  0
  4 12  2  0  0  0  0
  5  7  1  0  0  0  0
  6 12  2  0  0  0  0
  7  8  1  0  0  0  0
  8  9  1  0  0  0  0
 10 11  1  0  0  0  0
 11 12  1  0  0  0  0
M  END
>  <CHROM.1>
-141.79898197,65.85066896,179.87185469,34.46963804,-0.57934600,25.03496226
1.58975271,1.28276503,1.05280764

>  <Name>
ligand

>  <RI>
0

>  <Rbt.Current_Directory>
/home/itssahil/PROJECTS/Mol_Feturizer/New_Systems/rnas/4E8N

>  <Rbt.Executable>
rbdock ($Id: //depot/dev/client3/rdock/2013.1/src/exe/rbdock.cxx#4 $)

>  <Rbt.Library>
libRbt.so (2013.1, Build901 2013/11/27)

>  <Rbt.Parameter_File>
/export/apps/rDock/src/rDock_2013.1_src/data/scripts/dock_solv.prm

>  <Rbt.Receptor>
prm/blind_docking_60.prm

>  <SCORE>
-14.1096

>  <SCORE.INTER>
-10.4804

>  <SCORE.INTER.CONST>
1

>  <SCORE.INTER.POLAR>
0

>  <SCORE.INTER.ROT>
3

>  <SCORE.INTER.SOLV>
10.1247

>  <SCORE.INTER.VDW>
-15.9619

>  <SCORE.INTER.norm>
-0.873371

>  <SCORE.INTRA>
-3.62911

>  <SCORE.INTRA.DIHEDRAL>
-3.27441

>  <SCORE.INTRA.DIHEDRAL.0>
5.0186

>  <SCORE.INTRA.POLAR>
0

>  <SCORE.INTRA.POLAR.0>
0

>  <SCORE.INTRA.REPUL>
0

>  <SCORE.INTRA.REPUL.0>
0

>  <SCORE.INTRA.SOLV>
0.66085

>  <SCORE.INTRA.SOLV.lig_0>
-16.1608

>  <SCORE.INTRA.VDW>
-2.32233

>  <SCORE.INTRA.VDW.0>
1.14169

>  <SCORE.INTRA.norm>
-0.302426

>  <SCORE.RESTR>
0

>  <SCORE.RESTR.CAVITY>
0

>  <SCORE.RESTR.norm>
0

>  <SCORE.SYSTEM>
0

>  <SCORE.SYSTEM.CONST>
0

>  <SCORE.SYSTEM.DIHEDRAL>
0

>  <SCORE.SYSTEM.SOLV>
0

>  <SCORE.SYSTEM.norm>
0

>  <SCORE.heavy>
12

>  <SCORE.norm>
-1.1758

>  <RMSD>
28.993

$$$$
ligand
 OpenBabel11021811493D
libRbt.so/2013.1/901 2013/11/27
 12 12  0  0  0  0  0  0  0  0999 V2000
   34.3537   -0.3403   26.4294 N   0  0  0  0  0  0  0  0  0  0  0  0
   33.5041   -0.8654   23.2595 O   0  0  0  0  0  0  0  0  0  0  0  0
   35.4433    0.6639   26.5031 C   0  0  0  0  0  0  0  0  0  0  0  0
   33.9350   -3.0942   22.6124 O   0  0  0  0  0  0  0  0  0  0  0  0
   34.8144    2.0454   26.6516 C   0  0  0  0  0  0  0  0  0  0  0  0
   32.2316   -2.6503   24.3260 O   0  0  0  0  0  0  0  0  0  0  0  0
   34.0918    2.1213   27.9248 N   0  0  0  0  0  0  0  0  0  0  0  0
   34.1871    0.8144   28.5799 C   0  0  0  0  0  0  0  0  0  0  0  0
   33.5347   -0.1931   27.6487 C   0  0  0  0  0  0  0  0  0  0  0  0
   34.7935   -1.7794   26.2376 C   0  0  0  0  0  0  0  0  0  0  0  0
   34.9911   -2.2565   24.7750 C   0  0  0  0  0  0  0  0  0  0  0  0
   33.6693   -2.2127   23.7195 S   0  0  0  0  0  0  0  0  0  0  0  0
  1  3  1  0  0  0  0
  1  9  1  0  0  0  0
  1 10  1  0  0  0  0
  2 12  1  0  0  0  0
  3  5  1  0  0  0  0
  4 12  2  0  0  0  0
  5  7  1  0  0  0  0
  6 12  2  0  0  0  0
  7  8  1  0  0  0  0
  8  9  1  0  0  0  0
 10 11  1  0  0  0  0
 11 12  1  0  0  0  0
M  END
>  <CHROM.1>
-87.60461328,-60.37826870,79.44861677,34.05809827,-0.84085951,25.46259066
1.17306375,1.17655737,1.21673322

>  <Name>
ligand

>  <RI>
0

>  <Rbt.Current_Directory>
/home/itssahil/PROJECTS/Mol_Feturizer/New_Systems/rnas/4E8N

>  <Rbt.Executable>
rbdock ($Id: //depot/dev/client3/rdock/2013.1/src/exe/rbdock.cxx#4 $)

>  <Rbt.Library>
libRbt.so (2013.1, Build901 2013/11/27)

>  <Rbt.Parameter_File>
/export/apps/rDock/src/rDock_2013.1_src/data/scripts/dock_solv.prm

>  <Rbt.Receptor>
prm/blind_docking_80.prm

>  <SCORE>
-14.8048

>  <SCORE.INTER>
-11.0408

>  <SCORE.INTER.CONST>
1

>  <SCORE.INTER.POLAR>
0

>  <SCORE.INTER.ROT>
3

>  <SCORE.INTER.SOLV>
10.1044

>  <SCORE.INTER.VDW>
-16.3286

>  <SCORE.INTER.norm>
-0.920063

>  <SCORE.INTRA>
-3.76404

>  <SCORE.INTRA.DIHEDRAL>
-3.00236

>  <SCORE.INTRA.DIHEDRAL.0>
5.0186

>  <SCORE.INTRA.POLAR>
0

>  <SCORE.INTRA.POLAR.0>
0

>  <SCORE.INTRA.REPUL>
0

>  <SCORE.INTRA.REPUL.0>
0

>  <SCORE.INTRA.SOLV>
0.255813

>  <SCORE.INTRA.SOLV.lig_0>
-16.1608

>  <SCORE.INTRA.VDW>
-2.39077

>  <SCORE.INTRA.VDW.0>
1.14169

>  <SCORE.INTRA.norm>
-0.31367

>  <SCORE.RESTR>
0

>  <SCORE.RESTR.CAVITY>
0

>  <SCORE.RESTR.norm>
0

>  <SCORE.SYSTEM>
0

>  <SCORE.SYSTEM.CONST>
0

>  <SCORE.SYSTEM.DIHEDRAL>
0

>  <SCORE.SYSTEM.SOLV>
0

>  <SCORE.SYSTEM.norm>
0

>  <SCORE.heavy>
12

>  <SCORE.norm>
-1.23373

>  <RMSD>
29.041

$$$$
ligand
 OpenBabel11021811493D
libRbt.so/2013.1/901 2013/11/27
 12 12  0  0  0  0  0  0  0  0999 V2000
   34.4417   -0.6735   25.0572 N   0  0  0  0  0  0  0  0  0  0  0  0
   32.5610    0.0424   29.7825 O   0  0  0  0  0  0  0  0  0  0  0  0
   34.5536   -2.0876   24.6227 C   0  0  0  0  0  0  0  0  0  0  0  0
   34.8558   -0.5064   29.7175 O   0  0  0  0  0  0  0  0  0  0  0  0
   34.1507   -2.1724   23.1541 C   0  0  0  0  0  0  0  0  0  0  0  0
   34.1514    1.7759   29.1435 O   0  0  0  0  0  0  0  0  0  0  0  0
   35.1019   -1.4104   22.3395 N   0  0  0  0  0  0  0  0  0  0  0  0
   36.0762   -0.7895   23.2404 C   0  0  0  0  0  0  0  0  0  0  0  0
   35.2971    0.1318   24.1634 C   0  0  0  0  0  0  0  0  0  0  0  0
   34.7664   -0.4023   26.5139 C   0  0  0  0  0  0  0  0  0  0  0  0
   33.5802   -0.4564   27.5120 C   0  0  0  0  0  0  0  0  0  0  0  0
   33.7877    0.1990   29.0582 S   0  0  0  0  0  0  0  0  0  0  0  0
  1  3  1  0  0  0  0
  1  9  1  0  0  0  0
  1 10  1  0  0  0  0
  2 12  1  0  0  0  0
  3  5  1  0  0  0  0
  4 12  2  0  0  0  0
  5  7  1  0  0  0  0
  6 12  2  0  0  0  0
  7  8  1  0  0  0  0
  8  9  1  0  0  0  0
 10 11  1  0  0  0  0
 11 12  1  0  0  0  0
M  END
>  <CHROM.1>
-91.26620015,-165.10806716,179.44256583,34.36393943,-0.43094663,26.56477684
1.24241613,-0.89508456,-2.09393317

>  <Name>
ligand

>  <RI>
0

>  <Rbt.Current_Directory>
/home/itssahil/PROJECTS/Mol_Feturizer/New_Systems/rnas/4E8N

>  <Rbt.Executable>
rbdock ($Id: //depot/dev/client3/rdock/2013.1/src/exe/rbdock.cxx#4 $)

>  <Rbt.Library>
libRbt.so (2013.1, Build901 2013/11/27)

>  <Rbt.Parameter_File>
/export/apps/rDock/src/rDock_2013.1_src/data/scripts/dock_solv.prm

>  <Rbt.Receptor>
prm/blind_docking_80.prm

>  <SCORE>
-12.1854

>  <SCORE.INTER>
-8.98479

>  <SCORE.INTER.CONST>
1

>  <SCORE.INTER.POLAR>
0

>  <SCORE.INTER.ROT>
3

>  <SCORE.INTER.SOLV>
8.30633

>  <SCORE.INTER.VDW>
-14.3586

>  <SCORE.INTER.norm>
-0.748733

>  <SCORE.INTRA>
-3.20056

>  <SCORE.INTRA.DIHEDRAL>
-2.85237

>  <SCORE.INTRA.DIHEDRAL.0>
5.0186

>  <SCORE.INTRA.POLAR>
0

>  <SCORE.INTRA.POLAR.0>
0

>  <SCORE.INTRA.REPUL>
0

>  <SCORE.INTRA.REPUL.0>
0

>  <SCORE.INTRA.SOLV>
0.0714778

>  <SCORE.INTRA.SOLV.lig_0>
-16.1608

>  <SCORE.INTRA.VDW>
-1.81011

>  <SCORE.INTRA.VDW.0>
1.14169

>  <SCORE.INTRA.norm>
-0.266713

>  <SCORE.RESTR>
0

>  <SCORE.RESTR.CAVITY>
0

>  <SCORE.RESTR.norm>
0

>  <SCORE.SYSTEM>
0

>  <SCORE.SYSTEM.CONST>
0

>  <SCORE.SYSTEM.DIHEDRAL>
0

>  <SCORE.SYSTEM.SOLV>
0

>  <SCORE.SYSTEM.norm>
0

>  <SCORE.heavy>
12

>  <SCORE.norm>
-1.01545

>  <RMSD>
29.073

$$$$
ligand
 OpenBabel11021811493D
libRbt.so/2013.1/901 2013/11/27
 12 12  0  0  0  0  0  0  0  0999 V2000
   34.4773   -0.7942   25.1278 N   0  0  0  0  0  0  0  0  0  0  0  0
   34.0443    2.5387   28.3944 O   0  0  0  0  0  0  0  0  0  0  0  0
   34.4239   -2.0725   24.3768 C   0  0  0  0  0  0  0  0  0  0  0  0
   36.1527    1.8313   27.6033 O   0  0  0  0  0  0  0  0  0  0  0  0
   33.9947   -1.7710   22.9447 C   0  0  0  0  0  0  0  0  0  0  0  0
   34.4268    2.4978   25.9872 O   0  0  0  0  0  0  0  0  0  0  0  0
   35.0146   -0.9461   22.2901 N   0  0  0  0  0  0  0  0  0  0  0  0
   36.0642   -0.6583   23.2708 C   0  0  0  0  0  0  0  0  0  0  0  0
   35.4058    0.1010   24.4099 C   0  0  0  0  0  0  0  0  0  0  0  0
   34.8495   -0.9045   26.5943 C   0  0  0  0  0  0  0  0  0  0  0  0
   34.2358    0.1532   27.5485 C   0  0  0  0  0  0  0  0  0  0  0  0
   34.7287    1.7652   27.4009 S   0  0  0  0  0  0  0  0  0  0  0  0
  1  3  1  0  0  0  0
  1  9  1  0  0  0  0
  1 10  1  0  0  0  0
  2 12  1  0  0  0  0
  3  5  1  0  0  0  0
  4 12  2  0  0  0  0
  5  7  1  0  0  0  0
  6 12  2  0  0  0  0
  7  8  1  0  0  0  0
  8  9  1  0  0  0  0
 10 11  1  0  0  0  0
 11 12  1  0  0  0  0
M  END
>  <CHROM.1>
-148.97302028,-67.69850999,-179.12827170,34.81154950,0.36326606,25.73124932
1.50842433,-1.18761358,-2.27204972

>  <Name>
ligand

>  <RI>
0

>  <Rbt.Current_Directory>
/home/itssahil/PROJECTS/Mol_Feturizer/New_Systems/rnas/4E8N

>  <Rbt.Executable>
rbdock ($Id: //depot/dev/client3/rdock/2013.1/src/exe/rbdock.cxx#4 $)

>  <Rbt.Library>
libRbt.so (2013.1, Build901 2013/11/27)

>  <Rbt.Parameter_File>
/export/apps/rDock/src/rDock_2013.1_src/data/scripts/dock_solv.prm

>  <Rbt.Receptor>
prm/blind_docking_100.prm

>  <SCORE>
-14.0862

>  <SCORE.INTER>
-10.3863

>  <SCORE.INTER.CONST>
1

>  <SCORE.INTER.POLAR>
0

>  <SCORE.INTER.ROT>
3

>  <SCORE.INTER.SOLV>
8.8305

>  <SCORE.INTER.VDW>
-15.4677

>  <SCORE.INTER.norm>
-0.865528

>  <SCORE.INTRA>
-3.69984

>  <SCORE.INTRA.DIHEDRAL>
-3.61926

>  <SCORE.INTRA.DIHEDRAL.0>
5.0186

>  <SCORE.INTRA.POLAR>
0

>  <SCORE.INTRA.POLAR.0>
0

>  <SCORE.INTRA.REPUL>
0

>  <SCORE.INTRA.REPUL.0>
0

>  <SCORE.INTRA.SOLV>
0.867696

>  <SCORE.INTRA.SOLV.lig_0>
-16.1608

>  <SCORE.INTRA.VDW>
-2.32406

>  <SCORE.INTRA.VDW.0>
1.14169

>  <SCORE.INTRA.norm>
-0.30832

>  <SCORE.RESTR>
0

>  <SCORE.RESTR.CAVITY>
0

>  <SCORE.RESTR.norm>
0

>  <SCORE.SYSTEM>
0

>  <SCORE.SYSTEM.CONST>
0

>  <SCORE.SYSTEM.DIHEDRAL>
0

>  <SCORE.SYSTEM.SOLV>
0

>  <SCORE.SYSTEM.norm>
0

>  <SCORE.heavy>
12

>  <SCORE.norm>
-1.17385

>  <RMSD>
29.119

$$$$
ligand
 OpenBabel11021811493D
libRbt.so/2013.1/901 2013/11/27
 12 12  0  0  0  0  0  0  0  0999 V2000
   35.4017   -0.5046   26.9250 N   0  0  0  0  0  0  0  0  0  0  0  0
   33.7114   -2.1175   22.3432 O   0  0  0  0  0  0  0  0  0  0  0  0
   35.5356   -0.7378   28.3840 C   0  0  0  0  0  0  0  0  0  0  0  0
   34.3221   -3.8381   23.8394 O   0  0  0  0  0  0  0  0  0  0  0  0
   36.4107    0.3660   28.9687 C   0  0  0  0  0  0  0  0  0  0  0  0
   32.1503   -2.7234   24.1148 O   0  0  0  0  0  0  0  0  0  0  0  0
   35.7378    1.6592   28.8142 N   0  0  0  0  0  0  0  0  0  0  0  0
   34.4796    1.4340   28.0984 C   0  0  0  0  0  0  0  0  0  0  0  0
   34.8424    0.8494   26.7440 C   0  0  0  0  0  0  0  0  0  0  0  0
   34.5918   -1.5362   26.1627 C   0  0  0  0  0  0  0  0  0  0  0  0
   34.6084   -1.4278   24.6154 C   0  0  0  0  0  0  0  0  0  0  0  0
   33.7095   -2.5412   23.7124 S   0  0  0  0  0  0  0  0  0  0  0  0
  1  3  1  0  0  0  0
  1  9  1  0  0  0  0
  1 10  1  0  0  0  0
  2 12  1  0  0  0  0
  3  5  1  0  0  0  0
  4 12  2  0  0  0  0
  5  7  1  0  0  0  0
  6 12  2  0  0  0  0
  7  8  1  0  0  0  0
  8  9  1  0  0  0  0
 10 11  1  0  0  0  0
 11 12  1  0  0  0  0
M  END
>  <CHROM.1>
-171.46489224,-179.34208428,171.10414742,34.50114539,-1.13883326,25.75865677
-1.03036448,0.91597471,-2.63650593

>  <Name>
ligand

>  <RI>
0

>  <Rbt.Current_Directory>
/home/itssahil/PROJECTS/Mol_Feturizer/New_Systems/rnas/4E8N

>  <Rbt.Executable>
rbdock ($Id: //depot/dev/client3/rdock/2013.1/src/exe/rbdock.cxx#4 $)

>  <Rbt.Library>
libRbt.so (2013.1, Build901 2013/11/27)

>  <Rbt.Parameter_File>
/export/apps/rDock/src/rDock_2013.1_src/data/scripts/dock_solv.prm

>  <Rbt.Receptor>
prm/blind_docking_80.prm

>  <SCORE>
-13.7733

>  <SCORE.INTER>
-10.0593

>  <SCORE.INTER.CONST>
1

>  <SCORE.INTER.POLAR>
0

>  <SCORE.INTER.ROT>
3

>  <SCORE.INTER.SOLV>
7.05491

>  <SCORE.INTER.VDW>
-14.6578

>  <SCORE.INTER.norm>
-0.838274

>  <SCORE.INTRA>
-3.71403

>  <SCORE.INTRA.DIHEDRAL>
-4.75047

>  <SCORE.INTRA.DIHEDRAL.0>
5.0186

>  <SCORE.INTRA.POLAR>
0

>  <SCORE.INTRA.POLAR.0>
0

>  <SCORE.INTRA.REPUL>
0

>  <SCORE.INTRA.REPUL.0>
0

>  <SCORE.INTRA.SOLV>
0.0745539

>  <SCORE.INTRA.SOLV.lig_0>
-16.1608

>  <SCORE.INTRA.VDW>
-1.37608

>  <SCORE.INTRA.VDW.0>
1.14169

>  <SCORE.INTRA.norm>
-0.309503

>  <SCORE.RESTR>
0

>  <SCORE.RESTR.CAVITY>
0

>  <SCORE.RESTR.norm>
0

>  <SCORE.SYSTEM>
0

>  <SCORE.SYSTEM.CONST>
0

>  <SCORE.SYSTEM.DIHEDRAL>
0

>  <SCORE.SYSTEM.SOLV>
0

>  <SCORE.SYSTEM.norm>
0

>  <SCORE.heavy>
12

>  <SCORE.norm>
-1.14778

>  <RMSD>
29.200

$$$$
ligand
 OpenBabel11021811493D
libRbt.so/2013.1/901 2013/11/27
 12 12  0  0  0  0  0  0  0  0999 V2000
   35.7318   -0.9903   25.4100 N   0  0  0  0  0  0  0  0  0  0  0  0
   33.8052    2.5440   28.1984 O   0  0  0  0  0  0  0  0  0  0  0  0
   35.5148    0.1565   24.4941 C   0  0  0  0  0  0  0  0  0  0  0  0
   36.0716    2.2026   27.6338 O   0  0  0  0  0  0  0  0  0  0  0  0
   35.7102   -0.3290   23.0615 C   0  0  0  0  0  0  0  0  0  0  0  0
   34.4472    2.6645   25.8498 O   0  0  0  0  0  0  0  0  0  0  0  0
   34.6824   -1.3221   22.7355 N   0  0  0  0  0  0  0  0  0  0  0  0
   33.8615   -1.5354   23.9300 C   0  0  0  0  0  0  0  0  0  0  0  0
   34.7894   -2.0554   25.0145 C   0  0  0  0  0  0  0  0  0  0  0  0
   35.6184   -0.6834   26.8912 C   0  0  0  0  0  0  0  0  0  0  0  0
   34.4595    0.2542   27.3199 C   0  0  0  0  0  0  0  0  0  0  0  0
   34.7059    1.9275   27.2697 S   0  0  0  0  0  0  0  0  0  0  0  0
  1  3  1  0  0  0  0
  1  9  1  0  0  0  0
  1 10  1  0  0  0  0
  2 12  1  0  0  0  0
  3  5  1  0  0  0  0
  4 12  2  0  0  0  0
  5  7  1  0  0  0  0
  6 12  2  0  0  0  0
  7  8  1  0  0  0  0
  8  9  1  0  0  0  0
 10 11  1  0  0  0  0
 11 12  1  0  0  0  0
M  END
>  <CHROM.1>
41.68926797,-85.96413025,-155.51449768,34.92149874,0.46389129,25.85144179
-0.97713514,-1.48934223,1.42429384

>  <Name>
ligand

>  <RI>
0

>  <Rbt.Current_Directory>
/home/itssahil/PROJECTS/Mol_Feturizer/New_Systems/rnas/4E8N

>  <Rbt.Executable>
rbdock ($Id: //depot/dev/client3/rdock/2013.1/src/exe/rbdock.cxx#4 $)

>  <Rbt.Library>
libRbt.so (2013.1, Build901 2013/11/27)

>  <Rbt.Parameter_File>
/export/apps/rDock/src/rDock_2013.1_src/data/scripts/dock_solv.prm

>  <Rbt.Receptor>
prm/blind_docking_80.prm

>  <SCORE>
-11.3802

>  <SCORE.INTER>
-9.98332

>  <SCORE.INTER.CONST>
1

>  <SCORE.INTER.POLAR>
0

>  <SCORE.INTER.ROT>
3

>  <SCORE.INTER.SOLV>
9.33826

>  <SCORE.INTER.VDW>
-15.3683

>  <SCORE.INTER.norm>
-0.831943

>  <SCORE.INTRA>
-1.39692

>  <SCORE.INTRA.DIHEDRAL>
-0.939094

>  <SCORE.INTRA.DIHEDRAL.0>
5.0186

>  <SCORE.INTRA.POLAR>
0

>  <SCORE.INTRA.POLAR.0>
0

>  <SCORE.INTRA.REPUL>
0

>  <SCORE.INTRA.REPUL.0>
0

>  <SCORE.INTRA.SOLV>
0.754164

>  <SCORE.INTRA.SOLV.lig_0>
-16.1608

>  <SCORE.INTRA.VDW>
-1.30446

>  <SCORE.INTRA.VDW.0>
1.14169

>  <SCORE.INTRA.norm>
-0.11641

>  <SCORE.RESTR>
0

>  <SCORE.RESTR.CAVITY>
0

>  <SCORE.RESTR.norm>
0

>  <SCORE.SYSTEM>
0

>  <SCORE.SYSTEM.CONST>
0

>  <SCORE.SYSTEM.DIHEDRAL>
0

>  <SCORE.SYSTEM.SOLV>
0

>  <SCORE.SYSTEM.norm>
0

>  <SCORE.heavy>
12

>  <SCORE.norm>
-0.948354

>  <RMSD>
29.309

$$$$
ligand
 OpenBabel11021811493D
libRbt.so/2013.1/901 2013/11/27
 12 12  0  0  0  0  0  0  0  0999 V2000
   15.3081    4.2348    3.3632 N   0  0  0  0  0  0  0  0  0  0  0  0
   13.4067    1.9865    3.2298 O   0  0  0  0  0  0  0  0  0  0  0  0
   14.4937    4.9373    2.3414 C   0  0  0  0  0  0  0  0  0  0  0  0
   13.9688    0.0991    1.9286 O   0  0  0  0  0  0  0  0  0  0  0  0
   13.5486    5.8970    3.0568 C   0  0  0  0  0  0  0  0  0  0  0  0
   14.8714    0.2991    4.2045 O   0  0  0  0  0  0  0  0  0  0  0  0
   14.3276    6.9282    3.7488 N   0  0  0  0  0  0  0  0  0  0  0  0
   15.7489    6.6341    3.5494 C   0  0  0  0  0  0  0  0  0  0  0  0
   16.0046    5.2657    4.1576 C   0  0  0  0  0  0  0  0  0  0  0  0
   16.2844    3.2014    2.8339 C   0  0  0  0  0  0  0  0  0  0  0  0
   15.6736    1.9865    2.0877 C   0  0  0  0  0  0  0  0  0  0  0  0
   14.4587    1.0898    2.8515 S   0  0  0  0  0  0  0  0  0  0  0  0
  1  3  1  0  0  0  0
  1  9  1  0  0  0  0
  1 10  1  0  0  0  0
  2 12  1  0  0  0  0
  3  5  1  0  0  0  0
  4 12  2  0  0  0  0
  5  7  1  0  0  0  0
  6 12  2  0  0  0  0
  7  8  1  0  0  0  0
  8  9  1  0  0  0  0
 10 11  1  0  0  0  0
 11 12  1  0  0  0  0
M  END
>  <CHROM.1>
-62.49213141,-52.80563729,54.84587378,14.78201632,3.23100730,3.08840773,-1.47780971
0.22187626,-3.05001164

>  <Name>
ligand

>  <RI>
0

>  <Rbt.Current_Directory>
/home/itssahil/PROJECTS/Mol_Feturizer/New_Systems/rnas/4E8N

>  <Rbt.Executable>
rbdock ($Id: //depot/dev/client3/rdock/2013.1/src/exe/rbdock.cxx#4 $)

>  <Rbt.Library>
libRbt.so (2013.1, Build901 2013/11/27)

>  <Rbt.Parameter_File>
/export/apps/rDock/src/rDock_2013.1_src/data/scripts/dock_solv.prm

>  <Rbt.Receptor>
prm/blind_docking_20.prm

>  <SCORE>
-8.68759

>  <SCORE.INTER>
-4.09051

>  <SCORE.INTER.CONST>
1

>  <SCORE.INTER.POLAR>
0

>  <SCORE.INTER.ROT>
3

>  <SCORE.INTER.SOLV>
7.21311

>  <SCORE.INTER.VDW>
-10.7314

>  <SCORE.INTER.norm>
-0.340876

>  <SCORE.INTRA>
-4.59707

>  <SCORE.INTRA.DIHEDRAL>
-4.73746

>  <SCORE.INTRA.DIHEDRAL.0>
5.0186

>  <SCORE.INTRA.POLAR>
0

>  <SCORE.INTRA.POLAR.0>
0

>  <SCORE.INTRA.REPUL>
0

>  <SCORE.INTRA.REPUL.0>
0

>  <SCORE.INTRA.SOLV>
0.00183347

>  <SCORE.INTRA.SOLV.lig_0>
-16.1608

>  <SCORE.INTRA.VDW>
-2.22926

>  <SCORE.INTRA.VDW.0>
1.14169

>  <SCORE.INTRA.norm>
-0.383089

>  <SCORE.RESTR>
0

>  <SCORE.RESTR.CAVITY>
0

>  <SCORE.RESTR.norm>
0

>  <SCORE.SYSTEM>
0

>  <SCORE.SYSTEM.CONST>
0

>  <SCORE.SYSTEM.DIHEDRAL>
0

>  <SCORE.SYSTEM.SOLV>
0

>  <SCORE.SYSTEM.norm>
0

>  <SCORE.heavy>
12

>  <SCORE.norm>
-0.723965

>  <RMSD>
29.576

$$$$
ligand
 OpenBabel11021811493D
libRbt.so/2013.1/901 2013/11/27
 12 12  0  0  0  0  0  0  0  0999 V2000
   35.3072   -0.1883   27.3118 N   0  0  0  0  0  0  0  0  0  0  0  0
   35.1736   -3.5675   24.2354 O   0  0  0  0  0  0  0  0  0  0  0  0
   34.4267    1.0052   27.3465 C   0  0  0  0  0  0  0  0  0  0  0  0
   32.9746   -2.9532   23.6362 O   0  0  0  0  0  0  0  0  0  0  0  0
   34.3833    1.5289   28.7783 C   0  0  0  0  0  0  0  0  0  0  0  0
   34.8690   -1.7191   22.6756 O   0  0  0  0  0  0  0  0  0  0  0  0
   35.7189    1.9855   29.1744 N   0  0  0  0  0  0  0  0  0  0  0  0
   36.6369    1.7229   28.0634 C   0  0  0  0  0  0  0  0  0  0  0  0
   36.6272    0.2218   27.8300 C   0  0  0  0  0  0  0  0  0  0  0  0
   35.4384   -0.8735   25.9648 C   0  0  0  0  0  0  0  0  0  0  0  0
   34.1622   -1.5539   25.4041 C   0  0  0  0  0  0  0  0  0  0  0  0
   34.2850   -2.4708   23.9871 S   0  0  0  0  0  0  0  0  0  0  0  0
  1  3  1  0  0  0  0
  1  9  1  0  0  0  0
  1 10  1  0  0  0  0
  2 12  1  0  0  0  0
  3  5  1  0  0  0  0
  4 12  2  0  0  0  0
  5  7  1  0  0  0  0
  6 12  2  0  0  0  0
  7  8  1  0  0  0  0
  8  9  1  0  0  0  0
 10 11  1  0  0  0  0
 11 12  1  0  0  0  0
M  END
>  <CHROM.1>
-66.41221622,-173.68498173,62.19992200,34.91268793,-0.81722733,25.90990067
-1.35352082,0.03569586,-2.28812768

>  <Name>
ligand

>  <RI>
0

>  <Rbt.Current_Directory>
/home/itssahil/PROJECTS/Mol_Feturizer/New_Systems/rnas/4E8N

>  <Rbt.Executable>
rbdock ($Id: //depot/dev/client3/rdock/2013.1/src/exe/rbdock.cxx#4 $)

>  <Rbt.Library>
libRbt.so (2013.1, Build901 2013/11/27)

>  <Rbt.Parameter_File>
/export/apps/rDock/src/rDock_2013.1_src/data/scripts/dock_solv.prm

>  <Rbt.Receptor>
prm/blind_docking_100.prm

>  <SCORE>
-13.6283

>  <SCORE.INTER>
-9.59709

>  <SCORE.INTER.CONST>
1

>  <SCORE.INTER.POLAR>
0

>  <SCORE.INTER.ROT>
3

>  <SCORE.INTER.SOLV>
6.59842

>  <SCORE.INTER.VDW>
-14.1975

>  <SCORE.INTER.norm>
-0.799757

>  <SCORE.INTRA>
-4.03118

>  <SCORE.INTRA.DIHEDRAL>
-4.75114

>  <SCORE.INTRA.DIHEDRAL.0>
5.0186

>  <SCORE.INTRA.POLAR>
0

>  <SCORE.INTRA.POLAR.0>
0

>  <SCORE.INTRA.REPUL>
0

>  <SCORE.INTRA.REPUL.0>
0

>  <SCORE.INTRA.SOLV>
-0.10285

>  <SCORE.INTRA.SOLV.lig_0>
-16.1608

>  <SCORE.INTRA.VDW>
-1.60419

>  <SCORE.INTRA.VDW.0>
1.14169

>  <SCORE.INTRA.norm>
-0.335932

>  <SCORE.RESTR>
0

>  <SCORE.RESTR.CAVITY>
0

>  <SCORE.RESTR.norm>
0

>  <SCORE.SYSTEM>
0

>  <SCORE.SYSTEM.CONST>
0

>  <SCORE.SYSTEM.DIHEDRAL>
0

>  <SCORE.SYSTEM.SOLV>
0

>  <SCORE.SYSTEM.norm>
0

>  <SCORE.heavy>
12

>  <SCORE.norm>
-1.13569

>  <RMSD>
29.603

$$$$
ligand
 OpenBabel11021811493D
libRbt.so/2013.1/901 2013/11/27
 12 12  0  0  0  0  0  0  0  0999 V2000
   15.5225    3.9806    5.5271 N   0  0  0  0  0  0  0  0  0  0  0  0
   16.2177    2.3418    1.1473 O   0  0  0  0  0  0  0  0  0  0  0  0
   15.3178    5.2969    4.8743 C   0  0  0  0  0  0  0  0  0  0  0  0
   14.7021    3.7045    2.3380 O   0  0  0  0  0  0  0  0  0  0  0  0
   14.1053    5.9666    5.5128 C   0  0  0  0  0  0  0  0  0  0  0  0
   16.9895    4.5111    1.9482 O   0  0  0  0  0  0  0  0  0  0  0  0
   14.3840    6.2416    6.9255 N   0  0  0  0  0  0  0  0  0  0  0  0
   15.7180    5.7212    7.2352 C   0  0  0  0  0  0  0  0  0  0  0  0
   15.6780    4.2251    6.9745 C   0  0  0  0  0  0  0  0  0  0  0  0
   16.6696    3.1471    4.9880 C   0  0  0  0  0  0  0  0  0  0  0  0
   16.4011    2.3594    3.6790 C   0  0  0  0  0  0  0  0  0  0  0  0
   16.0575    3.2239    2.2655 S   0  0  0  0  0  0  0  0  0  0  0  0
  1  3  1  0  0  0  0
  1  9  1  0  0  0  0
  1 10  1  0  0  0  0
  2 12  1  0  0  0  0
  3  5  1  0  0  0  0
  4 12  2  0  0  0  0
  5  7  1  0  0  0  0
  6 12  2  0  0  0  0
  7  8  1  0  0  0  0
  8  9  1  0  0  0  0
 10 11  1  0  0  0  0
 11 12  1  0  0  0  0
M  END
>  <CHROM.1>
-80.00067164,63.26247474,164.05616156,15.69552334,4.11060422,4.16457825,-1.93903319
0.96171762,-1.73876482

>  <Name>
ligand

>  <RI>
0

>  <Rbt.Current_Directory>
/home/itssahil/PROJECTS/Mol_Feturizer/New_Systems/rnas/4E8N

>  <Rbt.Executable>
rbdock ($Id: //depot/dev/client3/rdock/2013.1/src/exe/rbdock.cxx#4 $)

>  <Rbt.Library>
libRbt.so (2013.1, Build901 2013/11/27)

>  <Rbt.Parameter_File>
/export/apps/rDock/src/rDock_2013.1_src/data/scripts/dock_solv.prm

>  <Rbt.Receptor>
prm/blind_docking_20.prm

>  <SCORE>
-10.5443

>  <SCORE.INTER>
-6.71865

>  <SCORE.INTER.CONST>
1

>  <SCORE.INTER.POLAR>
0

>  <SCORE.INTER.ROT>
3

>  <SCORE.INTER.SOLV>
9.23939

>  <SCORE.INTER.VDW>
-13.1589

>  <SCORE.INTER.norm>
-0.559887

>  <SCORE.INTRA>
-3.82569

>  <SCORE.INTRA.DIHEDRAL>
-3.72349

>  <SCORE.INTRA.DIHEDRAL.0>
5.0186

>  <SCORE.INTRA.POLAR>
0

>  <SCORE.INTRA.POLAR.0>
0

>  <SCORE.INTRA.REPUL>
0

>  <SCORE.INTRA.REPUL.0>
0

>  <SCORE.INTRA.SOLV>
1.00034

>  <SCORE.INTRA.SOLV.lig_0>
-16.1608

>  <SCORE.INTRA.VDW>
-2.46411

>  <SCORE.INTRA.VDW.0>
1.14169

>  <SCORE.INTRA.norm>
-0.318807

>  <SCORE.RESTR>
0

>  <SCORE.RESTR.CAVITY>
0

>  <SCORE.RESTR.norm>
0

>  <SCORE.SYSTEM>
0

>  <SCORE.SYSTEM.CONST>
0

>  <SCORE.SYSTEM.DIHEDRAL>
0

>  <SCORE.SYSTEM.SOLV>
0

>  <SCORE.SYSTEM.norm>
0

>  <SCORE.heavy>
12

>  <SCORE.norm>
-0.878694

>  <RMSD>
29.718

$$$$
ligand
 OpenBabel11021811493D
libRbt.so/2013.1/901 2013/11/27
 12 12  0  0  0  0  0  0  0  0999 V2000
   57.9799   -9.1246   18.8560 N   0  0  0  0  0  0  0  0  0  0  0  0
   55.7220   -9.8099   22.7522 O   0  0  0  0  0  0  0  0  0  0  0  0
   58.9488   -8.1334   19.3848 C   0  0  0  0  0  0  0  0  0  0  0  0
   55.4173  -11.8594   21.6215 O   0  0  0  0  0  0  0  0  0  0  0  0
   59.9302   -7.7799   18.2721 C   0  0  0  0  0  0  0  0  0  0  0  0
   56.9909  -11.7506   23.5047 O   0  0  0  0  0  0  0  0  0  0  0  0
   59.2135   -7.1182   17.1777 N   0  0  0  0  0  0  0  0  0  0  0  0
   57.7903   -7.0818   17.5231 C   0  0  0  0  0  0  0  0  0  0  0  0
   57.3364   -8.5240   17.6710 C   0  0  0  0  0  0  0  0  0  0  0  0
   56.9441   -9.6276   19.8435 C   0  0  0  0  0  0  0  0  0  0  0  0
   57.4711  -10.4695   21.0349 C   0  0  0  0  0  0  0  0  0  0  0  0
   56.3764  -10.9705   22.2241 S   0  0  0  0  0  0  0  0  0  0  0  0
  1  3  1  0  0  0  0
  1  9  1  0  0  0  0
  1 10  1  0  0  0  0
  2 12  1  0  0  0  0
  3  5  1  0  0  0  0
  4 12  2  0  0  0  0
  5  7  1  0  0  0  0
  6 12  2  0  0  0  0
  7  8  1  0  0  0  0
  8  9  1  0  0  0  0
 10 11  1  0  0  0  0
 11 12  1  0  0  0  0
M  END
>  <CHROM.1>
-65.93787254,175.97425217,-56.21887166,57.35833156,-9.56097415,20.28008029
1.14977185,-0.32139184,-1.06815439

>  <Name>
ligand

>  <RI>
0

>  <Rbt.Current_Directory>
/home/itssahil/PROJECTS/Mol_Feturizer/New_Systems/rnas/4E8N

>  <Rbt.Executable>
rbdock ($Id: //depot/dev/client3/rdock/2013.1/src/exe/rbdock.cxx#4 $)

>  <Rbt.Library>
libRbt.so (2013.1, Build901 2013/11/27)

>  <Rbt.Parameter_File>
/export/apps/rDock/src/rDock_2013.1_src/data/scripts/dock_solv.prm

>  <Rbt.Receptor>
prm/blind_docking_100.prm

>  <SCORE>
-13.5662

>  <SCORE.INTER>
-9.52405

>  <SCORE.INTER.CONST>
1

>  <SCORE.INTER.POLAR>
0

>  <SCORE.INTER.ROT>
3

>  <SCORE.INTER.SOLV>
7.29036

>  <SCORE.INTER.VDW>
-14.3795

>  <SCORE.INTER.norm>
-0.793671

>  <SCORE.INTRA>
-4.04212

>  <SCORE.INTRA.DIHEDRAL>
-4.82588

>  <SCORE.INTRA.DIHEDRAL.0>
5.0186

>  <SCORE.INTRA.POLAR>
0

>  <SCORE.INTRA.POLAR.0>
0

>  <SCORE.INTRA.REPUL>
0

>  <SCORE.INTRA.REPUL.0>
0

>  <SCORE.INTRA.SOLV>
-0.117693

>  <SCORE.INTRA.SOLV.lig_0>
-16.1608

>  <SCORE.INTRA.VDW>
-1.57034

>  <SCORE.INTRA.VDW.0>
1.14169

>  <SCORE.INTRA.norm>
-0.336844

>  <SCORE.RESTR>
0

>  <SCORE.RESTR.CAVITY>
0

>  <SCORE.RESTR.norm>
0

>  <SCORE.SYSTEM>
0

>  <SCORE.SYSTEM.CONST>
0

>  <SCORE.SYSTEM.DIHEDRAL>
0

>  <SCORE.SYSTEM.SOLV>
0

>  <SCORE.SYSTEM.norm>
0

>  <SCORE.heavy>
12

>  <SCORE.norm>
-1.13051

>  <RMSD>
32.559

$$$$
ligand
 OpenBabel11021811493D
libRbt.so/2013.1/901 2013/11/27
 12 12  0  0  0  0  0  0  0  0999 V2000
   57.9715   -9.1233   18.8640 N   0  0  0  0  0  0  0  0  0  0  0  0
   57.0869  -11.3821   23.3970 O   0  0  0  0  0  0  0  0  0  0  0  0
   58.9337   -8.1216   19.3850 C   0  0  0  0  0  0  0  0  0  0  0  0
   55.6223   -9.6604   22.7171 O   0  0  0  0  0  0  0  0  0  0  0  0
   59.9229   -7.7827   18.2747 C   0  0  0  0  0  0  0  0  0  0  0  0
   55.2502  -11.9457   21.8964 O   0  0  0  0  0  0  0  0  0  0  0  0
   59.2133   -7.1398   17.1647 N   0  0  0  0  0  0  0  0  0  0  0  0
   57.7873   -7.1019   17.4983 C   0  0  0  0  0  0  0  0  0  0  0  0
   57.3359   -8.5428   17.6649 C   0  0  0  0  0  0  0  0  0  0  0  0
   56.9292   -9.6138   19.8511 C   0  0  0  0  0  0  0  0  0  0  0  0
   57.4551  -10.3739   21.0967 C   0  0  0  0  0  0  0  0  0  0  0  0
   56.3529  -10.8280   22.2977 S   0  0  0  0  0  0  0  0  0  0  0  0
  1  3  1  0  0  0  0
  1  9  1  0  0  0  0
  1 10  1  0  0  0  0
  2 12  1  0  0  0  0
  3  5  1  0  0  0  0
  4 12  2  0  0  0  0
  5  7  1  0  0  0  0
  6 12  2  0  0  0  0
  7  8  1  0  0  0  0
  8  9  1  0  0  0  0
 10 11  1  0  0  0  0
 11 12  1  0  0  0  0
M  END
>  <CHROM.1>
-62.93886842,174.80977640,-173.99696494,57.33543126,-9.49697262,20.30601304
1.13300451,-0.32682510,-1.10118327

>  <Name>
ligand

>  <RI>
0

>  <Rbt.Current_Directory>
/home/itssahil/PROJECTS/Mol_Feturizer/New_Systems/rnas/4E8N

>  <Rbt.Executable>
rbdock ($Id: //depot/dev/client3/rdock/2013.1/src/exe/rbdock.cxx#4 $)

>  <Rbt.Library>
libRbt.so (2013.1, Build901 2013/11/27)

>  <Rbt.Parameter_File>
/export/apps/rDock/src/rDock_2013.1_src/data/scripts/dock_solv.prm

>  <Rbt.Receptor>
prm/blind_docking_80.prm

>  <SCORE>
-13.6249

>  <SCORE.INTER>
-9.71878

>  <SCORE.INTER.CONST>
1

>  <SCORE.INTER.POLAR>
0

>  <SCORE.INTER.ROT>
3

>  <SCORE.INTER.SOLV>
7.58208

>  <SCORE.INTER.VDW>
-14.6065

>  <SCORE.INTER.norm>
-0.809898

>  <SCORE.INTRA>
-3.90617

>  <SCORE.INTRA.DIHEDRAL>
-4.78672

>  <SCORE.INTRA.DIHEDRAL.0>
5.0186

>  <SCORE.INTRA.POLAR>
0

>  <SCORE.INTRA.POLAR.0>
0

>  <SCORE.INTRA.REPUL>
0

>  <SCORE.INTRA.REPUL.0>
0

>  <SCORE.INTRA.SOLV>
0.0740147

>  <SCORE.INTRA.SOLV.lig_0>
-16.1608

>  <SCORE.INTRA.VDW>
-1.54982

>  <SCORE.INTRA.VDW.0>
1.14169

>  <SCORE.INTRA.norm>
-0.325514

>  <SCORE.RESTR>
0

>  <SCORE.RESTR.CAVITY>
0

>  <SCORE.RESTR.norm>
0

>  <SCORE.SYSTEM>
0

>  <SCORE.SYSTEM.CONST>
0

>  <SCORE.SYSTEM.DIHEDRAL>
0

>  <SCORE.SYSTEM.SOLV>
0

>  <SCORE.SYSTEM.norm>
0

>  <SCORE.heavy>
12

>  <SCORE.norm>
-1.13541

>  <RMSD>
32.559

$$$$
ligand
 OpenBabel11021811493D
libRbt.so/2013.1/901 2013/11/27
 12 12  0  0  0  0  0  0  0  0999 V2000
   57.7493   -8.5183   19.8257 N   0  0  0  0  0  0  0  0  0  0  0  0
   56.4287   -9.3545   22.5582 O   0  0  0  0  0  0  0  0  0  0  0  0
   57.0082   -7.3976   19.1968 C   0  0  0  0  0  0  0  0  0  0  0  0
   55.0709  -11.1687   21.8971 O   0  0  0  0  0  0  0  0  0  0  0  0
   57.7228   -6.0951   19.5420 C   0  0  0  0  0  0  0  0  0  0  0  0
   56.8987  -11.5568   23.4919 O   0  0  0  0  0  0  0  0  0  0  0  0
   59.0612   -6.0964   18.9440 N   0  0  0  0  0  0  0  0  0  0  0  0
   59.2559   -7.3818   18.2687 C   0  0  0  0  0  0  0  0  0  0  0  0
   59.1395   -8.4598   19.3328 C   0  0  0  0  0  0  0  0  0  0  0  0
   57.1556   -9.8994   19.6225 C   0  0  0  0  0  0  0  0  0  0  0  0
   57.3468  -10.9151   20.7791 C   0  0  0  0  0  0  0  0  0  0  0  0
   56.4150  -10.7369   22.1803 S   0  0  0  0  0  0  0  0  0  0  0  0
  1  3  1  0  0  0  0
  1  9  1  0  0  0  0
  1 10  1  0  0  0  0
  2 12  1  0  0  0  0
  3  5  1  0  0  0  0
  4 12  2  0  0  0  0
  5  7  1  0  0  0  0
  6 12  2  0  0  0  0
  7  8  1  0  0  0  0
  8  9  1  0  0  0  0
 10 11  1  0  0  0  0
 11 12  1  0  0  0  0
M  END
>  <CHROM.1>
-147.30195351,74.71740936,-45.34290595,57.30139770,-9.18480518,20.69769028
-0.95786160,-0.82095378,2.90277649

>  <Name>
ligand

>  <RI>
0

>  <Rbt.Current_Directory>
/home/itssahil/PROJECTS/Mol_Feturizer/New_Systems/rnas/4E8N

>  <Rbt.Executable>
rbdock ($Id: //depot/dev/client3/rdock/2013.1/src/exe/rbdock.cxx#4 $)

>  <Rbt.Library>
libRbt.so (2013.1, Build901 2013/11/27)

>  <Rbt.Parameter_File>
/export/apps/rDock/src/rDock_2013.1_src/data/scripts/dock_solv.prm

>  <Rbt.Receptor>
prm/blind_docking_100.prm

>  <SCORE>
-12.8591

>  <SCORE.INTER>
-9.50423

>  <SCORE.INTER.CONST>
1

>  <SCORE.INTER.POLAR>
0

>  <SCORE.INTER.ROT>
3

>  <SCORE.INTER.SOLV>
7.28211

>  <SCORE.INTER.VDW>
-14.3635

>  <SCORE.INTER.norm>
-0.792019

>  <SCORE.INTRA>
-3.35486

>  <SCORE.INTRA.DIHEDRAL>
-2.43786

>  <SCORE.INTRA.DIHEDRAL.0>
5.0186

>  <SCORE.INTRA.POLAR>
0

>  <SCORE.INTRA.POLAR.0>
0

>  <SCORE.INTRA.REPUL>
0

>  <SCORE.INTRA.REPUL.0>
0

>  <SCORE.INTRA.SOLV>
-0.0267578

>  <SCORE.INTRA.SOLV.lig_0>
-16.1608

>  <SCORE.INTRA.VDW>
-2.12255

>  <SCORE.INTRA.VDW.0>
1.14169

>  <SCORE.INTRA.norm>
-0.279571

>  <SCORE.RESTR>
0

>  <SCORE.RESTR.CAVITY>
0

>  <SCORE.RESTR.norm>
0

>  <SCORE.SYSTEM>
0

>  <SCORE.SYSTEM.CONST>
0

>  <SCORE.SYSTEM.DIHEDRAL>
0

>  <SCORE.SYSTEM.SOLV>
0

>  <SCORE.SYSTEM.norm>
0

>  <SCORE.heavy>
12

>  <SCORE.norm>
-1.07159

>  <RMSD>
32.877

$$$$
ligand
 OpenBabel11021811493D
libRbt.so/2013.1/901 2013/11/27
 12 12  0  0  0  0  0  0  0  0999 V2000
   35.3623    1.8963   28.8897 N   0  0  0  0  0  0  0  0  0  0  0  0
   38.3544    5.2211   28.8928 O   0  0  0  0  0  0  0  0  0  0  0  0
   35.4918    0.5313   29.4564 C   0  0  0  0  0  0  0  0  0  0  0  0
   40.0451    3.8441   29.7969 O   0  0  0  0  0  0  0  0  0  0  0  0
   34.1424    0.1225   30.0380 C   0  0  0  0  0  0  0  0  0  0  0  0
   39.6109    3.7805   27.3798 O   0  0  0  0  0  0  0  0  0  0  0  0
   33.1509    0.0338   28.9618 N   0  0  0  0  0  0  0  0  0  0  0  0
   33.8028    0.4260   27.7099 C   0  0  0  0  0  0  0  0  0  0  0  0
   34.2766    1.8580   27.8903 C   0  0  0  0  0  0  0  0  0  0  0  0
   36.6275    2.4890   28.2989 C   0  0  0  0  0  0  0  0  0  0  0  0
   37.7868    2.7788   29.2879 C   0  0  0  0  0  0  0  0  0  0  0  0
   38.9577    3.9215   28.8562 S   0  0  0  0  0  0  0  0  0  0  0  0
  1  3  1  0  0  0  0
  1  9  1  0  0  0  0
  1 10  1  0  0  0  0
  2 12  1  0  0  0  0
  3  5  1  0  0  0  0
  4 12  2  0  0  0  0
  5  7  1  0  0  0  0
  6 12  2  0  0  0  0
  7  8  1  0  0  0  0
  8  9  1  0  0  0  0
 10 11  1  0  0  0  0
 11 12  1  0  0  0  0
M  END
>  <CHROM.1>
-65.63295468,-157.64219719,70.32917036,36.78982779,2.46254402,28.79152196
2.84093243,0.52735466,2.11743470

>  <Name>
ligand

>  <RI>
0

>  <Rbt.Current_Directory>
/home/itssahil/PROJECTS/Mol_Feturizer/New_Systems/rnas/4E8N

>  <Rbt.Executable>
rbdock ($Id: //depot/dev/client3/rdock/2013.1/src/exe/rbdock.cxx#4 $)

>  <Rbt.Library>
libRbt.so (2013.1, Build901 2013/11/27)

>  <Rbt.Parameter_File>
/export/apps/rDock/src/rDock_2013.1_src/data/scripts/dock_solv.prm

>  <Rbt.Receptor>
prm/blind_docking_80.prm

>  <SCORE>
-11.2834

>  <SCORE.INTER>
-8.14287

>  <SCORE.INTER.CONST>
1

>  <SCORE.INTER.POLAR>
0

>  <SCORE.INTER.ROT>
3

>  <SCORE.INTER.SOLV>
7.73225

>  <SCORE.INTER.VDW>
-13.606

>  <SCORE.INTER.norm>
-0.678573

>  <SCORE.INTRA>
-3.14053

>  <SCORE.INTRA.DIHEDRAL>
-2.97981

>  <SCORE.INTRA.DIHEDRAL.0>
5.0186

>  <SCORE.INTRA.POLAR>
0

>  <SCORE.INTRA.POLAR.0>
0

>  <SCORE.INTRA.REPUL>
0

>  <SCORE.INTRA.REPUL.0>
0

>  <SCORE.INTRA.SOLV>
-0.080124

>  <SCORE.INTRA.SOLV.lig_0>
-16.1608

>  <SCORE.INTRA.VDW>
-1.61056

>  <SCORE.INTRA.VDW.0>
1.14169

>  <SCORE.INTRA.norm>
-0.261711

>  <SCORE.RESTR>
0

>  <SCORE.RESTR.CAVITY>
0

>  <SCORE.RESTR.norm>
0

>  <SCORE.SYSTEM>
0

>  <SCORE.SYSTEM.CONST>
0

>  <SCORE.SYSTEM.DIHEDRAL>
0

>  <SCORE.SYSTEM.SOLV>
0

>  <SCORE.SYSTEM.norm>
0

>  <SCORE.heavy>
12

>  <SCORE.norm>
-0.940283

>  <RMSD>
33.313

$$$$
ligand
 OpenBabel11021811493D
libRbt.so/2013.1/901 2013/11/27
 12 12  0  0  0  0  0  0  0  0999 V2000
   40.9084    2.8337   29.5124 N   0  0  0  0  0  0  0  0  0  0  0  0
   40.3577    2.8403   26.4745 O   0  0  0  0  0  0  0  0  0  0  0  0
   39.6023    3.5204   29.3584 C   0  0  0  0  0  0  0  0  0  0  0  0
   40.9051    5.1341   26.5768 O   0  0  0  0  0  0  0  0  0  0  0  0
   38.5015    2.5660   29.8092 C   0  0  0  0  0  0  0  0  0  0  0  0
   41.9347    3.7311   24.8429 O   0  0  0  0  0  0  0  0  0  0  0  0
   38.6551    2.2800   31.2388 N   0  0  0  0  0  0  0  0  0  0  0  0
   39.8532    2.9756   31.7151 C   0  0  0  0  0  0  0  0  0  0  0  0
   41.0267    2.4221   30.9250 C   0  0  0  0  0  0  0  0  0  0  0  0
   42.1259    3.6230   29.0698 C   0  0  0  0  0  0  0  0  0  0  0  0
   42.5510    3.4708   27.5859 C   0  0  0  0  0  0  0  0  0  0  0  0
   41.4152    3.8026   26.3763 S   0  0  0  0  0  0  0  0  0  0  0  0
  1  3  1  0  0  0  0
  1  9  1  0  0  0  0
  1 10  1  0  0  0  0
  2 12  1  0  0  0  0
  3  5  1  0  0  0  0
  4 12  2  0  0  0  0
  5  7  1  0  0  0  0
  6 12  2  0  0  0  0
  7  8  1  0  0  0  0
  8  9  1  0  0  0  0
 10 11  1  0  0  0  0
 11 12  1  0  0  0  0
M  END
>  <CHROM.1>
-89.45003317,55.54375351,-64.89727855,40.73744231,3.33662335,28.33070178
-1.94384171,-0.13570702,-1.37663003

>  <Name>
ligand

>  <RI>
0

>  <Rbt.Current_Directory>
/home/itssahil/PROJECTS/Mol_Feturizer/New_Systems/rnas/4E8N

>  <Rbt.Executable>
rbdock ($Id: //depot/dev/client3/rdock/2013.1/src/exe/rbdock.cxx#4 $)

>  <Rbt.Library>
libRbt.so (2013.1, Build901 2013/11/27)

>  <Rbt.Parameter_File>
/export/apps/rDock/src/rDock_2013.1_src/data/scripts/dock_solv.prm

>  <Rbt.Receptor>
prm/blind_docking_60.prm

>  <SCORE>
-10.2611

>  <SCORE.INTER>
-6.0118

>  <SCORE.INTER.CONST>
1

>  <SCORE.INTER.POLAR>
0

>  <SCORE.INTER.ROT>
3

>  <SCORE.INTER.SOLV>
5.70799

>  <SCORE.INTER.VDW>
-11.5105

>  <SCORE.INTER.norm>
-0.500983

>  <SCORE.INTRA>
-4.24928

>  <SCORE.INTRA.DIHEDRAL>
-3.63555

>  <SCORE.INTRA.DIHEDRAL.0>
5.0186

>  <SCORE.INTRA.POLAR>
0

>  <SCORE.INTRA.POLAR.0>
0

>  <SCORE.INTRA.REPUL>
0

>  <SCORE.INTRA.REPUL.0>
0

>  <SCORE.INTRA.SOLV>
0.216028

>  <SCORE.INTRA.SOLV.lig_0>
-16.1608

>  <SCORE.INTRA.VDW>
-2.53952

>  <SCORE.INTRA.VDW.0>
1.14169

>  <SCORE.INTRA.norm>
-0.354107

>  <SCORE.RESTR>
0

>  <SCORE.RESTR.CAVITY>
0

>  <SCORE.RESTR.norm>
0

>  <SCORE.SYSTEM>
0

>  <SCORE.SYSTEM.CONST>
0

>  <SCORE.SYSTEM.DIHEDRAL>
0

>  <SCORE.SYSTEM.SOLV>
0

>  <SCORE.SYSTEM.norm>
0

>  <SCORE.heavy>
12

>  <SCORE.norm>
-0.85509

>  <RMSD>
34.992

$$$$
ligand
 OpenBabel11021811493D
libRbt.so/2013.1/901 2013/11/27
 12 12  0  0  0  0  0  0  0  0999 V2000
   39.7815    4.5938   29.4687 N   0  0  0  0  0  0  0  0  0  0  0  0
   39.5104    9.4363   27.7463 O   0  0  0  0  0  0  0  0  0  0  0  0
   40.6095    3.3794   29.6700 C   0  0  0  0  0  0  0  0  0  0  0  0
   41.6500    8.4416   27.6791 O   0  0  0  0  0  0  0  0  0  0  0  0
   39.8920    2.4672   30.6596 C   0  0  0  0  0  0  0  0  0  0  0  0
   40.0214    7.9042   25.9203 O   0  0  0  0  0  0  0  0  0  0  0  0
   38.6241    2.0147   30.0793 N   0  0  0  0  0  0  0  0  0  0  0  0
   38.4725    2.6494   28.7677 C   0  0  0  0  0  0  0  0  0  0  0  0
   38.4524    4.1499   29.0046 C   0  0  0  0  0  0  0  0  0  0  0  0
   40.3621    5.6426   28.5392 C   0  0  0  0  0  0  0  0  0  0  0  0
   39.7195    7.0533   28.5954 C   0  0  0  0  0  0  0  0  0  0  0  0
   40.2383    8.2279   27.4933 S   0  0  0  0  0  0  0  0  0  0  0  0
  1  3  1  0  0  0  0
  1  9  1  0  0  0  0
  1 10  1  0  0  0  0
  2 12  1  0  0  0  0
  3  5  1  0  0  0  0
  4 12  2  0  0  0  0
  5  7  1  0  0  0  0
  6 12  2  0  0  0  0
  7  8  1  0  0  0  0
  8  9  1  0  0  0  0
 10 11  1  0  0  0  0
 11 12  1  0  0  0  0
M  END
>  <CHROM.1>
-164.53125671,-175.01704554,-179.68900804,39.84009733,5.84871996,28.48113132
-1.76236830,-0.49862705,-0.49937593

>  <Name>
ligand

>  <RI>
0

>  <Rbt.Current_Directory>
/home/itssahil/PROJECTS/Mol_Feturizer/New_Systems/rnas/4E8N

>  <Rbt.Executable>
rbdock ($Id: //depot/dev/client3/rdock/2013.1/src/exe/rbdock.cxx#4 $)

>  <Rbt.Library>
libRbt.so (2013.1, Build901 2013/11/27)

>  <Rbt.Parameter_File>
/export/apps/rDock/src/rDock_2013.1_src/data/scripts/dock_solv.prm

>  <Rbt.Receptor>
prm/blind_docking_100.prm

>  <SCORE>
-11.0302

>  <SCORE.INTER>
-7.21985

>  <SCORE.INTER.CONST>
1

>  <SCORE.INTER.POLAR>
0

>  <SCORE.INTER.ROT>
3

>  <SCORE.INTER.SOLV>
5.80314

>  <SCORE.INTER.VDW>
-12.3476

>  <SCORE.INTER.norm>
-0.601654

>  <SCORE.INTRA>
-3.81034

>  <SCORE.INTRA.DIHEDRAL>
-4.6118

>  <SCORE.INTRA.DIHEDRAL.0>
5.0186

>  <SCORE.INTRA.POLAR>
0

>  <SCORE.INTRA.POLAR.0>
0

>  <SCORE.INTRA.REPUL>
0

>  <SCORE.INTRA.REPUL.0>
0

>  <SCORE.INTRA.SOLV>
0.0750413

>  <SCORE.INTRA.SOLV.lig_0>
-16.1608

>  <SCORE.INTRA.VDW>
-1.54196

>  <SCORE.INTRA.VDW.0>
1.14169

>  <SCORE.INTRA.norm>
-0.317528

>  <SCORE.RESTR>
0

>  <SCORE.RESTR.CAVITY>
0

>  <SCORE.RESTR.norm>
0

>  <SCORE.SYSTEM>
0

>  <SCORE.SYSTEM.CONST>
0

>  <SCORE.SYSTEM.DIHEDRAL>
0

>  <SCORE.SYSTEM.SOLV>
0

>  <SCORE.SYSTEM.norm>
0

>  <SCORE.heavy>
12

>  <SCORE.norm>
-0.919182

>  <RMSD>
36.238

$$$$
ligand
 OpenBabel11021811493D
libRbt.so/2013.1/901 2013/11/27
 12 12  0  0  0  0  0  0  0  0999 V2000
   23.4098   -0.1997   34.2744 N   0  0  0  0  0  0  0  0  0  0  0  0
   26.4559   -0.1337   37.8383 O   0  0  0  0  0  0  0  0  0  0  0  0
   22.3761   -0.9979   34.9781 C   0  0  0  0  0  0  0  0  0  0  0  0
   27.1103    1.5025   36.2678 O   0  0  0  0  0  0  0  0  0  0  0  0
   21.1283   -1.0470   34.1026 C   0  0  0  0  0  0  0  0  0  0  0  0
   26.0383    2.2103   38.3617 O   0  0  0  0  0  0  0  0  0  0  0  0
   21.4297   -1.7612   32.8583 N   0  0  0  0  0  0  0  0  0  0  0  0
   22.8480   -2.1278   32.8770 C   0  0  0  0  0  0  0  0  0  0  0  0
   23.6363   -0.8318   32.9598 C   0  0  0  0  0  0  0  0  0  0  0  0
   24.7168   -0.0071   35.0199 C   0  0  0  0  0  0  0  0  0  0  0  0
   24.6547    0.8242   36.3280 C   0  0  0  0  0  0  0  0  0  0  0  0
   26.0854    1.0903   37.1914 S   0  0  0  0  0  0  0  0  0  0  0  0
  1  3  1  0  0  0  0
  1  9  1  0  0  0  0
  1 10  1  0  0  0  0
  2 12  1  0  0  0  0
  3  5  1  0  0  0  0
  4 12  2  0  0  0  0
  5  7  1  0  0  0  0
  6 12  2  0  0  0  0
  7  8  1  0  0  0  0
  8  9  1  0  0  0  0
 10 11  1  0  0  0  0
 11 12  1  0  0  0  0
M  END
>  <CHROM.1>
-65.42505494,-179.17147846,-73.33781959,24.41189434,0.03129726,35.50559409
-2.30039909,0.20932978,1.17378476

>  <Name>
ligand

>  <RI>
0

>  <Rbt.Current_Directory>
/home/itssahil/PROJECTS/Mol_Feturizer/New_Systems/rnas/4E8N

>  <Rbt.Executable>
rbdock ($Id: //depot/dev/client3/rdock/2013.1/src/exe/rbdock.cxx#4 $)

>  <Rbt.Library>
libRbt.so (2013.1, Build901 2013/11/27)

>  <Rbt.Parameter_File>
/export/apps/rDock/src/rDock_2013.1_src/data/scripts/dock_solv.prm

>  <Rbt.Receptor>
prm/blind_docking_100.prm

>  <SCORE>
-11.2353

>  <SCORE.INTER>
-7.39398

>  <SCORE.INTER.CONST>
1

>  <SCORE.INTER.POLAR>
0

>  <SCORE.INTER.ROT>
3

>  <SCORE.INTER.SOLV>
9.0411

>  <SCORE.INTER.VDW>
-13.543

>  <SCORE.INTER.norm>
-0.616165

>  <SCORE.INTRA>
-3.84133

>  <SCORE.INTRA.DIHEDRAL>
-4.5302

>  <SCORE.INTRA.DIHEDRAL.0>
5.0186

>  <SCORE.INTRA.POLAR>
0

>  <SCORE.INTRA.POLAR.0>
0

>  <SCORE.INTRA.REPUL>
0

>  <SCORE.INTRA.REPUL.0>
0

>  <SCORE.INTRA.SOLV>
-0.0817512

>  <SCORE.INTRA.SOLV.lig_0>
-16.1608

>  <SCORE.INTRA.VDW>
-1.53535

>  <SCORE.INTRA.VDW.0>
1.14169

>  <SCORE.INTRA.norm>
-0.320111

>  <SCORE.RESTR>
0

>  <SCORE.RESTR.CAVITY>
0

>  <SCORE.RESTR.norm>
0

>  <SCORE.SYSTEM>
0

>  <SCORE.SYSTEM.CONST>
0

>  <SCORE.SYSTEM.DIHEDRAL>
0

>  <SCORE.SYSTEM.SOLV>
0

>  <SCORE.SYSTEM.norm>
0

>  <SCORE.heavy>
12

>  <SCORE.norm>
-0.936276

>  <RMSD>
36.749

$$$$
ligand
 OpenBabel11021811493D
libRbt.so/2013.1/901 2013/11/27
 12 12  0  0  0  0  0  0  0  0999 V2000
   12.2662   10.6302   15.3252 N   0  0  0  0  0  0  0  0  0  0  0  0
   12.9995    7.1304   18.0965 O   0  0  0  0  0  0  0  0  0  0  0  0
   13.5833   10.8212   14.6699 C   0  0  0  0  0  0  0  0  0  0  0  0
   11.1457    6.3354   16.8704 O   0  0  0  0  0  0  0  0  0  0  0  0
   13.4736   11.9964   13.7039 C   0  0  0  0  0  0  0  0  0  0  0  0
   13.3788    5.4316   16.3898 O   0  0  0  0  0  0  0  0  0  0  0  0
   13.2007   13.2252   14.4553 N   0  0  0  0  0  0  0  0  0  0  0  0
   13.0756   12.8733   15.8719 C   0  0  0  0  0  0  0  0  0  0  0  0
   11.9119   11.9032   15.9832 C   0  0  0  0  0  0  0  0  0  0  0  0
   12.1740    9.4692   16.2972 C   0  0  0  0  0  0  0  0  0  0  0  0
   12.6380    8.0852   15.7725 C   0  0  0  0  0  0  0  0  0  0  0  0
   12.5241    6.7458   16.8004 S   0  0  0  0  0  0  0  0  0  0  0  0
  1  3  1  0  0  0  0
  1  9  1  0  0  0  0
  1 10  1  0  0  0  0
  2 12  1  0  0  0  0
  3  5  1  0  0  0  0
  4 12  2  0  0  0  0
  5  7  1  0  0  0  0
  6 12  2  0  0  0  0
  7  8  1  0  0  0  0
  8  9  1  0  0  0  0
 10 11  1  0  0  0  0
 11 12  1  0  0  0  0
M  END
>  <CHROM.1>
-52.02374278,-178.58432433,-44.13757684,12.67549276,9.18982076,15.98107441
1.43432838,0.96831315,-0.21767631

>  <Name>
ligand

>  <RI>
0

>  <Rbt.Current_Directory>
/home/itssahil/PROJECTS/Mol_Feturizer/New_Systems/rnas/4E8N

>  <Rbt.Executable>
rbdock ($Id: //depot/dev/client3/rdock/2013.1/src/exe/rbdock.cxx#4 $)

>  <Rbt.Library>
libRbt.so (2013.1, Build901 2013/11/27)

>  <Rbt.Parameter_File>
/export/apps/rDock/src/rDock_2013.1_src/data/scripts/dock_solv.prm

>  <Rbt.Receptor>
prm/blind_docking_100.prm

>  <SCORE>
-13.3047

>  <SCORE.INTER>
-9.83819

>  <SCORE.INTER.CONST>
1

>  <SCORE.INTER.POLAR>
0

>  <SCORE.INTER.ROT>
3

>  <SCORE.INTER.SOLV>
10.5296

>  <SCORE.INTER.VDW>
-15.6687

>  <SCORE.INTER.norm>
-0.819849

>  <SCORE.INTRA>
-3.46654

>  <SCORE.INTRA.DIHEDRAL>
-4.33398

>  <SCORE.INTRA.DIHEDRAL.0>
5.0186

>  <SCORE.INTRA.POLAR>
0

>  <SCORE.INTRA.POLAR.0>
0

>  <SCORE.INTRA.REPUL>
0

>  <SCORE.INTRA.REPUL.0>
0

>  <SCORE.INTRA.SOLV>
-0.138415

>  <SCORE.INTRA.SOLV.lig_0>
-16.1608

>  <SCORE.INTRA.VDW>
-1.23034

>  <SCORE.INTRA.VDW.0>
1.14169

>  <SCORE.INTRA.norm>
-0.288878

>  <SCORE.RESTR>
0

>  <SCORE.RESTR.CAVITY>
0

>  <SCORE.RESTR.norm>
0

>  <SCORE.SYSTEM>
0

>  <SCORE.SYSTEM.CONST>
0

>  <SCORE.SYSTEM.DIHEDRAL>
0

>  <SCORE.SYSTEM.SOLV>
0

>  <SCORE.SYSTEM.norm>
0

>  <SCORE.heavy>
12

>  <SCORE.norm>
-1.10873

>  <RMSD>
37.010

$$$$
ligand
 OpenBabel11021811493D
libRbt.so/2013.1/901 2013/11/27
 12 12  0  0  0  0  0  0  0  0999 V2000
   13.4348   11.2530   14.1047 N   0  0  0  0  0  0  0  0  0  0  0  0
   10.7398    9.4510   17.2794 O   0  0  0  0  0  0  0  0  0  0  0  0
   14.6018   10.5610   13.5046 C   0  0  0  0  0  0  0  0  0  0  0  0
   10.7385    7.3742   16.1575 O   0  0  0  0  0  0  0  0  0  0  0  0
   14.9993   11.3036   12.2331 C   0  0  0  0  0  0  0  0  0  0  0  0
   12.5956    7.9194   17.6703 O   0  0  0  0  0  0  0  0  0  0  0  0
   15.4486   12.6564   12.5752 N   0  0  0  0  0  0  0  0  0  0  0  0
   15.3022   12.8315   14.0223 C   0  0  0  0  0  0  0  0  0  0  0  0
   13.8269   12.6566   14.3396 C   0  0  0  0  0  0  0  0  0  0  0  0
   12.8710   10.6254   15.3653 C   0  0  0  0  0  0  0  0  0  0  0  0
   12.1914    9.2400   15.2078 C   0  0  0  0  0  0  0  0  0  0  0  0
   11.5424    8.4917   16.5797 S   0  0  0  0  0  0  0  0  0  0  0  0
  1  3  1  0  0  0  0
  1  9  1  0  0  0  0
  1 10  1  0  0  0  0
  2 12  1  0  0  0  0
  3  5  1  0  0  0  0
  4 12  2  0  0  0  0
  5  7  1  0  0  0  0
  6 12  2  0  0  0  0
  7  8  1  0  0  0  0
  8  9  1  0  0  0  0
 10 11  1  0  0  0  0
 11 12  1  0  0  0  0
M  END
>  <CHROM.1>
-67.48441448,-179.93236452,48.33897993,12.97967932,10.12257760,15.14112838
0.29336583,0.95340163,0.46624862

>  <Name>
ligand

>  <RI>
0

>  <Rbt.Current_Directory>
/home/itssahil/PROJECTS/Mol_Feturizer/New_Systems/rnas/4E8N

>  <Rbt.Executable>
rbdock ($Id: //depot/dev/client3/rdock/2013.1/src/exe/rbdock.cxx#4 $)

>  <Rbt.Library>
libRbt.so (2013.1, Build901 2013/11/27)

>  <Rbt.Parameter_File>
/export/apps/rDock/src/rDock_2013.1_src/data/scripts/dock_solv.prm

>  <Rbt.Receptor>
prm/blind_docking_100.prm

>  <SCORE>
-13.4361

>  <SCORE.INTER>
-9.51551

>  <SCORE.INTER.CONST>
1

>  <SCORE.INTER.POLAR>
0

>  <SCORE.INTER.ROT>
3

>  <SCORE.INTER.SOLV>
11.0618

>  <SCORE.INTER.VDW>
-15.6309

>  <SCORE.INTER.norm>
-0.792959

>  <SCORE.INTRA>
-3.92063

>  <SCORE.INTRA.DIHEDRAL>
-4.5755

>  <SCORE.INTRA.DIHEDRAL.0>
5.0186

>  <SCORE.INTRA.POLAR>
0

>  <SCORE.INTRA.POLAR.0>
0

>  <SCORE.INTRA.REPUL>
0

>  <SCORE.INTRA.REPUL.0>
0

>  <SCORE.INTRA.SOLV>
-0.130804

>  <SCORE.INTRA.SOLV.lig_0>
-16.1608

>  <SCORE.INTRA.VDW>
-1.56748

>  <SCORE.INTRA.VDW.0>
1.14169

>  <SCORE.INTRA.norm>
-0.326719

>  <SCORE.RESTR>
0

>  <SCORE.RESTR.CAVITY>
0

>  <SCORE.RESTR.norm>
0

>  <SCORE.SYSTEM>
0

>  <SCORE.SYSTEM.CONST>
0

>  <SCORE.SYSTEM.DIHEDRAL>
0

>  <SCORE.SYSTEM.SOLV>
0

>  <SCORE.SYSTEM.norm>
0

>  <SCORE.heavy>
12

>  <SCORE.norm>
-1.11968

>  <RMSD>
37.116

$$$$
ligand
 OpenBabel11021811493D
libRbt.so/2013.1/901 2013/11/27
 12 12  0  0  0  0  0  0  0  0999 V2000
   11.8526    9.9355   15.6888 N   0  0  0  0  0  0  0  0  0  0  0  0
   10.8353    5.3920   15.1246 O   0  0  0  0  0  0  0  0  0  0  0  0
   13.1222   10.5771   15.2676 C   0  0  0  0  0  0  0  0  0  0  0  0
   11.6675    5.7094   17.3106 O   0  0  0  0  0  0  0  0  0  0  0  0
   12.8412   12.0452   14.9645 C   0  0  0  0  0  0  0  0  0  0  0  0
    9.2592    5.3515   16.9839 O   0  0  0  0  0  0  0  0  0  0  0  0
   12.4174   12.7271   16.1911 N   0  0  0  0  0  0  0  0  0  0  0  0
   12.3622   11.7343   17.2669 C   0  0  0  0  0  0  0  0  0  0  0  0
   11.3408   10.6899   16.8498 C   0  0  0  0  0  0  0  0  0  0  0  0
   11.9317    8.4517   15.9938 C   0  0  0  0  0  0  0  0  0  0  0  0
   10.5831    7.7011   16.1482 C   0  0  0  0  0  0  0  0  0  0  0  0
   10.6073    6.0264   16.3893 S   0  0  0  0  0  0  0  0  0  0  0  0
  1  3  1  0  0  0  0
  1  9  1  0  0  0  0
  1 10  1  0  0  0  0
  2 12  1  0  0  0  0
  3  5  1  0  0  0  0
  4 12  2  0  0  0  0
  5  7  1  0  0  0  0
  6 12  2  0  0  0  0
  7  8  1  0  0  0  0
  8  9  1  0  0  0  0
 10 11  1  0  0  0  0
 11 12  1  0  0  0  0
M  END
>  <CHROM.1>
-167.75155030,176.09754687,-78.69505161,11.44789846,8.49128033,16.21011327
-0.97449703,-0.97832573,-2.69896516

>  <Name>
ligand

>  <RI>
0

>  <Rbt.Current_Directory>
/home/itssahil/PROJECTS/Mol_Feturizer/New_Systems/rnas/4E8N

>  <Rbt.Executable>
rbdock ($Id: //depot/dev/client3/rdock/2013.1/src/exe/rbdock.cxx#4 $)

>  <Rbt.Library>
libRbt.so (2013.1, Build901 2013/11/27)

>  <Rbt.Parameter_File>
/export/apps/rDock/src/rDock_2013.1_src/data/scripts/dock_solv.prm

>  <Rbt.Receptor>
prm/blind_docking_40.prm

>  <SCORE>
-14.5324

>  <SCORE.INTER>
-11.1078

>  <SCORE.INTER.CONST>
1

>  <SCORE.INTER.POLAR>
0

>  <SCORE.INTER.ROT>
3

>  <SCORE.INTER.SOLV>
10.2464

>  <SCORE.INTER.VDW>
-16.4207

>  <SCORE.INTER.norm>
-0.925646

>  <SCORE.INTRA>
-3.42463

>  <SCORE.INTRA.DIHEDRAL>
-3.99506

>  <SCORE.INTRA.DIHEDRAL.0>
5.0186

>  <SCORE.INTRA.POLAR>
0

>  <SCORE.INTRA.POLAR.0>
0

>  <SCORE.INTRA.REPUL>
0

>  <SCORE.INTRA.REPUL.0>
0

>  <SCORE.INTRA.SOLV>
-0.0682595

>  <SCORE.INTRA.SOLV.lig_0>
-16.1608

>  <SCORE.INTRA.VDW>
-1.39297

>  <SCORE.INTRA.VDW.0>
1.14169

>  <SCORE.INTRA.norm>
-0.285386

>  <SCORE.RESTR>
0

>  <SCORE.RESTR.CAVITY>
0

>  <SCORE.RESTR.norm>
0

>  <SCORE.SYSTEM>
0

>  <SCORE.SYSTEM.CONST>
0

>  <SCORE.SYSTEM.DIHEDRAL>
0

>  <SCORE.SYSTEM.SOLV>
0

>  <SCORE.SYSTEM.norm>
0

>  <SCORE.heavy>
12

>  <SCORE.norm>
-1.21103

>  <RMSD>
37.155

$$$$
ligand
 OpenBabel11021811493D
libRbt.so/2013.1/901 2013/11/27
 12 12  0  0  0  0  0  0  0  0999 V2000
   11.8528    9.9365   15.6820 N   0  0  0  0  0  0  0  0  0  0  0  0
   10.8718    5.3818   15.1568 O   0  0  0  0  0  0  0  0  0  0  0  0
   13.1221   10.5780   15.2597 C   0  0  0  0  0  0  0  0  0  0  0  0
   11.6431    5.7307   17.3602 O   0  0  0  0  0  0  0  0  0  0  0  0
   12.8415   12.0468   14.9595 C   0  0  0  0  0  0  0  0  0  0  0  0
    9.2460    5.3584   16.9730 O   0  0  0  0  0  0  0  0  0  0  0  0
   12.4202   12.7269   16.1880 N   0  0  0  0  0  0  0  0  0  0  0  0
   12.3662   11.7323   17.2623 C   0  0  0  0  0  0  0  0  0  0  0  0
   11.3435   10.6892   16.8452 C   0  0  0  0  0  0  0  0  0  0  0  0
   11.9316    8.4520   15.9844 C   0  0  0  0  0  0  0  0  0  0  0  0
   10.5828    7.7027   16.1433 C   0  0  0  0  0  0  0  0  0  0  0  0
   10.6070    6.0313   16.4066 S   0  0  0  0  0  0  0  0  0  0  0  0
  1  3  1  0  0  0  0
  1  9  1  0  0  0  0
  1 10  1  0  0  0  0
  2 12  1  0  0  0  0
  3  5  1  0  0  0  0
  4 12  2  0  0  0  0
  5  7  1  0  0  0  0
  6 12  2  0  0  0  0
  7  8  1  0  0  0  0
  8  9  1  0  0  0  0
 10 11  1  0  0  0  0
 11 12  1  0  0  0  0
M  END
>  <CHROM.1>
-167.89671712,177.07057739,-77.35339323,11.44845676,8.49378740,16.21551614
-0.97070187,-0.98074660,-2.69895195

>  <Name>
ligand

>  <RI>
0

>  <Rbt.Current_Directory>
/home/itssahil/PROJECTS/Mol_Feturizer/New_Systems/rnas/4E8N

>  <Rbt.Executable>
rbdock ($Id: //depot/dev/client3/rdock/2013.1/src/exe/rbdock.cxx#4 $)

>  <Rbt.Library>
libRbt.so (2013.1, Build901 2013/11/27)

>  <Rbt.Parameter_File>
/export/apps/rDock/src/rDock_2013.1_src/data/scripts/dock_solv.prm

>  <Rbt.Receptor>
prm/blind_docking_40.prm

>  <SCORE>
-14.5396

>  <SCORE.INTER>
-11.0437

>  <SCORE.INTER.CONST>
1

>  <SCORE.INTER.POLAR>
0

>  <SCORE.INTER.ROT>
3

>  <SCORE.INTER.SOLV>
10.289

>  <SCORE.INTER.VDW>
-16.3921

>  <SCORE.INTER.norm>
-0.920308

>  <SCORE.INTRA>
-3.49595

>  <SCORE.INTRA.DIHEDRAL>
-4.12628

>  <SCORE.INTRA.DIHEDRAL.0>
5.0186

>  <SCORE.INTRA.POLAR>
0

>  <SCORE.INTRA.POLAR.0>
0

>  <SCORE.INTRA.REPUL>
0

>  <SCORE.INTRA.REPUL.0>
0

>  <SCORE.INTRA.SOLV>
-0.0711927

>  <SCORE.INTRA.SOLV.lig_0>
-16.1608

>  <SCORE.INTRA.VDW>
-1.39721

>  <SCORE.INTRA.VDW.0>
1.14169

>  <SCORE.INTRA.norm>
-0.291329

>  <SCORE.RESTR>
0

>  <SCORE.RESTR.CAVITY>
0

>  <SCORE.RESTR.norm>
0

>  <SCORE.SYSTEM>
0

>  <SCORE.SYSTEM.CONST>
0

>  <SCORE.SYSTEM.DIHEDRAL>
0

>  <SCORE.SYSTEM.SOLV>
0

>  <SCORE.SYSTEM.norm>
0

>  <SCORE.heavy>
12

>  <SCORE.norm>
-1.21164

>  <RMSD>
37.156

$$$$
ligand
 OpenBabel11021811493D
libRbt.so/2013.1/901 2013/11/27
 12 12  0  0  0  0  0  0  0  0999 V2000
   11.8147    9.9477   15.7417 N   0  0  0  0  0  0  0  0  0  0  0  0
   10.9227    5.3732   15.1995 O   0  0  0  0  0  0  0  0  0  0  0  0
   13.0713   10.5959   15.2926 C   0  0  0  0  0  0  0  0  0  0  0  0
   11.6400    5.7426   17.4178 O   0  0  0  0  0  0  0  0  0  0  0  0
   12.7731   12.0592   14.9828 C   0  0  0  0  0  0  0  0  0  0  0  0
    9.2586    5.3277   16.9804 O   0  0  0  0  0  0  0  0  0  0  0  0
   12.3659   12.7477   16.2113 N   0  0  0  0  0  0  0  0  0  0  0  0
   12.3381   11.7632   17.2959 C   0  0  0  0  0  0  0  0  0  0  0  0
   11.3178   10.7074   16.9057 C   0  0  0  0  0  0  0  0  0  0  0  0
   11.9113    8.4670   16.0571 C   0  0  0  0  0  0  0  0  0  0  0  0
   10.5725    7.6920   16.1711 C   0  0  0  0  0  0  0  0  0  0  0  0
   10.6198    6.0222   16.4410 S   0  0  0  0  0  0  0  0  0  0  0  0
  1  3  1  0  0  0  0
  1  9  1  0  0  0  0
  1 10  1  0  0  0  0
  2 12  1  0  0  0  0
  3  5  1  0  0  0  0
  4 12  2  0  0  0  0
  5  7  1  0  0  0  0
  6 12  2  0  0  0  0
  7  8  1  0  0  0  0
  8  9  1  0  0  0  0
 10 11  1  0  0  0  0
 11 12  1  0  0  0  0
M  END
>  <CHROM.1>
-164.76414591,176.84291300,-78.14326973,11.43402221,8.49842741,16.25455554
-0.97830313,-0.99666741,-2.70032776

>  <Name>
ligand

>  <RI>
0

>  <Rbt.Current_Directory>
/home/itssahil/PROJECTS/Mol_Feturizer/New_Systems/rnas/4E8N

>  <Rbt.Executable>
rbdock ($Id: //depot/dev/client3/rdock/2013.1/src/exe/rbdock.cxx#4 $)

>  <Rbt.Library>
libRbt.so (2013.1, Build901 2013/11/27)

>  <Rbt.Parameter_File>
/export/apps/rDock/src/rDock_2013.1_src/data/scripts/dock_solv.prm

>  <Rbt.Receptor>
prm/blind_docking_40.prm

>  <SCORE>
-14.514

>  <SCORE.INTER>
-11.0452

>  <SCORE.INTER.CONST>
1

>  <SCORE.INTER.POLAR>
0

>  <SCORE.INTER.ROT>
3

>  <SCORE.INTER.SOLV>
10.3833

>  <SCORE.INTER.VDW>
-16.4246

>  <SCORE.INTER.norm>
-0.920434

>  <SCORE.INTRA>
-3.46881

>  <SCORE.INTRA.DIHEDRAL>
-3.94482

>  <SCORE.INTRA.DIHEDRAL.0>
5.0186

>  <SCORE.INTRA.POLAR>
0

>  <SCORE.INTRA.POLAR.0>
0

>  <SCORE.INTRA.REPUL>
0

>  <SCORE.INTRA.REPUL.0>
0

>  <SCORE.INTRA.SOLV>
-0.0702165

>  <SCORE.INTRA.SOLV.lig_0>
-16.1608

>  <SCORE.INTRA.VDW>
-1.46129

>  <SCORE.INTRA.VDW.0>
1.14169

>  <SCORE.INTRA.norm>
-0.289067

>  <SCORE.RESTR>
0

>  <SCORE.RESTR.CAVITY>
0

>  <SCORE.RESTR.norm>
0

>  <SCORE.SYSTEM>
0

>  <SCORE.SYSTEM.CONST>
0

>  <SCORE.SYSTEM.DIHEDRAL>
0

>  <SCORE.SYSTEM.SOLV>
0

>  <SCORE.SYSTEM.norm>
0

>  <SCORE.heavy>
12

>  <SCORE.norm>
-1.2095

>  <RMSD>
37.183

$$$$
ligand
 OpenBabel11021811493D
libRbt.so/2013.1/901 2013/11/27
 12 12  0  0  0  0  0  0  0  0999 V2000
   11.7115   10.1787   16.0116 N   0  0  0  0  0  0  0  0  0  0  0  0
   10.5664    5.3171   14.9331 O   0  0  0  0  0  0  0  0  0  0  0  0
   12.8655   10.6905   15.2323 C   0  0  0  0  0  0  0  0  0  0  0  0
   12.4516    5.7746   16.2779 O   0  0  0  0  0  0  0  0  0  0  0  0
   12.5793   12.1373   14.8438 C   0  0  0  0  0  0  0  0  0  0  0  0
   10.2519    5.5212   17.3419 O   0  0  0  0  0  0  0  0  0  0  0  0
   12.4949   12.9624   16.0527 N   0  0  0  0  0  0  0  0  0  0  0  0
   12.6626   12.0853   17.2140 C   0  0  0  0  0  0  0  0  0  0  0  0
   11.5287   11.0752   17.1700 C   0  0  0  0  0  0  0  0  0  0  0  0
   11.8019    8.7297   16.4515 C   0  0  0  0  0  0  0  0  0  0  0  0
   10.9082    7.7155   15.6909 C   0  0  0  0  0  0  0  0  0  0  0  0
   11.0608    6.0687   16.0487 S   0  0  0  0  0  0  0  0  0  0  0  0
  1  3  1  0  0  0  0
  1  9  1  0  0  0  0
  1 10  1  0  0  0  0
  2 12  1  0  0  0  0
  3  5  1  0  0  0  0
  4 12  2  0  0  0  0
  5  7  1  0  0  0  0
  6 12  2  0  0  0  0
  7  8  1  0  0  0  0
  8  9  1  0  0  0  0
 10 11  1  0  0  0  0
 11 12  1  0  0  0  0
M  END
>  <CHROM.1>
-105.94387556,174.95599344,-158.07805005,11.65643243,8.63657257,16.10278569
-0.84894466,-1.22003788,-2.45290929

>  <Name>
ligand

>  <RI>
0

>  <Rbt.Current_Directory>
/home/itssahil/PROJECTS/Mol_Feturizer/New_Systems/rnas/4E8N

>  <Rbt.Executable>
rbdock ($Id: //depot/dev/client3/rdock/2013.1/src/exe/rbdock.cxx#4 $)

>  <Rbt.Library>
libRbt.so (2013.1, Build901 2013/11/27)

>  <Rbt.Parameter_File>
/export/apps/rDock/src/rDock_2013.1_src/data/scripts/dock_solv.prm

>  <Rbt.Receptor>
prm/blind_docking_40.prm

>  <SCORE>
-13.6291

>  <SCORE.INTER>
-11.0346

>  <SCORE.INTER.CONST>
1

>  <SCORE.INTER.POLAR>
0

>  <SCORE.INTER.ROT>
3

>  <SCORE.INTER.SOLV>
9.60737

>  <SCORE.INTER.VDW>
-16.1589

>  <SCORE.INTER.norm>
-0.919553

>  <SCORE.INTRA>
-2.59444

>  <SCORE.INTRA.DIHEDRAL>
-1.69502

>  <SCORE.INTRA.DIHEDRAL.0>
5.0186

>  <SCORE.INTRA.POLAR>
0

>  <SCORE.INTRA.POLAR.0>
0

>  <SCORE.INTRA.REPUL>
0

>  <SCORE.INTRA.REPUL.0>
0

>  <SCORE.INTRA.SOLV>
0.0606578

>  <SCORE.INTRA.SOLV.lig_0>
-16.1608

>  <SCORE.INTRA.VDW>
-1.77726

>  <SCORE.INTRA.VDW.0>
1.14169

>  <SCORE.INTRA.norm>
-0.216203

>  <SCORE.RESTR>
0

>  <SCORE.RESTR.CAVITY>
0

>  <SCORE.RESTR.norm>
0

>  <SCORE.SYSTEM>
0

>  <SCORE.SYSTEM.CONST>
0

>  <SCORE.SYSTEM.DIHEDRAL>
0

>  <SCORE.SYSTEM.SOLV>
0

>  <SCORE.SYSTEM.norm>
0

>  <SCORE.heavy>
12

>  <SCORE.norm>
-1.13576

>  <RMSD>
37.193

$$$$
ligand
 OpenBabel11021811493D
libRbt.so/2013.1/901 2013/11/27
 12 12  0  0  0  0  0  0  0  0999 V2000
   11.6499   10.2392   16.0882 N   0  0  0  0  0  0  0  0  0  0  0  0
   10.6761    5.2810   15.1118 O   0  0  0  0  0  0  0  0  0  0  0  0
   12.9971   10.4289   15.4966 C   0  0  0  0  0  0  0  0  0  0  0  0
   11.4853    5.7611   17.2767 O   0  0  0  0  0  0  0  0  0  0  0  0
   13.0797   11.8438   14.9334 C   0  0  0  0  0  0  0  0  0  0  0  0
    9.1185    6.1714   16.7621 O   0  0  0  0  0  0  0  0  0  0  0  0
   12.9647   12.8143   16.0261 N   0  0  0  0  0  0  0  0  0  0  0  0
   12.7550   12.0729   17.2721 C   0  0  0  0  0  0  0  0  0  0  0  0
   11.4629   11.2911   17.1067 C   0  0  0  0  0  0  0  0  0  0  0  0
   11.3693    8.8646   16.6652 C   0  0  0  0  0  0  0  0  0  0  0  0
   11.2130    7.7030   15.6492 C   0  0  0  0  0  0  0  0  0  0  0  0
   10.6387    6.2105   16.2021 S   0  0  0  0  0  0  0  0  0  0  0  0
  1  3  1  0  0  0  0
  1  9  1  0  0  0  0
  1 10  1  0  0  0  0
  2 12  1  0  0  0  0
  3  5  1  0  0  0  0
  4 12  2  0  0  0  0
  5  7  1  0  0  0  0
  6 12  2  0  0  0  0
  7  8  1  0  0  0  0
  8  9  1  0  0  0  0
 10 11  1  0  0  0  0
 11 12  1  0  0  0  0
M  END
>  <CHROM.1>
-70.47014151,-169.56113442,-175.77762712,11.48888606,8.68711153,16.21975517
0.94271846,0.94392377,0.51784674

>  <Name>
ligand

>  <RI>
0

>  <Rbt.Current_Directory>
/home/itssahil/PROJECTS/Mol_Feturizer/New_Systems/rnas/4E8N

>  <Rbt.Executable>
rbdock ($Id: //depot/dev/client3/rdock/2013.1/src/exe/rbdock.cxx#4 $)

>  <Rbt.Library>
libRbt.so (2013.1, Build901 2013/11/27)

>  <Rbt.Parameter_File>
/export/apps/rDock/src/rDock_2013.1_src/data/scripts/dock_solv.prm

>  <Rbt.Receptor>
prm/blind_docking_40.prm

>  <SCORE>
-14.7322

>  <SCORE.INTER>
-10.9718

>  <SCORE.INTER.CONST>
1

>  <SCORE.INTER.POLAR>
0

>  <SCORE.INTER.ROT>
3

>  <SCORE.INTER.SOLV>
10.4151

>  <SCORE.INTER.VDW>
-16.3863

>  <SCORE.INTER.norm>
-0.914321

>  <SCORE.INTRA>
-3.76033

>  <SCORE.INTRA.DIHEDRAL>
-4.33874

>  <SCORE.INTRA.DIHEDRAL.0>
5.0186

>  <SCORE.INTRA.POLAR>
0

>  <SCORE.INTRA.POLAR.0>
0

>  <SCORE.INTRA.REPUL>
0

>  <SCORE.INTRA.REPUL.0>
0

>  <SCORE.INTRA.SOLV>
0.0710091

>  <SCORE.INTRA.SOLV.lig_0>
-16.1608

>  <SCORE.INTRA.VDW>
-1.62646

>  <SCORE.INTRA.VDW.0>
1.14169

>  <SCORE.INTRA.norm>
-0.313361

>  <SCORE.RESTR>
0

>  <SCORE.RESTR.CAVITY>
0

>  <SCORE.RESTR.norm>
0

>  <SCORE.SYSTEM>
0

>  <SCORE.SYSTEM.CONST>
0

>  <SCORE.SYSTEM.DIHEDRAL>
0

>  <SCORE.SYSTEM.SOLV>
0

>  <SCORE.SYSTEM.norm>
0

>  <SCORE.heavy>
12

>  <SCORE.norm>
-1.22768

>  <RMSD>
37.299

$$$$
ligand
 OpenBabel11021811493D
libRbt.so/2013.1/901 2013/11/27
 12 12  0  0  0  0  0  0  0  0999 V2000
   11.6003   10.2337   16.1596 N   0  0  0  0  0  0  0  0  0  0  0  0
   10.6422    5.2880   15.1090 O   0  0  0  0  0  0  0  0  0  0  0  0
   12.9408   10.4432   15.5595 C   0  0  0  0  0  0  0  0  0  0  0  0
   11.4673    5.7341   17.2750 O   0  0  0  0  0  0  0  0  0  0  0  0
   13.0081   11.8677   15.0189 C   0  0  0  0  0  0  0  0  0  0  0  0
    9.0953    6.1459   16.7864 O   0  0  0  0  0  0  0  0  0  0  0  0
   12.8956   12.8193   16.1284 N   0  0  0  0  0  0  0  0  0  0  0  0
   12.7023   12.0561   17.3638 C   0  0  0  0  0  0  0  0  0  0  0  0
   11.4146   11.2674   17.1968 C   0  0  0  0  0  0  0  0  0  0  0  0
   11.3350    8.8478   16.7164 C   0  0  0  0  0  0  0  0  0  0  0  0
   11.1764    7.7022   15.6827 C   0  0  0  0  0  0  0  0  0  0  0  0
   10.6109    6.1989   16.2150 S   0  0  0  0  0  0  0  0  0  0  0  0
  1  3  1  0  0  0  0
  1  9  1  0  0  0  0
  1 10  1  0  0  0  0
  2 12  1  0  0  0  0
  3  5  1  0  0  0  0
  4 12  2  0  0  0  0
  5  7  1  0  0  0  0
  6 12  2  0  0  0  0
  7  8  1  0  0  0  0
  8  9  1  0  0  0  0
 10 11  1  0  0  0  0
 11 12  1  0  0  0  0
M  END
>  <CHROM.1>
-70.54797245,-169.27186386,-175.89418040,11.44747068,8.67988990,16.26648195
0.94367292,0.95448330,0.53370836

>  <Name>
ligand

>  <RI>
0

>  <Rbt.Current_Directory>
/home/itssahil/PROJECTS/Mol_Feturizer/New_Systems/rnas/4E8N

>  <Rbt.Executable>
rbdock ($Id: //depot/dev/client3/rdock/2013.1/src/exe/rbdock.cxx#4 $)

>  <Rbt.Library>
libRbt.so (2013.1, Build901 2013/11/27)

>  <Rbt.Parameter_File>
/export/apps/rDock/src/rDock_2013.1_src/data/scripts/dock_solv.prm

>  <Rbt.Receptor>
prm/blind_docking_40.prm

>  <SCORE>
-14.6982

>  <SCORE.INTER>
-10.9476

>  <SCORE.INTER.CONST>
1

>  <SCORE.INTER.POLAR>
0

>  <SCORE.INTER.ROT>
3

>  <SCORE.INTER.SOLV>
10.4646

>  <SCORE.INTER.VDW>
-16.3866

>  <SCORE.INTER.norm>
-0.912298

>  <SCORE.INTRA>
-3.75058

>  <SCORE.INTRA.DIHEDRAL>
-4.31641

>  <SCORE.INTRA.DIHEDRAL.0>
5.0186

>  <SCORE.INTRA.POLAR>
0

>  <SCORE.INTRA.POLAR.0>
0

>  <SCORE.INTRA.REPUL>
0

>  <SCORE.INTRA.REPUL.0>
0

>  <SCORE.INTRA.SOLV>
0.0710534

>  <SCORE.INTRA.SOLV.lig_0>
-16.1608

>  <SCORE.INTRA.VDW>
-1.6279

>  <SCORE.INTRA.VDW.0>
1.14169

>  <SCORE.INTRA.norm>
-0.312548

>  <SCORE.RESTR>
0

>  <SCORE.RESTR.CAVITY>
0

>  <SCORE.RESTR.norm>
0

>  <SCORE.SYSTEM>
0

>  <SCORE.SYSTEM.CONST>
0

>  <SCORE.SYSTEM.DIHEDRAL>
0

>  <SCORE.SYSTEM.SOLV>
0

>  <SCORE.SYSTEM.norm>
0

>  <SCORE.heavy>
12

>  <SCORE.norm>
-1.22485

>  <RMSD>
37.333

$$$$
ligand
 OpenBabel11021811493D
libRbt.so/2013.1/901 2013/11/27
 12 12  0  0  0  0  0  0  0  0999 V2000
   13.4310   11.3674   15.2085 N   0  0  0  0  0  0  0  0  0  0  0  0
   10.8279    8.0581   15.9602 O   0  0  0  0  0  0  0  0  0  0  0  0
   14.4823   11.9873   16.0519 C   0  0  0  0  0  0  0  0  0  0  0  0
   13.0852    8.5314   15.4580 O   0  0  0  0  0  0  0  0  0  0  0  0
   15.8051   11.9232   15.2954 C   0  0  0  0  0  0  0  0  0  0  0  0
   12.5178    7.5819   17.6514 O   0  0  0  0  0  0  0  0  0  0  0  0
   15.7145   12.7363   14.0790 N   0  0  0  0  0  0  0  0  0  0  0  0
   14.3568   13.2801   13.9960 C   0  0  0  0  0  0  0  0  0  0  0  0
   13.4112   12.0934   13.9233 C   0  0  0  0  0  0  0  0  0  0  0  0
   12.0447   11.3040   15.8211 C   0  0  0  0  0  0  0  0  0  0  0  0
   11.8075   10.2067   16.8914 C   0  0  0  0  0  0  0  0  0  0  0  0
   12.0593    8.5882   16.4667 S   0  0  0  0  0  0  0  0  0  0  0  0
  1  3  1  0  0  0  0
  1  9  1  0  0  0  0
  1 10  1  0  0  0  0
  2 12  1  0  0  0  0
  3  5  1  0  0  0  0
  4 12  2  0  0  0  0
  5  7  1  0  0  0  0
  6 12  2  0  0  0  0
  7  8  1  0  0  0  0
  8  9  1  0  0  0  0
 10 11  1  0  0  0  0
 11 12  1  0  0  0  0
M  END
>  <CHROM.1>
-76.82407505,-58.23447121,-89.85917504,13.14361371,10.36610527,15.67582790
1.01259830,-0.13756135,-0.53788921

>  <Name>
ligand

>  <RI>
0

>  <Rbt.Current_Directory>
/home/itssahil/PROJECTS/Mol_Feturizer/New_Systems/rnas/4E8N

>  <Rbt.Executable>
rbdock ($Id: //depot/dev/client3/rdock/2013.1/src/exe/rbdock.cxx#4 $)

>  <Rbt.Library>
libRbt.so (2013.1, Build901 2013/11/27)

>  <Rbt.Parameter_File>
/export/apps/rDock/src/rDock_2013.1_src/data/scripts/dock_solv.prm

>  <Rbt.Receptor>
prm/blind_docking_40.prm

>  <SCORE>
-13.3726

>  <SCORE.INTER>
-10.1808

>  <SCORE.INTER.CONST>
1

>  <SCORE.INTER.POLAR>
0

>  <SCORE.INTER.ROT>
3

>  <SCORE.INTER.SOLV>
9.95721

>  <SCORE.INTER.VDW>
-15.7063

>  <SCORE.INTER.norm>
-0.848403

>  <SCORE.INTRA>
-3.19177

>  <SCORE.INTRA.DIHEDRAL>
-2.73466

>  <SCORE.INTRA.DIHEDRAL.0>
5.0186

>  <SCORE.INTRA.POLAR>
0

>  <SCORE.INTRA.POLAR.0>
0

>  <SCORE.INTRA.REPUL>
0

>  <SCORE.INTRA.REPUL.0>
0

>  <SCORE.INTRA.SOLV>
0.683169

>  <SCORE.INTRA.SOLV.lig_0>
-16.1608

>  <SCORE.INTRA.VDW>
-2.16602

>  <SCORE.INTRA.VDW.0>
1.14169

>  <SCORE.INTRA.norm>
-0.265981

>  <SCORE.RESTR>
0

>  <SCORE.RESTR.CAVITY>
0

>  <SCORE.RESTR.norm>
0

>  <SCORE.SYSTEM>
0

>  <SCORE.SYSTEM.CONST>
0

>  <SCORE.SYSTEM.DIHEDRAL>
0

>  <SCORE.SYSTEM.SOLV>
0

>  <SCORE.SYSTEM.norm>
0

>  <SCORE.heavy>
12

>  <SCORE.norm>
-1.11438

>  <RMSD>
37.506

$$$$
ligand
 OpenBabel11021811493D
libRbt.so/2013.1/901 2013/11/27
 12 12  0  0  0  0  0  0  0  0999 V2000
   12.1045    8.6747   16.7417 N   0  0  0  0  0  0  0  0  0  0  0  0
   13.7657   12.8557   16.9578 O   0  0  0  0  0  0  0  0  0  0  0  0
   12.9144    7.5746   16.1632 C   0  0  0  0  0  0  0  0  0  0  0  0
   12.1297   13.1065   15.2749 O   0  0  0  0  0  0  0  0  0  0  0  0
   12.5189    6.2728   16.8525 C   0  0  0  0  0  0  0  0  0  0  0  0
   11.7016   14.0287   17.5112 O   0  0  0  0  0  0  0  0  0  0  0  0
   11.1187    5.9627   16.5489 N   0  0  0  0  0  0  0  0  0  0  0  0
   10.5795    7.0511   15.7299 C   0  0  0  0  0  0  0  0  0  0  0  0
   10.6834    8.3193   16.5598 C   0  0  0  0  0  0  0  0  0  0  0  0
   12.3936   10.0624   16.2016 C   0  0  0  0  0  0  0  0  0  0  0  0
   11.7962   11.2548   16.9936 C   0  0  0  0  0  0  0  0  0  0  0  0
   12.3633   12.8150   16.6655 S   0  0  0  0  0  0  0  0  0  0  0  0
  1  3  1  0  0  0  0
  1  9  1  0  0  0  0
  1 10  1  0  0  0  0
  2 12  1  0  0  0  0
  3  5  1  0  0  0  0
  4 12  2  0  0  0  0
  5  7  1  0  0  0  0
  6 12  2  0  0  0  0
  7  8  1  0  0  0  0
  8  9  1  0  0  0  0
 10 11  1  0  0  0  0
 11 12  1  0  0  0  0
M  END
>  <CHROM.1>
-167.04775833,166.10710225,-61.11445846,12.05561575,10.21963389,16.53263494
-1.69737899,-0.14701829,0.02597007

>  <Name>
ligand

>  <RI>
0

>  <Rbt.Current_Directory>
/home/itssahil/PROJECTS/Mol_Feturizer/New_Systems/rnas/4E8N

>  <Rbt.Executable>
rbdock ($Id: //depot/dev/client3/rdock/2013.1/src/exe/rbdock.cxx#4 $)

>  <Rbt.Library>
libRbt.so (2013.1, Build901 2013/11/27)

>  <Rbt.Parameter_File>
/export/apps/rDock/src/rDock_2013.1_src/data/scripts/dock_solv.prm

>  <Rbt.Receptor>
prm/blind_docking_80.prm

>  <SCORE>
-14.54

>  <SCORE.INTER>
-10.9977

>  <SCORE.INTER.CONST>
1

>  <SCORE.INTER.POLAR>
0

>  <SCORE.INTER.ROT>
3

>  <SCORE.INTER.SOLV>
12.1606

>  <SCORE.INTER.VDW>
-16.9854

>  <SCORE.INTER.norm>
-0.916477

>  <SCORE.INTRA>
-3.54224

>  <SCORE.INTRA.DIHEDRAL>
-4.10333

>  <SCORE.INTRA.DIHEDRAL.0>
5.0186

>  <SCORE.INTRA.POLAR>
0

>  <SCORE.INTRA.POLAR.0>
0

>  <SCORE.INTRA.REPUL>
0

>  <SCORE.INTRA.REPUL.0>
0

>  <SCORE.INTRA.SOLV>
-0.106453

>  <SCORE.INTRA.SOLV.lig_0>
-16.1608

>  <SCORE.INTRA.VDW>
-1.43735

>  <SCORE.INTRA.VDW.0>
1.14169

>  <SCORE.INTRA.norm>
-0.295186

>  <SCORE.RESTR>
0

>  <SCORE.RESTR.CAVITY>
0

>  <SCORE.RESTR.norm>
0

>  <SCORE.SYSTEM>
0

>  <SCORE.SYSTEM.CONST>
0

>  <SCORE.SYSTEM.DIHEDRAL>
0

>  <SCORE.SYSTEM.SOLV>
0

>  <SCORE.SYSTEM.norm>
0

>  <SCORE.heavy>
12

>  <SCORE.norm>
-1.21166

>  <RMSD>
37.631

$$$$
ligand
 OpenBabel11021811493D
libRbt.so/2013.1/901 2013/11/27
 12 12  0  0  0  0  0  0  0  0999 V2000
   13.9086   11.3518   15.9682 N   0  0  0  0  0  0  0  0  0  0  0  0
   11.0558    7.4141   15.6424 O   0  0  0  0  0  0  0  0  0  0  0  0
   13.8286   12.6420   16.6962 C   0  0  0  0  0  0  0  0  0  0  0  0
   12.7868    8.0755   17.1045 O   0  0  0  0  0  0  0  0  0  0  0  0
   15.1397   12.8526   17.4463 C   0  0  0  0  0  0  0  0  0  0  0  0
   10.6487    9.2843   17.1521 O   0  0  0  0  0  0  0  0  0  0  0  0
   16.2390   12.9846   16.4855 N   0  0  0  0  0  0  0  0  0  0  0  0
   15.6887   12.8109   15.1389 C   0  0  0  0  0  0  0  0  0  0  0  0
   15.0896   11.4159   15.0850 C   0  0  0  0  0  0  0  0  0  0  0  0
   12.6676   10.9530   15.1923 C   0  0  0  0  0  0  0  0  0  0  0  0
   12.4416    9.4337   14.9761 C   0  0  0  0  0  0  0  0  0  0  0  0
   11.7421    8.5298   16.2239 S   0  0  0  0  0  0  0  0  0  0  0  0
  1  3  1  0  0  0  0
  1  9  1  0  0  0  0
  1 10  1  0  0  0  0
  2 12  1  0  0  0  0
  3  5  1  0  0  0  0
  4 12  2  0  0  0  0
  5  7  1  0  0  0  0
  6 12  2  0  0  0  0
  7  8  1  0  0  0  0
  8  9  1  0  0  0  0
 10 11  1  0  0  0  0
 11 12  1  0  0  0  0
M  END
>  <CHROM.1>
-153.02278218,81.64523574,152.39475948,13.21740161,10.37335161,16.12154522
-0.34138871,-0.79190800,-2.05598636

>  <Name>
ligand

>  <RI>
0

>  <Rbt.Current_Directory>
/home/itssahil/PROJECTS/Mol_Feturizer/New_Systems/rnas/4E8N

>  <Rbt.Executable>
rbdock ($Id: //depot/dev/client3/rdock/2013.1/src/exe/rbdock.cxx#4 $)

>  <Rbt.Library>
libRbt.so (2013.1, Build901 2013/11/27)

>  <Rbt.Parameter_File>
/export/apps/rDock/src/rDock_2013.1_src/data/scripts/dock_solv.prm

>  <Rbt.Receptor>
prm/blind_docking_80.prm

>  <SCORE>
-12.655

>  <SCORE.INTER>
-10.347

>  <SCORE.INTER.CONST>
1

>  <SCORE.INTER.POLAR>
0

>  <SCORE.INTER.ROT>
3

>  <SCORE.INTER.SOLV>
11.7739

>  <SCORE.INTER.VDW>
-16.4226

>  <SCORE.INTER.norm>
-0.862249

>  <SCORE.INTRA>
-2.30803

>  <SCORE.INTRA.DIHEDRAL>
-0.953338

>  <SCORE.INTRA.DIHEDRAL.0>
5.0186

>  <SCORE.INTRA.POLAR>
0

>  <SCORE.INTRA.POLAR.0>
0

>  <SCORE.INTRA.REPUL>
0

>  <SCORE.INTRA.REPUL.0>
0

>  <SCORE.INTRA.SOLV>
0.422117

>  <SCORE.INTRA.SOLV.lig_0>
-16.1608

>  <SCORE.INTRA.VDW>
-2.04242

>  <SCORE.INTRA.VDW.0>
1.14169

>  <SCORE.INTRA.norm>
-0.192336

>  <SCORE.RESTR>
0

>  <SCORE.RESTR.CAVITY>
0

>  <SCORE.RESTR.norm>
0

>  <SCORE.SYSTEM>
0

>  <SCORE.SYSTEM.CONST>
0

>  <SCORE.SYSTEM.DIHEDRAL>
0

>  <SCORE.SYSTEM.SOLV>
0

>  <SCORE.SYSTEM.norm>
0

>  <SCORE.heavy>
12

>  <SCORE.norm>
-1.05458

>  <RMSD>
37.635

$$$$
ligand
 OpenBabel11021811493D
libRbt.so/2013.1/901 2013/11/27
 12 12  0  0  0  0  0  0  0  0999 V2000
    4.6202    7.0287    7.0170 N   0  0  0  0  0  0  0  0  0  0  0  0
    9.0412    5.6015    6.6920 O   0  0  0  0  0  0  0  0  0  0  0  0
    3.8064    8.1008    6.3932 C   0  0  0  0  0  0  0  0  0  0  0  0
    9.0564    7.7522    7.6646 O   0  0  0  0  0  0  0  0  0  0  0  0
    2.3413    7.6791    6.4369 C   0  0  0  0  0  0  0  0  0  0  0  0
    9.4865    5.7919    9.0812 O   0  0  0  0  0  0  0  0  0  0  0  0
    1.9005    7.5802    7.8315 N   0  0  0  0  0  0  0  0  0  0  0  0
    3.0493    7.8712    8.6928 C   0  0  0  0  0  0  0  0  0  0  0  0
    4.1060    6.8239    8.3855 C   0  0  0  0  0  0  0  0  0  0  0  0
    6.1197    7.2580    7.0259 C   0  0  0  0  0  0  0  0  0  0  0  0
    6.9587    6.3328    7.9457 C   0  0  0  0  0  0  0  0  0  0  0  0
    8.6460    6.3817    7.8274 S   0  0  0  0  0  0  0  0  0  0  0  0
  1  3  1  0  0  0  0
  1  9  1  0  0  0  0
  1 10  1  0  0  0  0
  2 12  1  0  0  0  0
  3  5  1  0  0  0  0
  4 12  2  0  0  0  0
  5  7  1  0  0  0  0
  6 12  2  0  0  0  0
  7  8  1  0  0  0  0
  8  9  1  0  0  0  0
 10 11  1  0  0  0  0
 11 12  1  0  0  0  0
M  END
>  <CHROM.1>
166.33584533,170.97846184,-79.81731607,6.13789165,6.93762877,7.61284165,-3.02656971
-0.19301871,1.78366604

>  <Name>
ligand

>  <RI>
0

>  <Rbt.Current_Directory>
/home/itssahil/PROJECTS/Mol_Feturizer/New_Systems/rnas/4E8N

>  <Rbt.Executable>
rbdock ($Id: //depot/dev/client3/rdock/2013.1/src/exe/rbdock.cxx#4 $)

>  <Rbt.Library>
libRbt.so (2013.1, Build901 2013/11/27)

>  <Rbt.Parameter_File>
/export/apps/rDock/src/rDock_2013.1_src/data/scripts/dock_solv.prm

>  <Rbt.Receptor>
prm/blind_docking_20.prm

>  <SCORE>
-9.18873

>  <SCORE.INTER>
-7.5723

>  <SCORE.INTER.CONST>
1

>  <SCORE.INTER.POLAR>
0

>  <SCORE.INTER.ROT>
3

>  <SCORE.INTER.SOLV>
7.97338

>  <SCORE.INTER.VDW>
-13.306

>  <SCORE.INTER.norm>
-0.631025

>  <SCORE.INTRA>
-2.09694

>  <SCORE.INTRA.DIHEDRAL>
-3.49379

>  <SCORE.INTRA.DIHEDRAL.0>
5.0186

>  <SCORE.INTRA.POLAR>
0

>  <SCORE.INTRA.POLAR.0>
0

>  <SCORE.INTRA.REPUL>
0

>  <SCORE.INTRA.REPUL.0>
0

>  <SCORE.INTRA.SOLV>
-0.0590161

>  <SCORE.INTRA.SOLV.lig_0>
-16.1608

>  <SCORE.INTRA.VDW>
-0.320542

>  <SCORE.INTRA.VDW.0>
1.14169

>  <SCORE.INTRA.norm>
-0.174745

>  <SCORE.RESTR>
0.480513

>  <SCORE.RESTR.CAVITY>
0.480513

>  <SCORE.RESTR.norm>
0.0400427

>  <SCORE.SYSTEM>
0

>  <SCORE.SYSTEM.CONST>
0

>  <SCORE.SYSTEM.DIHEDRAL>
0

>  <SCORE.SYSTEM.SOLV>
0

>  <SCORE.SYSTEM.norm>
0

>  <SCORE.heavy>
12

>  <SCORE.norm>
-0.765728

>  <RMSD>
37.714

$$$$
ligand
 OpenBabel11021811493D
libRbt.so/2013.1/901 2013/11/27
 12 12  0  0  0  0  0  0  0  0999 V2000
   13.1855   12.1474   15.3251 N   0  0  0  0  0  0  0  0  0  0  0  0
   16.0231   10.8107   13.9624 O   0  0  0  0  0  0  0  0  0  0  0  0
   12.3132   13.1165   16.0328 C   0  0  0  0  0  0  0  0  0  0  0  0
   14.3411    9.1605   14.1013 O   0  0  0  0  0  0  0  0  0  0  0  0
   12.0028   12.5607   17.4188 C   0  0  0  0  0  0  0  0  0  0  0  0
   15.6172    9.4004   12.0159 O   0  0  0  0  0  0  0  0  0  0  0  0
   13.2405   12.4684   18.1988 N   0  0  0  0  0  0  0  0  0  0  0  0
   14.3501   12.8951   17.3427 C   0  0  0  0  0  0  0  0  0  0  0  0
   14.3852   11.9419   16.1603 C   0  0  0  0  0  0  0  0  0  0  0  0
   13.5664   12.5167   13.9040 C   0  0  0  0  0  0  0  0  0  0  0  0
   13.7740   11.3420   12.9126 C   0  0  0  0  0  0  0  0  0  0  0  0
   14.9424   10.1718   13.2712 S   0  0  0  0  0  0  0  0  0  0  0  0
  1  3  1  0  0  0  0
  1  9  1  0  0  0  0
  1 10  1  0  0  0  0
  2 12  1  0  0  0  0
  3  5  1  0  0  0  0
  4 12  2  0  0  0  0
  5  7  1  0  0  0  0
  6 12  2  0  0  0  0
  7  8  1  0  0  0  0
  8  9  1  0  0  0  0
 10 11  1  0  0  0  0
 11 12  1  0  0  0  0
M  END
>  <CHROM.1>
-148.08819927,-58.56013319,-33.23600792,14.11058238,11.36141643,14.83409194
2.08253190,-0.65385464,1.32019560

>  <Name>
ligand

>  <RI>
0

>  <Rbt.Current_Directory>
/home/itssahil/PROJECTS/Mol_Feturizer/New_Systems/rnas/4E8N

>  <Rbt.Executable>
rbdock ($Id: //depot/dev/client3/rdock/2013.1/src/exe/rbdock.cxx#4 $)

>  <Rbt.Library>
libRbt.so (2013.1, Build901 2013/11/27)

>  <Rbt.Parameter_File>
/export/apps/rDock/src/rDock_2013.1_src/data/scripts/dock_solv.prm

>  <Rbt.Receptor>
prm/blind_docking_40.prm

>  <SCORE>
-11.6049

>  <SCORE.INTER>
-8.4095

>  <SCORE.INTER.CONST>
1

>  <SCORE.INTER.POLAR>
0

>  <SCORE.INTER.ROT>
3

>  <SCORE.INTER.SOLV>
9.25284

>  <SCORE.INTER.VDW>
-14.2906

>  <SCORE.INTER.norm>
-0.700792

>  <SCORE.INTRA>
-3.19544

>  <SCORE.INTRA.DIHEDRAL>
-2.26024

>  <SCORE.INTRA.DIHEDRAL.0>
5.0186

>  <SCORE.INTRA.POLAR>
0

>  <SCORE.INTRA.POLAR.0>
0

>  <SCORE.INTRA.REPUL>
0

>  <SCORE.INTRA.REPUL.0>
0

>  <SCORE.INTRA.SOLV>
0.246704

>  <SCORE.INTRA.SOLV.lig_0>
-16.1608

>  <SCORE.INTRA.VDW>
-2.18867

>  <SCORE.INTRA.VDW.0>
1.14169

>  <SCORE.INTRA.norm>
-0.266287

>  <SCORE.RESTR>
0

>  <SCORE.RESTR.CAVITY>
0

>  <SCORE.RESTR.norm>
0

>  <SCORE.SYSTEM>
0

>  <SCORE.SYSTEM.CONST>
0

>  <SCORE.SYSTEM.DIHEDRAL>
0

>  <SCORE.SYSTEM.SOLV>
0

>  <SCORE.SYSTEM.norm>
0

>  <SCORE.heavy>
12

>  <SCORE.norm>
-0.967078

>  <RMSD>
37.969

$$$$
ligand
 OpenBabel11021811493D
libRbt.so/2013.1/901 2013/11/27
 12 12  0  0  0  0  0  0  0  0999 V2000
   13.7841   11.9970   15.9135 N   0  0  0  0  0  0  0  0  0  0  0  0
   16.3369   10.1962   14.0968 O   0  0  0  0  0  0  0  0  0  0  0  0
   12.3288   11.9878   15.6258 C   0  0  0  0  0  0  0  0  0  0  0  0
   14.0693    9.5902   13.8469 O   0  0  0  0  0  0  0  0  0  0  0  0
   11.6225   11.2293   16.7447 C   0  0  0  0  0  0  0  0  0  0  0  0
   15.4686    9.8525   11.8450 O   0  0  0  0  0  0  0  0  0  0  0  0
   11.7920   11.9506   18.0095 N   0  0  0  0  0  0  0  0  0  0  0  0
   12.6323   13.1233   17.7547 C   0  0  0  0  0  0  0  0  0  0  0  0
   13.9669   12.6061   17.2456 C   0  0  0  0  0  0  0  0  0  0  0  0
   14.6581   12.6780   14.8773 C   0  0  0  0  0  0  0  0  0  0  0  0
   14.6985   12.0304   13.4684 C   0  0  0  0  0  0  0  0  0  0  0  0
   15.1414   10.4028   13.3338 S   0  0  0  0  0  0  0  0  0  0  0  0
  1  3  1  0  0  0  0
  1  9  1  0  0  0  0
  1 10  1  0  0  0  0
  2 12  1  0  0  0  0
  3  5  1  0  0  0  0
  4 12  2  0  0  0  0
  5  7  1  0  0  0  0
  6 12  2  0  0  0  0
  7  8  1  0  0  0  0
  8  9  1  0  0  0  0
 10 11  1  0  0  0  0
 11 12  1  0  0  0  0
M  END
>  <CHROM.1>
-64.35735256,-55.68396566,-48.37551687,14.03758738,11.32112725,14.99135394
-2.21457477,-0.51257342,-2.37352068

>  <Name>
ligand

>  <RI>
0

>  <Rbt.Current_Directory>
/home/itssahil/PROJECTS/Mol_Feturizer/New_Systems/rnas/4E8N

>  <Rbt.Executable>
rbdock ($Id: //depot/dev/client3/rdock/2013.1/src/exe/rbdock.cxx#4 $)

>  <Rbt.Library>
libRbt.so (2013.1, Build901 2013/11/27)

>  <Rbt.Parameter_File>
/export/apps/rDock/src/rDock_2013.1_src/data/scripts/dock_solv.prm

>  <Rbt.Receptor>
prm/blind_docking_40.prm

>  <SCORE>
-12.6971

>  <SCORE.INTER>
-8.50281

>  <SCORE.INTER.CONST>
1

>  <SCORE.INTER.POLAR>
0

>  <SCORE.INTER.ROT>
3

>  <SCORE.INTER.SOLV>
8.97742

>  <SCORE.INTER.VDW>
-14.261

>  <SCORE.INTER.norm>
-0.708568

>  <SCORE.INTRA>
-4.19424

>  <SCORE.INTRA.DIHEDRAL>
-4.55314

>  <SCORE.INTRA.DIHEDRAL.0>
5.0186

>  <SCORE.INTRA.POLAR>
0

>  <SCORE.INTRA.POLAR.0>
0

>  <SCORE.INTRA.REPUL>
0

>  <SCORE.INTRA.REPUL.0>
0

>  <SCORE.INTRA.SOLV>
0.549203

>  <SCORE.INTRA.SOLV.lig_0>
-16.1608

>  <SCORE.INTRA.VDW>
-2.19228

>  <SCORE.INTRA.VDW.0>
1.14169

>  <SCORE.INTRA.norm>
-0.34952

>  <SCORE.RESTR>
0

>  <SCORE.RESTR.CAVITY>
0

>  <SCORE.RESTR.norm>
0

>  <SCORE.SYSTEM>
0

>  <SCORE.SYSTEM.CONST>
0

>  <SCORE.SYSTEM.DIHEDRAL>
0

>  <SCORE.SYSTEM.SOLV>
0

>  <SCORE.SYSTEM.norm>
0

>  <SCORE.heavy>
12

>  <SCORE.norm>
-1.05809

>  <RMSD>
37.986

$$$$
ligand
 OpenBabel11021811493D
libRbt.so/2013.1/901 2013/11/27
 12 12  0  0  0  0  0  0  0  0999 V2000
   13.4839   12.6485   15.4429 N   0  0  0  0  0  0  0  0  0  0  0  0
   15.4486    9.7938   12.0804 O   0  0  0  0  0  0  0  0  0  0  0  0
   14.4846   11.9753   16.3067 C   0  0  0  0  0  0  0  0  0  0  0  0
   15.9263   10.4978   14.2822 O   0  0  0  0  0  0  0  0  0  0  0  0
   15.0009   12.9883   17.3234 C   0  0  0  0  0  0  0  0  0  0  0  0
   14.2536    8.7350   13.9226 O   0  0  0  0  0  0  0  0  0  0  0  0
   13.9040   13.4032   18.2030 N   0  0  0  0  0  0  0  0  0  0  0  0
   12.6819   12.7324   17.7527 C   0  0  0  0  0  0  0  0  0  0  0  0
   12.4305   13.1876   16.3253 C   0  0  0  0  0  0  0  0  0  0  0  0
   12.8874   11.7987   14.3369 C   0  0  0  0  0  0  0  0  0  0  0  0
   13.8307   11.4217   13.1647 C   0  0  0  0  0  0  0  0  0  0  0  0
   14.8888   10.1156   13.3599 S   0  0  0  0  0  0  0  0  0  0  0  0
  1  3  1  0  0  0  0
  1  9  1  0  0  0  0
  1 10  1  0  0  0  0
  2 12  1  0  0  0  0
  3  5  1  0  0  0  0
  4 12  2  0  0  0  0
  5  7  1  0  0  0  0
  6 12  2  0  0  0  0
  7  8  1  0  0  0  0
  8  9  1  0  0  0  0
 10 11  1  0  0  0  0
 11 12  1  0  0  0  0
M  END
>  <CHROM.1>
-69.97453529,81.72405488,168.46204087,14.20977608,11.40834481,14.97984246
1.86575702,-0.41006351,1.04507006

>  <Name>
ligand

>  <RI>
0

>  <Rbt.Current_Directory>
/home/itssahil/PROJECTS/Mol_Feturizer/New_Systems/rnas/4E8N

>  <Rbt.Executable>
rbdock ($Id: //depot/dev/client3/rdock/2013.1/src/exe/rbdock.cxx#4 $)

>  <Rbt.Library>
libRbt.so (2013.1, Build901 2013/11/27)

>  <Rbt.Parameter_File>
/export/apps/rDock/src/rDock_2013.1_src/data/scripts/dock_solv.prm

>  <Rbt.Receptor>
prm/blind_docking_40.prm

>  <SCORE>
-11.9511

>  <SCORE.INTER>
-8.90219

>  <SCORE.INTER.CONST>
1

>  <SCORE.INTER.POLAR>
0

>  <SCORE.INTER.ROT>
3

>  <SCORE.INTER.SOLV>
9.94591

>  <SCORE.INTER.VDW>
-14.8501

>  <SCORE.INTER.norm>
-0.741849

>  <SCORE.INTRA>
-3.04895

>  <SCORE.INTRA.DIHEDRAL>
-2.90183

>  <SCORE.INTRA.DIHEDRAL.0>
5.0186

>  <SCORE.INTRA.POLAR>
0

>  <SCORE.INTRA.POLAR.0>
0

>  <SCORE.INTRA.REPUL>
0

>  <SCORE.INTRA.REPUL.0>
0

>  <SCORE.INTRA.SOLV>
0.771454

>  <SCORE.INTRA.SOLV.lig_0>
-16.1608

>  <SCORE.INTRA.VDW>
-1.98376

>  <SCORE.INTRA.VDW.0>
1.14169

>  <SCORE.INTRA.norm>
-0.254079

>  <SCORE.RESTR>
0

>  <SCORE.RESTR.CAVITY>
0

>  <SCORE.RESTR.norm>
0

>  <SCORE.SYSTEM>
0

>  <SCORE.SYSTEM.CONST>
0

>  <SCORE.SYSTEM.DIHEDRAL>
0

>  <SCORE.SYSTEM.SOLV>
0

>  <SCORE.SYSTEM.norm>
0

>  <SCORE.heavy>
12

>  <SCORE.norm>
-0.995928

>  <RMSD>
38.018

$$$$
ligand
 OpenBabel11021811493D
libRbt.so/2013.1/901 2013/11/27
 12 12  0  0  0  0  0  0  0  0999 V2000
   13.1015   11.3705   15.9124 N   0  0  0  0  0  0  0  0  0  0  0  0
   16.1291   11.3598   15.3206 O   0  0  0  0  0  0  0  0  0  0  0  0
   12.5531   10.3010   15.0427 C   0  0  0  0  0  0  0  0  0  0  0  0
   16.9405   13.0602   13.8986 O   0  0  0  0  0  0  0  0  0  0  0  0
   12.5461    8.9960   15.8321 C   0  0  0  0  0  0  0  0  0  0  0  0
   16.4109   13.6017   16.2355 O   0  0  0  0  0  0  0  0  0  0  0  0
   11.6309    9.1164   16.9709 N   0  0  0  0  0  0  0  0  0  0  0  0
   11.0872   10.4767   16.9752 C   0  0  0  0  0  0  0  0  0  0  0  0
   12.2669   11.4215   17.1289 C   0  0  0  0  0  0  0  0  0  0  0  0
   13.2233   12.7421   15.2759 C   0  0  0  0  0  0  0  0  0  0  0  0
   14.4304   12.9633   14.3273 C   0  0  0  0  0  0  0  0  0  0  0  0
   15.9936   12.7329   14.9328 S   0  0  0  0  0  0  0  0  0  0  0  0
  1  3  1  0  0  0  0
  1  9  1  0  0  0  0
  1 10  1  0  0  0  0
  2 12  1  0  0  0  0
  3  5  1  0  0  0  0
  4 12  2  0  0  0  0
  5  7  1  0  0  0  0
  6 12  2  0  0  0  0
  7  8  1  0  0  0  0
  8  9  1  0  0  0  0
 10 11  1  0  0  0  0
 11 12  1  0  0  0  0
M  END
>  <CHROM.1>
-78.30580945,-58.08619610,62.85391873,14.14106979,11.66241955,15.57106455
2.67974399,-0.47463131,-2.90377453

>  <Name>
ligand

>  <RI>
0

>  <Rbt.Current_Directory>
/home/itssahil/PROJECTS/Mol_Feturizer/New_Systems/rnas/4E8N

>  <Rbt.Executable>
rbdock ($Id: //depot/dev/client3/rdock/2013.1/src/exe/rbdock.cxx#4 $)

>  <Rbt.Library>
libRbt.so (2013.1, Build901 2013/11/27)

>  <Rbt.Parameter_File>
/export/apps/rDock/src/rDock_2013.1_src/data/scripts/dock_solv.prm

>  <Rbt.Receptor>
prm/blind_docking_40.prm

>  <SCORE>
-12.3024

>  <SCORE.INTER>
-7.80641

>  <SCORE.INTER.CONST>
1

>  <SCORE.INTER.POLAR>
0

>  <SCORE.INTER.ROT>
3

>  <SCORE.INTER.SOLV>
9.51724

>  <SCORE.INTER.VDW>
-13.9767

>  <SCORE.INTER.norm>
-0.650534

>  <SCORE.INTRA>
-4.49598

>  <SCORE.INTRA.DIHEDRAL>
-4.39328

>  <SCORE.INTRA.DIHEDRAL.0>
5.0186

>  <SCORE.INTRA.POLAR>
0

>  <SCORE.INTRA.POLAR.0>
0

>  <SCORE.INTRA.REPUL>
0

>  <SCORE.INTRA.REPUL.0>
0

>  <SCORE.INTRA.SOLV>
0.0793212

>  <SCORE.INTRA.SOLV.lig_0>
-16.1608

>  <SCORE.INTRA.VDW>
-2.339

>  <SCORE.INTRA.VDW.0>
1.14169

>  <SCORE.INTRA.norm>
-0.374665

>  <SCORE.RESTR>
0

>  <SCORE.RESTR.CAVITY>
0

>  <SCORE.RESTR.norm>
0

>  <SCORE.SYSTEM>
0

>  <SCORE.SYSTEM.CONST>
0

>  <SCORE.SYSTEM.DIHEDRAL>
0

>  <SCORE.SYSTEM.SOLV>
0

>  <SCORE.SYSTEM.norm>
0

>  <SCORE.heavy>
12

>  <SCORE.norm>
-1.0252

>  <RMSD>
38.021

$$$$
ligand
 OpenBabel11021811493D
libRbt.so/2013.1/901 2013/11/27
 12 12  0  0  0  0  0  0  0  0999 V2000
   13.2922   11.6855   16.8614 N   0  0  0  0  0  0  0  0  0  0  0  0
   12.9122    8.3170   16.6944 O   0  0  0  0  0  0  0  0  0  0  0  0
   13.8399   12.9491   17.4129 C   0  0  0  0  0  0  0  0  0  0  0  0
   10.7195    7.9084   15.9220 O   0  0  0  0  0  0  0  0  0  0  0  0
   15.3625   12.8662   17.3836 C   0  0  0  0  0  0  0  0  0  0  0  0
   12.2326    9.2868   14.5636 O   0  0  0  0  0  0  0  0  0  0  0  0
   15.8228   12.7848   15.9941 N   0  0  0  0  0  0  0  0  0  0  0  0
   14.6433   12.7568   15.1257 C   0  0  0  0  0  0  0  0  0  0  0  0
   13.8477   11.5191   15.5039 C   0  0  0  0  0  0  0  0  0  0  0  0
   11.7797   11.5704   16.8502 C   0  0  0  0  0  0  0  0  0  0  0  0
   11.1896   10.1487   17.0416 C   0  0  0  0  0  0  0  0  0  0  0  0
   11.7613    8.8922   16.0631 S   0  0  0  0  0  0  0  0  0  0  0  0
  1  3  1  0  0  0  0
  1  9  1  0  0  0  0
  1 10  1  0  0  0  0
  2 12  1  0  0  0  0
  3  5  1  0  0  0  0
  4 12  2  0  0  0  0
  5  7  1  0  0  0  0
  6 12  2  0  0  0  0
  7  8  1  0  0  0  0
  8  9  1  0  0  0  0
 10 11  1  0  0  0  0
 11 12  1  0  0  0  0
M  END
>  <CHROM.1>
-147.68026853,-51.16700293,87.62282851,12.95368819,10.62920850,16.24669366
0.68512298,0.63629518,0.73569743

>  <Name>
ligand

>  <RI>
0

>  <Rbt.Current_Directory>
/home/itssahil/PROJECTS/Mol_Feturizer/New_Systems/rnas/4E8N

>  <Rbt.Executable>
rbdock ($Id: //depot/dev/client3/rdock/2013.1/src/exe/rbdock.cxx#4 $)

>  <Rbt.Library>
libRbt.so (2013.1, Build901 2013/11/27)

>  <Rbt.Parameter_File>
/export/apps/rDock/src/rDock_2013.1_src/data/scripts/dock_solv.prm

>  <Rbt.Receptor>
prm/blind_docking_40.prm

>  <SCORE>
-13.9728

>  <SCORE.INTER>
-11.0379

>  <SCORE.INTER.CONST>
1

>  <SCORE.INTER.POLAR>
0

>  <SCORE.INTER.ROT>
3

>  <SCORE.INTER.SOLV>
11.2174

>  <SCORE.INTER.VDW>
-16.6977

>  <SCORE.INTER.norm>
-0.919825

>  <SCORE.INTRA>
-2.93487

>  <SCORE.INTRA.DIHEDRAL>
-1.87237

>  <SCORE.INTRA.DIHEDRAL.0>
5.0186

>  <SCORE.INTRA.POLAR>
0

>  <SCORE.INTRA.POLAR.0>
0

>  <SCORE.INTRA.REPUL>
0

>  <SCORE.INTRA.REPUL.0>
0

>  <SCORE.INTRA.SOLV>
0.558334

>  <SCORE.INTRA.SOLV.lig_0>
-16.1608

>  <SCORE.INTRA.VDW>
-2.27785

>  <SCORE.INTRA.VDW.0>
1.14169

>  <SCORE.INTRA.norm>
-0.244572

>  <SCORE.RESTR>
0

>  <SCORE.RESTR.CAVITY>
0

>  <SCORE.RESTR.norm>
0

>  <SCORE.SYSTEM>
0

>  <SCORE.SYSTEM.CONST>
0

>  <SCORE.SYSTEM.DIHEDRAL>
0

>  <SCORE.SYSTEM.SOLV>
0

>  <SCORE.SYSTEM.norm>
0

>  <SCORE.heavy>
12

>  <SCORE.norm>
-1.1644

>  <RMSD>
38.031

$$$$
ligand
 OpenBabel11021811493D
libRbt.so/2013.1/901 2013/11/27
 12 12  0  0  0  0  0  0  0  0999 V2000
   13.7892   11.9643   15.9540 N   0  0  0  0  0  0  0  0  0  0  0  0
   13.3250   11.2020   12.4327 O   0  0  0  0  0  0  0  0  0  0  0  0
   12.3666   11.7597   15.5861 C   0  0  0  0  0  0  0  0  0  0  0  0
   15.2681    9.8991   12.1187 O   0  0  0  0  0  0  0  0  0  0  0  0
   11.6782   11.0145   16.7249 C   0  0  0  0  0  0  0  0  0  0  0  0
   13.7835    9.4022   14.0117 O   0  0  0  0  0  0  0  0  0  0  0  0
   11.6804   11.8495   17.9298 N   0  0  0  0  0  0  0  0  0  0  0  0
   12.3973   13.0894   17.6220 C   0  0  0  0  0  0  0  0  0  0  0  0
   13.8128   12.6951   17.2364 C   0  0  0  0  0  0  0  0  0  0  0  0
   14.6472   12.6592   14.9138 C   0  0  0  0  0  0  0  0  0  0  0  0
   15.3451   11.7500   13.8687 C   0  0  0  0  0  0  0  0  0  0  0  0
   14.4302   10.5626   13.0836 S   0  0  0  0  0  0  0  0  0  0  0  0
  1  3  1  0  0  0  0
  1  9  1  0  0  0  0
  1 10  1  0  0  0  0
  2 12  1  0  0  0  0
  3  5  1  0  0  0  0
  4 12  2  0  0  0  0
  5  7  1  0  0  0  0
  6 12  2  0  0  0  0
  7  8  1  0  0  0  0
  8  9  1  0  0  0  0
 10 11  1  0  0  0  0
 11 12  1  0  0  0  0
M  END
>  <CHROM.1>
-89.17631579,48.01117339,56.97278031,13.64489152,11.35982627,14.86193273
-2.08740664,-0.60335595,-2.26258544

>  <Name>
ligand

>  <RI>
0

>  <Rbt.Current_Directory>
/home/itssahil/PROJECTS/Mol_Feturizer/New_Systems/rnas/4E8N

>  <Rbt.Executable>
rbdock ($Id: //depot/dev/client3/rdock/2013.1/src/exe/rbdock.cxx#4 $)

>  <Rbt.Library>
libRbt.so (2013.1, Build901 2013/11/27)

>  <Rbt.Parameter_File>
/export/apps/rDock/src/rDock_2013.1_src/data/scripts/dock_solv.prm

>  <Rbt.Receptor>
prm/blind_docking_60.prm

>  <SCORE>
-13.9687

>  <SCORE.INTER>
-9.95789

>  <SCORE.INTER.CONST>
1

>  <SCORE.INTER.POLAR>
0

>  <SCORE.INTER.ROT>
3

>  <SCORE.INTER.SOLV>
8.79304

>  <SCORE.INTER.VDW>
-15.1696

>  <SCORE.INTER.norm>
-0.829824

>  <SCORE.INTRA>
-4.01083

>  <SCORE.INTRA.DIHEDRAL>
-3.23528

>  <SCORE.INTRA.DIHEDRAL.0>
5.0186

>  <SCORE.INTRA.POLAR>
0

>  <SCORE.INTRA.POLAR.0>
0

>  <SCORE.INTRA.REPUL>
0

>  <SCORE.INTRA.REPUL.0>
0

>  <SCORE.INTRA.SOLV>
0.563872

>  <SCORE.INTRA.SOLV.lig_0>
-16.1608

>  <SCORE.INTRA.VDW>
-2.67513

>  <SCORE.INTRA.VDW.0>
1.14169

>  <SCORE.INTRA.norm>
-0.334236

>  <SCORE.RESTR>
0

>  <SCORE.RESTR.CAVITY>
0

>  <SCORE.RESTR.norm>
0

>  <SCORE.SYSTEM>
0

>  <SCORE.SYSTEM.CONST>
0

>  <SCORE.SYSTEM.DIHEDRAL>
0

>  <SCORE.SYSTEM.SOLV>
0

>  <SCORE.SYSTEM.norm>
0

>  <SCORE.heavy>
12

>  <SCORE.norm>
-1.16406

>  <RMSD>
38.119

$$$$
ligand
 OpenBabel11021811493D
libRbt.so/2013.1/901 2013/11/27
 12 12  0  0  0  0  0  0  0  0999 V2000
   13.7632   12.1175   15.5355 N   0  0  0  0  0  0  0  0  0  0  0  0
   16.5525   10.8616   15.2027 O   0  0  0  0  0  0  0  0  0  0  0  0
   12.4010   11.6064   15.2451 C   0  0  0  0  0  0  0  0  0  0  0  0
   16.5911   11.3664   12.8971 O   0  0  0  0  0  0  0  0  0  0  0  0
   11.9911   10.6638   16.3719 C   0  0  0  0  0  0  0  0  0  0  0  0
   18.4723   12.0707   14.3112 O   0  0  0  0  0  0  0  0  0  0  0  0
   11.8953   11.4132   17.6282 N   0  0  0  0  0  0  0  0  0  0  0  0
   12.2838   12.8002   17.3606 C   0  0  0  0  0  0  0  0  0  0  0  0
   13.7179   12.7667   16.8604 C   0  0  0  0  0  0  0  0  0  0  0  0
   14.3567   13.0457   14.4927 C   0  0  0  0  0  0  0  0  0  0  0  0
   15.8985   13.2143   14.5095 C   0  0  0  0  0  0  0  0  0  0  0  0
   16.8683   11.8578   14.2219 S   0  0  0  0  0  0  0  0  0  0  0  0
  1  3  1  0  0  0  0
  1  9  1  0  0  0  0
  1 10  1  0  0  0  0
  2 12  1  0  0  0  0
  3  5  1  0  0  0  0
  4 12  2  0  0  0  0
  5  7  1  0  0  0  0
  6 12  2  0  0  0  0
  7  8  1  0  0  0  0
  8  9  1  0  0  0  0
 10 11  1  0  0  0  0
 11 12  1  0  0  0  0
M  END
>  <CHROM.1>
-160.18200020,62.26975690,-58.21449579,14.86357385,11.95350040,15.23843350
-2.87783820,-0.43720154,-2.56933819

>  <Name>
ligand

>  <RI>
0

>  <Rbt.Current_Directory>
/home/itssahil/PROJECTS/Mol_Feturizer/New_Systems/rnas/4E8N

>  <Rbt.Executable>
rbdock ($Id: //depot/dev/client3/rdock/2013.1/src/exe/rbdock.cxx#4 $)

>  <Rbt.Library>
libRbt.so (2013.1, Build901 2013/11/27)

>  <Rbt.Parameter_File>
/export/apps/rDock/src/rDock_2013.1_src/data/scripts/dock_solv.prm

>  <Rbt.Receptor>
prm/blind_docking_40.prm

>  <SCORE>
-10.8611

>  <SCORE.INTER>
-6.56617

>  <SCORE.INTER.CONST>
1

>  <SCORE.INTER.POLAR>
0

>  <SCORE.INTER.ROT>
3

>  <SCORE.INTER.SOLV>
6.94849

>  <SCORE.INTER.VDW>
-12.2936

>  <SCORE.INTER.norm>
-0.54718

>  <SCORE.INTRA>
-4.29496

>  <SCORE.INTRA.DIHEDRAL>
-4.47217

>  <SCORE.INTRA.DIHEDRAL.0>
5.0186

>  <SCORE.INTRA.POLAR>
0

>  <SCORE.INTRA.POLAR.0>
0

>  <SCORE.INTRA.REPUL>
0

>  <SCORE.INTRA.REPUL.0>
0

>  <SCORE.INTRA.SOLV>
0.0964314

>  <SCORE.INTRA.SOLV.lig_0>
-16.1608

>  <SCORE.INTRA.VDW>
-2.10709

>  <SCORE.INTRA.VDW.0>
1.14169

>  <SCORE.INTRA.norm>
-0.357914

>  <SCORE.RESTR>
0

>  <SCORE.RESTR.CAVITY>
0

>  <SCORE.RESTR.norm>
0

>  <SCORE.SYSTEM>
0

>  <SCORE.SYSTEM.CONST>
0

>  <SCORE.SYSTEM.DIHEDRAL>
0

>  <SCORE.SYSTEM.SOLV>
0

>  <SCORE.SYSTEM.norm>
0

>  <SCORE.heavy>
12

>  <SCORE.norm>
-0.905094

>  <RMSD>
38.122

$$$$
ligand
 OpenBabel11021811493D
libRbt.so/2013.1/901 2013/11/27
 12 12  0  0  0  0  0  0  0  0999 V2000
   25.1966    5.4220   32.0615 N   0  0  0  0  0  0  0  0  0  0  0  0
   24.2159    5.2991   35.5348 O   0  0  0  0  0  0  0  0  0  0  0  0
   25.0880    5.8835   30.6558 C   0  0  0  0  0  0  0  0  0  0  0  0
   25.5081    3.5440   34.6284 O   0  0  0  0  0  0  0  0  0  0  0  0
   24.6484    4.7035   29.7952 C   0  0  0  0  0  0  0  0  0  0  0  0
   26.1616    4.5257   36.7834 O   0  0  0  0  0  0  0  0  0  0  0  0
   23.3051    4.2762   30.1977 N   0  0  0  0  0  0  0  0  0  0  0  0
   22.8838    5.1070   31.3284 C   0  0  0  0  0  0  0  0  0  0  0  0
   23.8837    4.8679   32.4467 C   0  0  0  0  0  0  0  0  0  0  0  0
   25.6663    6.4599   33.0632 C   0  0  0  0  0  0  0  0  0  0  0  0
   26.3661    5.9262   34.3404 C   0  0  0  0  0  0  0  0  0  0  0  0
   25.5448    4.8107   35.3121 S   0  0  0  0  0  0  0  0  0  0  0  0
  1  3  1  0  0  0  0
  1  9  1  0  0  0  0
  1 10  1  0  0  0  0
  2 12  1  0  0  0  0
  3  5  1  0  0  0  0
  4 12  2  0  0  0  0
  5  7  1  0  0  0  0
  6 12  2  0  0  0  0
  7  8  1  0  0  0  0
  8  9  1  0  0  0  0
 10 11  1  0  0  0  0
 11 12  1  0  0  0  0
M  END
>  <CHROM.1>
-154.30191509,-56.07808751,-47.82076780,24.94858988,5.02578205,33.30959300
-1.94571008,0.62521619,1.83895848

>  <Name>
ligand

>  <RI>
0

>  <Rbt.Current_Directory>
/home/itssahil/PROJECTS/Mol_Feturizer/New_Systems/rnas/4E8N

>  <Rbt.Executable>
rbdock ($Id: //depot/dev/client3/rdock/2013.1/src/exe/rbdock.cxx#4 $)

>  <Rbt.Library>
libRbt.so (2013.1, Build901 2013/11/27)

>  <Rbt.Parameter_File>
/export/apps/rDock/src/rDock_2013.1_src/data/scripts/dock_solv.prm

>  <Rbt.Receptor>
prm/blind_docking_60.prm

>  <SCORE>
-12.0368

>  <SCORE.INTER>
-8.146

>  <SCORE.INTER.CONST>
1

>  <SCORE.INTER.POLAR>
0

>  <SCORE.INTER.ROT>
3

>  <SCORE.INTER.SOLV>
6.6884

>  <SCORE.INTER.VDW>
-13.2601

>  <SCORE.INTER.norm>
-0.678833

>  <SCORE.INTRA>
-3.89083

>  <SCORE.INTRA.DIHEDRAL>
-3.74591

>  <SCORE.INTRA.DIHEDRAL.0>
5.0186

>  <SCORE.INTRA.POLAR>
0

>  <SCORE.INTRA.POLAR.0>
0

>  <SCORE.INTRA.REPUL>
0

>  <SCORE.INTRA.REPUL.0>
0

>  <SCORE.INTRA.SOLV>
0.41272

>  <SCORE.INTRA.SOLV.lig_0>
-16.1608

>  <SCORE.INTRA.VDW>
-2.22423

>  <SCORE.INTRA.VDW.0>
1.14169

>  <SCORE.INTRA.norm>
-0.324236

>  <SCORE.RESTR>
0

>  <SCORE.RESTR.CAVITY>
0

>  <SCORE.RESTR.norm>
0

>  <SCORE.SYSTEM>
0

>  <SCORE.SYSTEM.CONST>
0

>  <SCORE.SYSTEM.DIHEDRAL>
0

>  <SCORE.SYSTEM.SOLV>
0

>  <SCORE.SYSTEM.norm>
0

>  <SCORE.heavy>
12

>  <SCORE.norm>
-1.00307

>  <RMSD>
38.133

$$$$
ligand
 OpenBabel11021811493D
libRbt.so/2013.1/901 2013/11/27
 12 12  0  0  0  0  0  0  0  0999 V2000
   14.3724   12.0705   14.4526 N   0  0  0  0  0  0  0  0  0  0  0  0
   12.0186   14.2367   17.5056 O   0  0  0  0  0  0  0  0  0  0  0  0
   15.6851   12.5131   13.9216 C   0  0  0  0  0  0  0  0  0  0  0  0
   11.6124   11.9159   17.6491 O   0  0  0  0  0  0  0  0  0  0  0  0
   16.6964   11.3937   14.1457 C   0  0  0  0  0  0  0  0  0  0  0  0
   13.9261   12.7194   17.4603 O   0  0  0  0  0  0  0  0  0  0  0  0
   16.3067   10.2166   13.3636 N   0  0  0  0  0  0  0  0  0  0  0  0
   15.0453   10.5203   12.6834 C   0  0  0  0  0  0  0  0  0  0  0  0
   14.0205   10.8117   13.7664 C   0  0  0  0  0  0  0  0  0  0  0  0
   13.2449   13.0803   14.3527 C   0  0  0  0  0  0  0  0  0  0  0  0
   12.0655   12.9054   15.3449 C   0  0  0  0  0  0  0  0  0  0  0  0
   12.3870   12.9450   17.0057 S   0  0  0  0  0  0  0  0  0  0  0  0
  1  3  1  0  0  0  0
  1  9  1  0  0  0  0
  1 10  1  0  0  0  0
  2 12  1  0  0  0  0
  3  5  1  0  0  0  0
  4 12  2  0  0  0  0
  5  7  1  0  0  0  0
  6 12  2  0  0  0  0
  7  8  1  0  0  0  0
  8  9  1  0  0  0  0
 10 11  1  0  0  0  0
 11 12  1  0  0  0  0
M  END
>  <CHROM.1>
-156.89399902,58.84589604,101.48295124,13.75762892,12.21524961,15.38705957
0.88597458,0.09919260,-1.99084925

>  <Name>
ligand

>  <RI>
0

>  <Rbt.Current_Directory>
/home/itssahil/PROJECTS/Mol_Feturizer/New_Systems/rnas/4E8N

>  <Rbt.Executable>
rbdock ($Id: //depot/dev/client3/rdock/2013.1/src/exe/rbdock.cxx#4 $)

>  <Rbt.Library>
libRbt.so (2013.1, Build901 2013/11/27)

>  <Rbt.Parameter_File>
/export/apps/rDock/src/rDock_2013.1_src/data/scripts/dock_solv.prm

>  <Rbt.Receptor>
prm/blind_docking_100.prm

>  <SCORE>
-12.5926

>  <SCORE.INTER>
-9.92387

>  <SCORE.INTER.CONST>
1

>  <SCORE.INTER.POLAR>
0

>  <SCORE.INTER.ROT>
3

>  <SCORE.INTER.SOLV>
5.19853

>  <SCORE.INTER.VDW>
-13.9488

>  <SCORE.INTER.norm>
-0.826989

>  <SCORE.INTRA>
-2.66871

>  <SCORE.INTRA.DIHEDRAL>
-1.48087

>  <SCORE.INTRA.DIHEDRAL.0>
5.0186

>  <SCORE.INTRA.POLAR>
0

>  <SCORE.INTRA.POLAR.0>
0

>  <SCORE.INTRA.REPUL>
0

>  <SCORE.INTRA.REPUL.0>
0

>  <SCORE.INTRA.SOLV>
0.61941

>  <SCORE.INTRA.SOLV.lig_0>
-16.1608

>  <SCORE.INTRA.VDW>
-2.23798

>  <SCORE.INTRA.VDW.0>
1.14169

>  <SCORE.INTRA.norm>
-0.222392

>  <SCORE.RESTR>
0

>  <SCORE.RESTR.CAVITY>
0

>  <SCORE.RESTR.norm>
0

>  <SCORE.SYSTEM>
0

>  <SCORE.SYSTEM.CONST>
0

>  <SCORE.SYSTEM.DIHEDRAL>
0

>  <SCORE.SYSTEM.SOLV>
0

>  <SCORE.SYSTEM.norm>
0

>  <SCORE.heavy>
12

>  <SCORE.norm>
-1.04938

>  <RMSD>
38.197

$$$$
ligand
 OpenBabel11021811493D
libRbt.so/2013.1/901 2013/11/27
 12 12  0  0  0  0  0  0  0  0999 V2000
   14.3847   12.5548   13.6876 N   0  0  0  0  0  0  0  0  0  0  0  0
   11.4034   11.6268   17.7770 O   0  0  0  0  0  0  0  0  0  0  0  0
   14.5371   11.1389   13.2717 C   0  0  0  0  0  0  0  0  0  0  0  0
   13.5377   12.5579   18.1643 O   0  0  0  0  0  0  0  0  0  0  0  0
   14.7437   11.1013   11.7610 C   0  0  0  0  0  0  0  0  0  0  0  0
   11.6808   14.0362   17.5310 O   0  0  0  0  0  0  0  0  0  0  0  0
   16.0018   11.7725   11.4211 N   0  0  0  0  0  0  0  0  0  0  0  0
   16.5888   12.2916   12.6589 C   0  0  0  0  0  0  0  0  0  0  0  0
   15.5904   13.2788   13.2391 C   0  0  0  0  0  0  0  0  0  0  0  0
   14.1273   12.7854   15.1646 C   0  0  0  0  0  0  0  0  0  0  0  0
   12.8275   12.1717   15.7476 C   0  0  0  0  0  0  0  0  0  0  0  0
   12.3691   12.5838   17.3235 S   0  0  0  0  0  0  0  0  0  0  0  0
  1  3  1  0  0  0  0
  1  9  1  0  0  0  0
  1 10  1  0  0  0  0
  2 12  1  0  0  0  0
  3  5  1  0  0  0  0
  4 12  2  0  0  0  0
  5  7  1  0  0  0  0
  6 12  2  0  0  0  0
  7  8  1  0  0  0  0
  8  9  1  0  0  0  0
 10 11  1  0  0  0  0
 11 12  1  0  0  0  0
M  END
>  <CHROM.1>
-61.72115398,-171.05948765,-163.12275232,13.77639357,12.36209105,15.14106025
-0.80449641,0.69075427,0.88314345

>  <Name>
ligand

>  <RI>
0

>  <Rbt.Current_Directory>
/home/itssahil/PROJECTS/Mol_Feturizer/New_Systems/rnas/4E8N

>  <Rbt.Executable>
rbdock ($Id: //depot/dev/client3/rdock/2013.1/src/exe/rbdock.cxx#4 $)

>  <Rbt.Library>
libRbt.so (2013.1, Build901 2013/11/27)

>  <Rbt.Parameter_File>
/export/apps/rDock/src/rDock_2013.1_src/data/scripts/dock_solv.prm

>  <Rbt.Receptor>
prm/blind_docking_80.prm

>  <SCORE>
-12.4384

>  <SCORE.INTER>
-9.01744

>  <SCORE.INTER.CONST>
1

>  <SCORE.INTER.POLAR>
0

>  <SCORE.INTER.ROT>
3

>  <SCORE.INTER.SOLV>
7.67014

>  <SCORE.INTER.VDW>
-14.1683

>  <SCORE.INTER.norm>
-0.751453

>  <SCORE.INTRA>
-3.42099

>  <SCORE.INTRA.DIHEDRAL>
-4.02486

>  <SCORE.INTRA.DIHEDRAL.0>
5.0186

>  <SCORE.INTRA.POLAR>
0

>  <SCORE.INTRA.POLAR.0>
0

>  <SCORE.INTRA.REPUL>
0

>  <SCORE.INTRA.REPUL.0>
0

>  <SCORE.INTRA.SOLV>
0.0686722

>  <SCORE.INTRA.SOLV.lig_0>
-16.1608

>  <SCORE.INTRA.VDW>
-1.4429

>  <SCORE.INTRA.VDW.0>
1.14169

>  <SCORE.INTRA.norm>
-0.285083

>  <SCORE.RESTR>
0

>  <SCORE.RESTR.CAVITY>
0

>  <SCORE.RESTR.norm>
0

>  <SCORE.SYSTEM>
0

>  <SCORE.SYSTEM.CONST>
0

>  <SCORE.SYSTEM.DIHEDRAL>
0

>  <SCORE.SYSTEM.SOLV>
0

>  <SCORE.SYSTEM.norm>
0

>  <SCORE.heavy>
12

>  <SCORE.norm>
-1.03654

>  <RMSD>
38.283

$$$$
ligand
 OpenBabel11021811493D
libRbt.so/2013.1/901 2013/11/27
 12 12  0  0  0  0  0  0  0  0999 V2000
   12.3353   11.3215   15.7962 N   0  0  0  0  0  0  0  0  0  0  0  0
   12.4877    7.9339   17.6540 O   0  0  0  0  0  0  0  0  0  0  0  0
   12.9384   12.6108   15.3780 C   0  0  0  0  0  0  0  0  0  0  0  0
   10.4972    9.0430   17.0379 O   0  0  0  0  0  0  0  0  0  0  0  0
   11.9971   13.7378   15.7904 C   0  0  0  0  0  0  0  0  0  0  0  0
   10.7944    6.6827   16.4251 O   0  0  0  0  0  0  0  0  0  0  0  0
   11.8946   13.7812   17.2521 N   0  0  0  0  0  0  0  0  0  0  0  0
   12.6965   12.6828   17.7967 C   0  0  0  0  0  0  0  0  0  0  0  0
   12.1045   11.3940   17.2524 C   0  0  0  0  0  0  0  0  0  0  0  0
   13.1190   10.0756   15.4290 C   0  0  0  0  0  0  0  0  0  0  0  0
   12.3045    8.7661   15.2629 C   0  0  0  0  0  0  0  0  0  0  0  0
   11.5183    8.1202   16.6149 S   0  0  0  0  0  0  0  0  0  0  0  0
  1  3  1  0  0  0  0
  1  9  1  0  0  0  0
  1 10  1  0  0  0  0
  2 12  1  0  0  0  0
  3  5  1  0  0  0  0
  4 12  2  0  0  0  0
  5  7  1  0  0  0  0
  6 12  2  0  0  0  0
  7  8  1  0  0  0  0
  8  9  1  0  0  0  0
 10 11  1  0  0  0  0
 11 12  1  0  0  0  0
M  END
>  <CHROM.1>
-153.76341982,-64.67940957,-55.25858550,11.98216264,10.20677050,16.50473483
-1.17360453,-1.12454537,-2.80433284

>  <Name>
ligand

>  <RI>
0

>  <Rbt.Current_Directory>
/home/itssahil/PROJECTS/Mol_Feturizer/New_Systems/rnas/4E8N

>  <Rbt.Executable>
rbdock ($Id: //depot/dev/client3/rdock/2013.1/src/exe/rbdock.cxx#4 $)

>  <Rbt.Library>
libRbt.so (2013.1, Build901 2013/11/27)

>  <Rbt.Parameter_File>
/export/apps/rDock/src/rDock_2013.1_src/data/scripts/dock_solv.prm

>  <Rbt.Receptor>
prm/blind_docking_40.prm

>  <SCORE>
-15.146

>  <SCORE.INTER>
-11.403

>  <SCORE.INTER.CONST>
1

>  <SCORE.INTER.POLAR>
0

>  <SCORE.INTER.ROT>
3

>  <SCORE.INTER.SOLV>
12.2299

>  <SCORE.INTER.VDW>
-17.2786

>  <SCORE.INTER.norm>
-0.950252

>  <SCORE.INTRA>
-3.74324

>  <SCORE.INTRA.DIHEDRAL>
-3.99606

>  <SCORE.INTRA.DIHEDRAL.0>
5.0186

>  <SCORE.INTRA.POLAR>
0

>  <SCORE.INTRA.POLAR.0>
0

>  <SCORE.INTRA.REPUL>
0

>  <SCORE.INTRA.REPUL.0>
0

>  <SCORE.INTRA.SOLV>
0.489783

>  <SCORE.INTRA.SOLV.lig_0>
-16.1608

>  <SCORE.INTRA.VDW>
-1.99011

>  <SCORE.INTRA.VDW.0>
1.14169

>  <SCORE.INTRA.norm>
-0.311937

>  <SCORE.RESTR>
0.000313842

>  <SCORE.RESTR.CAVITY>
0.000313842

>  <SCORE.RESTR.norm>
2.61535e-05

>  <SCORE.SYSTEM>
0

>  <SCORE.SYSTEM.CONST>
0

>  <SCORE.SYSTEM.DIHEDRAL>
0

>  <SCORE.SYSTEM.SOLV>
0

>  <SCORE.SYSTEM.norm>
0

>  <SCORE.heavy>
12

>  <SCORE.norm>
-1.26216

>  <RMSD>
38.284

$$$$
ligand
 OpenBabel11021811493D
libRbt.so/2013.1/901 2013/11/27
 12 12  0  0  0  0  0  0  0  0999 V2000
   14.5339   12.5678   14.3428 N   0  0  0  0  0  0  0  0  0  0  0  0
   11.8894   12.3794   15.5555 O   0  0  0  0  0  0  0  0  0  0  0  0
   14.4620   11.1330   13.9727 C   0  0  0  0  0  0  0  0  0  0  0  0
   11.7244   11.8740   17.8553 O   0  0  0  0  0  0  0  0  0  0  0  0
   13.9829   11.0326   12.5283 C   0  0  0  0  0  0  0  0  0  0  0  0
   11.9853   14.2147   17.1570 O   0  0  0  0  0  0  0  0  0  0  0  0
   14.9756   11.6425   11.6386 N   0  0  0  0  0  0  0  0  0  0  0  0
   16.0563   12.1835   12.4666 C   0  0  0  0  0  0  0  0  0  0  0  0
   15.4327   13.2285   13.3761 C   0  0  0  0  0  0  0  0  0  0  0  0
   14.9561   12.8617   15.7698 C   0  0  0  0  0  0  0  0  0  0  0  0
   14.0451   12.3018   16.8934 C   0  0  0  0  0  0  0  0  0  0  0  0
   12.3947   12.6744   16.8638 S   0  0  0  0  0  0  0  0  0  0  0  0
  1  3  1  0  0  0  0
  1  9  1  0  0  0  0
  1 10  1  0  0  0  0
  2 12  1  0  0  0  0
  3  5  1  0  0  0  0
  4 12  2  0  0  0  0
  5  7  1  0  0  0  0
  6 12  2  0  0  0  0
  7  8  1  0  0  0  0
  8  9  1  0  0  0  0
 10 11  1  0  0  0  0
 11 12  1  0  0  0  0
M  END
>  <CHROM.1>
-60.85323031,-54.01104429,50.36050875,13.66960955,12.38731097,15.11709521
-0.90733260,0.50167737,1.02237149

>  <Name>
ligand

>  <RI>
0

>  <Rbt.Current_Directory>
/home/itssahil/PROJECTS/Mol_Feturizer/New_Systems/rnas/4E8N

>  <Rbt.Executable>
rbdock ($Id: //depot/dev/client3/rdock/2013.1/src/exe/rbdock.cxx#4 $)

>  <Rbt.Library>
libRbt.so (2013.1, Build901 2013/11/27)

>  <Rbt.Parameter_File>
/export/apps/rDock/src/rDock_2013.1_src/data/scripts/dock_solv.prm

>  <Rbt.Receptor>
prm/blind_docking_40.prm

>  <SCORE>
-12.1331

>  <SCORE.INTER>
-7.6378

>  <SCORE.INTER.CONST>
1

>  <SCORE.INTER.POLAR>
0

>  <SCORE.INTER.ROT>
3

>  <SCORE.INTER.SOLV>
8.98347

>  <SCORE.INTER.VDW>
-13.6864

>  <SCORE.INTER.norm>
-0.636483

>  <SCORE.INTRA>
-4.4953

>  <SCORE.INTRA.DIHEDRAL>
-4.65898

>  <SCORE.INTRA.DIHEDRAL.0>
5.0186

>  <SCORE.INTRA.POLAR>
0

>  <SCORE.INTRA.POLAR.0>
0

>  <SCORE.INTRA.REPUL>
0

>  <SCORE.INTRA.REPUL.0>
0

>  <SCORE.INTRA.SOLV>
-0.0319071

>  <SCORE.INTRA.SOLV.lig_0>
-16.1608

>  <SCORE.INTRA.VDW>
-2.14986

>  <SCORE.INTRA.VDW.0>
1.14169

>  <SCORE.INTRA.norm>
-0.374609

>  <SCORE.RESTR>
0

>  <SCORE.RESTR.CAVITY>
0

>  <SCORE.RESTR.norm>
0

>  <SCORE.SYSTEM>
0

>  <SCORE.SYSTEM.CONST>
0

>  <SCORE.SYSTEM.DIHEDRAL>
0

>  <SCORE.SYSTEM.SOLV>
0

>  <SCORE.SYSTEM.norm>
0

>  <SCORE.heavy>
12

>  <SCORE.norm>
-1.01109

>  <RMSD>
38.352

$$$$
ligand
 OpenBabel11021811493D
libRbt.so/2013.1/901 2013/11/27
 12 12  0  0  0  0  0  0  0  0999 V2000
   14.4980   11.8300   14.5131 N   0  0  0  0  0  0  0  0  0  0  0  0
   11.6660   14.1184   17.3936 O   0  0  0  0  0  0  0  0  0  0  0  0
   15.0391   12.8937   13.6317 C   0  0  0  0  0  0  0  0  0  0  0  0
   11.6272   11.8555   18.0641 O   0  0  0  0  0  0  0  0  0  0  0  0
   16.2150   12.3177   12.8497 C   0  0  0  0  0  0  0  0  0  0  0  0
   12.8642   13.4877   19.4207 O   0  0  0  0  0  0  0  0  0  0  0  0
   15.7404   11.2476   11.9672 N   0  0  0  0  0  0  0  0  0  0  0  0
   14.3034   11.0756   12.1939 C   0  0  0  0  0  0  0  0  0  0  0  0
   14.1314   10.6880   13.6527 C   0  0  0  0  0  0  0  0  0  0  0  0
   13.3396   12.2363   15.4042 C   0  0  0  0  0  0  0  0  0  0  0  0
   13.6971   12.6999   16.8406 C   0  0  0  0  0  0  0  0  0  0  0  0
   12.4407   13.0352   17.9234 S   0  0  0  0  0  0  0  0  0  0  0  0
  1  3  1  0  0  0  0
  1  9  1  0  0  0  0
  1 10  1  0  0  0  0
  2 12  1  0  0  0  0
  3  5  1  0  0  0  0
  4 12  2  0  0  0  0
  5  7  1  0  0  0  0
  6 12  2  0  0  0  0
  7  8  1  0  0  0  0
  8  9  1  0  0  0  0
 10 11  1  0  0  0  0
 11 12  1  0  0  0  0
M  END
>  <CHROM.1>
-94.04457277,-174.70643128,-61.88684639,13.61563893,12.38707922,15.65726206
-0.95688040,0.66735864,0.88575228

>  <Name>
ligand

>  <RI>
0

>  <Rbt.Current_Directory>
/home/itssahil/PROJECTS/Mol_Feturizer/New_Systems/rnas/4E8N

>  <Rbt.Executable>
rbdock ($Id: //depot/dev/client3/rdock/2013.1/src/exe/rbdock.cxx#4 $)

>  <Rbt.Library>
libRbt.so (2013.1, Build901 2013/11/27)

>  <Rbt.Parameter_File>
/export/apps/rDock/src/rDock_2013.1_src/data/scripts/dock_solv.prm

>  <Rbt.Receptor>
prm/blind_docking_40.prm

>  <SCORE>
-13.4218

>  <SCORE.INTER>
-9.89293

>  <SCORE.INTER.CONST>
1

>  <SCORE.INTER.POLAR>
0

>  <SCORE.INTER.ROT>
3

>  <SCORE.INTER.SOLV>
7.28207

>  <SCORE.INTER.VDW>
-14.6226

>  <SCORE.INTER.norm>
-0.824411

>  <SCORE.INTRA>
-3.52883

>  <SCORE.INTRA.DIHEDRAL>
-3.36811

>  <SCORE.INTRA.DIHEDRAL.0>
5.0186

>  <SCORE.INTRA.POLAR>
0

>  <SCORE.INTRA.POLAR.0>
0

>  <SCORE.INTRA.REPUL>
0

>  <SCORE.INTRA.REPUL.0>
0

>  <SCORE.INTRA.SOLV>
-0.110766

>  <SCORE.INTRA.SOLV.lig_0>
-16.1608

>  <SCORE.INTRA.VDW>
-1.7894

>  <SCORE.INTRA.VDW.0>
1.14169

>  <SCORE.INTRA.norm>
-0.294069

>  <SCORE.RESTR>
0

>  <SCORE.RESTR.CAVITY>
0

>  <SCORE.RESTR.norm>
0

>  <SCORE.SYSTEM>
0

>  <SCORE.SYSTEM.CONST>
0

>  <SCORE.SYSTEM.DIHEDRAL>
0

>  <SCORE.SYSTEM.SOLV>
0

>  <SCORE.SYSTEM.norm>
0

>  <SCORE.heavy>
12

>  <SCORE.norm>
-1.11848

>  <RMSD>
38.445

$$$$
ligand
 OpenBabel11021811493D
libRbt.so/2013.1/901 2013/11/27
 12 12  0  0  0  0  0  0  0  0999 V2000
   14.3716   12.2803   14.3390 N   0  0  0  0  0  0  0  0  0  0  0  0
   11.7558   14.0920   17.7296 O   0  0  0  0  0  0  0  0  0  0  0  0
   15.0676   13.5035   13.8698 C   0  0  0  0  0  0  0  0  0  0  0  0
   11.7699   11.7668   17.3233 O   0  0  0  0  0  0  0  0  0  0  0  0
   16.5713   13.2719   13.9769 C   0  0  0  0  0  0  0  0  0  0  0  0
   13.9059   12.9538   17.5741 O   0  0  0  0  0  0  0  0  0  0  0  0
   16.9675   12.1928   13.0671 N   0  0  0  0  0  0  0  0  0  0  0  0
   15.7593   11.6816   12.4151 C   0  0  0  0  0  0  0  0  0  0  0  0
   14.8549   11.1543   13.5159 C   0  0  0  0  0  0  0  0  0  0  0  0
   12.8560   12.3429   14.3425 C   0  0  0  0  0  0  0  0  0  0  0  0
   12.2032   13.3228   15.3523 C   0  0  0  0  0  0  0  0  0  0  0  0
   12.3892   13.0279   17.0081 S   0  0  0  0  0  0  0  0  0  0  0  0
  1  3  1  0  0  0  0
  1  9  1  0  0  0  0
  1 10  1  0  0  0  0
  2 12  1  0  0  0  0
  3  5  1  0  0  0  0
  4 12  2  0  0  0  0
  5  7  1  0  0  0  0
  6 12  2  0  0  0  0
  7  8  1  0  0  0  0
  8  9  1  0  0  0  0
 10 11  1  0  0  0  0
 11 12  1  0  0  0  0
M  END
>  <CHROM.1>
-67.13917606,-65.10067588,177.42004717,13.83613359,12.67911088,15.30441163
0.76102197,-0.36739095,-2.13093899

>  <Name>
ligand

>  <RI>
0

>  <Rbt.Current_Directory>
/home/itssahil/PROJECTS/Mol_Feturizer/New_Systems/rnas/4E8N

>  <Rbt.Executable>
rbdock ($Id: //depot/dev/client3/rdock/2013.1/src/exe/rbdock.cxx#4 $)

>  <Rbt.Library>
libRbt.so (2013.1, Build901 2013/11/27)

>  <Rbt.Parameter_File>
/export/apps/rDock/src/rDock_2013.1_src/data/scripts/dock_solv.prm

>  <Rbt.Receptor>
prm/blind_docking_40.prm

>  <SCORE>
-14.2777

>  <SCORE.INTER>
-10.0417

>  <SCORE.INTER.CONST>
1

>  <SCORE.INTER.POLAR>
0

>  <SCORE.INTER.ROT>
3

>  <SCORE.INTER.SOLV>
5.791

>  <SCORE.INTER.VDW>
-14.2248

>  <SCORE.INTER.norm>
-0.836812

>  <SCORE.INTRA>
-4.23595

>  <SCORE.INTRA.DIHEDRAL>
-4.78539

>  <SCORE.INTRA.DIHEDRAL.0>
5.0186

>  <SCORE.INTRA.POLAR>
0

>  <SCORE.INTRA.POLAR.0>
0

>  <SCORE.INTRA.REPUL>
0

>  <SCORE.INTRA.REPUL.0>
0

>  <SCORE.INTRA.SOLV>
0.660555

>  <SCORE.INTRA.SOLV.lig_0>
-16.1608

>  <SCORE.INTRA.VDW>
-2.17354

>  <SCORE.INTRA.VDW.0>
1.14169

>  <SCORE.INTRA.norm>
-0.352996

>  <SCORE.RESTR>
0

>  <SCORE.RESTR.CAVITY>
0

>  <SCORE.RESTR.norm>
0

>  <SCORE.SYSTEM>
0

>  <SCORE.SYSTEM.CONST>
0

>  <SCORE.SYSTEM.DIHEDRAL>
0

>  <SCORE.SYSTEM.SOLV>
0

>  <SCORE.SYSTEM.norm>
0

>  <SCORE.heavy>
12

>  <SCORE.norm>
-1.18981

>  <RMSD>
38.598

$$$$
ligand
 OpenBabel11021811493D
libRbt.so/2013.1/901 2013/11/27
 12 12  0  0  0  0  0  0  0  0999 V2000
   14.3908   12.7463   14.2096 N   0  0  0  0  0  0  0  0  0  0  0  0
   11.9226   14.0989   17.2111 O   0  0  0  0  0  0  0  0  0  0  0  0
   15.2478   13.8210   13.6515 C   0  0  0  0  0  0  0  0  0  0  0  0
   11.6905   11.8395   17.8539 O   0  0  0  0  0  0  0  0  0  0  0  0
   16.6994   13.3566   13.7088 C   0  0  0  0  0  0  0  0  0  0  0  0
   13.9394   12.7577   17.4873 O   0  0  0  0  0  0  0  0  0  0  0  0
   16.8760   12.1898   12.8390 N   0  0  0  0  0  0  0  0  0  0  0  0
   15.5722   11.8509   12.2633 C   0  0  0  0  0  0  0  0  0  0  0  0
   14.6500   11.5230   13.4252 C   0  0  0  0  0  0  0  0  0  0  0  0
   12.9060   13.0507   14.2717 C   0  0  0  0  0  0  0  0  0  0  0  0
   12.0972   12.3406   15.3887 C   0  0  0  0  0  0  0  0  0  0  0  0
   12.3936   12.7618   17.0005 S   0  0  0  0  0  0  0  0  0  0  0  0
  1  3  1  0  0  0  0
  1  9  1  0  0  0  0
  1 10  1  0  0  0  0
  2 12  1  0  0  0  0
  3  5  1  0  0  0  0
  4 12  2  0  0  0  0
  5  7  1  0  0  0  0
  6 12  2  0  0  0  0
  7  8  1  0  0  0  0
  8  9  1  0  0  0  0
 10 11  1  0  0  0  0
 11 12  1  0  0  0  0
M  END
>  <CHROM.1>
-151.70227353,67.66994898,68.79265053,13.83146211,12.70736445,15.21518414
0.77815957,-0.36841822,-1.98508360

>  <Name>
ligand

>  <RI>
0

>  <Rbt.Current_Directory>
/home/itssahil/PROJECTS/Mol_Feturizer/New_Systems/rnas/4E8N

>  <Rbt.Executable>
rbdock ($Id: //depot/dev/client3/rdock/2013.1/src/exe/rbdock.cxx#4 $)

>  <Rbt.Library>
libRbt.so (2013.1, Build901 2013/11/27)

>  <Rbt.Parameter_File>
/export/apps/rDock/src/rDock_2013.1_src/data/scripts/dock_solv.prm

>  <Rbt.Receptor>
prm/blind_docking_40.prm

>  <SCORE>
-14.3172

>  <SCORE.INTER>
-10.5461

>  <SCORE.INTER.CONST>
1

>  <SCORE.INTER.POLAR>
0

>  <SCORE.INTER.ROT>
3

>  <SCORE.INTER.SOLV>
6.9283

>  <SCORE.INTER.VDW>
-14.9401

>  <SCORE.INTER.norm>
-0.878838

>  <SCORE.INTRA>
-3.77117

>  <SCORE.INTRA.DIHEDRAL>
-3.59588

>  <SCORE.INTRA.DIHEDRAL.0>
5.0186

>  <SCORE.INTRA.POLAR>
0

>  <SCORE.INTRA.POLAR.0>
0

>  <SCORE.INTRA.REPUL>
0

>  <SCORE.INTRA.REPUL.0>
0

>  <SCORE.INTRA.SOLV>
0.414985

>  <SCORE.INTRA.SOLV.lig_0>
-16.1608

>  <SCORE.INTRA.VDW>
-2.18072

>  <SCORE.INTRA.VDW.0>
1.14169

>  <SCORE.INTRA.norm>
-0.314264

>  <SCORE.RESTR>
0

>  <SCORE.RESTR.CAVITY>
0

>  <SCORE.RESTR.norm>
0

>  <SCORE.SYSTEM>
0

>  <SCORE.SYSTEM.CONST>
0

>  <SCORE.SYSTEM.DIHEDRAL>
0

>  <SCORE.SYSTEM.SOLV>
0

>  <SCORE.SYSTEM.norm>
0

>  <SCORE.heavy>
12

>  <SCORE.norm>
-1.1931

>  <RMSD>
38.634

$$$$
ligand
 OpenBabel11021811493D
libRbt.so/2013.1/901 2013/11/27
 12 12  0  0  0  0  0  0  0  0999 V2000
   13.5922   11.9643   14.7676 N   0  0  0  0  0  0  0  0  0  0  0  0
   12.5378   14.4670   18.5720 O   0  0  0  0  0  0  0  0  0  0  0  0
   14.3441   13.0105   14.0320 C   0  0  0  0  0  0  0  0  0  0  0  0
   12.2891   12.1267   18.3910 O   0  0  0  0  0  0  0  0  0  0  0  0
   15.7233   12.4583   13.6871 C   0  0  0  0  0  0  0  0  0  0  0  0
   14.4437   13.1528   17.8084 O   0  0  0  0  0  0  0  0  0  0  0  0
   15.5821   11.3242   12.7689 N   0  0  0  0  0  0  0  0  0  0  0  0
   14.1522   11.0903   12.5521 C   0  0  0  0  0  0  0  0  0  0  0  0
   13.5492   10.7650   13.9080 C   0  0  0  0  0  0  0  0  0  0  0  0
   12.2015   12.3534   15.2319 C   0  0  0  0  0  0  0  0  0  0  0  0
   12.1106   13.5118   16.2594 C   0  0  0  0  0  0  0  0  0  0  0  0
   12.8312   13.3111   17.7772 S   0  0  0  0  0  0  0  0  0  0  0  0
  1  3  1  0  0  0  0
  1  9  1  0  0  0  0
  1 10  1  0  0  0  0
  2 12  1  0  0  0  0
  3  5  1  0  0  0  0
  4 12  2  0  0  0  0
  5  7  1  0  0  0  0
  6 12  2  0  0  0  0
  7  8  1  0  0  0  0
  8  9  1  0  0  0  0
 10 11  1  0  0  0  0
 11 12  1  0  0  0  0
M  END
>  <CHROM.1>
-63.13777144,-62.53106751,-176.15568034,13.52342912,12.56540474,15.78103682
1.18667828,-0.33394096,-2.06383636

>  <Name>
ligand

>  <RI>
0

>  <Rbt.Current_Directory>
/home/itssahil/PROJECTS/Mol_Feturizer/New_Systems/rnas/4E8N

>  <Rbt.Executable>
rbdock ($Id: //depot/dev/client3/rdock/2013.1/src/exe/rbdock.cxx#4 $)

>  <Rbt.Library>
libRbt.so (2013.1, Build901 2013/11/27)

>  <Rbt.Parameter_File>
/export/apps/rDock/src/rDock_2013.1_src/data/scripts/dock_solv.prm

>  <Rbt.Receptor>
prm/blind_docking_40.prm

>  <SCORE>
-15.0983

>  <SCORE.INTER>
-10.8685

>  <SCORE.INTER.CONST>
1

>  <SCORE.INTER.POLAR>
0

>  <SCORE.INTER.ROT>
3

>  <SCORE.INTER.SOLV>
6.84902

>  <SCORE.INTER.VDW>
-15.1287

>  <SCORE.INTER.norm>
-0.90571

>  <SCORE.INTRA>
-4.22981

>  <SCORE.INTRA.DIHEDRAL>
-4.91539

>  <SCORE.INTRA.DIHEDRAL.0>
5.0186

>  <SCORE.INTRA.POLAR>
0

>  <SCORE.INTRA.POLAR.0>
0

>  <SCORE.INTRA.REPUL>
0

>  <SCORE.INTRA.REPUL.0>
0

>  <SCORE.INTRA.SOLV>
0.716093

>  <SCORE.INTRA.SOLV.lig_0>
-16.1608

>  <SCORE.INTRA.VDW>
-2.13016

>  <SCORE.INTRA.VDW.0>
1.14169

>  <SCORE.INTRA.norm>
-0.352484

>  <SCORE.RESTR>
0

>  <SCORE.RESTR.CAVITY>
0

>  <SCORE.RESTR.norm>
0

>  <SCORE.SYSTEM>
0

>  <SCORE.SYSTEM.CONST>
0

>  <SCORE.SYSTEM.DIHEDRAL>
0

>  <SCORE.SYSTEM.SOLV>
0

>  <SCORE.SYSTEM.norm>
0

>  <SCORE.heavy>
12

>  <SCORE.norm>
-1.25819

>  <RMSD>
38.713

$$$$
ligand
 OpenBabel11021811493D
libRbt.so/2013.1/901 2013/11/27
 12 12  0  0  0  0  0  0  0  0999 V2000
   14.2086   12.5282   14.6793 N   0  0  0  0  0  0  0  0  0  0  0  0
   12.2845   12.2139   18.5230 O   0  0  0  0  0  0  0  0  0  0  0  0
   14.4891   11.8780   13.3757 C   0  0  0  0  0  0  0  0  0  0  0  0
   14.1674   13.4764   17.8653 O   0  0  0  0  0  0  0  0  0  0  0  0
   15.8423   12.3713   12.8739 C   0  0  0  0  0  0  0  0  0  0  0  0
   12.1670   14.6434   18.6846 O   0  0  0  0  0  0  0  0  0  0  0  0
   16.8963   11.9321   13.7933 N   0  0  0  0  0  0  0  0  0  0  0  0
   16.2620   11.2171   14.9035 C   0  0  0  0  0  0  0  0  0  0  0  0
   15.3278   12.2025   15.5849 C   0  0  0  0  0  0  0  0  0  0  0  0
   12.8745   12.1856   15.3149 C   0  0  0  0  0  0  0  0  0  0  0  0
   12.2347   13.2733   16.2169 C   0  0  0  0  0  0  0  0  0  0  0  0
   12.7307   13.3867   17.8307 S   0  0  0  0  0  0  0  0  0  0  0  0
  1  3  1  0  0  0  0
  1  9  1  0  0  0  0
  1 10  1  0  0  0  0
  2 12  1  0  0  0  0
  3  5  1  0  0  0  0
  4 12  2  0  0  0  0
  5  7  1  0  0  0  0
  6 12  2  0  0  0  0
  7  8  1  0  0  0  0
  8  9  1  0  0  0  0
 10 11  1  0  0  0  0
 11 12  1  0  0  0  0
M  END
>  <CHROM.1>
-150.60934048,-83.50788761,-67.70704486,13.95425267,12.70780442,16.07292350
0.93906218,0.19190640,-1.78177234

>  <Name>
ligand

>  <RI>
0

>  <Rbt.Current_Directory>
/home/itssahil/PROJECTS/Mol_Feturizer/New_Systems/rnas/4E8N

>  <Rbt.Executable>
rbdock ($Id: //depot/dev/client3/rdock/2013.1/src/exe/rbdock.cxx#4 $)

>  <Rbt.Library>
libRbt.so (2013.1, Build901 2013/11/27)

>  <Rbt.Parameter_File>
/export/apps/rDock/src/rDock_2013.1_src/data/scripts/dock_solv.prm

>  <Rbt.Receptor>
prm/blind_docking_40.prm

>  <SCORE>
-11.9677

>  <SCORE.INTER>
-9.35052

>  <SCORE.INTER.CONST>
1

>  <SCORE.INTER.POLAR>
0

>  <SCORE.INTER.ROT>
3

>  <SCORE.INTER.SOLV>
6.77082

>  <SCORE.INTER.VDW>
-14.0906

>  <SCORE.INTER.norm>
-0.77921

>  <SCORE.INTRA>
-2.6172

>  <SCORE.INTRA.DIHEDRAL>
-1.9709

>  <SCORE.INTRA.DIHEDRAL.0>
5.0186

>  <SCORE.INTRA.POLAR>
0

>  <SCORE.INTRA.POLAR.0>
0

>  <SCORE.INTRA.REPUL>
0

>  <SCORE.INTRA.REPUL.0>
0

>  <SCORE.INTRA.SOLV>
0.490581

>  <SCORE.INTRA.SOLV.lig_0>
-16.1608

>  <SCORE.INTRA.VDW>
-1.87704

>  <SCORE.INTRA.VDW.0>
1.14169

>  <SCORE.INTRA.norm>
-0.2181

>  <SCORE.RESTR>
0

>  <SCORE.RESTR.CAVITY>
0

>  <SCORE.RESTR.norm>
0

>  <SCORE.SYSTEM>
0

>  <SCORE.SYSTEM.CONST>
0

>  <SCORE.SYSTEM.DIHEDRAL>
0

>  <SCORE.SYSTEM.SOLV>
0

>  <SCORE.SYSTEM.norm>
0

>  <SCORE.heavy>
12

>  <SCORE.norm>
-0.99731

>  <RMSD>
38.726

$$$$
ligand
 OpenBabel11021811493D
libRbt.so/2013.1/901 2013/11/27
 12 12  0  0  0  0  0  0  0  0999 V2000
   13.3175   11.7554   15.2322 N   0  0  0  0  0  0  0  0  0  0  0  0
   12.7211   13.1359   19.5760 O   0  0  0  0  0  0  0  0  0  0  0  0
   13.4900   13.0415   14.5131 C   0  0  0  0  0  0  0  0  0  0  0  0
   14.1259   13.2869   17.6851 O   0  0  0  0  0  0  0  0  0  0  0  0
   14.8648   13.0423   13.8527 C   0  0  0  0  0  0  0  0  0  0  0  0
   12.0491   14.5977   17.7445 O   0  0  0  0  0  0  0  0  0  0  0  0
   14.9217   11.9868   12.8369 N   0  0  0  0  0  0  0  0  0  0  0  0
   13.6458   11.2672   12.8575 C   0  0  0  0  0  0  0  0  0  0  0  0
   13.4991   10.6712   14.2471 C   0  0  0  0  0  0  0  0  0  0  0  0
   12.0136   11.5918   15.9899 C   0  0  0  0  0  0  0  0  0  0  0  0
   12.0749   11.7827   17.5280 C   0  0  0  0  0  0  0  0  0  0  0  0
   12.7642   13.1996   18.1449 S   0  0  0  0  0  0  0  0  0  0  0  0
  1  3  1  0  0  0  0
  1  9  1  0  0  0  0
  1 10  1  0  0  0  0
  2 12  1  0  0  0  0
  3  5  1  0  0  0  0
  4 12  2  0  0  0  0
  5  7  1  0  0  0  0
  6 12  2  0  0  0  0
  7  8  1  0  0  0  0
  8  9  1  0  0  0  0
 10 11  1  0  0  0  0
 11 12  1  0  0  0  0
M  END
>  <CHROM.1>
-102.50502628,52.82779717,-179.26550312,13.23107992,12.55511697,16.14275448
1.12737694,-0.88976265,-2.22222509

>  <Name>
ligand

>  <RI>
0

>  <Rbt.Current_Directory>
/home/itssahil/PROJECTS/Mol_Feturizer/New_Systems/rnas/4E8N

>  <Rbt.Executable>
rbdock ($Id: //depot/dev/client3/rdock/2013.1/src/exe/rbdock.cxx#4 $)

>  <Rbt.Library>
libRbt.so (2013.1, Build901 2013/11/27)

>  <Rbt.Parameter_File>
/export/apps/rDock/src/rDock_2013.1_src/data/scripts/dock_solv.prm

>  <Rbt.Receptor>
prm/blind_docking_40.prm

>  <SCORE>
-16.253

>  <SCORE.INTER>
-12.6879

>  <SCORE.INTER.CONST>
1

>  <SCORE.INTER.POLAR>
0

>  <SCORE.INTER.ROT>
3

>  <SCORE.INTER.SOLV>
7.98771

>  <SCORE.INTER.VDW>
-16.7212

>  <SCORE.INTER.norm>
-1.05733

>  <SCORE.INTRA>
-3.56509

>  <SCORE.INTRA.DIHEDRAL>
-2.8259

>  <SCORE.INTRA.DIHEDRAL.0>
5.0186

>  <SCORE.INTRA.POLAR>
0

>  <SCORE.INTRA.POLAR.0>
0

>  <SCORE.INTRA.REPUL>
0

>  <SCORE.INTRA.REPUL.0>
0

>  <SCORE.INTRA.SOLV>
1.01241

>  <SCORE.INTRA.SOLV.lig_0>
-16.1608

>  <SCORE.INTRA.VDW>
-2.65834

>  <SCORE.INTRA.VDW.0>
1.14169

>  <SCORE.INTRA.norm>
-0.297091

>  <SCORE.RESTR>
0

>  <SCORE.RESTR.CAVITY>
0

>  <SCORE.RESTR.norm>
0

>  <SCORE.SYSTEM>
0

>  <SCORE.SYSTEM.CONST>
0

>  <SCORE.SYSTEM.DIHEDRAL>
0

>  <SCORE.SYSTEM.SOLV>
0

>  <SCORE.SYSTEM.norm>
0

>  <SCORE.heavy>
12

>  <SCORE.norm>
-1.35442

>  <RMSD>
38.938

$$$$
ligand
 OpenBabel11021811493D
libRbt.so/2013.1/901 2013/11/27
 12 12  0  0  0  0  0  0  0  0999 V2000
   13.2853   11.7890   15.1992 N   0  0  0  0  0  0  0  0  0  0  0  0
   14.1333   13.2283   17.7687 O   0  0  0  0  0  0  0  0  0  0  0  0
   13.3877   13.0508   14.4257 C   0  0  0  0  0  0  0  0  0  0  0  0
   12.0601   14.3312   17.5293 O   0  0  0  0  0  0  0  0  0  0  0  0
   14.7592   13.0964   13.7599 C   0  0  0  0  0  0  0  0  0  0  0  0
   12.6870   13.4178   19.7219 O   0  0  0  0  0  0  0  0  0  0  0  0
   14.8700   12.0033   12.7894 N   0  0  0  0  0  0  0  0  0  0  0  0
   13.6341   11.2186   12.8458 C   0  0  0  0  0  0  0  0  0  0  0  0
   13.5222   10.6751   14.2600 C   0  0  0  0  0  0  0  0  0  0  0  0
   11.9934   11.5889   15.9687 C   0  0  0  0  0  0  0  0  0  0  0  0
   12.0631   11.7830   17.5061 C   0  0  0  0  0  0  0  0  0  0  0  0
   12.7430   13.2075   18.1160 S   0  0  0  0  0  0  0  0  0  0  0  0
  1  3  1  0  0  0  0
  1  9  1  0  0  0  0
  1 10  1  0  0  0  0
  2 12  1  0  0  0  0
  3  5  1  0  0  0  0
  4 12  2  0  0  0  0
  5  7  1  0  0  0  0
  6 12  2  0  0  0  0
  7  8  1  0  0  0  0
  8  9  1  0  0  0  0
 10 11  1  0  0  0  0
 11 12  1  0  0  0  0
M  END
>  <CHROM.1>
-105.27924936,51.71664046,-65.43817139,13.20344025,12.55766224,16.11706598
1.16377052,-0.86362127,-2.17938728

>  <Name>
ligand

>  <RI>
0

>  <Rbt.Current_Directory>
/home/itssahil/PROJECTS/Mol_Feturizer/New_Systems/rnas/4E8N

>  <Rbt.Executable>
rbdock ($Id: //depot/dev/client3/rdock/2013.1/src/exe/rbdock.cxx#4 $)

>  <Rbt.Library>
libRbt.so (2013.1, Build901 2013/11/27)

>  <Rbt.Parameter_File>
/export/apps/rDock/src/rDock_2013.1_src/data/scripts/dock_solv.prm

>  <Rbt.Receptor>
prm/blind_docking_40.prm

>  <SCORE>
-16.9496

>  <SCORE.INTER>
-13.1465

>  <SCORE.INTER.CONST>
1

>  <SCORE.INTER.POLAR>
0

>  <SCORE.INTER.ROT>
3

>  <SCORE.INTER.SOLV>
8.64557

>  <SCORE.INTER.VDW>
-17.2462

>  <SCORE.INTER.norm>
-1.09554

>  <SCORE.INTRA>
-3.80894

>  <SCORE.INTRA.DIHEDRAL>
-2.57857

>  <SCORE.INTRA.DIHEDRAL.0>
5.0186

>  <SCORE.INTRA.POLAR>
0

>  <SCORE.INTRA.POLAR.0>
0

>  <SCORE.INTRA.REPUL>
0

>  <SCORE.INTRA.REPUL.0>
0

>  <SCORE.INTRA.SOLV>
0.257526

>  <SCORE.INTRA.SOLV.lig_0>
-16.1608

>  <SCORE.INTRA.VDW>
-2.64842

>  <SCORE.INTRA.VDW.0>
1.14169

>  <SCORE.INTRA.norm>
-0.317411

>  <SCORE.RESTR>
0.00583884

>  <SCORE.RESTR.CAVITY>
0.00583884

>  <SCORE.RESTR.norm>
0.00048657

>  <SCORE.SYSTEM>
0

>  <SCORE.SYSTEM.CONST>
0

>  <SCORE.SYSTEM.DIHEDRAL>
0

>  <SCORE.SYSTEM.SOLV>
0

>  <SCORE.SYSTEM.norm>
0

>  <SCORE.heavy>
12

>  <SCORE.norm>
-1.41247

>  <RMSD>
38.940

$$$$
ligand
 OpenBabel11021811493D
libRbt.so/2013.1/901 2013/11/27
 12 12  0  0  0  0  0  0  0  0999 V2000
   14.5825   12.6297   15.4088 N   0  0  0  0  0  0  0  0  0  0  0  0
   12.5203   12.1110   18.2818 O   0  0  0  0  0  0  0  0  0  0  0  0
   13.1207   12.4212   15.2647 C   0  0  0  0  0  0  0  0  0  0  0  0
   12.8749   14.0357   19.6015 O   0  0  0  0  0  0  0  0  0  0  0  0
   12.7342   12.7115   13.8182 C   0  0  0  0  0  0  0  0  0  0  0  0
   12.0486   14.2930   17.3025 O   0  0  0  0  0  0  0  0  0  0  0  0
   13.3824   11.7395   12.9326 N   0  0  0  0  0  0  0  0  0  0  0  0
   14.2201   10.8633   13.7553 C   0  0  0  0  0  0  0  0  0  0  0  0
   15.2524   11.7494   14.4314 C   0  0  0  0  0  0  0  0  0  0  0  0
   15.1447   12.4252   16.8028 C   0  0  0  0  0  0  0  0  0  0  0  0
   14.6648   13.4137   17.8976 C   0  0  0  0  0  0  0  0  0  0  0  0
   13.0198   13.4543   18.2923 S   0  0  0  0  0  0  0  0  0  0  0  0
  1  3  1  0  0  0  0
  1  9  1  0  0  0  0
  1 10  1  0  0  0  0
  2 12  1  0  0  0  0
  3  5  1  0  0  0  0
  4 12  2  0  0  0  0
  5  7  1  0  0  0  0
  6 12  2  0  0  0  0
  7  8  1  0  0  0  0
  8  9  1  0  0  0  0
 10 11  1  0  0  0  0
 11 12  1  0  0  0  0
M  END
>  <CHROM.1>
-64.86627169,62.28914215,39.11276344,13.53770972,12.75457624,16.41974975
-1.36411898,-0.32780698,1.27671523

>  <Name>
ligand

>  <RI>
0

>  <Rbt.Current_Directory>
/home/itssahil/PROJECTS/Mol_Feturizer/New_Systems/rnas/4E8N

>  <Rbt.Executable>
rbdock ($Id: //depot/dev/client3/rdock/2013.1/src/exe/rbdock.cxx#4 $)

>  <Rbt.Library>
libRbt.so (2013.1, Build901 2013/11/27)

>  <Rbt.Parameter_File>
/export/apps/rDock/src/rDock_2013.1_src/data/scripts/dock_solv.prm

>  <Rbt.Receptor>
prm/blind_docking_40.prm

>  <SCORE>
-13.265

>  <SCORE.INTER>
-9.5709

>  <SCORE.INTER.CONST>
1

>  <SCORE.INTER.POLAR>
0

>  <SCORE.INTER.ROT>
3

>  <SCORE.INTER.SOLV>
10.618

>  <SCORE.INTER.VDW>
-15.5199

>  <SCORE.INTER.norm>
-0.797575

>  <SCORE.INTRA>
-3.6941

>  <SCORE.INTRA.DIHEDRAL>
-3.9789

>  <SCORE.INTRA.DIHEDRAL.0>
5.0186

>  <SCORE.INTRA.POLAR>
0

>  <SCORE.INTRA.POLAR.0>
0

>  <SCORE.INTRA.REPUL>
0

>  <SCORE.INTRA.REPUL.0>
0

>  <SCORE.INTRA.SOLV>
0.419749

>  <SCORE.INTRA.SOLV.lig_0>
-16.1608

>  <SCORE.INTRA.VDW>
-1.91453

>  <SCORE.INTRA.VDW.0>
1.14169

>  <SCORE.INTRA.norm>
-0.307842

>  <SCORE.RESTR>
0

>  <SCORE.RESTR.CAVITY>
0

>  <SCORE.RESTR.norm>
0

>  <SCORE.SYSTEM>
0

>  <SCORE.SYSTEM.CONST>
0

>  <SCORE.SYSTEM.DIHEDRAL>
0

>  <SCORE.SYSTEM.SOLV>
0

>  <SCORE.SYSTEM.norm>
0

>  <SCORE.heavy>
12

>  <SCORE.norm>
-1.10542

>  <RMSD>
39.047

$$$$
ligand
 OpenBabel11021811493D
libRbt.so/2013.1/901 2013/11/27
 12 12  0  0  0  0  0  0  0  0999 V2000
   24.9703    6.1166   34.2456 N   0  0  0  0  0  0  0  0  0  0  0  0
   26.3632    1.9839   35.6275 O   0  0  0  0  0  0  0  0  0  0  0  0
   23.7783    6.4724   33.4373 C   0  0  0  0  0  0  0  0  0  0  0  0
   27.1078    2.9063   37.6687 O   0  0  0  0  0  0  0  0  0  0  0  0
   23.9436    7.9055   32.9423 C   0  0  0  0  0  0  0  0  0  0  0  0
   24.7281    2.3608   37.3959 O   0  0  0  0  0  0  0  0  0  0  0  0
   25.0964    7.9830   32.0400 N   0  0  0  0  0  0  0  0  0  0  0  0
   25.7154    6.6566   31.9787 C   0  0  0  0  0  0  0  0  0  0  0  0
   26.1576    6.3118   33.3906 C   0  0  0  0  0  0  0  0  0  0  0  0
   24.9620    4.7295   34.8597 C   0  0  0  0  0  0  0  0  0  0  0  0
   25.9843    4.4666   35.9962 C   0  0  0  0  0  0  0  0  0  0  0  0
   26.0674    2.9181   36.6733 S   0  0  0  0  0  0  0  0  0  0  0  0
  1  3  1  0  0  0  0
  1  9  1  0  0  0  0
  1 10  1  0  0  0  0
  2 12  1  0  0  0  0
  3  5  1  0  0  0  0
  4 12  2  0  0  0  0
  5  7  1  0  0  0  0
  6 12  2  0  0  0  0
  7  8  1  0  0  0  0
  8  9  1  0  0  0  0
 10 11  1  0  0  0  0
 11 12  1  0  0  0  0
M  END
>  <CHROM.1>
-164.19176481,-177.37926518,58.13882791,25.48862450,4.78392147,34.94255657
1.77831837,0.31714392,-0.80810837

>  <Name>
ligand

>  <RI>
0

>  <Rbt.Current_Directory>
/home/itssahil/PROJECTS/Mol_Feturizer/New_Systems/rnas/4E8N

>  <Rbt.Executable>
rbdock ($Id: //depot/dev/client3/rdock/2013.1/src/exe/rbdock.cxx#4 $)

>  <Rbt.Library>
libRbt.so (2013.1, Build901 2013/11/27)

>  <Rbt.Parameter_File>
/export/apps/rDock/src/rDock_2013.1_src/data/scripts/dock_solv.prm

>  <Rbt.Receptor>
prm/blind_docking_60.prm

>  <SCORE>
-12.3451

>  <SCORE.INTER>
-8.39779

>  <SCORE.INTER.CONST>
1

>  <SCORE.INTER.POLAR>
0

>  <SCORE.INTER.ROT>
3

>  <SCORE.INTER.SOLV>
10.248

>  <SCORE.INTER.VDW>
-14.6145

>  <SCORE.INTER.norm>
-0.699815

>  <SCORE.INTRA>
-3.94734

>  <SCORE.INTRA.DIHEDRAL>
-4.6593

>  <SCORE.INTRA.DIHEDRAL.0>
5.0186

>  <SCORE.INTRA.POLAR>
0

>  <SCORE.INTRA.POLAR.0>
0

>  <SCORE.INTRA.REPUL>
0

>  <SCORE.INTRA.REPUL.0>
0

>  <SCORE.INTRA.SOLV>
-0.109282

>  <SCORE.INTRA.SOLV.lig_0>
-16.1608

>  <SCORE.INTRA.VDW>
-1.56305

>  <SCORE.INTRA.VDW.0>
1.14169

>  <SCORE.INTRA.norm>
-0.328945

>  <SCORE.RESTR>
0

>  <SCORE.RESTR.CAVITY>
0

>  <SCORE.RESTR.norm>
0

>  <SCORE.SYSTEM>
0

>  <SCORE.SYSTEM.CONST>
0

>  <SCORE.SYSTEM.DIHEDRAL>
0

>  <SCORE.SYSTEM.SOLV>
0

>  <SCORE.SYSTEM.norm>
0

>  <SCORE.heavy>
12

>  <SCORE.norm>
-1.02876

>  <RMSD>
39.382

$$$$
ligand
 OpenBabel11021811493D
libRbt.so/2013.1/901 2013/11/27
 12 12  0  0  0  0  0  0  0  0999 V2000
   24.0233    8.3645   32.1449 N   0  0  0  0  0  0  0  0  0  0  0  0
   23.3819   11.5369   35.4203 O   0  0  0  0  0  0  0  0  0  0  0  0
   23.1422    7.1734   32.0686 C   0  0  0  0  0  0  0  0  0  0  0  0
   25.6659   10.9464   35.5023 O   0  0  0  0  0  0  0  0  0  0  0  0
   23.4527    6.4281   30.7747 C   0  0  0  0  0  0  0  0  0  0  0  0
   25.0226   13.1242   34.5651 O   0  0  0  0  0  0  0  0  0  0  0  0
   24.8292    5.9254   30.8162 N   0  0  0  0  0  0  0  0  0  0  0  0
   25.4373    6.3692   32.0730 C   0  0  0  0  0  0  0  0  0  0  0  0
   25.4179    7.8882   32.0588 C   0  0  0  0  0  0  0  0  0  0  0  0
   23.8249    9.2566   33.3558 C   0  0  0  0  0  0  0  0  0  0  0  0
   24.4449   10.6765   33.2819 C   0  0  0  0  0  0  0  0  0  0  0  0
   24.6286   11.5593   34.7138 S   0  0  0  0  0  0  0  0  0  0  0  0
  1  3  1  0  0  0  0
  1  9  1  0  0  0  0
  1 10  1  0  0  0  0
  2 12  1  0  0  0  0
  3  5  1  0  0  0  0
  4 12  2  0  0  0  0
  5  7  1  0  0  0  0
  6 12  2  0  0  0  0
  7  8  1  0  0  0  0
  8  9  1  0  0  0  0
 10 11  1  0  0  0  0
 11 12  1  0  0  0  0
M  END
>  <CHROM.1>
-164.30590334,-163.74958774,-49.85510372,24.46478264,9.41991108,33.28424397
1.61873336,0.14138161,-2.55898575

>  <Name>
ligand

>  <RI>
0

>  <Rbt.Current_Directory>
/home/itssahil/PROJECTS/Mol_Feturizer/New_Systems/rnas/4E8N

>  <Rbt.Executable>
rbdock ($Id: //depot/dev/client3/rdock/2013.1/src/exe/rbdock.cxx#4 $)

>  <Rbt.Library>
libRbt.so (2013.1, Build901 2013/11/27)

>  <Rbt.Parameter_File>
/export/apps/rDock/src/rDock_2013.1_src/data/scripts/dock_solv.prm

>  <Rbt.Receptor>
prm/blind_docking_60.prm

>  <SCORE>
-17.7497

>  <SCORE.INTER>
-14.3977

>  <SCORE.INTER.CONST>
1

>  <SCORE.INTER.POLAR>
0

>  <SCORE.INTER.ROT>
3

>  <SCORE.INTER.SOLV>
8.60815

>  <SCORE.INTER.VDW>
-18.0679

>  <SCORE.INTER.norm>
-1.19981

>  <SCORE.INTRA>
-3.352

>  <SCORE.INTRA.DIHEDRAL>
-3.49585

>  <SCORE.INTRA.DIHEDRAL.0>
5.0186

>  <SCORE.INTRA.POLAR>
0

>  <SCORE.INTRA.POLAR.0>
0

>  <SCORE.INTRA.REPUL>
0

>  <SCORE.INTRA.REPUL.0>
0

>  <SCORE.INTRA.SOLV>
-0.122672

>  <SCORE.INTRA.SOLV.lig_0>
-16.1608

>  <SCORE.INTRA.VDW>
-1.54273

>  <SCORE.INTRA.VDW.0>
1.14169

>  <SCORE.INTRA.norm>
-0.279333

>  <SCORE.RESTR>
0

>  <SCORE.RESTR.CAVITY>
0

>  <SCORE.RESTR.norm>
0

>  <SCORE.SYSTEM>
0

>  <SCORE.SYSTEM.CONST>
0

>  <SCORE.SYSTEM.DIHEDRAL>
0

>  <SCORE.SYSTEM.SOLV>
0

>  <SCORE.SYSTEM.norm>
0

>  <SCORE.heavy>
12

>  <SCORE.norm>
-1.47914

>  <RMSD>
41.052

$$$$
ligand
 OpenBabel11021811493D
libRbt.so/2013.1/901 2013/11/27
 12 12  0  0  0  0  0  0  0  0999 V2000
   24.0280    8.3994   32.1184 N   0  0  0  0  0  0  0  0  0  0  0  0
   23.3563   11.6106   35.3475 O   0  0  0  0  0  0  0  0  0  0  0  0
   23.0736    7.2710   31.9892 C   0  0  0  0  0  0  0  0  0  0  0  0
   25.6159   10.9560   35.5413 O   0  0  0  0  0  0  0  0  0  0  0  0
   23.3915    6.5178   30.7016 C   0  0  0  0  0  0  0  0  0  0  0  0
   25.0802   13.1407   34.5540 O   0  0  0  0  0  0  0  0  0  0  0  0
   24.7280    5.9233   30.7982 N   0  0  0  0  0  0  0  0  0  0  0  0
   25.3072    6.3143   32.0857 C   0  0  0  0  0  0  0  0  0  0  0  0
   25.3900    7.8312   32.0886 C   0  0  0  0  0  0  0  0  0  0  0  0
   23.8353    9.2922   33.3296 C   0  0  0  0  0  0  0  0  0  0  0  0
   24.4914   10.6964   33.2693 C   0  0  0  0  0  0  0  0  0  0  0  0
   24.6344   11.5894   34.6995 S   0  0  0  0  0  0  0  0  0  0  0  0
  1  3  1  0  0  0  0
  1  9  1  0  0  0  0
  1 10  1  0  0  0  0
  2 12  1  0  0  0  0
  3  5  1  0  0  0  0
  4 12  2  0  0  0  0
  5  7  1  0  0  0  0
  6 12  2  0  0  0  0
  7  8  1  0  0  0  0
  8  9  1  0  0  0  0
 10 11  1  0  0  0  0
 11 12  1  0  0  0  0
M  END
>  <CHROM.1>
-161.28119477,-165.60171781,-50.21339123,24.44036722,9.44519979,33.26402219
1.63221624,0.21396714,-2.56427104

>  <Name>
ligand

>  <RI>
0

>  <Rbt.Current_Directory>
/home/itssahil/PROJECTS/Mol_Feturizer/New_Systems/rnas/4E8N

>  <Rbt.Executable>
rbdock ($Id: //depot/dev/client3/rdock/2013.1/src/exe/rbdock.cxx#4 $)

>  <Rbt.Library>
libRbt.so (2013.1, Build901 2013/11/27)

>  <Rbt.Parameter_File>
/export/apps/rDock/src/rDock_2013.1_src/data/scripts/dock_solv.prm

>  <Rbt.Receptor>
prm/blind_docking_60.prm

>  <SCORE>
-17.6917

>  <SCORE.INTER>
-14.2518

>  <SCORE.INTER.CONST>
1

>  <SCORE.INTER.POLAR>
0

>  <SCORE.INTER.ROT>
3

>  <SCORE.INTER.SOLV>
8.45742

>  <SCORE.INTER.VDW>
-17.9204

>  <SCORE.INTER.norm>
-1.18765

>  <SCORE.INTRA>
-3.43987

>  <SCORE.INTRA.DIHEDRAL>
-3.56625

>  <SCORE.INTRA.DIHEDRAL.0>
5.0186

>  <SCORE.INTRA.POLAR>
0

>  <SCORE.INTRA.POLAR.0>
0

>  <SCORE.INTRA.REPUL>
0

>  <SCORE.INTRA.REPUL.0>
0

>  <SCORE.INTRA.SOLV>
-0.124017

>  <SCORE.INTRA.SOLV.lig_0>
-16.1608

>  <SCORE.INTRA.VDW>
-1.59474

>  <SCORE.INTRA.VDW.0>
1.14169

>  <SCORE.INTRA.norm>
-0.286656

>  <SCORE.RESTR>
0

>  <SCORE.RESTR.CAVITY>
0

>  <SCORE.RESTR.norm>
0

>  <SCORE.SYSTEM>
0

>  <SCORE.SYSTEM.CONST>
0

>  <SCORE.SYSTEM.DIHEDRAL>
0

>  <SCORE.SYSTEM.SOLV>
0

>  <SCORE.SYSTEM.norm>
0

>  <SCORE.heavy>
12

>  <SCORE.norm>
-1.47431

>  <RMSD>
41.062

$$$$
ligand
 OpenBabel11021811493D
libRbt.so/2013.1/901 2013/11/27
 12 12  0  0  0  0  0  0  0  0999 V2000
   24.0437    8.4122   32.1570 N   0  0  0  0  0  0  0  0  0  0  0  0
   25.0571   12.9042   34.4556 O   0  0  0  0  0  0  0  0  0  0  0  0
   23.1435    7.2378   32.0497 C   0  0  0  0  0  0  0  0  0  0  0  0
   23.4012   11.5615   35.4689 O   0  0  0  0  0  0  0  0  0  0  0  0
   23.4684    6.4999   30.7551 C   0  0  0  0  0  0  0  0  0  0  0  0
   25.7702   11.0150   35.8213 O   0  0  0  0  0  0  0  0  0  0  0  0
   24.8345    5.9722   30.8207 N   0  0  0  0  0  0  0  0  0  0  0  0
   25.4233    6.3926   32.0946 C   0  0  0  0  0  0  0  0  0  0  0  0
   25.4311    7.9118   32.0956 C   0  0  0  0  0  0  0  0  0  0  0  0
   23.8352    9.2956   33.3724 C   0  0  0  0  0  0  0  0  0  0  0  0
   24.4837   10.7039   33.3273 C   0  0  0  0  0  0  0  0  0  0  0  0
   24.6621   11.5638   34.7737 S   0  0  0  0  0  0  0  0  0  0  0  0
  1  3  1  0  0  0  0
  1  9  1  0  0  0  0
  1 10  1  0  0  0  0
  2 12  1  0  0  0  0
  3  5  1  0  0  0  0
  4 12  2  0  0  0  0
  5  7  1  0  0  0  0
  6 12  2  0  0  0  0
  7  8  1  0  0  0  0
  8  9  1  0  0  0  0
 10 11  1  0  0  0  0
 11 12  1  0  0  0  0
M  END
>  <CHROM.1>
-164.41084616,-163.31653778,-169.96119242,24.49014991,9.43522316,33.32290769
1.62822535,0.23703765,-2.54378716

>  <Name>
ligand

>  <RI>
0

>  <Rbt.Current_Directory>
/home/itssahil/PROJECTS/Mol_Feturizer/New_Systems/rnas/4E8N

>  <Rbt.Executable>
rbdock ($Id: //depot/dev/client3/rdock/2013.1/src/exe/rbdock.cxx#4 $)

>  <Rbt.Library>
libRbt.so (2013.1, Build901 2013/11/27)

>  <Rbt.Parameter_File>
/export/apps/rDock/src/rDock_2013.1_src/data/scripts/dock_solv.prm

>  <Rbt.Receptor>
prm/blind_docking_60.prm

>  <SCORE>
-16.8853

>  <SCORE.INTER>
-13.6736

>  <SCORE.INTER.CONST>
1

>  <SCORE.INTER.POLAR>
0

>  <SCORE.INTER.ROT>
3

>  <SCORE.INTER.SOLV>
9.6488

>  <SCORE.INTER.VDW>
-17.932

>  <SCORE.INTER.norm>
-1.13947

>  <SCORE.INTRA>
-3.21168

>  <SCORE.INTRA.DIHEDRAL>
-3.45795

>  <SCORE.INTRA.DIHEDRAL.0>
5.0186

>  <SCORE.INTRA.POLAR>
0

>  <SCORE.INTRA.POLAR.0>
0

>  <SCORE.INTRA.REPUL>
0

>  <SCORE.INTRA.REPUL.0>
0

>  <SCORE.INTRA.SOLV>
0.0796692

>  <SCORE.INTRA.SOLV.lig_0>
-16.1608

>  <SCORE.INTRA.VDW>
-1.52254

>  <SCORE.INTRA.VDW.0>
1.14169

>  <SCORE.INTRA.norm>
-0.26764

>  <SCORE.RESTR>
0

>  <SCORE.RESTR.CAVITY>
0

>  <SCORE.RESTR.norm>
0

>  <SCORE.SYSTEM>
0

>  <SCORE.SYSTEM.CONST>
0

>  <SCORE.SYSTEM.DIHEDRAL>
0

>  <SCORE.SYSTEM.SOLV>
0

>  <SCORE.SYSTEM.norm>
0

>  <SCORE.heavy>
12

>  <SCORE.norm>
-1.40711

>  <RMSD>
41.080

$$$$
ligand
 OpenBabel11021811493D
libRbt.so/2013.1/901 2013/11/27
 12 12  0  0  0  0  0  0  0  0999 V2000
    0.7782    7.2285   10.4143 N   0  0  0  0  0  0  0  0  0  0  0  0
    3.3807    8.5047    6.8652 O   0  0  0  0  0  0  0  0  0  0  0  0
   -0.6658    6.9399   10.2338 C   0  0  0  0  0  0  0  0  0  0  0  0
    5.3018    7.7198    7.9899 O   0  0  0  0  0  0  0  0  0  0  0  0
   -1.2284    6.4520   11.5648 C   0  0  0  0  0  0  0  0  0  0  0  0
    3.8039    6.1042    6.9031 O   0  0  0  0  0  0  0  0  0  0  0  0
   -1.1399    7.5264   12.5582 N   0  0  0  0  0  0  0  0  0  0  0  0
   -0.4873    8.6761   11.9271 C   0  0  0  0  0  0  0  0  0  0  0  0
    0.8977    8.2179   11.5033 C   0  0  0  0  0  0  0  0  0  0  0  0
    1.5198    7.6896    9.1739 C   0  0  0  0  0  0  0  0  0  0  0  0
    3.0658    7.5666    9.2027 C   0  0  0  0  0  0  0  0  0  0  0  0
    3.9032    7.4919    7.7342 S   0  0  0  0  0  0  0  0  0  0  0  0
  1  3  1  0  0  0  0
  1  9  1  0  0  0  0
  1 10  1  0  0  0  0
  2 12  1  0  0  0  0
  3  5  1  0  0  0  0
  4 12  2  0  0  0  0
  5  7  1  0  0  0  0
  6 12  2  0  0  0  0
  7  8  1  0  0  0  0
  8  9  1  0  0  0  0
 10 11  1  0  0  0  0
 11 12  1  0  0  0  0
M  END
>  <CHROM.1>
-161.18508942,157.21473687,45.64613441,1.89019336,7.50608879,9.41582914,2.62703475
0.52570159,0.83290304

>  <Name>
ligand

>  <RI>
0

>  <Rbt.Current_Directory>
/home/itssahil/PROJECTS/Mol_Feturizer/New_Systems/rnas/4E8N

>  <Rbt.Executable>
rbdock ($Id: //depot/dev/client3/rdock/2013.1/src/exe/rbdock.cxx#4 $)

>  <Rbt.Library>
libRbt.so (2013.1, Build901 2013/11/27)

>  <Rbt.Parameter_File>
/export/apps/rDock/src/rDock_2013.1_src/data/scripts/dock_solv.prm

>  <Rbt.Receptor>
prm/blind_docking_20.prm

>  <SCORE>
-9.51591

>  <SCORE.INTER>
-6.75369

>  <SCORE.INTER.CONST>
1

>  <SCORE.INTER.POLAR>
0

>  <SCORE.INTER.ROT>
3

>  <SCORE.INTER.SOLV>
5.25507

>  <SCORE.INTER.VDW>
-11.8542

>  <SCORE.INTER.norm>
-0.562807

>  <SCORE.INTRA>
-2.76819

>  <SCORE.INTRA.DIHEDRAL>
-2.34209

>  <SCORE.INTRA.DIHEDRAL.0>
5.0186

>  <SCORE.INTRA.POLAR>
0

>  <SCORE.INTRA.POLAR.0>
0

>  <SCORE.INTRA.REPUL>
0

>  <SCORE.INTRA.REPUL.0>
0

>  <SCORE.INTRA.SOLV>
-0.131372

>  <SCORE.INTRA.SOLV.lig_0>
-16.1608

>  <SCORE.INTRA.VDW>
-1.53146

>  <SCORE.INTRA.VDW.0>
1.14169

>  <SCORE.INTRA.norm>
-0.230683

>  <SCORE.RESTR>
0.0059721

>  <SCORE.RESTR.CAVITY>
0.0059721

>  <SCORE.RESTR.norm>
0.000497675

>  <SCORE.SYSTEM>
0

>  <SCORE.SYSTEM.CONST>
0

>  <SCORE.SYSTEM.DIHEDRAL>
0

>  <SCORE.SYSTEM.SOLV>
0

>  <SCORE.SYSTEM.norm>
0

>  <SCORE.heavy>
12

>  <SCORE.norm>
-0.792992

>  <RMSD>
41.174

$$$$
ligand
 OpenBabel11021811493D
libRbt.so/2013.1/901 2013/11/27
 12 12  0  0  0  0  0  0  0  0999 V2000
   23.9839    8.1930   33.1199 N   0  0  0  0  0  0  0  0  0  0  0  0
   25.3614   11.2916   35.8795 O   0  0  0  0  0  0  0  0  0  0  0  0
   24.8365    6.9945   33.3137 C   0  0  0  0  0  0  0  0  0  0  0  0
   25.7307   12.4421   33.8517 O   0  0  0  0  0  0  0  0  0  0  0  0
   23.9549    5.7547   33.2039 C   0  0  0  0  0  0  0  0  0  0  0  0
   23.8729   13.1339   35.3024 O   0  0  0  0  0  0  0  0  0  0  0  0
   23.4074    5.6607   31.8472 N   0  0  0  0  0  0  0  0  0  0  0  0
   23.8625    6.8303   31.0915 C   0  0  0  0  0  0  0  0  0  0  0  0
   23.3207    8.0553   31.8083 C   0  0  0  0  0  0  0  0  0  0  0  0
   24.6887    9.5311   33.2375 C   0  0  0  0  0  0  0  0  0  0  0  0
   23.8893   10.6814   33.9037 C   0  0  0  0  0  0  0  0  0  0  0  0
   24.7379   11.8868   34.7345 S   0  0  0  0  0  0  0  0  0  0  0  0
  1  3  1  0  0  0  0
  1  9  1  0  0  0  0
  1 10  1  0  0  0  0
  2 12  1  0  0  0  0
  3  5  1  0  0  0  0
  4 12  2  0  0  0  0
  5  7  1  0  0  0  0
  6 12  2  0  0  0  0
  7  8  1  0  0  0  0
  8  9  1  0  0  0  0
 10 11  1  0  0  0  0
 11 12  1  0  0  0  0
M  END
>  <CHROM.1>
-143.14973471,150.76469286,-65.87912235,24.36581221,9.55167578,33.61101298
-1.98854298,-1.19259015,0.04796337

>  <Name>
ligand

>  <RI>
0

>  <Rbt.Current_Directory>
/home/itssahil/PROJECTS/Mol_Feturizer/New_Systems/rnas/4E8N

>  <Rbt.Executable>
rbdock ($Id: //depot/dev/client3/rdock/2013.1/src/exe/rbdock.cxx#4 $)

>  <Rbt.Library>
libRbt.so (2013.1, Build901 2013/11/27)

>  <Rbt.Parameter_File>
/export/apps/rDock/src/rDock_2013.1_src/data/scripts/dock_solv.prm

>  <Rbt.Receptor>
prm/blind_docking_100.prm

>  <SCORE>
-14.1694

>  <SCORE.INTER>
-11.9707

>  <SCORE.INTER.CONST>
1

>  <SCORE.INTER.POLAR>
0

>  <SCORE.INTER.ROT>
3

>  <SCORE.INTER.SOLV>
8.20693

>  <SCORE.INTER.VDW>
-16.3161

>  <SCORE.INTER.norm>
-0.997558

>  <SCORE.INTRA>
-2.1987

>  <SCORE.INTRA.DIHEDRAL>
-0.756329

>  <SCORE.INTRA.DIHEDRAL.0>
5.0186

>  <SCORE.INTRA.POLAR>
0

>  <SCORE.INTRA.POLAR.0>
0

>  <SCORE.INTRA.REPUL>
0

>  <SCORE.INTRA.REPUL.0>
0

>  <SCORE.INTRA.SOLV>
-0.0913181

>  <SCORE.INTRA.SOLV.lig_0>
-16.1608

>  <SCORE.INTRA.VDW>
-1.77488

>  <SCORE.INTRA.VDW.0>
1.14169

>  <SCORE.INTRA.norm>
-0.183225

>  <SCORE.RESTR>
0

>  <SCORE.RESTR.CAVITY>
0

>  <SCORE.RESTR.norm>
0

>  <SCORE.SYSTEM>
0

>  <SCORE.SYSTEM.CONST>
0

>  <SCORE.SYSTEM.DIHEDRAL>
0

>  <SCORE.SYSTEM.SOLV>
0

>  <SCORE.SYSTEM.norm>
0

>  <SCORE.heavy>
12

>  <SCORE.norm>
-1.18078

>  <RMSD>
41.416

$$$$
ligand
 OpenBabel11021811493D
libRbt.so/2013.1/901 2013/11/27
 12 12  0  0  0  0  0  0  0  0999 V2000
   40.2170    3.3656   37.7804 N   0  0  0  0  0  0  0  0  0  0  0  0
   44.8138    2.9481   37.5625 O   0  0  0  0  0  0  0  0  0  0  0  0
   39.8024    3.7281   39.1580 C   0  0  0  0  0  0  0  0  0  0  0  0
   43.5313    2.3709   35.6667 O   0  0  0  0  0  0  0  0  0  0  0  0
   39.1221    5.0923   39.1118 C   0  0  0  0  0  0  0  0  0  0  0  0
   43.1369    4.5301   36.7699 O   0  0  0  0  0  0  0  0  0  0  0  0
   37.8931    5.0011   38.3179 N   0  0  0  0  0  0  0  0  0  0  0  0
   37.7853    3.6339   37.8029 C   0  0  0  0  0  0  0  0  0  0  0  0
   39.0080    3.3933   36.9340 C   0  0  0  0  0  0  0  0  0  0  0  0
   40.9533    2.0470   37.6375 C   0  0  0  0  0  0  0  0  0  0  0  0
   42.4700    2.0593   37.9624 C   0  0  0  0  0  0  0  0  0  0  0  0
   43.5054    2.9657   36.9777 S   0  0  0  0  0  0  0  0  0  0  0  0
  1  3  1  0  0  0  0
  1  9  1  0  0  0  0
  1 10  1  0  0  0  0
  2 12  1  0  0  0  0
  3  5  1  0  0  0  0
  4 12  2  0  0  0  0
  5  7  1  0  0  0  0
  6 12  2  0  0  0  0
  7  8  1  0  0  0  0
  8  9  1  0  0  0  0
 10 11  1  0  0  0  0
 11 12  1  0  0  0  0
M  END
>  <CHROM.1>
-81.54759496,-65.17983082,173.33978219,41.33989978,3.37998437,37.54792645
2.80533964,0.08222728,0.58145972

>  <Name>
ligand

>  <RI>
0

>  <Rbt.Current_Directory>
/home/itssahil/PROJECTS/Mol_Feturizer/New_Systems/rnas/4E8N

>  <Rbt.Executable>
rbdock ($Id: //depot/dev/client3/rdock/2013.1/src/exe/rbdock.cxx#4 $)

>  <Rbt.Library>
libRbt.so (2013.1, Build901 2013/11/27)

>  <Rbt.Parameter_File>
/export/apps/rDock/src/rDock_2013.1_src/data/scripts/dock_solv.prm

>  <Rbt.Receptor>
prm/blind_docking_80.prm

>  <SCORE>
-9.9773

>  <SCORE.INTER>
-5.99492

>  <SCORE.INTER.CONST>
1

>  <SCORE.INTER.POLAR>
0

>  <SCORE.INTER.ROT>
3

>  <SCORE.INTER.SOLV>
4.58363

>  <SCORE.INTER.VDW>
-11.1245

>  <SCORE.INTER.norm>
-0.499577

>  <SCORE.INTRA>
-3.98238

>  <SCORE.INTRA.DIHEDRAL>
-4.04737

>  <SCORE.INTRA.DIHEDRAL.0>
5.0186

>  <SCORE.INTRA.POLAR>
0

>  <SCORE.INTRA.POLAR.0>
0

>  <SCORE.INTRA.REPUL>
0

>  <SCORE.INTRA.REPUL.0>
0

>  <SCORE.INTRA.SOLV>
0.636284

>  <SCORE.INTRA.SOLV.lig_0>
-16.1608

>  <SCORE.INTRA.VDW>
-2.27684

>  <SCORE.INTRA.VDW.0>
1.14169

>  <SCORE.INTRA.norm>
-0.331865

>  <SCORE.RESTR>
0

>  <SCORE.RESTR.CAVITY>
0

>  <SCORE.RESTR.norm>
0

>  <SCORE.SYSTEM>
0

>  <SCORE.SYSTEM.CONST>
0

>  <SCORE.SYSTEM.DIHEDRAL>
0

>  <SCORE.SYSTEM.SOLV>
0

>  <SCORE.SYSTEM.norm>
0

>  <SCORE.heavy>
12

>  <SCORE.norm>
-0.831442

>  <RMSD>
41.608

$$$$
ligand
 OpenBabel11021811493D
libRbt.so/2013.1/901 2013/11/27
 12 12  0  0  0  0  0  0  0  0999 V2000
   41.1272    1.3595   38.9434 N   0  0  0  0  0  0  0  0  0  0  0  0
   39.0167    5.1304   37.5053 O   0  0  0  0  0  0  0  0  0  0  0  0
   42.2715    1.1998   39.8740 C   0  0  0  0  0  0  0  0  0  0  0  0
   37.8786    5.3123   39.5652 O   0  0  0  0  0  0  0  0  0  0  0  0
   42.4462   -0.2860   40.1704 C   0  0  0  0  0  0  0  0  0  0  0  0
   40.1698    6.1788   39.3799 O   0  0  0  0  0  0  0  0  0  0  0  0
   42.8101   -0.9926   38.9386 N   0  0  0  0  0  0  0  0  0  0  0  0
   42.8225   -0.0196   37.8435 C   0  0  0  0  0  0  0  0  0  0  0  0
   41.4173    0.5491   37.7442 C   0  0  0  0  0  0  0  0  0  0  0  0
   40.7765    2.7864   38.5663 C   0  0  0  0  0  0  0  0  0  0  0  0
   39.5666    3.4217   39.3001 C   0  0  0  0  0  0  0  0  0  0  0  0
   39.1356    5.0154   38.9289 S   0  0  0  0  0  0  0  0  0  0  0  0
  1  3  1  0  0  0  0
  1  9  1  0  0  0  0
  1 10  1  0  0  0  0
  2 12  1  0  0  0  0
  3  5  1  0  0  0  0
  4 12  2  0  0  0  0
  5  7  1  0  0  0  0
  6 12  2  0  0  0  0
  7  8  1  0  0  0  0
  8  9  1  0  0  0  0
 10 11  1  0  0  0  0
 11 12  1  0  0  0  0
M  END
>  <CHROM.1>
-101.02057258,179.54648346,51.02740137,40.57709286,2.80489362,38.89720134
-0.22619580,-0.99103778,1.30299483

>  <Name>
ligand

>  <RI>
0

>  <Rbt.Current_Directory>
/home/itssahil/PROJECTS/Mol_Feturizer/New_Systems/rnas/4E8N

>  <Rbt.Executable>
rbdock ($Id: //depot/dev/client3/rdock/2013.1/src/exe/rbdock.cxx#4 $)

>  <Rbt.Library>
libRbt.so (2013.1, Build901 2013/11/27)

>  <Rbt.Parameter_File>
/export/apps/rDock/src/rDock_2013.1_src/data/scripts/dock_solv.prm

>  <Rbt.Receptor>
prm/blind_docking_80.prm

>  <SCORE>
-12.1914

>  <SCORE.INTER>
-8.85551

>  <SCORE.INTER.CONST>
1

>  <SCORE.INTER.POLAR>
0

>  <SCORE.INTER.ROT>
3

>  <SCORE.INTER.SOLV>
9.41883

>  <SCORE.INTER.VDW>
-14.6433

>  <SCORE.INTER.norm>
-0.737959

>  <SCORE.INTRA>
-3.33594

>  <SCORE.INTRA.DIHEDRAL>
-2.90736

>  <SCORE.INTRA.DIHEDRAL.0>
5.0186

>  <SCORE.INTRA.POLAR>
0

>  <SCORE.INTRA.POLAR.0>
0

>  <SCORE.INTRA.REPUL>
0

>  <SCORE.INTRA.REPUL.0>
0

>  <SCORE.INTRA.SOLV>
-0.129693

>  <SCORE.INTRA.SOLV.lig_0>
-16.1608

>  <SCORE.INTRA.VDW>
-1.81742

>  <SCORE.INTRA.VDW.0>
1.14169

>  <SCORE.INTRA.norm>
-0.277995

>  <SCORE.RESTR>
0

>  <SCORE.RESTR.CAVITY>
0

>  <SCORE.RESTR.norm>
0

>  <SCORE.SYSTEM>
0

>  <SCORE.SYSTEM.CONST>
0

>  <SCORE.SYSTEM.DIHEDRAL>
0

>  <SCORE.SYSTEM.SOLV>
0

>  <SCORE.SYSTEM.norm>
0

>  <SCORE.heavy>
12

>  <SCORE.norm>
-1.01595

>  <RMSD>
41.856

$$$$
ligand
 OpenBabel11021811493D
libRbt.so/2013.1/901 2013/11/27
 12 12  0  0  0  0  0  0  0  0999 V2000
   40.0234    2.8579   38.6263 N   0  0  0  0  0  0  0  0  0  0  0  0
   43.4534    1.4680   38.4846 O   0  0  0  0  0  0  0  0  0  0  0  0
   38.9430    3.7317   38.1066 C   0  0  0  0  0  0  0  0  0  0  0  0
   42.2282    1.3020   40.4954 O   0  0  0  0  0  0  0  0  0  0  0  0
   38.5736    4.7367   39.1927 C   0  0  0  0  0  0  0  0  0  0  0  0
   43.3412   -0.6967   39.6001 O   0  0  0  0  0  0  0  0  0  0  0  0
   39.7199    5.6092   39.4643 N   0  0  0  0  0  0  0  0  0  0  0  0
   40.8373    5.1651   38.6274 C   0  0  0  0  0  0  0  0  0  0  0  0
   41.1436    3.7318   39.0268 C   0  0  0  0  0  0  0  0  0  0  0  0
   40.4943    1.7614   37.6897 C   0  0  0  0  0  0  0  0  0  0  0  0
   41.1105    0.5005   38.3501 C   0  0  0  0  0  0  0  0  0  0  0  0
   42.5391    0.6652   39.2419 S   0  0  0  0  0  0  0  0  0  0  0  0
  1  3  1  0  0  0  0
  1  9  1  0  0  0  0
  1 10  1  0  0  0  0
  2 12  1  0  0  0  0
  3  5  1  0  0  0  0
  4 12  2  0  0  0  0
  5  7  1  0  0  0  0
  6 12  2  0  0  0  0
  7  8  1  0  0  0  0
  8  9  1  0  0  0  0
 10 11  1  0  0  0  0
 11 12  1  0  0  0  0
M  END
>  <CHROM.1>
-153.81670179,-63.55958402,-46.00657484,41.23614951,2.33258827,38.95906838
2.30053895,-0.45862490,0.28120392

>  <Name>
ligand

>  <RI>
0

>  <Rbt.Current_Directory>
/home/itssahil/PROJECTS/Mol_Feturizer/New_Systems/rnas/4E8N

>  <Rbt.Executable>
rbdock ($Id: //depot/dev/client3/rdock/2013.1/src/exe/rbdock.cxx#4 $)

>  <Rbt.Library>
libRbt.so (2013.1, Build901 2013/11/27)

>  <Rbt.Parameter_File>
/export/apps/rDock/src/rDock_2013.1_src/data/scripts/dock_solv.prm

>  <Rbt.Receptor>
prm/blind_docking_60.prm

>  <SCORE>
-12.0586

>  <SCORE.INTER>
-8.19031

>  <SCORE.INTER.CONST>
1

>  <SCORE.INTER.POLAR>
0

>  <SCORE.INTER.ROT>
3

>  <SCORE.INTER.SOLV>
8.38662

>  <SCORE.INTER.VDW>
-13.8557

>  <SCORE.INTER.norm>
-0.682526

>  <SCORE.INTRA>
-3.86838

>  <SCORE.INTRA.DIHEDRAL>
-3.61704

>  <SCORE.INTRA.DIHEDRAL.0>
5.0186

>  <SCORE.INTRA.POLAR>
0

>  <SCORE.INTRA.POLAR.0>
0

>  <SCORE.INTRA.REPUL>
0

>  <SCORE.INTRA.REPUL.0>
0

>  <SCORE.INTRA.SOLV>
0.388182

>  <SCORE.INTRA.SOLV.lig_0>
-16.1608

>  <SCORE.INTRA.VDW>
-2.25396

>  <SCORE.INTRA.VDW.0>
1.14169

>  <SCORE.INTRA.norm>
-0.322365

>  <SCORE.RESTR>
0.000118833

>  <SCORE.RESTR.CAVITY>
0.000118833

>  <SCORE.RESTR.norm>
9.90272e-06

>  <SCORE.SYSTEM>
0

>  <SCORE.SYSTEM.CONST>
0

>  <SCORE.SYSTEM.DIHEDRAL>
0

>  <SCORE.SYSTEM.SOLV>
0

>  <SCORE.SYSTEM.norm>
0

>  <SCORE.heavy>
12

>  <SCORE.norm>
-1.00488

>  <RMSD>
42.095

$$$$
ligand
 OpenBabel11021811493D
libRbt.so/2013.1/901 2013/11/27
 12 12  0  0  0  0  0  0  0  0999 V2000
   41.6550    1.5943   39.6638 N   0  0  0  0  0  0  0  0  0  0  0  0
   38.4325    4.9816   39.7035 O   0  0  0  0  0  0  0  0  0  0  0  0
   42.6202    0.5148   39.9865 C   0  0  0  0  0  0  0  0  0  0  0  0
   40.7000    5.3112   39.1366 O   0  0  0  0  0  0  0  0  0  0  0  0
   42.6099   -0.4961   38.8445 C   0  0  0  0  0  0  0  0  0  0  0  0
   39.4308    3.5293   38.0192 O   0  0  0  0  0  0  0  0  0  0  0  0
   43.0960    0.1438   37.6184 N   0  0  0  0  0  0  0  0  0  0  0  0
   43.3684    1.5517   37.9180 C   0  0  0  0  0  0  0  0  0  0  0  0
   42.0539    2.1690   38.3640 C   0  0  0  0  0  0  0  0  0  0  0  0
   41.4994    2.6771   40.7148 C   0  0  0  0  0  0  0  0  0  0  0  0
   40.1385    3.4206   40.7503 C   0  0  0  0  0  0  0  0  0  0  0  0
   39.6759    4.3350   39.4038 S   0  0  0  0  0  0  0  0  0  0  0  0
  1  3  1  0  0  0  0
  1  9  1  0  0  0  0
  1 10  1  0  0  0  0
  2 12  1  0  0  0  0
  3  5  1  0  0  0  0
  4 12  2  0  0  0  0
  5  7  1  0  0  0  0
  6 12  2  0  0  0  0
  7  8  1  0  0  0  0
  8  9  1  0  0  0  0
 10 11  1  0  0  0  0
 11 12  1  0  0  0  0
M  END
>  <CHROM.1>
-153.37401607,-63.25355195,-176.69999682,41.06935190,2.71783171,39.19145020
0.05335024,-0.89230258,1.83693286

>  <Name>
ligand

>  <RI>
0

>  <Rbt.Current_Directory>
/home/itssahil/PROJECTS/Mol_Feturizer/New_Systems/rnas/4E8N

>  <Rbt.Executable>
rbdock ($Id: //depot/dev/client3/rdock/2013.1/src/exe/rbdock.cxx#4 $)

>  <Rbt.Library>
libRbt.so (2013.1, Build901 2013/11/27)

>  <Rbt.Parameter_File>
/export/apps/rDock/src/rDock_2013.1_src/data/scripts/dock_solv.prm

>  <Rbt.Receptor>
prm/blind_docking_60.prm

>  <SCORE>
-13.0847

>  <SCORE.INTER>
-9.31253

>  <SCORE.INTER.CONST>
1

>  <SCORE.INTER.POLAR>
0

>  <SCORE.INTER.ROT>
3

>  <SCORE.INTER.SOLV>
6.81951

>  <SCORE.INTER.VDW>
-14.0815

>  <SCORE.INTER.norm>
-0.776044

>  <SCORE.INTRA>
-3.77217

>  <SCORE.INTRA.DIHEDRAL>
-4.04513

>  <SCORE.INTRA.DIHEDRAL.0>
5.0186

>  <SCORE.INTRA.POLAR>
0

>  <SCORE.INTRA.POLAR.0>
0

>  <SCORE.INTRA.REPUL>
0

>  <SCORE.INTRA.REPUL.0>
0

>  <SCORE.INTRA.SOLV>
0.951233

>  <SCORE.INTRA.SOLV.lig_0>
-16.1608

>  <SCORE.INTRA.VDW>
-2.22522

>  <SCORE.INTRA.VDW.0>
1.14169

>  <SCORE.INTRA.norm>
-0.314347

>  <SCORE.RESTR>
0

>  <SCORE.RESTR.CAVITY>
0

>  <SCORE.RESTR.norm>
0

>  <SCORE.SYSTEM>
0

>  <SCORE.SYSTEM.CONST>
0

>  <SCORE.SYSTEM.DIHEDRAL>
0

>  <SCORE.SYSTEM.SOLV>
0

>  <SCORE.SYSTEM.norm>
0

>  <SCORE.heavy>
12

>  <SCORE.norm>
-1.09039

>  <RMSD>
42.167

$$$$
ligand
 OpenBabel11021811493D
libRbt.so/2013.1/901 2013/11/27
 12 12  0  0  0  0  0  0  0  0999 V2000
   -0.0344    7.4751   10.5339 N   0  0  0  0  0  0  0  0  0  0  0  0
   -1.2275    4.8652   11.5583 O   0  0  0  0  0  0  0  0  0  0  0  0
    1.2432    8.2290   10.5138 C   0  0  0  0  0  0  0  0  0  0  0  0
   -3.5682    4.8869   11.8618 O   0  0  0  0  0  0  0  0  0  0  0  0
    2.0876    7.7128    9.3534 C   0  0  0  0  0  0  0  0  0  0  0  0
   -2.6485    5.1855    9.6036 O   0  0  0  0  0  0  0  0  0  0  0  0
    1.4115    8.0060    8.0861 N   0  0  0  0  0  0  0  0  0  0  0  0
    0.1301    8.6466    8.3924 C   0  0  0  0  0  0  0  0  0  0  0  0
   -0.6728    7.6534    9.2150 C   0  0  0  0  0  0  0  0  0  0  0  0
   -0.9921    7.8279   11.6562 C   0  0  0  0  0  0  0  0  0  0  0  0
   -2.3759    7.1276   11.6347 C   0  0  0  0  0  0  0  0  0  0  0  0
   -2.4565    5.4991   11.1819 S   0  0  0  0  0  0  0  0  0  0  0  0
  1  3  1  0  0  0  0
  1  9  1  0  0  0  0
  1 10  1  0  0  0  0
  2 12  1  0  0  0  0
  3  5  1  0  0  0  0
  4 12  2  0  0  0  0
  5  7  1  0  0  0  0
  6 12  2  0  0  0  0
  7  8  1  0  0  0  0
  8  9  1  0  0  0  0
 10 11  1  0  0  0  0
 11 12  1  0  0  0  0
M  END
>  <CHROM.1>
175.61011278,39.24743376,30.09608202,-0.97123503,6.73225235,10.40408019,-0.34779862
0.68578767,1.42366302

>  <Name>
ligand

>  <RI>
0

>  <Rbt.Current_Directory>
/home/itssahil/PROJECTS/Mol_Feturizer/New_Systems/rnas/4E8N

>  <Rbt.Executable>
rbdock ($Id: //depot/dev/client3/rdock/2013.1/src/exe/rbdock.cxx#4 $)

>  <Rbt.Library>
libRbt.so (2013.1, Build901 2013/11/27)

>  <Rbt.Parameter_File>
/export/apps/rDock/src/rDock_2013.1_src/data/scripts/dock_solv.prm

>  <Rbt.Receptor>
prm/blind_docking_20.prm

>  <SCORE>
-10.2492

>  <SCORE.INTER>
-8.02509

>  <SCORE.INTER.CONST>
1

>  <SCORE.INTER.POLAR>
0

>  <SCORE.INTER.ROT>
3

>  <SCORE.INTER.SOLV>
7.16433

>  <SCORE.INTER.VDW>
-13.3382

>  <SCORE.INTER.norm>
-0.668757

>  <SCORE.INTRA>
-2.22413

>  <SCORE.INTRA.DIHEDRAL>
-1.71808

>  <SCORE.INTRA.DIHEDRAL.0>
5.0186

>  <SCORE.INTRA.POLAR>
0

>  <SCORE.INTRA.POLAR.0>
0

>  <SCORE.INTRA.REPUL>
0

>  <SCORE.INTRA.REPUL.0>
0

>  <SCORE.INTRA.SOLV>
0.375036

>  <SCORE.INTRA.SOLV.lig_0>
-16.1608

>  <SCORE.INTRA.VDW>
-1.5526

>  <SCORE.INTRA.VDW.0>
1.14169

>  <SCORE.INTRA.norm>
-0.185344

>  <SCORE.RESTR>
0

>  <SCORE.RESTR.CAVITY>
0

>  <SCORE.RESTR.norm>
0

>  <SCORE.SYSTEM>
0

>  <SCORE.SYSTEM.CONST>
0

>  <SCORE.SYSTEM.DIHEDRAL>
0

>  <SCORE.SYSTEM.SOLV>
0

>  <SCORE.SYSTEM.norm>
0

>  <SCORE.heavy>
12

>  <SCORE.norm>
-0.854101

>  <RMSD>
42.374

$$$$
ligand
 OpenBabel11021811493D
libRbt.so/2013.1/901 2013/11/27
 12 12  0  0  0  0  0  0  0  0999 V2000
    0.5299    7.6257   10.7149 N   0  0  0  0  0  0  0  0  0  0  0  0
   -0.7417    6.6467   15.5110 O   0  0  0  0  0  0  0  0  0  0  0  0
    1.6912    8.5041   10.4306 C   0  0  0  0  0  0  0  0  0  0  0  0
   -0.9766    8.9651   15.1348 O   0  0  0  0  0  0  0  0  0  0  0  0
    2.4797    7.8989    9.2738 C   0  0  0  0  0  0  0  0  0  0  0  0
   -2.6170    7.4190   14.1584 O   0  0  0  0  0  0  0  0  0  0  0  0
    1.6524    7.8981    8.0635 N   0  0  0  0  0  0  0  0  0  0  0  0
    0.3344    8.4331    8.4137 C   0  0  0  0  0  0  0  0  0  0  0  0
   -0.2502    7.5079    9.4674 C   0  0  0  0  0  0  0  0  0  0  0  0
   -0.3528    8.0518   11.8727 C   0  0  0  0  0  0  0  0  0  0  0  0
    0.0636    7.5575   13.2827 C   0  0  0  0  0  0  0  0  0  0  0  0
   -1.0607    7.6549   14.5436 S   0  0  0  0  0  0  0  0  0  0  0  0
  1  3  1  0  0  0  0
  1  9  1  0  0  0  0
  1 10  1  0  0  0  0
  2 12  1  0  0  0  0
  3  5  1  0  0  0  0
  4 12  2  0  0  0  0
  5  7  1  0  0  0  0
  6 12  2  0  0  0  0
  7  8  1  0  0  0  0
  8  9  1  0  0  0  0
 10 11  1  0  0  0  0
 11 12  1  0  0  0  0
M  END
>  <CHROM.1>
-86.98596869,-164.69298427,153.71575973,-0.08934339,7.82367395,12.10090255
-1.16549138,0.10178874,1.59322800

>  <Name>
ligand

>  <RI>
0

>  <Rbt.Current_Directory>
/home/itssahil/PROJECTS/Mol_Feturizer/New_Systems/rnas/4E8N

>  <Rbt.Executable>
rbdock ($Id: //depot/dev/client3/rdock/2013.1/src/exe/rbdock.cxx#4 $)

>  <Rbt.Library>
libRbt.so (2013.1, Build901 2013/11/27)

>  <Rbt.Parameter_File>
/export/apps/rDock/src/rDock_2013.1_src/data/scripts/dock_solv.prm

>  <Rbt.Receptor>
prm/blind_docking_20.prm

>  <SCORE>
-9.05017

>  <SCORE.INTER>
-6.44689

>  <SCORE.INTER.CONST>
1

>  <SCORE.INTER.POLAR>
0

>  <SCORE.INTER.ROT>
3

>  <SCORE.INTER.SOLV>
5.60498

>  <SCORE.INTER.VDW>
-11.7663

>  <SCORE.INTER.norm>
-0.537241

>  <SCORE.INTRA>
-2.60328

>  <SCORE.INTRA.DIHEDRAL>
-1.64933

>  <SCORE.INTRA.DIHEDRAL.0>
5.0186

>  <SCORE.INTRA.POLAR>
0

>  <SCORE.INTRA.POLAR.0>
0

>  <SCORE.INTRA.REPUL>
0

>  <SCORE.INTRA.REPUL.0>
0

>  <SCORE.INTRA.SOLV>
0.0620356

>  <SCORE.INTRA.SOLV.lig_0>
-16.1608

>  <SCORE.INTRA.VDW>
-1.80963

>  <SCORE.INTRA.VDW.0>
1.14169

>  <SCORE.INTRA.norm>
-0.21694

>  <SCORE.RESTR>
0

>  <SCORE.RESTR.CAVITY>
0

>  <SCORE.RESTR.norm>
0

>  <SCORE.SYSTEM>
0

>  <SCORE.SYSTEM.CONST>
0

>  <SCORE.SYSTEM.DIHEDRAL>
0

>  <SCORE.SYSTEM.SOLV>
0

>  <SCORE.SYSTEM.norm>
0

>  <SCORE.heavy>
12

>  <SCORE.norm>
-0.754181

>  <RMSD>
42.478

$$$$
ligand
 OpenBabel11021811493D
libRbt.so/2013.1/901 2013/11/27
 12 12  0  0  0  0  0  0  0  0999 V2000
    0.3170    8.2860   11.1279 N   0  0  0  0  0  0  0  0  0  0  0  0
   -2.4264    7.4440   15.3933 O   0  0  0  0  0  0  0  0  0  0  0  0
   -0.2437    7.2688   10.2050 C   0  0  0  0  0  0  0  0  0  0  0  0
   -0.4004    6.2389   15.2708 O   0  0  0  0  0  0  0  0  0  0  0  0
   -0.2339    7.8441    8.7925 C   0  0  0  0  0  0  0  0  0  0  0  0
   -0.3469    8.6163   15.8871 O   0  0  0  0  0  0  0  0  0  0  0  0
    1.1497    8.0748    8.3663 N   0  0  0  0  0  0  0  0  0  0  0  0
    2.0333    7.7186    9.4792 C   0  0  0  0  0  0  0  0  0  0  0  0
    1.6675    8.6280   10.6399 C   0  0  0  0  0  0  0  0  0  0  0  0
    0.3478    7.9013   12.5950 C   0  0  0  0  0  0  0  0  0  0  0  0
   -1.0245    7.7233   13.2957 C   0  0  0  0  0  0  0  0  0  0  0  0
   -1.0576    7.4844   14.9706 S   0  0  0  0  0  0  0  0  0  0  0  0
  1  3  1  0  0  0  0
  1  9  1  0  0  0  0
  1 10  1  0  0  0  0
  2 12  1  0  0  0  0
  3  5  1  0  0  0  0
  4 12  2  0  0  0  0
  5  7  1  0  0  0  0
  6 12  2  0  0  0  0
  7  8  1  0  0  0  0
  8  9  1  0  0  0  0
 10 11  1  0  0  0  0
 11 12  1  0  0  0  0
M  END
>  <CHROM.1>
-66.01854176,-172.51181948,175.91770554,-0.14784172,7.73191101,12.53505311
-1.21931271,0.33123826,1.53153436

>  <Name>
ligand

>  <RI>
0

>  <Rbt.Current_Directory>
/home/itssahil/PROJECTS/Mol_Feturizer/New_Systems/rnas/4E8N

>  <Rbt.Executable>
rbdock ($Id: //depot/dev/client3/rdock/2013.1/src/exe/rbdock.cxx#4 $)

>  <Rbt.Library>
libRbt.so (2013.1, Build901 2013/11/27)

>  <Rbt.Parameter_File>
/export/apps/rDock/src/rDock_2013.1_src/data/scripts/dock_solv.prm

>  <Rbt.Receptor>
prm/blind_docking_20.prm

>  <SCORE>
-11.1028

>  <SCORE.INTER>
-7.21226

>  <SCORE.INTER.CONST>
1

>  <SCORE.INTER.POLAR>
0

>  <SCORE.INTER.ROT>
3

>  <SCORE.INTER.SOLV>
7.29149

>  <SCORE.INTER.VDW>
-12.8387

>  <SCORE.INTER.norm>
-0.601022

>  <SCORE.INTRA>
-3.8905

>  <SCORE.INTRA.DIHEDRAL>
-4.67969

>  <SCORE.INTRA.DIHEDRAL.0>
5.0186

>  <SCORE.INTRA.POLAR>
0

>  <SCORE.INTRA.POLAR.0>
0

>  <SCORE.INTRA.REPUL>
0

>  <SCORE.INTRA.REPUL.0>
0

>  <SCORE.INTRA.SOLV>
0.0720106

>  <SCORE.INTRA.SOLV.lig_0>
-16.1608

>  <SCORE.INTRA.VDW>
-1.58666

>  <SCORE.INTRA.VDW.0>
1.14169

>  <SCORE.INTRA.norm>
-0.324208

>  <SCORE.RESTR>
0

>  <SCORE.RESTR.CAVITY>
0

>  <SCORE.RESTR.norm>
0

>  <SCORE.SYSTEM>
0

>  <SCORE.SYSTEM.CONST>
0

>  <SCORE.SYSTEM.DIHEDRAL>
0

>  <SCORE.SYSTEM.SOLV>
0

>  <SCORE.SYSTEM.norm>
0

>  <SCORE.heavy>
12

>  <SCORE.norm>
-0.92523

>  <RMSD>
42.548

$$$$
ligand
 OpenBabel11021811493D
libRbt.so/2013.1/901 2013/11/27
 12 12  0  0  0  0  0  0  0  0999 V2000
   -0.3304    7.6787   13.0894 N   0  0  0  0  0  0  0  0  0  0  0  0
    1.9538    7.4639    9.0254 O   0  0  0  0  0  0  0  0  0  0  0  0
   -1.1235    7.4342   14.3191 C   0  0  0  0  0  0  0  0  0  0  0  0
    0.0050    8.7492    9.3750 O   0  0  0  0  0  0  0  0  0  0  0  0
   -0.5108    8.2462   15.4555 C   0  0  0  0  0  0  0  0  0  0  0  0
    1.8906    8.9811   10.9324 O   0  0  0  0  0  0  0  0  0  0  0  0
   -0.6341    9.6764   15.1585 N   0  0  0  0  0  0  0  0  0  0  0  0
   -1.2578    9.8146   13.8401 C   0  0  0  0  0  0  0  0  0  0  0  0
   -0.3351    9.1342   12.8434 C   0  0  0  0  0  0  0  0  0  0  0  0
   -0.7724    6.9151   11.8554 C   0  0  0  0  0  0  0  0  0  0  0  0
    0.3120    6.6452   10.7797 C   0  0  0  0  0  0  0  0  0  0  0  0
    1.0349    7.9644   10.0048 S   0  0  0  0  0  0  0  0  0  0  0  0
  1  3  1  0  0  0  0
  1  9  1  0  0  0  0
  1 10  1  0  0  0  0
  2 12  1  0  0  0  0
  3  5  1  0  0  0  0
  4 12  2  0  0  0  0
  5  7  1  0  0  0  0
  6 12  2  0  0  0  0
  7  8  1  0  0  0  0
  8  9  1  0  0  0  0
 10 11  1  0  0  0  0
 11 12  1  0  0  0  0
M  END
>  <CHROM.1>
-154.23744428,-62.68352050,-177.66684106,0.15364184,8.20601418,11.93942731
2.50283047,1.09223262,0.53041431

>  <Name>
ligand

>  <RI>
0

>  <Rbt.Current_Directory>
/home/itssahil/PROJECTS/Mol_Feturizer/New_Systems/rnas/4E8N

>  <Rbt.Executable>
rbdock ($Id: //depot/dev/client3/rdock/2013.1/src/exe/rbdock.cxx#4 $)

>  <Rbt.Library>
libRbt.so (2013.1, Build901 2013/11/27)

>  <Rbt.Parameter_File>
/export/apps/rDock/src/rDock_2013.1_src/data/scripts/dock_solv.prm

>  <Rbt.Receptor>
prm/blind_docking_20.prm

>  <SCORE>
-9.78559

>  <SCORE.INTER>
-6.04617

>  <SCORE.INTER.CONST>
1

>  <SCORE.INTER.POLAR>
0

>  <SCORE.INTER.ROT>
3

>  <SCORE.INTER.SOLV>
4.3816

>  <SCORE.INTER.VDW>
-11.0913

>  <SCORE.INTER.norm>
-0.503847

>  <SCORE.INTRA>
-3.73942

>  <SCORE.INTRA.DIHEDRAL>
-4.12455

>  <SCORE.INTRA.DIHEDRAL.0>
5.0186

>  <SCORE.INTRA.POLAR>
0

>  <SCORE.INTRA.POLAR.0>
0

>  <SCORE.INTRA.REPUL>
0

>  <SCORE.INTRA.REPUL.0>
0

>  <SCORE.INTRA.SOLV>
0.966041

>  <SCORE.INTRA.SOLV.lig_0>
-16.1608

>  <SCORE.INTRA.VDW>
-2.16017

>  <SCORE.INTRA.VDW.0>
1.14169

>  <SCORE.INTRA.norm>
-0.311618

>  <SCORE.RESTR>
0

>  <SCORE.RESTR.CAVITY>
0

>  <SCORE.RESTR.norm>
0

>  <SCORE.SYSTEM>
0

>  <SCORE.SYSTEM.CONST>
0

>  <SCORE.SYSTEM.DIHEDRAL>
0

>  <SCORE.SYSTEM.SOLV>
0

>  <SCORE.SYSTEM.norm>
0

>  <SCORE.heavy>
12

>  <SCORE.norm>
-0.815466

>  <RMSD>
43.074

$$$$
ligand
 OpenBabel11021811493D
libRbt.so/2013.1/901 2013/11/27
 12 12  0  0  0  0  0  0  0  0999 V2000
   -1.1155    7.7722   12.6876 N   0  0  0  0  0  0  0  0  0  0  0  0
    1.1319    6.9702    9.8221 O   0  0  0  0  0  0  0  0  0  0  0  0
    0.1265    8.5834   12.6802 C   0  0  0  0  0  0  0  0  0  0  0  0
   -0.4897    6.9696    8.1069 O   0  0  0  0  0  0  0  0  0  0  0  0
   -0.1642    9.9136   13.3673 C   0  0  0  0  0  0  0  0  0  0  0  0
   -0.3179    8.9168    9.5948 O   0  0  0  0  0  0  0  0  0  0  0  0
   -0.4977    9.6762   14.7750 N   0  0  0  0  0  0  0  0  0  0  0  0
   -0.4858    8.2298   15.0070 C   0  0  0  0  0  0  0  0  0  0  0  0
   -1.5408    7.6290   14.0939 C   0  0  0  0  0  0  0  0  0  0  0  0
   -1.0261    6.4209   12.0040 C   0  0  0  0  0  0  0  0  0  0  0  0
   -1.2556    6.4016   10.4701 C   0  0  0  0  0  0  0  0  0  0  0  0
   -0.2197    7.3031    9.4813 S   0  0  0  0  0  0  0  0  0  0  0  0
  1  3  1  0  0  0  0
  1  9  1  0  0  0  0
  1 10  1  0  0  0  0
  2 12  1  0  0  0  0
  3  5  1  0  0  0  0
  4 12  2  0  0  0  0
  5  7  1  0  0  0  0
  6 12  2  0  0  0  0
  7  8  1  0  0  0  0
  8  9  1  0  0  0  0
 10 11  1  0  0  0  0
 11 12  1  0  0  0  0
M  END
>  <CHROM.1>
-85.05462646,60.12113694,51.07546255,-0.44430992,7.83418341,11.53702282,1.76227397
1.11296862,1.10290910

>  <Name>
ligand

>  <RI>
0

>  <Rbt.Current_Directory>
/home/itssahil/PROJECTS/Mol_Feturizer/New_Systems/rnas/4E8N

>  <Rbt.Executable>
rbdock ($Id: //depot/dev/client3/rdock/2013.1/src/exe/rbdock.cxx#4 $)

>  <Rbt.Library>
libRbt.so (2013.1, Build901 2013/11/27)

>  <Rbt.Parameter_File>
/export/apps/rDock/src/rDock_2013.1_src/data/scripts/dock_solv.prm

>  <Rbt.Receptor>
prm/blind_docking_20.prm

>  <SCORE>
-8.9886

>  <SCORE.INTER>
-4.77336

>  <SCORE.INTER.CONST>
1

>  <SCORE.INTER.POLAR>
0

>  <SCORE.INTER.ROT>
3

>  <SCORE.INTER.SOLV>
2.82778

>  <SCORE.INTER.VDW>
-9.72484

>  <SCORE.INTER.norm>
-0.39778

>  <SCORE.INTRA>
-4.21524

>  <SCORE.INTRA.DIHEDRAL>
-3.85509

>  <SCORE.INTRA.DIHEDRAL.0>
5.0186

>  <SCORE.INTRA.POLAR>
0

>  <SCORE.INTRA.POLAR.0>
0

>  <SCORE.INTRA.REPUL>
0

>  <SCORE.INTRA.REPUL.0>
0

>  <SCORE.INTRA.SOLV>
0.48354

>  <SCORE.INTRA.SOLV.lig_0>
-16.1608

>  <SCORE.INTRA.VDW>
-2.52946

>  <SCORE.INTRA.VDW.0>
1.14169

>  <SCORE.INTRA.norm>
-0.35127

>  <SCORE.RESTR>
0

>  <SCORE.RESTR.CAVITY>
0

>  <SCORE.RESTR.norm>
0

>  <SCORE.SYSTEM>
0

>  <SCORE.SYSTEM.CONST>
0

>  <SCORE.SYSTEM.DIHEDRAL>
0

>  <SCORE.SYSTEM.SOLV>
0

>  <SCORE.SYSTEM.norm>
0

>  <SCORE.heavy>
12

>  <SCORE.norm>
-0.74905

>  <RMSD>
43.169

$$$$
ligand
 OpenBabel11021811493D
libRbt.so/2013.1/901 2013/11/27
 12 12  0  0  0  0  0  0  0  0999 V2000
   -0.6538    7.7665   12.2383 N   0  0  0  0  0  0  0  0  0  0  0  0
   -1.0892   10.8506   12.5023 O   0  0  0  0  0  0  0  0  0  0  0  0
   -0.9183    6.3479   11.8943 C   0  0  0  0  0  0  0  0  0  0  0  0
   -0.4806   11.8088   14.5719 O   0  0  0  0  0  0  0  0  0  0  0  0
   -1.6769    6.3075   10.5718 C   0  0  0  0  0  0  0  0  0  0  0  0
    1.2805   11.1439   12.9936 O   0  0  0  0  0  0  0  0  0  0  0  0
   -0.8287    6.8435    9.5030 N   0  0  0  0  0  0  0  0  0  0  0  0
    0.4348    7.2806   10.1018 C   0  0  0  0  0  0  0  0  0  0  0  0
    0.0920    8.3621   11.1122 C   0  0  0  0  0  0  0  0  0  0  0  0
    0.0624    8.0048   13.5542 C   0  0  0  0  0  0  0  0  0  0  0  0
   -0.3452    9.2740   14.3473 C   0  0  0  0  0  0  0  0  0  0  0  0
   -0.1767   10.7856   13.6055 S   0  0  0  0  0  0  0  0  0  0  0  0
  1  3  1  0  0  0  0
  1  9  1  0  0  0  0
  1 10  1  0  0  0  0
  2 12  1  0  0  0  0
  3  5  1  0  0  0  0
  4 12  2  0  0  0  0
  5  7  1  0  0  0  0
  6 12  2  0  0  0  0
  7  8  1  0  0  0  0
  8  9  1  0  0  0  0
 10 11  1  0  0  0  0
 11 12  1  0  0  0  0
M  END
>  <CHROM.1>
-144.98020799,-58.61488153,65.86220523,-0.33312013,9.00241504,12.41121958
1.90742517,-1.21458596,-2.17941404

>  <Name>
ligand

>  <RI>
0

>  <Rbt.Current_Directory>
/home/itssahil/PROJECTS/Mol_Feturizer/New_Systems/rnas/4E8N

>  <Rbt.Executable>
rbdock ($Id: //depot/dev/client3/rdock/2013.1/src/exe/rbdock.cxx#4 $)

>  <Rbt.Library>
libRbt.so (2013.1, Build901 2013/11/27)

>  <Rbt.Parameter_File>
/export/apps/rDock/src/rDock_2013.1_src/data/scripts/dock_solv.prm

>  <Rbt.Receptor>
prm/blind_docking_20.prm

>  <SCORE>
-9.38444

>  <SCORE.INTER>
-5.25478

>  <SCORE.INTER.CONST>
1

>  <SCORE.INTER.POLAR>
0

>  <SCORE.INTER.ROT>
3

>  <SCORE.INTER.SOLV>
3.62128

>  <SCORE.INTER.VDW>
-10.3103

>  <SCORE.INTER.norm>
-0.437898

>  <SCORE.INTRA>
-4.12966

>  <SCORE.INTRA.DIHEDRAL>
-3.49593

>  <SCORE.INTRA.DIHEDRAL.0>
5.0186

>  <SCORE.INTRA.POLAR>
0

>  <SCORE.INTRA.POLAR.0>
0

>  <SCORE.INTRA.REPUL>
0

>  <SCORE.INTRA.REPUL.0>
0

>  <SCORE.INTRA.SOLV>
0.217098

>  <SCORE.INTRA.SOLV.lig_0>
-16.1608

>  <SCORE.INTRA.VDW>
-2.49024

>  <SCORE.INTRA.VDW.0>
1.14169

>  <SCORE.INTRA.norm>
-0.344138

>  <SCORE.RESTR>
0

>  <SCORE.RESTR.CAVITY>
0

>  <SCORE.RESTR.norm>
0

>  <SCORE.SYSTEM>
0

>  <SCORE.SYSTEM.CONST>
0

>  <SCORE.SYSTEM.DIHEDRAL>
0

>  <SCORE.SYSTEM.SOLV>
0

>  <SCORE.SYSTEM.norm>
0

>  <SCORE.heavy>
12

>  <SCORE.norm>
-0.782036

>  <RMSD>
43.443

$$$$
ligand
 OpenBabel11021811493D
libRbt.so/2013.1/901 2013/11/27
 12 12  0  0  0  0  0  0  0  0999 V2000
   -0.6853    7.7895   12.2207 N   0  0  0  0  0  0  0  0  0  0  0  0
    1.0841   10.9608   12.8616 O   0  0  0  0  0  0  0  0  0  0  0  0
   -0.9301    6.3588   11.9137 C   0  0  0  0  0  0  0  0  0  0  0  0
   -1.2408   10.8792   12.4620 O   0  0  0  0  0  0  0  0  0  0  0  0
   -1.7533    6.2764   10.6324 C   0  0  0  0  0  0  0  0  0  0  0  0
   -0.3962   12.1765   14.3694 O   0  0  0  0  0  0  0  0  0  0  0  0
   -0.9742    6.8146    9.5133 N   0  0  0  0  0  0  0  0  0  0  0  0
    0.3063    7.2935   10.0398 C   0  0  0  0  0  0  0  0  0  0  0  0
   -0.0128    8.3836   11.0486 C   0  0  0  0  0  0  0  0  0  0  0  0
    0.0900    8.0685   13.4944 C   0  0  0  0  0  0  0  0  0  0  0  0
   -0.2891    9.3569   14.2705 C   0  0  0  0  0  0  0  0  0  0  0  0
   -0.2098   10.8437   13.4665 S   0  0  0  0  0  0  0  0  0  0  0  0
  1  3  1  0  0  0  0
  1  9  1  0  0  0  0
  1 10  1  0  0  0  0
  2 12  1  0  0  0  0
  3  5  1  0  0  0  0
  4 12  2  0  0  0  0
  5  7  1  0  0  0  0
  6 12  2  0  0  0  0
  7  8  1  0  0  0  0
  8  9  1  0  0  0  0
 10 11  1  0  0  0  0
 11 12  1  0  0  0  0
M  END
>  <CHROM.1>
-146.24054276,-56.84778531,-51.76165067,-0.39084242,9.04114409,12.34301978
2.18685493,-1.36112725,-1.92459607

>  <Name>
ligand

>  <RI>
0

>  <Rbt.Current_Directory>
/home/itssahil/PROJECTS/Mol_Feturizer/New_Systems/rnas/4E8N

>  <Rbt.Executable>
rbdock ($Id: //depot/dev/client3/rdock/2013.1/src/exe/rbdock.cxx#4 $)

>  <Rbt.Library>
libRbt.so (2013.1, Build901 2013/11/27)

>  <Rbt.Parameter_File>
/export/apps/rDock/src/rDock_2013.1_src/data/scripts/dock_solv.prm

>  <Rbt.Receptor>
prm/blind_docking_20.prm

>  <SCORE>
-9.44517

>  <SCORE.INTER>
-5.46549

>  <SCORE.INTER.CONST>
1

>  <SCORE.INTER.POLAR>
0

>  <SCORE.INTER.ROT>
3

>  <SCORE.INTER.SOLV>
3.33117

>  <SCORE.INTER.VDW>
-10.354

>  <SCORE.INTER.norm>
-0.455457

>  <SCORE.INTRA>
-3.97968

>  <SCORE.INTRA.DIHEDRAL>
-3.46015

>  <SCORE.INTRA.DIHEDRAL.0>
5.0186

>  <SCORE.INTRA.POLAR>
0

>  <SCORE.INTRA.POLAR.0>
0

>  <SCORE.INTRA.REPUL>
0

>  <SCORE.INTRA.REPUL.0>
0

>  <SCORE.INTRA.SOLV>
0.436379

>  <SCORE.INTRA.SOLV.lig_0>
-16.1608

>  <SCORE.INTRA.VDW>
-2.46779

>  <SCORE.INTRA.VDW.0>
1.14169

>  <SCORE.INTRA.norm>
-0.33164

>  <SCORE.RESTR>
0

>  <SCORE.RESTR.CAVITY>
0

>  <SCORE.RESTR.norm>
0

>  <SCORE.SYSTEM>
0

>  <SCORE.SYSTEM.CONST>
0

>  <SCORE.SYSTEM.DIHEDRAL>
0

>  <SCORE.SYSTEM.SOLV>
0

>  <SCORE.SYSTEM.norm>
0

>  <SCORE.heavy>
12

>  <SCORE.norm>
-0.787097

>  <RMSD>
43.494

$$$$
ligand
 OpenBabel11021811493D
libRbt.so/2013.1/901 2013/11/27
 12 12  0  0  0  0  0  0  0  0999 V2000
   -0.6197    8.4184   12.2944 N   0  0  0  0  0  0  0  0  0  0  0  0
    0.2943   12.8286   12.6379 O   0  0  0  0  0  0  0  0  0  0  0  0
   -0.8935    6.9649   12.4092 C   0  0  0  0  0  0  0  0  0  0  0  0
    1.6264   12.0870   14.4399 O   0  0  0  0  0  0  0  0  0  0  0  0
   -1.5119    6.4874   11.0994 C   0  0  0  0  0  0  0  0  0  0  0  0
    2.0221   11.1664   12.1970 O   0  0  0  0  0  0  0  0  0  0  0  0
   -0.5405    6.6432   10.0126 N   0  0  0  0  0  0  0  0  0  0  0  0
    0.6679    7.2578   10.5680 C   0  0  0  0  0  0  0  0  0  0  0  0
    0.2578    8.6111   11.1232 C   0  0  0  0  0  0  0  0  0  0  0  0
   -0.0364    9.0803   13.5284 C   0  0  0  0  0  0  0  0  0  0  0  0
   -0.3034   10.5992   13.6942 C   0  0  0  0  0  0  0  0  0  0  0  0
    0.9117   11.6915   13.2541 S   0  0  0  0  0  0  0  0  0  0  0  0
  1  3  1  0  0  0  0
  1  9  1  0  0  0  0
  1 10  1  0  0  0  0
  2 12  1  0  0  0  0
  3  5  1  0  0  0  0
  4 12  2  0  0  0  0
  5  7  1  0  0  0  0
  6 12  2  0  0  0  0
  7  8  1  0  0  0  0
  8  9  1  0  0  0  0
 10 11  1  0  0  0  0
 11 12  1  0  0  0  0
M  END
>  <CHROM.1>
-154.15537815,-99.61031607,141.77916362,0.26292714,9.62588485,12.38918017
2.03106641,-0.87515674,-2.34099472

>  <Name>
ligand

>  <RI>
0

>  <Rbt.Current_Directory>
/home/itssahil/PROJECTS/Mol_Feturizer/New_Systems/rnas/4E8N

>  <Rbt.Executable>
rbdock ($Id: //depot/dev/client3/rdock/2013.1/src/exe/rbdock.cxx#4 $)

>  <Rbt.Library>
libRbt.so (2013.1, Build901 2013/11/27)

>  <Rbt.Parameter_File>
/export/apps/rDock/src/rDock_2013.1_src/data/scripts/dock_solv.prm

>  <Rbt.Receptor>
prm/blind_docking_20.prm

>  <SCORE>
-8.155

>  <SCORE.INTER>
-7.4204

>  <SCORE.INTER.CONST>
1

>  <SCORE.INTER.POLAR>
0

>  <SCORE.INTER.ROT>
3

>  <SCORE.INTER.SOLV>
4.93222

>  <SCORE.INTER.VDW>
-12.191

>  <SCORE.INTER.norm>
-0.618366

>  <SCORE.INTRA>
-0.734603

>  <SCORE.INTRA.DIHEDRAL>
2.45631

>  <SCORE.INTRA.DIHEDRAL.0>
5.0186

>  <SCORE.INTRA.POLAR>
0

>  <SCORE.INTRA.POLAR.0>
0

>  <SCORE.INTRA.REPUL>
0

>  <SCORE.INTRA.REPUL.0>
0

>  <SCORE.INTRA.SOLV>
0.451434

>  <SCORE.INTRA.SOLV.lig_0>
-16.1608

>  <SCORE.INTRA.VDW>
-2.18848

>  <SCORE.INTRA.VDW.0>
1.14169

>  <SCORE.INTRA.norm>
-0.0612169

>  <SCORE.RESTR>
0

>  <SCORE.RESTR.CAVITY>
0

>  <SCORE.RESTR.norm>
0

>  <SCORE.SYSTEM>
0

>  <SCORE.SYSTEM.CONST>
0

>  <SCORE.SYSTEM.DIHEDRAL>
0

>  <SCORE.SYSTEM.SOLV>
0

>  <SCORE.SYSTEM.norm>
0

>  <SCORE.heavy>
12

>  <SCORE.norm>
-0.679583

>  <RMSD>
43.505

$$$$
ligand
 OpenBabel11021811493D
libRbt.so/2013.1/901 2013/11/27
 12 12  0  0  0  0  0  0  0  0999 V2000
   28.6444   -7.7929   47.5303 N   0  0  0  0  0  0  0  0  0  0  0  0
   25.7853   -8.6755   43.9639 O   0  0  0  0  0  0  0  0  0  0  0  0
   29.9218   -8.5380   47.6486 C   0  0  0  0  0  0  0  0  0  0  0  0
   24.5555   -7.8440   45.7991 O   0  0  0  0  0  0  0  0  0  0  0  0
   30.7498   -7.8991   48.7587 C   0  0  0  0  0  0  0  0  0  0  0  0
   24.9257   -6.3973   43.8486 O   0  0  0  0  0  0  0  0  0  0  0  0
   30.0562   -8.0564   50.0406 N   0  0  0  0  0  0  0  0  0  0  0  0
   28.7794   -8.7284   49.7869 C   0  0  0  0  0  0  0  0  0  0  0  0
   27.9877   -7.8302   48.8518 C   0  0  0  0  0  0  0  0  0  0  0  0
   27.7026   -8.2654   46.4391 C   0  0  0  0  0  0  0  0  0  0  0  0
   27.0033   -7.1642   45.5997 C   0  0  0  0  0  0  0  0  0  0  0  0
   25.5556   -7.5408   44.8087 S   0  0  0  0  0  0  0  0  0  0  0  0
  1  3  1  0  0  0  0
  1  9  1  0  0  0  0
  1 10  1  0  0  0  0
  2 12  1  0  0  0  0
  3  5  1  0  0  0  0
  4 12  2  0  0  0  0
  5  7  1  0  0  0  0
  6 12  2  0  0  0  0
  7  8  1  0  0  0  0
  8  9  1  0  0  0  0
 10 11  1  0  0  0  0
 11 12  1  0  0  0  0
M  END
>  <CHROM.1>
-137.43505954,-156.96032213,-55.90435646,27.36463389,-7.85330461,46.65081716
-0.80742306,0.07377157,-1.48824150

>  <Name>
ligand

>  <RI>
0

>  <Rbt.Current_Directory>
/home/itssahil/PROJECTS/Mol_Feturizer/New_Systems/rnas/4E8N

>  <Rbt.Executable>
rbdock ($Id: //depot/dev/client3/rdock/2013.1/src/exe/rbdock.cxx#4 $)

>  <Rbt.Library>
libRbt.so (2013.1, Build901 2013/11/27)

>  <Rbt.Parameter_File>
/export/apps/rDock/src/rDock_2013.1_src/data/scripts/dock_solv.prm

>  <Rbt.Receptor>
prm/blind_docking_60.prm

>  <SCORE>
-9.68374

>  <SCORE.INTER>
-7.13373

>  <SCORE.INTER.CONST>
1

>  <SCORE.INTER.POLAR>
0

>  <SCORE.INTER.ROT>
3

>  <SCORE.INTER.SOLV>
3.872

>  <SCORE.INTER.VDW>
-11.6465

>  <SCORE.INTER.norm>
-0.594477

>  <SCORE.INTRA>
-2.55001

>  <SCORE.INTRA.DIHEDRAL>
-1.33676

>  <SCORE.INTRA.DIHEDRAL.0>
5.0186

>  <SCORE.INTRA.POLAR>
0

>  <SCORE.INTRA.POLAR.0>
0

>  <SCORE.INTRA.REPUL>
0

>  <SCORE.INTRA.REPUL.0>
0

>  <SCORE.INTRA.SOLV>
-0.111181

>  <SCORE.INTRA.SOLV.lig_0>
-16.1608

>  <SCORE.INTRA.VDW>
-1.82604

>  <SCORE.INTRA.VDW.0>
1.14169

>  <SCORE.INTRA.norm>
-0.212501

>  <SCORE.RESTR>
0

>  <SCORE.RESTR.CAVITY>
0

>  <SCORE.RESTR.norm>
0

>  <SCORE.SYSTEM>
0

>  <SCORE.SYSTEM.CONST>
0

>  <SCORE.SYSTEM.DIHEDRAL>
0

>  <SCORE.SYSTEM.SOLV>
0

>  <SCORE.SYSTEM.norm>
0

>  <SCORE.heavy>
12

>  <SCORE.norm>
-0.806978

>  <RMSD>
43.544

$$$$
ligand
 OpenBabel11021811493D
libRbt.so/2013.1/901 2013/11/27
 12 12  0  0  0  0  0  0  0  0999 V2000
   -0.2174    9.0830   11.5693 N   0  0  0  0  0  0  0  0  0  0  0  0
    1.8033   11.2818   12.4496 O   0  0  0  0  0  0  0  0  0  0  0  0
   -1.1531    8.8059   10.4520 C   0  0  0  0  0  0  0  0  0  0  0  0
    0.0354   12.5944   13.3002 O   0  0  0  0  0  0  0  0  0  0  0  0
   -0.3363    8.3905    9.2328 C   0  0  0  0  0  0  0  0  0  0  0  0
    1.9614   12.0968   14.7416 O   0  0  0  0  0  0  0  0  0  0  0  0
    0.3598    7.1314    9.5145 N   0  0  0  0  0  0  0  0  0  0  0  0
    0.0629    6.7475   10.8968 C   0  0  0  0  0  0  0  0  0  0  0  0
    0.5856    7.8633   11.7853 C   0  0  0  0  0  0  0  0  0  0  0  0
   -0.8543    9.5534   12.8632 C   0  0  0  0  0  0  0  0  0  0  0  0
    0.1027   10.1286   13.9399 C   0  0  0  0  0  0  0  0  0  0  0  0
    0.9705   11.5378   13.5875 S   0  0  0  0  0  0  0  0  0  0  0  0
  1  3  1  0  0  0  0
  1  9  1  0  0  0  0
  1 10  1  0  0  0  0
  2 12  1  0  0  0  0
  3  5  1  0  0  0  0
  4 12  2  0  0  0  0
  5  7  1  0  0  0  0
  6 12  2  0  0  0  0
  7  8  1  0  0  0  0
  8  9  1  0  0  0  0
 10 11  1  0  0  0  0
 11 12  1  0  0  0  0
M  END
>  <CHROM.1>
-167.63361558,63.48087591,-60.48321748,0.37233535,9.85676840,12.21959631
1.94345601,0.92976318,-2.73047080

>  <Name>
ligand

>  <RI>
0

>  <Rbt.Current_Directory>
/home/itssahil/PROJECTS/Mol_Feturizer/New_Systems/rnas/4E8N

>  <Rbt.Executable>
rbdock ($Id: //depot/dev/client3/rdock/2013.1/src/exe/rbdock.cxx#4 $)

>  <Rbt.Library>
libRbt.so (2013.1, Build901 2013/11/27)

>  <Rbt.Parameter_File>
/export/apps/rDock/src/rDock_2013.1_src/data/scripts/dock_solv.prm

>  <Rbt.Receptor>
prm/blind_docking_20.prm

>  <SCORE>
-9.92183

>  <SCORE.INTER>
-5.6017

>  <SCORE.INTER.CONST>
1

>  <SCORE.INTER.POLAR>
0

>  <SCORE.INTER.ROT>
3

>  <SCORE.INTER.SOLV>
5.9378

>  <SCORE.INTER.VDW>
-11.3137

>  <SCORE.INTER.norm>
-0.466809

>  <SCORE.INTRA>
-4.32013

>  <SCORE.INTRA.DIHEDRAL>
-4.77826

>  <SCORE.INTRA.DIHEDRAL.0>
5.0186

>  <SCORE.INTRA.POLAR>
0

>  <SCORE.INTRA.POLAR.0>
0

>  <SCORE.INTRA.REPUL>
0

>  <SCORE.INTRA.REPUL.0>
0

>  <SCORE.INTRA.SOLV>
0.103007

>  <SCORE.INTRA.SOLV.lig_0>
-16.1608

>  <SCORE.INTRA.VDW>
-1.9825

>  <SCORE.INTRA.VDW.0>
1.14169

>  <SCORE.INTRA.norm>
-0.360011

>  <SCORE.RESTR>
0

>  <SCORE.RESTR.CAVITY>
0

>  <SCORE.RESTR.norm>
0

>  <SCORE.SYSTEM>
0

>  <SCORE.SYSTEM.CONST>
0

>  <SCORE.SYSTEM.DIHEDRAL>
0

>  <SCORE.SYSTEM.SOLV>
0

>  <SCORE.SYSTEM.norm>
0

>  <SCORE.heavy>
12

>  <SCORE.norm>
-0.826819

>  <RMSD>
43.562

$$$$
ligand
 OpenBabel11021811493D
libRbt.so/2013.1/901 2013/11/27
 12 12  0  0  0  0  0  0  0  0999 V2000
   -0.2103    9.0291   11.4576 N   0  0  0  0  0  0  0  0  0  0  0  0
   -0.0237   12.7616   12.6445 O   0  0  0  0  0  0  0  0  0  0  0  0
   -0.8516    8.6850   10.1648 C   0  0  0  0  0  0  0  0  0  0  0  0
    1.2422   12.2056   14.5576 O   0  0  0  0  0  0  0  0  0  0  0  0
    0.1855    7.9993    9.2814 C   0  0  0  0  0  0  0  0  0  0  0  0
    1.9706   11.3891   12.3582 O   0  0  0  0  0  0  0  0  0  0  0  0
    0.5914    6.7313    9.8950 N   0  0  0  0  0  0  0  0  0  0  0  0
   -0.1095    6.6010   11.1748 C   0  0  0  0  0  0  0  0  0  0  0  0
    0.3205    7.7780   12.0337 C   0  0  0  0  0  0  0  0  0  0  0  0
   -1.0872    9.7608   12.4559 C   0  0  0  0  0  0  0  0  0  0  0  0
   -0.3635   10.4519   13.6410 C   0  0  0  0  0  0  0  0  0  0  0  0
    0.7040   11.7231   13.3124 S   0  0  0  0  0  0  0  0  0  0  0  0
  1  3  1  0  0  0  0
  1  9  1  0  0  0  0
  1 10  1  0  0  0  0
  2 12  1  0  0  0  0
  3  5  1  0  0  0  0
  4 12  2  0  0  0  0
  5  7  1  0  0  0  0
  6 12  2  0  0  0  0
  7  8  1  0  0  0  0
  8  9  1  0  0  0  0
 10 11  1  0  0  0  0
 11 12  1  0  0  0  0
M  END
>  <CHROM.1>
-164.55431186,63.85726639,59.58992931,0.27154408,9.87091995,12.08526917,1.98801760
-1.23538971,-2.14909350

>  <Name>
ligand

>  <RI>
0

>  <Rbt.Current_Directory>
/home/itssahil/PROJECTS/Mol_Feturizer/New_Systems/rnas/4E8N

>  <Rbt.Executable>
rbdock ($Id: //depot/dev/client3/rdock/2013.1/src/exe/rbdock.cxx#4 $)

>  <Rbt.Library>
libRbt.so (2013.1, Build901 2013/11/27)

>  <Rbt.Parameter_File>
/export/apps/rDock/src/rDock_2013.1_src/data/scripts/dock_solv.prm

>  <Rbt.Receptor>
prm/blind_docking_20.prm

>  <SCORE>
-10.8577

>  <SCORE.INTER>
-6.73175

>  <SCORE.INTER.CONST>
1

>  <SCORE.INTER.POLAR>
0

>  <SCORE.INTER.ROT>
3

>  <SCORE.INTER.SOLV>
6.50731

>  <SCORE.INTER.VDW>
-12.2569

>  <SCORE.INTER.norm>
-0.560979

>  <SCORE.INTRA>
-4.13775

>  <SCORE.INTRA.DIHEDRAL>
-4.65081

>  <SCORE.INTRA.DIHEDRAL.0>
5.0186

>  <SCORE.INTRA.POLAR>
0

>  <SCORE.INTRA.POLAR.0>
0

>  <SCORE.INTRA.REPUL>
0

>  <SCORE.INTRA.REPUL.0>
0

>  <SCORE.INTRA.SOLV>
0.411699

>  <SCORE.INTRA.SOLV.lig_0>
-16.1608

>  <SCORE.INTRA.VDW>
-2.01819

>  <SCORE.INTRA.VDW.0>
1.14169

>  <SCORE.INTRA.norm>
-0.344812

>  <SCORE.RESTR>
0.0118257

>  <SCORE.RESTR.CAVITY>
0.0118257

>  <SCORE.RESTR.norm>
0.000985474

>  <SCORE.SYSTEM>
0

>  <SCORE.SYSTEM.CONST>
0

>  <SCORE.SYSTEM.DIHEDRAL>
0

>  <SCORE.SYSTEM.SOLV>
0

>  <SCORE.SYSTEM.norm>
0

>  <SCORE.heavy>
12

>  <SCORE.norm>
-0.904806

>  <RMSD>
43.605

$$$$
ligand
 OpenBabel11021811493D
libRbt.so/2013.1/901 2013/11/27
 12 12  0  0  0  0  0  0  0  0999 V2000
    8.8828   10.5200   25.9355 N   0  0  0  0  0  0  0  0  0  0  0  0
    9.6970   12.1182   23.1447 O   0  0  0  0  0  0  0  0  0  0  0  0
    7.8222   11.0017   25.0168 C   0  0  0  0  0  0  0  0  0  0  0  0
   10.2564   14.0436   24.3902 O   0  0  0  0  0  0  0  0  0  0  0  0
    6.8760    9.8417   24.7247 C   0  0  0  0  0  0  0  0  0  0  0  0
   11.9331   13.0555   22.8912 O   0  0  0  0  0  0  0  0  0  0  0  0
    6.2020    9.4349   25.9614 N   0  0  0  0  0  0  0  0  0  0  0  0
    6.7231   10.2589   27.0549 C   0  0  0  0  0  0  0  0  0  0  0  0
    8.2152    9.9861   27.1389 C   0  0  0  0  0  0  0  0  0  0  0  0
    9.9467   11.5356   26.3066 C   0  0  0  0  0  0  0  0  0  0  0  0
   11.0624   11.7876   25.2589 C   0  0  0  0  0  0  0  0  0  0  0  0
   10.7157   12.7626   23.9200 S   0  0  0  0  0  0  0  0  0  0  0  0
  1  3  1  0  0  0  0
  1  9  1  0  0  0  0
  1 10  1  0  0  0  0
  2 12  1  0  0  0  0
  3  5  1  0  0  0  0
  4 12  2  0  0  0  0
  5  7  1  0  0  0  0
  6 12  2  0  0  0  0
  7  8  1  0  0  0  0
  8  9  1  0  0  0  0
 10 11  1  0  0  0  0
 11 12  1  0  0  0  0
M  END
>  <CHROM.1>
-79.12090015,77.71022555,-63.59801116,9.23566579,11.54650461,24.97878304
-2.51196023,-0.51190079,-1.28143343

>  <Name>
ligand

>  <RI>
0

>  <Rbt.Current_Directory>
/home/itssahil/PROJECTS/Mol_Feturizer/New_Systems/rnas/4E8N

>  <Rbt.Executable>
rbdock ($Id: //depot/dev/client3/rdock/2013.1/src/exe/rbdock.cxx#4 $)

>  <Rbt.Library>
libRbt.so (2013.1, Build901 2013/11/27)

>  <Rbt.Parameter_File>
/export/apps/rDock/src/rDock_2013.1_src/data/scripts/dock_solv.prm

>  <Rbt.Receptor>
prm/blind_docking_40.prm

>  <SCORE>
-13.766

>  <SCORE.INTER>
-10.127

>  <SCORE.INTER.CONST>
1

>  <SCORE.INTER.POLAR>
0

>  <SCORE.INTER.ROT>
3

>  <SCORE.INTER.SOLV>
9.99907

>  <SCORE.INTER.VDW>
-15.6843

>  <SCORE.INTER.norm>
-0.843913

>  <SCORE.INTRA>
-3.63908

>  <SCORE.INTRA.DIHEDRAL>
-3.25502

>  <SCORE.INTRA.DIHEDRAL.0>
5.0186

>  <SCORE.INTRA.POLAR>
0

>  <SCORE.INTRA.POLAR.0>
0

>  <SCORE.INTRA.REPUL>
0

>  <SCORE.INTRA.REPUL.0>
0

>  <SCORE.INTRA.SOLV>
0.0130479

>  <SCORE.INTRA.SOLV.lig_0>
-16.1608

>  <SCORE.INTRA.VDW>
-2.0181

>  <SCORE.INTRA.VDW.0>
1.14169

>  <SCORE.INTRA.norm>
-0.303257

>  <SCORE.RESTR>
0

>  <SCORE.RESTR.CAVITY>
0

>  <SCORE.RESTR.norm>
0

>  <SCORE.SYSTEM>
0

>  <SCORE.SYSTEM.CONST>
0

>  <SCORE.SYSTEM.DIHEDRAL>
0

>  <SCORE.SYSTEM.SOLV>
0

>  <SCORE.SYSTEM.norm>
0

>  <SCORE.heavy>
12

>  <SCORE.norm>
-1.14717

>  <RMSD>
43.606

$$$$
ligand
 OpenBabel11021811493D
libRbt.so/2013.1/901 2013/11/27
 12 12  0  0  0  0  0  0  0  0999 V2000
   -0.8590    8.2182   11.8741 N   0  0  0  0  0  0  0  0  0  0  0  0
    1.5956   12.0484   12.6710 O   0  0  0  0  0  0  0  0  0  0  0  0
   -0.5283    6.7735   11.9387 C   0  0  0  0  0  0  0  0  0  0  0  0
   -0.1041   12.7947   14.1290 O   0  0  0  0  0  0  0  0  0  0  0  0
   -1.6406    5.9944   11.2444 C   0  0  0  0  0  0  0  0  0  0  0  0
    1.5296   11.1464   14.9348 O   0  0  0  0  0  0  0  0  0  0  0  0
   -1.6752    6.3501    9.8227 N   0  0  0  0  0  0  0  0  0  0  0  0
   -0.6563    7.3758    9.5861 C   0  0  0  0  0  0  0  0  0  0  0  0
   -1.0250    8.5698   10.4501 C   0  0  0  0  0  0  0  0  0  0  0  0
    0.1231    9.1519   12.5560 C   0  0  0  0  0  0  0  0  0  0  0  0
   -0.4211   10.5393   12.9859 C   0  0  0  0  0  0  0  0  0  0  0  0
    0.6492   11.6555   13.6730 S   0  0  0  0  0  0  0  0  0  0  0  0
  1  3  1  0  0  0  0
  1  9  1  0  0  0  0
  1 10  1  0  0  0  0
  2 12  1  0  0  0  0
  3  5  1  0  0  0  0
  4 12  2  0  0  0  0
  5  7  1  0  0  0  0
  6 12  2  0  0  0  0
  7  8  1  0  0  0  0
  8  9  1  0  0  0  0
 10 11  1  0  0  0  0
 11 12  1  0  0  0  0
M  END
>  <CHROM.1>
-157.24129237,-176.63715842,66.53527218,-0.12762260,9.53274907,12.35216757
-2.98791229,-1.24758704,-0.83208136

>  <Name>
ligand

>  <RI>
0

>  <Rbt.Current_Directory>
/home/itssahil/PROJECTS/Mol_Feturizer/New_Systems/rnas/4E8N

>  <Rbt.Executable>
rbdock ($Id: //depot/dev/client3/rdock/2013.1/src/exe/rbdock.cxx#4 $)

>  <Rbt.Library>
libRbt.so (2013.1, Build901 2013/11/27)

>  <Rbt.Parameter_File>
/export/apps/rDock/src/rDock_2013.1_src/data/scripts/dock_solv.prm

>  <Rbt.Receptor>
prm/blind_docking_20.prm

>  <SCORE>
-10.4822

>  <SCORE.INTER>
-6.66054

>  <SCORE.INTER.CONST>
1

>  <SCORE.INTER.POLAR>
0

>  <SCORE.INTER.ROT>
3

>  <SCORE.INTER.SOLV>
3.42708

>  <SCORE.INTER.VDW>
-11.1827

>  <SCORE.INTER.norm>
-0.555045

>  <SCORE.INTRA>
-3.82163

>  <SCORE.INTRA.DIHEDRAL>
-4.18791

>  <SCORE.INTRA.DIHEDRAL.0>
5.0186

>  <SCORE.INTRA.POLAR>
0

>  <SCORE.INTRA.POLAR.0>
0

>  <SCORE.INTRA.REPUL>
0

>  <SCORE.INTRA.REPUL.0>
0

>  <SCORE.INTRA.SOLV>
-0.0927238

>  <SCORE.INTRA.SOLV.lig_0>
-16.1608

>  <SCORE.INTRA.VDW>
-1.68131

>  <SCORE.INTRA.VDW.0>
1.14169

>  <SCORE.INTRA.norm>
-0.318469

>  <SCORE.RESTR>
0

>  <SCORE.RESTR.CAVITY>
0

>  <SCORE.RESTR.norm>
0

>  <SCORE.SYSTEM>
0

>  <SCORE.SYSTEM.CONST>
0

>  <SCORE.SYSTEM.DIHEDRAL>
0

>  <SCORE.SYSTEM.SOLV>
0

>  <SCORE.SYSTEM.norm>
0

>  <SCORE.heavy>
12

>  <SCORE.norm>
-0.873514

>  <RMSD>
43.689

$$$$
ligand
 OpenBabel11021811493D
libRbt.so/2013.1/901 2013/11/27
 12 12  0  0  0  0  0  0  0  0999 V2000
   -0.8126    8.2475   11.7024 N   0  0  0  0  0  0  0  0  0  0  0  0
   -0.0353   12.8041   13.9439 O   0  0  0  0  0  0  0  0  0  0  0  0
   -1.7150    7.4708   12.5874 C   0  0  0  0  0  0  0  0  0  0  0  0
    1.3427   11.0733   14.7666 O   0  0  0  0  0  0  0  0  0  0  0  0
   -2.6616    6.6556   11.7124 C   0  0  0  0  0  0  0  0  0  0  0  0
    1.8848   12.1155   12.6092 O   0  0  0  0  0  0  0  0  0  0  0  0
   -1.8931    5.6758   10.9387 N   0  0  0  0  0  0  0  0  0  0  0  0
   -0.4733    5.8683   11.2443 C   0  0  0  0  0  0  0  0  0  0  0  0
   -0.1207    7.2847   10.8231 C   0  0  0  0  0  0  0  0  0  0  0  0
    0.1789    9.1565   12.4037 C   0  0  0  0  0  0  0  0  0  0  0  0
   -0.3837   10.4781   12.9893 C   0  0  0  0  0  0  0  0  0  0  0  0
    0.7013   11.6235   13.6009 S   0  0  0  0  0  0  0  0  0  0  0  0
  1  3  1  0  0  0  0
  1  9  1  0  0  0  0
  1 10  1  0  0  0  0
  2 12  1  0  0  0  0
  3  5  1  0  0  0  0
  4 12  2  0  0  0  0
  5  7  1  0  0  0  0
  6 12  2  0  0  0  0
  7  8  1  0  0  0  0
  8  9  1  0  0  0  0
 10 11  1  0  0  0  0
 11 12  1  0  0  0  0
M  END
>  <CHROM.1>
-75.99165435,-172.06635387,173.73015680,-0.19213388,9.37193048,12.59324627
-1.97165862,0.37535972,0.55852246

>  <Name>
ligand

>  <RI>
0

>  <Rbt.Current_Directory>
/home/itssahil/PROJECTS/Mol_Feturizer/New_Systems/rnas/4E8N

>  <Rbt.Executable>
rbdock ($Id: //depot/dev/client3/rdock/2013.1/src/exe/rbdock.cxx#4 $)

>  <Rbt.Library>
libRbt.so (2013.1, Build901 2013/11/27)

>  <Rbt.Parameter_File>
/export/apps/rDock/src/rDock_2013.1_src/data/scripts/dock_solv.prm

>  <Rbt.Receptor>
prm/blind_docking_20.prm

>  <SCORE>
-10.6303

>  <SCORE.INTER>
-6.8327

>  <SCORE.INTER.CONST>
1

>  <SCORE.INTER.POLAR>
0

>  <SCORE.INTER.ROT>
3

>  <SCORE.INTER.SOLV>
4.54957

>  <SCORE.INTER.VDW>
-11.6717

>  <SCORE.INTER.norm>
-0.569392

>  <SCORE.INTRA>
-3.79756

>  <SCORE.INTRA.DIHEDRAL>
-4.22749

>  <SCORE.INTRA.DIHEDRAL.0>
5.0186

>  <SCORE.INTRA.POLAR>
0

>  <SCORE.INTRA.POLAR.0>
0

>  <SCORE.INTRA.REPUL>
0

>  <SCORE.INTRA.REPUL.0>
0

>  <SCORE.INTRA.SOLV>
0.0695776

>  <SCORE.INTRA.SOLV.lig_0>
-16.1608

>  <SCORE.INTRA.VDW>
-1.71861

>  <SCORE.INTRA.VDW.0>
1.14169

>  <SCORE.INTRA.norm>
-0.316464

>  <SCORE.RESTR>
0

>  <SCORE.RESTR.CAVITY>
0

>  <SCORE.RESTR.norm>
0

>  <SCORE.SYSTEM>
0

>  <SCORE.SYSTEM.CONST>
0

>  <SCORE.SYSTEM.DIHEDRAL>
0

>  <SCORE.SYSTEM.SOLV>
0

>  <SCORE.SYSTEM.norm>
0

>  <SCORE.heavy>
12

>  <SCORE.norm>
-0.885855

>  <RMSD>
43.696

$$$$
ligand
 OpenBabel11021811493D
libRbt.so/2013.1/901 2013/11/27
 12 12  0  0  0  0  0  0  0  0999 V2000
   -0.2930    8.9913   11.5681 N   0  0  0  0  0  0  0  0  0  0  0  0
   -0.0819   12.9193   12.6358 O   0  0  0  0  0  0  0  0  0  0  0  0
   -0.7202    8.5433   10.2199 C   0  0  0  0  0  0  0  0  0  0  0  0
    0.9011   12.2654   14.6797 O   0  0  0  0  0  0  0  0  0  0  0  0
    0.3741    7.6531    9.6401 C   0  0  0  0  0  0  0  0  0  0  0  0
    1.8302   11.4083   12.5733 O   0  0  0  0  0  0  0  0  0  0  0  0
    0.5072    6.4436   10.4576 N   0  0  0  0  0  0  0  0  0  0  0  0
   -0.4285    6.5485   11.5800 C   0  0  0  0  0  0  0  0  0  0  0  0
   -0.0290    7.7817   12.3720 C   0  0  0  0  0  0  0  0  0  0  0  0
   -1.2468    9.9268   12.2865 C   0  0  0  0  0  0  0  0  0  0  0  0
   -0.7021   10.6356   13.5541 C   0  0  0  0  0  0  0  0  0  0  0  0
    0.4844   11.8283   13.3727 S   0  0  0  0  0  0  0  0  0  0  0  0
  1  3  1  0  0  0  0
  1  9  1  0  0  0  0
  1 10  1  0  0  0  0
  2 12  1  0  0  0  0
  3  5  1  0  0  0  0
  4 12  2  0  0  0  0
  5  7  1  0  0  0  0
  6 12  2  0  0  0  0
  7  8  1  0  0  0  0
  8  9  1  0  0  0  0
 10 11  1  0  0  0  0
 11 12  1  0  0  0  0
M  END
>  <CHROM.1>
-167.83035824,69.67051939,64.19423337,0.11607570,9.87080709,12.23745928,-1.83540078
1.15672809,0.76353832

>  <Name>
ligand

>  <RI>
0

>  <Rbt.Current_Directory>
/home/itssahil/PROJECTS/Mol_Feturizer/New_Systems/rnas/4E8N

>  <Rbt.Executable>
rbdock ($Id: //depot/dev/client3/rdock/2013.1/src/exe/rbdock.cxx#4 $)

>  <Rbt.Library>
libRbt.so (2013.1, Build901 2013/11/27)

>  <Rbt.Parameter_File>
/export/apps/rDock/src/rDock_2013.1_src/data/scripts/dock_solv.prm

>  <Rbt.Receptor>
prm/blind_docking_20.prm

>  <SCORE>
-10.7876

>  <SCORE.INTER>
-6.84589

>  <SCORE.INTER.CONST>
1

>  <SCORE.INTER.POLAR>
0

>  <SCORE.INTER.ROT>
3

>  <SCORE.INTER.SOLV>
6.25792

>  <SCORE.INTER.VDW>
-12.2499

>  <SCORE.INTER.norm>
-0.570491

>  <SCORE.INTRA>
-3.94172

>  <SCORE.INTRA.DIHEDRAL>
-4.43576

>  <SCORE.INTRA.DIHEDRAL.0>
5.0186

>  <SCORE.INTRA.POLAR>
0

>  <SCORE.INTRA.POLAR.0>
0

>  <SCORE.INTRA.REPUL>
0

>  <SCORE.INTRA.REPUL.0>
0

>  <SCORE.INTRA.SOLV>
0.379414

>  <SCORE.INTRA.SOLV.lig_0>
-16.1608

>  <SCORE.INTRA.VDW>
-1.91355

>  <SCORE.INTRA.VDW.0>
1.14169

>  <SCORE.INTRA.norm>
-0.328477

>  <SCORE.RESTR>
0

>  <SCORE.RESTR.CAVITY>
0

>  <SCORE.RESTR.norm>
0

>  <SCORE.SYSTEM>
0

>  <SCORE.SYSTEM.CONST>
0

>  <SCORE.SYSTEM.DIHEDRAL>
0

>  <SCORE.SYSTEM.SOLV>
0

>  <SCORE.SYSTEM.norm>
0

>  <SCORE.heavy>
12

>  <SCORE.norm>
-0.898968

>  <RMSD>
43.726

$$$$
ligand
 OpenBabel11021811493D
libRbt.so/2013.1/901 2013/11/27
 12 12  0  0  0  0  0  0  0  0999 V2000
   -0.1422    8.6382   14.5115 N   0  0  0  0  0  0  0  0  0  0  0  0
   -0.3694    6.4637    9.8606 O   0  0  0  0  0  0  0  0  0  0  0  0
   -0.6563    8.7241   15.9005 C   0  0  0  0  0  0  0  0  0  0  0  0
   -0.5993    4.9473   11.6549 O   0  0  0  0  0  0  0  0  0  0  0  0
    0.1646    9.7661   16.6532 C   0  0  0  0  0  0  0  0  0  0  0  0
   -2.5178    6.3375   11.0056 O   0  0  0  0  0  0  0  0  0  0  0  0
   -0.0451   11.0855   16.0497 N   0  0  0  0  0  0  0  0  0  0  0  0
   -0.9328   10.9214   14.8958 C   0  0  0  0  0  0  0  0  0  0  0  0
   -0.2257    9.9905   13.9256 C   0  0  0  0  0  0  0  0  0  0  0  0
   -0.8174    7.6140   13.6192 C   0  0  0  0  0  0  0  0  0  0  0  0
   -0.1979    7.4011   12.2133 C   0  0  0  0  0  0  0  0  0  0  0  0
   -0.9075    6.2693   11.1746 S   0  0  0  0  0  0  0  0  0  0  0  0
  1  3  1  0  0  0  0
  1  9  1  0  0  0  0
  1 10  1  0  0  0  0
  2 12  1  0  0  0  0
  3  5  1  0  0  0  0
  4 12  2  0  0  0  0
  5  7  1  0  0  0  0
  6 12  2  0  0  0  0
  7  8  1  0  0  0  0
  8  9  1  0  0  0  0
 10 11  1  0  0  0  0
 11 12  1  0  0  0  0
M  END
>  <CHROM.1>
-173.67638260,179.91280032,167.04998217,-0.64966858,7.93061902,13.16053445
-0.79566260,1.40420735,-3.05083184

>  <Name>
ligand

>  <RI>
0

>  <Rbt.Current_Directory>
/home/itssahil/PROJECTS/Mol_Feturizer/New_Systems/rnas/4E8N

>  <Rbt.Executable>
rbdock ($Id: //depot/dev/client3/rdock/2013.1/src/exe/rbdock.cxx#4 $)

>  <Rbt.Library>
libRbt.so (2013.1, Build901 2013/11/27)

>  <Rbt.Parameter_File>
/export/apps/rDock/src/rDock_2013.1_src/data/scripts/dock_solv.prm

>  <Rbt.Receptor>
prm/blind_docking_20.prm

>  <SCORE>
-9.1758

>  <SCORE.INTER>
-5.6006

>  <SCORE.INTER.CONST>
1

>  <SCORE.INTER.POLAR>
0

>  <SCORE.INTER.ROT>
3

>  <SCORE.INTER.SOLV>
2.90138

>  <SCORE.INTER.VDW>
-10.3009

>  <SCORE.INTER.norm>
-0.466717

>  <SCORE.INTRA>
-3.5752

>  <SCORE.INTRA.DIHEDRAL>
-4.5928

>  <SCORE.INTRA.DIHEDRAL.0>
5.0186

>  <SCORE.INTRA.POLAR>
0

>  <SCORE.INTRA.POLAR.0>
0

>  <SCORE.INTRA.REPUL>
0

>  <SCORE.INTRA.REPUL.0>
0

>  <SCORE.INTRA.SOLV>
0.0737187

>  <SCORE.INTRA.SOLV.lig_0>
-16.1608

>  <SCORE.INTRA.VDW>
-1.31566

>  <SCORE.INTRA.VDW.0>
1.14169

>  <SCORE.INTRA.norm>
-0.297933

>  <SCORE.RESTR>
0

>  <SCORE.RESTR.CAVITY>
0

>  <SCORE.RESTR.norm>
0

>  <SCORE.SYSTEM>
0

>  <SCORE.SYSTEM.CONST>
0

>  <SCORE.SYSTEM.DIHEDRAL>
0

>  <SCORE.SYSTEM.SOLV>
0

>  <SCORE.SYSTEM.norm>
0

>  <SCORE.heavy>
12

>  <SCORE.norm>
-0.76465

>  <RMSD>
43.746

$$$$
ligand
 OpenBabel11021811493D
libRbt.so/2013.1/901 2013/11/27
 12 12  0  0  0  0  0  0  0  0999 V2000
   -0.7931    9.1705   13.9388 N   0  0  0  0  0  0  0  0  0  0  0  0
   -0.7124    5.0249   11.7471 O   0  0  0  0  0  0  0  0  0  0  0  0
   -0.0573   10.3218   13.3610 C   0  0  0  0  0  0  0  0  0  0  0  0
   -1.6684    6.1295    9.8930 O   0  0  0  0  0  0  0  0  0  0  0  0
   -0.4941   11.5871   14.0921 C   0  0  0  0  0  0  0  0  0  0  0  0
    0.7163    6.4550   10.3847 O   0  0  0  0  0  0  0  0  0  0  0  0
   -0.0950   11.5026   15.5002 N   0  0  0  0  0  0  0  0  0  0  0  0
    0.5375   10.1989   15.7158 C   0  0  0  0  0  0  0  0  0  0  0  0
   -0.5052    9.1443   15.3864 C   0  0  0  0  0  0  0  0  0  0  0  0
   -0.5148    7.8219   13.3024 C   0  0  0  0  0  0  0  0  0  0  0  0
   -1.3376    7.4681   12.0360 C   0  0  0  0  0  0  0  0  0  0  0  0
   -0.7657    6.2517   11.0080 S   0  0  0  0  0  0  0  0  0  0  0  0
  1  3  1  0  0  0  0
  1  9  1  0  0  0  0
  1 10  1  0  0  0  0
  2 12  1  0  0  0  0
  3  5  1  0  0  0  0
  4 12  2  0  0  0  0
  5  7  1  0  0  0  0
  6 12  2  0  0  0  0
  7  8  1  0  0  0  0
  8  9  1  0  0  0  0
 10 11  1  0  0  0  0
 11 12  1  0  0  0  0
M  END
>  <CHROM.1>
-84.79758319,160.84992264,61.53726016,-0.50396984,8.14031984,12.76785102
-0.46489886,1.46399458,2.76927922

>  <Name>
ligand

>  <RI>
0

>  <Rbt.Current_Directory>
/home/itssahil/PROJECTS/Mol_Feturizer/New_Systems/rnas/4E8N

>  <Rbt.Executable>
rbdock ($Id: //depot/dev/client3/rdock/2013.1/src/exe/rbdock.cxx#4 $)

>  <Rbt.Library>
libRbt.so (2013.1, Build901 2013/11/27)

>  <Rbt.Parameter_File>
/export/apps/rDock/src/rDock_2013.1_src/data/scripts/dock_solv.prm

>  <Rbt.Receptor>
prm/blind_docking_20.prm

>  <SCORE>
-9.62538

>  <SCORE.INTER>
-6.37948

>  <SCORE.INTER.CONST>
1

>  <SCORE.INTER.POLAR>
0

>  <SCORE.INTER.ROT>
3

>  <SCORE.INTER.SOLV>
2.10164

>  <SCORE.INTER.VDW>
-10.5535

>  <SCORE.INTER.norm>
-0.531623

>  <SCORE.INTRA>
-3.2459

>  <SCORE.INTRA.DIHEDRAL>
-2.77021

>  <SCORE.INTRA.DIHEDRAL.0>
5.0186

>  <SCORE.INTRA.POLAR>
0

>  <SCORE.INTRA.POLAR.0>
0

>  <SCORE.INTRA.REPUL>
0

>  <SCORE.INTRA.REPUL.0>
0

>  <SCORE.INTRA.SOLV>
-0.0985971

>  <SCORE.INTRA.SOLV.lig_0>
-16.1608

>  <SCORE.INTRA.VDW>
-1.8115

>  <SCORE.INTRA.VDW.0>
1.14169

>  <SCORE.INTRA.norm>
-0.270492

>  <SCORE.RESTR>
0

>  <SCORE.RESTR.CAVITY>
0

>  <SCORE.RESTR.norm>
0

>  <SCORE.SYSTEM>
0

>  <SCORE.SYSTEM.CONST>
0

>  <SCORE.SYSTEM.DIHEDRAL>
0

>  <SCORE.SYSTEM.SOLV>
0

>  <SCORE.SYSTEM.norm>
0

>  <SCORE.heavy>
12

>  <SCORE.norm>
-0.802115

>  <RMSD>
43.747

$$$$
ligand
 OpenBabel11021811493D
libRbt.so/2013.1/901 2013/11/27
 12 12  0  0  0  0  0  0  0  0999 V2000
   -0.4520    8.7364   11.7383 N   0  0  0  0  0  0  0  0  0  0  0  0
    0.3386   12.1475   14.8152 O   0  0  0  0  0  0  0  0  0  0  0  0
   -0.5703    8.3365   10.3145 C   0  0  0  0  0  0  0  0  0  0  0  0
    1.3219   11.0151   12.9924 O   0  0  0  0  0  0  0  0  0  0  0  0
    0.5547    7.3574    9.9954 C   0  0  0  0  0  0  0  0  0  0  0  0
   -0.1046   12.9685   12.5630 O   0  0  0  0  0  0  0  0  0  0  0  0
    0.3808    6.1355   10.7865 N   0  0  0  0  0  0  0  0  0  0  0  0
   -0.7902    6.3151   11.6484 C   0  0  0  0  0  0  0  0  0  0  0  0
   -0.4961    7.5032   12.5482 C   0  0  0  0  0  0  0  0  0  0  0  0
   -1.4716    9.7476   12.2274 C   0  0  0  0  0  0  0  0  0  0  0  0
   -1.1192   10.5166   13.5275 C   0  0  0  0  0  0  0  0  0  0  0  0
    0.1306   11.6566   13.4849 S   0  0  0  0  0  0  0  0  0  0  0  0
  1  3  1  0  0  0  0
  1  9  1  0  0  0  0
  1 10  1  0  0  0  0
  2 12  1  0  0  0  0
  3  5  1  0  0  0  0
  4 12  2  0  0  0  0
  5  7  1  0  0  0  0
  6 12  2  0  0  0  0
  7  8  1  0  0  0  0
  8  9  1  0  0  0  0
 10 11  1  0  0  0  0
 11 12  1  0  0  0  0
M  END
>  <CHROM.1>
-161.02425872,69.78885471,-175.34490595,-0.13795557,9.66691893,12.37705149
-1.69931956,1.10693518,0.59799764

>  <Name>
ligand

>  <RI>
0

>  <Rbt.Current_Directory>
/home/itssahil/PROJECTS/Mol_Feturizer/New_Systems/rnas/4E8N

>  <Rbt.Executable>
rbdock ($Id: //depot/dev/client3/rdock/2013.1/src/exe/rbdock.cxx#4 $)

>  <Rbt.Library>
libRbt.so (2013.1, Build901 2013/11/27)

>  <Rbt.Parameter_File>
/export/apps/rDock/src/rDock_2013.1_src/data/scripts/dock_solv.prm

>  <Rbt.Receptor>
prm/blind_docking_20.prm

>  <SCORE>
-8.96778

>  <SCORE.INTER>
-5.19548

>  <SCORE.INTER.CONST>
1

>  <SCORE.INTER.POLAR>
0

>  <SCORE.INTER.ROT>
3

>  <SCORE.INTER.SOLV>
7.25068

>  <SCORE.INTER.VDW>
-11.4805

>  <SCORE.INTER.norm>
-0.432957

>  <SCORE.INTRA>
-3.7723

>  <SCORE.INTRA.DIHEDRAL>
-4.1307

>  <SCORE.INTRA.DIHEDRAL.0>
5.0186

>  <SCORE.INTRA.POLAR>
0

>  <SCORE.INTRA.POLAR.0>
0

>  <SCORE.INTRA.REPUL>
0

>  <SCORE.INTRA.REPUL.0>
0

>  <SCORE.INTRA.SOLV>
0.619889

>  <SCORE.INTRA.SOLV.lig_0>
-16.1608

>  <SCORE.INTRA.VDW>
-2.01689

>  <SCORE.INTRA.VDW.0>
1.14169

>  <SCORE.INTRA.norm>
-0.314358

>  <SCORE.RESTR>
0

>  <SCORE.RESTR.CAVITY>
0

>  <SCORE.RESTR.norm>
0

>  <SCORE.SYSTEM>
0

>  <SCORE.SYSTEM.CONST>
0

>  <SCORE.SYSTEM.DIHEDRAL>
0

>  <SCORE.SYSTEM.SOLV>
0

>  <SCORE.SYSTEM.norm>
0

>  <SCORE.heavy>
12

>  <SCORE.norm>
-0.747315

>  <RMSD>
43.763

$$$$
ligand
 OpenBabel11021811493D
libRbt.so/2013.1/901 2013/11/27
 12 12  0  0  0  0  0  0  0  0999 V2000
    0.2827    9.6933   13.5492 N   0  0  0  0  0  0  0  0  0  0  0  0
    2.9996   13.1096   12.0004 O   0  0  0  0  0  0  0  0  0  0  0  0
   -0.3372    9.2697   12.2696 C   0  0  0  0  0  0  0  0  0  0  0  0
    3.1917   11.5864   13.7934 O   0  0  0  0  0  0  0  0  0  0  0  0
   -0.0471    7.7867   12.0628 C   0  0  0  0  0  0  0  0  0  0  0  0
    2.7916   10.7273   11.5269 O   0  0  0  0  0  0  0  0  0  0  0  0
   -0.6993    7.0072   13.1193 N   0  0  0  0  0  0  0  0  0  0  0  0
   -1.3566    7.9433   14.0347 C   0  0  0  0  0  0  0  0  0  0  0  0
   -0.2677    8.8307   14.6131 C   0  0  0  0  0  0  0  0  0  0  0  0
    0.1310   11.1606   13.9028 C   0  0  0  0  0  0  0  0  0  0  0  0
    0.8507   12.1764   12.9776 C   0  0  0  0  0  0  0  0  0  0  0  0
    2.4757   11.9115   12.5872 S   0  0  0  0  0  0  0  0  0  0  0  0
  1  3  1  0  0  0  0
  1  9  1  0  0  0  0
  1 10  1  0  0  0  0
  2 12  1  0  0  0  0
  3  5  1  0  0  0  0
  4 12  2  0  0  0  0
  5  7  1  0  0  0  0
  6 12  2  0  0  0  0
  7  8  1  0  0  0  0
  8  9  1  0  0  0  0
 10 11  1  0  0  0  0
 11 12  1  0  0  0  0
M  END
>  <CHROM.1>
-65.89300952,-48.78278636,-166.69519734,1.05524844,10.32307853,12.97585892
2.61841838,-0.77059099,-2.46136372

>  <Name>
ligand

>  <RI>
0

>  <Rbt.Current_Directory>
/home/itssahil/PROJECTS/Mol_Feturizer/New_Systems/rnas/4E8N

>  <Rbt.Executable>
rbdock ($Id: //depot/dev/client3/rdock/2013.1/src/exe/rbdock.cxx#4 $)

>  <Rbt.Library>
libRbt.so (2013.1, Build901 2013/11/27)

>  <Rbt.Parameter_File>
/export/apps/rDock/src/rDock_2013.1_src/data/scripts/dock_solv.prm

>  <Rbt.Receptor>
prm/blind_docking_20.prm

>  <SCORE>
-12.3445

>  <SCORE.INTER>
-8.87099

>  <SCORE.INTER.CONST>
1

>  <SCORE.INTER.POLAR>
0

>  <SCORE.INTER.ROT>
3

>  <SCORE.INTER.SOLV>
6.38765

>  <SCORE.INTER.VDW>
-13.6432

>  <SCORE.INTER.norm>
-0.739249

>  <SCORE.INTRA>
-3.83123

>  <SCORE.INTRA.DIHEDRAL>
-4.03062

>  <SCORE.INTRA.DIHEDRAL.0>
5.0186

>  <SCORE.INTRA.POLAR>
0

>  <SCORE.INTRA.POLAR.0>
0

>  <SCORE.INTRA.REPUL>
0

>  <SCORE.INTRA.REPUL.0>
0

>  <SCORE.INTRA.SOLV>
0.91664

>  <SCORE.INTRA.SOLV.lig_0>
-16.1608

>  <SCORE.INTRA.VDW>
-2.27424

>  <SCORE.INTRA.VDW.0>
1.14169

>  <SCORE.INTRA.norm>
-0.319269

>  <SCORE.RESTR>
0.357709

>  <SCORE.RESTR.CAVITY>
0.357709

>  <SCORE.RESTR.norm>
0.0298091

>  <SCORE.SYSTEM>
0

>  <SCORE.SYSTEM.CONST>
0

>  <SCORE.SYSTEM.DIHEDRAL>
0

>  <SCORE.SYSTEM.SOLV>
0

>  <SCORE.SYSTEM.norm>
0

>  <SCORE.heavy>
12

>  <SCORE.norm>
-1.02871

>  <RMSD>
43.782

$$$$
ligand
 OpenBabel11021811493D
libRbt.so/2013.1/901 2013/11/27
 12 12  0  0  0  0  0  0  0  0999 V2000
    0.3924    9.7086   13.5792 N   0  0  0  0  0  0  0  0  0  0  0  0
    0.6057    6.5047   10.3855 O   0  0  0  0  0  0  0  0  0  0  0  0
   -0.4621    9.6970   14.7918 C   0  0  0  0  0  0  0  0  0  0  0  0
   -0.7859    5.0766   11.6487 O   0  0  0  0  0  0  0  0  0  0  0  0
    0.2460   10.4889   15.8862 C   0  0  0  0  0  0  0  0  0  0  0  0
   -1.8073    6.8283   10.2621 O   0  0  0  0  0  0  0  0  0  0  0  0
    0.3677   11.8912   15.4765 N   0  0  0  0  0  0  0  0  0  0  0  0
   -0.1899   12.0206   14.1280 C   0  0  0  0  0  0  0  0  0  0  0  0
    0.6340   11.1206   13.2229 C   0  0  0  0  0  0  0  0  0  0  0  0
   -0.1368    8.9285   12.3906 C   0  0  0  0  0  0  0  0  0  0  0  0
   -0.3014    7.3980   12.5814 C   0  0  0  0  0  0  0  0  0  0  0  0
   -0.5594    6.4313   11.2168 S   0  0  0  0  0  0  0  0  0  0  0  0
  1  3  1  0  0  0  0
  1  9  1  0  0  0  0
  1 10  1  0  0  0  0
  2 12  1  0  0  0  0
  3  5  1  0  0  0  0
  4 12  2  0  0  0  0
  5  7  1  0  0  0  0
  6 12  2  0  0  0  0
  7  8  1  0  0  0  0
  8  9  1  0  0  0  0
 10 11  1  0  0  0  0
 11 12  1  0  0  0  0
M  END
>  <CHROM.1>
-63.06862177,-166.86835477,64.42316741,-0.21866702,8.53144144,12.73221045
-0.65181682,-1.40706112,-1.57639989

>  <Name>
ligand

>  <RI>
0

>  <Rbt.Current_Directory>
/home/itssahil/PROJECTS/Mol_Feturizer/New_Systems/rnas/4E8N

>  <Rbt.Executable>
rbdock ($Id: //depot/dev/client3/rdock/2013.1/src/exe/rbdock.cxx#4 $)

>  <Rbt.Library>
libRbt.so (2013.1, Build901 2013/11/27)

>  <Rbt.Parameter_File>
/export/apps/rDock/src/rDock_2013.1_src/data/scripts/dock_solv.prm

>  <Rbt.Receptor>
prm/blind_docking_20.prm

>  <SCORE>
-10.2717

>  <SCORE.INTER>
-6.51934

>  <SCORE.INTER.CONST>
1

>  <SCORE.INTER.POLAR>
0

>  <SCORE.INTER.ROT>
3

>  <SCORE.INTER.SOLV>
3.72597

>  <SCORE.INTER.VDW>
-11.1882

>  <SCORE.INTER.norm>
-0.543278

>  <SCORE.INTRA>
-3.75232

>  <SCORE.INTRA.DIHEDRAL>
-4.30109

>  <SCORE.INTRA.DIHEDRAL.0>
5.0186

>  <SCORE.INTRA.POLAR>
0

>  <SCORE.INTRA.POLAR.0>
0

>  <SCORE.INTRA.REPUL>
0

>  <SCORE.INTRA.REPUL.0>
0

>  <SCORE.INTRA.SOLV>
-0.096234

>  <SCORE.INTRA.SOLV.lig_0>
-16.1608

>  <SCORE.INTRA.VDW>
-1.55366

>  <SCORE.INTRA.VDW.0>
1.14169

>  <SCORE.INTRA.norm>
-0.312693

>  <SCORE.RESTR>
0

>  <SCORE.RESTR.CAVITY>
0

>  <SCORE.RESTR.norm>
0

>  <SCORE.SYSTEM>
0

>  <SCORE.SYSTEM.CONST>
0

>  <SCORE.SYSTEM.DIHEDRAL>
0

>  <SCORE.SYSTEM.SOLV>
0

>  <SCORE.SYSTEM.norm>
0

>  <SCORE.heavy>
12

>  <SCORE.norm>
-0.855971

>  <RMSD>
43.785

$$$$
ligand
 OpenBabel11021811493D
libRbt.so/2013.1/901 2013/11/27
 12 12  0  0  0  0  0  0  0  0999 V2000
   -0.8748    8.3017   11.9000 N   0  0  0  0  0  0  0  0  0  0  0  0
    1.3542   12.2999   12.6071 O   0  0  0  0  0  0  0  0  0  0  0  0
   -0.4970    6.8694   11.9821 C   0  0  0  0  0  0  0  0  0  0  0  0
   -0.2607   12.8574   14.2359 O   0  0  0  0  0  0  0  0  0  0  0  0
   -1.5926    6.0444   11.3148 C   0  0  0  0  0  0  0  0  0  0  0  0
    1.5541   11.3105   14.8261 O   0  0  0  0  0  0  0  0  0  0  0  0
   -1.6571    6.3766    9.8885 N   0  0  0  0  0  0  0  0  0  0  0  0
   -0.6749    7.4306    9.6226 C   0  0  0  0  0  0  0  0  0  0  0  0
   -1.0706    8.6255   10.4732 C   0  0  0  0  0  0  0  0  0  0  0  0
    0.0855    9.2768   12.5544 C   0  0  0  0  0  0  0  0  0  0  0  0
   -0.5106   10.6292   13.0250 C   0  0  0  0  0  0  0  0  0  0  0  0
    0.5311   11.7977   13.6675 S   0  0  0  0  0  0  0  0  0  0  0  0
  1  3  1  0  0  0  0
  1  9  1  0  0  0  0
  1 10  1  0  0  0  0
  2 12  1  0  0  0  0
  3  5  1  0  0  0  0
  4 12  2  0  0  0  0
  5  7  1  0  0  0  0
  6 12  2  0  0  0  0
  7  8  1  0  0  0  0
  8  9  1  0  0  0  0
 10 11  1  0  0  0  0
 11 12  1  0  0  0  0
M  END
>  <CHROM.1>
-154.72838771,-175.96490089,69.54556113,-0.18640412,9.63868488,12.36787210
-2.88911459,-1.26376788,-0.74662229

>  <Name>
ligand

>  <RI>
0

>  <Rbt.Current_Directory>
/home/itssahil/PROJECTS/Mol_Feturizer/New_Systems/rnas/4E8N

>  <Rbt.Executable>
rbdock ($Id: //depot/dev/client3/rdock/2013.1/src/exe/rbdock.cxx#4 $)

>  <Rbt.Library>
libRbt.so (2013.1, Build901 2013/11/27)

>  <Rbt.Parameter_File>
/export/apps/rDock/src/rDock_2013.1_src/data/scripts/dock_solv.prm

>  <Rbt.Receptor>
prm/blind_docking_20.prm

>  <SCORE>
-10.4915

>  <SCORE.INTER>
-6.77768

>  <SCORE.INTER.CONST>
1

>  <SCORE.INTER.POLAR>
0

>  <SCORE.INTER.ROT>
3

>  <SCORE.INTER.SOLV>
3.30729

>  <SCORE.INTER.VDW>
-11.2209

>  <SCORE.INTER.norm>
-0.564806

>  <SCORE.INTRA>
-3.71379

>  <SCORE.INTRA.DIHEDRAL>
-3.90432

>  <SCORE.INTRA.DIHEDRAL.0>
5.0186

>  <SCORE.INTRA.POLAR>
0

>  <SCORE.INTRA.POLAR.0>
0

>  <SCORE.INTRA.REPUL>
0

>  <SCORE.INTRA.REPUL.0>
0

>  <SCORE.INTRA.SOLV>
-0.0864529

>  <SCORE.INTRA.SOLV.lig_0>
-16.1608

>  <SCORE.INTRA.VDW>
-1.7184

>  <SCORE.INTRA.VDW.0>
1.14169

>  <SCORE.INTRA.norm>
-0.309482

>  <SCORE.RESTR>
0

>  <SCORE.RESTR.CAVITY>
0

>  <SCORE.RESTR.norm>
0

>  <SCORE.SYSTEM>
0

>  <SCORE.SYSTEM.CONST>
0

>  <SCORE.SYSTEM.DIHEDRAL>
0

>  <SCORE.SYSTEM.SOLV>
0

>  <SCORE.SYSTEM.norm>
0

>  <SCORE.heavy>
12

>  <SCORE.norm>
-0.874289

>  <RMSD>
43.797

$$$$
ligand
 OpenBabel11021811493D
libRbt.so/2013.1/901 2013/11/27
 12 12  0  0  0  0  0  0  0  0999 V2000
   -0.9806    8.8766   14.3457 N   0  0  0  0  0  0  0  0  0  0  0  0
   -0.6833    5.0546   11.6987 O   0  0  0  0  0  0  0  0  0  0  0  0
   -0.4488   10.1886   13.9024 C   0  0  0  0  0  0  0  0  0  0  0  0
   -1.5138    6.3343    9.8974 O   0  0  0  0  0  0  0  0  0  0  0  0
   -1.0105   11.2697   14.8199 C   0  0  0  0  0  0  0  0  0  0  0  0
    0.8420    6.5717   10.5521 O   0  0  0  0  0  0  0  0  0  0  0  0
   -0.5171   11.0602   16.1844 N   0  0  0  0  0  0  0  0  0  0  0  0
    0.3021    9.8457   16.1899 C   0  0  0  0  0  0  0  0  0  0  0  0
   -0.6027    8.7028   15.7620 C   0  0  0  0  0  0  0  0  0  0  0  0
   -0.5580    7.6783   13.5169 C   0  0  0  0  0  0  0  0  0  0  0  0
   -1.2918    7.4743   12.1657 C   0  0  0  0  0  0  0  0  0  0  0  0
   -0.6767    6.3420   11.0689 S   0  0  0  0  0  0  0  0  0  0  0  0
  1  3  1  0  0  0  0
  1  9  1  0  0  0  0
  1 10  1  0  0  0  0
  2 12  1  0  0  0  0
  3  5  1  0  0  0  0
  4 12  2  0  0  0  0
  5  7  1  0  0  0  0
  6 12  2  0  0  0  0
  7  8  1  0  0  0  0
  8  9  1  0  0  0  0
 10 11  1  0  0  0  0
 11 12  1  0  0  0  0
M  END
>  <CHROM.1>
-77.84382938,168.62486790,60.20000272,-0.59815822,8.03009762,13.04750537
-1.46991889,1.34448981,-2.39515495

>  <Name>
ligand

>  <RI>
0

>  <Rbt.Current_Directory>
/home/itssahil/PROJECTS/Mol_Feturizer/New_Systems/rnas/4E8N

>  <Rbt.Executable>
rbdock ($Id: //depot/dev/client3/rdock/2013.1/src/exe/rbdock.cxx#4 $)

>  <Rbt.Library>
libRbt.so (2013.1, Build901 2013/11/27)

>  <Rbt.Parameter_File>
/export/apps/rDock/src/rDock_2013.1_src/data/scripts/dock_solv.prm

>  <Rbt.Receptor>
prm/blind_docking_20.prm

>  <SCORE>
-9.5357

>  <SCORE.INTER>
-5.74717

>  <SCORE.INTER.CONST>
1

>  <SCORE.INTER.POLAR>
0

>  <SCORE.INTER.ROT>
3

>  <SCORE.INTER.SOLV>
1.62868

>  <SCORE.INTER.VDW>
-9.97434

>  <SCORE.INTER.norm>
-0.478931

>  <SCORE.INTRA>
-3.78853

>  <SCORE.INTRA.DIHEDRAL>
-3.97987

>  <SCORE.INTRA.DIHEDRAL.0>
5.0186

>  <SCORE.INTRA.POLAR>
0

>  <SCORE.INTRA.POLAR.0>
0

>  <SCORE.INTRA.REPUL>
0

>  <SCORE.INTRA.REPUL.0>
0

>  <SCORE.INTRA.SOLV>
-0.105091

>  <SCORE.INTRA.SOLV.lig_0>
-16.1608

>  <SCORE.INTRA.VDW>
-1.74605

>  <SCORE.INTRA.VDW.0>
1.14169

>  <SCORE.INTRA.norm>
-0.315711

>  <SCORE.RESTR>
0

>  <SCORE.RESTR.CAVITY>
0

>  <SCORE.RESTR.norm>
0

>  <SCORE.SYSTEM>
0

>  <SCORE.SYSTEM.CONST>
0

>  <SCORE.SYSTEM.DIHEDRAL>
0

>  <SCORE.SYSTEM.SOLV>
0

>  <SCORE.SYSTEM.norm>
0

>  <SCORE.heavy>
12

>  <SCORE.norm>
-0.794642

>  <RMSD>
43.801

$$$$
ligand
 OpenBabel11021811493D
libRbt.so/2013.1/901 2013/11/27
 12 12  0  0  0  0  0  0  0  0999 V2000
   -0.4722    8.8551   13.5149 N   0  0  0  0  0  0  0  0  0  0  0  0
   -1.4989    6.2864    9.7766 O   0  0  0  0  0  0  0  0  0  0  0  0
   -0.1563   10.2691   13.1960 C   0  0  0  0  0  0  0  0  0  0  0  0
   -0.8039    5.0119   11.6378 O   0  0  0  0  0  0  0  0  0  0  0  0
   -1.1862   11.1586   13.8845 C   0  0  0  0  0  0  0  0  0  0  0  0
   -2.6002    6.6640   11.9184 O   0  0  0  0  0  0  0  0  0  0  0  0
   -1.0591   11.0216   15.3386 N   0  0  0  0  0  0  0  0  0  0  0  0
   -0.0162   10.0298   15.6120 C   0  0  0  0  0  0  0  0  0  0  0  0
   -0.4754    8.7243   14.9852 C   0  0  0  0  0  0  0  0  0  0  0  0
    0.4304    7.8164   12.8764 C   0  0  0  0  0  0  0  0  0  0  0  0
    0.0831    7.3914   11.4257 C   0  0  0  0  0  0  0  0  0  0  0  0
   -1.2009    6.3173   11.1781 S   0  0  0  0  0  0  0  0  0  0  0  0
  1  3  1  0  0  0  0
  1  9  1  0  0  0  0
  1 10  1  0  0  0  0
  2 12  1  0  0  0  0
  3  5  1  0  0  0  0
  4 12  2  0  0  0  0
  5  7  1  0  0  0  0
  6 12  2  0  0  0  0
  7  8  1  0  0  0  0
  8  9  1  0  0  0  0
 10 11  1  0  0  0  0
 11 12  1  0  0  0  0
M  END
>  <CHROM.1>
-83.76972390,-77.43318281,168.58070196,-0.81628865,8.03851817,12.72277340
-1.33611698,1.03043052,-2.62462466

>  <Name>
ligand

>  <RI>
0

>  <Rbt.Current_Directory>
/home/itssahil/PROJECTS/Mol_Feturizer/New_Systems/rnas/4E8N

>  <Rbt.Executable>
rbdock ($Id: //depot/dev/client3/rdock/2013.1/src/exe/rbdock.cxx#4 $)

>  <Rbt.Library>
libRbt.so (2013.1, Build901 2013/11/27)

>  <Rbt.Parameter_File>
/export/apps/rDock/src/rDock_2013.1_src/data/scripts/dock_solv.prm

>  <Rbt.Receptor>
prm/blind_docking_20.prm

>  <SCORE>
-8.63508

>  <SCORE.INTER>
-5.33046

>  <SCORE.INTER.CONST>
1

>  <SCORE.INTER.POLAR>
0

>  <SCORE.INTER.ROT>
3

>  <SCORE.INTER.SOLV>
2.58512

>  <SCORE.INTER.VDW>
-10.0153

>  <SCORE.INTER.norm>
-0.444205

>  <SCORE.INTRA>
-3.30462

>  <SCORE.INTRA.DIHEDRAL>
-2.74501

>  <SCORE.INTRA.DIHEDRAL.0>
5.0186

>  <SCORE.INTRA.POLAR>
0

>  <SCORE.INTRA.POLAR.0>
0

>  <SCORE.INTRA.REPUL>
0

>  <SCORE.INTRA.REPUL.0>
0

>  <SCORE.INTRA.SOLV>
0.473061

>  <SCORE.INTRA.SOLV.lig_0>
-16.1608

>  <SCORE.INTRA.VDW>
-2.16865

>  <SCORE.INTRA.VDW.0>
1.14169

>  <SCORE.INTRA.norm>
-0.275385

>  <SCORE.RESTR>
0

>  <SCORE.RESTR.CAVITY>
0

>  <SCORE.RESTR.norm>
0

>  <SCORE.SYSTEM>
0

>  <SCORE.SYSTEM.CONST>
0

>  <SCORE.SYSTEM.DIHEDRAL>
0

>  <SCORE.SYSTEM.SOLV>
0

>  <SCORE.SYSTEM.norm>
0

>  <SCORE.heavy>
12

>  <SCORE.norm>
-0.71959

>  <RMSD>
43.803

$$$$
ligand
 OpenBabel11021811493D
libRbt.so/2013.1/901 2013/11/27
 12 12  0  0  0  0  0  0  0  0999 V2000
   -0.5276    7.9268   12.2558 N   0  0  0  0  0  0  0  0  0  0  0  0
   -0.1967   12.5467   12.6128 O   0  0  0  0  0  0  0  0  0  0  0  0
   -0.1751    6.9593   11.1878 C   0  0  0  0  0  0  0  0  0  0  0  0
    0.8821   12.2461   14.6906 O   0  0  0  0  0  0  0  0  0  0  0  0
   -0.8879    5.6425   11.4779 C   0  0  0  0  0  0  0  0  0  0  0  0
    2.1618   11.9301   12.6176 O   0  0  0  0  0  0  0  0  0  0  0  0
   -2.3381    5.8414   11.3969 N   0  0  0  0  0  0  0  0  0  0  0  0
   -2.5875    7.2578   11.1179 C   0  0  0  0  0  0  0  0  0  0  0  0
   -1.9989    8.0448   12.2764 C   0  0  0  0  0  0  0  0  0  0  0  0
    0.1280    9.2910   12.1541 C   0  0  0  0  0  0  0  0  0  0  0  0
    0.1149   10.1655   13.4351 C   0  0  0  0  0  0  0  0  0  0  0  0
    0.7294   11.7400   13.3513 S   0  0  0  0  0  0  0  0  0  0  0  0
  1  3  1  0  0  0  0
  1  9  1  0  0  0  0
  1 10  1  0  0  0  0
  2 12  1  0  0  0  0
  3  5  1  0  0  0  0
  4 12  2  0  0  0  0
  5  7  1  0  0  0  0
  6 12  2  0  0  0  0
  7  8  1  0  0  0  0
  8  9  1  0  0  0  0
 10 11  1  0  0  0  0
 11 12  1  0  0  0  0
M  END
>  <CHROM.1>
-162.87719610,-175.56443525,72.23434307,-0.24469722,9.47343451,12.50082013
-1.97564773,0.03478035,0.35628586

>  <Name>
ligand

>  <RI>
0

>  <Rbt.Current_Directory>
/home/itssahil/PROJECTS/Mol_Feturizer/New_Systems/rnas/4E8N

>  <Rbt.Executable>
rbdock ($Id: //depot/dev/client3/rdock/2013.1/src/exe/rbdock.cxx#4 $)

>  <Rbt.Library>
libRbt.so (2013.1, Build901 2013/11/27)

>  <Rbt.Parameter_File>
/export/apps/rDock/src/rDock_2013.1_src/data/scripts/dock_solv.prm

>  <Rbt.Receptor>
prm/blind_docking_20.prm

>  <SCORE>
-11.2687

>  <SCORE.INTER>
-7.53513

>  <SCORE.INTER.CONST>
1

>  <SCORE.INTER.POLAR>
0

>  <SCORE.INTER.ROT>
3

>  <SCORE.INTER.SOLV>
4.43621

>  <SCORE.INTER.VDW>
-12.1022

>  <SCORE.INTER.norm>
-0.627927

>  <SCORE.INTRA>
-3.73353

>  <SCORE.INTRA.DIHEDRAL>
-4.18778

>  <SCORE.INTRA.DIHEDRAL.0>
5.0186

>  <SCORE.INTRA.POLAR>
0

>  <SCORE.INTRA.POLAR.0>
0

>  <SCORE.INTRA.REPUL>
0

>  <SCORE.INTRA.REPUL.0>
0

>  <SCORE.INTRA.SOLV>
-0.0782537

>  <SCORE.INTRA.SOLV.lig_0>
-16.1608

>  <SCORE.INTRA.VDW>
-1.60051

>  <SCORE.INTRA.VDW.0>
1.14169

>  <SCORE.INTRA.norm>
-0.311127

>  <SCORE.RESTR>
0

>  <SCORE.RESTR.CAVITY>
0

>  <SCORE.RESTR.norm>
0

>  <SCORE.SYSTEM>
0

>  <SCORE.SYSTEM.CONST>
0

>  <SCORE.SYSTEM.DIHEDRAL>
0

>  <SCORE.SYSTEM.SOLV>
0

>  <SCORE.SYSTEM.norm>
0

>  <SCORE.heavy>
12

>  <SCORE.norm>
-0.939055

>  <RMSD>
43.811

$$$$
ligand
 OpenBabel11021811493D
libRbt.so/2013.1/901 2013/11/27
 12 12  0  0  0  0  0  0  0  0999 V2000
    9.0544   10.9801   26.4185 N   0  0  0  0  0  0  0  0  0  0  0  0
   10.4041   12.1235   22.2668 O   0  0  0  0  0  0  0  0  0  0  0  0
    7.7707   10.3004   26.1168 C   0  0  0  0  0  0  0  0  0  0  0  0
   10.6437   14.1296   23.4875 O   0  0  0  0  0  0  0  0  0  0  0  0
    7.5546    9.2006   27.1512 C   0  0  0  0  0  0  0  0  0  0  0  0
   12.6530   12.8822   22.8232 O   0  0  0  0  0  0  0  0  0  0  0  0
    7.4057    9.7999   28.4808 N   0  0  0  0  0  0  0  0  0  0  0  0
    7.5736   11.2491   28.3473 C   0  0  0  0  0  0  0  0  0  0  0  0
    8.9732   11.4817   27.8044 C   0  0  0  0  0  0  0  0  0  0  0  0
    9.4578   12.0852   25.4607 C   0  0  0  0  0  0  0  0  0  0  0  0
   10.8336   11.9305   24.7611 C   0  0  0  0  0  0  0  0  0  0  0  0
   11.1154   12.7790   23.3244 S   0  0  0  0  0  0  0  0  0  0  0  0
  1  3  1  0  0  0  0
  1  9  1  0  0  0  0
  1 10  1  0  0  0  0
  2 12  1  0  0  0  0
  3  5  1  0  0  0  0
  4 12  2  0  0  0  0
  5  7  1  0  0  0  0
  6 12  2  0  0  0  0
  7  8  1  0  0  0  0
  8  9  1  0  0  0  0
 10 11  1  0  0  0  0
 11 12  1  0  0  0  0
M  END
>  <CHROM.1>
-122.71631611,158.66494111,-75.17670590,9.66430874,11.73650610,25.24650862
-2.69725498,-0.91259368,-2.08880894

>  <Name>
ligand

>  <RI>
0

>  <Rbt.Current_Directory>
/home/itssahil/PROJECTS/Mol_Feturizer/New_Systems/rnas/4E8N

>  <Rbt.Executable>
rbdock ($Id: //depot/dev/client3/rdock/2013.1/src/exe/rbdock.cxx#4 $)

>  <Rbt.Library>
libRbt.so (2013.1, Build901 2013/11/27)

>  <Rbt.Parameter_File>
/export/apps/rDock/src/rDock_2013.1_src/data/scripts/dock_solv.prm

>  <Rbt.Receptor>
prm/blind_docking_40.prm

>  <SCORE>
-13.7465

>  <SCORE.INTER>
-11.5913

>  <SCORE.INTER.CONST>
1

>  <SCORE.INTER.POLAR>
0

>  <SCORE.INTER.ROT>
3

>  <SCORE.INTER.SOLV>
9.93677

>  <SCORE.INTER.VDW>
-16.6398

>  <SCORE.INTER.norm>
-0.965944

>  <SCORE.INTRA>
-2.15518

>  <SCORE.INTRA.DIHEDRAL>
-0.577644

>  <SCORE.INTRA.DIHEDRAL.0>
5.0186

>  <SCORE.INTRA.POLAR>
0

>  <SCORE.INTRA.POLAR.0>
0

>  <SCORE.INTRA.REPUL>
0

>  <SCORE.INTRA.REPUL.0>
0

>  <SCORE.INTRA.SOLV>
-0.0761753

>  <SCORE.INTRA.SOLV.lig_0>
-16.1608

>  <SCORE.INTRA.VDW>
-1.82827

>  <SCORE.INTRA.VDW.0>
1.14169

>  <SCORE.INTRA.norm>
-0.179598

>  <SCORE.RESTR>
0

>  <SCORE.RESTR.CAVITY>
0

>  <SCORE.RESTR.norm>
0

>  <SCORE.SYSTEM>
0

>  <SCORE.SYSTEM.CONST>
0

>  <SCORE.SYSTEM.DIHEDRAL>
0

>  <SCORE.SYSTEM.SOLV>
0

>  <SCORE.SYSTEM.norm>
0

>  <SCORE.heavy>
12

>  <SCORE.norm>
-1.14554

>  <RMSD>
43.815

$$$$
ligand
 OpenBabel11021811493D
libRbt.so/2013.1/901 2013/11/27
 12 12  0  0  0  0  0  0  0  0999 V2000
   -1.0156    8.8673   14.2871 N   0  0  0  0  0  0  0  0  0  0  0  0
   -0.7195    5.0078   11.7268 O   0  0  0  0  0  0  0  0  0  0  0  0
   -0.5098   10.2015   13.8810 C   0  0  0  0  0  0  0  0  0  0  0  0
   -1.6177    6.2148    9.9080 O   0  0  0  0  0  0  0  0  0  0  0  0
   -1.1138   11.2481   14.8116 C   0  0  0  0  0  0  0  0  0  0  0  0
    0.7573    6.4878   10.4732 O   0  0  0  0  0  0  0  0  0  0  0  0
   -0.6379   11.0215   16.1795 N   0  0  0  0  0  0  0  0  0  0  0  0
    0.2115    9.8279   16.1732 C   0  0  0  0  0  0  0  0  0  0  0  0
   -0.6569    8.6724   15.7057 C   0  0  0  0  0  0  0  0  0  0  0  0
   -0.5492    7.6982   13.4405 C   0  0  0  0  0  0  0  0  0  0  0  0
   -1.3264    7.4405   12.1231 C   0  0  0  0  0  0  0  0  0  0  0  0
   -0.7418    6.2706   11.0494 S   0  0  0  0  0  0  0  0  0  0  0  0
  1  3  1  0  0  0  0
  1  9  1  0  0  0  0
  1 10  1  0  0  0  0
  2 12  1  0  0  0  0
  3  5  1  0  0  0  0
  4 12  2  0  0  0  0
  5  7  1  0  0  0  0
  6 12  2  0  0  0  0
  7  8  1  0  0  0  0
  8  9  1  0  0  0  0
 10 11  1  0  0  0  0
 11 12  1  0  0  0  0
M  END
>  <CHROM.1>
-82.33583845,172.84366239,60.17110715,-0.66353266,7.98868657,13.02010419
-1.49589954,1.31625523,-2.37720748

>  <Name>
ligand

>  <RI>
0

>  <Rbt.Current_Directory>
/home/itssahil/PROJECTS/Mol_Feturizer/New_Systems/rnas/4E8N

>  <Rbt.Executable>
rbdock ($Id: //depot/dev/client3/rdock/2013.1/src/exe/rbdock.cxx#4 $)

>  <Rbt.Library>
libRbt.so (2013.1, Build901 2013/11/27)

>  <Rbt.Parameter_File>
/export/apps/rDock/src/rDock_2013.1_src/data/scripts/dock_solv.prm

>  <Rbt.Receptor>
prm/blind_docking_20.prm

>  <SCORE>
-9.80526

>  <SCORE.INTER>
-5.98652

>  <SCORE.INTER.CONST>
1

>  <SCORE.INTER.POLAR>
0

>  <SCORE.INTER.ROT>
3

>  <SCORE.INTER.SOLV>
1.62388

>  <SCORE.INTER.VDW>
-10.1323

>  <SCORE.INTER.norm>
-0.498877

>  <SCORE.INTRA>
-3.81875

>  <SCORE.INTRA.DIHEDRAL>
-4.01009

>  <SCORE.INTRA.DIHEDRAL.0>
5.0186

>  <SCORE.INTRA.POLAR>
0

>  <SCORE.INTRA.POLAR.0>
0

>  <SCORE.INTRA.REPUL>
0

>  <SCORE.INTRA.REPUL.0>
0

>  <SCORE.INTRA.SOLV>
-0.108277

>  <SCORE.INTRA.SOLV.lig_0>
-16.1608

>  <SCORE.INTRA.VDW>
-1.75956

>  <SCORE.INTRA.VDW.0>
1.14169

>  <SCORE.INTRA.norm>
-0.318229

>  <SCORE.RESTR>
0

>  <SCORE.RESTR.CAVITY>
0

>  <SCORE.RESTR.norm>
0

>  <SCORE.SYSTEM>
0

>  <SCORE.SYSTEM.CONST>
0

>  <SCORE.SYSTEM.DIHEDRAL>
0

>  <SCORE.SYSTEM.SOLV>
0

>  <SCORE.SYSTEM.norm>
0

>  <SCORE.heavy>
12

>  <SCORE.norm>
-0.817105

>  <RMSD>
43.820

$$$$
ligand
 OpenBabel11021811493D
libRbt.so/2013.1/901 2013/11/27
 12 12  0  0  0  0  0  0  0  0999 V2000
   -0.5385    7.9311   12.2594 N   0  0  0  0  0  0  0  0  0  0  0  0
   -0.2115   12.5482   12.6216 O   0  0  0  0  0  0  0  0  0  0  0  0
   -0.1797    6.9609   11.1960 C   0  0  0  0  0  0  0  0  0  0  0  0
    0.8694   12.2489   14.6986 O   0  0  0  0  0  0  0  0  0  0  0  0
   -0.8981    5.6463   11.4826 C   0  0  0  0  0  0  0  0  0  0  0  0
    2.1485   11.9374   12.6246 O   0  0  0  0  0  0  0  0  0  0  0  0
   -2.3470    5.8486   11.3894 N   0  0  0  0  0  0  0  0  0  0  0  0
   -2.5907    7.2651   11.1059 C   0  0  0  0  0  0  0  0  0  0  0  0
   -2.0096    8.0527   12.2678 C   0  0  0  0  0  0  0  0  0  0  0  0
    0.1213    9.2935   12.1607 C   0  0  0  0  0  0  0  0  0  0  0  0
    0.1065   10.1673   13.4421 C   0  0  0  0  0  0  0  0  0  0  0  0
    0.7170   11.7432   13.3591 S   0  0  0  0  0  0  0  0  0  0  0  0
  1  3  1  0  0  0  0
  1  9  1  0  0  0  0
  1 10  1  0  0  0  0
  2 12  1  0  0  0  0
  3  5  1  0  0  0  0
  4 12  2  0  0  0  0
  5  7  1  0  0  0  0
  6 12  2  0  0  0  0
  7  8  1  0  0  0  0
  8  9  1  0  0  0  0
 10 11  1  0  0  0  0
 11 12  1  0  0  0  0
M  END
>  <CHROM.1>
-162.56342123,-175.20157265,72.25246866,-0.25477883,9.47758409,12.50424203
-1.97469955,0.02633666,0.35453229

>  <Name>
ligand

>  <RI>
0

>  <Rbt.Current_Directory>
/home/itssahil/PROJECTS/Mol_Feturizer/New_Systems/rnas/4E8N

>  <Rbt.Executable>
rbdock ($Id: //depot/dev/client3/rdock/2013.1/src/exe/rbdock.cxx#4 $)

>  <Rbt.Library>
libRbt.so (2013.1, Build901 2013/11/27)

>  <Rbt.Parameter_File>
/export/apps/rDock/src/rDock_2013.1_src/data/scripts/dock_solv.prm

>  <Rbt.Receptor>
prm/blind_docking_20.prm

>  <SCORE>
-11.283

>  <SCORE.INTER>
-7.55745

>  <SCORE.INTER.CONST>
1

>  <SCORE.INTER.POLAR>
0

>  <SCORE.INTER.ROT>
3

>  <SCORE.INTER.SOLV>
4.39225

>  <SCORE.INTER.VDW>
-12.1024

>  <SCORE.INTER.norm>
-0.629787

>  <SCORE.INTRA>
-3.72556

>  <SCORE.INTRA.DIHEDRAL>
-4.15968

>  <SCORE.INTRA.DIHEDRAL.0>
5.0186

>  <SCORE.INTRA.POLAR>
0

>  <SCORE.INTRA.POLAR.0>
0

>  <SCORE.INTRA.REPUL>
0

>  <SCORE.INTRA.REPUL.0>
0

>  <SCORE.INTRA.SOLV>
-0.0781643

>  <SCORE.INTRA.SOLV.lig_0>
-16.1608

>  <SCORE.INTRA.VDW>
-1.60664

>  <SCORE.INTRA.VDW.0>
1.14169

>  <SCORE.INTRA.norm>
-0.310463

>  <SCORE.RESTR>
0

>  <SCORE.RESTR.CAVITY>
0

>  <SCORE.RESTR.norm>
0

>  <SCORE.SYSTEM>
0

>  <SCORE.SYSTEM.CONST>
0

>  <SCORE.SYSTEM.DIHEDRAL>
0

>  <SCORE.SYSTEM.SOLV>
0

>  <SCORE.SYSTEM.norm>
0

>  <SCORE.heavy>
12

>  <SCORE.norm>
-0.940251

>  <RMSD>
43.821

$$$$
ligand
 OpenBabel11021811493D
libRbt.so/2013.1/901 2013/11/27
 12 12  0  0  0  0  0  0  0  0999 V2000
   -1.0598    8.8141   14.3195 N   0  0  0  0  0  0  0  0  0  0  0  0
   -0.6818    4.9880   11.7402 O   0  0  0  0  0  0  0  0  0  0  0  0
   -0.5956   10.1619   13.9086 C   0  0  0  0  0  0  0  0  0  0  0  0
   -1.6550    6.1613    9.9380 O   0  0  0  0  0  0  0  0  0  0  0  0
   -1.2102   11.1903   14.8524 C   0  0  0  0  0  0  0  0  0  0  0  0
    0.7222    6.5082   10.4515 O   0  0  0  0  0  0  0  0  0  0  0  0
   -0.7051   10.9727   16.2113 N   0  0  0  0  0  0  0  0  0  0  0  0
    0.1746    9.8014   16.1869 C   0  0  0  0  0  0  0  0  0  0  0  0
   -0.6717    8.6250   15.7311 C   0  0  0  0  0  0  0  0  0  0  0  0
   -0.5781    7.6595   13.4616 C   0  0  0  0  0  0  0  0  0  0  0  0
   -1.3539    7.4024   12.1432 C   0  0  0  0  0  0  0  0  0  0  0  0
   -0.7569    6.2474   11.0602 S   0  0  0  0  0  0  0  0  0  0  0  0
  1  3  1  0  0  0  0
  1  9  1  0  0  0  0
  1 10  1  0  0  0  0
  2 12  1  0  0  0  0
  3  5  1  0  0  0  0
  4 12  2  0  0  0  0
  5  7  1  0  0  0  0
  6 12  2  0  0  0  0
  7  8  1  0  0  0  0
  8  9  1  0  0  0  0
 10 11  1  0  0  0  0
 11 12  1  0  0  0  0
M  END
>  <CHROM.1>
-81.17486105,173.02593970,58.48530378,-0.69822339,7.95487687,13.03925081
-1.53022261,1.28817939,-2.33850352

>  <Name>
ligand

>  <RI>
0

>  <Rbt.Current_Directory>
/home/itssahil/PROJECTS/Mol_Feturizer/New_Systems/rnas/4E8N

>  <Rbt.Executable>
rbdock ($Id: //depot/dev/client3/rdock/2013.1/src/exe/rbdock.cxx#4 $)

>  <Rbt.Library>
libRbt.so (2013.1, Build901 2013/11/27)

>  <Rbt.Parameter_File>
/export/apps/rDock/src/rDock_2013.1_src/data/scripts/dock_solv.prm

>  <Rbt.Receptor>
prm/blind_docking_20.prm

>  <SCORE>
-9.77043

>  <SCORE.INTER>
-5.92676

>  <SCORE.INTER.CONST>
1

>  <SCORE.INTER.POLAR>
0

>  <SCORE.INTER.ROT>
3

>  <SCORE.INTER.SOLV>
1.58253

>  <SCORE.INTER.VDW>
-10.0787

>  <SCORE.INTER.norm>
-0.493897

>  <SCORE.INTRA>
-3.84366

>  <SCORE.INTRA.DIHEDRAL>
-4.08431

>  <SCORE.INTRA.DIHEDRAL.0>
5.0186

>  <SCORE.INTRA.POLAR>
0

>  <SCORE.INTRA.POLAR.0>
0

>  <SCORE.INTRA.REPUL>
0

>  <SCORE.INTRA.REPUL.0>
0

>  <SCORE.INTRA.SOLV>
-0.11164

>  <SCORE.INTRA.SOLV.lig_0>
-16.1608

>  <SCORE.INTRA.VDW>
-1.74569

>  <SCORE.INTRA.VDW.0>
1.14169

>  <SCORE.INTRA.norm>
-0.320305

>  <SCORE.RESTR>
0

>  <SCORE.RESTR.CAVITY>
0

>  <SCORE.RESTR.norm>
0

>  <SCORE.SYSTEM>
0

>  <SCORE.SYSTEM.CONST>
0

>  <SCORE.SYSTEM.DIHEDRAL>
0

>  <SCORE.SYSTEM.SOLV>
0

>  <SCORE.SYSTEM.norm>
0

>  <SCORE.heavy>
12

>  <SCORE.norm>
-0.814202

>  <RMSD>
43.827

$$$$
ligand
 OpenBabel11021811493D
libRbt.so/2013.1/901 2013/11/27
 12 12  0  0  0  0  0  0  0  0999 V2000
   -0.5931    7.9306   12.2675 N   0  0  0  0  0  0  0  0  0  0  0  0
   -0.2395   12.5420   12.5479 O   0  0  0  0  0  0  0  0  0  0  0  0
   -0.2049    6.9312   11.2422 C   0  0  0  0  0  0  0  0  0  0  0  0
    0.8036   12.2850   14.6497 O   0  0  0  0  0  0  0  0  0  0  0  0
   -0.9349    5.6262   11.5425 C   0  0  0  0  0  0  0  0  0  0  0  0
    2.1198   11.9312   12.6059 O   0  0  0  0  0  0  0  0  0  0  0  0
   -2.3799    5.8284   11.4003 N   0  0  0  0  0  0  0  0  0  0  0  0
   -2.6114    7.2370   11.0712 C   0  0  0  0  0  0  0  0  0  0  0  0
   -2.0635    8.0549   12.2282 C   0  0  0  0  0  0  0  0  0  0  0  0
    0.0729    9.2887   12.1517 C   0  0  0  0  0  0  0  0  0  0  0  0
    0.0626   10.1783   13.4223 C   0  0  0  0  0  0  0  0  0  0  0  0
    0.6752   11.7522   13.3182 S   0  0  0  0  0  0  0  0  0  0  0  0
  1  3  1  0  0  0  0
  1  9  1  0  0  0  0
  1 10  1  0  0  0  0
  2 12  1  0  0  0  0
  3  5  1  0  0  0  0
  4 12  2  0  0  0  0
  5  7  1  0  0  0  0
  6 12  2  0  0  0  0
  7  8  1  0  0  0  0
  8  9  1  0  0  0  0
 10 11  1  0  0  0  0
 11 12  1  0  0  0  0
M  END
>  <CHROM.1>
-160.61172707,-174.98528899,70.98449814,-0.29503206,9.47446894,12.48726333
-1.97331967,-0.00427227,0.33062825

>  <Name>
ligand

>  <RI>
0

>  <Rbt.Current_Directory>
/home/itssahil/PROJECTS/Mol_Feturizer/New_Systems/rnas/4E8N

>  <Rbt.Executable>
rbdock ($Id: //depot/dev/client3/rdock/2013.1/src/exe/rbdock.cxx#4 $)

>  <Rbt.Library>
libRbt.so (2013.1, Build901 2013/11/27)

>  <Rbt.Parameter_File>
/export/apps/rDock/src/rDock_2013.1_src/data/scripts/dock_solv.prm

>  <Rbt.Receptor>
prm/blind_docking_20.prm

>  <SCORE>
-11.2888

>  <SCORE.INTER>
-7.54574

>  <SCORE.INTER.CONST>
1

>  <SCORE.INTER.POLAR>
0

>  <SCORE.INTER.ROT>
3

>  <SCORE.INTER.SOLV>
4.44462

>  <SCORE.INTER.VDW>
-12.112

>  <SCORE.INTER.norm>
-0.628812

>  <SCORE.INTRA>
-3.74301

>  <SCORE.INTRA.DIHEDRAL>
-4.12641

>  <SCORE.INTRA.DIHEDRAL.0>
5.0186

>  <SCORE.INTRA.POLAR>
0

>  <SCORE.INTRA.POLAR.0>
0

>  <SCORE.INTRA.REPUL>
0

>  <SCORE.INTRA.REPUL.0>
0

>  <SCORE.INTRA.SOLV>
-0.0814225

>  <SCORE.INTRA.SOLV.lig_0>
-16.1608

>  <SCORE.INTRA.VDW>
-1.6391

>  <SCORE.INTRA.VDW.0>
1.14169

>  <SCORE.INTRA.norm>
-0.311918

>  <SCORE.RESTR>
0

>  <SCORE.RESTR.CAVITY>
0

>  <SCORE.RESTR.norm>
0

>  <SCORE.SYSTEM>
0

>  <SCORE.SYSTEM.CONST>
0

>  <SCORE.SYSTEM.DIHEDRAL>
0

>  <SCORE.SYSTEM.SOLV>
0

>  <SCORE.SYSTEM.norm>
0

>  <SCORE.heavy>
12

>  <SCORE.norm>
-0.940729

>  <RMSD>
43.845

$$$$
ligand
 OpenBabel11021811493D
libRbt.so/2013.1/901 2013/11/27
 12 12  0  0  0  0  0  0  0  0999 V2000
   -0.8884    9.2164   13.6390 N   0  0  0  0  0  0  0  0  0  0  0  0
   -0.3472    6.5408   10.0271 O   0  0  0  0  0  0  0  0  0  0  0  0
   -0.3013   10.3978   12.9604 C   0  0  0  0  0  0  0  0  0  0  0  0
   -0.6589    4.9872   11.7766 O   0  0  0  0  0  0  0  0  0  0  0  0
   -0.7348   11.6502   13.7152 C   0  0  0  0  0  0  0  0  0  0  0  0
   -2.4740    5.3573   10.1632 O   0  0  0  0  0  0  0  0  0  0  0  0
   -0.1731   11.6262   15.0691 N   0  0  0  0  0  0  0  0  0  0  0  0
    0.5649   10.3713   15.2326 C   0  0  0  0  0  0  0  0  0  0  0  0
   -0.4362    9.2444   15.0439 C   0  0  0  0  0  0  0  0  0  0  0  0
   -0.5956    7.8731   12.9979 C   0  0  0  0  0  0  0  0  0  0  0  0
   -1.6814    7.3057   12.0465 C   0  0  0  0  0  0  0  0  0  0  0  0
   -1.2678    6.0387   11.0040 S   0  0  0  0  0  0  0  0  0  0  0  0
  1  3  1  0  0  0  0
  1  9  1  0  0  0  0
  1 10  1  0  0  0  0
  2 12  1  0  0  0  0
  3  5  1  0  0  0  0
  4 12  2  0  0  0  0
  5  7  1  0  0  0  0
  6 12  2  0  0  0  0
  7  8  1  0  0  0  0
  8  9  1  0  0  0  0
 10 11  1  0  0  0  0
 11 12  1  0  0  0  0
M  END
>  <CHROM.1>
-96.61188289,164.44688184,-68.06526333,-0.81081135,8.07879968,12.57066367
-0.93970495,1.26875762,-3.10984830

>  <Name>
ligand

>  <RI>
0

>  <Rbt.Current_Directory>
/home/itssahil/PROJECTS/Mol_Feturizer/New_Systems/rnas/4E8N

>  <Rbt.Executable>
rbdock ($Id: //depot/dev/client3/rdock/2013.1/src/exe/rbdock.cxx#4 $)

>  <Rbt.Library>
libRbt.so (2013.1, Build901 2013/11/27)

>  <Rbt.Parameter_File>
/export/apps/rDock/src/rDock_2013.1_src/data/scripts/dock_solv.prm

>  <Rbt.Receptor>
prm/blind_docking_20.prm

>  <SCORE>
-8.91858

>  <SCORE.INTER>
-5.89137

>  <SCORE.INTER.CONST>
1

>  <SCORE.INTER.POLAR>
0

>  <SCORE.INTER.ROT>
3

>  <SCORE.INTER.SOLV>
3.55325

>  <SCORE.INTER.VDW>
-10.712

>  <SCORE.INTER.norm>
-0.490948

>  <SCORE.INTRA>
-3.02721

>  <SCORE.INTRA.DIHEDRAL>
-2.31515

>  <SCORE.INTRA.DIHEDRAL.0>
5.0186

>  <SCORE.INTRA.POLAR>
0

>  <SCORE.INTRA.POLAR.0>
0

>  <SCORE.INTRA.REPUL>
0

>  <SCORE.INTRA.REPUL.0>
0

>  <SCORE.INTRA.SOLV>
-0.0938715

>  <SCORE.INTRA.SOLV.lig_0>
-16.1608

>  <SCORE.INTRA.VDW>
-1.82269

>  <SCORE.INTRA.VDW.0>
1.14169

>  <SCORE.INTRA.norm>
-0.252267

>  <SCORE.RESTR>
0

>  <SCORE.RESTR.CAVITY>
0

>  <SCORE.RESTR.norm>
0

>  <SCORE.SYSTEM>
0

>  <SCORE.SYSTEM.CONST>
0

>  <SCORE.SYSTEM.DIHEDRAL>
0

>  <SCORE.SYSTEM.SOLV>
0

>  <SCORE.SYSTEM.norm>
0

>  <SCORE.heavy>
12

>  <SCORE.norm>
-0.743215

>  <RMSD>
43.869

$$$$
ligand
 OpenBabel11021811493D
libRbt.so/2013.1/901 2013/11/27
 12 12  0  0  0  0  0  0  0  0999 V2000
   -0.8543    8.3369   12.0877 N   0  0  0  0  0  0  0  0  0  0  0  0
   -0.7254   11.3333   14.6754 O   0  0  0  0  0  0  0  0  0  0  0  0
   -0.5694    8.3017   10.6322 C   0  0  0  0  0  0  0  0  0  0  0  0
    0.7379   10.6852   12.9403 O   0  0  0  0  0  0  0  0  0  0  0  0
    0.6315    7.3908   10.3995 C   0  0  0  0  0  0  0  0  0  0  0  0
   -0.1145   12.9885   12.9931 O   0  0  0  0  0  0  0  0  0  0  0  0
    0.2902    6.0196   10.7899 N   0  0  0  0  0  0  0  0  0  0  0  0
   -1.0756    6.0246   11.3196 C   0  0  0  0  0  0  0  0  0  0  0  0
   -1.0755    6.9454   12.5279 C   0  0  0  0  0  0  0  0  0  0  0  0
   -2.0009    9.2335   12.5150 C   0  0  0  0  0  0  0  0  0  0  0  0
   -1.7571   10.7628   12.4274 C   0  0  0  0  0  0  0  0  0  0  0  0
   -0.4503   11.4278   13.2720 S   0  0  0  0  0  0  0  0  0  0  0  0
  1  3  1  0  0  0  0
  1  9  1  0  0  0  0
  1 10  1  0  0  0  0
  2 12  1  0  0  0  0
  3  5  1  0  0  0  0
  4 12  2  0  0  0  0
  5  7  1  0  0  0  0
  6 12  2  0  0  0  0
  7  8  1  0  0  0  0
  8  9  1  0  0  0  0
 10 11  1  0  0  0  0
 11 12  1  0  0  0  0
M  END
>  <CHROM.1>
-71.35436941,-57.06620695,-68.74942801,-0.55132456,9.41609746,12.35501717
1.56171032,-0.63568230,-2.72107684

>  <Name>
ligand

>  <RI>
0

>  <Rbt.Current_Directory>
/home/itssahil/PROJECTS/Mol_Feturizer/New_Systems/rnas/4E8N

>  <Rbt.Executable>
rbdock ($Id: //depot/dev/client3/rdock/2013.1/src/exe/rbdock.cxx#4 $)

>  <Rbt.Library>
libRbt.so (2013.1, Build901 2013/11/27)

>  <Rbt.Parameter_File>
/export/apps/rDock/src/rDock_2013.1_src/data/scripts/dock_solv.prm

>  <Rbt.Receptor>
prm/blind_docking_20.prm

>  <SCORE>
-8.68332

>  <SCORE.INTER>
-4.4735

>  <SCORE.INTER.CONST>
1

>  <SCORE.INTER.POLAR>
0

>  <SCORE.INTER.ROT>
3

>  <SCORE.INTER.SOLV>
7.27739

>  <SCORE.INTER.VDW>
-11.0081

>  <SCORE.INTER.norm>
-0.372791

>  <SCORE.INTRA>
-4.20982

>  <SCORE.INTRA.DIHEDRAL>
-4.5492

>  <SCORE.INTRA.DIHEDRAL.0>
5.0186

>  <SCORE.INTRA.POLAR>
0

>  <SCORE.INTRA.POLAR.0>
0

>  <SCORE.INTRA.REPUL>
0

>  <SCORE.INTRA.REPUL.0>
0

>  <SCORE.INTRA.SOLV>
0.644828

>  <SCORE.INTRA.SOLV.lig_0>
-16.1608

>  <SCORE.INTRA.VDW>
-2.25764

>  <SCORE.INTRA.VDW.0>
1.14169

>  <SCORE.INTRA.norm>
-0.350819

>  <SCORE.RESTR>
0

>  <SCORE.RESTR.CAVITY>
0

>  <SCORE.RESTR.norm>
0

>  <SCORE.SYSTEM>
0

>  <SCORE.SYSTEM.CONST>
0

>  <SCORE.SYSTEM.DIHEDRAL>
0

>  <SCORE.SYSTEM.SOLV>
0

>  <SCORE.SYSTEM.norm>
0

>  <SCORE.heavy>
12

>  <SCORE.norm>
-0.72361

>  <RMSD>
43.869

$$$$
ligand
 OpenBabel11021811493D
libRbt.so/2013.1/901 2013/11/27
 12 12  0  0  0  0  0  0  0  0999 V2000
   -0.9846    9.1500   13.6979 N   0  0  0  0  0  0  0  0  0  0  0  0
   -0.3490    6.5592   10.0193 O   0  0  0  0  0  0  0  0  0  0  0  0
   -0.4996   10.3568   12.9840 C   0  0  0  0  0  0  0  0  0  0  0  0
   -0.6753    4.9830   11.7458 O   0  0  0  0  0  0  0  0  0  0  0  0
   -0.9370   11.5884   13.7701 C   0  0  0  0  0  0  0  0  0  0  0  0
   -2.4662    5.3539   10.1058 O   0  0  0  0  0  0  0  0  0  0  0  0
   -0.2834   11.5905   15.0823 N   0  0  0  0  0  0  0  0  0  0  0  0
    0.5204   10.3705   15.1916 C   0  0  0  0  0  0  0  0  0  0  0  0
   -0.4391    9.1991   15.0686 C   0  0  0  0  0  0  0  0  0  0  0  0
   -0.6756    7.8213   13.0345 C   0  0  0  0  0  0  0  0  0  0  0  0
   -1.7248    7.2884   12.0240 C   0  0  0  0  0  0  0  0  0  0  0  0
   -1.2811    6.0372   10.9747 S   0  0  0  0  0  0  0  0  0  0  0  0
  1  3  1  0  0  0  0
  1  9  1  0  0  0  0
  1 10  1  0  0  0  0
  2 12  1  0  0  0  0
  3  5  1  0  0  0  0
  4 12  2  0  0  0  0
  5  7  1  0  0  0  0
  6 12  2  0  0  0  0
  7  8  1  0  0  0  0
  8  9  1  0  0  0  0
 10 11  1  0  0  0  0
 11 12  1  0  0  0  0
M  END
>  <CHROM.1>
-89.42567482,164.90152216,-70.19903454,-0.87060132,8.05610803,12.56863183
-1.08619782,1.22111740,-2.94875088

>  <Name>
ligand

>  <RI>
0

>  <Rbt.Current_Directory>
/home/itssahil/PROJECTS/Mol_Feturizer/New_Systems/rnas/4E8N

>  <Rbt.Executable>
rbdock ($Id: //depot/dev/client3/rdock/2013.1/src/exe/rbdock.cxx#4 $)

>  <Rbt.Library>
libRbt.so (2013.1, Build901 2013/11/27)

>  <Rbt.Parameter_File>
/export/apps/rDock/src/rDock_2013.1_src/data/scripts/dock_solv.prm

>  <Rbt.Receptor>
prm/blind_docking_20.prm

>  <SCORE>
-9.00666

>  <SCORE.INTER>
-5.81759

>  <SCORE.INTER.CONST>
1

>  <SCORE.INTER.POLAR>
0

>  <SCORE.INTER.ROT>
3

>  <SCORE.INTER.SOLV>
3.40586

>  <SCORE.INTER.VDW>
-10.6137

>  <SCORE.INTER.norm>
-0.484799

>  <SCORE.INTRA>
-3.18937

>  <SCORE.INTRA.DIHEDRAL>
-2.70784

>  <SCORE.INTRA.DIHEDRAL.0>
5.0186

>  <SCORE.INTRA.POLAR>
0

>  <SCORE.INTRA.POLAR.0>
0

>  <SCORE.INTRA.REPUL>
0

>  <SCORE.INTRA.REPUL.0>
0

>  <SCORE.INTRA.SOLV>
-0.0877722

>  <SCORE.INTRA.SOLV.lig_0>
-16.1608

>  <SCORE.INTRA.VDW>
-1.79156

>  <SCORE.INTRA.VDW.0>
1.14169

>  <SCORE.INTRA.norm>
-0.265781

>  <SCORE.RESTR>
0.000293497

>  <SCORE.RESTR.CAVITY>
0.000293497

>  <SCORE.RESTR.norm>
2.44581e-05

>  <SCORE.SYSTEM>
0

>  <SCORE.SYSTEM.CONST>
0

>  <SCORE.SYSTEM.DIHEDRAL>
0

>  <SCORE.SYSTEM.SOLV>
0

>  <SCORE.SYSTEM.norm>
0

>  <SCORE.heavy>
12

>  <SCORE.norm>
-0.750555

>  <RMSD>
43.901

$$$$
ligand
 OpenBabel11021811493D
libRbt.so/2013.1/901 2013/11/27
 12 12  0  0  0  0  0  0  0  0999 V2000
   -1.0734    8.8715   14.0498 N   0  0  0  0  0  0  0  0  0  0  0  0
   -1.7957    6.0959    9.7741 O   0  0  0  0  0  0  0  0  0  0  0  0
    0.1203    9.7461   13.9445 C   0  0  0  0  0  0  0  0  0  0  0  0
   -0.5050    5.0977   11.4798 O   0  0  0  0  0  0  0  0  0  0  0  0
   -0.1897   11.0680   14.6391 C   0  0  0  0  0  0  0  0  0  0  0  0
   -2.9543    5.0881   11.6674 O   0  0  0  0  0  0  0  0  0  0  0  0
   -0.4073   10.8315   16.0694 N   0  0  0  0  0  0  0  0  0  0  0  0
   -0.3022    9.3908   16.3128 C   0  0  0  0  0  0  0  0  0  0  0  0
   -1.3874    8.7243   15.4846 C   0  0  0  0  0  0  0  0  0  0  0  0
   -0.9625    7.5181   13.3736 C   0  0  0  0  0  0  0  0  0  0  0  0
   -1.4128    7.4430   11.8912 C   0  0  0  0  0  0  0  0  0  0  0  0
   -1.6494    5.9216   11.1891 S   0  0  0  0  0  0  0  0  0  0  0  0
  1  3  1  0  0  0  0
  1  9  1  0  0  0  0
  1 10  1  0  0  0  0
  2 12  1  0  0  0  0
  3  5  1  0  0  0  0
  4 12  2  0  0  0  0
  5  7  1  0  0  0  0
  6 12  2  0  0  0  0
  7  8  1  0  0  0  0
  8  9  1  0  0  0  0
 10 11  1  0  0  0  0
 11 12  1  0  0  0  0
M  END
>  <CHROM.1>
-89.94321342,-166.24407444,-168.65030933,-1.12201296,7.71059361,13.05010033
-1.06377929,-1.13130010,-1.89280198

>  <Name>
ligand

>  <RI>
0

>  <Rbt.Current_Directory>
/home/itssahil/PROJECTS/Mol_Feturizer/New_Systems/rnas/4E8N

>  <Rbt.Executable>
rbdock ($Id: //depot/dev/client3/rdock/2013.1/src/exe/rbdock.cxx#4 $)

>  <Rbt.Library>
libRbt.so (2013.1, Build901 2013/11/27)

>  <Rbt.Parameter_File>
/export/apps/rDock/src/rDock_2013.1_src/data/scripts/dock_solv.prm

>  <Rbt.Receptor>
prm/blind_docking_20.prm

>  <SCORE>
-8.44652

>  <SCORE.INTER>
-5.34412

>  <SCORE.INTER.CONST>
1

>  <SCORE.INTER.POLAR>
0

>  <SCORE.INTER.ROT>
3

>  <SCORE.INTER.SOLV>
3.02747

>  <SCORE.INTER.VDW>
-10.1719

>  <SCORE.INTER.norm>
-0.445343

>  <SCORE.INTRA>
-3.1024

>  <SCORE.INTRA.DIHEDRAL>
-2.72468

>  <SCORE.INTRA.DIHEDRAL.0>
5.0186

>  <SCORE.INTRA.POLAR>
0

>  <SCORE.INTRA.POLAR.0>
0

>  <SCORE.INTRA.REPUL>
0

>  <SCORE.INTRA.REPUL.0>
0

>  <SCORE.INTRA.SOLV>
0.0688708

>  <SCORE.INTRA.SOLV.lig_0>
-16.1608

>  <SCORE.INTRA.VDW>
-1.7745

>  <SCORE.INTRA.VDW.0>
1.14169

>  <SCORE.INTRA.norm>
-0.258534

>  <SCORE.RESTR>
0

>  <SCORE.RESTR.CAVITY>
0

>  <SCORE.RESTR.norm>
0

>  <SCORE.SYSTEM>
0

>  <SCORE.SYSTEM.CONST>
0

>  <SCORE.SYSTEM.DIHEDRAL>
0

>  <SCORE.SYSTEM.SOLV>
0

>  <SCORE.SYSTEM.norm>
0

>  <SCORE.heavy>
12

>  <SCORE.norm>
-0.703877

>  <RMSD>
43.913

$$$$
ligand
 OpenBabel11021811493D
libRbt.so/2013.1/901 2013/11/27
 12 12  0  0  0  0  0  0  0  0999 V2000
    0.3892    9.6936   14.3929 N   0  0  0  0  0  0  0  0  0  0  0  0
    0.8087    7.6789   11.9500 O   0  0  0  0  0  0  0  0  0  0  0  0
    0.6416   10.7421   15.4117 C   0  0  0  0  0  0  0  0  0  0  0  0
   -0.7261    5.8858   11.9259 O   0  0  0  0  0  0  0  0  0  0  0  0
    1.7594   11.6468   14.9035 C   0  0  0  0  0  0  0  0  0  0  0  0
   -1.5449    8.1709   11.5486 O   0  0  0  0  0  0  0  0  0  0  0  0
    1.3151   12.3423   13.6919 N   0  0  0  0  0  0  0  0  0  0  0  0
   -0.0351   11.8746   13.3688 C   0  0  0  0  0  0  0  0  0  0  0  0
    0.0639   10.3782   13.1262 C   0  0  0  0  0  0  0  0  0  0  0  0
   -0.6718    8.6693   14.7480 C   0  0  0  0  0  0  0  0  0  0  0  0
   -0.5681    7.2896   14.0467 C   0  0  0  0  0  0  0  0  0  0  0  0
   -0.4934    7.2397   12.3570 S   0  0  0  0  0  0  0  0  0  0  0  0
  1  3  1  0  0  0  0
  1  9  1  0  0  0  0
  1 10  1  0  0  0  0
  2 12  1  0  0  0  0
  3  5  1  0  0  0  0
  4 12  2  0  0  0  0
  5  7  1  0  0  0  0
  6 12  2  0  0  0  0
  7  8  1  0  0  0  0
  8  9  1  0  0  0  0
 10 11  1  0  0  0  0
 11 12  1  0  0  0  0
M  END
>  <CHROM.1>
-155.54986210,-54.06811761,73.62417040,0.00698266,9.04396814,13.30198932
-0.07274733,1.27609510,2.08071932

>  <Name>
ligand

>  <RI>
0

>  <Rbt.Current_Directory>
/home/itssahil/PROJECTS/Mol_Feturizer/New_Systems/rnas/4E8N

>  <Rbt.Executable>
rbdock ($Id: //depot/dev/client3/rdock/2013.1/src/exe/rbdock.cxx#4 $)

>  <Rbt.Library>
libRbt.so (2013.1, Build901 2013/11/27)

>  <Rbt.Parameter_File>
/export/apps/rDock/src/rDock_2013.1_src/data/scripts/dock_solv.prm

>  <Rbt.Receptor>
prm/blind_docking_20.prm

>  <SCORE>
-10.5755

>  <SCORE.INTER>
-6.63714

>  <SCORE.INTER.CONST>
1

>  <SCORE.INTER.POLAR>
0

>  <SCORE.INTER.ROT>
3

>  <SCORE.INTER.SOLV>
4.73856

>  <SCORE.INTER.VDW>
-11.6043

>  <SCORE.INTER.norm>
-0.553095

>  <SCORE.INTRA>
-3.9384

>  <SCORE.INTRA.DIHEDRAL>
-3.65919

>  <SCORE.INTRA.DIHEDRAL.0>
5.0186

>  <SCORE.INTRA.POLAR>
0

>  <SCORE.INTRA.POLAR.0>
0

>  <SCORE.INTRA.REPUL>
0

>  <SCORE.INTRA.REPUL.0>
0

>  <SCORE.INTRA.SOLV>
0.370178

>  <SCORE.INTRA.SOLV.lig_0>
-16.1608

>  <SCORE.INTRA.VDW>
-2.2939

>  <SCORE.INTRA.VDW.0>
1.14169

>  <SCORE.INTRA.norm>
-0.3282

>  <SCORE.RESTR>
0

>  <SCORE.RESTR.CAVITY>
0

>  <SCORE.RESTR.norm>
0

>  <SCORE.SYSTEM>
0

>  <SCORE.SYSTEM.CONST>
0

>  <SCORE.SYSTEM.DIHEDRAL>
0

>  <SCORE.SYSTEM.SOLV>
0

>  <SCORE.SYSTEM.norm>
0

>  <SCORE.heavy>
12

>  <SCORE.norm>
-0.881295

>  <RMSD>
43.934

$$$$
ligand
 OpenBabel11021811493D
libRbt.so/2013.1/901 2013/11/27
 12 12  0  0  0  0  0  0  0  0999 V2000
   -0.9313    7.9440   12.6462 N   0  0  0  0  0  0  0  0  0  0  0  0
    1.8080   12.2876   13.0046 O   0  0  0  0  0  0  0  0  0  0  0  0
   -0.4342    7.5753   11.2979 C   0  0  0  0  0  0  0  0  0  0  0  0
   -0.5064   12.5196   12.6028 O   0  0  0  0  0  0  0  0  0  0  0  0
   -0.4606    6.0553   11.1751 C   0  0  0  0  0  0  0  0  0  0  0  0
    0.2794   12.1258   14.8967 O   0  0  0  0  0  0  0  0  0  0  0  0
   -1.8455    5.5808   11.2520 N   0  0  0  0  0  0  0  0  0  0  0  0
   -2.7115    6.7411   11.4760 C   0  0  0  0  0  0  0  0  0  0  0  0
   -2.2807    7.3639   12.7930 C   0  0  0  0  0  0  0  0  0  0  0  0
   -0.9369    9.4270   12.9654 C   0  0  0  0  0  0  0  0  0  0  0  0
    0.4253   10.1630   12.8724 C   0  0  0  0  0  0  0  0  0  0  0  0
    0.5028   11.7912   13.3269 S   0  0  0  0  0  0  0  0  0  0  0  0
  1  3  1  0  0  0  0
  1  9  1  0  0  0  0
  1 10  1  0  0  0  0
  2 12  1  0  0  0  0
  3  5  1  0  0  0  0
  4 12  2  0  0  0  0
  5  7  1  0  0  0  0
  6 12  2  0  0  0  0
  7  8  1  0  0  0  0
  8  9  1  0  0  0  0
 10 11  1  0  0  0  0
 11 12  1  0  0  0  0
M  END
>  <CHROM.1>
-58.04674517,-175.56118408,-173.15969005,-0.45376659,9.47914497,12.63106502
1.96172444,-0.40688284,-2.65660444

>  <Name>
ligand

>  <RI>
0

>  <Rbt.Current_Directory>
/home/itssahil/PROJECTS/Mol_Feturizer/New_Systems/rnas/4E8N

>  <Rbt.Executable>
rbdock ($Id: //depot/dev/client3/rdock/2013.1/src/exe/rbdock.cxx#4 $)

>  <Rbt.Library>
libRbt.so (2013.1, Build901 2013/11/27)

>  <Rbt.Parameter_File>
/export/apps/rDock/src/rDock_2013.1_src/data/scripts/dock_solv.prm

>  <Rbt.Receptor>
prm/blind_docking_20.prm

>  <SCORE>
-10.4929

>  <SCORE.INTER>
-6.68162

>  <SCORE.INTER.CONST>
1

>  <SCORE.INTER.POLAR>
0

>  <SCORE.INTER.ROT>
3

>  <SCORE.INTER.SOLV>
4.70105

>  <SCORE.INTER.VDW>
-11.6214

>  <SCORE.INTER.norm>
-0.556801

>  <SCORE.INTRA>
-3.81126

>  <SCORE.INTRA.DIHEDRAL>
-4.8175

>  <SCORE.INTRA.DIHEDRAL.0>
5.0186

>  <SCORE.INTRA.POLAR>
0

>  <SCORE.INTRA.POLAR.0>
0

>  <SCORE.INTRA.REPUL>
0

>  <SCORE.INTRA.REPUL.0>
0

>  <SCORE.INTRA.SOLV>
0.0731828

>  <SCORE.INTRA.SOLV.lig_0>
-16.1608

>  <SCORE.INTRA.VDW>
-1.4391

>  <SCORE.INTRA.VDW.0>
1.14169

>  <SCORE.INTRA.norm>
-0.317605

>  <SCORE.RESTR>
0

>  <SCORE.RESTR.CAVITY>
0

>  <SCORE.RESTR.norm>
0

>  <SCORE.SYSTEM>
0

>  <SCORE.SYSTEM.CONST>
0

>  <SCORE.SYSTEM.DIHEDRAL>
0

>  <SCORE.SYSTEM.SOLV>
0

>  <SCORE.SYSTEM.norm>
0

>  <SCORE.heavy>
12

>  <SCORE.norm>
-0.874406

>  <RMSD>
43.953

$$$$
ligand
 OpenBabel11021811493D
libRbt.so/2013.1/901 2013/11/27
 12 12  0  0  0  0  0  0  0  0999 V2000
    0.3853    9.7008   14.3593 N   0  0  0  0  0  0  0  0  0  0  0  0
    0.6696    7.7366   11.8825 O   0  0  0  0  0  0  0  0  0  0  0  0
    0.6772   10.7412   15.3758 C   0  0  0  0  0  0  0  0  0  0  0  0
   -0.7573    5.8576   11.9532 O   0  0  0  0  0  0  0  0  0  0  0  0
    1.7766   11.6484   14.8329 C   0  0  0  0  0  0  0  0  0  0  0  0
   -1.7264    8.0874   11.6017 O   0  0  0  0  0  0  0  0  0  0  0  0
    1.2882   12.3536   13.6441 N   0  0  0  0  0  0  0  0  0  0  0  0
   -0.0739   11.8900   13.3683 C   0  0  0  0  0  0  0  0  0  0  0  0
    0.0137   10.3954   13.1109 C   0  0  0  0  0  0  0  0  0  0  0  0
   -0.6633    8.6751   14.7462 C   0  0  0  0  0  0  0  0  0  0  0  0
   -0.5711    7.2912   14.0517 C   0  0  0  0  0  0  0  0  0  0  0  0
   -0.5818    7.2273   12.3608 S   0  0  0  0  0  0  0  0  0  0  0  0
  1  3  1  0  0  0  0
  1  9  1  0  0  0  0
  1 10  1  0  0  0  0
  2 12  1  0  0  0  0
  3  5  1  0  0  0  0
  4 12  2  0  0  0  0
  5  7  1  0  0  0  0
  6 12  2  0  0  0  0
  7  8  1  0  0  0  0
  8  9  1  0  0  0  0
 10 11  1  0  0  0  0
 11 12  1  0  0  0  0
M  END
>  <CHROM.1>
-154.37619125,-55.83059182,71.29446854,-0.04149001,9.04172742,13.28908260
-0.20461907,1.25354975,2.20931466

>  <Name>
ligand

>  <RI>
0

>  <Rbt.Current_Directory>
/home/itssahil/PROJECTS/Mol_Feturizer/New_Systems/rnas/4E8N

>  <Rbt.Executable>
rbdock ($Id: //depot/dev/client3/rdock/2013.1/src/exe/rbdock.cxx#4 $)

>  <Rbt.Library>
libRbt.so (2013.1, Build901 2013/11/27)

>  <Rbt.Parameter_File>
/export/apps/rDock/src/rDock_2013.1_src/data/scripts/dock_solv.prm

>  <Rbt.Receptor>
prm/blind_docking_20.prm

>  <SCORE>
-10.5943

>  <SCORE.INTER>
-6.55847

>  <SCORE.INTER.CONST>
1

>  <SCORE.INTER.POLAR>
0

>  <SCORE.INTER.ROT>
3

>  <SCORE.INTER.SOLV>
4.7843

>  <SCORE.INTER.VDW>
-11.5671

>  <SCORE.INTER.norm>
-0.546539

>  <SCORE.INTRA>
-4.03582

>  <SCORE.INTRA.DIHEDRAL>
-3.79182

>  <SCORE.INTRA.DIHEDRAL.0>
5.0186

>  <SCORE.INTRA.POLAR>
0

>  <SCORE.INTRA.POLAR.0>
0

>  <SCORE.INTRA.REPUL>
0

>  <SCORE.INTRA.REPUL.0>
0

>  <SCORE.INTRA.SOLV>
0.310724

>  <SCORE.INTRA.SOLV.lig_0>
-16.1608

>  <SCORE.INTRA.VDW>
-2.29527

>  <SCORE.INTRA.VDW.0>
1.14169

>  <SCORE.INTRA.norm>
-0.336318

>  <SCORE.RESTR>
0

>  <SCORE.RESTR.CAVITY>
0

>  <SCORE.RESTR.norm>
0

>  <SCORE.SYSTEM>
0

>  <SCORE.SYSTEM.CONST>
0

>  <SCORE.SYSTEM.DIHEDRAL>
0

>  <SCORE.SYSTEM.SOLV>
0

>  <SCORE.SYSTEM.norm>
0

>  <SCORE.heavy>
12

>  <SCORE.norm>
-0.882858

>  <RMSD>
43.960

$$$$
ligand
 OpenBabel11021811493D
libRbt.so/2013.1/901 2013/11/27
 12 12  0  0  0  0  0  0  0  0999 V2000
    0.0527    9.8846   13.3690 N   0  0  0  0  0  0  0  0  0  0  0  0
    0.8178    6.3869   10.4882 O   0  0  0  0  0  0  0  0  0  0  0  0
   -1.3159   10.3339   13.7239 C   0  0  0  0  0  0  0  0  0  0  0  0
   -0.7577    5.0832   11.6671 O   0  0  0  0  0  0  0  0  0  0  0  0
   -1.2194   11.2618   14.9304 C   0  0  0  0  0  0  0  0  0  0  0  0
   -1.5508    6.7263   10.0222 O   0  0  0  0  0  0  0  0  0  0  0  0
   -0.4680   12.4661   14.5643 N   0  0  0  0  0  0  0  0  0  0  0  0
   -0.0278   12.3221   13.1745 C   0  0  0  0  0  0  0  0  0  0  0  0
    0.8633   11.0929   13.1203 C   0  0  0  0  0  0  0  0  0  0  0  0
    0.1489    8.9140   12.2072 C   0  0  0  0  0  0  0  0  0  0  0  0
   -0.3485    7.4679   12.4667 C   0  0  0  0  0  0  0  0  0  0  0  0
   -0.4472    6.3952   11.1618 S   0  0  0  0  0  0  0  0  0  0  0  0
  1  3  1  0  0  0  0
  1  9  1  0  0  0  0
  1 10  1  0  0  0  0
  2 12  1  0  0  0  0
  3  5  1  0  0  0  0
  4 12  2  0  0  0  0
  5  7  1  0  0  0  0
  6 12  2  0  0  0  0
  7  8  1  0  0  0  0
  8  9  1  0  0  0  0
 10 11  1  0  0  0  0
 11 12  1  0  0  0  0
M  END
>  <CHROM.1>
-72.00747939,172.46599929,52.43178290,-0.36751413,8.68928465,12.38488962
-1.55174749,-0.68700233,-2.62498383

>  <Name>
ligand

>  <RI>
0

>  <Rbt.Current_Directory>
/home/itssahil/PROJECTS/Mol_Feturizer/New_Systems/rnas/4E8N

>  <Rbt.Executable>
rbdock ($Id: //depot/dev/client3/rdock/2013.1/src/exe/rbdock.cxx#4 $)

>  <Rbt.Library>
libRbt.so (2013.1, Build901 2013/11/27)

>  <Rbt.Parameter_File>
/export/apps/rDock/src/rDock_2013.1_src/data/scripts/dock_solv.prm

>  <Rbt.Receptor>
prm/blind_docking_20.prm

>  <SCORE>
-10.6621

>  <SCORE.INTER>
-6.7556

>  <SCORE.INTER.CONST>
1

>  <SCORE.INTER.POLAR>
0

>  <SCORE.INTER.ROT>
3

>  <SCORE.INTER.SOLV>
5.26789

>  <SCORE.INTER.VDW>
-11.8597

>  <SCORE.INTER.norm>
-0.562967

>  <SCORE.INTRA>
-3.90652

>  <SCORE.INTRA.DIHEDRAL>
-4.38854

>  <SCORE.INTRA.DIHEDRAL.0>
5.0186

>  <SCORE.INTRA.POLAR>
0

>  <SCORE.INTRA.POLAR.0>
0

>  <SCORE.INTRA.REPUL>
0

>  <SCORE.INTRA.REPUL.0>
0

>  <SCORE.INTRA.SOLV>
-0.121609

>  <SCORE.INTRA.SOLV.lig_0>
-16.1608

>  <SCORE.INTRA.VDW>
-1.65145

>  <SCORE.INTRA.VDW.0>
1.14169

>  <SCORE.INTRA.norm>
-0.325543

>  <SCORE.RESTR>
0

>  <SCORE.RESTR.CAVITY>
0

>  <SCORE.RESTR.norm>
0

>  <SCORE.SYSTEM>
0

>  <SCORE.SYSTEM.CONST>
0

>  <SCORE.SYSTEM.DIHEDRAL>
0

>  <SCORE.SYSTEM.SOLV>
0

>  <SCORE.SYSTEM.norm>
0

>  <SCORE.heavy>
12

>  <SCORE.norm>
-0.88851

>  <RMSD>
43.972

$$$$
ligand
 OpenBabel11021811493D
libRbt.so/2013.1/901 2013/11/27
 12 12  0  0  0  0  0  0  0  0999 V2000
   -0.7049    8.2269   12.1958 N   0  0  0  0  0  0  0  0  0  0  0  0
   -1.3304   11.5052   12.3729 O   0  0  0  0  0  0  0  0  0  0  0  0
   -1.8992    7.4331   12.5758 C   0  0  0  0  0  0  0  0  0  0  0  0
   -0.8214   12.4298   14.4842 O   0  0  0  0  0  0  0  0  0  0  0  0
   -2.6380    7.0367   11.3018 C   0  0  0  0  0  0  0  0  0  0  0  0
    1.0002   11.9937   12.8947 O   0  0  0  0  0  0  0  0  0  0  0  0
   -1.7894    6.1524   10.4975 N   0  0  0  0  0  0  0  0  0  0  0  0
   -0.5036    6.0083   11.1845 C   0  0  0  0  0  0  0  0  0  0  0  0
    0.1027    7.3980   11.2795 C   0  0  0  0  0  0  0  0  0  0  0  0
    0.1362    8.7468   13.3462 C   0  0  0  0  0  0  0  0  0  0  0  0
   -0.4530    9.9293   14.1589 C   0  0  0  0  0  0  0  0  0  0  0  0
   -0.4207   11.4789   13.4800 S   0  0  0  0  0  0  0  0  0  0  0  0
  1  3  1  0  0  0  0
  1  9  1  0  0  0  0
  1 10  1  0  0  0  0
  2 12  1  0  0  0  0
  3  5  1  0  0  0  0
  4 12  2  0  0  0  0
  5  7  1  0  0  0  0
  6 12  2  0  0  0  0
  7  8  1  0  0  0  0
  8  9  1  0  0  0  0
 10 11  1  0  0  0  0
 11 12  1  0  0  0  0
M  END
>  <CHROM.1>
-73.60097151,-75.58258253,68.81135888,-0.73118281,9.34928334,12.59864407
-1.74879856,-0.01158496,0.42143660

>  <Name>
ligand

>  <RI>
0

>  <Rbt.Current_Directory>
/home/itssahil/PROJECTS/Mol_Feturizer/New_Systems/rnas/4E8N

>  <Rbt.Executable>
rbdock ($Id: //depot/dev/client3/rdock/2013.1/src/exe/rbdock.cxx#4 $)

>  <Rbt.Library>
libRbt.so (2013.1, Build901 2013/11/27)

>  <Rbt.Parameter_File>
/export/apps/rDock/src/rDock_2013.1_src/data/scripts/dock_solv.prm

>  <Rbt.Receptor>
prm/blind_docking_20.prm

>  <SCORE>
-9.0203

>  <SCORE.INTER>
-5.14182

>  <SCORE.INTER.CONST>
1

>  <SCORE.INTER.POLAR>
0

>  <SCORE.INTER.ROT>
3

>  <SCORE.INTER.SOLV>
3.83887

>  <SCORE.INTER.VDW>
-10.3075

>  <SCORE.INTER.norm>
-0.428485

>  <SCORE.INTRA>
-3.87848

>  <SCORE.INTRA.DIHEDRAL>
-3.59523

>  <SCORE.INTRA.DIHEDRAL.0>
5.0186

>  <SCORE.INTRA.POLAR>
0

>  <SCORE.INTRA.POLAR.0>
0

>  <SCORE.INTRA.REPUL>
0

>  <SCORE.INTRA.REPUL.0>
0

>  <SCORE.INTRA.SOLV>
0.0703204

>  <SCORE.INTRA.SOLV.lig_0>
-16.1608

>  <SCORE.INTRA.VDW>
-2.11603

>  <SCORE.INTRA.VDW.0>
1.14169

>  <SCORE.INTRA.norm>
-0.323207

>  <SCORE.RESTR>
0

>  <SCORE.RESTR.CAVITY>
0

>  <SCORE.RESTR.norm>
0

>  <SCORE.SYSTEM>
0

>  <SCORE.SYSTEM.CONST>
0

>  <SCORE.SYSTEM.DIHEDRAL>
0

>  <SCORE.SYSTEM.SOLV>
0

>  <SCORE.SYSTEM.norm>
0

>  <SCORE.heavy>
12

>  <SCORE.norm>
-0.751692

>  <RMSD>
44.004

$$$$
ligand
 OpenBabel11021811493D
libRbt.so/2013.1/901 2013/11/27
 12 12  0  0  0  0  0  0  0  0999 V2000
    0.3041    9.6766   14.1789 N   0  0  0  0  0  0  0  0  0  0  0  0
   -0.7213    5.7400   11.9344 O   0  0  0  0  0  0  0  0  0  0  0  0
    0.6524   10.7413   15.1515 C   0  0  0  0  0  0  0  0  0  0  0  0
   -1.9760    7.7388   11.9841 O   0  0  0  0  0  0  0  0  0  0  0  0
    1.6080   11.7176   14.4734 C   0  0  0  0  0  0  0  0  0  0  0  0
    0.4092    7.8338   11.4042 O   0  0  0  0  0  0  0  0  0  0  0  0
    0.9236   12.3799   13.3589 N   0  0  0  0  0  0  0  0  0  0  0  0
   -0.4276   11.8227   13.2599 C   0  0  0  0  0  0  0  0  0  0  0  0
   -0.2717   10.3358   12.9902 C   0  0  0  0  0  0  0  0  0  0  0  0
   -0.6132    8.5843   14.6954 C   0  0  0  0  0  0  0  0  0  0  0  0
   -0.5098    7.2026   13.9982 C   0  0  0  0  0  0  0  0  0  0  0  0
   -0.7204    7.1200   12.3212 S   0  0  0  0  0  0  0  0  0  0  0  0
  1  3  1  0  0  0  0
  1  9  1  0  0  0  0
  1 10  1  0  0  0  0
  2 12  1  0  0  0  0
  3  5  1  0  0  0  0
  4 12  2  0  0  0  0
  5  7  1  0  0  0  0
  6 12  2  0  0  0  0
  7  8  1  0  0  0  0
  8  9  1  0  0  0  0
 10 11  1  0  0  0  0
 11 12  1  0  0  0  0
M  END
>  <CHROM.1>
-153.98408156,-55.64488184,-173.98607586,-0.18916297,8.97597958,13.17208403
-0.23033375,1.27726347,2.18182511

>  <Name>
ligand

>  <RI>
0

>  <Rbt.Current_Directory>
/home/itssahil/PROJECTS/Mol_Feturizer/New_Systems/rnas/4E8N

>  <Rbt.Executable>
rbdock ($Id: //depot/dev/client3/rdock/2013.1/src/exe/rbdock.cxx#4 $)

>  <Rbt.Library>
libRbt.so (2013.1, Build901 2013/11/27)

>  <Rbt.Parameter_File>
/export/apps/rDock/src/rDock_2013.1_src/data/scripts/dock_solv.prm

>  <Rbt.Receptor>
prm/blind_docking_20.prm

>  <SCORE>
-10.6139

>  <SCORE.INTER>
-6.82861

>  <SCORE.INTER.CONST>
1

>  <SCORE.INTER.POLAR>
0

>  <SCORE.INTER.ROT>
3

>  <SCORE.INTER.SOLV>
4.1537

>  <SCORE.INTER.VDW>
-11.537

>  <SCORE.INTER.norm>
-0.569051

>  <SCORE.INTRA>
-3.78529

>  <SCORE.INTRA.DIHEDRAL>
-3.98548

>  <SCORE.INTRA.DIHEDRAL.0>
5.0186

>  <SCORE.INTRA.POLAR>
0

>  <SCORE.INTRA.POLAR.0>
0

>  <SCORE.INTRA.REPUL>
0

>  <SCORE.INTRA.REPUL.0>
0

>  <SCORE.INTRA.SOLV>
1.03507

>  <SCORE.INTRA.SOLV.lig_0>
-16.1608

>  <SCORE.INTRA.VDW>
-2.31009

>  <SCORE.INTRA.VDW.0>
1.14169

>  <SCORE.INTRA.norm>
-0.315441

>  <SCORE.RESTR>
0

>  <SCORE.RESTR.CAVITY>
0

>  <SCORE.RESTR.norm>
0

>  <SCORE.SYSTEM>
0

>  <SCORE.SYSTEM.CONST>
0

>  <SCORE.SYSTEM.DIHEDRAL>
0

>  <SCORE.SYSTEM.SOLV>
0

>  <SCORE.SYSTEM.norm>
0

>  <SCORE.heavy>
12

>  <SCORE.norm>
-0.884492

>  <RMSD>
44.009

$$$$
ligand
 OpenBabel11021811493D
libRbt.so/2013.1/901 2013/11/27
 12 12  0  0  0  0  0  0  0  0999 V2000
   -0.5219   10.0482   12.4928 N   0  0  0  0  0  0  0  0  0  0  0  0
    1.9652    9.1567   10.7297 O   0  0  0  0  0  0  0  0  0  0  0  0
    0.2233   10.0736   13.7753 C   0  0  0  0  0  0  0  0  0  0  0  0
    1.7415    7.0283    9.7340 O   0  0  0  0  0  0  0  0  0  0  0  0
    0.6818   11.5046   14.0364 C   0  0  0  0  0  0  0  0  0  0  0  0
    0.3129    8.8709    8.9603 O   0  0  0  0  0  0  0  0  0  0  0  0
   -0.4881   12.3692   14.2178 N   0  0  0  0  0  0  0  0  0  0  0  0
   -1.6899   11.5533   14.0276 C   0  0  0  0  0  0  0  0  0  0  0  0
   -1.6341   11.0117   12.6094 C   0  0  0  0  0  0  0  0  0  0  0  0
   -1.0228    8.6876   12.0466 C   0  0  0  0  0  0  0  0  0  0  0  0
    0.0433    7.6952   11.5131 C   0  0  0  0  0  0  0  0  0  0  0  0
    1.0392    8.1814   10.2344 S   0  0  0  0  0  0  0  0  0  0  0  0
  1  3  1  0  0  0  0
  1  9  1  0  0  0  0
  1 10  1  0  0  0  0
  2 12  1  0  0  0  0
  3  5  1  0  0  0  0
  4 12  2  0  0  0  0
  5  7  1  0  0  0  0
  6 12  2  0  0  0  0
  7  8  1  0  0  0  0
  8  9  1  0  0  0  0
 10 11  1  0  0  0  0
 11 12  1  0  0  0  0
M  END
>  <CHROM.1>
-73.24574082,-55.40300870,71.69633482,0.18629907,9.49971530,11.79412560,1.91297201
0.00615498,0.83882500

>  <Name>
ligand

>  <RI>
0

>  <Rbt.Current_Directory>
/home/itssahil/PROJECTS/Mol_Feturizer/New_Systems/rnas/4E8N

>  <Rbt.Executable>
rbdock ($Id: //depot/dev/client3/rdock/2013.1/src/exe/rbdock.cxx#4 $)

>  <Rbt.Library>
libRbt.so (2013.1, Build901 2013/11/27)

>  <Rbt.Parameter_File>
/export/apps/rDock/src/rDock_2013.1_src/data/scripts/dock_solv.prm

>  <Rbt.Receptor>
prm/blind_docking_20.prm

>  <SCORE>
-9.11894

>  <SCORE.INTER>
-4.70751

>  <SCORE.INTER.CONST>
1

>  <SCORE.INTER.POLAR>
0

>  <SCORE.INTER.ROT>
3

>  <SCORE.INTER.SOLV>
6.20164

>  <SCORE.INTER.VDW>
-10.8056

>  <SCORE.INTER.norm>
-0.392293

>  <SCORE.INTRA>
-4.41142

>  <SCORE.INTRA.DIHEDRAL>
-4.25806

>  <SCORE.INTRA.DIHEDRAL.0>
5.0186

>  <SCORE.INTRA.POLAR>
0

>  <SCORE.INTRA.POLAR.0>
0

>  <SCORE.INTRA.REPUL>
0

>  <SCORE.INTRA.REPUL.0>
0

>  <SCORE.INTRA.SOLV>
0.146844

>  <SCORE.INTRA.SOLV.lig_0>
-16.1608

>  <SCORE.INTRA.VDW>
-2.35581

>  <SCORE.INTRA.VDW.0>
1.14169

>  <SCORE.INTRA.norm>
-0.367619

>  <SCORE.RESTR>
0

>  <SCORE.RESTR.CAVITY>
0

>  <SCORE.RESTR.norm>
0

>  <SCORE.SYSTEM>
0

>  <SCORE.SYSTEM.CONST>
0

>  <SCORE.SYSTEM.DIHEDRAL>
0

>  <SCORE.SYSTEM.SOLV>
0

>  <SCORE.SYSTEM.norm>
0

>  <SCORE.heavy>
12

>  <SCORE.norm>
-0.759912

>  <RMSD>
44.034

$$$$
ligand
 OpenBabel11021811493D
libRbt.so/2013.1/901 2013/11/27
 12 12  0  0  0  0  0  0  0  0999 V2000
   -1.5293    8.5130   12.2358 N   0  0  0  0  0  0  0  0  0  0  0  0
   -0.0054   12.8359   12.6263 O   0  0  0  0  0  0  0  0  0  0  0  0
   -0.4007    7.5514   12.2871 C   0  0  0  0  0  0  0  0  0  0  0  0
    0.0921   11.9723   14.8209 O   0  0  0  0  0  0  0  0  0  0  0  0
   -0.8767    6.2207   11.7135 C   0  0  0  0  0  0  0  0  0  0  0  0
    2.1756   12.2635   13.5526 O   0  0  0  0  0  0  0  0  0  0  0  0
   -1.2150    6.3899   10.2972 N   0  0  0  0  0  0  0  0  0  0  0  0
   -1.0254    7.8005    9.9502 C   0  0  0  0  0  0  0  0  0  0  0  0
   -1.9705    8.6009   10.8299 C   0  0  0  0  0  0  0  0  0  0  0  0
   -1.2503    9.8901   12.8076 C   0  0  0  0  0  0  0  0  0  0  0  0
    0.2374   10.3224   12.8842 C   0  0  0  0  0  0  0  0  0  0  0  0
    0.6072   11.8621   13.4809 S   0  0  0  0  0  0  0  0  0  0  0  0
  1  3  1  0  0  0  0
  1  9  1  0  0  0  0
  1 10  1  0  0  0  0
  2 12  1  0  0  0  0
  3  5  1  0  0  0  0
  4 12  2  0  0  0  0
  5  7  1  0  0  0  0
  6 12  2  0  0  0  0
  7  8  1  0  0  0  0
  8  9  1  0  0  0  0
 10 11  1  0  0  0  0
 11 12  1  0  0  0  0
M  END
>  <CHROM.1>
22.08723554,178.64131381,-61.18230341,-0.29612478,9.82623366,12.44478462
2.17075085,0.95504795,3.11812657

>  <Name>
ligand

>  <RI>
0

>  <Rbt.Current_Directory>
/home/itssahil/PROJECTS/Mol_Feturizer/New_Systems/rnas/4E8N

>  <Rbt.Executable>
rbdock ($Id: //depot/dev/client3/rdock/2013.1/src/exe/rbdock.cxx#4 $)

>  <Rbt.Library>
libRbt.so (2013.1, Build901 2013/11/27)

>  <Rbt.Parameter_File>
/export/apps/rDock/src/rDock_2013.1_src/data/scripts/dock_solv.prm

>  <Rbt.Receptor>
prm/blind_docking_20.prm

>  <SCORE>
-7.95251

>  <SCORE.INTER>
-6.03259

>  <SCORE.INTER.CONST>
1

>  <SCORE.INTER.POLAR>
0

>  <SCORE.INTER.ROT>
3

>  <SCORE.INTER.SOLV>
2.96115

>  <SCORE.INTER.VDW>
-10.6088

>  <SCORE.INTER.norm>
-0.502716

>  <SCORE.INTRA>
-1.91992

>  <SCORE.INTRA.DIHEDRAL>
-3.24693

>  <SCORE.INTRA.DIHEDRAL.0>
5.0186

>  <SCORE.INTRA.POLAR>
0

>  <SCORE.INTRA.POLAR.0>
0

>  <SCORE.INTRA.REPUL>
0

>  <SCORE.INTRA.REPUL.0>
0

>  <SCORE.INTRA.SOLV>
-0.0966278

>  <SCORE.INTRA.SOLV.lig_0>
-16.1608

>  <SCORE.INTRA.VDW>
-0.248142

>  <SCORE.INTRA.VDW.0>
1.14169

>  <SCORE.INTRA.norm>
-0.159994

>  <SCORE.RESTR>
0

>  <SCORE.RESTR.CAVITY>
0

>  <SCORE.RESTR.norm>
0

>  <SCORE.SYSTEM>
0

>  <SCORE.SYSTEM.CONST>
0

>  <SCORE.SYSTEM.DIHEDRAL>
0

>  <SCORE.SYSTEM.SOLV>
0

>  <SCORE.SYSTEM.norm>
0

>  <SCORE.heavy>
12

>  <SCORE.norm>
-0.662709

>  <RMSD>
44.062

$$$$
ligand
 OpenBabel11021811493D
libRbt.so/2013.1/901 2013/11/27
 12 12  0  0  0  0  0  0  0  0999 V2000
   -1.1806    9.2627   13.8336 N   0  0  0  0  0  0  0  0  0  0  0  0
   -2.8486    5.5085   11.7203 O   0  0  0  0  0  0  0  0  0  0  0  0
   -0.1261   10.1546   13.2918 C   0  0  0  0  0  0  0  0  0  0  0  0
   -1.7483    6.1757    9.7415 O   0  0  0  0  0  0  0  0  0  0  0  0
   -0.3080   11.5402   13.9027 C   0  0  0  0  0  0  0  0  0  0  0  0
   -0.4620    5.0579   11.5108 O   0  0  0  0  0  0  0  0  0  0  0  0
   -0.0902   11.4704   15.3507 N   0  0  0  0  0  0  0  0  0  0  0  0
    0.1727   10.0731   15.7038 C   0  0  0  0  0  0  0  0  0  0  0  0
   -1.0594    9.2791   15.3047 C   0  0  0  0  0  0  0  0  0  0  0  0
   -1.1817    7.8421   13.3017 C   0  0  0  0  0  0  0  0  0  0  0  0
   -1.5102    7.6639   11.7963 C   0  0  0  0  0  0  0  0  0  0  0  0
   -1.6602    6.0966   11.1765 S   0  0  0  0  0  0  0  0  0  0  0  0
  1  3  1  0  0  0  0
  1  9  1  0  0  0  0
  1 10  1  0  0  0  0
  2 12  1  0  0  0  0
  3  5  1  0  0  0  0
  4 12  2  0  0  0  0
  5  7  1  0  0  0  0
  6 12  2  0  0  0  0
  7  8  1  0  0  0  0
  8  9  1  0  0  0  0
 10 11  1  0  0  0  0
 11 12  1  0  0  0  0
M  END
>  <CHROM.1>
-65.78929752,-174.69477991,69.10944860,-1.08333607,8.04745405,12.81303885
0.39428849,1.32670162,1.83667028

>  <Name>
ligand

>  <RI>
0

>  <Rbt.Current_Directory>
/home/itssahil/PROJECTS/Mol_Feturizer/New_Systems/rnas/4E8N

>  <Rbt.Executable>
rbdock ($Id: //depot/dev/client3/rdock/2013.1/src/exe/rbdock.cxx#4 $)

>  <Rbt.Library>
libRbt.so (2013.1, Build901 2013/11/27)

>  <Rbt.Parameter_File>
/export/apps/rDock/src/rDock_2013.1_src/data/scripts/dock_solv.prm

>  <Rbt.Receptor>
prm/blind_docking_20.prm

>  <SCORE>
-8.8866

>  <SCORE.INTER>
-4.94676

>  <SCORE.INTER.CONST>
1

>  <SCORE.INTER.POLAR>
0

>  <SCORE.INTER.ROT>
3

>  <SCORE.INTER.SOLV>
2.42214

>  <SCORE.INTER.VDW>
-9.70522

>  <SCORE.INTER.norm>
-0.41223

>  <SCORE.INTRA>
-3.93984

>  <SCORE.INTRA.DIHEDRAL>
-4.6126

>  <SCORE.INTRA.DIHEDRAL.0>
5.0186

>  <SCORE.INTRA.POLAR>
0

>  <SCORE.INTRA.POLAR.0>
0

>  <SCORE.INTRA.REPUL>
0

>  <SCORE.INTRA.REPUL.0>
0

>  <SCORE.INTRA.SOLV>
-0.0875441

>  <SCORE.INTRA.SOLV.lig_0>
-16.1608

>  <SCORE.INTRA.VDW>
-1.58977

>  <SCORE.INTRA.VDW.0>
1.14169

>  <SCORE.INTRA.norm>
-0.32832

>  <SCORE.RESTR>
0

>  <SCORE.RESTR.CAVITY>
0

>  <SCORE.RESTR.norm>
0

>  <SCORE.SYSTEM>
0

>  <SCORE.SYSTEM.CONST>
0

>  <SCORE.SYSTEM.DIHEDRAL>
0

>  <SCORE.SYSTEM.SOLV>
0

>  <SCORE.SYSTEM.norm>
0

>  <SCORE.heavy>
12

>  <SCORE.norm>
-0.74055

>  <RMSD>
44.065

$$$$
ligand
 OpenBabel11021811493D
libRbt.so/2013.1/901 2013/11/27
 12 12  0  0  0  0  0  0  0  0999 V2000
   -0.0337    9.7132   13.7292 N   0  0  0  0  0  0  0  0  0  0  0  0
   -0.5684    5.5428   11.7554 O   0  0  0  0  0  0  0  0  0  0  0  0
    0.5156   10.6955   14.6958 C   0  0  0  0  0  0  0  0  0  0  0  0
   -1.8892    7.4943   11.6175 O   0  0  0  0  0  0  0  0  0  0  0  0
    1.2678   11.7685   13.9155 C   0  0  0  0  0  0  0  0  0  0  0  0
    0.5152    7.6364   11.1346 O   0  0  0  0  0  0  0  0  0  0  0  0
    0.3291   12.5041   13.0629 N   0  0  0  0  0  0  0  0  0  0  0  0
   -0.9977   11.9047   13.2256 C   0  0  0  0  0  0  0  0  0  0  0  0
   -0.8843   10.4570   12.7793 C   0  0  0  0  0  0  0  0  0  0  0  0
   -0.7848    8.5416   14.3327 C   0  0  0  0  0  0  0  0  0  0  0  0
   -0.4979    7.1442   13.7236 C   0  0  0  0  0  0  0  0  0  0  0  0
   -0.6303    6.9443   12.0485 S   0  0  0  0  0  0  0  0  0  0  0  0
  1  3  1  0  0  0  0
  1  9  1  0  0  0  0
  1 10  1  0  0  0  0
  2 12  1  0  0  0  0
  3  5  1  0  0  0  0
  4 12  2  0  0  0  0
  5  7  1  0  0  0  0
  6 12  2  0  0  0  0
  7  8  1  0  0  0  0
  8  9  1  0  0  0  0
 10 11  1  0  0  0  0
 11 12  1  0  0  0  0
M  END
>  <CHROM.1>
-137.01735524,-52.31694695,-169.35670039,-0.34605577,8.91301722,12.86605576
-0.86693575,1.31922674,2.78500385

>  <Name>
ligand

>  <RI>
0

>  <Rbt.Current_Directory>
/home/itssahil/PROJECTS/Mol_Feturizer/New_Systems/rnas/4E8N

>  <Rbt.Executable>
rbdock ($Id: //depot/dev/client3/rdock/2013.1/src/exe/rbdock.cxx#4 $)

>  <Rbt.Library>
libRbt.so (2013.1, Build901 2013/11/27)

>  <Rbt.Parameter_File>
/export/apps/rDock/src/rDock_2013.1_src/data/scripts/dock_solv.prm

>  <Rbt.Receptor>
prm/blind_docking_20.prm

>  <SCORE>
-9.71868

>  <SCORE.INTER>
-6.3002

>  <SCORE.INTER.CONST>
1

>  <SCORE.INTER.POLAR>
0

>  <SCORE.INTER.ROT>
3

>  <SCORE.INTER.SOLV>
4.60045

>  <SCORE.INTER.VDW>
-11.3336

>  <SCORE.INTER.norm>
-0.525017

>  <SCORE.INTRA>
-3.41848

>  <SCORE.INTRA.DIHEDRAL>
-2.6323

>  <SCORE.INTRA.DIHEDRAL.0>
5.0186

>  <SCORE.INTRA.POLAR>
0

>  <SCORE.INTRA.POLAR.0>
0

>  <SCORE.INTRA.REPUL>
0

>  <SCORE.INTRA.REPUL.0>
0

>  <SCORE.INTRA.SOLV>
0.956724

>  <SCORE.INTRA.SOLV.lig_0>
-16.1608

>  <SCORE.INTRA.VDW>
-2.58069

>  <SCORE.INTRA.VDW.0>
1.14169

>  <SCORE.INTRA.norm>
-0.284873

>  <SCORE.RESTR>
0

>  <SCORE.RESTR.CAVITY>
0

>  <SCORE.RESTR.norm>
0

>  <SCORE.SYSTEM>
0

>  <SCORE.SYSTEM.CONST>
0

>  <SCORE.SYSTEM.DIHEDRAL>
0

>  <SCORE.SYSTEM.SOLV>
0

>  <SCORE.SYSTEM.norm>
0

>  <SCORE.heavy>
12

>  <SCORE.norm>
-0.80989

>  <RMSD>
44.067

$$$$
ligand
 OpenBabel11021811493D
libRbt.so/2013.1/901 2013/11/27
 12 12  0  0  0  0  0  0  0  0999 V2000
   -0.5909    9.9067   13.1889 N   0  0  0  0  0  0  0  0  0  0  0  0
    0.6260    6.4607   10.3875 O   0  0  0  0  0  0  0  0  0  0  0  0
   -1.7384   10.8454   13.2412 C   0  0  0  0  0  0  0  0  0  0  0  0
   -0.6708    4.9740   11.6837 O   0  0  0  0  0  0  0  0  0  0  0  0
   -1.5988   11.7058   14.4928 C   0  0  0  0  0  0  0  0  0  0  0  0
   -1.7827    6.3959   10.0174 O   0  0  0  0  0  0  0  0  0  0  0  0
   -0.3912   12.5304   14.3890 N   0  0  0  0  0  0  0  0  0  0  0  0
    0.2847   12.1905   13.1345 C   0  0  0  0  0  0  0  0  0  0  0  0
    0.6432   10.7164   13.2132 C   0  0  0  0  0  0  0  0  0  0  0  0
   -0.5840    8.9360   12.0232 C   0  0  0  0  0  0  0  0  0  0  0  0
   -0.6220    7.4260   12.3760 C   0  0  0  0  0  0  0  0  0  0  0  0
   -0.5965    6.2956   11.1171 S   0  0  0  0  0  0  0  0  0  0  0  0
  1  3  1  0  0  0  0
  1  9  1  0  0  0  0
  1 10  1  0  0  0  0
  2 12  1  0  0  0  0
  3  5  1  0  0  0  0
  4 12  2  0  0  0  0
  5  7  1  0  0  0  0
  6 12  2  0  0  0  0
  7  8  1  0  0  0  0
  8  9  1  0  0  0  0
 10 11  1  0  0  0  0
 11 12  1  0  0  0  0
M  END
>  <CHROM.1>
-119.30572361,-179.24193081,61.27726609,-0.58694995,8.67971713,12.26080542
1.56164399,0.28598006,0.47024483

>  <Name>
ligand

>  <RI>
0

>  <Rbt.Current_Directory>
/home/itssahil/PROJECTS/Mol_Feturizer/New_Systems/rnas/4E8N

>  <Rbt.Executable>
rbdock ($Id: //depot/dev/client3/rdock/2013.1/src/exe/rbdock.cxx#4 $)

>  <Rbt.Library>
libRbt.so (2013.1, Build901 2013/11/27)

>  <Rbt.Parameter_File>
/export/apps/rDock/src/rDock_2013.1_src/data/scripts/dock_solv.prm

>  <Rbt.Receptor>
prm/blind_docking_20.prm

>  <SCORE>
-9.81908

>  <SCORE.INTER>
-6.57245

>  <SCORE.INTER.CONST>
1

>  <SCORE.INTER.POLAR>
0

>  <SCORE.INTER.ROT>
3

>  <SCORE.INTER.SOLV>
5.46761

>  <SCORE.INTER.VDW>
-11.8042

>  <SCORE.INTER.norm>
-0.547704

>  <SCORE.INTRA>
-3.24662

>  <SCORE.INTRA.DIHEDRAL>
-2.61463

>  <SCORE.INTRA.DIHEDRAL.0>
5.0186

>  <SCORE.INTRA.POLAR>
0

>  <SCORE.INTRA.POLAR.0>
0

>  <SCORE.INTRA.REPUL>
0

>  <SCORE.INTRA.REPUL.0>
0

>  <SCORE.INTRA.SOLV>
-0.108904

>  <SCORE.INTRA.SOLV.lig_0>
-16.1608

>  <SCORE.INTRA.VDW>
-1.88486

>  <SCORE.INTRA.VDW.0>
1.14169

>  <SCORE.INTRA.norm>
-0.270552

>  <SCORE.RESTR>
0

>  <SCORE.RESTR.CAVITY>
0

>  <SCORE.RESTR.norm>
0

>  <SCORE.SYSTEM>
0

>  <SCORE.SYSTEM.CONST>
0

>  <SCORE.SYSTEM.DIHEDRAL>
0

>  <SCORE.SYSTEM.SOLV>
0

>  <SCORE.SYSTEM.norm>
0

>  <SCORE.heavy>
12

>  <SCORE.norm>
-0.818256

>  <RMSD>
44.122

$$$$
ligand
 OpenBabel11021811493D
libRbt.so/2013.1/901 2013/11/27
 12 12  0  0  0  0  0  0  0  0999 V2000
   -0.9843    8.2176   12.2462 N   0  0  0  0  0  0  0  0  0  0  0  0
   -0.1077   12.7680   12.6712 O   0  0  0  0  0  0  0  0  0  0  0  0
   -2.0107    7.2340   12.6705 C   0  0  0  0  0  0  0  0  0  0  0  0
   -1.7718   11.2353   11.9977 O   0  0  0  0  0  0  0  0  0  0  0  0
   -2.7346    6.7282   11.4270 C   0  0  0  0  0  0  0  0  0  0  0  0
   -1.6398   11.9024   14.3583 O   0  0  0  0  0  0  0  0  0  0  0  0
   -1.7913    6.0021   10.5715 N   0  0  0  0  0  0  0  0  0  0  0  0
   -0.4675    6.0695   11.1954 C   0  0  0  0  0  0  0  0  0  0  0  0
   -0.0960    7.5400   11.2814 C   0  0  0  0  0  0  0  0  0  0  0  0
   -0.1861    8.8629   13.3632 C   0  0  0  0  0  0  0  0  0  0  0  0
    0.3246   10.3052   13.1087 C   0  0  0  0  0  0  0  0  0  0  0  0
   -0.8038   11.5625   13.0122 S   0  0  0  0  0  0  0  0  0  0  0  0
  1  3  1  0  0  0  0
  1  9  1  0  0  0  0
  1 10  1  0  0  0  0
  2 12  1  0  0  0  0
  3  5  1  0  0  0  0
  4 12  2  0  0  0  0
  5  7  1  0  0  0  0
  6 12  2  0  0  0  0
  7  8  1  0  0  0  0
  8  9  1  0  0  0  0
 10 11  1  0  0  0  0
 11 12  1  0  0  0  0
M  END
>  <CHROM.1>
-149.87532651,68.12578708,-175.55812916,-1.00649033,9.36338135,12.41096757
-1.68083861,0.06361248,0.33432632

>  <Name>
ligand

>  <RI>
0

>  <Rbt.Current_Directory>
/home/itssahil/PROJECTS/Mol_Feturizer/New_Systems/rnas/4E8N

>  <Rbt.Executable>
rbdock ($Id: //depot/dev/client3/rdock/2013.1/src/exe/rbdock.cxx#4 $)

>  <Rbt.Library>
libRbt.so (2013.1, Build901 2013/11/27)

>  <Rbt.Parameter_File>
/export/apps/rDock/src/rDock_2013.1_src/data/scripts/dock_solv.prm

>  <Rbt.Receptor>
prm/blind_docking_20.prm

>  <SCORE>
-10.2715

>  <SCORE.INTER>
-6.5948

>  <SCORE.INTER.CONST>
1

>  <SCORE.INTER.POLAR>
0

>  <SCORE.INTER.ROT>
3

>  <SCORE.INTER.SOLV>
3.60869

>  <SCORE.INTER.VDW>
-11.1994

>  <SCORE.INTER.norm>
-0.549567

>  <SCORE.INTRA>
-3.67689

>  <SCORE.INTRA.DIHEDRAL>
-3.59984

>  <SCORE.INTRA.DIHEDRAL.0>
5.0186

>  <SCORE.INTRA.POLAR>
0

>  <SCORE.INTRA.POLAR.0>
0

>  <SCORE.INTRA.REPUL>
0

>  <SCORE.INTRA.REPUL.0>
0

>  <SCORE.INTRA.SOLV>
0.630838

>  <SCORE.INTRA.SOLV.lig_0>
-16.1608

>  <SCORE.INTRA.VDW>
-2.19239

>  <SCORE.INTRA.VDW.0>
1.14169

>  <SCORE.INTRA.norm>
-0.306407

>  <SCORE.RESTR>
0.000200071

>  <SCORE.RESTR.CAVITY>
0.000200071

>  <SCORE.RESTR.norm>
1.66725e-05

>  <SCORE.SYSTEM>
0

>  <SCORE.SYSTEM.CONST>
0

>  <SCORE.SYSTEM.DIHEDRAL>
0

>  <SCORE.SYSTEM.SOLV>
0

>  <SCORE.SYSTEM.norm>
0

>  <SCORE.heavy>
12

>  <SCORE.norm>
-0.855957

>  <RMSD>
44.152

$$$$
ligand
 OpenBabel11021811493D
libRbt.so/2013.1/901 2013/11/27
 12 12  0  0  0  0  0  0  0  0999 V2000
   -0.4436    9.8803   12.8711 N   0  0  0  0  0  0  0  0  0  0  0  0
   -0.6767    4.9148   11.5381 O   0  0  0  0  0  0  0  0  0  0  0  0
   -0.1154    9.5907   14.2886 C   0  0  0  0  0  0  0  0  0  0  0  0
   -2.7266    6.0275   11.9011 O   0  0  0  0  0  0  0  0  0  0  0  0
    0.6907   10.7603   14.8439 C   0  0  0  0  0  0  0  0  0  0  0  0
   -1.5971    6.2704    9.7331 O   0  0  0  0  0  0  0  0  0  0  0  0
   -0.1380   11.9695   14.8473 N   0  0  0  0  0  0  0  0  0  0  0  0
   -1.4371   11.6318   14.2605 C   0  0  0  0  0  0  0  0  0  0  0  0
   -1.1701   11.1648   12.8398 C   0  0  0  0  0  0  0  0  0  0  0  0
   -1.2142    8.7992   12.1372 C   0  0  0  0  0  0  0  0  0  0  0  0
   -0.5803    7.3837   12.1202 C   0  0  0  0  0  0  0  0  0  0  0  0
   -1.4062    6.1319   11.3365 S   0  0  0  0  0  0  0  0  0  0  0  0
  1  3  1  0  0  0  0
  1  9  1  0  0  0  0
  1 10  1  0  0  0  0
  2 12  1  0  0  0  0
  3  5  1  0  0  0  0
  4 12  2  0  0  0  0
  5  7  1  0  0  0  0
  6 12  2  0  0  0  0
  7  8  1  0  0  0  0
  8  9  1  0  0  0  0
 10 11  1  0  0  0  0
 11 12  1  0  0  0  0
M  END
>  <CHROM.1>
-55.72808412,179.09277870,-175.89919225,-0.97229023,8.37652676,12.54443550
1.31452269,-0.81295208,0.34348973

>  <Name>
ligand

>  <RI>
0

>  <Rbt.Current_Directory>
/home/itssahil/PROJECTS/Mol_Feturizer/New_Systems/rnas/4E8N

>  <Rbt.Executable>
rbdock ($Id: //depot/dev/client3/rdock/2013.1/src/exe/rbdock.cxx#4 $)

>  <Rbt.Library>
libRbt.so (2013.1, Build901 2013/11/27)

>  <Rbt.Parameter_File>
/export/apps/rDock/src/rDock_2013.1_src/data/scripts/dock_solv.prm

>  <Rbt.Receptor>
prm/blind_docking_20.prm

>  <SCORE>
-9.66226

>  <SCORE.INTER>
-5.82225

>  <SCORE.INTER.CONST>
1

>  <SCORE.INTER.POLAR>
0

>  <SCORE.INTER.ROT>
3

>  <SCORE.INTER.SOLV>
2.05424

>  <SCORE.INTER.VDW>
-10.1662

>  <SCORE.INTER.norm>
-0.485188

>  <SCORE.INTRA>
-3.84001

>  <SCORE.INTRA.DIHEDRAL>
-4.95202

>  <SCORE.INTRA.DIHEDRAL.0>
5.0186

>  <SCORE.INTRA.POLAR>
0

>  <SCORE.INTRA.POLAR.0>
0

>  <SCORE.INTRA.REPUL>
0

>  <SCORE.INTRA.REPUL.0>
0

>  <SCORE.INTRA.SOLV>
0.0748326

>  <SCORE.INTRA.SOLV.lig_0>
-16.1608

>  <SCORE.INTRA.VDW>
-1.40142

>  <SCORE.INTRA.VDW.0>
1.14169

>  <SCORE.INTRA.norm>
-0.320001

>  <SCORE.RESTR>
0

>  <SCORE.RESTR.CAVITY>
0

>  <SCORE.RESTR.norm>
0

>  <SCORE.SYSTEM>
0

>  <SCORE.SYSTEM.CONST>
0

>  <SCORE.SYSTEM.DIHEDRAL>
0

>  <SCORE.SYSTEM.SOLV>
0

>  <SCORE.SYSTEM.norm>
0

>  <SCORE.heavy>
12

>  <SCORE.norm>
-0.805188

>  <RMSD>
44.178

$$$$
ligand
 OpenBabel11021811493D
libRbt.so/2013.1/901 2013/11/27
 12 12  0  0  0  0  0  0  0  0999 V2000
   -1.0099    9.3788   13.3185 N   0  0  0  0  0  0  0  0  0  0  0  0
   -0.5113    5.1024   11.5311 O   0  0  0  0  0  0  0  0  0  0  0  0
   -1.7859   10.4292   12.6147 C   0  0  0  0  0  0  0  0  0  0  0  0
   -2.8404    5.0821   11.1480 O   0  0  0  0  0  0  0  0  0  0  0  0
   -2.0500   11.5687   13.5935 C   0  0  0  0  0  0  0  0  0  0  0  0
   -1.3853    6.3488    9.6271 O   0  0  0  0  0  0  0  0  0  0  0  0
   -0.7781   12.1834   13.9855 N   0  0  0  0  0  0  0  0  0  0  0  0
    0.3046   11.4422   13.3340 C   0  0  0  0  0  0  0  0  0  0  0  0
    0.2207   10.0102   13.8343 C   0  0  0  0  0  0  0  0  0  0  0  0
   -0.6880    8.1390   12.5058 C   0  0  0  0  0  0  0  0  0  0  0  0
   -1.8412    7.1215   12.3042 C   0  0  0  0  0  0  0  0  0  0  0  0
   -1.6489    5.8906   11.1591 S   0  0  0  0  0  0  0  0  0  0  0  0
  1  3  1  0  0  0  0
  1  9  1  0  0  0  0
  1 10  1  0  0  0  0
  2 12  1  0  0  0  0
  3  5  1  0  0  0  0
  4 12  2  0  0  0  0
  5  7  1  0  0  0  0
  6 12  2  0  0  0  0
  7  8  1  0  0  0  0
  8  9  1  0  0  0  0
 10 11  1  0  0  0  0
 11 12  1  0  0  0  0
M  END
>  <CHROM.1>
-76.98494982,167.64862704,60.14441255,-1.22565876,8.21356975,12.24448696
-1.42208426,0.28639518,-2.75070797

>  <Name>
ligand

>  <RI>
0

>  <Rbt.Current_Directory>
/home/itssahil/PROJECTS/Mol_Feturizer/New_Systems/rnas/4E8N

>  <Rbt.Executable>
rbdock ($Id: //depot/dev/client3/rdock/2013.1/src/exe/rbdock.cxx#4 $)

>  <Rbt.Library>
libRbt.so (2013.1, Build901 2013/11/27)

>  <Rbt.Parameter_File>
/export/apps/rDock/src/rDock_2013.1_src/data/scripts/dock_solv.prm

>  <Rbt.Receptor>
prm/blind_docking_20.prm

>  <SCORE>
-10.4291

>  <SCORE.INTER>
-6.66623

>  <SCORE.INTER.CONST>
1

>  <SCORE.INTER.POLAR>
0

>  <SCORE.INTER.ROT>
3

>  <SCORE.INTER.SOLV>
3.97251

>  <SCORE.INTER.VDW>
-11.3683

>  <SCORE.INTER.norm>
-0.555519

>  <SCORE.INTRA>
-3.7629

>  <SCORE.INTRA.DIHEDRAL>
-3.94278

>  <SCORE.INTRA.DIHEDRAL.0>
5.0186

>  <SCORE.INTRA.POLAR>
0

>  <SCORE.INTRA.POLAR.0>
0

>  <SCORE.INTRA.REPUL>
0

>  <SCORE.INTRA.REPUL.0>
0

>  <SCORE.INTRA.SOLV>
-0.104449

>  <SCORE.INTRA.SOLV.lig_0>
-16.1608

>  <SCORE.INTRA.VDW>
-1.73929

>  <SCORE.INTRA.VDW.0>
1.14169

>  <SCORE.INTRA.norm>
-0.313575

>  <SCORE.RESTR>
0

>  <SCORE.RESTR.CAVITY>
0

>  <SCORE.RESTR.norm>
0

>  <SCORE.SYSTEM>
0

>  <SCORE.SYSTEM.CONST>
0

>  <SCORE.SYSTEM.DIHEDRAL>
0

>  <SCORE.SYSTEM.SOLV>
0

>  <SCORE.SYSTEM.norm>
0

>  <SCORE.heavy>
12

>  <SCORE.norm>
-0.869094

>  <RMSD>
44.209

$$$$
ligand
 OpenBabel11021811493D
libRbt.so/2013.1/901 2013/11/27
 12 12  0  0  0  0  0  0  0  0999 V2000
    9.4728   11.8377   27.1446 N   0  0  0  0  0  0  0  0  0  0  0  0
   10.4692   14.1828   23.4251 O   0  0  0  0  0  0  0  0  0  0  0  0
    8.4200   11.2239   26.2986 C   0  0  0  0  0  0  0  0  0  0  0  0
   11.8965   12.3065   23.3053 O   0  0  0  0  0  0  0  0  0  0  0  0
    8.0255    9.8867   26.9169 C   0  0  0  0  0  0  0  0  0  0  0  0
    9.4888   11.9622   23.6505 O   0  0  0  0  0  0  0  0  0  0  0  0
    7.4215   10.1140   28.2332 N   0  0  0  0  0  0  0  0  0  0  0  0
    7.4628   11.5520   28.5099 C   0  0  0  0  0  0  0  0  0  0  0  0
    8.9267   11.9580   28.5107 C   0  0  0  0  0  0  0  0  0  0  0  0
   10.0214   13.1654   26.6572 C   0  0  0  0  0  0  0  0  0  0  0  0
   11.1672   13.1027   25.6136 C   0  0  0  0  0  0  0  0  0  0  0  0
   10.7707   12.8969   23.9815 S   0  0  0  0  0  0  0  0  0  0  0  0
  1  3  1  0  0  0  0
  1  9  1  0  0  0  0
  1 10  1  0  0  0  0
  2 12  1  0  0  0  0
  3  5  1  0  0  0  0
  4 12  2  0  0  0  0
  5  7  1  0  0  0  0
  6 12  2  0  0  0  0
  7  8  1  0  0  0  0
  8  9  1  0  0  0  0
 10 11  1  0  0  0  0
 11 12  1  0  0  0  0
M  END
>  <CHROM.1>
-84.92113102,82.91834167,84.37108146,9.62050465,12.12327191,25.75014096,-2.53421596
-0.87316805,-1.94886262

>  <Name>
ligand

>  <RI>
0

>  <Rbt.Current_Directory>
/home/itssahil/PROJECTS/Mol_Feturizer/New_Systems/rnas/4E8N

>  <Rbt.Executable>
rbdock ($Id: //depot/dev/client3/rdock/2013.1/src/exe/rbdock.cxx#4 $)

>  <Rbt.Library>
libRbt.so (2013.1, Build901 2013/11/27)

>  <Rbt.Parameter_File>
/export/apps/rDock/src/rDock_2013.1_src/data/scripts/dock_solv.prm

>  <Rbt.Receptor>
prm/blind_docking_80.prm

>  <SCORE>
-12.7813

>  <SCORE.INTER>
-10.367

>  <SCORE.INTER.CONST>
1

>  <SCORE.INTER.POLAR>
0

>  <SCORE.INTER.ROT>
3

>  <SCORE.INTER.SOLV>
8.11683

>  <SCORE.INTER.VDW>
-15.217

>  <SCORE.INTER.norm>
-0.863919

>  <SCORE.INTRA>
-2.41432

>  <SCORE.INTRA.DIHEDRAL>
-0.985561

>  <SCORE.INTRA.DIHEDRAL.0>
5.0186

>  <SCORE.INTRA.POLAR>
0

>  <SCORE.INTRA.POLAR.0>
0

>  <SCORE.INTRA.REPUL>
0

>  <SCORE.INTRA.REPUL.0>
0

>  <SCORE.INTRA.SOLV>
0.550327

>  <SCORE.INTRA.SOLV.lig_0>
-16.1608

>  <SCORE.INTRA.VDW>
-2.19671

>  <SCORE.INTRA.VDW.0>
1.14169

>  <SCORE.INTRA.norm>
-0.201194

>  <SCORE.RESTR>
0

>  <SCORE.RESTR.CAVITY>
0

>  <SCORE.RESTR.norm>
0

>  <SCORE.SYSTEM>
0

>  <SCORE.SYSTEM.CONST>
0

>  <SCORE.SYSTEM.DIHEDRAL>
0

>  <SCORE.SYSTEM.SOLV>
0

>  <SCORE.SYSTEM.norm>
0

>  <SCORE.heavy>
12

>  <SCORE.norm>
-1.06511

>  <RMSD>
44.324

$$$$
ligand
 OpenBabel11021811493D
libRbt.so/2013.1/901 2013/11/27
 12 12  0  0  0  0  0  0  0  0999 V2000
   -0.9801   10.6298   12.4337 N   0  0  0  0  0  0  0  0  0  0  0  0
    0.6417    7.3393   12.0918 O   0  0  0  0  0  0  0  0  0  0  0  0
    0.2720   10.4252   13.2026 C   0  0  0  0  0  0  0  0  0  0  0  0
    0.8021    7.1764    9.7424 O   0  0  0  0  0  0  0  0  0  0  0  0
    0.8344   11.7924   13.5777 C   0  0  0  0  0  0  0  0  0  0  0  0
    1.7573    9.1346   10.8772 O   0  0  0  0  0  0  0  0  0  0  0  0
   -0.0990   12.4769   14.4772 N   0  0  0  0  0  0  0  0  0  0  0  0
   -1.2733   11.6186   14.6522 C   0  0  0  0  0  0  0  0  0  0  0  0
   -1.8897   11.4305   13.2766 C   0  0  0  0  0  0  0  0  0  0  0  0
   -1.6636    9.3699   11.9370 C   0  0  0  0  0  0  0  0  0  0  0  0
   -1.0224    8.6687   10.7109 C   0  0  0  0  0  0  0  0  0  0  0  0
    0.5483    8.0557   10.8540 S   0  0  0  0  0  0  0  0  0  0  0  0
  1  3  1  0  0  0  0
  1  9  1  0  0  0  0
  1 10  1  0  0  0  0
  2 12  1  0  0  0  0
  3  5  1  0  0  0  0
  4 12  2  0  0  0  0
  5  7  1  0  0  0  0
  6 12  2  0  0  0  0
  7  8  1  0  0  0  0
  8  9  1  0  0  0  0
 10 11  1  0  0  0  0
 11 12  1  0  0  0  0
M  END
>  <CHROM.1>
-75.85128627,62.63331452,45.73703102,-0.06681671,9.61479548,12.13813972,1.81704381
-0.00326083,0.70131988

>  <Name>
ligand

>  <RI>
0

>  <Rbt.Current_Directory>
/home/itssahil/PROJECTS/Mol_Feturizer/New_Systems/rnas/4E8N

>  <Rbt.Executable>
rbdock ($Id: //depot/dev/client3/rdock/2013.1/src/exe/rbdock.cxx#4 $)

>  <Rbt.Library>
libRbt.so (2013.1, Build901 2013/11/27)

>  <Rbt.Parameter_File>
/export/apps/rDock/src/rDock_2013.1_src/data/scripts/dock_solv.prm

>  <Rbt.Receptor>
prm/blind_docking_20.prm

>  <SCORE>
-8.33605

>  <SCORE.INTER>
-4.20888

>  <SCORE.INTER.CONST>
1

>  <SCORE.INTER.POLAR>
0

>  <SCORE.INTER.ROT>
3

>  <SCORE.INTER.SOLV>
5.34973

>  <SCORE.INTER.VDW>
-10.1892

>  <SCORE.INTER.norm>
-0.35074

>  <SCORE.INTRA>
-4.12716

>  <SCORE.INTRA.DIHEDRAL>
-4.06874

>  <SCORE.INTRA.DIHEDRAL.0>
5.0186

>  <SCORE.INTRA.POLAR>
0

>  <SCORE.INTRA.POLAR.0>
0

>  <SCORE.INTRA.REPUL>
0

>  <SCORE.INTRA.REPUL.0>
0

>  <SCORE.INTRA.SOLV>
0.454268

>  <SCORE.INTRA.SOLV.lig_0>
-16.1608

>  <SCORE.INTRA.VDW>
-2.31993

>  <SCORE.INTRA.VDW.0>
1.14169

>  <SCORE.INTRA.norm>
-0.34393

>  <SCORE.RESTR>
0

>  <SCORE.RESTR.CAVITY>
0

>  <SCORE.RESTR.norm>
0

>  <SCORE.SYSTEM>
0

>  <SCORE.SYSTEM.CONST>
0

>  <SCORE.SYSTEM.DIHEDRAL>
0

>  <SCORE.SYSTEM.SOLV>
0

>  <SCORE.SYSTEM.norm>
0

>  <SCORE.heavy>
12

>  <SCORE.norm>
-0.694671

>  <RMSD>
44.339

$$$$
ligand
 OpenBabel11021811493D
libRbt.so/2013.1/901 2013/11/27
 12 12  0  0  0  0  0  0  0  0999 V2000
   24.5659   -5.8783   47.9486 N   0  0  0  0  0  0  0  0  0  0  0  0
   25.9532   -8.8108   44.7294 O   0  0  0  0  0  0  0  0  0  0  0  0
   24.3958   -4.4169   47.7581 C   0  0  0  0  0  0  0  0  0  0  0  0
   24.9109   -7.4997   43.0661 O   0  0  0  0  0  0  0  0  0  0  0  0
   23.4929   -3.8894   48.8684 C   0  0  0  0  0  0  0  0  0  0  0  0
   27.1389   -6.8583   43.8781 O   0  0  0  0  0  0  0  0  0  0  0  0
   24.1550   -4.0657   50.1644 N   0  0  0  0  0  0  0  0  0  0  0  0
   25.4343   -4.7409   49.9330 C   0  0  0  0  0  0  0  0  0  0  0  0
   25.1143   -6.0859   49.3033 C   0  0  0  0  0  0  0  0  0  0  0  0
   25.4074   -6.5872   46.9044 C   0  0  0  0  0  0  0  0  0  0  0  0
   24.8166   -6.6662   45.4724 C   0  0  0  0  0  0  0  0  0  0  0  0
   25.6943   -7.4768   44.2740 S   0  0  0  0  0  0  0  0  0  0  0  0
  1  3  1  0  0  0  0
  1  9  1  0  0  0  0
  1 10  1  0  0  0  0
  2 12  1  0  0  0  0
  3  5  1  0  0  0  0
  4 12  2  0  0  0  0
  5  7  1  0  0  0  0
  6 12  2  0  0  0  0
  7  8  1  0  0  0  0
  8  9  1  0  0  0  0
 10 11  1  0  0  0  0
 11 12  1  0  0  0  0
M  END
>  <CHROM.1>
-67.56335983,-178.58563701,55.95936299,25.17485116,-6.26302227,46.52411434
-1.90323455,0.85155160,-1.82925562

>  <Name>
ligand

>  <RI>
0

>  <Rbt.Current_Directory>
/home/itssahil/PROJECTS/Mol_Feturizer/New_Systems/rnas/4E8N

>  <Rbt.Executable>
rbdock ($Id: //depot/dev/client3/rdock/2013.1/src/exe/rbdock.cxx#4 $)

>  <Rbt.Library>
libRbt.so (2013.1, Build901 2013/11/27)

>  <Rbt.Parameter_File>
/export/apps/rDock/src/rDock_2013.1_src/data/scripts/dock_solv.prm

>  <Rbt.Receptor>
prm/blind_docking_100.prm

>  <SCORE>
-14.0367

>  <SCORE.INTER>
-9.95479

>  <SCORE.INTER.CONST>
1

>  <SCORE.INTER.POLAR>
0

>  <SCORE.INTER.ROT>
3

>  <SCORE.INTER.SOLV>
7.41455

>  <SCORE.INTER.VDW>
-14.708

>  <SCORE.INTER.norm>
-0.829566

>  <SCORE.INTRA>
-4.0819

>  <SCORE.INTRA.DIHEDRAL>
-4.84196

>  <SCORE.INTRA.DIHEDRAL.0>
5.0186

>  <SCORE.INTRA.POLAR>
0

>  <SCORE.INTRA.POLAR.0>
0

>  <SCORE.INTRA.REPUL>
0

>  <SCORE.INTRA.REPUL.0>
0

>  <SCORE.INTRA.SOLV>
-0.115996

>  <SCORE.INTRA.SOLV.lig_0>
-16.1608

>  <SCORE.INTRA.VDW>
-1.60292

>  <SCORE.INTRA.VDW.0>
1.14169

>  <SCORE.INTRA.norm>
-0.340158

>  <SCORE.RESTR>
0

>  <SCORE.RESTR.CAVITY>
0

>  <SCORE.RESTR.norm>
0

>  <SCORE.SYSTEM>
0

>  <SCORE.SYSTEM.CONST>
0

>  <SCORE.SYSTEM.DIHEDRAL>
0

>  <SCORE.SYSTEM.SOLV>
0

>  <SCORE.SYSTEM.norm>
0

>  <SCORE.heavy>
12

>  <SCORE.norm>
-1.16972

>  <RMSD>
44.407

$$$$
ligand
 OpenBabel11021811493D
libRbt.so/2013.1/901 2013/11/27
 12 12  0  0  0  0  0  0  0  0999 V2000
   16.1107    9.6598   35.3121 N   0  0  0  0  0  0  0  0  0  0  0  0
   19.8542    8.6401   35.0253 O   0  0  0  0  0  0  0  0  0  0  0  0
   14.9496    9.3261   36.1731 C   0  0  0  0  0  0  0  0  0  0  0  0
   18.5763    9.1136   36.9525 O   0  0  0  0  0  0  0  0  0  0  0  0
   14.5523   10.5770   36.9501 C   0  0  0  0  0  0  0  0  0  0  0  0
   19.8559    7.0194   36.8463 O   0  0  0  0  0  0  0  0  0  0  0  0
   14.0945   11.6100   36.0161 N   0  0  0  0  0  0  0  0  0  0  0  0
   14.2350   11.0865   34.6551 C   0  0  0  0  0  0  0  0  0  0  0  0
   15.7101   10.7880   34.4486 C   0  0  0  0  0  0  0  0  0  0  0  0
   16.6737    8.5160   34.4899 C   0  0  0  0  0  0  0  0  0  0  0  0
   17.5906    7.5105   35.2343 C   0  0  0  0  0  0  0  0  0  0  0  0
   18.9732    8.0949   36.0156 S   0  0  0  0  0  0  0  0  0  0  0  0
  1  3  1  0  0  0  0
  1  9  1  0  0  0  0
  1 10  1  0  0  0  0
  2 12  1  0  0  0  0
  3  5  1  0  0  0  0
  4 12  2  0  0  0  0
  5  7  1  0  0  0  0
  6 12  2  0  0  0  0
  7  8  1  0  0  0  0
  8  9  1  0  0  0  0
 10 11  1  0  0  0  0
 11 12  1  0  0  0  0
M  END
>  <CHROM.1>
-78.76939626,-57.36428173,-63.91607765,17.05422230,9.17953628,35.72680504
-3.04019413,-0.54892030,1.59631879

>  <Name>
ligand

>  <RI>
0

>  <Rbt.Current_Directory>
/home/itssahil/PROJECTS/Mol_Feturizer/New_Systems/rnas/4E8N

>  <Rbt.Executable>
rbdock ($Id: //depot/dev/client3/rdock/2013.1/src/exe/rbdock.cxx#4 $)

>  <Rbt.Library>
libRbt.so (2013.1, Build901 2013/11/27)

>  <Rbt.Parameter_File>
/export/apps/rDock/src/rDock_2013.1_src/data/scripts/dock_solv.prm

>  <Rbt.Receptor>
prm/blind_docking_100.prm

>  <SCORE>
-15.4215

>  <SCORE.INTER>
-11.2165

>  <SCORE.INTER.CONST>
1

>  <SCORE.INTER.POLAR>
0

>  <SCORE.INTER.ROT>
3

>  <SCORE.INTER.SOLV>
9.65305

>  <SCORE.INTER.VDW>
-16.2954

>  <SCORE.INTER.norm>
-0.93471

>  <SCORE.INTRA>
-4.20496

>  <SCORE.INTRA.DIHEDRAL>
-4.34662

>  <SCORE.INTRA.DIHEDRAL.0>
5.0186

>  <SCORE.INTRA.POLAR>
0

>  <SCORE.INTRA.POLAR.0>
0

>  <SCORE.INTRA.REPUL>
0

>  <SCORE.INTRA.REPUL.0>
0

>  <SCORE.INTRA.SOLV>
0.596453

>  <SCORE.INTRA.SOLV.lig_0>
-16.1608

>  <SCORE.INTRA.VDW>
-2.32988

>  <SCORE.INTRA.VDW.0>
1.14169

>  <SCORE.INTRA.norm>
-0.350414

>  <SCORE.RESTR>
0

>  <SCORE.RESTR.CAVITY>
0

>  <SCORE.RESTR.norm>
0

>  <SCORE.SYSTEM>
0

>  <SCORE.SYSTEM.CONST>
0

>  <SCORE.SYSTEM.DIHEDRAL>
0

>  <SCORE.SYSTEM.SOLV>
0

>  <SCORE.SYSTEM.norm>
0

>  <SCORE.heavy>
12

>  <SCORE.norm>
-1.28512

>  <RMSD>
44.936

$$$$
ligand
 OpenBabel11021811493D
libRbt.so/2013.1/901 2013/11/27
 12 12  0  0  0  0  0  0  0  0999 V2000
   16.3203    9.5912   34.7807 N   0  0  0  0  0  0  0  0  0  0  0  0
   13.6725   11.1902   33.8441 O   0  0  0  0  0  0  0  0  0  0  0  0
   15.1591    8.8042   34.2977 C   0  0  0  0  0  0  0  0  0  0  0  0
   13.1591   12.3918   35.8099 O   0  0  0  0  0  0  0  0  0  0  0  0
   15.6567    7.7979   33.2652 C   0  0  0  0  0  0  0  0  0  0  0  0
   13.7609   13.6253   33.7725 O   0  0  0  0  0  0  0  0  0  0  0  0
   16.5668    6.8450   33.9077 N   0  0  0  0  0  0  0  0  0  0  0  0
   16.7170    7.2361   35.3115 C   0  0  0  0  0  0  0  0  0  0  0  0
   17.3087    8.6352   35.3176 C   0  0  0  0  0  0  0  0  0  0  0  0
   16.0071   10.6781   35.7915 C   0  0  0  0  0  0  0  0  0  0  0  0
   15.6169   12.0665   35.2206 C   0  0  0  0  0  0  0  0  0  0  0  0
   14.0345   12.3041   34.6701 S   0  0  0  0  0  0  0  0  0  0  0  0
  1  3  1  0  0  0  0
  1  9  1  0  0  0  0
  1 10  1  0  0  0  0
  2 12  1  0  0  0  0
  3  5  1  0  0  0  0
  4 12  2  0  0  0  0
  5  7  1  0  0  0  0
  6 12  2  0  0  0  0
  7  8  1  0  0  0  0
  8  9  1  0  0  0  0
 10 11  1  0  0  0  0
 11 12  1  0  0  0  0
M  END
>  <CHROM.1>
-87.36155531,79.82675459,-46.66908986,15.15427075,10.37552471,34.66037319
-0.88239883,-0.72547804,0.53112716

>  <Name>
ligand

>  <RI>
0

>  <Rbt.Current_Directory>
/home/itssahil/PROJECTS/Mol_Feturizer/New_Systems/rnas/4E8N

>  <Rbt.Executable>
rbdock ($Id: //depot/dev/client3/rdock/2013.1/src/exe/rbdock.cxx#4 $)

>  <Rbt.Library>
libRbt.so (2013.1, Build901 2013/11/27)

>  <Rbt.Parameter_File>
/export/apps/rDock/src/rDock_2013.1_src/data/scripts/dock_solv.prm

>  <Rbt.Receptor>
prm/blind_docking_60.prm

>  <SCORE>
-12.7622

>  <SCORE.INTER>
-9.82185

>  <SCORE.INTER.CONST>
1

>  <SCORE.INTER.POLAR>
0

>  <SCORE.INTER.ROT>
3

>  <SCORE.INTER.SOLV>
7.71639

>  <SCORE.INTER.VDW>
-14.72

>  <SCORE.INTER.norm>
-0.818488

>  <SCORE.INTRA>
-3.04298

>  <SCORE.INTRA.DIHEDRAL>
-2.09907

>  <SCORE.INTRA.DIHEDRAL.0>
5.0186

>  <SCORE.INTRA.POLAR>
0

>  <SCORE.INTRA.POLAR.0>
0

>  <SCORE.INTRA.REPUL>
0

>  <SCORE.INTRA.REPUL.0>
0

>  <SCORE.INTRA.SOLV>
-0.124808

>  <SCORE.INTRA.SOLV.lig_0>
-16.1608

>  <SCORE.INTRA.VDW>
-1.93104

>  <SCORE.INTRA.VDW.0>
1.14169

>  <SCORE.INTRA.norm>
-0.253582

>  <SCORE.RESTR>
0.102641

>  <SCORE.RESTR.CAVITY>
0.102641

>  <SCORE.RESTR.norm>
0.0085534

>  <SCORE.SYSTEM>
0

>  <SCORE.SYSTEM.CONST>
0

>  <SCORE.SYSTEM.DIHEDRAL>
0

>  <SCORE.SYSTEM.SOLV>
0

>  <SCORE.SYSTEM.norm>
0

>  <SCORE.heavy>
12

>  <SCORE.norm>
-1.06352

>  <RMSD>
45.148

$$$$
ligand
 OpenBabel11021811493D
libRbt.so/2013.1/901 2013/11/27
 12 12  0  0  0  0  0  0  0  0999 V2000
   10.3092   14.5200   25.8500 N   0  0  0  0  0  0  0  0  0  0  0  0
   10.8340   14.1361   22.9407 O   0  0  0  0  0  0  0  0  0  0  0  0
   10.9464   15.6044   26.6369 C   0  0  0  0  0  0  0  0  0  0  0  0
   12.7624   12.7835   23.0948 O   0  0  0  0  0  0  0  0  0  0  0  0
   10.1251   16.8766   26.4547 C   0  0  0  0  0  0  0  0  0  0  0  0
   10.8171   11.9609   21.8402 O   0  0  0  0  0  0  0  0  0  0  0  0
    8.7872   16.6823   27.0215 N   0  0  0  0  0  0  0  0  0  0  0  0
    8.6986   15.3059   27.5155 C   0  0  0  0  0  0  0  0  0  0  0  0
    8.9154   14.3945   26.3196 C   0  0  0  0  0  0  0  0  0  0  0  0
   11.0179   13.1791   25.8787 C   0  0  0  0  0  0  0  0  0  0  0  0
   10.8117   12.2577   24.6480 C   0  0  0  0  0  0  0  0  0  0  0  0
   11.3230   12.8022   23.1296 S   0  0  0  0  0  0  0  0  0  0  0  0
  1  3  1  0  0  0  0
  1  9  1  0  0  0  0
  1 10  1  0  0  0  0
  2 12  1  0  0  0  0
  3  5  1  0  0  0  0
  4 12  2  0  0  0  0
  5  7  1  0  0  0  0
  6 12  2  0  0  0  0
  7  8  1  0  0  0  0
  8  9  1  0  0  0  0
 10 11  1  0  0  0  0
 11 12  1  0  0  0  0
M  END
>  <CHROM.1>
-152.97702685,61.37572852,-48.26334763,10.55972815,14.03794687,24.84818285
2.21461079,0.92613717,0.35239145

>  <Name>
ligand

>  <RI>
0

>  <Rbt.Current_Directory>
/home/itssahil/PROJECTS/Mol_Feturizer/New_Systems/rnas/4E8N

>  <Rbt.Executable>
rbdock ($Id: //depot/dev/client3/rdock/2013.1/src/exe/rbdock.cxx#4 $)

>  <Rbt.Library>
libRbt.so (2013.1, Build901 2013/11/27)

>  <Rbt.Parameter_File>
/export/apps/rDock/src/rDock_2013.1_src/data/scripts/dock_solv.prm

>  <Rbt.Receptor>
prm/blind_docking_40.prm

>  <SCORE>
-15.9718

>  <SCORE.INTER>
-11.9212

>  <SCORE.INTER.CONST>
1

>  <SCORE.INTER.POLAR>
0

>  <SCORE.INTER.ROT>
3

>  <SCORE.INTER.SOLV>
9.67702

>  <SCORE.INTER.VDW>
-16.7732

>  <SCORE.INTER.norm>
-0.993436

>  <SCORE.INTRA>
-4.05056

>  <SCORE.INTRA.DIHEDRAL>
-3.74155

>  <SCORE.INTRA.DIHEDRAL.0>
5.0186

>  <SCORE.INTRA.POLAR>
0

>  <SCORE.INTRA.POLAR.0>
0

>  <SCORE.INTRA.REPUL>
0

>  <SCORE.INTRA.REPUL.0>
0

>  <SCORE.INTRA.SOLV>
0.0304963

>  <SCORE.INTRA.SOLV.lig_0>
-16.1608

>  <SCORE.INTRA.VDW>
-2.19503

>  <SCORE.INTRA.VDW.0>
1.14169

>  <SCORE.INTRA.norm>
-0.337547

>  <SCORE.RESTR>
0

>  <SCORE.RESTR.CAVITY>
0

>  <SCORE.RESTR.norm>
0

>  <SCORE.SYSTEM>
0

>  <SCORE.SYSTEM.CONST>
0

>  <SCORE.SYSTEM.DIHEDRAL>
0

>  <SCORE.SYSTEM.SOLV>
0

>  <SCORE.SYSTEM.norm>
0

>  <SCORE.heavy>
12

>  <SCORE.norm>
-1.33098

>  <RMSD>
45.181

$$$$
ligand
 OpenBabel11021811493D
libRbt.so/2013.1/901 2013/11/27
 12 12  0  0  0  0  0  0  0  0999 V2000
   10.4957   14.7060   25.7201 N   0  0  0  0  0  0  0  0  0  0  0  0
   12.7603   12.7405   23.0832 O   0  0  0  0  0  0  0  0  0  0  0  0
   11.1403   15.6338   26.6817 C   0  0  0  0  0  0  0  0  0  0  0  0
   10.8050   11.9947   21.9912 O   0  0  0  0  0  0  0  0  0  0  0  0
   10.5494   17.0249   26.4770 C   0  0  0  0  0  0  0  0  0  0  0  0
   11.0471   14.3812   22.5211 O   0  0  0  0  0  0  0  0  0  0  0  0
    9.1221   17.0056   26.8107 N   0  0  0  0  0  0  0  0  0  0  0  0
    8.7584   15.6332   27.1720 C   0  0  0  0  0  0  0  0  0  0  0  0
    9.0397   14.7686   25.9549 C   0  0  0  0  0  0  0  0  0  0  0  0
   10.9925   13.2730   25.7505 C   0  0  0  0  0  0  0  0  0  0  0  0
   10.6835   12.4039   24.5035 C   0  0  0  0  0  0  0  0  0  0  0  0
   11.3342   12.8631   23.0105 S   0  0  0  0  0  0  0  0  0  0  0  0
  1  3  1  0  0  0  0
  1  9  1  0  0  0  0
  1 10  1  0  0  0  0
  2 12  1  0  0  0  0
  3  5  1  0  0  0  0
  4 12  2  0  0  0  0
  5  7  1  0  0  0  0
  6 12  2  0  0  0  0
  7  8  1  0  0  0  0
  8  9  1  0  0  0  0
 10 11  1  0  0  0  0
 11 12  1  0  0  0  0
M  END
>  <CHROM.1>
-161.44220952,62.37637205,65.72173386,10.66347965,14.18651156,24.71349757
2.06988918,0.84403455,0.46412036

>  <Name>
ligand

>  <RI>
0

>  <Rbt.Current_Directory>
/home/itssahil/PROJECTS/Mol_Feturizer/New_Systems/rnas/4E8N

>  <Rbt.Executable>
rbdock ($Id: //depot/dev/client3/rdock/2013.1/src/exe/rbdock.cxx#4 $)

>  <Rbt.Library>
libRbt.so (2013.1, Build901 2013/11/27)

>  <Rbt.Parameter_File>
/export/apps/rDock/src/rDock_2013.1_src/data/scripts/dock_solv.prm

>  <Rbt.Receptor>
prm/blind_docking_40.prm

>  <SCORE>
-15.8413

>  <SCORE.INTER>
-11.7387

>  <SCORE.INTER.CONST>
1

>  <SCORE.INTER.POLAR>
0

>  <SCORE.INTER.ROT>
3

>  <SCORE.INTER.SOLV>
10.657

>  <SCORE.INTER.VDW>
-16.9781

>  <SCORE.INTER.norm>
-0.978225

>  <SCORE.INTRA>
-4.10265

>  <SCORE.INTRA.DIHEDRAL>
-4.4564

>  <SCORE.INTRA.DIHEDRAL.0>
5.0186

>  <SCORE.INTRA.POLAR>
0

>  <SCORE.INTRA.POLAR.0>
0

>  <SCORE.INTRA.REPUL>
0

>  <SCORE.INTRA.REPUL.0>
0

>  <SCORE.INTRA.SOLV>
0.457128

>  <SCORE.INTRA.SOLV.lig_0>
-16.1608

>  <SCORE.INTRA.VDW>
-2.10301

>  <SCORE.INTRA.VDW.0>
1.14169

>  <SCORE.INTRA.norm>
-0.341887

>  <SCORE.RESTR>
0

>  <SCORE.RESTR.CAVITY>
0

>  <SCORE.RESTR.norm>
0

>  <SCORE.SYSTEM>
0

>  <SCORE.SYSTEM.CONST>
0

>  <SCORE.SYSTEM.DIHEDRAL>
0

>  <SCORE.SYSTEM.SOLV>
0

>  <SCORE.SYSTEM.norm>
0

>  <SCORE.heavy>
12

>  <SCORE.norm>
-1.32011

>  <RMSD>
45.188

$$$$
ligand
 OpenBabel11021811493D
libRbt.so/2013.1/901 2013/11/27
 12 12  0  0  0  0  0  0  0  0999 V2000
    7.9530   11.5408   27.2937 N   0  0  0  0  0  0  0  0  0  0  0  0
   10.2984   14.6179   24.9040 O   0  0  0  0  0  0  0  0  0  0  0  0
    8.1378   10.9197   28.6283 C   0  0  0  0  0  0  0  0  0  0  0  0
   10.4805   16.0066   26.8040 O   0  0  0  0  0  0  0  0  0  0  0  0
    6.8140   10.2936   29.0545 C   0  0  0  0  0  0  0  0  0  0  0  0
   12.0589   14.1454   26.5226 O   0  0  0  0  0  0  0  0  0  0  0  0
    6.4666    9.2066   28.1342 N   0  0  0  0  0  0  0  0  0  0  0  0
    7.4962    9.1456   27.0938 C   0  0  0  0  0  0  0  0  0  0  0  0
    7.4779   10.4853   26.3777 C   0  0  0  0  0  0  0  0  0  0  0  0
    9.1643   12.2540   26.7234 C   0  0  0  0  0  0  0  0  0  0  0  0
    9.3190   13.7554   27.0811 C   0  0  0  0  0  0  0  0  0  0  0  0
   10.5335   14.6525   26.3173 S   0  0  0  0  0  0  0  0  0  0  0  0
  1  3  1  0  0  0  0
  1  9  1  0  0  0  0
  1 10  1  0  0  0  0
  2 12  1  0  0  0  0
  3  5  1  0  0  0  0
  4 12  2  0  0  0  0
  5  7  1  0  0  0  0
  6 12  2  0  0  0  0
  7  8  1  0  0  0  0
  8  9  1  0  0  0  0
 10 11  1  0  0  0  0
 11 12  1  0  0  0  0
M  END
>  <CHROM.1>
-89.30542389,-172.21226070,59.82672581,9.07280044,12.55976762,26.97557865
3.03859088,-0.96433223,-2.01933578

>  <Name>
ligand

>  <RI>
0

>  <Rbt.Current_Directory>
/home/itssahil/PROJECTS/Mol_Feturizer/New_Systems/rnas/4E8N

>  <Rbt.Executable>
rbdock ($Id: //depot/dev/client3/rdock/2013.1/src/exe/rbdock.cxx#4 $)

>  <Rbt.Library>
libRbt.so (2013.1, Build901 2013/11/27)

>  <Rbt.Parameter_File>
/export/apps/rDock/src/rDock_2013.1_src/data/scripts/dock_solv.prm

>  <Rbt.Receptor>
prm/blind_docking_40.prm

>  <SCORE>
-11.5598

>  <SCORE.INTER>
-7.91744

>  <SCORE.INTER.CONST>
1

>  <SCORE.INTER.POLAR>
0

>  <SCORE.INTER.ROT>
3

>  <SCORE.INTER.SOLV>
6.50768

>  <SCORE.INTER.VDW>
-13.0475

>  <SCORE.INTER.norm>
-0.659787

>  <SCORE.INTRA>
-3.64236

>  <SCORE.INTRA.DIHEDRAL>
-3.54596

>  <SCORE.INTRA.DIHEDRAL.0>
5.0186

>  <SCORE.INTRA.POLAR>
0

>  <SCORE.INTRA.POLAR.0>
0

>  <SCORE.INTRA.REPUL>
0

>  <SCORE.INTRA.REPUL.0>
0

>  <SCORE.INTRA.SOLV>
-0.110554

>  <SCORE.INTRA.SOLV.lig_0>
-16.1608

>  <SCORE.INTRA.VDW>
-1.8141

>  <SCORE.INTRA.VDW.0>
1.14169

>  <SCORE.INTRA.norm>
-0.30353

>  <SCORE.RESTR>
0

>  <SCORE.RESTR.CAVITY>
0

>  <SCORE.RESTR.norm>
0

>  <SCORE.SYSTEM>
0

>  <SCORE.SYSTEM.CONST>
0

>  <SCORE.SYSTEM.DIHEDRAL>
0

>  <SCORE.SYSTEM.SOLV>
0

>  <SCORE.SYSTEM.norm>
0

>  <SCORE.heavy>
12

>  <SCORE.norm>
-0.963317

>  <RMSD>
45.220

$$$$
ligand
 OpenBabel11021811493D
libRbt.so/2013.1/901 2013/11/27
 12 12  0  0  0  0  0  0  0  0999 V2000
   41.2022    5.3075   39.5580 N   0  0  0  0  0  0  0  0  0  0  0  0
   42.3732    9.9066   41.5373 O   0  0  0  0  0  0  0  0  0  0  0  0
   39.7310    5.4569   39.4386 C   0  0  0  0  0  0  0  0  0  0  0  0
   42.4322    8.1121   43.0697 O   0  0  0  0  0  0  0  0  0  0  0  0
   39.2656    4.6695   38.2181 C   0  0  0  0  0  0  0  0  0  0  0  0
   44.3022    8.4164   41.5059 O   0  0  0  0  0  0  0  0  0  0  0  0
   39.5230    3.2417   38.4280 N   0  0  0  0  0  0  0  0  0  0  0  0
   40.1908    3.0859   39.7226 C   0  0  0  0  0  0  0  0  0  0  0  0
   41.4937    3.8629   39.6419 C   0  0  0  0  0  0  0  0  0  0  0  0
   41.8522    6.0630   40.7017 C   0  0  0  0  0  0  0  0  0  0  0  0
   41.7282    7.6088   40.6728 C   0  0  0  0  0  0  0  0  0  0  0  0
   42.6987    8.5223   41.7154 S   0  0  0  0  0  0  0  0  0  0  0  0
  1  3  1  0  0  0  0
  1  9  1  0  0  0  0
  1 10  1  0  0  0  0
  2 12  1  0  0  0  0
  3  5  1  0  0  0  0
  4 12  2  0  0  0  0
  5  7  1  0  0  0  0
  6 12  2  0  0  0  0
  7  8  1  0  0  0  0
  8  9  1  0  0  0  0
 10 11  1  0  0  0  0
 11 12  1  0  0  0  0
M  END
>  <CHROM.1>
-62.12561021,-166.96692433,-178.06676125,41.57191213,6.48799412,40.53106803
-2.16487602,-0.61128224,0.16771105

>  <Name>
ligand

>  <RI>
0

>  <Rbt.Current_Directory>
/home/itssahil/PROJECTS/Mol_Feturizer/New_Systems/rnas/4E8N

>  <Rbt.Executable>
rbdock ($Id: //depot/dev/client3/rdock/2013.1/src/exe/rbdock.cxx#4 $)

>  <Rbt.Library>
libRbt.so (2013.1, Build901 2013/11/27)

>  <Rbt.Parameter_File>
/export/apps/rDock/src/rDock_2013.1_src/data/scripts/dock_solv.prm

>  <Rbt.Receptor>
prm/blind_docking_100.prm

>  <SCORE>
-20.046

>  <SCORE.INTER>
-16.3982

>  <SCORE.INTER.CONST>
1

>  <SCORE.INTER.POLAR>
0

>  <SCORE.INTER.ROT>
3

>  <SCORE.INTER.SOLV>
8.05112

>  <SCORE.INTER.VDW>
-19.2159

>  <SCORE.INTER.norm>
-1.36652

>  <SCORE.INTRA>
-3.64774

>  <SCORE.INTRA.DIHEDRAL>
-4.3644

>  <SCORE.INTRA.DIHEDRAL.0>
5.0186

>  <SCORE.INTRA.POLAR>
0

>  <SCORE.INTRA.POLAR.0>
0

>  <SCORE.INTRA.REPUL>
0

>  <SCORE.INTRA.REPUL.0>
0

>  <SCORE.INTRA.SOLV>
0.0739233

>  <SCORE.INTRA.SOLV.lig_0>
-16.1608

>  <SCORE.INTRA.VDW>
-1.5025

>  <SCORE.INTRA.VDW.0>
1.14169

>  <SCORE.INTRA.norm>
-0.303979

>  <SCORE.RESTR>
0

>  <SCORE.RESTR.CAVITY>
0

>  <SCORE.RESTR.norm>
0

>  <SCORE.SYSTEM>
0

>  <SCORE.SYSTEM.CONST>
0

>  <SCORE.SYSTEM.DIHEDRAL>
0

>  <SCORE.SYSTEM.SOLV>
0

>  <SCORE.SYSTEM.norm>
0

>  <SCORE.heavy>
12

>  <SCORE.norm>
-1.6705

>  <RMSD>
45.236

$$$$
ligand
 OpenBabel11021811493D
libRbt.so/2013.1/901 2013/11/27
 12 12  0  0  0  0  0  0  0  0999 V2000
   40.4995    5.5012   39.9193 N   0  0  0  0  0  0  0  0  0  0  0  0
   41.7553    9.4666   41.5375 O   0  0  0  0  0  0  0  0  0  0  0  0
   41.1970    4.1945   40.0018 C   0  0  0  0  0  0  0  0  0  0  0  0
   42.7570    8.4790   43.4330 O   0  0  0  0  0  0  0  0  0  0  0  0
   40.1716    3.0876   39.7789 C   0  0  0  0  0  0  0  0  0  0  0  0
   44.0678    8.7139   41.3687 O   0  0  0  0  0  0  0  0  0  0  0  0
   39.6314    3.1857   38.4196 N   0  0  0  0  0  0  0  0  0  0  0  0
   40.2342    4.3546   37.7744 C   0  0  0  0  0  0  0  0  0  0  0  0
   39.8386    5.5663   38.6009 C   0  0  0  0  0  0  0  0  0  0  0  0
   41.3613    6.7264   40.1590 C   0  0  0  0  0  0  0  0  0  0  0  0
   41.8897    6.9326   41.6026 C   0  0  0  0  0  0  0  0  0  0  0  0
   42.6071    8.4120   42.0026 S   0  0  0  0  0  0  0  0  0  0  0  0
  1  3  1  0  0  0  0
  1  9  1  0  0  0  0
  1 10  1  0  0  0  0
  2 12  1  0  0  0  0
  3  5  1  0  0  0  0
  4 12  2  0  0  0  0
  5  7  1  0  0  0  0
  6 12  2  0  0  0  0
  7  8  1  0  0  0  0
  8  9  1  0  0  0  0
 10 11  1  0  0  0  0
 11 12  1  0  0  0  0
M  END
>  <CHROM.1>
-68.88768723,-168.77521011,47.91750093,41.50085869,6.50667928,40.58861151
2.65187419,1.07128026,2.72873390

>  <Name>
ligand

>  <RI>
0

>  <Rbt.Current_Directory>
/home/itssahil/PROJECTS/Mol_Feturizer/New_Systems/rnas/4E8N

>  <Rbt.Executable>
rbdock ($Id: //depot/dev/client3/rdock/2013.1/src/exe/rbdock.cxx#4 $)

>  <Rbt.Library>
libRbt.so (2013.1, Build901 2013/11/27)

>  <Rbt.Parameter_File>
/export/apps/rDock/src/rDock_2013.1_src/data/scripts/dock_solv.prm

>  <Rbt.Receptor>
prm/blind_docking_80.prm

>  <SCORE>
-19.0894

>  <SCORE.INTER>
-15.4147

>  <SCORE.INTER.CONST>
1

>  <SCORE.INTER.POLAR>
0

>  <SCORE.INTER.ROT>
3

>  <SCORE.INTER.SOLV>
8.44416

>  <SCORE.INTER.VDW>
-18.6912

>  <SCORE.INTER.norm>
-1.28456

>  <SCORE.INTRA>
-3.67473

>  <SCORE.INTRA.DIHEDRAL>
-4.04729

>  <SCORE.INTRA.DIHEDRAL.0>
5.0186

>  <SCORE.INTRA.POLAR>
0

>  <SCORE.INTRA.POLAR.0>
0

>  <SCORE.INTRA.REPUL>
0

>  <SCORE.INTRA.REPUL.0>
0

>  <SCORE.INTRA.SOLV>
-0.131929

>  <SCORE.INTRA.SOLV.lig_0>
-16.1608

>  <SCORE.INTRA.VDW>
-1.58512

>  <SCORE.INTRA.VDW.0>
1.14169

>  <SCORE.INTRA.norm>
-0.306228

>  <SCORE.RESTR>
0

>  <SCORE.RESTR.CAVITY>
0

>  <SCORE.RESTR.norm>
0

>  <SCORE.SYSTEM>
0

>  <SCORE.SYSTEM.CONST>
0

>  <SCORE.SYSTEM.DIHEDRAL>
0

>  <SCORE.SYSTEM.SOLV>
0

>  <SCORE.SYSTEM.norm>
0

>  <SCORE.heavy>
12

>  <SCORE.norm>
-1.59078

>  <RMSD>
45.260

$$$$
ligand
 OpenBabel11021811493D
libRbt.so/2013.1/901 2013/11/27
 12 12  0  0  0  0  0  0  0  0999 V2000
   16.0850   10.4262   36.1555 N   0  0  0  0  0  0  0  0  0  0  0  0
   20.0959    7.2971   36.9439 O   0  0  0  0  0  0  0  0  0  0  0  0
   14.8062    9.9179   36.7098 C   0  0  0  0  0  0  0  0  0  0  0  0
   18.5153    6.6047   35.3332 O   0  0  0  0  0  0  0  0  0  0  0  0
   14.0315   11.0968   37.2897 C   0  0  0  0  0  0  0  0  0  0  0  0
   20.2253    8.2527   34.7050 O   0  0  0  0  0  0  0  0  0  0  0  0
   13.6779   12.0282   36.2143 N   0  0  0  0  0  0  0  0  0  0  0  0
   14.2469   11.5169   34.9649 C   0  0  0  0  0  0  0  0  0  0  0  0
   15.7528   11.4618   35.1575 C   0  0  0  0  0  0  0  0  0  0  0  0
   17.0128    9.3796   35.5682 C   0  0  0  0  0  0  0  0  0  0  0  0
   18.1265    8.8361   36.5010 C   0  0  0  0  0  0  0  0  0  0  0  0
   19.2391    7.7242   35.8773 S   0  0  0  0  0  0  0  0  0  0  0  0
  1  3  1  0  0  0  0
  1  9  1  0  0  0  0
  1 10  1  0  0  0  0
  2 12  1  0  0  0  0
  3  5  1  0  0  0  0
  4 12  2  0  0  0  0
  5  7  1  0  0  0  0
  6 12  2  0  0  0  0
  7  8  1  0  0  0  0
  8  9  1  0  0  0  0
 10 11  1  0  0  0  0
 11 12  1  0  0  0  0
M  END
>  <CHROM.1>
-95.63756607,-176.98141606,-175.66500652,17.13149900,9.30749003,35.93570551
-2.82854161,-0.56385646,2.19035164

>  <Name>
ligand

>  <RI>
0

>  <Rbt.Current_Directory>
/home/itssahil/PROJECTS/Mol_Feturizer/New_Systems/rnas/4E8N

>  <Rbt.Executable>
rbdock ($Id: //depot/dev/client3/rdock/2013.1/src/exe/rbdock.cxx#4 $)

>  <Rbt.Library>
libRbt.so (2013.1, Build901 2013/11/27)

>  <Rbt.Parameter_File>
/export/apps/rDock/src/rDock_2013.1_src/data/scripts/dock_solv.prm

>  <Rbt.Receptor>
prm/blind_docking_100.prm

>  <SCORE>
-17.1114

>  <SCORE.INTER>
-13.669

>  <SCORE.INTER.CONST>
1

>  <SCORE.INTER.POLAR>
0

>  <SCORE.INTER.ROT>
3

>  <SCORE.INTER.SOLV>
8.95714

>  <SCORE.INTER.VDW>
-17.6984

>  <SCORE.INTER.norm>
-1.13908

>  <SCORE.INTRA>
-3.44243

>  <SCORE.INTRA.DIHEDRAL>
-3.29939

>  <SCORE.INTRA.DIHEDRAL.0>
5.0186

>  <SCORE.INTRA.POLAR>
0

>  <SCORE.INTRA.POLAR.0>
0

>  <SCORE.INTRA.REPUL>
0

>  <SCORE.INTRA.REPUL.0>
0

>  <SCORE.INTRA.SOLV>
0.0680756

>  <SCORE.INTRA.SOLV.lig_0>
-16.1608

>  <SCORE.INTRA.VDW>
-1.82677

>  <SCORE.INTRA.VDW.0>
1.14169

>  <SCORE.INTRA.norm>
-0.286869

>  <SCORE.RESTR>
0

>  <SCORE.RESTR.CAVITY>
0

>  <SCORE.RESTR.norm>
0

>  <SCORE.SYSTEM>
0

>  <SCORE.SYSTEM.CONST>
0

>  <SCORE.SYSTEM.DIHEDRAL>
0

>  <SCORE.SYSTEM.SOLV>
0

>  <SCORE.SYSTEM.norm>
0

>  <SCORE.heavy>
12

>  <SCORE.norm>
-1.42595

>  <RMSD>
45.301

$$$$
ligand
 OpenBabel11021811493D
libRbt.so/2013.1/901 2013/11/27
 12 12  0  0  0  0  0  0  0  0999 V2000
   24.1533   -3.6717   46.6652 N   0  0  0  0  0  0  0  0  0  0  0  0
   25.6762   -3.6269   50.9007 O   0  0  0  0  0  0  0  0  0  0  0  0
   23.4958   -3.0967   45.4660 C   0  0  0  0  0  0  0  0  0  0  0  0
   24.8951   -5.7365   50.1857 O   0  0  0  0  0  0  0  0  0  0  0  0
   24.5719   -2.7838   44.4315 C   0  0  0  0  0  0  0  0  0  0  0  0
   26.4110   -4.4626   48.7317 O   0  0  0  0  0  0  0  0  0  0  0  0
   25.2125   -4.0290   43.9979 N   0  0  0  0  0  0  0  0  0  0  0  0
   24.6226   -5.1326   44.7597 C   0  0  0  0  0  0  0  0  0  0  0  0
   24.9119   -4.8592   46.2258 C   0  0  0  0  0  0  0  0  0  0  0  0
   23.2348   -4.0088   47.8244 C   0  0  0  0  0  0  0  0  0  0  0  0
   23.7525   -3.6621   49.2449 C   0  0  0  0  0  0  0  0  0  0  0  0
   25.1839   -4.3833   49.7873 S   0  0  0  0  0  0  0  0  0  0  0  0
  1  3  1  0  0  0  0
  1  9  1  0  0  0  0
  1 10  1  0  0  0  0
  2 12  1  0  0  0  0
  3  5  1  0  0  0  0
  4 12  2  0  0  0  0
  5  7  1  0  0  0  0
  6 12  2  0  0  0  0
  7  8  1  0  0  0  0
  8  9  1  0  0  0  0
 10 11  1  0  0  0  0
 11 12  1  0  0  0  0
M  END
>  <CHROM.1>
-138.89368616,-60.35136236,162.25916023,24.75465446,-4.16076296,47.66029223
1.73606544,0.62549234,-1.55631411

>  <Name>
ligand

>  <RI>
0

>  <Rbt.Current_Directory>
/home/itssahil/PROJECTS/Mol_Feturizer/New_Systems/rnas/4E8N

>  <Rbt.Executable>
rbdock ($Id: //depot/dev/client3/rdock/2013.1/src/exe/rbdock.cxx#4 $)

>  <Rbt.Library>
libRbt.so (2013.1, Build901 2013/11/27)

>  <Rbt.Parameter_File>
/export/apps/rDock/src/rDock_2013.1_src/data/scripts/dock_solv.prm

>  <Rbt.Receptor>
prm/blind_docking_100.prm

>  <SCORE>
-14.4298

>  <SCORE.INTER>
-11.2566

>  <SCORE.INTER.CONST>
1

>  <SCORE.INTER.POLAR>
0

>  <SCORE.INTER.ROT>
3

>  <SCORE.INTER.SOLV>
10.0207

>  <SCORE.INTER.VDW>
-16.4446

>  <SCORE.INTER.norm>
-0.938047

>  <SCORE.INTRA>
-3.17323

>  <SCORE.INTRA.DIHEDRAL>
-2.53425

>  <SCORE.INTRA.DIHEDRAL.0>
5.0186

>  <SCORE.INTRA.POLAR>
0

>  <SCORE.INTRA.POLAR.0>
0

>  <SCORE.INTRA.REPUL>
0

>  <SCORE.INTRA.REPUL.0>
0

>  <SCORE.INTRA.SOLV>
0.870568

>  <SCORE.INTRA.SOLV.lig_0>
-16.1608

>  <SCORE.INTRA.VDW>
-2.34139

>  <SCORE.INTRA.VDW.0>
1.14169

>  <SCORE.INTRA.norm>
-0.264436

>  <SCORE.RESTR>
0

>  <SCORE.RESTR.CAVITY>
0

>  <SCORE.RESTR.norm>
0

>  <SCORE.SYSTEM>
0

>  <SCORE.SYSTEM.CONST>
0

>  <SCORE.SYSTEM.DIHEDRAL>
0

>  <SCORE.SYSTEM.SOLV>
0

>  <SCORE.SYSTEM.norm>
0

>  <SCORE.heavy>
12

>  <SCORE.norm>
-1.20248

>  <RMSD>
45.307

$$$$
ligand
 OpenBabel11021811493D
libRbt.so/2013.1/901 2013/11/27
 12 12  0  0  0  0  0  0  0  0999 V2000
   41.1519    5.3569   39.7014 N   0  0  0  0  0  0  0  0  0  0  0  0
   44.2329    8.1620   41.5408 O   0  0  0  0  0  0  0  0  0  0  0  0
   39.6858    5.4139   39.4822 C   0  0  0  0  0  0  0  0  0  0  0  0
   42.7043    9.9580   41.4423 O   0  0  0  0  0  0  0  0  0  0  0  0
   39.3511    4.5783   38.2509 C   0  0  0  0  0  0  0  0  0  0  0  0
   42.5388    8.3413   43.2845 O   0  0  0  0  0  0  0  0  0  0  0  0
   39.6790    3.1728   38.5078 N   0  0  0  0  0  0  0  0  0  0  0  0
   40.2667    3.0807   39.8466 C   0  0  0  0  0  0  0  0  0  0  0  0
   41.5232    3.9345   39.8353 C   0  0  0  0  0  0  0  0  0  0  0  0
   41.6774    6.1705   40.8689 C   0  0  0  0  0  0  0  0  0  0  0  0
   41.9210    7.6803   40.6100 C   0  0  0  0  0  0  0  0  0  0  0  0
   42.8645    8.5525   41.7111 S   0  0  0  0  0  0  0  0  0  0  0  0
  1  3  1  0  0  0  0
  1  9  1  0  0  0  0
  1 10  1  0  0  0  0
  2 12  1  0  0  0  0
  3  5  1  0  0  0  0
  4 12  2  0  0  0  0
  5  7  1  0  0  0  0
  6 12  2  0  0  0  0
  7  8  1  0  0  0  0
  8  9  1  0  0  0  0
 10 11  1  0  0  0  0
 11 12  1  0  0  0  0
M  END
>  <CHROM.1>
-82.71973547,-164.39514959,72.75992075,41.64985191,6.50189941,40.59585308
2.25113624,0.73672767,-3.11352519

>  <Name>
ligand

>  <RI>
0

>  <Rbt.Current_Directory>
/home/itssahil/PROJECTS/Mol_Feturizer/New_Systems/rnas/4E8N

>  <Rbt.Executable>
rbdock ($Id: //depot/dev/client3/rdock/2013.1/src/exe/rbdock.cxx#4 $)

>  <Rbt.Library>
libRbt.so (2013.1, Build901 2013/11/27)

>  <Rbt.Parameter_File>
/export/apps/rDock/src/rDock_2013.1_src/data/scripts/dock_solv.prm

>  <Rbt.Receptor>
prm/blind_docking_80.prm

>  <SCORE>
-19.8733

>  <SCORE.INTER>
-16.58

>  <SCORE.INTER.CONST>
1

>  <SCORE.INTER.POLAR>
0

>  <SCORE.INTER.ROT>
3

>  <SCORE.INTER.SOLV>
7.87629

>  <SCORE.INTER.VDW>
-19.2787

>  <SCORE.INTER.norm>
-1.38166

>  <SCORE.INTRA>
-3.29328

>  <SCORE.INTRA.DIHEDRAL>
-2.90598

>  <SCORE.INTRA.DIHEDRAL.0>
5.0186

>  <SCORE.INTRA.POLAR>
0

>  <SCORE.INTRA.POLAR.0>
0

>  <SCORE.INTRA.REPUL>
0

>  <SCORE.INTRA.REPUL.0>
0

>  <SCORE.INTRA.SOLV>
-0.0794038

>  <SCORE.INTRA.SOLV.lig_0>
-16.1608

>  <SCORE.INTRA.VDW>
-1.80059

>  <SCORE.INTRA.VDW.0>
1.14169

>  <SCORE.INTRA.norm>
-0.27444

>  <SCORE.RESTR>
0

>  <SCORE.RESTR.CAVITY>
0

>  <SCORE.RESTR.norm>
0

>  <SCORE.SYSTEM>
0

>  <SCORE.SYSTEM.CONST>
0

>  <SCORE.SYSTEM.DIHEDRAL>
0

>  <SCORE.SYSTEM.SOLV>
0

>  <SCORE.SYSTEM.norm>
0

>  <SCORE.heavy>
12

>  <SCORE.norm>
-1.6561

>  <RMSD>
45.310

$$$$
ligand
 OpenBabel11021811493D
libRbt.so/2013.1/901 2013/11/27
 12 12  0  0  0  0  0  0  0  0999 V2000
   41.3482    5.1323   39.7796 N   0  0  0  0  0  0  0  0  0  0  0  0
   42.4030    8.2753   43.0348 O   0  0  0  0  0  0  0  0  0  0  0  0
   39.8796    5.2502   39.6064 C   0  0  0  0  0  0  0  0  0  0  0  0
   44.1942    8.2196   41.4985 O   0  0  0  0  0  0  0  0  0  0  0  0
   39.4589    4.3538   38.4464 C   0  0  0  0  0  0  0  0  0  0  0  0
   42.6461   10.1267   41.4677 O   0  0  0  0  0  0  0  0  0  0  0  0
   39.7266    2.9532   38.7866 N   0  0  0  0  0  0  0  0  0  0  0  0
   40.3581    2.9193   40.1081 C   0  0  0  0  0  0  0  0  0  0  0  0
   41.6538    3.7045   39.9968 C   0  0  0  0  0  0  0  0  0  0  0  0
   41.9560    5.9928   40.8711 C   0  0  0  0  0  0  0  0  0  0  0  0
   41.8876    7.5285   40.6642 C   0  0  0  0  0  0  0  0  0  0  0  0
   42.7995    8.5276   41.6809 S   0  0  0  0  0  0  0  0  0  0  0  0
  1  3  1  0  0  0  0
  1  9  1  0  0  0  0
  1 10  1  0  0  0  0
  2 12  1  0  0  0  0
  3  5  1  0  0  0  0
  4 12  2  0  0  0  0
  5  7  1  0  0  0  0
  6 12  2  0  0  0  0
  7  8  1  0  0  0  0
  8  9  1  0  0  0  0
 10 11  1  0  0  0  0
 11 12  1  0  0  0  0
M  END
>  <CHROM.1>
-65.55814608,-168.33514876,-58.14326180,41.69351808,6.39778922,40.65291095
-2.15575838,-0.66451937,0.06824071

>  <Name>
ligand

>  <RI>
0

>  <Rbt.Current_Directory>
/home/itssahil/PROJECTS/Mol_Feturizer/New_Systems/rnas/4E8N

>  <Rbt.Executable>
rbdock ($Id: //depot/dev/client3/rdock/2013.1/src/exe/rbdock.cxx#4 $)

>  <Rbt.Library>
libRbt.so (2013.1, Build901 2013/11/27)

>  <Rbt.Parameter_File>
/export/apps/rDock/src/rDock_2013.1_src/data/scripts/dock_solv.prm

>  <Rbt.Receptor>
prm/blind_docking_100.prm

>  <SCORE>
-20.1979

>  <SCORE.INTER>
-16.388

>  <SCORE.INTER.CONST>
1

>  <SCORE.INTER.POLAR>
0

>  <SCORE.INTER.ROT>
3

>  <SCORE.INTER.SOLV>
8.75375

>  <SCORE.INTER.VDW>
-19.4432

>  <SCORE.INTER.norm>
-1.36567

>  <SCORE.INTRA>
-3.80988

>  <SCORE.INTRA.DIHEDRAL>
-4.42577

>  <SCORE.INTRA.DIHEDRAL.0>
5.0186

>  <SCORE.INTRA.POLAR>
0

>  <SCORE.INTRA.POLAR.0>
0

>  <SCORE.INTRA.REPUL>
0

>  <SCORE.INTRA.REPUL.0>
0

>  <SCORE.INTRA.SOLV>
-0.114542

>  <SCORE.INTRA.SOLV.lig_0>
-16.1608

>  <SCORE.INTRA.VDW>
-1.53972

>  <SCORE.INTRA.VDW.0>
1.14169

>  <SCORE.INTRA.norm>
-0.31749

>  <SCORE.RESTR>
0

>  <SCORE.RESTR.CAVITY>
0

>  <SCORE.RESTR.norm>
0

>  <SCORE.SYSTEM>
0

>  <SCORE.SYSTEM.CONST>
0

>  <SCORE.SYSTEM.DIHEDRAL>
0

>  <SCORE.SYSTEM.SOLV>
0

>  <SCORE.SYSTEM.norm>
0

>  <SCORE.heavy>
12

>  <SCORE.norm>
-1.68315

>  <RMSD>
45.316

$$$$
ligand
 OpenBabel11021811493D
libRbt.so/2013.1/901 2013/11/27
 12 12  0  0  0  0  0  0  0  0999 V2000
   41.3347    5.3125   39.7057 N   0  0  0  0  0  0  0  0  0  0  0  0
   42.5351    8.4525   42.9825 O   0  0  0  0  0  0  0  0  0  0  0  0
   39.8775    5.5351   39.5387 C   0  0  0  0  0  0  0  0  0  0  0  0
   44.2979    8.2156   41.4306 O   0  0  0  0  0  0  0  0  0  0  0  0
   39.3878    4.6662   38.3849 C   0  0  0  0  0  0  0  0  0  0  0  0
   42.8961   10.2316   41.3555 O   0  0  0  0  0  0  0  0  0  0  0  0
   39.5556    3.2515   38.7306 N   0  0  0  0  0  0  0  0  0  0  0  0
   40.1895    3.1781   40.0493 C   0  0  0  0  0  0  0  0  0  0  0  0
   41.5378    3.8675   39.9283 C   0  0  0  0  0  0  0  0  0  0  0  0
   42.0082    6.1319   40.7902 C   0  0  0  0  0  0  0  0  0  0  0  0
   41.9360    7.6742   40.6418 C   0  0  0  0  0  0  0  0  0  0  0  0
   42.9325    8.6328   41.6173 S   0  0  0  0  0  0  0  0  0  0  0  0
  1  3  1  0  0  0  0
  1  9  1  0  0  0  0
  1 10  1  0  0  0  0
  2 12  1  0  0  0  0
  3  5  1  0  0  0  0
  4 12  2  0  0  0  0
  5  7  1  0  0  0  0
  6 12  2  0  0  0  0
  7  8  1  0  0  0  0
  8  9  1  0  0  0  0
 10 11  1  0  0  0  0
 11 12  1  0  0  0  0
M  END
>  <CHROM.1>
-60.13243400,-167.10932830,-64.79203294,41.72392450,6.56848512,40.58727353
-2.22347614,-0.66737015,0.02631425

>  <Name>
ligand

>  <RI>
0

>  <Rbt.Current_Directory>
/home/itssahil/PROJECTS/Mol_Feturizer/New_Systems/rnas/4E8N

>  <Rbt.Executable>
rbdock ($Id: //depot/dev/client3/rdock/2013.1/src/exe/rbdock.cxx#4 $)

>  <Rbt.Library>
libRbt.so (2013.1, Build901 2013/11/27)

>  <Rbt.Parameter_File>
/export/apps/rDock/src/rDock_2013.1_src/data/scripts/dock_solv.prm

>  <Rbt.Receptor>
prm/blind_docking_100.prm

>  <SCORE>
-20.4018

>  <SCORE.INTER>
-16.7359

>  <SCORE.INTER.CONST>
1

>  <SCORE.INTER.POLAR>
0

>  <SCORE.INTER.ROT>
3

>  <SCORE.INTER.SOLV>
8.96798

>  <SCORE.INTER.VDW>
-19.7466

>  <SCORE.INTER.norm>
-1.39466

>  <SCORE.INTRA>
-3.66704

>  <SCORE.INTRA.DIHEDRAL>
-4.3553

>  <SCORE.INTRA.DIHEDRAL.0>
5.0186

>  <SCORE.INTRA.POLAR>
0

>  <SCORE.INTRA.POLAR.0>
0

>  <SCORE.INTRA.REPUL>
0

>  <SCORE.INTRA.REPUL.0>
0

>  <SCORE.INTRA.SOLV>
-0.0987926

>  <SCORE.INTRA.SOLV.lig_0>
-16.1608

>  <SCORE.INTRA.VDW>
-1.44

>  <SCORE.INTRA.VDW.0>
1.14169

>  <SCORE.INTRA.norm>
-0.305587

>  <SCORE.RESTR>
0.00113728

>  <SCORE.RESTR.CAVITY>
0.00113728

>  <SCORE.RESTR.norm>
9.47734e-05

>  <SCORE.SYSTEM>
0

>  <SCORE.SYSTEM.CONST>
0

>  <SCORE.SYSTEM.DIHEDRAL>
0

>  <SCORE.SYSTEM.SOLV>
0

>  <SCORE.SYSTEM.norm>
0

>  <SCORE.heavy>
12

>  <SCORE.norm>
-1.70015

>  <RMSD>
45.379

$$$$
ligand
 OpenBabel11021811493D
libRbt.so/2013.1/901 2013/11/27
 12 12  0  0  0  0  0  0  0  0999 V2000
   41.3819    5.2988   39.7530 N   0  0  0  0  0  0  0  0  0  0  0  0
   42.5351    8.4886   42.9805 O   0  0  0  0  0  0  0  0  0  0  0  0
   39.9693    5.5655   39.3865 C   0  0  0  0  0  0  0  0  0  0  0  0
   44.3228    8.1987   41.4667 O   0  0  0  0  0  0  0  0  0  0  0  0
   39.5948    4.6548   38.2218 C   0  0  0  0  0  0  0  0  0  0  0  0
   42.9560   10.2355   41.3330 O   0  0  0  0  0  0  0  0  0  0  0  0
   39.6554    3.2553   38.6541 N   0  0  0  0  0  0  0  0  0  0  0  0
   40.1107    3.2291   40.0463 C   0  0  0  0  0  0  0  0  0  0  0  0
   41.4920    3.8612   40.0694 C   0  0  0  0  0  0  0  0  0  0  0  0
   41.9452    6.1496   40.8755 C   0  0  0  0  0  0  0  0  0  0  0  0
   41.9677    7.6827   40.6413 C   0  0  0  0  0  0  0  0  0  0  0  0
   42.9611    8.6406   41.6206 S   0  0  0  0  0  0  0  0  0  0  0  0
  1  3  1  0  0  0  0
  1  9  1  0  0  0  0
  1 10  1  0  0  0  0
  2 12  1  0  0  0  0
  3  5  1  0  0  0  0
  4 12  2  0  0  0  0
  5  7  1  0  0  0  0
  6 12  2  0  0  0  0
  7  8  1  0  0  0  0
  8  9  1  0  0  0  0
 10 11  1  0  0  0  0
 11 12  1  0  0  0  0
M  END
>  <CHROM.1>
-60.50552422,-162.66134051,-60.99315456,41.75690853,6.57755154,40.57989372
-2.30563419,-0.78936734,-0.09368857

>  <Name>
ligand

>  <RI>
0

>  <Rbt.Current_Directory>
/home/itssahil/PROJECTS/Mol_Feturizer/New_Systems/rnas/4E8N

>  <Rbt.Executable>
rbdock ($Id: //depot/dev/client3/rdock/2013.1/src/exe/rbdock.cxx#4 $)

>  <Rbt.Library>
libRbt.so (2013.1, Build901 2013/11/27)

>  <Rbt.Parameter_File>
/export/apps/rDock/src/rDock_2013.1_src/data/scripts/dock_solv.prm

>  <Rbt.Receptor>
prm/blind_docking_80.prm

>  <SCORE>
-20.4839

>  <SCORE.INTER>
-17.0068

>  <SCORE.INTER.CONST>
1

>  <SCORE.INTER.POLAR>
0

>  <SCORE.INTER.ROT>
3

>  <SCORE.INTER.SOLV>
8.99016

>  <SCORE.INTER.VDW>
-19.9346

>  <SCORE.INTER.norm>
-1.41724

>  <SCORE.INTRA>
-3.4771

>  <SCORE.INTRA.DIHEDRAL>
-3.94612

>  <SCORE.INTRA.DIHEDRAL.0>
5.0186

>  <SCORE.INTRA.POLAR>
0

>  <SCORE.INTRA.POLAR.0>
0

>  <SCORE.INTRA.REPUL>
0

>  <SCORE.INTRA.REPUL.0>
0

>  <SCORE.INTRA.SOLV>
-0.10558

>  <SCORE.INTRA.SOLV.lig_0>
-16.1608

>  <SCORE.INTRA.VDW>
-1.45125

>  <SCORE.INTRA.VDW.0>
1.14169

>  <SCORE.INTRA.norm>
-0.289758

>  <SCORE.RESTR>
0

>  <SCORE.RESTR.CAVITY>
0

>  <SCORE.RESTR.norm>
0

>  <SCORE.SYSTEM>
0

>  <SCORE.SYSTEM.CONST>
0

>  <SCORE.SYSTEM.DIHEDRAL>
0

>  <SCORE.SYSTEM.SOLV>
0

>  <SCORE.SYSTEM.norm>
0

>  <SCORE.heavy>
12

>  <SCORE.norm>
-1.70699

>  <RMSD>
45.384

$$$$
ligand
 OpenBabel11021811493D
libRbt.so/2013.1/901 2013/11/27
 12 12  0  0  0  0  0  0  0  0999 V2000
   41.3118    5.4677   39.6094 N   0  0  0  0  0  0  0  0  0  0  0  0
   44.2424    8.2777   41.5693 O   0  0  0  0  0  0  0  0  0  0  0  0
   39.9246    5.8618   39.2609 C   0  0  0  0  0  0  0  0  0  0  0  0
   42.6770   10.0441   41.5373 O   0  0  0  0  0  0  0  0  0  0  0  0
   39.4833    5.0463   38.0499 C   0  0  0  0  0  0  0  0  0  0  0  0
   42.5990    8.4050   43.3653 O   0  0  0  0  0  0  0  0  0  0  0  0
   39.4349    3.6252   38.4067 N   0  0  0  0  0  0  0  0  0  0  0  0
   39.8841    3.4895   39.7945 C   0  0  0  0  0  0  0  0  0  0  0  0
   41.3099    4.0110   39.8484 C   0  0  0  0  0  0  0  0  0  0  0  0
   41.9367    6.2113   40.7746 C   0  0  0  0  0  0  0  0  0  0  0  0
   41.9129    7.7606   40.7035 C   0  0  0  0  0  0  0  0  0  0  0  0
   42.8725    8.6393   41.7853 S   0  0  0  0  0  0  0  0  0  0  0  0
  1  3  1  0  0  0  0
  1  9  1  0  0  0  0
  1 10  1  0  0  0  0
  2 12  1  0  0  0  0
  3  5  1  0  0  0  0
  4 12  2  0  0  0  0
  5  7  1  0  0  0  0
  6 12  2  0  0  0  0
  7  8  1  0  0  0  0
  8  9  1  0  0  0  0
 10 11  1  0  0  0  0
 11 12  1  0  0  0  0
M  END
>  <CHROM.1>
-52.89170484,-167.01102505,60.40948569,41.65050750,6.69057069,40.57742297
-2.39781165,-0.84805331,-0.10245351

>  <Name>
ligand

>  <RI>
0

>  <Rbt.Current_Directory>
/home/itssahil/PROJECTS/Mol_Feturizer/New_Systems/rnas/4E8N

>  <Rbt.Executable>
rbdock ($Id: //depot/dev/client3/rdock/2013.1/src/exe/rbdock.cxx#4 $)

>  <Rbt.Library>
libRbt.so (2013.1, Build901 2013/11/27)

>  <Rbt.Parameter_File>
/export/apps/rDock/src/rDock_2013.1_src/data/scripts/dock_solv.prm

>  <Rbt.Receptor>
prm/blind_docking_100.prm

>  <SCORE>
-20.7763

>  <SCORE.INTER>
-17.2319

>  <SCORE.INTER.CONST>
1

>  <SCORE.INTER.POLAR>
0

>  <SCORE.INTER.ROT>
3

>  <SCORE.INTER.SOLV>
8.60456

>  <SCORE.INTER.VDW>
-19.9561

>  <SCORE.INTER.norm>
-1.43599

>  <SCORE.INTRA>
-3.5444

>  <SCORE.INTRA.DIHEDRAL>
-4.34732

>  <SCORE.INTRA.DIHEDRAL.0>
5.0186

>  <SCORE.INTRA.POLAR>
0

>  <SCORE.INTRA.POLAR.0>
0

>  <SCORE.INTRA.REPUL>
0

>  <SCORE.INTRA.REPUL.0>
0

>  <SCORE.INTRA.SOLV>
-0.10232

>  <SCORE.INTRA.SOLV.lig_0>
-16.1608

>  <SCORE.INTRA.VDW>
-1.31958

>  <SCORE.INTRA.VDW.0>
1.14169

>  <SCORE.INTRA.norm>
-0.295367

>  <SCORE.RESTR>
0

>  <SCORE.RESTR.CAVITY>
0

>  <SCORE.RESTR.norm>
0

>  <SCORE.SYSTEM>
0

>  <SCORE.SYSTEM.CONST>
0

>  <SCORE.SYSTEM.DIHEDRAL>
0

>  <SCORE.SYSTEM.SOLV>
0

>  <SCORE.SYSTEM.norm>
0

>  <SCORE.heavy>
12

>  <SCORE.norm>
-1.73136

>  <RMSD>
45.403

$$$$
ligand
 OpenBabel11021811493D
libRbt.so/2013.1/901 2013/11/27
 12 12  0  0  0  0  0  0  0  0999 V2000
   41.4251    5.4071   39.7550 N   0  0  0  0  0  0  0  0  0  0  0  0
   44.2803    8.4116   41.5482 O   0  0  0  0  0  0  0  0  0  0  0  0
   40.0457    5.7417   39.3236 C   0  0  0  0  0  0  0  0  0  0  0  0
   42.6471   10.1136   41.4621 O   0  0  0  0  0  0  0  0  0  0  0  0
   39.6795    4.8445   38.1458 C   0  0  0  0  0  0  0  0  0  0  0  0
   42.6387    8.5370   43.3460 O   0  0  0  0  0  0  0  0  0  0  0  0
   39.6505    3.4461   38.5847 N   0  0  0  0  0  0  0  0  0  0  0  0
   40.0403    3.4047   39.9963 C   0  0  0  0  0  0  0  0  0  0  0  0
   41.4488    3.9675   40.0805 C   0  0  0  0  0  0  0  0  0  0  0  0
   41.9785    6.2348   40.8994 C   0  0  0  0  0  0  0  0  0  0  0  0
   41.9703    7.7744   40.7110 C   0  0  0  0  0  0  0  0  0  0  0  0
   42.8980    8.7269   41.7576 S   0  0  0  0  0  0  0  0  0  0  0  0
  1  3  1  0  0  0  0
  1  9  1  0  0  0  0
  1 10  1  0  0  0  0
  2 12  1  0  0  0  0
  3  5  1  0  0  0  0
  4 12  2  0  0  0  0
  5  7  1  0  0  0  0
  6 12  2  0  0  0  0
  7  8  1  0  0  0  0
  8  9  1  0  0  0  0
 10 11  1  0  0  0  0
 11 12  1  0  0  0  0
M  END
>  <CHROM.1>
-55.20831933,-165.33491050,64.60594195,41.73463042,6.68552287,40.63966797
-2.39111946,-0.88711853,-0.16475775

>  <Name>
ligand

>  <RI>
0

>  <Rbt.Current_Directory>
/home/itssahil/PROJECTS/Mol_Feturizer/New_Systems/rnas/4E8N

>  <Rbt.Executable>
rbdock ($Id: //depot/dev/client3/rdock/2013.1/src/exe/rbdock.cxx#4 $)

>  <Rbt.Library>
libRbt.so (2013.1, Build901 2013/11/27)

>  <Rbt.Parameter_File>
/export/apps/rDock/src/rDock_2013.1_src/data/scripts/dock_solv.prm

>  <Rbt.Receptor>
prm/blind_docking_80.prm

>  <SCORE>
-20.8577

>  <SCORE.INTER>
-17.3404

>  <SCORE.INTER.CONST>
1

>  <SCORE.INTER.POLAR>
0

>  <SCORE.INTER.ROT>
3

>  <SCORE.INTER.SOLV>
8.68843

>  <SCORE.INTER.VDW>
-20.0564

>  <SCORE.INTER.norm>
-1.44503

>  <SCORE.INTRA>
-3.51726

>  <SCORE.INTRA.DIHEDRAL>
-4.16402

>  <SCORE.INTRA.DIHEDRAL.0>
5.0186

>  <SCORE.INTRA.POLAR>
0

>  <SCORE.INTRA.POLAR.0>
0

>  <SCORE.INTRA.REPUL>
0

>  <SCORE.INTRA.REPUL.0>
0

>  <SCORE.INTRA.SOLV>
-0.0933666

>  <SCORE.INTRA.SOLV.lig_0>
-16.1608

>  <SCORE.INTRA.VDW>
-1.38857

>  <SCORE.INTRA.VDW.0>
1.14169

>  <SCORE.INTRA.norm>
-0.293105

>  <SCORE.RESTR>
0

>  <SCORE.RESTR.CAVITY>
0

>  <SCORE.RESTR.norm>
0

>  <SCORE.SYSTEM>
0

>  <SCORE.SYSTEM.CONST>
0

>  <SCORE.SYSTEM.DIHEDRAL>
0

>  <SCORE.SYSTEM.SOLV>
0

>  <SCORE.SYSTEM.norm>
0

>  <SCORE.heavy>
12

>  <SCORE.norm>
-1.73814

>  <RMSD>
45.471

$$$$
ligand
 OpenBabel11021811493D
libRbt.so/2013.1/901 2013/11/27
 12 12  0  0  0  0  0  0  0  0999 V2000
   41.3737    5.5037   39.7174 N   0  0  0  0  0  0  0  0  0  0  0  0
   42.6785   10.1471   41.4616 O   0  0  0  0  0  0  0  0  0  0  0  0
   39.9831    5.8702   39.3530 C   0  0  0  0  0  0  0  0  0  0  0  0
   42.7588    8.4446   43.0947 O   0  0  0  0  0  0  0  0  0  0  0  0
   39.5575    5.0170   38.1626 C   0  0  0  0  0  0  0  0  0  0  0  0
   44.5424    8.5768   41.4107 O   0  0  0  0  0  0  0  0  0  0  0  0
   39.5259    3.6054   38.5570 N   0  0  0  0  0  0  0  0  0  0  0  0
   39.9709    3.5127   39.9497 C   0  0  0  0  0  0  0  0  0  0  0  0
   41.3897    4.0540   39.9952 C   0  0  0  0  0  0  0  0  0  0  0  0
   41.9841    6.2861   40.8647 C   0  0  0  0  0  0  0  0  0  0  0  0
   41.8937    7.8321   40.7772 C   0  0  0  0  0  0  0  0  0  0  0  0
   42.9597    8.7630   41.7049 S   0  0  0  0  0  0  0  0  0  0  0  0
  1  3  1  0  0  0  0
  1  9  1  0  0  0  0
  1 10  1  0  0  0  0
  2 12  1  0  0  0  0
  3  5  1  0  0  0  0
  4 12  2  0  0  0  0
  5  7  1  0  0  0  0
  6 12  2  0  0  0  0
  7  8  1  0  0  0  0
  8  9  1  0  0  0  0
 10 11  1  0  0  0  0
 11 12  1  0  0  0  0
M  END
>  <CHROM.1>
-50.69438295,-159.95880792,-179.67146537,41.73848014,6.76312049,40.58974081
-2.33231458,-0.76581314,-0.06044547

>  <Name>
ligand

>  <RI>
0

>  <Rbt.Current_Directory>
/home/itssahil/PROJECTS/Mol_Feturizer/New_Systems/rnas/4E8N

>  <Rbt.Executable>
rbdock ($Id: //depot/dev/client3/rdock/2013.1/src/exe/rbdock.cxx#4 $)

>  <Rbt.Library>
libRbt.so (2013.1, Build901 2013/11/27)

>  <Rbt.Parameter_File>
/export/apps/rDock/src/rDock_2013.1_src/data/scripts/dock_solv.prm

>  <Rbt.Receptor>
prm/blind_docking_80.prm

>  <SCORE>
-20.3836

>  <SCORE.INTER>
-17.417

>  <SCORE.INTER.CONST>
1

>  <SCORE.INTER.POLAR>
0

>  <SCORE.INTER.ROT>
3

>  <SCORE.INTER.SOLV>
8.9603

>  <SCORE.INTER.VDW>
-20.1981

>  <SCORE.INTER.norm>
-1.45142

>  <SCORE.INTRA>
-2.96654

>  <SCORE.INTRA.DIHEDRAL>
-3.52868

>  <SCORE.INTRA.DIHEDRAL.0>
5.0186

>  <SCORE.INTRA.POLAR>
0

>  <SCORE.INTRA.POLAR.0>
0

>  <SCORE.INTRA.REPUL>
0

>  <SCORE.INTRA.REPUL.0>
0

>  <SCORE.INTRA.SOLV>
0.0796812

>  <SCORE.INTRA.SOLV.lig_0>
-16.1608

>  <SCORE.INTRA.VDW>
-1.24204

>  <SCORE.INTRA.VDW.0>
1.14169

>  <SCORE.INTRA.norm>
-0.247211

>  <SCORE.RESTR>
0

>  <SCORE.RESTR.CAVITY>
0

>  <SCORE.RESTR.norm>
0

>  <SCORE.SYSTEM>
0

>  <SCORE.SYSTEM.CONST>
0

>  <SCORE.SYSTEM.DIHEDRAL>
0

>  <SCORE.SYSTEM.SOLV>
0

>  <SCORE.SYSTEM.norm>
0

>  <SCORE.heavy>
12

>  <SCORE.norm>
-1.69863

>  <RMSD>
45.495

$$$$
ligand
 OpenBabel11021811493D
libRbt.so/2013.1/901 2013/11/27
 12 12  0  0  0  0  0  0  0  0999 V2000
   41.8212    4.9439   40.2299 N   0  0  0  0  0  0  0  0  0  0  0  0
   43.8170    9.4595   41.6903 O   0  0  0  0  0  0  0  0  0  0  0  0
   40.8036    5.0803   39.1591 C   0  0  0  0  0  0  0  0  0  0  0  0
   41.4630    9.3324   41.5716 O   0  0  0  0  0  0  0  0  0  0  0  0
   40.9564    3.9056   38.1984 C   0  0  0  0  0  0  0  0  0  0  0  0
   42.6158    8.4210   43.5400 O   0  0  0  0  0  0  0  0  0  0  0  0
   40.6557    2.6548   38.9012 N   0  0  0  0  0  0  0  0  0  0  0  0
   40.3667    2.9780   40.3006 C   0  0  0  0  0  0  0  0  0  0  0  0
   41.6161    3.6291   40.8688 C   0  0  0  0  0  0  0  0  0  0  0  0
   41.8464    6.0547   41.2627 C   0  0  0  0  0  0  0  0  0  0  0  0
   42.7997    7.2452   40.9797 C   0  0  0  0  0  0  0  0  0  0  0  0
   42.6698    8.6360   41.9347 S   0  0  0  0  0  0  0  0  0  0  0  0
  1  3  1  0  0  0  0
  1  9  1  0  0  0  0
  1 10  1  0  0  0  0
  2 12  1  0  0  0  0
  3  5  1  0  0  0  0
  4 12  2  0  0  0  0
  5  7  1  0  0  0  0
  6 12  2  0  0  0  0
  7  8  1  0  0  0  0
  8  9  1  0  0  0  0
 10 11  1  0  0  0  0
 11 12  1  0  0  0  0
M  END
>  <CHROM.1>
-91.72364484,168.96663982,167.56066193,41.89501589,6.36714739,40.88161151
-2.99621456,-1.26654098,-0.95450114

>  <Name>
ligand

>  <RI>
0

>  <Rbt.Current_Directory>
/home/itssahil/PROJECTS/Mol_Feturizer/New_Systems/rnas/4E8N

>  <Rbt.Executable>
rbdock ($Id: //depot/dev/client3/rdock/2013.1/src/exe/rbdock.cxx#4 $)

>  <Rbt.Library>
libRbt.so (2013.1, Build901 2013/11/27)

>  <Rbt.Parameter_File>
/export/apps/rDock/src/rDock_2013.1_src/data/scripts/dock_solv.prm

>  <Rbt.Receptor>
prm/blind_docking_100.prm

>  <SCORE>
-18.8862

>  <SCORE.INTER>
-15.6324

>  <SCORE.INTER.CONST>
1

>  <SCORE.INTER.POLAR>
0

>  <SCORE.INTER.ROT>
3

>  <SCORE.INTER.SOLV>
8.96353

>  <SCORE.INTER.VDW>
-19.0095

>  <SCORE.INTER.norm>
-1.3027

>  <SCORE.INTRA>
-3.25374

>  <SCORE.INTRA.DIHEDRAL>
-2.81982

>  <SCORE.INTRA.DIHEDRAL.0>
5.0186

>  <SCORE.INTRA.POLAR>
0

>  <SCORE.INTRA.POLAR.0>
0

>  <SCORE.INTRA.REPUL>
0

>  <SCORE.INTRA.REPUL.0>
0

>  <SCORE.INTRA.SOLV>
0.0685918

>  <SCORE.INTRA.SOLV.lig_0>
-16.1608

>  <SCORE.INTRA.VDW>
-1.87813

>  <SCORE.INTRA.VDW.0>
1.14169

>  <SCORE.INTRA.norm>
-0.271145

>  <SCORE.RESTR>
0

>  <SCORE.RESTR.CAVITY>
0

>  <SCORE.RESTR.norm>
0

>  <SCORE.SYSTEM>
0

>  <SCORE.SYSTEM.CONST>
0

>  <SCORE.SYSTEM.DIHEDRAL>
0

>  <SCORE.SYSTEM.SOLV>
0

>  <SCORE.SYSTEM.norm>
0

>  <SCORE.heavy>
12

>  <SCORE.norm>
-1.57385

>  <RMSD>
45.496

$$$$
ligand
 OpenBabel11021811493D
libRbt.so/2013.1/901 2013/11/27
 12 12  0  0  0  0  0  0  0  0999 V2000
   41.4417    5.3873   39.8031 N   0  0  0  0  0  0  0  0  0  0  0  0
   42.6549    8.6124   43.0194 O   0  0  0  0  0  0  0  0  0  0  0  0
   40.0794    5.7731   39.3604 C   0  0  0  0  0  0  0  0  0  0  0  0
   44.3965    8.2562   41.4663 O   0  0  0  0  0  0  0  0  0  0  0  0
   39.6668    4.8519   38.2170 C   0  0  0  0  0  0  0  0  0  0  0  0
   43.0636   10.3148   41.3231 O   0  0  0  0  0  0  0  0  0  0  0  0
   39.5701    3.4738   38.7077 N   0  0  0  0  0  0  0  0  0  0  0  0
   39.9606    3.4659   40.1197 C   0  0  0  0  0  0  0  0  0  0  0  0
   41.3954    3.9614   40.1821 C   0  0  0  0  0  0  0  0  0  0  0  0
   42.0378    6.2288   40.9157 C   0  0  0  0  0  0  0  0  0  0  0  0
   42.0114    7.7665   40.7143 C   0  0  0  0  0  0  0  0  0  0  0  0
   43.0475    8.7268   41.6458 S   0  0  0  0  0  0  0  0  0  0  0  0
  1  3  1  0  0  0  0
  1  9  1  0  0  0  0
  1 10  1  0  0  0  0
  2 12  1  0  0  0  0
  3  5  1  0  0  0  0
  4 12  2  0  0  0  0
  5  7  1  0  0  0  0
  6 12  2  0  0  0  0
  7  8  1  0  0  0  0
  8  9  1  0  0  0  0
 10 11  1  0  0  0  0
 11 12  1  0  0  0  0
M  END
>  <CHROM.1>
-50.92457792,-161.57506455,-65.12482180,41.79974673,6.70198940,40.61362735
-2.39508009,-0.83190793,-0.19307339

>  <Name>
ligand

>  <RI>
0

>  <Rbt.Current_Directory>
/home/itssahil/PROJECTS/Mol_Feturizer/New_Systems/rnas/4E8N

>  <Rbt.Executable>
rbdock ($Id: //depot/dev/client3/rdock/2013.1/src/exe/rbdock.cxx#4 $)

>  <Rbt.Library>
libRbt.so (2013.1, Build901 2013/11/27)

>  <Rbt.Parameter_File>
/export/apps/rDock/src/rDock_2013.1_src/data/scripts/dock_solv.prm

>  <Rbt.Receptor>
prm/blind_docking_100.prm

>  <SCORE>
-20.5375

>  <SCORE.INTER>
-17.433

>  <SCORE.INTER.CONST>
1

>  <SCORE.INTER.POLAR>
0

>  <SCORE.INTER.ROT>
3

>  <SCORE.INTER.SOLV>
9.34078

>  <SCORE.INTER.VDW>
-20.3356

>  <SCORE.INTER.norm>
-1.45275

>  <SCORE.INTRA>
-3.10446

>  <SCORE.INTRA.DIHEDRAL>
-3.67443

>  <SCORE.INTRA.DIHEDRAL.0>
5.0186

>  <SCORE.INTRA.POLAR>
0

>  <SCORE.INTRA.POLAR.0>
0

>  <SCORE.INTRA.REPUL>
0

>  <SCORE.INTRA.REPUL.0>
0

>  <SCORE.INTRA.SOLV>
-0.0937182

>  <SCORE.INTRA.SOLV.lig_0>
-16.1608

>  <SCORE.INTRA.VDW>
-1.22039

>  <SCORE.INTRA.VDW.0>
1.14169

>  <SCORE.INTRA.norm>
-0.258705

>  <SCORE.RESTR>
0

>  <SCORE.RESTR.CAVITY>
0

>  <SCORE.RESTR.norm>
0

>  <SCORE.SYSTEM>
0

>  <SCORE.SYSTEM.CONST>
0

>  <SCORE.SYSTEM.DIHEDRAL>
0

>  <SCORE.SYSTEM.SOLV>
0

>  <SCORE.SYSTEM.norm>
0

>  <SCORE.heavy>
12

>  <SCORE.norm>
-1.71146

>  <RMSD>
45.497

$$$$
ligand
 OpenBabel11021811493D
libRbt.so/2013.1/901 2013/11/27
 12 12  0  0  0  0  0  0  0  0999 V2000
   41.9818    4.7658   40.4676 N   0  0  0  0  0  0  0  0  0  0  0  0
   41.2200    9.1369   41.5648 O   0  0  0  0  0  0  0  0  0  0  0  0
   41.2791    4.8030   39.1616 C   0  0  0  0  0  0  0  0  0  0  0  0
   42.7145    8.4083   43.2404 O   0  0  0  0  0  0  0  0  0  0  0  0
   41.5758    3.5042   38.4191 C   0  0  0  0  0  0  0  0  0  0  0  0
   43.5403    9.8759   41.4518 O   0  0  0  0  0  0  0  0  0  0  0  0
   41.0117    2.3739   39.1630 N   0  0  0  0  0  0  0  0  0  0  0  0
   40.4071    2.8949   40.3915 C   0  0  0  0  0  0  0  0  0  0  0  0
   41.5210    3.5593   41.1825 C   0  0  0  0  0  0  0  0  0  0  0  0
   41.8339    6.0030   41.3328 C   0  0  0  0  0  0  0  0  0  0  0  0
   42.7602    7.2008   40.9967 C   0  0  0  0  0  0  0  0  0  0  0  0
   42.5434    8.6562   41.8324 S   0  0  0  0  0  0  0  0  0  0  0  0
  1  3  1  0  0  0  0
  1  9  1  0  0  0  0
  1 10  1  0  0  0  0
  2 12  1  0  0  0  0
  3  5  1  0  0  0  0
  4 12  2  0  0  0  0
  5  7  1  0  0  0  0
  6 12  2  0  0  0  0
  7  8  1  0  0  0  0
  8  9  1  0  0  0  0
 10 11  1  0  0  0  0
 11 12  1  0  0  0  0
M  END
>  <CHROM.1>
-81.25528600,174.42462284,-61.02498345,41.94866400,6.28667934,40.90774806
2.54136956,-1.28652766,-1.80454910

>  <Name>
ligand

>  <RI>
0

>  <Rbt.Current_Directory>
/home/itssahil/PROJECTS/Mol_Feturizer/New_Systems/rnas/4E8N

>  <Rbt.Executable>
rbdock ($Id: //depot/dev/client3/rdock/2013.1/src/exe/rbdock.cxx#4 $)

>  <Rbt.Library>
libRbt.so (2013.1, Build901 2013/11/27)

>  <Rbt.Parameter_File>
/export/apps/rDock/src/rDock_2013.1_src/data/scripts/dock_solv.prm

>  <Rbt.Receptor>
prm/blind_docking_80.prm

>  <SCORE>
-19.4185

>  <SCORE.INTER>
-15.5418

>  <SCORE.INTER.CONST>
1

>  <SCORE.INTER.POLAR>
0

>  <SCORE.INTER.ROT>
3

>  <SCORE.INTER.SOLV>
9.12182

>  <SCORE.INTER.VDW>
-19.0018

>  <SCORE.INTER.norm>
-1.29515

>  <SCORE.INTRA>
-3.87669

>  <SCORE.INTRA.DIHEDRAL>
-4.1473

>  <SCORE.INTRA.DIHEDRAL.0>
5.0186

>  <SCORE.INTRA.POLAR>
0

>  <SCORE.INTRA.POLAR.0>
0

>  <SCORE.INTRA.REPUL>
0

>  <SCORE.INTRA.REPUL.0>
0

>  <SCORE.INTRA.SOLV>
-0.110813

>  <SCORE.INTRA.SOLV.lig_0>
-16.1608

>  <SCORE.INTRA.VDW>
-1.74764

>  <SCORE.INTRA.VDW.0>
1.14169

>  <SCORE.INTRA.norm>
-0.323058

>  <SCORE.RESTR>
0

>  <SCORE.RESTR.CAVITY>
0

>  <SCORE.RESTR.norm>
0

>  <SCORE.SYSTEM>
0

>  <SCORE.SYSTEM.CONST>
0

>  <SCORE.SYSTEM.DIHEDRAL>
0

>  <SCORE.SYSTEM.SOLV>
0

>  <SCORE.SYSTEM.norm>
0

>  <SCORE.heavy>
12

>  <SCORE.norm>
-1.61821

>  <RMSD>
45.506

$$$$
ligand
 OpenBabel11021811493D
libRbt.so/2013.1/901 2013/11/27
 12 12  0  0  0  0  0  0  0  0999 V2000
   41.1563    5.6448   39.6125 N   0  0  0  0  0  0  0  0  0  0  0  0
   44.1714    9.2129   41.7441 O   0  0  0  0  0  0  0  0  0  0  0  0
   39.8730    5.4211   38.9025 C   0  0  0  0  0  0  0  0  0  0  0  0
   41.8661    9.6720   41.5281 O   0  0  0  0  0  0  0  0  0  0  0  0
   39.9609    4.0928   38.1581 C   0  0  0  0  0  0  0  0  0  0  0  0
   42.6597    8.4051   43.4775 O   0  0  0  0  0  0  0  0  0  0  0  0
   40.0990    2.9978   39.1230 N   0  0  0  0  0  0  0  0  0  0  0  0
   40.1586    3.5804   40.4659 C   0  0  0  0  0  0  0  0  0  0  0  0
   41.3782    4.4856   40.4990 C   0  0  0  0  0  0  0  0  0  0  0  0
   41.2680    6.9484   40.3802 C   0  0  0  0  0  0  0  0  0  0  0  0
   42.6870    7.3548   40.8569 C   0  0  0  0  0  0  0  0  0  0  0  0
   42.8478    8.6836   41.8921 S   0  0  0  0  0  0  0  0  0  0  0  0
  1  3  1  0  0  0  0
  1  9  1  0  0  0  0
  1 10  1  0  0  0  0
  2 12  1  0  0  0  0
  3  5  1  0  0  0  0
  4 12  2  0  0  0  0
  5  7  1  0  0  0  0
  6 12  2  0  0  0  0
  7  8  1  0  0  0  0
  8  9  1  0  0  0  0
 10 11  1  0  0  0  0
 11 12  1  0  0  0  0
M  END
>  <CHROM.1>
-166.57473318,-171.87015539,-155.70788964,41.67889835,6.67573969,40.73139511
2.65711750,1.05571223,2.63702060

>  <Name>
ligand

>  <RI>
0

>  <Rbt.Current_Directory>
/home/itssahil/PROJECTS/Mol_Feturizer/New_Systems/rnas/4E8N

>  <Rbt.Executable>
rbdock ($Id: //depot/dev/client3/rdock/2013.1/src/exe/rbdock.cxx#4 $)

>  <Rbt.Library>
libRbt.so (2013.1, Build901 2013/11/27)

>  <Rbt.Parameter_File>
/export/apps/rDock/src/rDock_2013.1_src/data/scripts/dock_solv.prm

>  <Rbt.Receptor>
prm/blind_docking_80.prm

>  <SCORE>
-19.0384

>  <SCORE.INTER>
-16.0525

>  <SCORE.INTER.CONST>
1

>  <SCORE.INTER.POLAR>
0

>  <SCORE.INTER.ROT>
3

>  <SCORE.INTER.SOLV>
8.86078

>  <SCORE.INTER.VDW>
-19.2553

>  <SCORE.INTER.norm>
-1.33771

>  <SCORE.INTRA>
-2.98593

>  <SCORE.INTRA.DIHEDRAL>
-3.24735

>  <SCORE.INTRA.DIHEDRAL.0>
5.0186

>  <SCORE.INTRA.POLAR>
0

>  <SCORE.INTRA.POLAR.0>
0

>  <SCORE.INTRA.REPUL>
0

>  <SCORE.INTRA.REPUL.0>
0

>  <SCORE.INTRA.SOLV>
0.0673773

>  <SCORE.INTRA.SOLV.lig_0>
-16.1608

>  <SCORE.INTRA.VDW>
-1.39594

>  <SCORE.INTRA.VDW.0>
1.14169

>  <SCORE.INTRA.norm>
-0.248828

>  <SCORE.RESTR>
0

>  <SCORE.RESTR.CAVITY>
0

>  <SCORE.RESTR.norm>
0

>  <SCORE.SYSTEM>
0

>  <SCORE.SYSTEM.CONST>
0

>  <SCORE.SYSTEM.DIHEDRAL>
0

>  <SCORE.SYSTEM.SOLV>
0

>  <SCORE.SYSTEM.norm>
0

>  <SCORE.heavy>
12

>  <SCORE.norm>
-1.58654

>  <RMSD>
45.522

$$$$
ligand
 OpenBabel11021811493D
libRbt.so/2013.1/901 2013/11/27
 12 12  0  0  0  0  0  0  0  0999 V2000
   41.5127    5.2341   40.0302 N   0  0  0  0  0  0  0  0  0  0  0  0
   42.6712    8.5947   43.0605 O   0  0  0  0  0  0  0  0  0  0  0  0
   40.1095    5.4282   39.5895 C   0  0  0  0  0  0  0  0  0  0  0  0
   44.4026    8.2741   41.4885 O   0  0  0  0  0  0  0  0  0  0  0  0
   39.8174    4.4390   38.4660 C   0  0  0  0  0  0  0  0  0  0  0  0
   42.9909   10.2780   41.3264 O   0  0  0  0  0  0  0  0  0  0  0  0
   39.9055    3.0699   38.9826 N   0  0  0  0  0  0  0  0  0  0  0  0
   40.2996    3.1405   40.3918 C   0  0  0  0  0  0  0  0  0  0  0  0
   41.6566    3.8220   40.4356 C   0  0  0  0  0  0  0  0  0  0  0  0
   41.9971    6.1679   41.1231 C   0  0  0  0  0  0  0  0  0  0  0  0
   42.0272    7.6807   40.7817 C   0  0  0  0  0  0  0  0  0  0  0  0
   43.0395    8.6971   41.6793 S   0  0  0  0  0  0  0  0  0  0  0  0
  1  3  1  0  0  0  0
  1  9  1  0  0  0  0
  1 10  1  0  0  0  0
  2 12  1  0  0  0  0
  3  5  1  0  0  0  0
  4 12  2  0  0  0  0
  5  7  1  0  0  0  0
  6 12  2  0  0  0  0
  7  8  1  0  0  0  0
  8  9  1  0  0  0  0
 10 11  1  0  0  0  0
 11 12  1  0  0  0  0
M  END
>  <CHROM.1>
-62.64913329,-158.13778043,-58.25461310,41.87900035,6.55348664,40.75460833
-2.30219126,-0.82678359,-0.16475782

>  <Name>
ligand

>  <RI>
0

>  <Rbt.Current_Directory>
/home/itssahil/PROJECTS/Mol_Feturizer/New_Systems/rnas/4E8N

>  <Rbt.Executable>
rbdock ($Id: //depot/dev/client3/rdock/2013.1/src/exe/rbdock.cxx#4 $)

>  <Rbt.Library>
libRbt.so (2013.1, Build901 2013/11/27)

>  <Rbt.Parameter_File>
/export/apps/rDock/src/rDock_2013.1_src/data/scripts/dock_solv.prm

>  <Rbt.Receptor>
prm/blind_docking_100.prm

>  <SCORE>
-20.5282

>  <SCORE.INTER>
-17.3005

>  <SCORE.INTER.CONST>
1

>  <SCORE.INTER.POLAR>
0

>  <SCORE.INTER.ROT>
3

>  <SCORE.INTER.SOLV>
9.36243

>  <SCORE.INTER.VDW>
-20.2545

>  <SCORE.INTER.norm>
-1.44171

>  <SCORE.INTRA>
-3.22763

>  <SCORE.INTRA.DIHEDRAL>
-3.35867

>  <SCORE.INTRA.DIHEDRAL.0>
5.0186

>  <SCORE.INTRA.POLAR>
0

>  <SCORE.INTRA.POLAR.0>
0

>  <SCORE.INTRA.REPUL>
0

>  <SCORE.INTRA.REPUL.0>
0

>  <SCORE.INTRA.SOLV>
-0.109756

>  <SCORE.INTRA.SOLV.lig_0>
-16.1608

>  <SCORE.INTRA.VDW>
-1.49341

>  <SCORE.INTRA.VDW.0>
1.14169

>  <SCORE.INTRA.norm>
-0.268969

>  <SCORE.RESTR>
0

>  <SCORE.RESTR.CAVITY>
0

>  <SCORE.RESTR.norm>
0

>  <SCORE.SYSTEM>
0

>  <SCORE.SYSTEM.CONST>
0

>  <SCORE.SYSTEM.DIHEDRAL>
0

>  <SCORE.SYSTEM.SOLV>
0

>  <SCORE.SYSTEM.norm>
0

>  <SCORE.heavy>
12

>  <SCORE.norm>
-1.71068

>  <RMSD>
45.542

$$$$
ligand
 OpenBabel11021811493D
libRbt.so/2013.1/901 2013/11/27
 12 12  0  0  0  0  0  0  0  0999 V2000
   41.8394    4.9039   40.3636 N   0  0  0  0  0  0  0  0  0  0  0  0
   43.8603    9.4455   41.6878 O   0  0  0  0  0  0  0  0  0  0  0  0
   40.9547    4.9590   39.1739 C   0  0  0  0  0  0  0  0  0  0  0  0
   41.5035    9.3927   41.5667 O   0  0  0  0  0  0  0  0  0  0  0  0
   41.1837    3.6987   38.3460 C   0  0  0  0  0  0  0  0  0  0  0  0
   42.6241    8.4662   43.5467 O   0  0  0  0  0  0  0  0  0  0  0  0
   40.7704    2.5228   39.1178 N   0  0  0  0  0  0  0  0  0  0  0  0
   40.3327    2.9779   40.4397 C   0  0  0  0  0  0  0  0  0  0  0  0
   41.5265    3.6569   41.0889 C   0  0  0  0  0  0  0  0  0  0  0  0
   41.7772    6.1042   41.2891 C   0  0  0  0  0  0  0  0  0  0  0  0
   42.7733    7.2573   40.9996 C   0  0  0  0  0  0  0  0  0  0  0  0
   42.6869    8.6620   41.9393 S   0  0  0  0  0  0  0  0  0  0  0  0
  1  3  1  0  0  0  0
  1  9  1  0  0  0  0
  1 10  1  0  0  0  0
  2 12  1  0  0  0  0
  3  5  1  0  0  0  0
  4 12  2  0  0  0  0
  5  7  1  0  0  0  0
  6 12  2  0  0  0  0
  7  8  1  0  0  0  0
  8  9  1  0  0  0  0
 10 11  1  0  0  0  0
 11 12  1  0  0  0  0
M  END
>  <CHROM.1>
-90.75569629,176.30252913,167.86990089,41.92684362,6.34912993,40.94928270
2.88968127,-1.27091861,-1.40146376

>  <Name>
ligand

>  <RI>
0

>  <Rbt.Current_Directory>
/home/itssahil/PROJECTS/Mol_Feturizer/New_Systems/rnas/4E8N

>  <Rbt.Executable>
rbdock ($Id: //depot/dev/client3/rdock/2013.1/src/exe/rbdock.cxx#4 $)

>  <Rbt.Library>
libRbt.so (2013.1, Build901 2013/11/27)

>  <Rbt.Parameter_File>
/export/apps/rDock/src/rDock_2013.1_src/data/scripts/dock_solv.prm

>  <Rbt.Receptor>
prm/blind_docking_80.prm

>  <SCORE>
-19.2406

>  <SCORE.INTER>
-15.7778

>  <SCORE.INTER.CONST>
1

>  <SCORE.INTER.POLAR>
0

>  <SCORE.INTER.ROT>
3

>  <SCORE.INTER.SOLV>
9.24354

>  <SCORE.INTER.VDW>
-19.1997

>  <SCORE.INTER.norm>
-1.31481

>  <SCORE.INTRA>
-3.46286

>  <SCORE.INTRA.DIHEDRAL>
-3.29337

>  <SCORE.INTRA.DIHEDRAL.0>
5.0186

>  <SCORE.INTRA.POLAR>
0

>  <SCORE.INTRA.POLAR.0>
0

>  <SCORE.INTRA.REPUL>
0

>  <SCORE.INTRA.REPUL.0>
0

>  <SCORE.INTRA.SOLV>
0.0667693

>  <SCORE.INTRA.SOLV.lig_0>
-16.1608

>  <SCORE.INTRA.VDW>
-1.84956

>  <SCORE.INTRA.VDW.0>
1.14169

>  <SCORE.INTRA.norm>
-0.288572

>  <SCORE.RESTR>
0

>  <SCORE.RESTR.CAVITY>
0

>  <SCORE.RESTR.norm>
0

>  <SCORE.SYSTEM>
0

>  <SCORE.SYSTEM.CONST>
0

>  <SCORE.SYSTEM.DIHEDRAL>
0

>  <SCORE.SYSTEM.SOLV>
0

>  <SCORE.SYSTEM.norm>
0

>  <SCORE.heavy>
12

>  <SCORE.norm>
-1.60339

>  <RMSD>
45.552

$$$$
ligand
 OpenBabel11021811493D
libRbt.so/2013.1/901 2013/11/27
 12 12  0  0  0  0  0  0  0  0999 V2000
   41.5417    5.2557   39.9735 N   0  0  0  0  0  0  0  0  0  0  0  0
   42.3664   10.0978   41.5130 O   0  0  0  0  0  0  0  0  0  0  0  0
   40.1159    5.4733   39.6263 C   0  0  0  0  0  0  0  0  0  0  0  0
   42.7477    8.4093   43.1178 O   0  0  0  0  0  0  0  0  0  0  0  0
   39.7371    4.4977   38.5168 C   0  0  0  0  0  0  0  0  0  0  0  0
   44.4489    8.8358   41.3976 O   0  0  0  0  0  0  0  0  0  0  0  0
   39.8385    3.1232   39.0164 N   0  0  0  0  0  0  0  0  0  0  0  0
   40.3241    3.1765   40.3976 C   0  0  0  0  0  0  0  0  0  0  0  0
   41.6909    3.8384   40.3582 C   0  0  0  0  0  0  0  0  0  0  0  0
   42.1095    6.1734   41.0396 C   0  0  0  0  0  0  0  0  0  0  0  0
   41.9327    7.6973   40.8107 C   0  0  0  0  0  0  0  0  0  0  0  0
   42.8638    8.7712   41.7290 S   0  0  0  0  0  0  0  0  0  0  0  0
  1  3  1  0  0  0  0
  1  9  1  0  0  0  0
  1 10  1  0  0  0  0
  2 12  1  0  0  0  0
  3  5  1  0  0  0  0
  4 12  2  0  0  0  0
  5  7  1  0  0  0  0
  6 12  2  0  0  0  0
  7  8  1  0  0  0  0
  8  9  1  0  0  0  0
 10 11  1  0  0  0  0
 11 12  1  0  0  0  0
M  END
>  <CHROM.1>
-53.08897314,-164.62742316,-170.10327864,41.80536434,6.60063158,40.77117039
-2.21018800,-0.75158322,-0.04348953

>  <Name>
ligand

>  <RI>
0

>  <Rbt.Current_Directory>
/home/itssahil/PROJECTS/Mol_Feturizer/New_Systems/rnas/4E8N

>  <Rbt.Executable>
rbdock ($Id: //depot/dev/client3/rdock/2013.1/src/exe/rbdock.cxx#4 $)

>  <Rbt.Library>
libRbt.so (2013.1, Build901 2013/11/27)

>  <Rbt.Parameter_File>
/export/apps/rDock/src/rDock_2013.1_src/data/scripts/dock_solv.prm

>  <Rbt.Receptor>
prm/blind_docking_80.prm

>  <SCORE>
-20.2501

>  <SCORE.INTER>
-17.0839

>  <SCORE.INTER.CONST>
1

>  <SCORE.INTER.POLAR>
0

>  <SCORE.INTER.ROT>
3

>  <SCORE.INTER.SOLV>
9.11473

>  <SCORE.INTER.VDW>
-20.0275

>  <SCORE.INTER.norm>
-1.42366

>  <SCORE.INTRA>
-3.16623

>  <SCORE.INTRA.DIHEDRAL>
-3.87084

>  <SCORE.INTRA.DIHEDRAL.0>
5.0186

>  <SCORE.INTRA.POLAR>
0

>  <SCORE.INTRA.POLAR.0>
0

>  <SCORE.INTRA.REPUL>
0

>  <SCORE.INTRA.REPUL.0>
0

>  <SCORE.INTRA.SOLV>
0.0753505

>  <SCORE.INTRA.SOLV.lig_0>
-16.1608

>  <SCORE.INTRA.VDW>
-1.26848

>  <SCORE.INTRA.VDW.0>
1.14169

>  <SCORE.INTRA.norm>
-0.263852

>  <SCORE.RESTR>
0

>  <SCORE.RESTR.CAVITY>
0

>  <SCORE.RESTR.norm>
0

>  <SCORE.SYSTEM>
0

>  <SCORE.SYSTEM.CONST>
0

>  <SCORE.SYSTEM.DIHEDRAL>
0

>  <SCORE.SYSTEM.SOLV>
0

>  <SCORE.SYSTEM.norm>
0

>  <SCORE.heavy>
12

>  <SCORE.norm>
-1.68751

>  <RMSD>
45.563

$$$$
ligand
 OpenBabel11021811493D
libRbt.so/2013.1/901 2013/11/27
 12 12  0  0  0  0  0  0  0  0999 V2000
   41.1235    5.1807   40.5795 N   0  0  0  0  0  0  0  0  0  0  0  0
   42.2716   10.1001   41.5672 O   0  0  0  0  0  0  0  0  0  0  0  0
   41.4665    3.7442   40.7192 C   0  0  0  0  0  0  0  0  0  0  0  0
   42.8250    8.5106   43.2222 O   0  0  0  0  0  0  0  0  0  0  0  0
   40.3081    2.9179   40.1701 C   0  0  0  0  0  0  0  0  0  0  0  0
   44.3327    8.8244   41.3083 O   0  0  0  0  0  0  0  0  0  0  0  0
   40.1611    3.1728   38.7340 N   0  0  0  0  0  0  0  0  0  0  0  0
   41.1525    4.1796   38.3473 C   0  0  0  0  0  0  0  0  0  0  0  0
   40.8453    5.4312   39.1516 C   0  0  0  0  0  0  0  0  0  0  0  0
   42.1503    6.1603   41.1156 C   0  0  0  0  0  0  0  0  0  0  0  0
   41.7709    7.6633   41.0625 C   0  0  0  0  0  0  0  0  0  0  0  0
   42.7920    8.7869   41.8095 S   0  0  0  0  0  0  0  0  0  0  0  0
  1  3  1  0  0  0  0
  1  9  1  0  0  0  0
  1 10  1  0  0  0  0
  2 12  1  0  0  0  0
  3  5  1  0  0  0  0
  4 12  2  0  0  0  0
  5  7  1  0  0  0  0
  6 12  2  0  0  0  0
  7  8  1  0  0  0  0
  8  9  1  0  0  0  0
 10 11  1  0  0  0  0
 11 12  1  0  0  0  0
M  END
>  <CHROM.1>
-176.18059803,172.87260898,177.05682256,41.90544486,6.55361093,40.80059745
-2.96139352,-1.19665560,-0.94158777

>  <Name>
ligand

>  <RI>
0

>  <Rbt.Current_Directory>
/home/itssahil/PROJECTS/Mol_Feturizer/New_Systems/rnas/4E8N

>  <Rbt.Executable>
rbdock ($Id: //depot/dev/client3/rdock/2013.1/src/exe/rbdock.cxx#4 $)

>  <Rbt.Library>
libRbt.so (2013.1, Build901 2013/11/27)

>  <Rbt.Parameter_File>
/export/apps/rDock/src/rDock_2013.1_src/data/scripts/dock_solv.prm

>  <Rbt.Receptor>
prm/blind_docking_100.prm

>  <SCORE>
-20.4615

>  <SCORE.INTER>
-16.865

>  <SCORE.INTER.CONST>
1

>  <SCORE.INTER.POLAR>
0

>  <SCORE.INTER.ROT>
3

>  <SCORE.INTER.SOLV>
8.73846

>  <SCORE.INTER.VDW>
-19.7562

>  <SCORE.INTER.norm>
-1.40542

>  <SCORE.INTRA>
-3.5965

>  <SCORE.INTRA.DIHEDRAL>
-4.79788

>  <SCORE.INTRA.DIHEDRAL.0>
5.0186

>  <SCORE.INTRA.POLAR>
0

>  <SCORE.INTRA.POLAR.0>
0

>  <SCORE.INTRA.REPUL>
0

>  <SCORE.INTRA.REPUL.0>
0

>  <SCORE.INTRA.SOLV>
0.0760244

>  <SCORE.INTRA.SOLV.lig_0>
-16.1608

>  <SCORE.INTRA.VDW>
-1.23558

>  <SCORE.INTRA.VDW.0>
1.14169

>  <SCORE.INTRA.norm>
-0.299709

>  <SCORE.RESTR>
6.56525e-05

>  <SCORE.RESTR.CAVITY>
6.56525e-05

>  <SCORE.RESTR.norm>
5.47104e-06

>  <SCORE.SYSTEM>
0

>  <SCORE.SYSTEM.CONST>
0

>  <SCORE.SYSTEM.DIHEDRAL>
0

>  <SCORE.SYSTEM.SOLV>
0

>  <SCORE.SYSTEM.norm>
0

>  <SCORE.heavy>
12

>  <SCORE.norm>
-1.70512

>  <RMSD>
45.567

$$$$
ligand
 OpenBabel11021811493D
libRbt.so/2013.1/901 2013/11/27
 12 12  0  0  0  0  0  0  0  0999 V2000
   41.4119    5.1635   40.0231 N   0  0  0  0  0  0  0  0  0  0  0  0
   41.6108    9.3818   41.4517 O   0  0  0  0  0  0  0  0  0  0  0  0
   40.1865    4.7451   39.2990 C   0  0  0  0  0  0  0  0  0  0  0  0
   42.7586    8.4120   43.2722 O   0  0  0  0  0  0  0  0  0  0  0  0
   40.4072    3.3377   38.7542 C   0  0  0  0  0  0  0  0  0  0  0  0
   44.0352    9.6159   41.5530 O   0  0  0  0  0  0  0  0  0  0  0  0
   40.5721    2.4003   39.8691 N   0  0  0  0  0  0  0  0  0  0  0  0
   40.5201    3.1653   41.1174 C   0  0  0  0  0  0  0  0  0  0  0  0
   41.6690    4.1582   41.0731 C   0  0  0  0  0  0  0  0  0  0  0  0
   41.3906    6.5652   40.6028 C   0  0  0  0  0  0  0  0  0  0  0  0
   42.7532    7.1494   41.0587 C   0  0  0  0  0  0  0  0  0  0  0  0
   42.7729    8.6443   41.8512 S   0  0  0  0  0  0  0  0  0  0  0  0
  1  3  1  0  0  0  0
  1  9  1  0  0  0  0
  1 10  1  0  0  0  0
  2 12  1  0  0  0  0
  3  5  1  0  0  0  0
  4 12  2  0  0  0  0
  5  7  1  0  0  0  0
  6 12  2  0  0  0  0
  7  8  1  0  0  0  0
  8  9  1  0  0  0  0
 10 11  1  0  0  0  0
 11 12  1  0  0  0  0
M  END
>  <CHROM.1>
-165.79336282,-174.07188521,-25.44185943,41.81195551,6.39899549,40.96232601
2.48149310,1.09534216,2.64840066

>  <Name>
ligand

>  <RI>
0

>  <Rbt.Current_Directory>
/home/itssahil/PROJECTS/Mol_Feturizer/New_Systems/rnas/4E8N

>  <Rbt.Executable>
rbdock ($Id: //depot/dev/client3/rdock/2013.1/src/exe/rbdock.cxx#4 $)

>  <Rbt.Library>
libRbt.so (2013.1, Build901 2013/11/27)

>  <Rbt.Parameter_File>
/export/apps/rDock/src/rDock_2013.1_src/data/scripts/dock_solv.prm

>  <Rbt.Receptor>
prm/blind_docking_80.prm

>  <SCORE>
-18.5728

>  <SCORE.INTER>
-15.9749

>  <SCORE.INTER.CONST>
1

>  <SCORE.INTER.POLAR>
0

>  <SCORE.INTER.ROT>
3

>  <SCORE.INTER.SOLV>
9.58672

>  <SCORE.INTER.VDW>
-19.4455

>  <SCORE.INTER.norm>
-1.33124

>  <SCORE.INTRA>
-2.59785

>  <SCORE.INTRA.DIHEDRAL>
-2.37652

>  <SCORE.INTRA.DIHEDRAL.0>
5.0186

>  <SCORE.INTRA.POLAR>
0

>  <SCORE.INTRA.POLAR.0>
0

>  <SCORE.INTRA.REPUL>
0

>  <SCORE.INTRA.REPUL.0>
0

>  <SCORE.INTRA.SOLV>
-0.16488

>  <SCORE.INTRA.SOLV.lig_0>
-16.1608

>  <SCORE.INTRA.VDW>
-1.32715

>  <SCORE.INTRA.VDW.0>
1.14169

>  <SCORE.INTRA.norm>
-0.216488

>  <SCORE.RESTR>
0

>  <SCORE.RESTR.CAVITY>
0

>  <SCORE.RESTR.norm>
0

>  <SCORE.SYSTEM>
0

>  <SCORE.SYSTEM.CONST>
0

>  <SCORE.SYSTEM.DIHEDRAL>
0

>  <SCORE.SYSTEM.SOLV>
0

>  <SCORE.SYSTEM.norm>
0

>  <SCORE.heavy>
12

>  <SCORE.norm>
-1.54773

>  <RMSD>
45.603

$$$$
ligand
 OpenBabel11021811493D
libRbt.so/2013.1/901 2013/11/27
 12 12  0  0  0  0  0  0  0  0999 V2000
   41.4004    5.2024   39.9870 N   0  0  0  0  0  0  0  0  0  0  0  0
   41.6297    9.4151   41.4694 O   0  0  0  0  0  0  0  0  0  0  0  0
   40.1287    4.7501   39.3712 C   0  0  0  0  0  0  0  0  0  0  0  0
   42.7778    8.3780   43.2520 O   0  0  0  0  0  0  0  0  0  0  0  0
   40.3458    3.3578   38.7877 C   0  0  0  0  0  0  0  0  0  0  0  0
   44.0557    9.6315   41.5697 O   0  0  0  0  0  0  0  0  0  0  0  0
   40.6433    2.4136   39.8689 N   0  0  0  0  0  0  0  0  0  0  0  0
   40.6800    3.1616   41.1280 C   0  0  0  0  0  0  0  0  0  0  0  0
   41.7860    4.1944   40.9941 C   0  0  0  0  0  0  0  0  0  0  0  0
   41.3851    6.5956   40.5870 C   0  0  0  0  0  0  0  0  0  0  0  0
   42.7575    7.1905   40.9974 C   0  0  0  0  0  0  0  0  0  0  0  0
   42.7888    8.6578   41.8397 S   0  0  0  0  0  0  0  0  0  0  0  0
  1  3  1  0  0  0  0
  1  9  1  0  0  0  0
  1 10  1  0  0  0  0
  2 12  1  0  0  0  0
  3  5  1  0  0  0  0
  4 12  2  0  0  0  0
  5  7  1  0  0  0  0
  6 12  2  0  0  0  0
  7  8  1  0  0  0  0
  8  9  1  0  0  0  0
 10 11  1  0  0  0  0
 11 12  1  0  0  0  0
M  END
>  <CHROM.1>
-169.02984201,-172.74904145,-28.35775770,41.83522742,6.41571754,40.95603679
2.34864086,1.03318188,2.79748587

>  <Name>
ligand

>  <RI>
0

>  <Rbt.Current_Directory>
/home/itssahil/PROJECTS/Mol_Feturizer/New_Systems/rnas/4E8N

>  <Rbt.Executable>
rbdock ($Id: //depot/dev/client3/rdock/2013.1/src/exe/rbdock.cxx#4 $)

>  <Rbt.Library>
libRbt.so (2013.1, Build901 2013/11/27)

>  <Rbt.Parameter_File>
/export/apps/rDock/src/rDock_2013.1_src/data/scripts/dock_solv.prm

>  <Rbt.Receptor>
prm/blind_docking_100.prm

>  <SCORE>
-18.756

>  <SCORE.INTER>
-16.0518

>  <SCORE.INTER.CONST>
1

>  <SCORE.INTER.POLAR>
0

>  <SCORE.INTER.ROT>
3

>  <SCORE.INTER.SOLV>
9.53312

>  <SCORE.INTER.VDW>
-19.4789

>  <SCORE.INTER.norm>
-1.33765

>  <SCORE.INTRA>
-2.70428

>  <SCORE.INTRA.DIHEDRAL>
-2.69387

>  <SCORE.INTRA.DIHEDRAL.0>
5.0186

>  <SCORE.INTRA.POLAR>
0

>  <SCORE.INTRA.POLAR.0>
0

>  <SCORE.INTRA.REPUL>
0

>  <SCORE.INTRA.REPUL.0>
0

>  <SCORE.INTRA.SOLV>
-0.16024

>  <SCORE.INTRA.SOLV.lig_0>
-16.1608

>  <SCORE.INTRA.VDW>
-1.27722

>  <SCORE.INTRA.VDW.0>
1.14169

>  <SCORE.INTRA.norm>
-0.225356

>  <SCORE.RESTR>
0

>  <SCORE.RESTR.CAVITY>
0

>  <SCORE.RESTR.norm>
0

>  <SCORE.SYSTEM>
0

>  <SCORE.SYSTEM.CONST>
0

>  <SCORE.SYSTEM.DIHEDRAL>
0

>  <SCORE.SYSTEM.SOLV>
0

>  <SCORE.SYSTEM.norm>
0

>  <SCORE.heavy>
12

>  <SCORE.norm>
-1.563

>  <RMSD>
45.615

$$$$
ligand
 OpenBabel11021811493D
libRbt.so/2013.1/901 2013/11/27
 12 12  0  0  0  0  0  0  0  0999 V2000
   41.4313    5.2141   40.0210 N   0  0  0  0  0  0  0  0  0  0  0  0
   44.0503    9.2837   41.7774 O   0  0  0  0  0  0  0  0  0  0  0  0
   40.1863    4.7788   39.3417 C   0  0  0  0  0  0  0  0  0  0  0  0
   41.7126    9.5191   41.5505 O   0  0  0  0  0  0  0  0  0  0  0  0
   40.4353    3.4126   38.7113 C   0  0  0  0  0  0  0  0  0  0  0  0
   42.6178    8.3930   43.5373 O   0  0  0  0  0  0  0  0  0  0  0  0
   40.7011    2.4276   39.7641 N   0  0  0  0  0  0  0  0  0  0  0  0
   40.6864    3.1245   41.0526 C   0  0  0  0  0  0  0  0  0  0  0  0
   41.7883    4.1690   41.0004 C   0  0  0  0  0  0  0  0  0  0  0  0
   41.3834    6.5819   40.6753 C   0  0  0  0  0  0  0  0  0  0  0  0
   42.7467    7.2687   40.9506 C   0  0  0  0  0  0  0  0  0  0  0  0
   42.7815    8.6383   41.9438 S   0  0  0  0  0  0  0  0  0  0  0  0
  1  3  1  0  0  0  0
  1  9  1  0  0  0  0
  1 10  1  0  0  0  0
  2 12  1  0  0  0  0
  3  5  1  0  0  0  0
  4 12  2  0  0  0  0
  5  7  1  0  0  0  0
  6 12  2  0  0  0  0
  7  8  1  0  0  0  0
  8  9  1  0  0  0  0
 10 11  1  0  0  0  0
 11 12  1  0  0  0  0
M  END
>  <CHROM.1>
-159.46630677,-168.03053372,-165.43259336,41.84408520,6.40151799,41.00627850
2.43350405,1.09930931,2.73480002

>  <Name>
ligand

>  <RI>
0

>  <Rbt.Current_Directory>
/home/itssahil/PROJECTS/Mol_Feturizer/New_Systems/rnas/4E8N

>  <Rbt.Executable>
rbdock ($Id: //depot/dev/client3/rdock/2013.1/src/exe/rbdock.cxx#4 $)

>  <Rbt.Library>
libRbt.so (2013.1, Build901 2013/11/27)

>  <Rbt.Parameter_File>
/export/apps/rDock/src/rDock_2013.1_src/data/scripts/dock_solv.prm

>  <Rbt.Receptor>
prm/blind_docking_80.prm

>  <SCORE>
-19.1955

>  <SCORE.INTER>
-15.9253

>  <SCORE.INTER.CONST>
1

>  <SCORE.INTER.POLAR>
0

>  <SCORE.INTER.ROT>
3

>  <SCORE.INTER.SOLV>
9.38426

>  <SCORE.INTER.VDW>
-19.3449

>  <SCORE.INTER.norm>
-1.32711

>  <SCORE.INTRA>
-3.27018

>  <SCORE.INTRA.DIHEDRAL>
-3.42467

>  <SCORE.INTRA.DIHEDRAL.0>
5.0186

>  <SCORE.INTRA.POLAR>
0

>  <SCORE.INTRA.POLAR.0>
0

>  <SCORE.INTRA.REPUL>
0

>  <SCORE.INTRA.REPUL.0>
0

>  <SCORE.INTRA.SOLV>
0.0735581

>  <SCORE.INTRA.SOLV.lig_0>
-16.1608

>  <SCORE.INTRA.VDW>
-1.59462

>  <SCORE.INTRA.VDW.0>
1.14169

>  <SCORE.INTRA.norm>
-0.272515

>  <SCORE.RESTR>
0

>  <SCORE.RESTR.CAVITY>
0

>  <SCORE.RESTR.norm>
0

>  <SCORE.SYSTEM>
0

>  <SCORE.SYSTEM.CONST>
0

>  <SCORE.SYSTEM.DIHEDRAL>
0

>  <SCORE.SYSTEM.SOLV>
0

>  <SCORE.SYSTEM.norm>
0

>  <SCORE.heavy>
12

>  <SCORE.norm>
-1.59962

>  <RMSD>
45.627

$$$$
ligand
 OpenBabel11021811493D
libRbt.so/2013.1/901 2013/11/27
 12 12  0  0  0  0  0  0  0  0999 V2000
   41.9850    7.6257   40.6150 N   0  0  0  0  0  0  0  0  0  0  0  0
   39.4039    4.7357   37.2884 O   0  0  0  0  0  0  0  0  0  0  0  0
   43.4301    7.5314   40.9371 C   0  0  0  0  0  0  0  0  0  0  0  0
   41.4927    4.0619   38.1571 O   0  0  0  0  0  0  0  0  0  0  0  0
   43.9906    8.9454   41.0500 C   0  0  0  0  0  0  0  0  0  0  0  0
   39.4449    3.5205   39.4013 O   0  0  0  0  0  0  0  0  0  0  0  0
   43.3572    9.6356   42.1775 N   0  0  0  0  0  0  0  0  0  0  0  0
   42.3645    8.7317   42.7640 C   0  0  0  0  0  0  0  0  0  0  0  0
   41.3478    8.4296   41.6764 C   0  0  0  0  0  0  0  0  0  0  0  0
   41.2635    6.3053   40.4227 C   0  0  0  0  0  0  0  0  0  0  0  0
   40.4177    6.1572   39.1309 C   0  0  0  0  0  0  0  0  0  0  0  0
   40.2007    4.6132   38.4734 S   0  0  0  0  0  0  0  0  0  0  0  0
  1  3  1  0  0  0  0
  1  9  1  0  0  0  0
  1 10  1  0  0  0  0
  2 12  1  0  0  0  0
  3  5  1  0  0  0  0
  4 12  2  0  0  0  0
  5  7  1  0  0  0  0
  6 12  2  0  0  0  0
  7  8  1  0  0  0  0
  8  9  1  0  0  0  0
 10 11  1  0  0  0  0
 11 12  1  0  0  0  0
M  END
>  <CHROM.1>
-129.39114465,151.52985357,-179.42819136,41.38616231,6.41616485,39.95638021
1.05742133,0.35545589,0.85356859

>  <Name>
ligand

>  <RI>
0

>  <Rbt.Current_Directory>
/home/itssahil/PROJECTS/Mol_Feturizer/New_Systems/rnas/4E8N

>  <Rbt.Executable>
rbdock ($Id: //depot/dev/client3/rdock/2013.1/src/exe/rbdock.cxx#4 $)

>  <Rbt.Library>
libRbt.so (2013.1, Build901 2013/11/27)

>  <Rbt.Parameter_File>
/export/apps/rDock/src/rDock_2013.1_src/data/scripts/dock_solv.prm

>  <Rbt.Receptor>
prm/blind_docking_100.prm

>  <SCORE>
-12.2104

>  <SCORE.INTER>
-10.2271

>  <SCORE.INTER.CONST>
1

>  <SCORE.INTER.POLAR>
0

>  <SCORE.INTER.ROT>
3

>  <SCORE.INTER.SOLV>
12.84

>  <SCORE.INTER.VDW>
-16.6981

>  <SCORE.INTER.norm>
-0.852261

>  <SCORE.INTRA>
-1.9833

>  <SCORE.INTRA.DIHEDRAL>
-0.267865

>  <SCORE.INTRA.DIHEDRAL.0>
5.0186

>  <SCORE.INTRA.POLAR>
0

>  <SCORE.INTRA.POLAR.0>
0

>  <SCORE.INTRA.REPUL>
0

>  <SCORE.INTRA.REPUL.0>
0

>  <SCORE.INTRA.SOLV>
0.0787466

>  <SCORE.INTRA.SOLV.lig_0>
-16.1608

>  <SCORE.INTRA.VDW>
-1.88874

>  <SCORE.INTRA.VDW.0>
1.14169

>  <SCORE.INTRA.norm>
-0.165275

>  <SCORE.RESTR>
0

>  <SCORE.RESTR.CAVITY>
0

>  <SCORE.RESTR.norm>
0

>  <SCORE.SYSTEM>
0

>  <SCORE.SYSTEM.CONST>
0

>  <SCORE.SYSTEM.DIHEDRAL>
0

>  <SCORE.SYSTEM.SOLV>
0

>  <SCORE.SYSTEM.norm>
0

>  <SCORE.heavy>
12

>  <SCORE.norm>
-1.01754

>  <RMSD>
45.683

$$$$
ligand
 OpenBabel11021811493D
libRbt.so/2013.1/901 2013/11/27
 12 12  0  0  0  0  0  0  0  0999 V2000
   41.6812    5.0485   40.4683 N   0  0  0  0  0  0  0  0  0  0  0  0
   41.6385    9.5199   41.5043 O   0  0  0  0  0  0  0  0  0  0  0  0
   40.4879    4.9297   39.5949 C   0  0  0  0  0  0  0  0  0  0  0  0
   43.0327    8.5576   43.1481 O   0  0  0  0  0  0  0  0  0  0  0  0
   40.6068    3.6384   38.7919 C   0  0  0  0  0  0  0  0  0  0  0  0
   44.0456    9.8641   41.3311 O   0  0  0  0  0  0  0  0  0  0  0  0
   40.5721    2.4898   39.7021 N   0  0  0  0  0  0  0  0  0  0  0  0
   40.4900    2.9989   41.0734 C   0  0  0  0  0  0  0  0  0  0  0  0
   41.7364    3.8353   41.3074 C   0  0  0  0  0  0  0  0  0  0  0  0
   41.7561    6.3034   41.3174 C   0  0  0  0  0  0  0  0  0  0  0  0
   42.8225    7.3542   40.9117 C   0  0  0  0  0  0  0  0  0  0  0  0
   42.8702    8.8273   41.7431 S   0  0  0  0  0  0  0  0  0  0  0  0
  1  3  1  0  0  0  0
  1  9  1  0  0  0  0
  1 10  1  0  0  0  0
  2 12  1  0  0  0  0
  3  5  1  0  0  0  0
  4 12  2  0  0  0  0
  5  7  1  0  0  0  0
  6 12  2  0  0  0  0
  7  8  1  0  0  0  0
  8  9  1  0  0  0  0
 10 11  1  0  0  0  0
 11 12  1  0  0  0  0
M  END
>  <CHROM.1>
-108.70810571,175.13953050,-63.51996519,41.94478802,6.46746698,41.01980531
2.54190229,1.13221025,2.52330354

>  <Name>
ligand

>  <RI>
0

>  <Rbt.Current_Directory>
/home/itssahil/PROJECTS/Mol_Feturizer/New_Systems/rnas/4E8N

>  <Rbt.Executable>
rbdock ($Id: //depot/dev/client3/rdock/2013.1/src/exe/rbdock.cxx#4 $)

>  <Rbt.Library>
libRbt.so (2013.1, Build901 2013/11/27)

>  <Rbt.Parameter_File>
/export/apps/rDock/src/rDock_2013.1_src/data/scripts/dock_solv.prm

>  <Rbt.Receptor>
prm/blind_docking_80.prm

>  <SCORE>
-18.7791

>  <SCORE.INTER>
-15.557

>  <SCORE.INTER.CONST>
1

>  <SCORE.INTER.POLAR>
0

>  <SCORE.INTER.ROT>
3

>  <SCORE.INTER.SOLV>
9.92767

>  <SCORE.INTER.VDW>
-19.2806

>  <SCORE.INTER.norm>
-1.29642

>  <SCORE.INTRA>
-3.22208

>  <SCORE.INTRA.DIHEDRAL>
-2.66261

>  <SCORE.INTRA.DIHEDRAL.0>
5.0186

>  <SCORE.INTRA.POLAR>
0

>  <SCORE.INTRA.POLAR.0>
0

>  <SCORE.INTRA.REPUL>
0

>  <SCORE.INTRA.REPUL.0>
0

>  <SCORE.INTRA.SOLV>
-0.107694

>  <SCORE.INTRA.SOLV.lig_0>
-16.1608

>  <SCORE.INTRA.VDW>
-1.83693

>  <SCORE.INTRA.VDW.0>
1.14169

>  <SCORE.INTRA.norm>
-0.268507

>  <SCORE.RESTR>
0

>  <SCORE.RESTR.CAVITY>
0

>  <SCORE.RESTR.norm>
0

>  <SCORE.SYSTEM>
0

>  <SCORE.SYSTEM.CONST>
0

>  <SCORE.SYSTEM.DIHEDRAL>
0

>  <SCORE.SYSTEM.SOLV>
0

>  <SCORE.SYSTEM.norm>
0

>  <SCORE.heavy>
12

>  <SCORE.norm>
-1.56493

>  <RMSD>
45.728

$$$$
ligand
 OpenBabel11021811493D
libRbt.so/2013.1/901 2013/11/27
 12 12  0  0  0  0  0  0  0  0999 V2000
   41.3066    5.1586   40.5912 N   0  0  0  0  0  0  0  0  0  0  0  0
   42.1717   10.1243   41.6343 O   0  0  0  0  0  0  0  0  0  0  0  0
   41.5890    3.9600   41.4184 C   0  0  0  0  0  0  0  0  0  0  0  0
   42.7041    8.5049   43.2671 O   0  0  0  0  0  0  0  0  0  0  0  0
   40.4707    2.9473   41.1948 C   0  0  0  0  0  0  0  0  0  0  0  0
   44.2558    8.8815   41.4003 O   0  0  0  0  0  0  0  0  0  0  0  0
   40.4845    2.5016   39.7982 N   0  0  0  0  0  0  0  0  0  0  0  0
   41.5415    3.2352   39.0976 C   0  0  0  0  0  0  0  0  0  0  0  0
   41.1889    4.7100   39.1898 C   0  0  0  0  0  0  0  0  0  0  0  0
   42.3001    6.2979   40.7180 C   0  0  0  0  0  0  0  0  0  0  0  0
   41.7170    7.6934   41.0624 C   0  0  0  0  0  0  0  0  0  0  0  0
   42.7035    8.8128   41.8605 S   0  0  0  0  0  0  0  0  0  0  0  0
  1  3  1  0  0  0  0
  1  9  1  0  0  0  0
  1 10  1  0  0  0  0
  2 12  1  0  0  0  0
  3  5  1  0  0  0  0
  4 12  2  0  0  0  0
  5  7  1  0  0  0  0
  6 12  2  0  0  0  0
  7  8  1  0  0  0  0
  8  9  1  0  0  0  0
 10 11  1  0  0  0  0
 11 12  1  0  0  0  0
M  END
>  <CHROM.1>
-126.57511066,153.69071011,158.88921679,41.98404520,6.42230068,41.05878297
-2.53469108,1.20083463,1.24231616

>  <Name>
ligand

>  <RI>
0

>  <Rbt.Current_Directory>
/home/itssahil/PROJECTS/Mol_Feturizer/New_Systems/rnas/4E8N

>  <Rbt.Executable>
rbdock ($Id: //depot/dev/client3/rdock/2013.1/src/exe/rbdock.cxx#4 $)

>  <Rbt.Library>
libRbt.so (2013.1, Build901 2013/11/27)

>  <Rbt.Parameter_File>
/export/apps/rDock/src/rDock_2013.1_src/data/scripts/dock_solv.prm

>  <Rbt.Receptor>
prm/blind_docking_80.prm

>  <SCORE>
-18.2245

>  <SCORE.INTER>
-16.6108

>  <SCORE.INTER.CONST>
1

>  <SCORE.INTER.POLAR>
0

>  <SCORE.INTER.ROT>
3

>  <SCORE.INTER.SOLV>
10.365

>  <SCORE.INTER.VDW>
-20.1289

>  <SCORE.INTER.norm>
-1.38423

>  <SCORE.INTRA>
-1.63798

>  <SCORE.INTRA.DIHEDRAL>
0.475139

>  <SCORE.INTRA.DIHEDRAL.0>
5.0186

>  <SCORE.INTRA.POLAR>
0

>  <SCORE.INTRA.POLAR.0>
0

>  <SCORE.INTRA.REPUL>
0

>  <SCORE.INTRA.REPUL.0>
0

>  <SCORE.INTRA.SOLV>
0.0709816

>  <SCORE.INTRA.SOLV.lig_0>
-16.1608

>  <SCORE.INTRA.VDW>
-1.91104

>  <SCORE.INTRA.VDW.0>
1.14169

>  <SCORE.INTRA.norm>
-0.136499

>  <SCORE.RESTR>
0.0242954

>  <SCORE.RESTR.CAVITY>
0.0242954

>  <SCORE.RESTR.norm>
0.00202461

>  <SCORE.SYSTEM>
0

>  <SCORE.SYSTEM.CONST>
0

>  <SCORE.SYSTEM.DIHEDRAL>
0

>  <SCORE.SYSTEM.SOLV>
0

>  <SCORE.SYSTEM.norm>
0

>  <SCORE.heavy>
12

>  <SCORE.norm>
-1.51871

>  <RMSD>
45.735

$$$$
ligand
 OpenBabel11021811493D
libRbt.so/2013.1/901 2013/11/27
 12 12  0  0  0  0  0  0  0  0999 V2000
   41.4220    5.5529   39.9666 N   0  0  0  0  0  0  0  0  0  0  0  0
   42.9287    8.5657   43.1831 O   0  0  0  0  0  0  0  0  0  0  0  0
   40.1135    5.2376   39.3427 C   0  0  0  0  0  0  0  0  0  0  0  0
   44.4069    9.4382   41.5628 O   0  0  0  0  0  0  0  0  0  0  0  0
   40.2305    3.8919   38.6346 C   0  0  0  0  0  0  0  0  0  0  0  0
   42.0382   10.0862   41.4986 O   0  0  0  0  0  0  0  0  0  0  0  0
   40.4852    2.8385   39.6219 N   0  0  0  0  0  0  0  0  0  0  0  0
   40.5916    3.4678   40.9405 C   0  0  0  0  0  0  0  0  0  0  0  0
   41.7592    4.4373   40.8725 C   0  0  0  0  0  0  0  0  0  0  0  0
   41.5067    6.8854   40.6866 C   0  0  0  0  0  0  0  0  0  0  0  0
   42.9264    7.4761   40.8905 C   0  0  0  0  0  0  0  0  0  0  0  0
   43.0946    8.8943   41.7980 S   0  0  0  0  0  0  0  0  0  0  0  0
  1  3  1  0  0  0  0
  1  9  1  0  0  0  0
  1 10  1  0  0  0  0
  2 12  1  0  0  0  0
  3  5  1  0  0  0  0
  4 12  2  0  0  0  0
  5  7  1  0  0  0  0
  6 12  2  0  0  0  0
  7  8  1  0  0  0  0
  8  9  1  0  0  0  0
 10 11  1  0  0  0  0
 11 12  1  0  0  0  0
M  END
>  <CHROM.1>
-158.42358571,-174.99883257,74.85834789,41.95534859,6.72364953,40.88939749
2.33704938,0.93256727,2.86920624

>  <Name>
ligand

>  <RI>
0

>  <Rbt.Current_Directory>
/home/itssahil/PROJECTS/Mol_Feturizer/New_Systems/rnas/4E8N

>  <Rbt.Executable>
rbdock ($Id: //depot/dev/client3/rdock/2013.1/src/exe/rbdock.cxx#4 $)

>  <Rbt.Library>
libRbt.so (2013.1, Build901 2013/11/27)

>  <Rbt.Parameter_File>
/export/apps/rDock/src/rDock_2013.1_src/data/scripts/dock_solv.prm

>  <Rbt.Receptor>
prm/blind_docking_80.prm

>  <SCORE>
-19.5359

>  <SCORE.INTER>
-15.9341

>  <SCORE.INTER.CONST>
1

>  <SCORE.INTER.POLAR>
0

>  <SCORE.INTER.ROT>
3

>  <SCORE.INTER.SOLV>
9.68469

>  <SCORE.INTER.VDW>
-19.451

>  <SCORE.INTER.norm>
-1.32784

>  <SCORE.INTRA>
-3.60182

>  <SCORE.INTRA.DIHEDRAL>
-3.77983

>  <SCORE.INTRA.DIHEDRAL.0>
5.0186

>  <SCORE.INTRA.POLAR>
0

>  <SCORE.INTRA.POLAR.0>
0

>  <SCORE.INTRA.REPUL>
0

>  <SCORE.INTRA.REPUL.0>
0

>  <SCORE.INTRA.SOLV>
-0.073243

>  <SCORE.INTRA.SOLV.lig_0>
-16.1608

>  <SCORE.INTRA.VDW>
-1.67528

>  <SCORE.INTRA.VDW.0>
1.14169

>  <SCORE.INTRA.norm>
-0.300151

>  <SCORE.RESTR>
0

>  <SCORE.RESTR.CAVITY>
0

>  <SCORE.RESTR.norm>
0

>  <SCORE.SYSTEM>
0

>  <SCORE.SYSTEM.CONST>
0

>  <SCORE.SYSTEM.DIHEDRAL>
0

>  <SCORE.SYSTEM.SOLV>
0

>  <SCORE.SYSTEM.norm>
0

>  <SCORE.heavy>
12

>  <SCORE.norm>
-1.62799

>  <RMSD>
45.770

$$$$
ligand
 OpenBabel11021811493D
libRbt.so/2013.1/901 2013/11/27
 12 12  0  0  0  0  0  0  0  0999 V2000
   41.3996    5.5861   39.9542 N   0  0  0  0  0  0  0  0  0  0  0  0
   42.9615    8.5875   43.1795 O   0  0  0  0  0  0  0  0  0  0  0  0
   40.0543    5.2335   39.4378 C   0  0  0  0  0  0  0  0  0  0  0  0
   44.4256    9.4413   41.5365 O   0  0  0  0  0  0  0  0  0  0  0  0
   40.1544    3.8976   38.7088 C   0  0  0  0  0  0  0  0  0  0  0  0
   42.0590   10.0985   41.4928 O   0  0  0  0  0  0  0  0  0  0  0  0
   40.5235    2.8456   39.6606 N   0  0  0  0  0  0  0  0  0  0  0  0
   40.7194    3.4680   40.9723 C   0  0  0  0  0  0  0  0  0  0  0  0
   41.8462    4.4752   40.8175 C   0  0  0  0  0  0  0  0  0  0  0  0
   41.5018    6.9152   40.6782 C   0  0  0  0  0  0  0  0  0  0  0  0
   42.9300    7.4801   40.8956 C   0  0  0  0  0  0  0  0  0  0  0  0
   43.1137    8.9047   41.7902 S   0  0  0  0  0  0  0  0  0  0  0  0
  1  3  1  0  0  0  0
  1  9  1  0  0  0  0
  1 10  1  0  0  0  0
  2 12  1  0  0  0  0
  3  5  1  0  0  0  0
  4 12  2  0  0  0  0
  5  7  1  0  0  0  0
  6 12  2  0  0  0  0
  7  8  1  0  0  0  0
  8  9  1  0  0  0  0
 10 11  1  0  0  0  0
 11 12  1  0  0  0  0
M  END
>  <CHROM.1>
-164.41150219,-175.83000491,76.54131208,41.97144062,6.73675520,40.89744880
2.26572751,0.86562161,2.95459071

>  <Name>
ligand

>  <RI>
0

>  <Rbt.Current_Directory>
/home/itssahil/PROJECTS/Mol_Feturizer/New_Systems/rnas/4E8N

>  <Rbt.Executable>
rbdock ($Id: //depot/dev/client3/rdock/2013.1/src/exe/rbdock.cxx#4 $)

>  <Rbt.Library>
libRbt.so (2013.1, Build901 2013/11/27)

>  <Rbt.Parameter_File>
/export/apps/rDock/src/rDock_2013.1_src/data/scripts/dock_solv.prm

>  <Rbt.Receptor>
prm/blind_docking_80.prm

>  <SCORE>
-19.5809

>  <SCORE.INTER>
-15.9821

>  <SCORE.INTER.CONST>
1

>  <SCORE.INTER.POLAR>
0

>  <SCORE.INTER.ROT>
3

>  <SCORE.INTER.SOLV>
9.6926

>  <SCORE.INTER.VDW>
-19.4856

>  <SCORE.INTER.norm>
-1.33184

>  <SCORE.INTRA>
-3.59883

>  <SCORE.INTRA.DIHEDRAL>
-3.98305

>  <SCORE.INTRA.DIHEDRAL.0>
5.0186

>  <SCORE.INTRA.POLAR>
0

>  <SCORE.INTRA.POLAR.0>
0

>  <SCORE.INTRA.REPUL>
0

>  <SCORE.INTRA.REPUL.0>
0

>  <SCORE.INTRA.SOLV>
-0.0682262

>  <SCORE.INTRA.SOLV.lig_0>
-16.1608

>  <SCORE.INTRA.VDW>
-1.57319

>  <SCORE.INTRA.VDW.0>
1.14169

>  <SCORE.INTRA.norm>
-0.299902

>  <SCORE.RESTR>
0

>  <SCORE.RESTR.CAVITY>
0

>  <SCORE.RESTR.norm>
0

>  <SCORE.SYSTEM>
0

>  <SCORE.SYSTEM.CONST>
0

>  <SCORE.SYSTEM.DIHEDRAL>
0

>  <SCORE.SYSTEM.SOLV>
0

>  <SCORE.SYSTEM.norm>
0

>  <SCORE.heavy>
12

>  <SCORE.norm>
-1.63175

>  <RMSD>
45.791

$$$$
ligand
 OpenBabel11021811493D
libRbt.so/2013.1/901 2013/11/27
 12 12  0  0  0  0  0  0  0  0999 V2000
   42.0482    7.6764   40.5088 N   0  0  0  0  0  0  0  0  0  0  0  0
   39.0832    4.2465   40.1542 O   0  0  0  0  0  0  0  0  0  0  0  0
   43.4653    7.5597   40.9319 C   0  0  0  0  0  0  0  0  0  0  0  0
   37.9493    5.3631   38.4109 O   0  0  0  0  0  0  0  0  0  0  0  0
   44.0231    8.9645   41.1359 C   0  0  0  0  0  0  0  0  0  0  0  0
   39.9576    4.0490   37.8873 O   0  0  0  0  0  0  0  0  0  0  0  0
   43.3124    9.6194   42.2381 N   0  0  0  0  0  0  0  0  0  0  0  0
   42.2749    8.7031   42.7179 C   0  0  0  0  0  0  0  0  0  0  0  0
   41.3390    8.4473   41.5489 C   0  0  0  0  0  0  0  0  0  0  0  0
   41.3360    6.3691   40.2173 C   0  0  0  0  0  0  0  0  0  0  0  0
   40.0465    6.4565   39.3596 C   0  0  0  0  0  0  0  0  0  0  0  0
   39.2363    5.0254   38.9609 S   0  0  0  0  0  0  0  0  0  0  0  0
  1  3  1  0  0  0  0
  1  9  1  0  0  0  0
  1 10  1  0  0  0  0
  2 12  1  0  0  0  0
  3  5  1  0  0  0  0
  4 12  2  0  0  0  0
  5  7  1  0  0  0  0
  6 12  2  0  0  0  0
  7  8  1  0  0  0  0
  8  9  1  0  0  0  0
 10 11  1  0  0  0  0
 11 12  1  0  0  0  0
M  END
>  <CHROM.1>
-161.04322563,178.08782482,48.33421963,40.92369594,6.62818070,40.16293610
-0.87867799,-0.19905886,-2.34567084

>  <Name>
ligand

>  <RI>
0

>  <Rbt.Current_Directory>
/home/itssahil/PROJECTS/Mol_Feturizer/New_Systems/rnas/4E8N

>  <Rbt.Executable>
rbdock ($Id: //depot/dev/client3/rdock/2013.1/src/exe/rbdock.cxx#4 $)

>  <Rbt.Library>
libRbt.so (2013.1, Build901 2013/11/27)

>  <Rbt.Parameter_File>
/export/apps/rDock/src/rDock_2013.1_src/data/scripts/dock_solv.prm

>  <Rbt.Receptor>
prm/blind_docking_80.prm

>  <SCORE>
-16.2344

>  <SCORE.INTER>
-12.4864

>  <SCORE.INTER.CONST>
1

>  <SCORE.INTER.POLAR>
0

>  <SCORE.INTER.ROT>
3

>  <SCORE.INTER.SOLV>
12.337

>  <SCORE.INTER.VDW>
-18.0366

>  <SCORE.INTER.norm>
-1.04053

>  <SCORE.INTRA>
-3.74803

>  <SCORE.INTRA.DIHEDRAL>
-4.21996

>  <SCORE.INTRA.DIHEDRAL.0>
5.0186

>  <SCORE.INTRA.POLAR>
0

>  <SCORE.INTRA.POLAR.0>
0

>  <SCORE.INTRA.REPUL>
0

>  <SCORE.INTRA.REPUL.0>
0

>  <SCORE.INTRA.SOLV>
-0.130602

>  <SCORE.INTRA.SOLV.lig_0>
-16.1608

>  <SCORE.INTRA.VDW>
-1.57275

>  <SCORE.INTRA.VDW.0>
1.14169

>  <SCORE.INTRA.norm>
-0.312336

>  <SCORE.RESTR>
0

>  <SCORE.RESTR.CAVITY>
0

>  <SCORE.RESTR.norm>
0

>  <SCORE.SYSTEM>
0

>  <SCORE.SYSTEM.CONST>
0

>  <SCORE.SYSTEM.DIHEDRAL>
0

>  <SCORE.SYSTEM.SOLV>
0

>  <SCORE.SYSTEM.norm>
0

>  <SCORE.heavy>
12

>  <SCORE.norm>
-1.35287

>  <RMSD>
45.802

$$$$
ligand
 OpenBabel11021811493D
libRbt.so/2013.1/901 2013/11/27
 12 12  0  0  0  0  0  0  0  0999 V2000
    9.5643   14.8737   26.2960 N   0  0  0  0  0  0  0  0  0  0  0  0
    9.6507   12.1278   23.6341 O   0  0  0  0  0  0  0  0  0  0  0  0
   10.5379   15.9359   26.6489 C   0  0  0  0  0  0  0  0  0  0  0  0
   10.5712   14.2956   23.4764 O   0  0  0  0  0  0  0  0  0  0  0  0
    9.9134   17.2883   26.3215 C   0  0  0  0  0  0  0  0  0  0  0  0
   11.9683   12.3551   22.9132 O   0  0  0  0  0  0  0  0  0  0  0  0
    8.7371   17.5037   27.1695 N   0  0  0  0  0  0  0  0  0  0  0  0
    8.5486   16.3094   27.9967 C   0  0  0  0  0  0  0  0  0  0  0  0
    8.3223   15.1466   27.0456 C   0  0  0  0  0  0  0  0  0  0  0  0
   10.0331   13.4480   26.5168 C   0  0  0  0  0  0  0  0  0  0  0  0
   11.1208   12.9161   25.5473 C   0  0  0  0  0  0  0  0  0  0  0  0
   10.8080   12.9353   23.8845 S   0  0  0  0  0  0  0  0  0  0  0  0
  1  3  1  0  0  0  0
  1  9  1  0  0  0  0
  1 10  1  0  0  0  0
  2 12  1  0  0  0  0
  3  5  1  0  0  0  0
  4 12  2  0  0  0  0
  5  7  1  0  0  0  0
  6 12  2  0  0  0  0
  7  8  1  0  0  0  0
  8  9  1  0  0  0  0
 10 11  1  0  0  0  0
 11 12  1  0  0  0  0
M  END
>  <CHROM.1>
-71.06608066,-57.07021712,-60.08559626,10.08208370,14.38726341,25.38755089
2.21203453,0.97445187,0.19317401

>  <Name>
ligand

>  <RI>
0

>  <Rbt.Current_Directory>
/home/itssahil/PROJECTS/Mol_Feturizer/New_Systems/rnas/4E8N

>  <Rbt.Executable>
rbdock ($Id: //depot/dev/client3/rdock/2013.1/src/exe/rbdock.cxx#4 $)

>  <Rbt.Library>
libRbt.so (2013.1, Build901 2013/11/27)

>  <Rbt.Parameter_File>
/export/apps/rDock/src/rDock_2013.1_src/data/scripts/dock_solv.prm

>  <Rbt.Receptor>
prm/blind_docking_80.prm

>  <SCORE>
-13.6261

>  <SCORE.INTER>
-9.27974

>  <SCORE.INTER.CONST>
1

>  <SCORE.INTER.POLAR>
0

>  <SCORE.INTER.ROT>
3

>  <SCORE.INTER.SOLV>
8.63827

>  <SCORE.INTER.VDW>
-14.6659

>  <SCORE.INTER.norm>
-0.773312

>  <SCORE.INTRA>
-4.34637

>  <SCORE.INTRA.DIHEDRAL>
-4.73536

>  <SCORE.INTRA.DIHEDRAL.0>
5.0186

>  <SCORE.INTRA.POLAR>
0

>  <SCORE.INTRA.POLAR.0>
0

>  <SCORE.INTRA.REPUL>
0

>  <SCORE.INTRA.REPUL.0>
0

>  <SCORE.INTRA.SOLV>
0.596196

>  <SCORE.INTRA.SOLV.lig_0>
-16.1608

>  <SCORE.INTRA.VDW>
-2.27679

>  <SCORE.INTRA.VDW.0>
1.14169

>  <SCORE.INTRA.norm>
-0.362198

>  <SCORE.RESTR>
0

>  <SCORE.RESTR.CAVITY>
0

>  <SCORE.RESTR.norm>
0

>  <SCORE.SYSTEM>
0

>  <SCORE.SYSTEM.CONST>
0

>  <SCORE.SYSTEM.DIHEDRAL>
0

>  <SCORE.SYSTEM.SOLV>
0

>  <SCORE.SYSTEM.norm>
0

>  <SCORE.heavy>
12

>  <SCORE.norm>
-1.13551

>  <RMSD>
45.905

$$$$
ligand
 OpenBabel11021811493D
libRbt.so/2013.1/901 2013/11/27
 12 12  0  0  0  0  0  0  0  0999 V2000
   14.6180   10.8517   35.7596 N   0  0  0  0  0  0  0  0  0  0  0  0
   17.5778    7.8633   33.9098 O   0  0  0  0  0  0  0  0  0  0  0  0
   14.9597   11.9792   34.8580 C   0  0  0  0  0  0  0  0  0  0  0  0
   16.0339    7.1429   35.5435 O   0  0  0  0  0  0  0  0  0  0  0  0
   13.6868   12.4307   34.1494 C   0  0  0  0  0  0  0  0  0  0  0  0
   15.2341    8.4785   33.6432 O   0  0  0  0  0  0  0  0  0  0  0  0
   12.7379   12.9584   35.1343 N   0  0  0  0  0  0  0  0  0  0  0  0
   13.3347   12.8118   36.4642 C   0  0  0  0  0  0  0  0  0  0  0  0
   13.5669   11.3262   36.6809 C   0  0  0  0  0  0  0  0  0  0  0  0
   15.7781   10.2412   36.5229 C   0  0  0  0  0  0  0  0  0  0  0  0
   16.8762    9.5442   35.6777 C   0  0  0  0  0  0  0  0  0  0  0  0
   16.4401    8.2353   34.6980 S   0  0  0  0  0  0  0  0  0  0  0  0
  1  3  1  0  0  0  0
  1  9  1  0  0  0  0
  1 10  1  0  0  0  0
  2 12  1  0  0  0  0
  3  5  1  0  0  0  0
  4 12  2  0  0  0  0
  5  7  1  0  0  0  0
  6 12  2  0  0  0  0
  7  8  1  0  0  0  0
  8  9  1  0  0  0  0
 10 11  1  0  0  0  0
 11 12  1  0  0  0  0
M  END
>  <CHROM.1>
-64.39670061,-59.95723659,173.51913917,15.23643154,10.04908203,35.17398700
-2.92075011,0.95511836,-1.63259221

>  <Name>
ligand

>  <RI>
0

>  <Rbt.Current_Directory>
/home/itssahil/PROJECTS/Mol_Feturizer/New_Systems/rnas/4E8N

>  <Rbt.Executable>
rbdock ($Id: //depot/dev/client3/rdock/2013.1/src/exe/rbdock.cxx#4 $)

>  <Rbt.Library>
libRbt.so (2013.1, Build901 2013/11/27)

>  <Rbt.Parameter_File>
/export/apps/rDock/src/rDock_2013.1_src/data/scripts/dock_solv.prm

>  <Rbt.Receptor>
prm/blind_docking_60.prm

>  <SCORE>
-9.70925

>  <SCORE.INTER>
-5.42871

>  <SCORE.INTER.CONST>
1

>  <SCORE.INTER.POLAR>
0

>  <SCORE.INTER.ROT>
3

>  <SCORE.INTER.SOLV>
9.01034

>  <SCORE.INTER.VDW>
-12.2226

>  <SCORE.INTER.norm>
-0.452392

>  <SCORE.INTRA>
-4.28054

>  <SCORE.INTRA.DIHEDRAL>
-4.86497

>  <SCORE.INTRA.DIHEDRAL.0>
5.0186

>  <SCORE.INTRA.POLAR>
0

>  <SCORE.INTRA.POLAR.0>
0

>  <SCORE.INTRA.REPUL>
0

>  <SCORE.INTRA.REPUL.0>
0

>  <SCORE.INTRA.SOLV>
0.757526

>  <SCORE.INTRA.SOLV.lig_0>
-16.1608

>  <SCORE.INTRA.VDW>
-2.22682

>  <SCORE.INTRA.VDW.0>
1.14169

>  <SCORE.INTRA.norm>
-0.356712

>  <SCORE.RESTR>
0

>  <SCORE.RESTR.CAVITY>
0

>  <SCORE.RESTR.norm>
0

>  <SCORE.SYSTEM>
0

>  <SCORE.SYSTEM.CONST>
0

>  <SCORE.SYSTEM.DIHEDRAL>
0

>  <SCORE.SYSTEM.SOLV>
0

>  <SCORE.SYSTEM.norm>
0

>  <SCORE.heavy>
12

>  <SCORE.norm>
-0.809104

>  <RMSD>
45.919

$$$$
ligand
 OpenBabel11021811493D
libRbt.so/2013.1/901 2013/11/27
 12 12  0  0  0  0  0  0  0  0999 V2000
   15.5393    9.4637   35.4063 N   0  0  0  0  0  0  0  0  0  0  0  0
   13.6164   13.4193   33.9744 O   0  0  0  0  0  0  0  0  0  0  0  0
   16.9011    9.9819   35.6854 C   0  0  0  0  0  0  0  0  0  0  0  0
   11.8625   12.1687   34.9396 O   0  0  0  0  0  0  0  0  0  0  0  0
   17.7345    8.8494   36.2761 C   0  0  0  0  0  0  0  0  0  0  0  0
   12.7860   14.0856   36.1674 O   0  0  0  0  0  0  0  0  0  0  0  0
   17.8905    7.7843   35.2809 N   0  0  0  0  0  0  0  0  0  0  0  0
   17.1380    8.1674   34.0838 C   0  0  0  0  0  0  0  0  0  0  0  0
   15.6844    8.3052   34.5031 C   0  0  0  0  0  0  0  0  0  0  0  0
   14.5509   10.4703   34.8487 C   0  0  0  0  0  0  0  0  0  0  0  0
   14.2372   11.7021   35.7377 C   0  0  0  0  0  0  0  0  0  0  0  0
   13.1129   12.8393   35.1844 S   0  0  0  0  0  0  0  0  0  0  0  0
  1  3  1  0  0  0  0
  1  9  1  0  0  0  0
  1 10  1  0  0  0  0
  2 12  1  0  0  0  0
  3  5  1  0  0  0  0
  4 12  2  0  0  0  0
  5  7  1  0  0  0  0
  6 12  2  0  0  0  0
  7  8  1  0  0  0  0
  8  9  1  0  0  0  0
 10 11  1  0  0  0  0
 11 12  1  0  0  0  0
M  END
>  <CHROM.1>
-60.63135294,-178.50745779,-62.46948090,14.83037738,10.89400778,35.17041667
0.65684632,0.54914655,-2.54256342

>  <Name>
ligand

>  <RI>
0

>  <Rbt.Current_Directory>
/home/itssahil/PROJECTS/Mol_Feturizer/New_Systems/rnas/4E8N

>  <Rbt.Executable>
rbdock ($Id: //depot/dev/client3/rdock/2013.1/src/exe/rbdock.cxx#4 $)

>  <Rbt.Library>
libRbt.so (2013.1, Build901 2013/11/27)

>  <Rbt.Parameter_File>
/export/apps/rDock/src/rDock_2013.1_src/data/scripts/dock_solv.prm

>  <Rbt.Receptor>
prm/blind_docking_80.prm

>  <SCORE>
-12.8689

>  <SCORE.INTER>
-8.85038

>  <SCORE.INTER.CONST>
1

>  <SCORE.INTER.POLAR>
0

>  <SCORE.INTER.ROT>
3

>  <SCORE.INTER.SOLV>
8.66422

>  <SCORE.INTER.VDW>
-14.3883

>  <SCORE.INTER.norm>
-0.737532

>  <SCORE.INTRA>
-4.01851

>  <SCORE.INTRA.DIHEDRAL>
-4.98753

>  <SCORE.INTRA.DIHEDRAL.0>
5.0186

>  <SCORE.INTRA.POLAR>
0

>  <SCORE.INTRA.POLAR.0>
0

>  <SCORE.INTRA.REPUL>
0

>  <SCORE.INTRA.REPUL.0>
0

>  <SCORE.INTRA.SOLV>
-0.104639

>  <SCORE.INTRA.SOLV.lig_0>
-16.1608

>  <SCORE.INTRA.VDW>
-1.47243

>  <SCORE.INTRA.VDW.0>
1.14169

>  <SCORE.INTRA.norm>
-0.334876

>  <SCORE.RESTR>
0

>  <SCORE.RESTR.CAVITY>
0

>  <SCORE.RESTR.norm>
0

>  <SCORE.SYSTEM>
0

>  <SCORE.SYSTEM.CONST>
0

>  <SCORE.SYSTEM.DIHEDRAL>
0

>  <SCORE.SYSTEM.SOLV>
0

>  <SCORE.SYSTEM.norm>
0

>  <SCORE.heavy>
12

>  <SCORE.norm>
-1.07241

>  <RMSD>
45.923

$$$$
ligand
 OpenBabel11021811493D
libRbt.so/2013.1/901 2013/11/27
 12 12  0  0  0  0  0  0  0  0999 V2000
   10.0910   13.9609   26.1063 N   0  0  0  0  0  0  0  0  0  0  0  0
   10.4637   18.0545   28.4584 O   0  0  0  0  0  0  0  0  0  0  0  0
    9.4302   13.1029   27.1203 C   0  0  0  0  0  0  0  0  0  0  0  0
   12.5543   17.3837   27.5917 O   0  0  0  0  0  0  0  0  0  0  0  0
    8.5700   12.0748   26.3929 C   0  0  0  0  0  0  0  0  0  0  0  0
   11.3301   19.2088   26.4938 O   0  0  0  0  0  0  0  0  0  0  0  0
    9.4282   11.1922   25.5968 N   0  0  0  0  0  0  0  0  0  0  0  0
   10.8117   11.6513   25.7426 C   0  0  0  0  0  0  0  0  0  0  0  0
   10.8613   13.0741   25.2123 C   0  0  0  0  0  0  0  0  0  0  0  0
   10.9621   15.0767   26.6515 C   0  0  0  0  0  0  0  0  0  0  0  0
   10.4536   16.5256   26.4321 C   0  0  0  0  0  0  0  0  0  0  0  0
   11.2116   17.7885   27.2651 S   0  0  0  0  0  0  0  0  0  0  0  0
  1  3  1  0  0  0  0
  1  9  1  0  0  0  0
  1 10  1  0  0  0  0
  2 12  1  0  0  0  0
  3  5  1  0  0  0  0
  4 12  2  0  0  0  0
  5  7  1  0  0  0  0
  6 12  2  0  0  0  0
  7  8  1  0  0  0  0
  8  9  1  0  0  0  0
 10 11  1  0  0  0  0
 11 12  1  0  0  0  0
M  END
>  <CHROM.1>
-111.55984700,168.34166888,-95.20295200,10.60838770,15.29497899,26.68075613
-1.85481712,0.52897838,0.37012966

>  <Name>
ligand

>  <RI>
0

>  <Rbt.Current_Directory>
/home/itssahil/PROJECTS/Mol_Feturizer/New_Systems/rnas/4E8N

>  <Rbt.Executable>
rbdock ($Id: //depot/dev/client3/rdock/2013.1/src/exe/rbdock.cxx#4 $)

>  <Rbt.Library>
libRbt.so (2013.1, Build901 2013/11/27)

>  <Rbt.Parameter_File>
/export/apps/rDock/src/rDock_2013.1_src/data/scripts/dock_solv.prm

>  <Rbt.Receptor>
prm/blind_docking_40.prm

>  <SCORE>
-12.9222

>  <SCORE.INTER>
-11.2675

>  <SCORE.INTER.CONST>
1

>  <SCORE.INTER.POLAR>
0

>  <SCORE.INTER.ROT>
3

>  <SCORE.INTER.SOLV>
10.2309

>  <SCORE.INTER.VDW>
-16.522

>  <SCORE.INTER.norm>
-0.938961

>  <SCORE.INTRA>
-1.65462

>  <SCORE.INTRA.DIHEDRAL>
0.0577289

>  <SCORE.INTRA.DIHEDRAL.0>
5.0186

>  <SCORE.INTRA.POLAR>
0

>  <SCORE.INTRA.POLAR.0>
0

>  <SCORE.INTRA.REPUL>
0

>  <SCORE.INTRA.REPUL.0>
0

>  <SCORE.INTRA.SOLV>
-0.0351138

>  <SCORE.INTRA.SOLV.lig_0>
-16.1608

>  <SCORE.INTRA.VDW>
-1.66593

>  <SCORE.INTRA.VDW.0>
1.14169

>  <SCORE.INTRA.norm>
-0.137885

>  <SCORE.RESTR>
0

>  <SCORE.RESTR.CAVITY>
0

>  <SCORE.RESTR.norm>
0

>  <SCORE.SYSTEM>
0

>  <SCORE.SYSTEM.CONST>
0

>  <SCORE.SYSTEM.DIHEDRAL>
0

>  <SCORE.SYSTEM.SOLV>
0

>  <SCORE.SYSTEM.norm>
0

>  <SCORE.heavy>
12

>  <SCORE.norm>
-1.07685

>  <RMSD>
46.142

$$$$
ligand
 OpenBabel11021811493D
libRbt.so/2013.1/901 2013/11/27
 12 12  0  0  0  0  0  0  0  0999 V2000
    9.2599   15.1318   27.0142 N   0  0  0  0  0  0  0  0  0  0  0  0
   11.0966   11.2663   25.1983 O   0  0  0  0  0  0  0  0  0  0  0  0
    8.0870   15.1414   27.9226 C   0  0  0  0  0  0  0  0  0  0  0  0
    9.8336   12.2885   23.4861 O   0  0  0  0  0  0  0  0  0  0  0  0
    8.1051   16.4432   28.7171 C   0  0  0  0  0  0  0  0  0  0  0  0
   12.2855   12.4200   23.4100 O   0  0  0  0  0  0  0  0  0  0  0  0
    7.9338   17.5774   27.8043 N   0  0  0  0  0  0  0  0  0  0  0  0
    7.8606   17.0541   26.4380 C   0  0  0  0  0  0  0  0  0  0  0  0
    9.1739   16.3393   26.1696 C   0  0  0  0  0  0  0  0  0  0  0  0
    9.4297   13.8844   26.1677 C   0  0  0  0  0  0  0  0  0  0  0  0
   10.7409   13.7752   25.3463 C   0  0  0  0  0  0  0  0  0  0  0  0
   10.9715   12.4209   24.3585 S   0  0  0  0  0  0  0  0  0  0  0  0
  1  3  1  0  0  0  0
  1  9  1  0  0  0  0
  1 10  1  0  0  0  0
  2 12  1  0  0  0  0
  3  5  1  0  0  0  0
  4 12  2  0  0  0  0
  5  7  1  0  0  0  0
  6 12  2  0  0  0  0
  7  8  1  0  0  0  0
  8  9  1  0  0  0  0
 10 11  1  0  0  0  0
 11 12  1  0  0  0  0
M  END
>  <CHROM.1>
-172.51106373,-178.75231966,-66.56583760,9.74339392,14.20855832,25.78751212
2.98802650,1.07593169,-0.73402402

>  <Name>
ligand

>  <RI>
0

>  <Rbt.Current_Directory>
/home/itssahil/PROJECTS/Mol_Feturizer/New_Systems/rnas/4E8N

>  <Rbt.Executable>
rbdock ($Id: //depot/dev/client3/rdock/2013.1/src/exe/rbdock.cxx#4 $)

>  <Rbt.Library>
libRbt.so (2013.1, Build901 2013/11/27)

>  <Rbt.Parameter_File>
/export/apps/rDock/src/rDock_2013.1_src/data/scripts/dock_solv.prm

>  <Rbt.Receptor>
prm/blind_docking_40.prm

>  <SCORE>
-11.2247

>  <SCORE.INTER>
-7.43395

>  <SCORE.INTER.CONST>
1

>  <SCORE.INTER.POLAR>
0

>  <SCORE.INTER.ROT>
3

>  <SCORE.INTER.SOLV>
7.96424

>  <SCORE.INTER.VDW>
-13.2107

>  <SCORE.INTER.norm>
-0.619496

>  <SCORE.INTRA>
-3.79075

>  <SCORE.INTRA.DIHEDRAL>
-4.85206

>  <SCORE.INTRA.DIHEDRAL.0>
5.0186

>  <SCORE.INTRA.POLAR>
0

>  <SCORE.INTRA.POLAR.0>
0

>  <SCORE.INTRA.REPUL>
0

>  <SCORE.INTRA.REPUL.0>
0

>  <SCORE.INTRA.SOLV>
-0.0935057

>  <SCORE.INTRA.SOLV.lig_0>
-16.1608

>  <SCORE.INTRA.VDW>
-1.31796

>  <SCORE.INTRA.VDW.0>
1.14169

>  <SCORE.INTRA.norm>
-0.315896

>  <SCORE.RESTR>
0

>  <SCORE.RESTR.CAVITY>
0

>  <SCORE.RESTR.norm>
0

>  <SCORE.SYSTEM>
0

>  <SCORE.SYSTEM.CONST>
0

>  <SCORE.SYSTEM.DIHEDRAL>
0

>  <SCORE.SYSTEM.SOLV>
0

>  <SCORE.SYSTEM.norm>
0

>  <SCORE.heavy>
12

>  <SCORE.norm>
-0.935392

>  <RMSD>
46.204

$$$$
ligand
 OpenBabel11021811493D
libRbt.so/2013.1/901 2013/11/27
 12 12  0  0  0  0  0  0  0  0999 V2000
    9.9786   13.7698   26.4794 N   0  0  0  0  0  0  0  0  0  0  0  0
   10.1257   18.8773   25.8630 O   0  0  0  0  0  0  0  0  0  0  0  0
   10.1032   12.9622   25.2412 C   0  0  0  0  0  0  0  0  0  0  0  0
    8.2840   17.7357   24.9267 O   0  0  0  0  0  0  0  0  0  0  0  0
   10.9646   11.7416   25.5483 C   0  0  0  0  0  0  0  0  0  0  0  0
    8.2563   18.3001   27.3173 O   0  0  0  0  0  0  0  0  0  0  0  0
   10.2823   10.8942   26.5309 N   0  0  0  0  0  0  0  0  0  0  0  0
    9.0315   11.5556   26.9106 C   0  0  0  0  0  0  0  0  0  0  0  0
    9.4095   12.8938   27.5223 C   0  0  0  0  0  0  0  0  0  0  0  0
    9.1831   15.0552   26.3524 C   0  0  0  0  0  0  0  0  0  0  0  0
    9.9995   16.3677   26.2226 C   0  0  0  0  0  0  0  0  0  0  0  0
    9.1660   17.8314   26.0607 S   0  0  0  0  0  0  0  0  0  0  0  0
  1  3  1  0  0  0  0
  1  9  1  0  0  0  0
  1 10  1  0  0  0  0
  2 12  1  0  0  0  0
  3  5  1  0  0  0  0
  4 12  2  0  0  0  0
  5  7  1  0  0  0  0
  6 12  2  0  0  0  0
  7  8  1  0  0  0  0
  8  9  1  0  0  0  0
 10 11  1  0  0  0  0
 11 12  1  0  0  0  0
M  END
>  <CHROM.1>
-100.84802739,179.33908655,-175.92218036,9.50695113,15.22083608,26.22381065
-1.33287764,0.89492104,-0.23396960

>  <Name>
ligand

>  <RI>
0

>  <Rbt.Current_Directory>
/home/itssahil/PROJECTS/Mol_Feturizer/New_Systems/rnas/4E8N

>  <Rbt.Executable>
rbdock ($Id: //depot/dev/client3/rdock/2013.1/src/exe/rbdock.cxx#4 $)

>  <Rbt.Library>
libRbt.so (2013.1, Build901 2013/11/27)

>  <Rbt.Parameter_File>
/export/apps/rDock/src/rDock_2013.1_src/data/scripts/dock_solv.prm

>  <Rbt.Receptor>
prm/blind_docking_40.prm

>  <SCORE>
-11.2604

>  <SCORE.INTER>
-7.90714

>  <SCORE.INTER.CONST>
1

>  <SCORE.INTER.POLAR>
0

>  <SCORE.INTER.ROT>
3

>  <SCORE.INTER.SOLV>
8.74272

>  <SCORE.INTER.VDW>
-13.7857

>  <SCORE.INTER.norm>
-0.658928

>  <SCORE.INTRA>
-3.35328

>  <SCORE.INTRA.DIHEDRAL>
-3.05316

>  <SCORE.INTRA.DIHEDRAL.0>
5.0186

>  <SCORE.INTRA.POLAR>
0

>  <SCORE.INTRA.POLAR.0>
0

>  <SCORE.INTRA.REPUL>
0

>  <SCORE.INTRA.REPUL.0>
0

>  <SCORE.INTRA.SOLV>
0.0678489

>  <SCORE.INTRA.SOLV.lig_0>
-16.1608

>  <SCORE.INTRA.VDW>
-1.86063

>  <SCORE.INTRA.VDW.0>
1.14169

>  <SCORE.INTRA.norm>
-0.27944

>  <SCORE.RESTR>
0

>  <SCORE.RESTR.CAVITY>
0

>  <SCORE.RESTR.norm>
0

>  <SCORE.SYSTEM>
0

>  <SCORE.SYSTEM.CONST>
0

>  <SCORE.SYSTEM.DIHEDRAL>
0

>  <SCORE.SYSTEM.SOLV>
0

>  <SCORE.SYSTEM.norm>
0

>  <SCORE.heavy>
12

>  <SCORE.norm>
-0.938368

>  <RMSD>
46.362

$$$$
ligand
 OpenBabel11021811493D
libRbt.so/2013.1/901 2013/11/27
 12 12  0  0  0  0  0  0  0  0999 V2000
   25.8039   22.3852   23.9691 N   0  0  0  0  0  0  0  0  0  0  0  0
   24.2656   19.0590   26.6187 O   0  0  0  0  0  0  0  0  0  0  0  0
   25.0877   23.2779   23.0251 C   0  0  0  0  0  0  0  0  0  0  0  0
   23.0397   20.5960   27.9250 O   0  0  0  0  0  0  0  0  0  0  0  0
   26.0380   24.3941   22.6044 C   0  0  0  0  0  0  0  0  0  0  0  0
   22.0505   19.7274   25.8509 O   0  0  0  0  0  0  0  0  0  0  0  0
   27.1667   23.8239   21.8627 N   0  0  0  0  0  0  0  0  0  0  0  0
   27.0050   22.3681   21.8378 C   0  0  0  0  0  0  0  0  0  0  0  0
   27.0171   21.8993   23.2827 C   0  0  0  0  0  0  0  0  0  0  0  0
   24.9947   21.2311   24.5299 C   0  0  0  0  0  0  0  0  0  0  0  0
   24.2600   21.4851   25.8722 C   0  0  0  0  0  0  0  0  0  0  0  0
   23.4107   20.2089   26.5887 S   0  0  0  0  0  0  0  0  0  0  0  0
  1  3  1  0  0  0  0
  1  9  1  0  0  0  0
  1 10  1  0  0  0  0
  2 12  1  0  0  0  0
  3  5  1  0  0  0  0
  4 12  2  0  0  0  0
  5  7  1  0  0  0  0
  6 12  2  0  0  0  0
  7  8  1  0  0  0  0
  8  9  1  0  0  0  0
 10 11  1  0  0  0  0
 11 12  1  0  0  0  0
M  END
>  <CHROM.1>
-92.01722946,-176.72302913,48.91603590,24.80285936,21.50522376,24.76463198
-0.86534045,-0.61839648,2.67008234

>  <Name>
ligand

>  <RI>
0

>  <Rbt.Current_Directory>
/home/itssahil/PROJECTS/Mol_Feturizer/New_Systems/rnas/4E8N

>  <Rbt.Executable>
rbdock ($Id: //depot/dev/client3/rdock/2013.1/src/exe/rbdock.cxx#4 $)

>  <Rbt.Library>
libRbt.so (2013.1, Build901 2013/11/27)

>  <Rbt.Parameter_File>
/export/apps/rDock/src/rDock_2013.1_src/data/scripts/dock_solv.prm

>  <Rbt.Receptor>
prm/blind_docking_100.prm

>  <SCORE>
-14.2038

>  <SCORE.INTER>
-10.7155

>  <SCORE.INTER.CONST>
1

>  <SCORE.INTER.POLAR>
0

>  <SCORE.INTER.ROT>
3

>  <SCORE.INTER.SOLV>
11.5061

>  <SCORE.INTER.VDW>
-16.579

>  <SCORE.INTER.norm>
-0.892958

>  <SCORE.INTRA>
-3.48825

>  <SCORE.INTRA.DIHEDRAL>
-3.28142

>  <SCORE.INTRA.DIHEDRAL.0>
5.0186

>  <SCORE.INTRA.POLAR>
0

>  <SCORE.INTRA.POLAR.0>
0

>  <SCORE.INTRA.REPUL>
0

>  <SCORE.INTRA.REPUL.0>
0

>  <SCORE.INTRA.SOLV>
-0.133345

>  <SCORE.INTRA.SOLV.lig_0>
-16.1608

>  <SCORE.INTRA.VDW>
-1.78087

>  <SCORE.INTRA.VDW.0>
1.14169

>  <SCORE.INTRA.norm>
-0.290688

>  <SCORE.RESTR>
0

>  <SCORE.RESTR.CAVITY>
0

>  <SCORE.RESTR.norm>
0

>  <SCORE.SYSTEM>
0

>  <SCORE.SYSTEM.CONST>
0

>  <SCORE.SYSTEM.DIHEDRAL>
0

>  <SCORE.SYSTEM.SOLV>
0

>  <SCORE.SYSTEM.norm>
0

>  <SCORE.heavy>
12

>  <SCORE.norm>
-1.18365

>  <RMSD>
46.938

$$$$
ligand
 OpenBabel11021811493D
libRbt.so/2013.1/901 2013/11/27
 12 12  0  0  0  0  0  0  0  0999 V2000
   23.4954   20.5641   27.4315 N   0  0  0  0  0  0  0  0  0  0  0  0
   20.9030   19.9173   23.4386 O   0  0  0  0  0  0  0  0  0  0  0  0
   23.8142   21.9138   27.9584 C   0  0  0  0  0  0  0  0  0  0  0  0
   22.9657   21.0429   23.2153 O   0  0  0  0  0  0  0  0  0  0  0  0
   23.5029   21.9328   29.4514 C   0  0  0  0  0  0  0  0  0  0  0  0
   22.7924   18.7013   22.4930 O   0  0  0  0  0  0  0  0  0  0  0  0
   24.3872   20.9944   30.1488 N   0  0  0  0  0  0  0  0  0  0  0  0
   25.2235   20.3282   29.1473 C   0  0  0  0  0  0  0  0  0  0  0  0
   24.2833   19.5888   28.2106 C   0  0  0  0  0  0  0  0  0  0  0  0
   23.7053   20.3700   25.9418 C   0  0  0  0  0  0  0  0  0  0  0  0
   22.6723   19.4779   25.2049 C   0  0  0  0  0  0  0  0  0  0  0  0
   22.3247   19.8068   23.5818 S   0  0  0  0  0  0  0  0  0  0  0  0
  1  3  1  0  0  0  0
  1  9  1  0  0  0  0
  1 10  1  0  0  0  0
  2 12  1  0  0  0  0
  3  5  1  0  0  0  0
  4 12  2  0  0  0  0
  5  7  1  0  0  0  0
  6 12  2  0  0  0  0
  7  8  1  0  0  0  0
  8  9  1  0  0  0  0
 10 11  1  0  0  0  0
 11 12  1  0  0  0  0
M  END
>  <CHROM.1>
-142.67229666,149.19002029,-128.00916178,23.20942187,20.31668391,25.98989201
1.02601246,-0.91411680,0.91394376

>  <Name>
ligand

>  <RI>
0

>  <Rbt.Current_Directory>
/home/itssahil/PROJECTS/Mol_Feturizer/New_Systems/rnas/4E8N

>  <Rbt.Executable>
rbdock ($Id: //depot/dev/client3/rdock/2013.1/src/exe/rbdock.cxx#4 $)

>  <Rbt.Library>
libRbt.so (2013.1, Build901 2013/11/27)

>  <Rbt.Parameter_File>
/export/apps/rDock/src/rDock_2013.1_src/data/scripts/dock_solv.prm

>  <Rbt.Receptor>
prm/blind_docking_60.prm

>  <SCORE>
-8.70919

>  <SCORE.INTER>
-8.68569

>  <SCORE.INTER.CONST>
1

>  <SCORE.INTER.POLAR>
0

>  <SCORE.INTER.ROT>
3

>  <SCORE.INTER.SOLV>
8.9139

>  <SCORE.INTER.VDW>
-14.3618

>  <SCORE.INTER.norm>
-0.723807

>  <SCORE.INTRA>
-0.0733802

>  <SCORE.INTRA.DIHEDRAL>
2.87557

>  <SCORE.INTRA.DIHEDRAL.0>
5.0186

>  <SCORE.INTRA.POLAR>
0

>  <SCORE.INTRA.POLAR.0>
0

>  <SCORE.INTRA.REPUL>
0

>  <SCORE.INTRA.REPUL.0>
0

>  <SCORE.INTRA.SOLV>
0.0450896

>  <SCORE.INTRA.SOLV.lig_0>
-16.1608

>  <SCORE.INTRA.VDW>
-1.53371

>  <SCORE.INTRA.VDW.0>
1.14169

>  <SCORE.INTRA.norm>
-0.00611502

>  <SCORE.RESTR>
0.0498769

>  <SCORE.RESTR.CAVITY>
0.0498769

>  <SCORE.RESTR.norm>
0.00415641

>  <SCORE.SYSTEM>
0

>  <SCORE.SYSTEM.CONST>
0

>  <SCORE.SYSTEM.DIHEDRAL>
0

>  <SCORE.SYSTEM.SOLV>
0

>  <SCORE.SYSTEM.norm>
0

>  <SCORE.heavy>
12

>  <SCORE.norm>
-0.725766

>  <RMSD>
46.976

$$$$
ligand
 OpenBabel11021811493D
libRbt.so/2013.1/901 2013/11/27
 12 12  0  0  0  0  0  0  0  0999 V2000
   24.3429   21.3310   25.0373 N   0  0  0  0  0  0  0  0  0  0  0  0
   25.5332   24.7393   23.4717 O   0  0  0  0  0  0  0  0  0  0  0  0
   24.8977   21.9989   26.2402 C   0  0  0  0  0  0  0  0  0  0  0  0
   26.0653   23.7739   21.3844 O   0  0  0  0  0  0  0  0  0  0  0  0
   23.7644   22.2087   27.2391 C   0  0  0  0  0  0  0  0  0  0  0  0
   23.8354   23.4008   22.3452 O   0  0  0  0  0  0  0  0  0  0  0  0
   23.2548   20.9079   27.6833 N   0  0  0  0  0  0  0  0  0  0  0  0
   23.9856   19.8632   26.9617 C   0  0  0  0  0  0  0  0  0  0  0  0
   23.7094   20.0744   25.4829 C   0  0  0  0  0  0  0  0  0  0  0  0
   25.3259   21.0770   23.9102 C   0  0  0  0  0  0  0  0  0  0  0  0
   26.1823   22.2855   23.4495 C   0  0  0  0  0  0  0  0  0  0  0  0
   25.4175   23.5681   22.6538 S   0  0  0  0  0  0  0  0  0  0  0  0
  1  3  1  0  0  0  0
  1  9  1  0  0  0  0
  1 10  1  0  0  0  0
  2 12  1  0  0  0  0
  3  5  1  0  0  0  0
  4 12  2  0  0  0  0
  5  7  1  0  0  0  0
  6 12  2  0  0  0  0
  7  8  1  0  0  0  0
  8  9  1  0  0  0  0
 10 11  1  0  0  0  0
 11 12  1  0  0  0  0
M  END
>  <CHROM.1>
-50.53641842,-68.62713156,115.66320288,24.77495368,22.29763535,24.39745184
-2.69867327,1.23493541,0.11519768

>  <Name>
ligand

>  <RI>
0

>  <Rbt.Current_Directory>
/home/itssahil/PROJECTS/Mol_Feturizer/New_Systems/rnas/4E8N

>  <Rbt.Executable>
rbdock ($Id: //depot/dev/client3/rdock/2013.1/src/exe/rbdock.cxx#4 $)

>  <Rbt.Library>
libRbt.so (2013.1, Build901 2013/11/27)

>  <Rbt.Parameter_File>
/export/apps/rDock/src/rDock_2013.1_src/data/scripts/dock_solv.prm

>  <Rbt.Receptor>
prm/blind_docking_60.prm

>  <SCORE>
-10.5673

>  <SCORE.INTER>
-8.42237

>  <SCORE.INTER.CONST>
1

>  <SCORE.INTER.POLAR>
0

>  <SCORE.INTER.ROT>
3

>  <SCORE.INTER.SOLV>
12.3286

>  <SCORE.INTER.VDW>
-15.3245

>  <SCORE.INTER.norm>
-0.701864

>  <SCORE.INTRA>
-2.14492

>  <SCORE.INTRA.DIHEDRAL>
-1.07527

>  <SCORE.INTRA.DIHEDRAL.0>
5.0186

>  <SCORE.INTRA.POLAR>
0

>  <SCORE.INTRA.POLAR.0>
0

>  <SCORE.INTRA.REPUL>
0

>  <SCORE.INTRA.REPUL.0>
0

>  <SCORE.INTRA.SOLV>
0.389714

>  <SCORE.INTRA.SOLV.lig_0>
-16.1608

>  <SCORE.INTRA.VDW>
-1.80214

>  <SCORE.INTRA.VDW.0>
1.14169

>  <SCORE.INTRA.norm>
-0.178743

>  <SCORE.RESTR>
0

>  <SCORE.RESTR.CAVITY>
0

>  <SCORE.RESTR.norm>
0

>  <SCORE.SYSTEM>
0

>  <SCORE.SYSTEM.CONST>
0

>  <SCORE.SYSTEM.DIHEDRAL>
0

>  <SCORE.SYSTEM.SOLV>
0

>  <SCORE.SYSTEM.norm>
0

>  <SCORE.heavy>
12

>  <SCORE.norm>
-0.880608

>  <RMSD>
47.503

$$$$
ligand
 OpenBabel11021811493D
libRbt.so/2013.1/901 2013/11/27
 12 12  0  0  0  0  0  0  0  0999 V2000
    9.7309   15.9595   26.4237 N   0  0  0  0  0  0  0  0  0  0  0  0
   13.0689   18.3825   28.3135 O   0  0  0  0  0  0  0  0  0  0  0  0
    9.1686   15.2891   27.6218 C   0  0  0  0  0  0  0  0  0  0  0  0
   12.0055   20.0154   26.9813 O   0  0  0  0  0  0  0  0  0  0  0  0
    8.0178   14.3932   27.1755 C   0  0  0  0  0  0  0  0  0  0  0  0
   11.6715   20.0490   29.4149 O   0  0  0  0  0  0  0  0  0  0  0  0
    8.5320   13.3302   26.3069 N   0  0  0  0  0  0  0  0  0  0  0  0
    9.9710   13.5422   26.1324 C   0  0  0  0  0  0  0  0  0  0  0  0
   10.1390   14.9026   25.4774 C   0  0  0  0  0  0  0  0  0  0  0  0
   10.8680   16.9297   26.6821 C   0  0  0  0  0  0  0  0  0  0  0  0
   10.6192   18.0220   27.7549 C   0  0  0  0  0  0  0  0  0  0  0  0
   11.8591   19.1206   28.0999 S   0  0  0  0  0  0  0  0  0  0  0  0
  1  3  1  0  0  0  0
  1  9  1  0  0  0  0
  1 10  1  0  0  0  0
  2 12  1  0  0  0  0
  3  5  1  0  0  0  0
  4 12  2  0  0  0  0
  5  7  1  0  0  0  0
  6 12  2  0  0  0  0
  7  8  1  0  0  0  0
  8  9  1  0  0  0  0
 10 11  1  0  0  0  0
 11 12  1  0  0  0  0
M  END
>  <CHROM.1>
-51.93171288,179.23699244,-48.98975433,10.65619540,16.97931513,27.31536151
-2.19319909,0.63494621,0.73018278

>  <Name>
ligand

>  <RI>
0

>  <Rbt.Current_Directory>
/home/itssahil/PROJECTS/Mol_Feturizer/New_Systems/rnas/4E8N

>  <Rbt.Executable>
rbdock ($Id: //depot/dev/client3/rdock/2013.1/src/exe/rbdock.cxx#4 $)

>  <Rbt.Library>
libRbt.so (2013.1, Build901 2013/11/27)

>  <Rbt.Parameter_File>
/export/apps/rDock/src/rDock_2013.1_src/data/scripts/dock_solv.prm

>  <Rbt.Receptor>
prm/blind_docking_80.prm

>  <SCORE>
-12.9804

>  <SCORE.INTER>
-9.36385

>  <SCORE.INTER.CONST>
1

>  <SCORE.INTER.POLAR>
0

>  <SCORE.INTER.ROT>
3

>  <SCORE.INTER.SOLV>
9.52705

>  <SCORE.INTER.VDW>
-15.0183

>  <SCORE.INTER.norm>
-0.780321

>  <SCORE.INTRA>
-3.63398

>  <SCORE.INTRA.DIHEDRAL>
-4.63705

>  <SCORE.INTRA.DIHEDRAL.0>
5.0186

>  <SCORE.INTRA.POLAR>
0

>  <SCORE.INTRA.POLAR.0>
0

>  <SCORE.INTRA.REPUL>
0

>  <SCORE.INTRA.REPUL.0>
0

>  <SCORE.INTRA.SOLV>
-0.129362

>  <SCORE.INTRA.SOLV.lig_0>
-16.1608

>  <SCORE.INTRA.VDW>
-1.25077

>  <SCORE.INTRA.VDW.0>
1.14169

>  <SCORE.INTRA.norm>
-0.302831

>  <SCORE.RESTR>
0.0174536

>  <SCORE.RESTR.CAVITY>
0.0174536

>  <SCORE.RESTR.norm>
0.00145447

>  <SCORE.SYSTEM>
0

>  <SCORE.SYSTEM.CONST>
0

>  <SCORE.SYSTEM.DIHEDRAL>
0

>  <SCORE.SYSTEM.SOLV>
0

>  <SCORE.SYSTEM.norm>
0

>  <SCORE.heavy>
12

>  <SCORE.norm>
-1.0817

>  <RMSD>
47.797

$$$$
ligand
 OpenBabel11021811493D
libRbt.so/2013.1/901 2013/11/27
 12 12  0  0  0  0  0  0  0  0999 V2000
    9.1405   18.1446   25.4889 N   0  0  0  0  0  0  0  0  0  0  0  0
   10.0550   15.1385   25.1547 O   0  0  0  0  0  0  0  0  0  0  0  0
    8.6930   19.5305   25.2062 C   0  0  0  0  0  0  0  0  0  0  0  0
   11.7634   14.4219   26.6174 O   0  0  0  0  0  0  0  0  0  0  0  0
    7.9347   19.5302   23.8829 C   0  0  0  0  0  0  0  0  0  0  0  0
    9.4721   14.6551   27.4719 O   0  0  0  0  0  0  0  0  0  0  0  0
    6.7204   18.7194   24.0135 N   0  0  0  0  0  0  0  0  0  0  0  0
    6.6972   18.1499   25.3631 C   0  0  0  0  0  0  0  0  0  0  0  0
    7.9397   17.2862   25.4976 C   0  0  0  0  0  0  0  0  0  0  0  0
    9.9538   17.9585   26.7558 C   0  0  0  0  0  0  0  0  0  0  0  0
   11.0563   16.8679   26.7199 C   0  0  0  0  0  0  0  0  0  0  0  0
   10.5993   15.2572   26.4752 S   0  0  0  0  0  0  0  0  0  0  0  0
  1  3  1  0  0  0  0
  1  9  1  0  0  0  0
  1 10  1  0  0  0  0
  2 12  1  0  0  0  0
  3  5  1  0  0  0  0
  4 12  2  0  0  0  0
  5  7  1  0  0  0  0
  6 12  2  0  0  0  0
  7  8  1  0  0  0  0
  8  9  1  0  0  0  0
 10 11  1  0  0  0  0
 11 12  1  0  0  0  0
M  END
>  <CHROM.1>
-146.57512048,-62.32797417,65.77177545,9.34206794,16.88770767,25.81295931
-2.25104208,0.35474551,2.94787718

>  <Name>
ligand

>  <RI>
0

>  <Rbt.Current_Directory>
/home/itssahil/PROJECTS/Mol_Feturizer/New_Systems/rnas/4E8N

>  <Rbt.Executable>
rbdock ($Id: //depot/dev/client3/rdock/2013.1/src/exe/rbdock.cxx#4 $)

>  <Rbt.Library>
libRbt.so (2013.1, Build901 2013/11/27)

>  <Rbt.Parameter_File>
/export/apps/rDock/src/rDock_2013.1_src/data/scripts/dock_solv.prm

>  <Rbt.Receptor>
prm/blind_docking_40.prm

>  <SCORE>
-14.2196

>  <SCORE.INTER>
-10.0983

>  <SCORE.INTER.CONST>
1

>  <SCORE.INTER.POLAR>
0

>  <SCORE.INTER.ROT>
3

>  <SCORE.INTER.SOLV>
7.67033

>  <SCORE.INTER.VDW>
-14.889

>  <SCORE.INTER.norm>
-0.841527

>  <SCORE.INTRA>
-4.12123

>  <SCORE.INTRA.DIHEDRAL>
-3.58421

>  <SCORE.INTRA.DIHEDRAL.0>
5.0186

>  <SCORE.INTRA.POLAR>
0

>  <SCORE.INTRA.POLAR.0>
0

>  <SCORE.INTRA.REPUL>
0

>  <SCORE.INTRA.REPUL.0>
0

>  <SCORE.INTRA.SOLV>
0.179794

>  <SCORE.INTRA.SOLV.lig_0>
-16.1608

>  <SCORE.INTRA.VDW>
-2.41902

>  <SCORE.INTRA.VDW.0>
1.14169

>  <SCORE.INTRA.norm>
-0.343436

>  <SCORE.RESTR>
0

>  <SCORE.RESTR.CAVITY>
0

>  <SCORE.RESTR.norm>
0

>  <SCORE.SYSTEM>
0

>  <SCORE.SYSTEM.CONST>
0

>  <SCORE.SYSTEM.DIHEDRAL>
0

>  <SCORE.SYSTEM.SOLV>
0

>  <SCORE.SYSTEM.norm>
0

>  <SCORE.heavy>
12

>  <SCORE.norm>
-1.18496

>  <RMSD>
48.185

$$$$
ligand
 OpenBabel11021811493D
libRbt.so/2013.1/901 2013/11/27
 12 12  0  0  0  0  0  0  0  0999 V2000
   14.2407   11.6368   36.8809 N   0  0  0  0  0  0  0  0  0  0  0  0
   12.8292   10.2169   40.2901 O   0  0  0  0  0  0  0  0  0  0  0  0
   14.2808   11.9756   35.4371 C   0  0  0  0  0  0  0  0  0  0  0  0
   15.0072   11.0107   39.8450 O   0  0  0  0  0  0  0  0  0  0  0  0
   15.6732   11.6514   34.9059 C   0  0  0  0  0  0  0  0  0  0  0  0
   13.7577   11.9375   41.7462 O   0  0  0  0  0  0  0  0  0  0  0  0
   15.9109   10.2079   35.0012 N   0  0  0  0  0  0  0  0  0  0  0  0
   14.7375    9.5947   35.6284 C   0  0  0  0  0  0  0  0  0  0  0  0
   14.6041   10.2119   37.0101 C   0  0  0  0  0  0  0  0  0  0  0  0
   12.9347   11.9339   37.5931 C   0  0  0  0  0  0  0  0  0  0  0  0
   13.0397   12.4272   39.0599 C   0  0  0  0  0  0  0  0  0  0  0  0
   13.6685   11.3770   40.2282 S   0  0  0  0  0  0  0  0  0  0  0  0
  1  3  1  0  0  0  0
  1  9  1  0  0  0  0
  1 10  1  0  0  0  0
  2 12  1  0  0  0  0
  3  5  1  0  0  0  0
  4 12  2  0  0  0  0
  5  7  1  0  0  0  0
  6 12  2  0  0  0  0
  7  8  1  0  0  0  0
  8  9  1  0  0  0  0
 10 11  1  0  0  0  0
 11 12  1  0  0  0  0
M  END
>  <CHROM.1>
-143.95463327,-64.89589695,-60.68685002,14.16036952,11.19626897,38.11711839
1.04469563,0.97873776,-1.22565122

>  <Name>
ligand

>  <RI>
0

>  <Rbt.Current_Directory>
/home/itssahil/PROJECTS/Mol_Feturizer/New_Systems/rnas/4E8N

>  <Rbt.Executable>
rbdock ($Id: //depot/dev/client3/rdock/2013.1/src/exe/rbdock.cxx#4 $)

>  <Rbt.Library>
libRbt.so (2013.1, Build901 2013/11/27)

>  <Rbt.Parameter_File>
/export/apps/rDock/src/rDock_2013.1_src/data/scripts/dock_solv.prm

>  <Rbt.Receptor>
prm/blind_docking_80.prm

>  <SCORE>
-13.3612

>  <SCORE.INTER>
-9.58736

>  <SCORE.INTER.CONST>
1

>  <SCORE.INTER.POLAR>
0

>  <SCORE.INTER.ROT>
3

>  <SCORE.INTER.SOLV>
9.31577

>  <SCORE.INTER.VDW>
-15.0968

>  <SCORE.INTER.norm>
-0.798946

>  <SCORE.INTRA>
-3.77385

>  <SCORE.INTRA.DIHEDRAL>
-3.44134

>  <SCORE.INTRA.DIHEDRAL.0>
5.0186

>  <SCORE.INTRA.POLAR>
0

>  <SCORE.INTRA.POLAR.0>
0

>  <SCORE.INTRA.REPUL>
0

>  <SCORE.INTRA.REPUL.0>
0

>  <SCORE.INTRA.SOLV>
0.498164

>  <SCORE.INTRA.SOLV.lig_0>
-16.1608

>  <SCORE.INTRA.VDW>
-2.30227

>  <SCORE.INTRA.VDW.0>
1.14169

>  <SCORE.INTRA.norm>
-0.314488

>  <SCORE.RESTR>
0

>  <SCORE.RESTR.CAVITY>
0

>  <SCORE.RESTR.norm>
0

>  <SCORE.SYSTEM>
0

>  <SCORE.SYSTEM.CONST>
0

>  <SCORE.SYSTEM.DIHEDRAL>
0

>  <SCORE.SYSTEM.SOLV>
0

>  <SCORE.SYSTEM.norm>
0

>  <SCORE.heavy>
12

>  <SCORE.norm>
-1.11343

>  <RMSD>
48.265

$$$$
ligand
 OpenBabel11021811493D
libRbt.so/2013.1/901 2013/11/27
 12 12  0  0  0  0  0  0  0  0999 V2000
   12.5003   12.2647   36.6992 N   0  0  0  0  0  0  0  0  0  0  0  0
   15.1778   10.3709   36.0947 O   0  0  0  0  0  0  0  0  0  0  0  0
   11.4322   13.0981   37.3036 C   0  0  0  0  0  0  0  0  0  0  0  0
   15.8328   10.4079   33.8272 O   0  0  0  0  0  0  0  0  0  0  0  0
   10.7173   12.2678   38.3646 C   0  0  0  0  0  0  0  0  0  0  0  0
   16.6528   12.1597   35.3416 O   0  0  0  0  0  0  0  0  0  0  0  0
   11.6527   11.9424   39.4454 N   0  0  0  0  0  0  0  0  0  0  0  0
   12.9648   12.4891   39.0907 C   0  0  0  0  0  0  0  0  0  0  0  0
   13.3847   11.8188   37.7937 C   0  0  0  0  0  0  0  0  0  0  0  0
   13.2968   12.9174   35.5853 C   0  0  0  0  0  0  0  0  0  0  0  0
   13.9500   11.9662   34.5486 C   0  0  0  0  0  0  0  0  0  0  0  0
   15.4055   11.2021   34.9496 S   0  0  0  0  0  0  0  0  0  0  0  0
  1  3  1  0  0  0  0
  1  9  1  0  0  0  0
  1 10  1  0  0  0  0
  2 12  1  0  0  0  0
  3  5  1  0  0  0  0
  4 12  2  0  0  0  0
  5  7  1  0  0  0  0
  6 12  2  0  0  0  0
  7  8  1  0  0  0  0
  8  9  1  0  0  0  0
 10 11  1  0  0  0  0
 11 12  1  0  0  0  0
M  END
>  <CHROM.1>
-154.24241400,-80.30465377,61.55673098,13.82317124,11.81380975,36.38694183
2.46977101,-0.42739412,1.72900296

>  <Name>
ligand

>  <RI>
0

>  <Rbt.Current_Directory>
/home/itssahil/PROJECTS/Mol_Feturizer/New_Systems/rnas/4E8N

>  <Rbt.Executable>
rbdock ($Id: //depot/dev/client3/rdock/2013.1/src/exe/rbdock.cxx#4 $)

>  <Rbt.Library>
libRbt.so (2013.1, Build901 2013/11/27)

>  <Rbt.Parameter_File>
/export/apps/rDock/src/rDock_2013.1_src/data/scripts/dock_solv.prm

>  <Rbt.Receptor>
prm/blind_docking_60.prm

>  <SCORE>
-13.069

>  <SCORE.INTER>
-9.75543

>  <SCORE.INTER.CONST>
1

>  <SCORE.INTER.POLAR>
0

>  <SCORE.INTER.ROT>
3

>  <SCORE.INTER.SOLV>
7.10415

>  <SCORE.INTER.VDW>
-14.4717

>  <SCORE.INTER.norm>
-0.812952

>  <SCORE.INTRA>
-3.31362

>  <SCORE.INTRA.DIHEDRAL>
-2.74216

>  <SCORE.INTRA.DIHEDRAL.0>
5.0186

>  <SCORE.INTRA.POLAR>
0

>  <SCORE.INTRA.POLAR.0>
0

>  <SCORE.INTRA.REPUL>
0

>  <SCORE.INTRA.REPUL.0>
0

>  <SCORE.INTRA.SOLV>
-0.0326655

>  <SCORE.INTRA.SOLV.lig_0>
-16.1608

>  <SCORE.INTRA.VDW>
-1.92621

>  <SCORE.INTRA.VDW.0>
1.14169

>  <SCORE.INTRA.norm>
-0.276135

>  <SCORE.RESTR>
0

>  <SCORE.RESTR.CAVITY>
0

>  <SCORE.RESTR.norm>
0

>  <SCORE.SYSTEM>
0

>  <SCORE.SYSTEM.CONST>
0

>  <SCORE.SYSTEM.DIHEDRAL>
0

>  <SCORE.SYSTEM.SOLV>
0

>  <SCORE.SYSTEM.norm>
0

>  <SCORE.heavy>
12

>  <SCORE.norm>
-1.08909

>  <RMSD>
48.408

$$$$
ligand
 OpenBabel11021811493D
libRbt.so/2013.1/901 2013/11/27
 12 12  0  0  0  0  0  0  0  0999 V2000
   12.6601   13.0437   36.6336 N   0  0  0  0  0  0  0  0  0  0  0  0
   14.5133   10.3178   34.1538 O   0  0  0  0  0  0  0  0  0  0  0  0
   12.9672   11.8823   37.5041 C   0  0  0  0  0  0  0  0  0  0  0  0
   16.3597   11.7818   34.0143 O   0  0  0  0  0  0  0  0  0  0  0  0
   12.9469   12.3509   38.9554 C   0  0  0  0  0  0  0  0  0  0  0  0
   15.4997   11.1427   36.2249 O   0  0  0  0  0  0  0  0  0  0  0  0
   11.5942   12.7905   39.3101 N   0  0  0  0  0  0  0  0  0  0  0  0
   10.7510   12.6730   38.1179 C   0  0  0  0  0  0  0  0  0  0  0  0
   11.3540   13.5825   37.0611 C   0  0  0  0  0  0  0  0  0  0  0  0
   12.6770   12.7733   35.1410 C   0  0  0  0  0  0  0  0  0  0  0  0
   14.0634   12.7989   34.4458 C   0  0  0  0  0  0  0  0  0  0  0  0
   15.1201   11.5001   34.6905 S   0  0  0  0  0  0  0  0  0  0  0  0
  1  3  1  0  0  0  0
  1  9  1  0  0  0  0
  1 10  1  0  0  0  0
  2 12  1  0  0  0  0
  3  5  1  0  0  0  0
  4 12  2  0  0  0  0
  5  7  1  0  0  0  0
  6 12  2  0  0  0  0
  7  8  1  0  0  0  0
  8  9  1  0  0  0  0
 10 11  1  0  0  0  0
 11 12  1  0  0  0  0
M  END
>  <CHROM.1>
-82.55861587,74.16939636,63.19139083,13.60356029,12.11706542,36.15002336
2.45457383,-0.52325313,1.76346225

>  <Name>
ligand

>  <RI>
0

>  <Rbt.Current_Directory>
/home/itssahil/PROJECTS/Mol_Feturizer/New_Systems/rnas/4E8N

>  <Rbt.Executable>
rbdock ($Id: //depot/dev/client3/rdock/2013.1/src/exe/rbdock.cxx#4 $)

>  <Rbt.Library>
libRbt.so (2013.1, Build901 2013/11/27)

>  <Rbt.Parameter_File>
/export/apps/rDock/src/rDock_2013.1_src/data/scripts/dock_solv.prm

>  <Rbt.Receptor>
prm/blind_docking_80.prm

>  <SCORE>
-15.0242

>  <SCORE.INTER>
-11.3566

>  <SCORE.INTER.CONST>
1

>  <SCORE.INTER.POLAR>
0

>  <SCORE.INTER.ROT>
3

>  <SCORE.INTER.SOLV>
6.12787

>  <SCORE.INTER.VDW>
-15.2137

>  <SCORE.INTER.norm>
-0.946385

>  <SCORE.INTRA>
-3.66757

>  <SCORE.INTRA.DIHEDRAL>
-3.43417

>  <SCORE.INTRA.DIHEDRAL.0>
5.0186

>  <SCORE.INTRA.POLAR>
0

>  <SCORE.INTRA.POLAR.0>
0

>  <SCORE.INTRA.REPUL>
0

>  <SCORE.INTRA.REPUL.0>
0

>  <SCORE.INTRA.SOLV>
0.51955

>  <SCORE.INTRA.SOLV.lig_0>
-16.1608

>  <SCORE.INTRA.VDW>
-2.21026

>  <SCORE.INTRA.VDW.0>
1.14169

>  <SCORE.INTRA.norm>
-0.305631

>  <SCORE.RESTR>
0

>  <SCORE.RESTR.CAVITY>
0

>  <SCORE.RESTR.norm>
0

>  <SCORE.SYSTEM>
0

>  <SCORE.SYSTEM.CONST>
0

>  <SCORE.SYSTEM.DIHEDRAL>
0

>  <SCORE.SYSTEM.SOLV>
0

>  <SCORE.SYSTEM.norm>
0

>  <SCORE.heavy>
12

>  <SCORE.norm>
-1.25202

>  <RMSD>
48.546

$$$$
ligand
 OpenBabel11021811493D
libRbt.so/2013.1/901 2013/11/27
 12 12  0  0  0  0  0  0  0  0999 V2000
    9.9961   16.8100   27.3065 N   0  0  0  0  0  0  0  0  0  0  0  0
   12.8347   20.4553   27.5643 O   0  0  0  0  0  0  0  0  0  0  0  0
   10.4619   15.8268   26.2979 C   0  0  0  0  0  0  0  0  0  0  0  0
   11.7782   20.2064   29.6604 O   0  0  0  0  0  0  0  0  0  0  0  0
    9.6063   14.5703   26.4207 C   0  0  0  0  0  0  0  0  0  0  0  0
   14.1452   19.5912   29.4294 O   0  0  0  0  0  0  0  0  0  0  0  0
    8.2162   14.8881   26.0807 N   0  0  0  0  0  0  0  0  0  0  0  0
    8.1349   16.3227   25.7952 C   0  0  0  0  0  0  0  0  0  0  0  0
    8.5602   17.0479   27.0605 C   0  0  0  0  0  0  0  0  0  0  0  0
   10.7648   18.1167   27.3595 C   0  0  0  0  0  0  0  0  0  0  0  0
   12.0592   18.1273   28.2140 C   0  0  0  0  0  0  0  0  0  0  0  0
   12.6902   19.6149   28.7162 S   0  0  0  0  0  0  0  0  0  0  0  0
  1  3  1  0  0  0  0
  1  9  1  0  0  0  0
  1 10  1  0  0  0  0
  2 12  1  0  0  0  0
  3  5  1  0  0  0  0
  4 12  2  0  0  0  0
  5  7  1  0  0  0  0
  6 12  2  0  0  0  0
  7  8  1  0  0  0  0
  8  9  1  0  0  0  0
 10 11  1  0  0  0  0
 11 12  1  0  0  0  0
M  END
>  <CHROM.1>
-84.42912323,-161.00053088,-52.57628623,11.01723140,17.89341116,27.64995534
-2.28353399,-0.25515536,0.32878164

>  <Name>
ligand

>  <RI>
0

>  <Rbt.Current_Directory>
/home/itssahil/PROJECTS/Mol_Feturizer/New_Systems/rnas/4E8N

>  <Rbt.Executable>
rbdock ($Id: //depot/dev/client3/rdock/2013.1/src/exe/rbdock.cxx#4 $)

>  <Rbt.Library>
libRbt.so (2013.1, Build901 2013/11/27)

>  <Rbt.Parameter_File>
/export/apps/rDock/src/rDock_2013.1_src/data/scripts/dock_solv.prm

>  <Rbt.Receptor>
prm/blind_docking_80.prm

>  <SCORE>
-14.8143

>  <SCORE.INTER>
-11.6779

>  <SCORE.INTER.CONST>
1

>  <SCORE.INTER.POLAR>
0

>  <SCORE.INTER.ROT>
3

>  <SCORE.INTER.SOLV>
10.3204

>  <SCORE.INTER.VDW>
-16.8254

>  <SCORE.INTER.norm>
-0.973162

>  <SCORE.INTRA>
-3.13635

>  <SCORE.INTRA.DIHEDRAL>
-2.67546

>  <SCORE.INTRA.DIHEDRAL.0>
5.0186

>  <SCORE.INTRA.POLAR>
0

>  <SCORE.INTRA.POLAR.0>
0

>  <SCORE.INTRA.REPUL>
0

>  <SCORE.INTRA.REPUL.0>
0

>  <SCORE.INTRA.SOLV>
-0.124945

>  <SCORE.INTRA.SOLV.lig_0>
-16.1608

>  <SCORE.INTRA.VDW>
-1.73615

>  <SCORE.INTRA.VDW.0>
1.14169

>  <SCORE.INTRA.norm>
-0.261363

>  <SCORE.RESTR>
0

>  <SCORE.RESTR.CAVITY>
0

>  <SCORE.RESTR.norm>
0

>  <SCORE.SYSTEM>
0

>  <SCORE.SYSTEM.CONST>
0

>  <SCORE.SYSTEM.DIHEDRAL>
0

>  <SCORE.SYSTEM.SOLV>
0

>  <SCORE.SYSTEM.norm>
0

>  <SCORE.heavy>
12

>  <SCORE.norm>
-1.23453

>  <RMSD>
48.571

$$$$
ligand
 OpenBabel11021811493D
libRbt.so/2013.1/901 2013/11/27
 12 12  0  0  0  0  0  0  0  0999 V2000
   13.7806   11.7586   35.5346 N   0  0  0  0  0  0  0  0  0  0  0  0
   10.7097   15.0906   36.5303 O   0  0  0  0  0  0  0  0  0  0  0  0
   14.3938   10.9576   36.6224 C   0  0  0  0  0  0  0  0  0  0  0  0
    9.8862   13.7314   38.2757 O   0  0  0  0  0  0  0  0  0  0  0  0
   15.0433    9.7241   36.0035 C   0  0  0  0  0  0  0  0  0  0  0  0
   11.9661   14.9933   38.6171 O   0  0  0  0  0  0  0  0  0  0  0  0
   16.1395   10.1369   35.1221 N   0  0  0  0  0  0  0  0  0  0  0  0
   16.1846   11.6012   35.1082 C   0  0  0  0  0  0  0  0  0  0  0  0
   14.8478   12.0774   34.5659 C   0  0  0  0  0  0  0  0  0  0  0  0
   13.0468   13.0125   35.9706 C   0  0  0  0  0  0  0  0  0  0  0  0
   11.7775   12.8085   36.8387 C   0  0  0  0  0  0  0  0  0  0  0  0
   11.0611   14.1601   37.5621 S   0  0  0  0  0  0  0  0  0  0  0  0
  1  3  1  0  0  0  0
  1  9  1  0  0  0  0
  1 10  1  0  0  0  0
  2 12  1  0  0  0  0
  3  5  1  0  0  0  0
  4 12  2  0  0  0  0
  5  7  1  0  0  0  0
  6 12  2  0  0  0  0
  7  8  1  0  0  0  0
  8  9  1  0  0  0  0
 10 11  1  0  0  0  0
 11 12  1  0  0  0  0
M  END
>  <CHROM.1>
-65.14737249,170.24006591,58.18024359,12.95864988,12.72467128,36.54902194
-0.31875911,0.69329374,-0.51541625

>  <Name>
ligand

>  <RI>
0

>  <Rbt.Current_Directory>
/home/itssahil/PROJECTS/Mol_Feturizer/New_Systems/rnas/4E8N

>  <Rbt.Executable>
rbdock ($Id: //depot/dev/client3/rdock/2013.1/src/exe/rbdock.cxx#4 $)

>  <Rbt.Library>
libRbt.so (2013.1, Build901 2013/11/27)

>  <Rbt.Parameter_File>
/export/apps/rDock/src/rDock_2013.1_src/data/scripts/dock_solv.prm

>  <Rbt.Receptor>
prm/blind_docking_100.prm

>  <SCORE>
-13.1234

>  <SCORE.INTER>
-9.19677

>  <SCORE.INTER.CONST>
1

>  <SCORE.INTER.POLAR>
0

>  <SCORE.INTER.ROT>
3

>  <SCORE.INTER.SOLV>
6.95876

>  <SCORE.INTER.VDW>
-14.0508

>  <SCORE.INTER.norm>
-0.766397

>  <SCORE.INTRA>
-3.92664

>  <SCORE.INTRA.DIHEDRAL>
-4.58608

>  <SCORE.INTRA.DIHEDRAL.0>
5.0186

>  <SCORE.INTRA.POLAR>
0

>  <SCORE.INTRA.POLAR.0>
0

>  <SCORE.INTRA.REPUL>
0

>  <SCORE.INTRA.REPUL.0>
0

>  <SCORE.INTRA.SOLV>
-0.107264

>  <SCORE.INTRA.SOLV.lig_0>
-16.1608

>  <SCORE.INTRA.VDW>
-1.57997

>  <SCORE.INTRA.VDW.0>
1.14169

>  <SCORE.INTRA.norm>
-0.32722

>  <SCORE.RESTR>
0

>  <SCORE.RESTR.CAVITY>
0

>  <SCORE.RESTR.norm>
0

>  <SCORE.SYSTEM>
0

>  <SCORE.SYSTEM.CONST>
0

>  <SCORE.SYSTEM.DIHEDRAL>
0

>  <SCORE.SYSTEM.SOLV>
0

>  <SCORE.SYSTEM.norm>
0

>  <SCORE.heavy>
12

>  <SCORE.norm>
-1.09362

>  <RMSD>
48.613

$$$$
ligand
 OpenBabel11021811493D
libRbt.so/2013.1/901 2013/11/27
 12 12  0  0  0  0  0  0  0  0999 V2000
   12.7279   12.7064   37.7683 N   0  0  0  0  0  0  0  0  0  0  0  0
   16.4000   10.2695   36.3372 O   0  0  0  0  0  0  0  0  0  0  0  0
   11.6579   13.3713   38.5518 C   0  0  0  0  0  0  0  0  0  0  0  0
   14.2373   10.0073   35.4284 O   0  0  0  0  0  0  0  0  0  0  0  0
   11.5729   14.8284   38.1091 C   0  0  0  0  0  0  0  0  0  0  0  0
   15.1908   12.2627   35.6247 O   0  0  0  0  0  0  0  0  0  0  0  0
   11.1597   14.8909   36.7039 N   0  0  0  0  0  0  0  0  0  0  0  0
   11.0280   13.5189   36.2076 C   0  0  0  0  0  0  0  0  0  0  0  0
   12.3954   12.8702   36.3395 C   0  0  0  0  0  0  0  0  0  0  0  0
   12.9857   11.2500   38.1054 C   0  0  0  0  0  0  0  0  0  0  0  0
   14.4257   10.7257   37.8661 C   0  0  0  0  0  0  0  0  0  0  0  0
   15.0673   10.7956   36.3018 S   0  0  0  0  0  0  0  0  0  0  0  0
  1  3  1  0  0  0  0
  1  9  1  0  0  0  0
  1 10  1  0  0  0  0
  2 12  1  0  0  0  0
  3  5  1  0  0  0  0
  4 12  2  0  0  0  0
  5  7  1  0  0  0  0
  6 12  2  0  0  0  0
  7  8  1  0  0  0  0
  8  9  1  0  0  0  0
 10 11  1  0  0  0  0
 11 12  1  0  0  0  0
M  END
>  <CHROM.1>
-151.53522556,-59.66022241,179.51368974,13.47209437,12.10629407,36.84952889
3.11278009,0.76284303,-1.20946124

>  <Name>
ligand

>  <RI>
0

>  <Rbt.Current_Directory>
/home/itssahil/PROJECTS/Mol_Feturizer/New_Systems/rnas/4E8N

>  <Rbt.Executable>
rbdock ($Id: //depot/dev/client3/rdock/2013.1/src/exe/rbdock.cxx#4 $)

>  <Rbt.Library>
libRbt.so (2013.1, Build901 2013/11/27)

>  <Rbt.Parameter_File>
/export/apps/rDock/src/rDock_2013.1_src/data/scripts/dock_solv.prm

>  <Rbt.Receptor>
prm/blind_docking_60.prm

>  <SCORE>
-11.2298

>  <SCORE.INTER>
-7.46644

>  <SCORE.INTER.CONST>
1

>  <SCORE.INTER.POLAR>
0

>  <SCORE.INTER.ROT>
3

>  <SCORE.INTER.SOLV>
7.89081

>  <SCORE.INTER.VDW>
-13.2079

>  <SCORE.INTER.norm>
-0.622203

>  <SCORE.INTRA>
-3.76366

>  <SCORE.INTRA.DIHEDRAL>
-4.00283

>  <SCORE.INTRA.DIHEDRAL.0>
5.0186

>  <SCORE.INTRA.POLAR>
0

>  <SCORE.INTRA.POLAR.0>
0

>  <SCORE.INTRA.REPUL>
0

>  <SCORE.INTRA.REPUL.0>
0

>  <SCORE.INTRA.SOLV>
0.979878

>  <SCORE.INTRA.SOLV.lig_0>
-16.1608

>  <SCORE.INTRA.VDW>
-2.25219

>  <SCORE.INTRA.VDW.0>
1.14169

>  <SCORE.INTRA.norm>
-0.313639

>  <SCORE.RESTR>
0.000255243

>  <SCORE.RESTR.CAVITY>
0.000255243

>  <SCORE.RESTR.norm>
2.12702e-05

>  <SCORE.SYSTEM>
0

>  <SCORE.SYSTEM.CONST>
0

>  <SCORE.SYSTEM.DIHEDRAL>
0

>  <SCORE.SYSTEM.SOLV>
0

>  <SCORE.SYSTEM.norm>
0

>  <SCORE.heavy>
12

>  <SCORE.norm>
-0.935821

>  <RMSD>
48.973

$$$$
ligand
 OpenBabel11021811493D
libRbt.so/2013.1/901 2013/11/27
 12 12  0  0  0  0  0  0  0  0999 V2000
   10.2840   17.9064   26.6140 N   0  0  0  0  0  0  0  0  0  0  0  0
   13.5030   20.1790   28.9762 O   0  0  0  0  0  0  0  0  0  0  0  0
    9.0096   17.8250   27.3692 C   0  0  0  0  0  0  0  0  0  0  0  0
   11.4135   20.6291   29.9777 O   0  0  0  0  0  0  0  0  0  0  0  0
    8.0159   17.0095   26.5486 C   0  0  0  0  0  0  0  0  0  0  0  0
   13.0080   19.1624   31.1358 O   0  0  0  0  0  0  0  0  0  0  0  0
    8.5058   15.6347   26.4097 N   0  0  0  0  0  0  0  0  0  0  0  0
    9.8118   15.5492   27.0679 C   0  0  0  0  0  0  0  0  0  0  0  0
   10.7303   16.5242   26.3512 C   0  0  0  0  0  0  0  0  0  0  0  0
   11.3859   18.7218   27.2636 C   0  0  0  0  0  0  0  0  0  0  0  0
   11.6940   18.4126   28.7520 C   0  0  0  0  0  0  0  0  0  0  0  0
   12.4025   19.6191   29.7037 S   0  0  0  0  0  0  0  0  0  0  0  0
  1  3  1  0  0  0  0
  1  9  1  0  0  0  0
  1 10  1  0  0  0  0
  2 12  1  0  0  0  0
  3  5  1  0  0  0  0
  4 12  2  0  0  0  0
  5  7  1  0  0  0  0
  6 12  2  0  0  0  0
  7  8  1  0  0  0  0
  8  9  1  0  0  0  0
 10 11  1  0  0  0  0
 11 12  1  0  0  0  0
M  END
>  <CHROM.1>
49.37934995,-155.41440661,-47.37071978,11.01930123,18.29899981,28.23500028
-2.22679851,-0.21263905,0.62123881

>  <Name>
ligand

>  <RI>
0

>  <Rbt.Current_Directory>
/home/itssahil/PROJECTS/Mol_Feturizer/New_Systems/rnas/4E8N

>  <Rbt.Executable>
rbdock ($Id: //depot/dev/client3/rdock/2013.1/src/exe/rbdock.cxx#4 $)

>  <Rbt.Library>
libRbt.so (2013.1, Build901 2013/11/27)

>  <Rbt.Parameter_File>
/export/apps/rDock/src/rDock_2013.1_src/data/scripts/dock_solv.prm

>  <Rbt.Receptor>
prm/blind_docking_100.prm

>  <SCORE>
-12.9198

>  <SCORE.INTER>
-10.6746

>  <SCORE.INTER.CONST>
1

>  <SCORE.INTER.POLAR>
0

>  <SCORE.INTER.ROT>
3

>  <SCORE.INTER.SOLV>
9.73334

>  <SCORE.INTER.VDW>
-15.9609

>  <SCORE.INTER.norm>
-0.889551

>  <SCORE.INTRA>
-2.24518

>  <SCORE.INTRA.DIHEDRAL>
-2.40226

>  <SCORE.INTRA.DIHEDRAL.0>
5.0186

>  <SCORE.INTRA.POLAR>
0

>  <SCORE.INTRA.POLAR.0>
0

>  <SCORE.INTRA.REPUL>
0

>  <SCORE.INTRA.REPUL.0>
0

>  <SCORE.INTRA.SOLV>
-0.102093

>  <SCORE.INTRA.SOLV.lig_0>
-16.1608

>  <SCORE.INTRA.VDW>
-0.993004

>  <SCORE.INTRA.VDW.0>
1.14169

>  <SCORE.INTRA.norm>
-0.187099

>  <SCORE.RESTR>
0

>  <SCORE.RESTR.CAVITY>
0

>  <SCORE.RESTR.norm>
0

>  <SCORE.SYSTEM>
0

>  <SCORE.SYSTEM.CONST>
0

>  <SCORE.SYSTEM.DIHEDRAL>
0

>  <SCORE.SYSTEM.SOLV>
0

>  <SCORE.SYSTEM.norm>
0

>  <SCORE.heavy>
12

>  <SCORE.norm>
-1.07665

>  <RMSD>
49.138

$$$$
ligand
 OpenBabel11021811493D
libRbt.so/2013.1/901 2013/11/27
 12 12  0  0  0  0  0  0  0  0999 V2000
   12.7582   11.7424   38.6176 N   0  0  0  0  0  0  0  0  0  0  0  0
   13.4331   10.7465   34.1959 O   0  0  0  0  0  0  0  0  0  0  0  0
   12.6501   13.1180   39.1627 C   0  0  0  0  0  0  0  0  0  0  0  0
   13.2024   13.0295   33.6424 O   0  0  0  0  0  0  0  0  0  0  0  0
   11.7856   13.0708   40.4183 C   0  0  0  0  0  0  0  0  0  0  0  0
   15.3525   12.2164   34.5089 O   0  0  0  0  0  0  0  0  0  0  0  0
   12.4556   12.2677   41.4455 N   0  0  0  0  0  0  0  0  0  0  0  0
   13.7010   11.7480   40.8752 C   0  0  0  0  0  0  0  0  0  0  0  0
   13.3142   10.8873   39.6847 C   0  0  0  0  0  0  0  0  0  0  0  0
   13.5544   11.6011   37.3342 C   0  0  0  0  0  0  0  0  0  0  0  0
   13.0250   12.3758   36.0991 C   0  0  0  0  0  0  0  0  0  0  0  0
   13.7391   12.0894   34.5919 S   0  0  0  0  0  0  0  0  0  0  0  0
  1  3  1  0  0  0  0
  1  9  1  0  0  0  0
  1 10  1  0  0  0  0
  2 12  1  0  0  0  0
  3  5  1  0  0  0  0
  4 12  2  0  0  0  0
  5  7  1  0  0  0  0
  6 12  2  0  0  0  0
  7  8  1  0  0  0  0
  8  9  1  0  0  0  0
 10 11  1  0  0  0  0
 11 12  1  0  0  0  0
M  END
>  <CHROM.1>
-60.97497422,-171.55416025,66.91709800,13.31687381,12.07346361,37.16454292
-1.85359795,0.87853883,-1.36734359

>  <Name>
ligand

>  <RI>
0

>  <Rbt.Current_Directory>
/home/itssahil/PROJECTS/Mol_Feturizer/New_Systems/rnas/4E8N

>  <Rbt.Executable>
rbdock ($Id: //depot/dev/client3/rdock/2013.1/src/exe/rbdock.cxx#4 $)

>  <Rbt.Library>
libRbt.so (2013.1, Build901 2013/11/27)

>  <Rbt.Parameter_File>
/export/apps/rDock/src/rDock_2013.1_src/data/scripts/dock_solv.prm

>  <Rbt.Receptor>
prm/blind_docking_100.prm

>  <SCORE>
-13.5278

>  <SCORE.INTER>
-9.65686

>  <SCORE.INTER.CONST>
1

>  <SCORE.INTER.POLAR>
0

>  <SCORE.INTER.ROT>
3

>  <SCORE.INTER.SOLV>
6.94881

>  <SCORE.INTER.VDW>
-14.3542

>  <SCORE.INTER.norm>
-0.804739

>  <SCORE.INTRA>
-3.8709

>  <SCORE.INTRA.DIHEDRAL>
-4.61454

>  <SCORE.INTRA.DIHEDRAL.0>
5.0186

>  <SCORE.INTRA.POLAR>
0

>  <SCORE.INTRA.POLAR.0>
0

>  <SCORE.INTRA.REPUL>
0

>  <SCORE.INTRA.REPUL.0>
0

>  <SCORE.INTRA.SOLV>
-0.0910698

>  <SCORE.INTRA.SOLV.lig_0>
-16.1608

>  <SCORE.INTRA.VDW>
-1.5181

>  <SCORE.INTRA.VDW.0>
1.14169

>  <SCORE.INTRA.norm>
-0.322575

>  <SCORE.RESTR>
0

>  <SCORE.RESTR.CAVITY>
0

>  <SCORE.RESTR.norm>
0

>  <SCORE.SYSTEM>
0

>  <SCORE.SYSTEM.CONST>
0

>  <SCORE.SYSTEM.DIHEDRAL>
0

>  <SCORE.SYSTEM.SOLV>
0

>  <SCORE.SYSTEM.norm>
0

>  <SCORE.heavy>
12

>  <SCORE.norm>
-1.12731

>  <RMSD>
49.296

$$$$
ligand
 OpenBabel11021811493D
libRbt.so/2013.1/901 2013/11/27
 12 12  0  0  0  0  0  0  0  0999 V2000
    8.9545   18.3721   25.1398 N   0  0  0  0  0  0  0  0  0  0  0  0
   12.6014   17.5152   27.9948 O   0  0  0  0  0  0  0  0  0  0  0  0
    8.5608   19.7809   24.8925 C   0  0  0  0  0  0  0  0  0  0  0  0
   12.8694   19.8568   28.1237 O   0  0  0  0  0  0  0  0  0  0  0  0
    7.8178   19.8458   23.5622 C   0  0  0  0  0  0  0  0  0  0  0  0
   11.0753   18.7819   29.4123 O   0  0  0  0  0  0  0  0  0  0  0  0
    6.5734   19.0766   23.6572 N   0  0  0  0  0  0  0  0  0  0  0  0
    6.5146   18.4705   24.9896 C   0  0  0  0  0  0  0  0  0  0  0  0
    7.7233   17.5583   25.1118 C   0  0  0  0  0  0  0  0  0  0  0  0
    9.7464   18.1205   26.4090 C   0  0  0  0  0  0  0  0  0  0  0  0
   11.0444   18.9493   26.5940 C   0  0  0  0  0  0  0  0  0  0  0  0
   11.9220   18.7766   28.0305 S   0  0  0  0  0  0  0  0  0  0  0  0
  1  3  1  0  0  0  0
  1  9  1  0  0  0  0
  1 10  1  0  0  0  0
  2 12  1  0  0  0  0
  3  5  1  0  0  0  0
  4 12  2  0  0  0  0
  5  7  1  0  0  0  0
  6 12  2  0  0  0  0
  7  8  1  0  0  0  0
  8  9  1  0  0  0  0
 10 11  1  0  0  0  0
 11 12  1  0  0  0  0
M  END
>  <CHROM.1>
-55.09126518,176.53602473,74.11918520,9.91252730,18.75914411,26.40800977
2.68363369,-0.53415880,-0.73330139

>  <Name>
ligand

>  <RI>
0

>  <Rbt.Current_Directory>
/home/itssahil/PROJECTS/Mol_Feturizer/New_Systems/rnas/4E8N

>  <Rbt.Executable>
rbdock ($Id: //depot/dev/client3/rdock/2013.1/src/exe/rbdock.cxx#4 $)

>  <Rbt.Library>
libRbt.so (2013.1, Build901 2013/11/27)

>  <Rbt.Parameter_File>
/export/apps/rDock/src/rDock_2013.1_src/data/scripts/dock_solv.prm

>  <Rbt.Receptor>
prm/blind_docking_40.prm

>  <SCORE>
-15.8961

>  <SCORE.INTER>
-12.2447

>  <SCORE.INTER.CONST>
1

>  <SCORE.INTER.POLAR>
0

>  <SCORE.INTER.ROT>
3

>  <SCORE.INTER.SOLV>
8.70777

>  <SCORE.INTER.VDW>
-16.6657

>  <SCORE.INTER.norm>
-1.02039

>  <SCORE.INTRA>
-3.65141

>  <SCORE.INTRA.DIHEDRAL>
-4.46371

>  <SCORE.INTRA.DIHEDRAL.0>
5.0186

>  <SCORE.INTRA.POLAR>
0

>  <SCORE.INTRA.POLAR.0>
0

>  <SCORE.INTRA.REPUL>
0

>  <SCORE.INTRA.REPUL.0>
0

>  <SCORE.INTRA.SOLV>
-0.0725102

>  <SCORE.INTRA.SOLV.lig_0>
-16.1608

>  <SCORE.INTRA.VDW>
-1.3833

>  <SCORE.INTRA.VDW.0>
1.14169

>  <SCORE.INTRA.norm>
-0.304284

>  <SCORE.RESTR>
0

>  <SCORE.RESTR.CAVITY>
0

>  <SCORE.RESTR.norm>
0

>  <SCORE.SYSTEM>
0

>  <SCORE.SYSTEM.CONST>
0

>  <SCORE.SYSTEM.DIHEDRAL>
0

>  <SCORE.SYSTEM.SOLV>
0

>  <SCORE.SYSTEM.norm>
0

>  <SCORE.heavy>
12

>  <SCORE.norm>
-1.32468

>  <RMSD>
49.393

$$$$
ligand
 OpenBabel11021811493D
libRbt.so/2013.1/901 2013/11/27
 12 12  0  0  0  0  0  0  0  0999 V2000
   11.6204   12.6881   37.9750 N   0  0  0  0  0  0  0  0  0  0  0  0
   15.5760   12.2153   34.7159 O   0  0  0  0  0  0  0  0  0  0  0  0
   11.7190   11.3733   38.6551 C   0  0  0  0  0  0  0  0  0  0  0  0
   13.5275   11.2953   33.9887 O   0  0  0  0  0  0  0  0  0  0  0  0
   11.2507   11.5416   40.0968 C   0  0  0  0  0  0  0  0  0  0  0  0
   13.8912   13.7170   33.7944 O   0  0  0  0  0  0  0  0  0  0  0  0
    9.8325   11.9126   40.1119 N   0  0  0  0  0  0  0  0  0  0  0  0
    9.3823   12.0434   38.7240 C   0  0  0  0  0  0  0  0  0  0  0  0
   10.2203   13.1413   38.0913 C   0  0  0  0  0  0  0  0  0  0  0  0
   12.0872   12.7223   36.5321 C   0  0  0  0  0  0  0  0  0  0  0  0
   13.5856   12.4111   36.2789 C   0  0  0  0  0  0  0  0  0  0  0  0
   14.1537   12.3888   34.6852 S   0  0  0  0  0  0  0  0  0  0  0  0
  1  3  1  0  0  0  0
  1  9  1  0  0  0  0
  1 10  1  0  0  0  0
  2 12  1  0  0  0  0
  3  5  1  0  0  0  0
  4 12  2  0  0  0  0
  5  7  1  0  0  0  0
  6 12  2  0  0  0  0
  7  8  1  0  0  0  0
  8  9  1  0  0  0  0
 10 11  1  0  0  0  0
 11 12  1  0  0  0  0
M  END
>  <CHROM.1>
-63.24729661,178.19183475,174.27565126,12.48178179,12.30075975,36.66958738
2.33217694,-0.42225890,2.02638209

>  <Name>
ligand

>  <RI>
0

>  <Rbt.Current_Directory>
/home/itssahil/PROJECTS/Mol_Feturizer/New_Systems/rnas/4E8N

>  <Rbt.Executable>
rbdock ($Id: //depot/dev/client3/rdock/2013.1/src/exe/rbdock.cxx#4 $)

>  <Rbt.Library>
libRbt.so (2013.1, Build901 2013/11/27)

>  <Rbt.Parameter_File>
/export/apps/rDock/src/rDock_2013.1_src/data/scripts/dock_solv.prm

>  <Rbt.Receptor>
prm/blind_docking_80.prm

>  <SCORE>
-13.9181

>  <SCORE.INTER>
-9.9404

>  <SCORE.INTER.CONST>
1

>  <SCORE.INTER.POLAR>
0

>  <SCORE.INTER.ROT>
3

>  <SCORE.INTER.SOLV>
6.70319

>  <SCORE.INTER.VDW>
-14.4613

>  <SCORE.INTER.norm>
-0.828366

>  <SCORE.INTRA>
-3.97775

>  <SCORE.INTRA.DIHEDRAL>
-4.89365

>  <SCORE.INTRA.DIHEDRAL.0>
5.0186

>  <SCORE.INTRA.POLAR>
0

>  <SCORE.INTRA.POLAR.0>
0

>  <SCORE.INTRA.REPUL>
0

>  <SCORE.INTRA.REPUL.0>
0

>  <SCORE.INTRA.SOLV>
0.0732821

>  <SCORE.INTRA.SOLV.lig_0>
-16.1608

>  <SCORE.INTRA.VDW>
-1.56756

>  <SCORE.INTRA.VDW.0>
1.14169

>  <SCORE.INTRA.norm>
-0.331479

>  <SCORE.RESTR>
0

>  <SCORE.RESTR.CAVITY>
0

>  <SCORE.RESTR.norm>
0

>  <SCORE.SYSTEM>
0

>  <SCORE.SYSTEM.CONST>
0

>  <SCORE.SYSTEM.DIHEDRAL>
0

>  <SCORE.SYSTEM.SOLV>
0

>  <SCORE.SYSTEM.norm>
0

>  <SCORE.heavy>
12

>  <SCORE.norm>
-1.15985

>  <RMSD>
49.410

$$$$
ligand
 OpenBabel11021811493D
libRbt.so/2013.1/901 2013/11/27
 12 12  0  0  0  0  0  0  0  0999 V2000
   10.1776   18.7159   25.5843 N   0  0  0  0  0  0  0  0  0  0  0  0
   12.7137   21.3509   22.5093 O   0  0  0  0  0  0  0  0  0  0  0  0
    8.7101   18.9328   25.6016 C   0  0  0  0  0  0  0  0  0  0  0  0
   11.9162   23.1457   23.8186 O   0  0  0  0  0  0  0  0  0  0  0  0
    8.0230   17.5712   25.5910 C   0  0  0  0  0  0  0  0  0  0  0  0
   13.6115   21.6362   24.7577 O   0  0  0  0  0  0  0  0  0  0  0  0
    8.3509   16.8465   26.8224 N   0  0  0  0  0  0  0  0  0  0  0  0
    9.2730   17.6737   27.6045 C   0  0  0  0  0  0  0  0  0  0  0  0
   10.5135   17.8768   26.7514 C   0  0  0  0  0  0  0  0  0  0  0  0
   11.0304   19.9700   25.5501 C   0  0  0  0  0  0  0  0  0  0  0  0
   10.9522   20.8286   24.2607 C   0  0  0  0  0  0  0  0  0  0  0  0
   12.2962   21.7569   23.8188 S   0  0  0  0  0  0  0  0  0  0  0  0
  1  3  1  0  0  0  0
  1  9  1  0  0  0  0
  1 10  1  0  0  0  0
  2 12  1  0  0  0  0
  3  5  1  0  0  0  0
  4 12  2  0  0  0  0
  5  7  1  0  0  0  0
  6 12  2  0  0  0  0
  7  8  1  0  0  0  0
  8  9  1  0  0  0  0
 10 11  1  0  0  0  0
 11 12  1  0  0  0  0
M  END
>  <CHROM.1>
-66.86099584,-151.74717014,121.65478026,10.85239127,19.95861584,25.04364988
-2.24334115,-0.39972061,-0.87828401

>  <Name>
ligand

>  <RI>
0

>  <Rbt.Current_Directory>
/home/itssahil/PROJECTS/Mol_Feturizer/New_Systems/rnas/4E8N

>  <Rbt.Executable>
rbdock ($Id: //depot/dev/client3/rdock/2013.1/src/exe/rbdock.cxx#4 $)

>  <Rbt.Library>
libRbt.so (2013.1, Build901 2013/11/27)

>  <Rbt.Parameter_File>
/export/apps/rDock/src/rDock_2013.1_src/data/scripts/dock_solv.prm

>  <Rbt.Receptor>
prm/blind_docking_100.prm

>  <SCORE>
-14.1647

>  <SCORE.INTER>
-13.1729

>  <SCORE.INTER.CONST>
1

>  <SCORE.INTER.POLAR>
0

>  <SCORE.INTER.ROT>
3

>  <SCORE.INTER.SOLV>
10.3978

>  <SCORE.INTER.VDW>
-17.8478

>  <SCORE.INTER.norm>
-1.09774

>  <SCORE.INTRA>
-0.991875

>  <SCORE.INTRA.DIHEDRAL>
1.19437

>  <SCORE.INTRA.DIHEDRAL.0>
5.0186

>  <SCORE.INTRA.POLAR>
0

>  <SCORE.INTRA.POLAR.0>
0

>  <SCORE.INTRA.REPUL>
0

>  <SCORE.INTRA.REPUL.0>
0

>  <SCORE.INTRA.SOLV>
0.0309703

>  <SCORE.INTRA.SOLV.lig_0>
-16.1608

>  <SCORE.INTRA.VDW>
-1.60454

>  <SCORE.INTRA.VDW.0>
1.14169

>  <SCORE.INTRA.norm>
-0.0826562

>  <SCORE.RESTR>
0

>  <SCORE.RESTR.CAVITY>
0

>  <SCORE.RESTR.norm>
0

>  <SCORE.SYSTEM>
0

>  <SCORE.SYSTEM.CONST>
0

>  <SCORE.SYSTEM.DIHEDRAL>
0

>  <SCORE.SYSTEM.SOLV>
0

>  <SCORE.SYSTEM.norm>
0

>  <SCORE.heavy>
12

>  <SCORE.norm>
-1.18039

>  <RMSD>
49.436

$$$$
ligand
 OpenBabel11021811493D
libRbt.so/2013.1/901 2013/11/27
 12 12  0  0  0  0  0  0  0  0999 V2000
   10.4297   18.5968   25.8128 N   0  0  0  0  0  0  0  0  0  0  0  0
   12.6471   20.2946   27.9053 O   0  0  0  0  0  0  0  0  0  0  0  0
   10.8656   20.0124   25.7292 C   0  0  0  0  0  0  0  0  0  0  0  0
   11.8176   19.2015   29.8259 O   0  0  0  0  0  0  0  0  0  0  0  0
   10.6421   20.5006   24.3017 C   0  0  0  0  0  0  0  0  0  0  0  0
   14.1814   18.9270   29.2162 O   0  0  0  0  0  0  0  0  0  0  0  0
    9.2080   20.4882   23.9978 N   0  0  0  0  0  0  0  0  0  0  0  0
    8.5009   19.9552   25.1649 C   0  0  0  0  0  0  0  0  0  0  0  0
    9.0177   18.5439   25.3858 C   0  0  0  0  0  0  0  0  0  0  0  0
   10.6181   17.9261   27.1604 C   0  0  0  0  0  0  0  0  0  0  0  0
   12.0720   17.8315   27.6923 C   0  0  0  0  0  0  0  0  0  0  0  0
   12.6643   19.0811   28.6675 S   0  0  0  0  0  0  0  0  0  0  0  0
  1  3  1  0  0  0  0
  1  9  1  0  0  0  0
  1 10  1  0  0  0  0
  2 12  1  0  0  0  0
  3  5  1  0  0  0  0
  4 12  2  0  0  0  0
  5  7  1  0  0  0  0
  6 12  2  0  0  0  0
  7  8  1  0  0  0  0
  8  9  1  0  0  0  0
 10 11  1  0  0  0  0
 11 12  1  0  0  0  0
M  END
>  <CHROM.1>
-60.77188356,90.98817662,-61.55215080,11.26280974,19.26719032,26.98877332
2.45443174,-0.60991207,-0.78232704

>  <Name>
ligand

>  <RI>
0

>  <Rbt.Current_Directory>
/home/itssahil/PROJECTS/Mol_Feturizer/New_Systems/rnas/4E8N

>  <Rbt.Executable>
rbdock ($Id: //depot/dev/client3/rdock/2013.1/src/exe/rbdock.cxx#4 $)

>  <Rbt.Library>
libRbt.so (2013.1, Build901 2013/11/27)

>  <Rbt.Parameter_File>
/export/apps/rDock/src/rDock_2013.1_src/data/scripts/dock_solv.prm

>  <Rbt.Receptor>
prm/blind_docking_100.prm

>  <SCORE>
-15.4107

>  <SCORE.INTER>
-12.7417

>  <SCORE.INTER.CONST>
1

>  <SCORE.INTER.POLAR>
0

>  <SCORE.INTER.ROT>
3

>  <SCORE.INTER.SOLV>
13.7062

>  <SCORE.INTER.VDW>
-18.6632

>  <SCORE.INTER.norm>
-1.06181

>  <SCORE.INTRA>
-2.66899

>  <SCORE.INTRA.DIHEDRAL>
-2.10016

>  <SCORE.INTRA.DIHEDRAL.0>
5.0186

>  <SCORE.INTRA.POLAR>
0

>  <SCORE.INTRA.POLAR.0>
0

>  <SCORE.INTRA.REPUL>
0

>  <SCORE.INTRA.REPUL.0>
0

>  <SCORE.INTRA.SOLV>
-0.103422

>  <SCORE.INTRA.SOLV.lig_0>
-16.1608

>  <SCORE.INTRA.VDW>
-1.5672

>  <SCORE.INTRA.VDW.0>
1.14169

>  <SCORE.INTRA.norm>
-0.222415

>  <SCORE.RESTR>
0

>  <SCORE.RESTR.CAVITY>
0

>  <SCORE.RESTR.norm>
0

>  <SCORE.SYSTEM>
0

>  <SCORE.SYSTEM.CONST>
0

>  <SCORE.SYSTEM.DIHEDRAL>
0

>  <SCORE.SYSTEM.SOLV>
0

>  <SCORE.SYSTEM.norm>
0

>  <SCORE.heavy>
12

>  <SCORE.norm>
-1.28423

>  <RMSD>
49.445

$$$$
ligand
 OpenBabel11021811493D
libRbt.so/2013.1/901 2013/11/27
 12 12  0  0  0  0  0  0  0  0999 V2000
   12.3395   12.4039   38.4198 N   0  0  0  0  0  0  0  0  0  0  0  0
   13.5975   13.4924   33.5479 O   0  0  0  0  0  0  0  0  0  0  0  0
   12.5066   11.5309   39.6075 C   0  0  0  0  0  0  0  0  0  0  0  0
   15.2913   12.5527   34.8969 O   0  0  0  0  0  0  0  0  0  0  0  0
   11.7712   12.1699   40.7810 C   0  0  0  0  0  0  0  0  0  0  0  0
   13.6081   11.0779   33.8837 O   0  0  0  0  0  0  0  0  0  0  0  0
   10.3341   12.2124   40.4948 N   0  0  0  0  0  0  0  0  0  0  0  0
   10.1224   11.6713   39.1500 C   0  0  0  0  0  0  0  0  0  0  0  0
   10.8901   12.5645   38.1905 C   0  0  0  0  0  0  0  0  0  0  0  0
   13.0443   11.9442   37.1576 C   0  0  0  0  0  0  0  0  0  0  0  0
   12.9954   12.9088   35.9438 C   0  0  0  0  0  0  0  0  0  0  0  0
   13.8914   12.5225   34.5613 S   0  0  0  0  0  0  0  0  0  0  0  0
  1  3  1  0  0  0  0
  1  9  1  0  0  0  0
  1 10  1  0  0  0  0
  2 12  1  0  0  0  0
  3  5  1  0  0  0  0
  4 12  2  0  0  0  0
  5  7  1  0  0  0  0
  6 12  2  0  0  0  0
  7  8  1  0  0  0  0
  8  9  1  0  0  0  0
 10 11  1  0  0  0  0
 11 12  1  0  0  0  0
M  END
>  <CHROM.1>
-174.34258617,173.97441656,175.12147913,12.71064272,12.28314319,36.87397916
-2.05217271,0.07004158,-1.45449616

>  <Name>
ligand

>  <RI>
0

>  <Rbt.Current_Directory>
/home/itssahil/PROJECTS/Mol_Feturizer/New_Systems/rnas/4E8N

>  <Rbt.Executable>
rbdock ($Id: //depot/dev/client3/rdock/2013.1/src/exe/rbdock.cxx#4 $)

>  <Rbt.Library>
libRbt.so (2013.1, Build901 2013/11/27)

>  <Rbt.Parameter_File>
/export/apps/rDock/src/rDock_2013.1_src/data/scripts/dock_solv.prm

>  <Rbt.Receptor>
prm/blind_docking_80.prm

>  <SCORE>
-13.1717

>  <SCORE.INTER>
-9.5112

>  <SCORE.INTER.CONST>
1

>  <SCORE.INTER.POLAR>
0

>  <SCORE.INTER.ROT>
3

>  <SCORE.INTER.SOLV>
5.54372

>  <SCORE.INTER.VDW>
-13.7887

>  <SCORE.INTER.norm>
-0.7926

>  <SCORE.INTRA>
-3.6605

>  <SCORE.INTRA.DIHEDRAL>
-4.79711

>  <SCORE.INTRA.DIHEDRAL.0>
5.0186

>  <SCORE.INTRA.POLAR>
0

>  <SCORE.INTRA.POLAR.0>
0

>  <SCORE.INTRA.REPUL>
0

>  <SCORE.INTRA.REPUL.0>
0

>  <SCORE.INTRA.SOLV>
0.0753379

>  <SCORE.INTRA.SOLV.lig_0>
-16.1608

>  <SCORE.INTRA.VDW>
-1.29962

>  <SCORE.INTRA.VDW.0>
1.14169

>  <SCORE.INTRA.norm>
-0.305042

>  <SCORE.RESTR>
0

>  <SCORE.RESTR.CAVITY>
0

>  <SCORE.RESTR.norm>
0

>  <SCORE.SYSTEM>
0

>  <SCORE.SYSTEM.CONST>
0

>  <SCORE.SYSTEM.DIHEDRAL>
0

>  <SCORE.SYSTEM.SOLV>
0

>  <SCORE.SYSTEM.norm>
0

>  <SCORE.heavy>
12

>  <SCORE.norm>
-1.09764

>  <RMSD>
49.452

$$$$
ligand
 OpenBabel11021811493D
libRbt.so/2013.1/901 2013/11/27
 12 12  0  0  0  0  0  0  0  0999 V2000
   10.1689   18.5122   25.7459 N   0  0  0  0  0  0  0  0  0  0  0  0
   12.5698   20.3029   27.5439 O   0  0  0  0  0  0  0  0  0  0  0  0
   10.6006   19.9266   25.6288 C   0  0  0  0  0  0  0  0  0  0  0  0
   11.5341   19.4838   29.5005 O   0  0  0  0  0  0  0  0  0  0  0  0
   10.2918   20.4078   24.2148 C   0  0  0  0  0  0  0  0  0  0  0  0
   13.9266   19.0578   29.1412 O   0  0  0  0  0  0  0  0  0  0  0  0
    8.8419   20.3961   23.9983 N   0  0  0  0  0  0  0  0  0  0  0  0
    8.2060   19.8701   25.2087 C   0  0  0  0  0  0  0  0  0  0  0  0
    8.7336   18.4592   25.4053 C   0  0  0  0  0  0  0  0  0  0  0  0
   10.4376   17.8481   27.0831 C   0  0  0  0  0  0  0  0  0  0  0  0
   11.9075   17.8527   27.5784 C   0  0  0  0  0  0  0  0  0  0  0  0
   12.4694   19.1930   28.4451 S   0  0  0  0  0  0  0  0  0  0  0  0
  1  3  1  0  0  0  0
  1  9  1  0  0  0  0
  1 10  1  0  0  0  0
  2 12  1  0  0  0  0
  3  5  1  0  0  0  0
  4 12  2  0  0  0  0
  5  7  1  0  0  0  0
  6 12  2  0  0  0  0
  7  8  1  0  0  0  0
  8  9  1  0  0  0  0
 10 11  1  0  0  0  0
 11 12  1  0  0  0  0
M  END
>  <CHROM.1>
-56.12900413,86.20881950,-70.09700918,11.02106787,19.27849237,26.86042946
2.53289768,-0.61335983,-0.74760805

>  <Name>
ligand

>  <RI>
0

>  <Rbt.Current_Directory>
/home/itssahil/PROJECTS/Mol_Feturizer/New_Systems/rnas/4E8N

>  <Rbt.Executable>
rbdock ($Id: //depot/dev/client3/rdock/2013.1/src/exe/rbdock.cxx#4 $)

>  <Rbt.Library>
libRbt.so (2013.1, Build901 2013/11/27)

>  <Rbt.Parameter_File>
/export/apps/rDock/src/rDock_2013.1_src/data/scripts/dock_solv.prm

>  <Rbt.Receptor>
prm/blind_docking_40.prm

>  <SCORE>
-15.6088

>  <SCORE.INTER>
-12.9867

>  <SCORE.INTER.CONST>
1

>  <SCORE.INTER.POLAR>
0

>  <SCORE.INTER.ROT>
3

>  <SCORE.INTER.SOLV>
13.0415

>  <SCORE.INTER.VDW>
-18.6049

>  <SCORE.INTER.norm>
-1.08222

>  <SCORE.INTRA>
-2.62211

>  <SCORE.INTRA.DIHEDRAL>
-2.55584

>  <SCORE.INTRA.DIHEDRAL.0>
5.0186

>  <SCORE.INTRA.POLAR>
0

>  <SCORE.INTRA.POLAR.0>
0

>  <SCORE.INTRA.REPUL>
0

>  <SCORE.INTRA.REPUL.0>
0

>  <SCORE.INTRA.SOLV>
-0.011456

>  <SCORE.INTRA.SOLV.lig_0>
-16.1608

>  <SCORE.INTRA.VDW>
-1.33846

>  <SCORE.INTRA.VDW.0>
1.14169

>  <SCORE.INTRA.norm>
-0.218509

>  <SCORE.RESTR>
0

>  <SCORE.RESTR.CAVITY>
0

>  <SCORE.RESTR.norm>
0

>  <SCORE.SYSTEM>
0

>  <SCORE.SYSTEM.CONST>
0

>  <SCORE.SYSTEM.DIHEDRAL>
0

>  <SCORE.SYSTEM.SOLV>
0

>  <SCORE.SYSTEM.norm>
0

>  <SCORE.heavy>
12

>  <SCORE.norm>
-1.30073

>  <RMSD>
49.492

$$$$
ligand
 OpenBabel11021811493D
libRbt.so/2013.1/901 2013/11/27
 12 12  0  0  0  0  0  0  0  0999 V2000
   10.6189   18.4222   27.9591 N   0  0  0  0  0  0  0  0  0  0  0  0
   14.6359   19.3142   30.0078 O   0  0  0  0  0  0  0  0  0  0  0  0
    9.4294   17.7161   28.4951 C   0  0  0  0  0  0  0  0  0  0  0  0
   13.6547   21.1597   31.1046 O   0  0  0  0  0  0  0  0  0  0  0  0
    8.2943   17.8521   27.4855 C   0  0  0  0  0  0  0  0  0  0  0  0
   13.3039   18.9022   32.0075 O   0  0  0  0  0  0  0  0  0  0  0  0
    8.6592   17.1672   26.2418 N   0  0  0  0  0  0  0  0  0  0  0  0
   10.0172   16.6393   26.3954 C   0  0  0  0  0  0  0  0  0  0  0  0
   10.9270   17.8306   26.6422 C   0  0  0  0  0  0  0  0  0  0  0  0
   11.8431   18.4279   28.8548 C   0  0  0  0  0  0  0  0  0  0  0  0
   12.1771   19.7649   29.5667 C   0  0  0  0  0  0  0  0  0  0  0  0
   13.4610   19.8013   30.6684 S   0  0  0  0  0  0  0  0  0  0  0  0
  1  3  1  0  0  0  0
  1  9  1  0  0  0  0
  1 10  1  0  0  0  0
  2 12  1  0  0  0  0
  3  5  1  0  0  0  0
  4 12  2  0  0  0  0
  5  7  1  0  0  0  0
  6 12  2  0  0  0  0
  7  8  1  0  0  0  0
  8  9  1  0  0  0  0
 10 11  1  0  0  0  0
 11 12  1  0  0  0  0
M  END
>  <CHROM.1>
-106.01015449,175.44410674,54.85288452,11.68576759,18.73478294,29.03209859
2.32537001,-0.11952775,-2.01617965

>  <Name>
ligand

>  <RI>
0

>  <Rbt.Current_Directory>
/home/itssahil/PROJECTS/Mol_Feturizer/New_Systems/rnas/4E8N

>  <Rbt.Executable>
rbdock ($Id: //depot/dev/client3/rdock/2013.1/src/exe/rbdock.cxx#4 $)

>  <Rbt.Library>
libRbt.so (2013.1, Build901 2013/11/27)

>  <Rbt.Parameter_File>
/export/apps/rDock/src/rDock_2013.1_src/data/scripts/dock_solv.prm

>  <Rbt.Receptor>
prm/blind_docking_60.prm

>  <SCORE>
-14.1008

>  <SCORE.INTER>
-11.0248

>  <SCORE.INTER.CONST>
1

>  <SCORE.INTER.POLAR>
0

>  <SCORE.INTER.ROT>
3

>  <SCORE.INTER.SOLV>
11.0096

>  <SCORE.INTER.VDW>
-16.6197

>  <SCORE.INTER.norm>
-0.91873

>  <SCORE.INTRA>
-3.27012

>  <SCORE.INTRA.DIHEDRAL>
-2.73443

>  <SCORE.INTRA.DIHEDRAL.0>
5.0186

>  <SCORE.INTRA.POLAR>
0

>  <SCORE.INTRA.POLAR.0>
0

>  <SCORE.INTRA.REPUL>
0

>  <SCORE.INTRA.REPUL.0>
0

>  <SCORE.INTRA.SOLV>
-0.121906

>  <SCORE.INTRA.SOLV.lig_0>
-16.1608

>  <SCORE.INTRA.VDW>
-1.84196

>  <SCORE.INTRA.VDW.0>
1.14169

>  <SCORE.INTRA.norm>
-0.27251

>  <SCORE.RESTR>
0.194139

>  <SCORE.RESTR.CAVITY>
0.194139

>  <SCORE.RESTR.norm>
0.0161782

>  <SCORE.SYSTEM>
0

>  <SCORE.SYSTEM.CONST>
0

>  <SCORE.SYSTEM.DIHEDRAL>
0

>  <SCORE.SYSTEM.SOLV>
0

>  <SCORE.SYSTEM.norm>
0

>  <SCORE.heavy>
12

>  <SCORE.norm>
-1.17506

>  <RMSD>
49.643

$$$$
ligand
 OpenBabel11021811493D
libRbt.so/2013.1/901 2013/11/27
 12 12  0  0  0  0  0  0  0  0999 V2000
    9.7948   18.2239   27.2968 N   0  0  0  0  0  0  0  0  0  0  0  0
   13.6311   19.2300   29.7273 O   0  0  0  0  0  0  0  0  0  0  0  0
    9.0804   17.3821   28.2878 C   0  0  0  0  0  0  0  0  0  0  0  0
   12.6693   20.3743   27.9005 O   0  0  0  0  0  0  0  0  0  0  0  0
    7.7087   17.9986   28.5420 C   0  0  0  0  0  0  0  0  0  0  0  0
   11.2736   19.8381   29.8496 O   0  0  0  0  0  0  0  0  0  0  0  0
    6.9153   17.9550   27.3101 N   0  0  0  0  0  0  0  0  0  0  0  0
    7.7498   17.3799   26.2522 C   0  0  0  0  0  0  0  0  0  0  0  0
    8.9488   18.2984   26.0895 C   0  0  0  0  0  0  0  0  0  0  0  0
   11.2042   17.7832   26.9496 C   0  0  0  0  0  0  0  0  0  0  0  0
   12.2579   17.8662   28.0848 C   0  0  0  0  0  0  0  0  0  0  0  0
   12.4771   19.3411   28.8848 S   0  0  0  0  0  0  0  0  0  0  0  0
  1  3  1  0  0  0  0
  1  9  1  0  0  0  0
  1 10  1  0  0  0  0
  2 12  1  0  0  0  0
  3  5  1  0  0  0  0
  4 12  2  0  0  0  0
  5  7  1  0  0  0  0
  6 12  2  0  0  0  0
  7  8  1  0  0  0  0
  8  9  1  0  0  0  0
 10 11  1  0  0  0  0
 11 12  1  0  0  0  0
M  END
>  <CHROM.1>
-66.06733145,-54.39561481,-170.89159407,10.58122223,18.59542278,28.05862739
-2.70279820,0.19749151,1.23708930

>  <Name>
ligand

>  <RI>
0

>  <Rbt.Current_Directory>
/home/itssahil/PROJECTS/Mol_Feturizer/New_Systems/rnas/4E8N

>  <Rbt.Executable>
rbdock ($Id: //depot/dev/client3/rdock/2013.1/src/exe/rbdock.cxx#4 $)

>  <Rbt.Library>
libRbt.so (2013.1, Build901 2013/11/27)

>  <Rbt.Parameter_File>
/export/apps/rDock/src/rDock_2013.1_src/data/scripts/dock_solv.prm

>  <Rbt.Receptor>
prm/blind_docking_100.prm

>  <SCORE>
-14.5227

>  <SCORE.INTER>
-10.399

>  <SCORE.INTER.CONST>
1

>  <SCORE.INTER.POLAR>
0

>  <SCORE.INTER.ROT>
3

>  <SCORE.INTER.SOLV>
10.0483

>  <SCORE.INTER.VDW>
-15.8821

>  <SCORE.INTER.norm>
-0.866584

>  <SCORE.INTRA>
-4.12365

>  <SCORE.INTRA.DIHEDRAL>
-4.59392

>  <SCORE.INTRA.DIHEDRAL.0>
5.0186

>  <SCORE.INTRA.POLAR>
0

>  <SCORE.INTRA.POLAR.0>
0

>  <SCORE.INTRA.REPUL>
0

>  <SCORE.INTRA.REPUL.0>
0

>  <SCORE.INTRA.SOLV>
0.821604

>  <SCORE.INTRA.SOLV.lig_0>
-16.1608

>  <SCORE.INTRA.VDW>
-2.2375

>  <SCORE.INTRA.VDW.0>
1.14169

>  <SCORE.INTRA.norm>
-0.343638

>  <SCORE.RESTR>
0

>  <SCORE.RESTR.CAVITY>
0

>  <SCORE.RESTR.norm>
0

>  <SCORE.SYSTEM>
0

>  <SCORE.SYSTEM.CONST>
0

>  <SCORE.SYSTEM.DIHEDRAL>
0

>  <SCORE.SYSTEM.SOLV>
0

>  <SCORE.SYSTEM.norm>
0

>  <SCORE.heavy>
12

>  <SCORE.norm>
-1.21022

>  <RMSD>
49.644

$$$$
ligand
 OpenBabel11021811493D
libRbt.so/2013.1/901 2013/11/27
 12 12  0  0  0  0  0  0  0  0999 V2000
    9.8902   18.9805   26.2187 N   0  0  0  0  0  0  0  0  0  0  0  0
   13.6890   19.0258   28.8940 O   0  0  0  0  0  0  0  0  0  0  0  0
    8.5973   18.4584   25.7120 C   0  0  0  0  0  0  0  0  0  0  0  0
   12.4854   20.2840   27.3003 O   0  0  0  0  0  0  0  0  0  0  0  0
    7.6266   19.6271   25.5774 C   0  0  0  0  0  0  0  0  0  0  0  0
   11.6525   20.1595   29.6080 O   0  0  0  0  0  0  0  0  0  0  0  0
    8.1231   20.5630   24.5641 N   0  0  0  0  0  0  0  0  0  0  0  0
    9.4122   20.0647   24.0782 C   0  0  0  0  0  0  0  0  0  0  0  0
   10.3464   20.0202   25.2754 C   0  0  0  0  0  0  0  0  0  0  0  0
   10.9733   17.9453   26.4558 C   0  0  0  0  0  0  0  0  0  0  0  0
   11.6399   17.9452   27.8563 C   0  0  0  0  0  0  0  0  0  0  0  0
   12.3857   19.3627   28.4023 S   0  0  0  0  0  0  0  0  0  0  0  0
  1  3  1  0  0  0  0
  1  9  1  0  0  0  0
  1 10  1  0  0  0  0
  2 12  1  0  0  0  0
  3  5  1  0  0  0  0
  4 12  2  0  0  0  0
  5  7  1  0  0  0  0
  6 12  2  0  0  0  0
  7  8  1  0  0  0  0
  8  9  1  0  0  0  0
 10 11  1  0  0  0  0
 11 12  1  0  0  0  0
M  END
>  <CHROM.1>
-127.30698156,-57.44269654,-131.30286731,10.80208463,19.38291348,26.88508138
2.80343204,-0.67665215,-0.41278443

>  <Name>
ligand

>  <RI>
0

>  <Rbt.Current_Directory>
/home/itssahil/PROJECTS/Mol_Feturizer/New_Systems/rnas/4E8N

>  <Rbt.Executable>
rbdock ($Id: //depot/dev/client3/rdock/2013.1/src/exe/rbdock.cxx#4 $)

>  <Rbt.Library>
libRbt.so (2013.1, Build901 2013/11/27)

>  <Rbt.Parameter_File>
/export/apps/rDock/src/rDock_2013.1_src/data/scripts/dock_solv.prm

>  <Rbt.Receptor>
prm/blind_docking_60.prm

>  <SCORE>
-13.636

>  <SCORE.INTER>
-12.3305

>  <SCORE.INTER.CONST>
1

>  <SCORE.INTER.POLAR>
0

>  <SCORE.INTER.ROT>
3

>  <SCORE.INTER.SOLV>
11.8159

>  <SCORE.INTER.VDW>
-17.759

>  <SCORE.INTER.norm>
-1.02754

>  <SCORE.INTRA>
-1.30552

>  <SCORE.INTRA.DIHEDRAL>
0.586694

>  <SCORE.INTRA.DIHEDRAL.0>
5.0186

>  <SCORE.INTRA.POLAR>
0

>  <SCORE.INTRA.POLAR.0>
0

>  <SCORE.INTRA.REPUL>
0

>  <SCORE.INTRA.REPUL.0>
0

>  <SCORE.INTRA.SOLV>
0.805734

>  <SCORE.INTRA.SOLV.lig_0>
-16.1608

>  <SCORE.INTRA.VDW>
-2.00173

>  <SCORE.INTRA.VDW.0>
1.14169

>  <SCORE.INTRA.norm>
-0.108793

>  <SCORE.RESTR>
0

>  <SCORE.RESTR.CAVITY>
0

>  <SCORE.RESTR.norm>
0

>  <SCORE.SYSTEM>
0

>  <SCORE.SYSTEM.CONST>
0

>  <SCORE.SYSTEM.DIHEDRAL>
0

>  <SCORE.SYSTEM.SOLV>
0

>  <SCORE.SYSTEM.norm>
0

>  <SCORE.heavy>
12

>  <SCORE.norm>
-1.13633

>  <RMSD>
49.684

$$$$
ligand
 OpenBabel11021811493D
libRbt.so/2013.1/901 2013/11/27
 12 12  0  0  0  0  0  0  0  0999 V2000
   11.1863   19.7869   26.7237 N   0  0  0  0  0  0  0  0  0  0  0  0
   13.9513   21.6674   24.5659 O   0  0  0  0  0  0  0  0  0  0  0  0
   12.4172   20.1126   27.4851 C   0  0  0  0  0  0  0  0  0  0  0  0
   12.6672   21.2171   22.6372 O   0  0  0  0  0  0  0  0  0  0  0  0
   12.1740   19.7853   28.9547 C   0  0  0  0  0  0  0  0  0  0  0  0
   12.8841   23.5355   23.4197 O   0  0  0  0  0  0  0  0  0  0  0  0
   11.9599   18.3430   29.1072 N   0  0  0  0  0  0  0  0  0  0  0  0
   12.0021   17.7341   27.7754 C   0  0  0  0  0  0  0  0  0  0  0  0
   10.8799   18.3637   26.9680 C   0  0  0  0  0  0  0  0  0  0  0  0
   11.2293   20.0889   25.2377 C   0  0  0  0  0  0  0  0  0  0  0  0
   11.4291   21.5736   24.8358 C   0  0  0  0  0  0  0  0  0  0  0  0
   12.7468   21.9807   23.8553 S   0  0  0  0  0  0  0  0  0  0  0  0
  1  3  1  0  0  0  0
  1  9  1  0  0  0  0
  1 10  1  0  0  0  0
  2 12  1  0  0  0  0
  3  5  1  0  0  0  0
  4 12  2  0  0  0  0
  5  7  1  0  0  0  0
  6 12  2  0  0  0  0
  7  8  1  0  0  0  0
  8  9  1  0  0  0  0
 10 11  1  0  0  0  0
 11 12  1  0  0  0  0
M  END
>  <CHROM.1>
-61.89606115,122.58704755,-62.78207904,12.21752790,20.55753153,25.69101973
1.86969557,0.90627913,1.98317234

>  <Name>
ligand

>  <RI>
0

>  <Rbt.Current_Directory>
/home/itssahil/PROJECTS/Mol_Feturizer/New_Systems/rnas/4E8N

>  <Rbt.Executable>
rbdock ($Id: //depot/dev/client3/rdock/2013.1/src/exe/rbdock.cxx#4 $)

>  <Rbt.Library>
libRbt.so (2013.1, Build901 2013/11/27)

>  <Rbt.Parameter_File>
/export/apps/rDock/src/rDock_2013.1_src/data/scripts/dock_solv.prm

>  <Rbt.Receptor>
prm/blind_docking_80.prm

>  <SCORE>
-10.9414

>  <SCORE.INTER>
-9.38735

>  <SCORE.INTER.CONST>
1

>  <SCORE.INTER.POLAR>
0

>  <SCORE.INTER.ROT>
3

>  <SCORE.INTER.SOLV>
15.2413

>  <SCORE.INTER.VDW>
-16.9387

>  <SCORE.INTER.norm>
-0.782279

>  <SCORE.INTRA>
-1.57533

>  <SCORE.INTRA.DIHEDRAL>
0.513551

>  <SCORE.INTRA.DIHEDRAL.0>
5.0186

>  <SCORE.INTRA.POLAR>
0

>  <SCORE.INTRA.POLAR.0>
0

>  <SCORE.INTRA.REPUL>
0

>  <SCORE.INTRA.REPUL.0>
0

>  <SCORE.INTRA.SOLV>
-0.114449

>  <SCORE.INTRA.SOLV.lig_0>
-16.1608

>  <SCORE.INTRA.VDW>
-1.77488

>  <SCORE.INTRA.VDW.0>
1.14169

>  <SCORE.INTRA.norm>
-0.131278

>  <SCORE.RESTR>
0.0212534

>  <SCORE.RESTR.CAVITY>
0.0212534

>  <SCORE.RESTR.norm>
0.00177112

>  <SCORE.SYSTEM>
0

>  <SCORE.SYSTEM.CONST>
0

>  <SCORE.SYSTEM.DIHEDRAL>
0

>  <SCORE.SYSTEM.SOLV>
0

>  <SCORE.SYSTEM.norm>
0

>  <SCORE.heavy>
12

>  <SCORE.norm>
-0.911786

>  <RMSD>
49.714

$$$$
ligand
 OpenBabel11021811493D
libRbt.so/2013.1/901 2013/11/27
 12 12  0  0  0  0  0  0  0  0999 V2000
    8.8827   19.8842   25.1995 N   0  0  0  0  0  0  0  0  0  0  0  0
   13.6902   21.6632   24.7234 O   0  0  0  0  0  0  0  0  0  0  0  0
    9.2107   18.5276   25.7022 C   0  0  0  0  0  0  0  0  0  0  0  0
   12.6013   21.0174   22.7312 O   0  0  0  0  0  0  0  0  0  0  0  0
    8.0849   18.0719   26.6248 C   0  0  0  0  0  0  0  0  0  0  0  0
   12.1194   23.2223   23.7013 O   0  0  0  0  0  0  0  0  0  0  0  0
    6.8432   17.9419   25.8565 N   0  0  0  0  0  0  0  0  0  0  0  0
    7.1173   18.3522   24.4772 C   0  0  0  0  0  0  0  0  0  0  0  0
    7.5693   19.8016   24.5308 C   0  0  0  0  0  0  0  0  0  0  0  0
    9.9183   20.5206   24.2918 C   0  0  0  0  0  0  0  0  0  0  0  0
   11.3087   20.8066   24.9172 C   0  0  0  0  0  0  0  0  0  0  0  0
   12.4484   21.6653   24.0079 S   0  0  0  0  0  0  0  0  0  0  0  0
  1  3  1  0  0  0  0
  1  9  1  0  0  0  0
  1 10  1  0  0  0  0
  2 12  1  0  0  0  0
  3  5  1  0  0  0  0
  4 12  2  0  0  0  0
  5  7  1  0  0  0  0
  6 12  2  0  0  0  0
  7  8  1  0  0  0  0
  8  9  1  0  0  0  0
 10 11  1  0  0  0  0
 11 12  1  0  0  0  0
M  END
>  <CHROM.1>
-63.32587315,-173.46340405,-173.16088854,10.30144149,20.32464671,24.63124384
2.56422286,0.28181736,2.30043546

>  <Name>
ligand

>  <RI>
0

>  <Rbt.Current_Directory>
/home/itssahil/PROJECTS/Mol_Feturizer/New_Systems/rnas/4E8N

>  <Rbt.Executable>
rbdock ($Id: //depot/dev/client3/rdock/2013.1/src/exe/rbdock.cxx#4 $)

>  <Rbt.Library>
libRbt.so (2013.1, Build901 2013/11/27)

>  <Rbt.Parameter_File>
/export/apps/rDock/src/rDock_2013.1_src/data/scripts/dock_solv.prm

>  <Rbt.Receptor>
prm/blind_docking_40.prm

>  <SCORE>
-17.4448

>  <SCORE.INTER>
-13.6089

>  <SCORE.INTER.CONST>
1

>  <SCORE.INTER.POLAR>
0

>  <SCORE.INTER.ROT>
3

>  <SCORE.INTER.SOLV>
9.81616

>  <SCORE.INTER.VDW>
-17.9447

>  <SCORE.INTER.norm>
-1.13408

>  <SCORE.INTRA>
-3.83584

>  <SCORE.INTRA.DIHEDRAL>
-4.69521

>  <SCORE.INTRA.DIHEDRAL.0>
5.0186

>  <SCORE.INTRA.POLAR>
0

>  <SCORE.INTRA.POLAR.0>
0

>  <SCORE.INTRA.REPUL>
0

>  <SCORE.INTRA.REPUL.0>
0

>  <SCORE.INTRA.SOLV>
0.0719117

>  <SCORE.INTRA.SOLV.lig_0>
-16.1608

>  <SCORE.INTRA.VDW>
-1.52419

>  <SCORE.INTRA.VDW.0>
1.14169

>  <SCORE.INTRA.norm>
-0.319653

>  <SCORE.RESTR>
0

>  <SCORE.RESTR.CAVITY>
0

>  <SCORE.RESTR.norm>
0

>  <SCORE.SYSTEM>
0

>  <SCORE.SYSTEM.CONST>
0

>  <SCORE.SYSTEM.DIHEDRAL>
0

>  <SCORE.SYSTEM.SOLV>
0

>  <SCORE.SYSTEM.norm>
0

>  <SCORE.heavy>
12

>  <SCORE.norm>
-1.45373

>  <RMSD>
49.857

$$$$
ligand
 OpenBabel11021811493D
libRbt.so/2013.1/901 2013/11/27
 12 12  0  0  0  0  0  0  0  0999 V2000
    8.8590   19.9341   25.1575 N   0  0  0  0  0  0  0  0  0  0  0  0
   12.6403   20.9846   22.7671 O   0  0  0  0  0  0  0  0  0  0  0  0
    9.1422   18.5460   25.5978 C   0  0  0  0  0  0  0  0  0  0  0  0
   12.0376   23.0020   23.8342 O   0  0  0  0  0  0  0  0  0  0  0  0
    8.0034   18.0871   26.5027 C   0  0  0  0  0  0  0  0  0  0  0  0
   13.9645   21.7301   24.6733 O   0  0  0  0  0  0  0  0  0  0  0  0
    6.7567   18.0333   25.7334 N   0  0  0  0  0  0  0  0  0  0  0  0
    7.0420   18.4958   24.3729 C   0  0  0  0  0  0  0  0  0  0  0  0
    7.5423   19.9254   24.4901 C   0  0  0  0  0  0  0  0  0  0  0  0
    9.9137   20.5757   24.2760 C   0  0  0  0  0  0  0  0  0  0  0  0
   11.3046   20.8157   24.9190 C   0  0  0  0  0  0  0  0  0  0  0  0
   12.4801   21.6457   24.0286 S   0  0  0  0  0  0  0  0  0  0  0  0
  1  3  1  0  0  0  0
  1  9  1  0  0  0  0
  1 10  1  0  0  0  0
  2 12  1  0  0  0  0
  3  5  1  0  0  0  0
  4 12  2  0  0  0  0
  5  7  1  0  0  0  0
  6 12  2  0  0  0  0
  7  8  1  0  0  0  0
  8  9  1  0  0  0  0
 10 11  1  0  0  0  0
 11 12  1  0  0  0  0
M  END
>  <CHROM.1>
-64.64760016,-174.89686164,-54.17096137,10.29892177,20.34283090,24.60440611
2.60111141,0.25841441,2.32247178

>  <Name>
ligand

>  <RI>
0

>  <Rbt.Current_Directory>
/home/itssahil/PROJECTS/Mol_Feturizer/New_Systems/rnas/4E8N

>  <Rbt.Executable>
rbdock ($Id: //depot/dev/client3/rdock/2013.1/src/exe/rbdock.cxx#4 $)

>  <Rbt.Library>
libRbt.so (2013.1, Build901 2013/11/27)

>  <Rbt.Parameter_File>
/export/apps/rDock/src/rDock_2013.1_src/data/scripts/dock_solv.prm

>  <Rbt.Receptor>
prm/blind_docking_60.prm

>  <SCORE>
-17.8864

>  <SCORE.INTER>
-13.9045

>  <SCORE.INTER.CONST>
1

>  <SCORE.INTER.POLAR>
0

>  <SCORE.INTER.ROT>
3

>  <SCORE.INTER.SOLV>
9.31239

>  <SCORE.INTER.VDW>
-17.9738

>  <SCORE.INTER.norm>
-1.15871

>  <SCORE.INTRA>
-3.98196

>  <SCORE.INTRA.DIHEDRAL>
-4.76637

>  <SCORE.INTRA.DIHEDRAL.0>
5.0186

>  <SCORE.INTRA.POLAR>
0

>  <SCORE.INTRA.POLAR.0>
0

>  <SCORE.INTRA.REPUL>
0

>  <SCORE.INTRA.REPUL.0>
0

>  <SCORE.INTRA.SOLV>
-0.122979

>  <SCORE.INTRA.SOLV.lig_0>
-16.1608

>  <SCORE.INTRA.VDW>
-1.53728

>  <SCORE.INTRA.VDW.0>
1.14169

>  <SCORE.INTRA.norm>
-0.33183

>  <SCORE.RESTR>
0

>  <SCORE.RESTR.CAVITY>
0

>  <SCORE.RESTR.norm>
0

>  <SCORE.SYSTEM>
0

>  <SCORE.SYSTEM.CONST>
0

>  <SCORE.SYSTEM.DIHEDRAL>
0

>  <SCORE.SYSTEM.SOLV>
0

>  <SCORE.SYSTEM.norm>
0

>  <SCORE.heavy>
12

>  <SCORE.norm>
-1.49054

>  <RMSD>
49.871

$$$$
ligand
 OpenBabel11021811493D
libRbt.so/2013.1/901 2013/11/27
 12 12  0  0  0  0  0  0  0  0999 V2000
   10.8957   12.3371   37.7410 N   0  0  0  0  0  0  0  0  0  0  0  0
   12.9831   13.3962   33.1559 O   0  0  0  0  0  0  0  0  0  0  0  0
   10.2494   13.5930   38.1946 C   0  0  0  0  0  0  0  0  0  0  0  0
   14.3973   13.6382   35.0302 O   0  0  0  0  0  0  0  0  0  0  0  0
    8.9732   13.2320   38.9477 C   0  0  0  0  0  0  0  0  0  0  0  0
   13.9933   11.3951   34.1138 O   0  0  0  0  0  0  0  0  0  0  0  0
    9.3142   12.4788   40.1583 N   0  0  0  0  0  0  0  0  0  0  0  0
   10.7672   12.2934   40.1838 C   0  0  0  0  0  0  0  0  0  0  0  0
   11.1322   11.5053   38.9373 C   0  0  0  0  0  0  0  0  0  0  0  0
   12.1679   12.5037   36.9317 C   0  0  0  0  0  0  0  0  0  0  0  0
   11.9965   12.8879   35.4388 C   0  0  0  0  0  0  0  0  0  0  0  0
   13.3533   12.8503   34.4283 S   0  0  0  0  0  0  0  0  0  0  0  0
  1  3  1  0  0  0  0
  1  9  1  0  0  0  0
  1 10  1  0  0  0  0
  2 12  1  0  0  0  0
  3  5  1  0  0  0  0
  4 12  2  0  0  0  0
  5  7  1  0  0  0  0
  6 12  2  0  0  0  0
  7  8  1  0  0  0  0
  8  9  1  0  0  0  0
 10 11  1  0  0  0  0
 11 12  1  0  0  0  0
M  END
>  <CHROM.1>
-78.63231721,-170.50129351,-173.01696628,11.90691485,12.69645135,36.61516999
-2.31651387,0.58793591,-1.05210794

>  <Name>
ligand

>  <RI>
0

>  <Rbt.Current_Directory>
/home/itssahil/PROJECTS/Mol_Feturizer/New_Systems/rnas/4E8N

>  <Rbt.Executable>
rbdock ($Id: //depot/dev/client3/rdock/2013.1/src/exe/rbdock.cxx#4 $)

>  <Rbt.Library>
libRbt.so (2013.1, Build901 2013/11/27)

>  <Rbt.Parameter_File>
/export/apps/rDock/src/rDock_2013.1_src/data/scripts/dock_solv.prm

>  <Rbt.Receptor>
prm/blind_docking_100.prm

>  <SCORE>
-14.4581

>  <SCORE.INTER>
-10.8138

>  <SCORE.INTER.CONST>
1

>  <SCORE.INTER.POLAR>
0

>  <SCORE.INTER.ROT>
3

>  <SCORE.INTER.SOLV>
5.59213

>  <SCORE.INTER.VDW>
-14.6732

>  <SCORE.INTER.norm>
-0.901147

>  <SCORE.INTRA>
-3.64438

>  <SCORE.INTRA.DIHEDRAL>
-3.95114

>  <SCORE.INTRA.DIHEDRAL.0>
5.0186

>  <SCORE.INTRA.POLAR>
0

>  <SCORE.INTRA.POLAR.0>
0

>  <SCORE.INTRA.REPUL>
0

>  <SCORE.INTRA.REPUL.0>
0

>  <SCORE.INTRA.SOLV>
0.069349

>  <SCORE.INTRA.SOLV.lig_0>
-16.1608

>  <SCORE.INTRA.VDW>
-1.70349

>  <SCORE.INTRA.VDW.0>
1.14169

>  <SCORE.INTRA.norm>
-0.303699

>  <SCORE.RESTR>
0

>  <SCORE.RESTR.CAVITY>
0

>  <SCORE.RESTR.norm>
0

>  <SCORE.SYSTEM>
0

>  <SCORE.SYSTEM.CONST>
0

>  <SCORE.SYSTEM.DIHEDRAL>
0

>  <SCORE.SYSTEM.SOLV>
0

>  <SCORE.SYSTEM.norm>
0

>  <SCORE.heavy>
12

>  <SCORE.norm>
-1.20485

>  <RMSD>
49.872

$$$$
ligand
 OpenBabel11021811493D
libRbt.so/2013.1/901 2013/11/27
 12 12  0  0  0  0  0  0  0  0999 V2000
    8.8873   19.9601   25.1563 N   0  0  0  0  0  0  0  0  0  0  0  0
   12.0153   23.0772   23.9012 O   0  0  0  0  0  0  0  0  0  0  0  0
    9.1739   18.5796   25.6178 C   0  0  0  0  0  0  0  0  0  0  0  0
   13.7347   21.6564   24.6736 O   0  0  0  0  0  0  0  0  0  0  0  0
    8.0449   18.1382   26.5434 C   0  0  0  0  0  0  0  0  0  0  0  0
   12.7415   21.2467   22.4644 O   0  0  0  0  0  0  0  0  0  0  0  0
    6.7895   18.0725   25.7893 N   0  0  0  0  0  0  0  0  0  0  0  0
    7.0599   18.5107   24.4177 C   0  0  0  0  0  0  0  0  0  0  0  0
    7.5632   19.9415   24.5041 C   0  0  0  0  0  0  0  0  0  0  0  0
    9.9326   20.5847   24.2518 C   0  0  0  0  0  0  0  0  0  0  0  0
   11.3307   20.8354   24.8752 C   0  0  0  0  0  0  0  0  0  0  0  0
   12.4691   21.7207   23.9900 S   0  0  0  0  0  0  0  0  0  0  0  0
  1  3  1  0  0  0  0
  1  9  1  0  0  0  0
  1 10  1  0  0  0  0
  2 12  1  0  0  0  0
  3  5  1  0  0  0  0
  4 12  2  0  0  0  0
  5  7  1  0  0  0  0
  6 12  2  0  0  0  0
  7  8  1  0  0  0  0
  8  9  1  0  0  0  0
 10 11  1  0  0  0  0
 11 12  1  0  0  0  0
M  END
>  <CHROM.1>
-64.70505368,-171.63543105,68.24206514,10.30043416,20.39255592,24.58609877
2.59782541,0.30014879,2.23881289

>  <Name>
ligand

>  <RI>
0

>  <Rbt.Current_Directory>
/home/itssahil/PROJECTS/Mol_Feturizer/New_Systems/rnas/4E8N

>  <Rbt.Executable>
rbdock ($Id: //depot/dev/client3/rdock/2013.1/src/exe/rbdock.cxx#4 $)

>  <Rbt.Library>
libRbt.so (2013.1, Build901 2013/11/27)

>  <Rbt.Parameter_File>
/export/apps/rDock/src/rDock_2013.1_src/data/scripts/dock_solv.prm

>  <Rbt.Receptor>
prm/blind_docking_60.prm

>  <SCORE>
-16.9889

>  <SCORE.INTER>
-13.0973

>  <SCORE.INTER.CONST>
1

>  <SCORE.INTER.POLAR>
0

>  <SCORE.INTER.ROT>
3

>  <SCORE.INTER.SOLV>
10.5682

>  <SCORE.INTER.VDW>
-17.8543

>  <SCORE.INTER.norm>
-1.09144

>  <SCORE.INTRA>
-3.89161

>  <SCORE.INTRA.DIHEDRAL>
-4.51801

>  <SCORE.INTRA.DIHEDRAL.0>
5.0186

>  <SCORE.INTRA.POLAR>
0

>  <SCORE.INTRA.POLAR.0>
0

>  <SCORE.INTRA.REPUL>
0

>  <SCORE.INTRA.REPUL.0>
0

>  <SCORE.INTRA.SOLV>
-0.0890712

>  <SCORE.INTRA.SOLV.lig_0>
-16.1608

>  <SCORE.INTRA.VDW>
-1.58806

>  <SCORE.INTRA.VDW.0>
1.14169

>  <SCORE.INTRA.norm>
-0.3243

>  <SCORE.RESTR>
0

>  <SCORE.RESTR.CAVITY>
0

>  <SCORE.RESTR.norm>
0

>  <SCORE.SYSTEM>
0

>  <SCORE.SYSTEM.CONST>
0

>  <SCORE.SYSTEM.DIHEDRAL>
0

>  <SCORE.SYSTEM.SOLV>
0

>  <SCORE.SYSTEM.norm>
0

>  <SCORE.heavy>
12

>  <SCORE.norm>
-1.41574

>  <RMSD>
49.904

$$$$
ligand
 OpenBabel11021811493D
libRbt.so/2013.1/901 2013/11/27
 12 12  0  0  0  0  0  0  0  0999 V2000
   10.8109   18.4411   29.8073 N   0  0  0  0  0  0  0  0  0  0  0  0
    6.7498   15.5238   28.6203 O   0  0  0  0  0  0  0  0  0  0  0  0
   11.3391   19.6098   30.5530 C   0  0  0  0  0  0  0  0  0  0  0  0
    6.4718   17.1870   30.2721 O   0  0  0  0  0  0  0  0  0  0  0  0
   12.8600   19.5042   30.5973 C   0  0  0  0  0  0  0  0  0  0  0  0
    6.2669   17.8030   27.9029 O   0  0  0  0  0  0  0  0  0  0  0  0
   13.3983   19.6006   29.2372 N   0  0  0  0  0  0  0  0  0  0  0  0
   12.2704   19.7099   28.3088 C   0  0  0  0  0  0  0  0  0  0  0  0
   11.4416   18.4473   28.4727 C   0  0  0  0  0  0  0  0  0  0  0  0
    9.3004   18.3557   29.6969 C   0  0  0  0  0  0  0  0  0  0  0  0
    8.7211   17.0550   29.0815 C   0  0  0  0  0  0  0  0  0  0  0  0
    7.0409   16.8787   28.9859 S   0  0  0  0  0  0  0  0  0  0  0  0
  1  3  1  0  0  0  0
  1  9  1  0  0  0  0
  1 10  1  0  0  0  0
  2 12  1  0  0  0  0
  3  5  1  0  0  0  0
  4 12  2  0  0  0  0
  5  7  1  0  0  0  0
  6 12  2  0  0  0  0
  7  8  1  0  0  0  0
  8  9  1  0  0  0  0
 10 11  1  0  0  0  0
 11 12  1  0  0  0  0
M  END
>  <CHROM.1>
-172.46594775,177.75236522,-169.53179806,9.37118620,18.01323015,29.25446693
0.15933172,0.41595991,1.42096342

>  <Name>
ligand

>  <RI>
0

>  <Rbt.Current_Directory>
/home/itssahil/PROJECTS/Mol_Feturizer/New_Systems/rnas/4E8N

>  <Rbt.Executable>
rbdock ($Id: //depot/dev/client3/rdock/2013.1/src/exe/rbdock.cxx#4 $)

>  <Rbt.Library>
libRbt.so (2013.1, Build901 2013/11/27)

>  <Rbt.Parameter_File>
/export/apps/rDock/src/rDock_2013.1_src/data/scripts/dock_solv.prm

>  <Rbt.Receptor>
prm/blind_docking_40.prm

>  <SCORE>
-13.4662

>  <SCORE.INTER>
-9.86782

>  <SCORE.INTER.CONST>
1

>  <SCORE.INTER.POLAR>
0

>  <SCORE.INTER.ROT>
3

>  <SCORE.INTER.SOLV>
12.7839

>  <SCORE.INTER.VDW>
-16.4398

>  <SCORE.INTER.norm>
-0.822319

>  <SCORE.INTRA>
-3.59839

>  <SCORE.INTRA.DIHEDRAL>
-4.65893

>  <SCORE.INTRA.DIHEDRAL.0>
5.0186

>  <SCORE.INTRA.POLAR>
0

>  <SCORE.INTRA.POLAR.0>
0

>  <SCORE.INTRA.REPUL>
0

>  <SCORE.INTRA.REPUL.0>
0

>  <SCORE.INTRA.SOLV>
0.0734012

>  <SCORE.INTRA.SOLV.lig_0>
-16.1608

>  <SCORE.INTRA.VDW>
-1.30563

>  <SCORE.INTRA.VDW.0>
1.14169

>  <SCORE.INTRA.norm>
-0.299866

>  <SCORE.RESTR>
1.04464e-05

>  <SCORE.RESTR.CAVITY>
1.04464e-05

>  <SCORE.RESTR.norm>
8.70536e-07

>  <SCORE.SYSTEM>
0

>  <SCORE.SYSTEM.CONST>
0

>  <SCORE.SYSTEM.DIHEDRAL>
0

>  <SCORE.SYSTEM.SOLV>
0

>  <SCORE.SYSTEM.norm>
0

>  <SCORE.heavy>
12

>  <SCORE.norm>
-1.12218

>  <RMSD>
50.365

$$$$
ligand
 OpenBabel11021811493D
libRbt.so/2013.1/901 2013/11/27
 12 12  0  0  0  0  0  0  0  0999 V2000
   11.5324   14.3739   37.1312 N   0  0  0  0  0  0  0  0  0  0  0  0
   13.1258   13.4361   33.2890 O   0  0  0  0  0  0  0  0  0  0  0  0
   11.2383   13.7790   38.4581 C   0  0  0  0  0  0  0  0  0  0  0  0
   14.1405   14.1440   35.2992 O   0  0  0  0  0  0  0  0  0  0  0  0
   11.7176   14.7464   39.5354 C   0  0  0  0  0  0  0  0  0  0  0  0
   14.7531   11.9629   34.3494 O   0  0  0  0  0  0  0  0  0  0  0  0
   10.9455   15.9901   39.4567 N   0  0  0  0  0  0  0  0  0  0  0  0
   10.0192   15.8791   38.3271 C   0  0  0  0  0  0  0  0  0  0  0  0
   10.8664   15.6903   37.0803 C   0  0  0  0  0  0  0  0  0  0  0  0
   11.1590   13.5263   35.9298 C   0  0  0  0  0  0  0  0  0  0  0  0
   12.2102   12.4879   35.4582 C   0  0  0  0  0  0  0  0  0  0  0  0
   13.5595   13.0314   34.5937 S   0  0  0  0  0  0  0  0  0  0  0  0
  1  3  1  0  0  0  0
  1  9  1  0  0  0  0
  1 10  1  0  0  0  0
  2 12  1  0  0  0  0
  3  5  1  0  0  0  0
  4 12  2  0  0  0  0
  5  7  1  0  0  0  0
  6 12  2  0  0  0  0
  7  8  1  0  0  0  0
  8  9  1  0  0  0  0
 10 11  1  0  0  0  0
 11 12  1  0  0  0  0
M  END
>  <CHROM.1>
-85.91608562,-76.24452177,-71.17821047,12.30069912,13.96008530,36.31970457
2.22954180,-0.61308350,1.48202777

>  <Name>
ligand

>  <RI>
0

>  <Rbt.Current_Directory>
/home/itssahil/PROJECTS/Mol_Feturizer/New_Systems/rnas/4E8N

>  <Rbt.Executable>
rbdock ($Id: //depot/dev/client3/rdock/2013.1/src/exe/rbdock.cxx#4 $)

>  <Rbt.Library>
libRbt.so (2013.1, Build901 2013/11/27)

>  <Rbt.Parameter_File>
/export/apps/rDock/src/rDock_2013.1_src/data/scripts/dock_solv.prm

>  <Rbt.Receptor>
prm/blind_docking_60.prm

>  <SCORE>
-15.7845

>  <SCORE.INTER>
-12.4608

>  <SCORE.INTER.CONST>
1

>  <SCORE.INTER.POLAR>
0

>  <SCORE.INTER.ROT>
3

>  <SCORE.INTER.SOLV>
7.78617

>  <SCORE.INTER.VDW>
-16.5026

>  <SCORE.INTER.norm>
-1.0384

>  <SCORE.INTRA>
-3.32366

>  <SCORE.INTRA.DIHEDRAL>
-2.75812

>  <SCORE.INTRA.DIHEDRAL.0>
5.0186

>  <SCORE.INTRA.POLAR>
0

>  <SCORE.INTRA.POLAR.0>
0

>  <SCORE.INTRA.REPUL>
0

>  <SCORE.INTRA.REPUL.0>
0

>  <SCORE.INTRA.SOLV>
0.421983

>  <SCORE.INTRA.SOLV.lig_0>
-16.1608

>  <SCORE.INTRA.VDW>
-2.15559

>  <SCORE.INTRA.VDW.0>
1.14169

>  <SCORE.INTRA.norm>
-0.276971

>  <SCORE.RESTR>
0

>  <SCORE.RESTR.CAVITY>
0

>  <SCORE.RESTR.norm>
0

>  <SCORE.SYSTEM>
0

>  <SCORE.SYSTEM.CONST>
0

>  <SCORE.SYSTEM.DIHEDRAL>
0

>  <SCORE.SYSTEM.SOLV>
0

>  <SCORE.SYSTEM.norm>
0

>  <SCORE.heavy>
12

>  <SCORE.norm>
-1.31537

>  <RMSD>
50.449

$$$$
ligand
 OpenBabel11021811493D
libRbt.so/2013.1/901 2013/11/27
 12 12  0  0  0  0  0  0  0  0999 V2000
   10.0186   18.6473   30.6084 N   0  0  0  0  0  0  0  0  0  0  0  0
   12.7734   20.2558   28.2138 O   0  0  0  0  0  0  0  0  0  0  0  0
    9.7066   18.2667   29.2089 C   0  0  0  0  0  0  0  0  0  0  0  0
   14.5208   18.9216   29.0730 O   0  0  0  0  0  0  0  0  0  0  0  0
    8.7129   17.1101   29.2355 C   0  0  0  0  0  0  0  0  0  0  0  0
   12.4870   17.8350   28.2257 O   0  0  0  0  0  0  0  0  0  0  0  0
    7.4529   17.5595   29.8352 N   0  0  0  0  0  0  0  0  0  0  0  0
    7.6185   18.9554   30.2477 C   0  0  0  0  0  0  0  0  0  0  0  0
    8.7421   18.9817   31.2699 C   0  0  0  0  0  0  0  0  0  0  0  0
   11.0310   19.7640   30.7794 C   0  0  0  0  0  0  0  0  0  0  0  0
   12.5226   19.3854   30.5850 C   0  0  0  0  0  0  0  0  0  0  0  0
   13.0948   19.1126   29.0161 S   0  0  0  0  0  0  0  0  0  0  0  0
  1  3  1  0  0  0  0
  1  9  1  0  0  0  0
  1 10  1  0  0  0  0
  2 12  1  0  0  0  0
  3  5  1  0  0  0  0
  4 12  2  0  0  0  0
  5  7  1  0  0  0  0
  6 12  2  0  0  0  0
  7  8  1  0  0  0  0
  8  9  1  0  0  0  0
 10 11  1  0  0  0  0
 11 12  1  0  0  0  0
M  END
>  <CHROM.1>
-77.53575696,74.24338326,53.81863028,11.02441068,18.77702397,29.59149407
-3.08134830,-0.28335118,-2.26123357

>  <Name>
ligand

>  <RI>
0

>  <Rbt.Current_Directory>
/home/itssahil/PROJECTS/Mol_Feturizer/New_Systems/rnas/4E8N

>  <Rbt.Executable>
rbdock ($Id: //depot/dev/client3/rdock/2013.1/src/exe/rbdock.cxx#4 $)

>  <Rbt.Library>
libRbt.so (2013.1, Build901 2013/11/27)

>  <Rbt.Parameter_File>
/export/apps/rDock/src/rDock_2013.1_src/data/scripts/dock_solv.prm

>  <Rbt.Receptor>
prm/blind_docking_40.prm

>  <SCORE>
-16.2087

>  <SCORE.INTER>
-12.3917

>  <SCORE.INTER.CONST>
1

>  <SCORE.INTER.POLAR>
0

>  <SCORE.INTER.ROT>
3

>  <SCORE.INTER.SOLV>
13.4215

>  <SCORE.INTER.VDW>
-18.335

>  <SCORE.INTER.norm>
-1.03264

>  <SCORE.INTRA>
-3.81696

>  <SCORE.INTRA.DIHEDRAL>
-3.65334

>  <SCORE.INTRA.DIHEDRAL.0>
5.0186

>  <SCORE.INTRA.POLAR>
0

>  <SCORE.INTRA.POLAR.0>
0

>  <SCORE.INTRA.REPUL>
0

>  <SCORE.INTRA.REPUL.0>
0

>  <SCORE.INTRA.SOLV>
0.458365

>  <SCORE.INTRA.SOLV.lig_0>
-16.1608

>  <SCORE.INTRA.VDW>
-2.21947

>  <SCORE.INTRA.VDW.0>
1.14169

>  <SCORE.INTRA.norm>
-0.31808

>  <SCORE.RESTR>
0

>  <SCORE.RESTR.CAVITY>
0

>  <SCORE.RESTR.norm>
0

>  <SCORE.SYSTEM>
0

>  <SCORE.SYSTEM.CONST>
0

>  <SCORE.SYSTEM.DIHEDRAL>
0

>  <SCORE.SYSTEM.SOLV>
0

>  <SCORE.SYSTEM.norm>
0

>  <SCORE.heavy>
12

>  <SCORE.norm>
-1.35072

>  <RMSD>
50.567

$$$$
ligand
 OpenBabel11021811493D
libRbt.so/2013.1/901 2013/11/27
 12 12  0  0  0  0  0  0  0  0999 V2000
   10.9235   13.9688   37.6502 N   0  0  0  0  0  0  0  0  0  0  0  0
   12.9817   13.3416   33.1146 O   0  0  0  0  0  0  0  0  0  0  0  0
   11.0843   15.4345   37.4871 C   0  0  0  0  0  0  0  0  0  0  0  0
   14.3037   13.5308   35.0609 O   0  0  0  0  0  0  0  0  0  0  0  0
    9.9760   16.1297   38.2710 C   0  0  0  0  0  0  0  0  0  0  0  0
   13.6802   11.2986   34.2466 O   0  0  0  0  0  0  0  0  0  0  0  0
   10.1369   15.8501   39.7010 N   0  0  0  0  0  0  0  0  0  0  0  0
   11.2822   14.9508   39.8621 C   0  0  0  0  0  0  0  0  0  0  0  0
   10.9544   13.6797   39.0974 C   0  0  0  0  0  0  0  0  0  0  0  0
   11.9216   13.1072   36.9000 C   0  0  0  0  0  0  0  0  0  0  0  0
   11.8091   13.1004   35.3530 C   0  0  0  0  0  0  0  0  0  0  0  0
   13.2072   12.8369   34.4369 S   0  0  0  0  0  0  0  0  0  0  0  0
  1  3  1  0  0  0  0
  1  9  1  0  0  0  0
  1 10  1  0  0  0  0
  2 12  1  0  0  0  0
  3  5  1  0  0  0  0
  4 12  2  0  0  0  0
  5  7  1  0  0  0  0
  6 12  2  0  0  0  0
  7  8  1  0  0  0  0
  8  9  1  0  0  0  0
 10 11  1  0  0  0  0
 11 12  1  0  0  0  0
M  END
>  <CHROM.1>
-68.68542238,150.80827435,-159.33802029,12.03760483,13.79516412,36.46547672
-2.63599612,1.02310402,-1.06190001

>  <Name>
ligand

>  <RI>
0

>  <Rbt.Current_Directory>
/home/itssahil/PROJECTS/Mol_Feturizer/New_Systems/rnas/4E8N

>  <Rbt.Executable>
rbdock ($Id: //depot/dev/client3/rdock/2013.1/src/exe/rbdock.cxx#4 $)

>  <Rbt.Library>
libRbt.so (2013.1, Build901 2013/11/27)

>  <Rbt.Parameter_File>
/export/apps/rDock/src/rDock_2013.1_src/data/scripts/dock_solv.prm

>  <Rbt.Receptor>
prm/blind_docking_100.prm

>  <SCORE>
-14.3472

>  <SCORE.INTER>
-12.1718

>  <SCORE.INTER.CONST>
1

>  <SCORE.INTER.POLAR>
0

>  <SCORE.INTER.ROT>
3

>  <SCORE.INTER.SOLV>
5.99879

>  <SCORE.INTER.VDW>
-15.7141

>  <SCORE.INTER.norm>
-1.01432

>  <SCORE.INTRA>
-2.17537

>  <SCORE.INTRA.DIHEDRAL>
-1.23197

>  <SCORE.INTRA.DIHEDRAL.0>
5.0186

>  <SCORE.INTRA.POLAR>
0

>  <SCORE.INTRA.POLAR.0>
0

>  <SCORE.INTRA.REPUL>
0

>  <SCORE.INTRA.REPUL.0>
0

>  <SCORE.INTRA.SOLV>
0.105631

>  <SCORE.INTRA.SOLV.lig_0>
-16.1608

>  <SCORE.INTRA.VDW>
-1.6122

>  <SCORE.INTRA.VDW.0>
1.14169

>  <SCORE.INTRA.norm>
-0.181281

>  <SCORE.RESTR>
0

>  <SCORE.RESTR.CAVITY>
0

>  <SCORE.RESTR.norm>
0

>  <SCORE.SYSTEM>
0

>  <SCORE.SYSTEM.CONST>
0

>  <SCORE.SYSTEM.DIHEDRAL>
0

>  <SCORE.SYSTEM.SOLV>
0

>  <SCORE.SYSTEM.norm>
0

>  <SCORE.heavy>
12

>  <SCORE.norm>
-1.1956

>  <RMSD>
50.571

$$$$
ligand
 OpenBabel11021811493D
libRbt.so/2013.1/901 2013/11/27
 12 12  0  0  0  0  0  0  0  0999 V2000
   12.7730   27.0200   13.1574 N   0  0  0  0  0  0  0  0  0  0  0  0
   16.3180   25.4898   16.5601 O   0  0  0  0  0  0  0  0  0  0  0  0
   13.2739   26.3307   11.9430 C   0  0  0  0  0  0  0  0  0  0  0  0
   16.8076   27.4870   15.4012 O   0  0  0  0  0  0  0  0  0  0  0  0
   12.0768   25.9499   11.0782 C   0  0  0  0  0  0  0  0  0  0  0  0
   15.2542   27.5534   17.3031 O   0  0  0  0  0  0  0  0  0  0  0  0
   11.3984   27.1648   10.6170 N   0  0  0  0  0  0  0  0  0  0  0  0
   12.0862   28.3189   11.2012 C   0  0  0  0  0  0  0  0  0  0  0  0
   11.9762   28.1792   12.7099 C   0  0  0  0  0  0  0  0  0  0  0  0
   13.8292   27.4387   14.1625 C   0  0  0  0  0  0  0  0  0  0  0  0
   14.6207   26.2984   14.8546 C   0  0  0  0  0  0  0  0  0  0  0  0
   15.7737   26.7029   16.0253 S   0  0  0  0  0  0  0  0  0  0  0  0
  1  3  1  0  0  0  0
  1  9  1  0  0  0  0
  1 10  1  0  0  0  0
  2 12  1  0  0  0  0
  3  5  1  0  0  0  0
  4 12  2  0  0  0  0
  5  7  1  0  0  0  0
  6 12  2  0  0  0  0
  7  8  1  0  0  0  0
  8  9  1  0  0  0  0
 10 11  1  0  0  0  0
 11 12  1  0  0  0  0
M  END
>  <CHROM.1>
-64.71678503,-177.86388299,177.22954741,14.10004302,26.96245002,14.04705252
2.73204707,0.82140318,-2.50766377

>  <Name>
ligand

>  <RI>
0

>  <Rbt.Current_Directory>
/home/itssahil/PROJECTS/Mol_Feturizer/New_Systems/rnas/4E8N

>  <Rbt.Executable>
rbdock ($Id: //depot/dev/client3/rdock/2013.1/src/exe/rbdock.cxx#4 $)

>  <Rbt.Library>
libRbt.so (2013.1, Build901 2013/11/27)

>  <Rbt.Parameter_File>
/export/apps/rDock/src/rDock_2013.1_src/data/scripts/dock_solv.prm

>  <Rbt.Receptor>
prm/blind_docking_60.prm

>  <SCORE>
-12.8988

>  <SCORE.INTER>
-8.89129

>  <SCORE.INTER.CONST>
1

>  <SCORE.INTER.POLAR>
0

>  <SCORE.INTER.ROT>
3

>  <SCORE.INTER.SOLV>
9.95703

>  <SCORE.INTER.VDW>
-14.8465

>  <SCORE.INTER.norm>
-0.740941

>  <SCORE.INTRA>
-4.00755

>  <SCORE.INTRA.DIHEDRAL>
-4.92072

>  <SCORE.INTRA.DIHEDRAL.0>
5.0186

>  <SCORE.INTRA.POLAR>
0

>  <SCORE.INTRA.POLAR.0>
0

>  <SCORE.INTRA.REPUL>
0

>  <SCORE.INTRA.REPUL.0>
0

>  <SCORE.INTRA.SOLV>
0.0725531

>  <SCORE.INTRA.SOLV.lig_0>
-16.1608

>  <SCORE.INTRA.VDW>
-1.58347

>  <SCORE.INTRA.VDW.0>
1.14169

>  <SCORE.INTRA.norm>
-0.333963

>  <SCORE.RESTR>
0

>  <SCORE.RESTR.CAVITY>
0

>  <SCORE.RESTR.norm>
0

>  <SCORE.SYSTEM>
0

>  <SCORE.SYSTEM.CONST>
0

>  <SCORE.SYSTEM.DIHEDRAL>
0

>  <SCORE.SYSTEM.SOLV>
0

>  <SCORE.SYSTEM.norm>
0

>  <SCORE.heavy>
12

>  <SCORE.norm>
-1.0749

>  <RMSD>
51.422

$$$$
ligand
 OpenBabel11021811493D
libRbt.so/2013.1/901 2013/11/27
 12 12  0  0  0  0  0  0  0  0999 V2000
   13.2666   27.2669   14.2903 N   0  0  0  0  0  0  0  0  0  0  0  0
   16.2888   25.3820   17.4772 O   0  0  0  0  0  0  0  0  0  0  0  0
   13.5184   27.4047   12.8348 C   0  0  0  0  0  0  0  0  0  0  0  0
   17.2670   24.3559   15.5899 O   0  0  0  0  0  0  0  0  0  0  0  0
   12.1735   27.4887   12.1203 C   0  0  0  0  0  0  0  0  0  0  0  0
   17.6594   26.7470   15.9937 O   0  0  0  0  0  0  0  0  0  0  0  0
   11.4711   28.7058   12.5381 N   0  0  0  0  0  0  0  0  0  0  0  0
   12.2949   29.3839   13.5420 C   0  0  0  0  0  0  0  0  0  0  0  0
   12.4481   28.4222   14.7080 C   0  0  0  0  0  0  0  0  0  0  0  0
   14.4991   27.1269   15.1636 C   0  0  0  0  0  0  0  0  0  0  0  0
   15.1416   25.7171   15.2378 C   0  0  0  0  0  0  0  0  0  0  0  0
   16.5944   25.5289   16.0847 S   0  0  0  0  0  0  0  0  0  0  0  0
  1  3  1  0  0  0  0
  1  9  1  0  0  0  0
  1 10  1  0  0  0  0
  2 12  1  0  0  0  0
  3  5  1  0  0  0  0
  4 12  2  0  0  0  0
  5  7  1  0  0  0  0
  6 12  2  0  0  0  0
  7  8  1  0  0  0  0
  8  9  1  0  0  0  0
 10 11  1  0  0  0  0
 11 12  1  0  0  0  0
M  END
>  <CHROM.1>
-80.41479406,174.67302645,83.10899859,14.67561859,26.78116063,14.82127293
2.97260119,0.73162373,-2.14566723

>  <Name>
ligand

>  <RI>
0

>  <Rbt.Current_Directory>
/home/itssahil/PROJECTS/Mol_Feturizer/New_Systems/rnas/4E8N

>  <Rbt.Executable>
rbdock ($Id: //depot/dev/client3/rdock/2013.1/src/exe/rbdock.cxx#4 $)

>  <Rbt.Library>
libRbt.so (2013.1, Build901 2013/11/27)

>  <Rbt.Parameter_File>
/export/apps/rDock/src/rDock_2013.1_src/data/scripts/dock_solv.prm

>  <Rbt.Receptor>
prm/blind_docking_60.prm

>  <SCORE>
-11.7298

>  <SCORE.INTER>
-8.42224

>  <SCORE.INTER.CONST>
1

>  <SCORE.INTER.POLAR>
0

>  <SCORE.INTER.ROT>
3

>  <SCORE.INTER.SOLV>
10.1163

>  <SCORE.INTER.VDW>
-14.5869

>  <SCORE.INTER.norm>
-0.701853

>  <SCORE.INTRA>
-3.30759

>  <SCORE.INTRA.DIHEDRAL>
-3.02023

>  <SCORE.INTRA.DIHEDRAL.0>
5.0186

>  <SCORE.INTRA.POLAR>
0

>  <SCORE.INTRA.POLAR.0>
0

>  <SCORE.INTRA.REPUL>
0

>  <SCORE.INTRA.REPUL.0>
0

>  <SCORE.INTRA.SOLV>
-0.0574055

>  <SCORE.INTRA.SOLV.lig_0>
-16.1608

>  <SCORE.INTRA.VDW>
-1.76878

>  <SCORE.INTRA.VDW.0>
1.14169

>  <SCORE.INTRA.norm>
-0.275633

>  <SCORE.RESTR>
0

>  <SCORE.RESTR.CAVITY>
0

>  <SCORE.RESTR.norm>
0

>  <SCORE.SYSTEM>
0

>  <SCORE.SYSTEM.CONST>
0

>  <SCORE.SYSTEM.DIHEDRAL>
0

>  <SCORE.SYSTEM.SOLV>
0

>  <SCORE.SYSTEM.norm>
0

>  <SCORE.heavy>
12

>  <SCORE.norm>
-0.977486

>  <RMSD>
51.427

$$$$
ligand
 OpenBabel11021811493D
libRbt.so/2013.1/901 2013/11/27
 12 12  0  0  0  0  0  0  0  0999 V2000
   24.8927   27.1509   21.5075 N   0  0  0  0  0  0  0  0  0  0  0  0
   21.8642   27.8393   18.5878 O   0  0  0  0  0  0  0  0  0  0  0  0
   25.4809   25.8669   21.9617 C   0  0  0  0  0  0  0  0  0  0  0  0
   20.3220   27.8666   20.3746 O   0  0  0  0  0  0  0  0  0  0  0  0
   26.9777   26.0717   22.1717 C   0  0  0  0  0  0  0  0  0  0  0  0
   20.9445   29.9834   19.2947 O   0  0  0  0  0  0  0  0  0  0  0  0
   27.1938   27.0348   23.2556 N   0  0  0  0  0  0  0  0  0  0  0  0
   25.8839   27.5014   23.7167 C   0  0  0  0  0  0  0  0  0  0  0  0
   25.2111   28.1680   22.5289 C   0  0  0  0  0  0  0  0  0  0  0  0
   23.4061   27.1266   21.2063 C   0  0  0  0  0  0  0  0  0  0  0  0
   22.7409   28.4892   20.8795 C   0  0  0  0  0  0  0  0  0  0  0  0
   21.4561   28.5239   19.7789 S   0  0  0  0  0  0  0  0  0  0  0  0
  1  3  1  0  0  0  0
  1  9  1  0  0  0  0
  1 10  1  0  0  0  0
  2 12  1  0  0  0  0
  3  5  1  0  0  0  0
  4 12  2  0  0  0  0
  5  7  1  0  0  0  0
  6 12  2  0  0  0  0
  7  8  1  0  0  0  0
  8  9  1  0  0  0  0
 10 11  1  0  0  0  0
 11 12  1  0  0  0  0
M  END
>  <CHROM.1>
173.56645240,147.00914294,-51.52204842,23.55125928,27.74728255,21.07464388
-0.06847589,0.61200117,-2.50146970

>  <Name>
ligand

>  <RI>
0

>  <Rbt.Current_Directory>
/home/itssahil/PROJECTS/Mol_Feturizer/New_Systems/rnas/4E8N

>  <Rbt.Executable>
rbdock ($Id: //depot/dev/client3/rdock/2013.1/src/exe/rbdock.cxx#4 $)

>  <Rbt.Library>
libRbt.so (2013.1, Build901 2013/11/27)

>  <Rbt.Parameter_File>
/export/apps/rDock/src/rDock_2013.1_src/data/scripts/dock_solv.prm

>  <Rbt.Receptor>
prm/blind_docking_60.prm

>  <SCORE>
-12.3174

>  <SCORE.INTER>
-10.7381

>  <SCORE.INTER.CONST>
1

>  <SCORE.INTER.POLAR>
0

>  <SCORE.INTER.ROT>
3

>  <SCORE.INTER.SOLV>
9.66262

>  <SCORE.INTER.VDW>
-15.9796

>  <SCORE.INTER.norm>
-0.894844

>  <SCORE.INTRA>
-1.57931

>  <SCORE.INTRA.DIHEDRAL>
-1.53957

>  <SCORE.INTRA.DIHEDRAL.0>
5.0186

>  <SCORE.INTRA.POLAR>
0

>  <SCORE.INTRA.POLAR.0>
0

>  <SCORE.INTRA.REPUL>
0

>  <SCORE.INTRA.REPUL.0>
0

>  <SCORE.INTRA.SOLV>
-0.105852

>  <SCORE.INTRA.SOLV.lig_0>
-16.1608

>  <SCORE.INTRA.VDW>
-0.756601

>  <SCORE.INTRA.VDW.0>
1.14169

>  <SCORE.INTRA.norm>
-0.131609

>  <SCORE.RESTR>
0

>  <SCORE.RESTR.CAVITY>
0

>  <SCORE.RESTR.norm>
0

>  <SCORE.SYSTEM>
0

>  <SCORE.SYSTEM.CONST>
0

>  <SCORE.SYSTEM.DIHEDRAL>
0

>  <SCORE.SYSTEM.SOLV>
0

>  <SCORE.SYSTEM.norm>
0

>  <SCORE.heavy>
12

>  <SCORE.norm>
-1.02645

>  <RMSD>
51.523

$$$$
ligand
 OpenBabel11021811493D
libRbt.so/2013.1/901 2013/11/27
 12 12  0  0  0  0  0  0  0  0999 V2000
    1.8928   19.0931   22.5908 N   0  0  0  0  0  0  0  0  0  0  0  0
   -1.7023   17.6364   20.3229 O   0  0  0  0  0  0  0  0  0  0  0  0
    3.3014   18.8898   22.1719 C   0  0  0  0  0  0  0  0  0  0  0  0
   -0.3569   16.5341   18.7270 O   0  0  0  0  0  0  0  0  0  0  0  0
    4.1143   20.1019   22.6151 C   0  0  0  0  0  0  0  0  0  0  0  0
   -0.8601   15.4109   20.8530 O   0  0  0  0  0  0  0  0  0  0  0  0
    4.1225   20.1785   24.0790 N   0  0  0  0  0  0  0  0  0  0  0  0
    3.2947   19.0858   24.5958 C   0  0  0  0  0  0  0  0  0  0  0  0
    1.8926   19.3010   24.0522 C   0  0  0  0  0  0  0  0  0  0  0  0
    0.9213   17.9974   22.1950 C   0  0  0  0  0  0  0  0  0  0  0  0
    0.8104   17.6806   20.6807 C   0  0  0  0  0  0  0  0  0  0  0  0
   -0.5388   16.8231   20.1258 S   0  0  0  0  0  0  0  0  0  0  0  0
  1  3  1  0  0  0  0
  1  9  1  0  0  0  0
  1 10  1  0  0  0  0
  2 12  1  0  0  0  0
  3  5  1  0  0  0  0
  4 12  2  0  0  0  0
  5  7  1  0  0  0  0
  6 12  2  0  0  0  0
  7  8  1  0  0  0  0
  8  9  1  0  0  0  0
 10 11  1  0  0  0  0
 11 12  1  0  0  0  0
M  END
>  <CHROM.1>
-57.63252005,-162.30370611,65.63831973,1.15143191,18.04328583,21.68901651
0.69258266,0.52674217,1.42659393

>  <Name>
ligand

>  <RI>
0

>  <Rbt.Current_Directory>
/home/itssahil/PROJECTS/Mol_Feturizer/New_Systems/rnas/4E8N

>  <Rbt.Executable>
rbdock ($Id: //depot/dev/client3/rdock/2013.1/src/exe/rbdock.cxx#4 $)

>  <Rbt.Library>
libRbt.so (2013.1, Build901 2013/11/27)

>  <Rbt.Parameter_File>
/export/apps/rDock/src/rDock_2013.1_src/data/scripts/dock_solv.prm

>  <Rbt.Receptor>
prm/blind_docking_40.prm

>  <SCORE>
-9.65283

>  <SCORE.INTER>
-6.24646

>  <SCORE.INTER.CONST>
1

>  <SCORE.INTER.POLAR>
0

>  <SCORE.INTER.ROT>
3

>  <SCORE.INTER.SOLV>
3.02332

>  <SCORE.INTER.VDW>
-10.7721

>  <SCORE.INTER.norm>
-0.520539

>  <SCORE.INTRA>
-3.40637

>  <SCORE.INTRA.DIHEDRAL>
-3.82609

>  <SCORE.INTRA.DIHEDRAL.0>
5.0186

>  <SCORE.INTRA.POLAR>
0

>  <SCORE.INTRA.POLAR.0>
0

>  <SCORE.INTRA.REPUL>
0

>  <SCORE.INTRA.REPUL.0>
0

>  <SCORE.INTRA.SOLV>
-0.0906268

>  <SCORE.INTRA.SOLV.lig_0>
-16.1608

>  <SCORE.INTRA.VDW>
-1.44801

>  <SCORE.INTRA.VDW.0>
1.14169

>  <SCORE.INTRA.norm>
-0.283864

>  <SCORE.RESTR>
0

>  <SCORE.RESTR.CAVITY>
0

>  <SCORE.RESTR.norm>
0

>  <SCORE.SYSTEM>
0

>  <SCORE.SYSTEM.CONST>
0

>  <SCORE.SYSTEM.DIHEDRAL>
0

>  <SCORE.SYSTEM.SOLV>
0

>  <SCORE.SYSTEM.norm>
0

>  <SCORE.heavy>
12

>  <SCORE.norm>
-0.804403

>  <RMSD>
51.703

$$$$
ligand
 OpenBabel11021811493D
libRbt.so/2013.1/901 2013/11/27
 12 12  0  0  0  0  0  0  0  0999 V2000
   23.4378   28.0696   21.5574 N   0  0  0  0  0  0  0  0  0  0  0  0
   25.8190   27.1854   23.7949 O   0  0  0  0  0  0  0  0  0  0  0  0
   22.4606   28.8018   20.7150 C   0  0  0  0  0  0  0  0  0  0  0  0
   26.9151   25.2188   23.0858 O   0  0  0  0  0  0  0  0  0  0  0  0
   22.0142   30.0491   21.4707 C   0  0  0  0  0  0  0  0  0  0  0  0
   27.1321   27.2641   21.7426 O   0  0  0  0  0  0  0  0  0  0  0  0
   23.1585   30.9465   21.6557 N   0  0  0  0  0  0  0  0  0  0  0  0
   24.3431   30.2944   21.0920 C   0  0  0  0  0  0  0  0  0  0  0  0
   24.5418   29.0006   21.8631 C   0  0  0  0  0  0  0  0  0  0  0  0
   23.9642   26.7693   20.9800 C   0  0  0  0  0  0  0  0  0  0  0  0
   24.7118   25.8265   21.9589 C   0  0  0  0  0  0  0  0  0  0  0  0
   26.1509   26.3652   22.6675 S   0  0  0  0  0  0  0  0  0  0  0  0
  1  3  1  0  0  0  0
  1  9  1  0  0  0  0
  1 10  1  0  0  0  0
  2 12  1  0  0  0  0
  3  5  1  0  0  0  0
  4 12  2  0  0  0  0
  5  7  1  0  0  0  0
  6 12  2  0  0  0  0
  7  8  1  0  0  0  0
  8  9  1  0  0  0  0
 10 11  1  0  0  0  0
 11 12  1  0  0  0  0
M  END
>  <CHROM.1>
-165.95372975,-63.28404733,82.11414089,24.76782989,27.78664472,21.98626962
2.35424886,-0.40997278,0.01141575

>  <Name>
ligand

>  <RI>
0

>  <Rbt.Current_Directory>
/home/itssahil/PROJECTS/Mol_Feturizer/New_Systems/rnas/4E8N

>  <Rbt.Executable>
rbdock ($Id: //depot/dev/client3/rdock/2013.1/src/exe/rbdock.cxx#4 $)

>  <Rbt.Library>
libRbt.so (2013.1, Build901 2013/11/27)

>  <Rbt.Parameter_File>
/export/apps/rDock/src/rDock_2013.1_src/data/scripts/dock_solv.prm

>  <Rbt.Receptor>
prm/blind_docking_60.prm

>  <SCORE>
-10.963

>  <SCORE.INTER>
-7.47767

>  <SCORE.INTER.CONST>
1

>  <SCORE.INTER.POLAR>
0

>  <SCORE.INTER.ROT>
3

>  <SCORE.INTER.SOLV>
9.55762

>  <SCORE.INTER.VDW>
-13.771

>  <SCORE.INTER.norm>
-0.623139

>  <SCORE.INTRA>
-3.48537

>  <SCORE.INTRA.DIHEDRAL>
-3.6228

>  <SCORE.INTRA.DIHEDRAL.0>
5.0186

>  <SCORE.INTRA.POLAR>
0

>  <SCORE.INTRA.POLAR.0>
0

>  <SCORE.INTRA.REPUL>
0

>  <SCORE.INTRA.REPUL.0>
0

>  <SCORE.INTRA.SOLV>
0.374182

>  <SCORE.INTRA.SOLV.lig_0>
-16.1608

>  <SCORE.INTRA.VDW>
-1.86106

>  <SCORE.INTRA.VDW.0>
1.14169

>  <SCORE.INTRA.norm>
-0.290448

>  <SCORE.RESTR>
5.31397e-05

>  <SCORE.RESTR.CAVITY>
5.31397e-05

>  <SCORE.RESTR.norm>
4.42831e-06

>  <SCORE.SYSTEM>
0

>  <SCORE.SYSTEM.CONST>
0

>  <SCORE.SYSTEM.DIHEDRAL>
0

>  <SCORE.SYSTEM.SOLV>
0

>  <SCORE.SYSTEM.norm>
0

>  <SCORE.heavy>
12

>  <SCORE.norm>
-0.913583

>  <RMSD>
51.929

$$$$
ligand
 OpenBabel11021811493D
libRbt.so/2013.1/901 2013/11/27
 12 12  0  0  0  0  0  0  0  0999 V2000
   24.6463   29.0073   22.3699 N   0  0  0  0  0  0  0  0  0  0  0  0
   22.3889   29.6836   18.7542 O   0  0  0  0  0  0  0  0  0  0  0  0
   25.9677   29.1710   23.0241 C   0  0  0  0  0  0  0  0  0  0  0  0
   22.1172   28.0033   20.3895 O   0  0  0  0  0  0  0  0  0  0  0  0
   26.1598   28.0254   24.0125 C   0  0  0  0  0  0  0  0  0  0  0  0
   20.2924   29.6000   19.9953 O   0  0  0  0  0  0  0  0  0  0  0  0
   26.2102   26.7534   23.2855 N   0  0  0  0  0  0  0  0  0  0  0  0
   26.0016   27.0346   21.8629 C   0  0  0  0  0  0  0  0  0  0  0  0
   24.6291   27.6736   21.7374 C   0  0  0  0  0  0  0  0  0  0  0  0
   24.2626   30.0876   21.3765 C   0  0  0  0  0  0  0  0  0  0  0  0
   22.7455   30.3432   21.1793 C   0  0  0  0  0  0  0  0  0  0  0  0
   21.8976   29.3895   20.0680 S   0  0  0  0  0  0  0  0  0  0  0  0
  1  3  1  0  0  0  0
  1  9  1  0  0  0  0
  1 10  1  0  0  0  0
  2 12  1  0  0  0  0
  3  5  1  0  0  0  0
  4 12  2  0  0  0  0
  5  7  1  0  0  0  0
  6 12  2  0  0  0  0
  7  8  1  0  0  0  0
  8  9  1  0  0  0  0
 10 11  1  0  0  0  0
 11 12  1  0  0  0  0
M  END
>  <CHROM.1>
-152.51612399,-85.61547484,-66.18290329,23.67888194,28.80421687,21.31439906
-0.17960728,-0.66849733,0.20479578

>  <Name>
ligand

>  <RI>
0

>  <Rbt.Current_Directory>
/home/itssahil/PROJECTS/Mol_Feturizer/New_Systems/rnas/4E8N

>  <Rbt.Executable>
rbdock ($Id: //depot/dev/client3/rdock/2013.1/src/exe/rbdock.cxx#4 $)

>  <Rbt.Library>
libRbt.so (2013.1, Build901 2013/11/27)

>  <Rbt.Parameter_File>
/export/apps/rDock/src/rDock_2013.1_src/data/scripts/dock_solv.prm

>  <Rbt.Receptor>
prm/blind_docking_60.prm

>  <SCORE>
-13.8677

>  <SCORE.INTER>
-11.2998

>  <SCORE.INTER.CONST>
1

>  <SCORE.INTER.POLAR>
0

>  <SCORE.INTER.ROT>
3

>  <SCORE.INTER.SOLV>
7.73657

>  <SCORE.INTER.VDW>
-15.7121

>  <SCORE.INTER.norm>
-0.941653

>  <SCORE.INTRA>
-2.56782

>  <SCORE.INTRA.DIHEDRAL>
-1.84596

>  <SCORE.INTRA.DIHEDRAL.0>
5.0186

>  <SCORE.INTRA.POLAR>
0

>  <SCORE.INTRA.POLAR.0>
0

>  <SCORE.INTRA.REPUL>
0

>  <SCORE.INTRA.REPUL.0>
0

>  <SCORE.INTRA.SOLV>
0.473847

>  <SCORE.INTRA.SOLV.lig_0>
-16.1608

>  <SCORE.INTRA.VDW>
-1.88177

>  <SCORE.INTRA.VDW.0>
1.14169

>  <SCORE.INTRA.norm>
-0.213985

>  <SCORE.RESTR>
0

>  <SCORE.RESTR.CAVITY>
0

>  <SCORE.RESTR.norm>
0

>  <SCORE.SYSTEM>
0

>  <SCORE.SYSTEM.CONST>
0

>  <SCORE.SYSTEM.DIHEDRAL>
0

>  <SCORE.SYSTEM.SOLV>
0

>  <SCORE.SYSTEM.norm>
0

>  <SCORE.heavy>
12

>  <SCORE.norm>
-1.15564

>  <RMSD>
52.600

$$$$
ligand
 OpenBabel11021811493D
libRbt.so/2013.1/901 2013/11/27
 12 12  0  0  0  0  0  0  0  0999 V2000
   17.2538   21.5686   39.4989 N   0  0  0  0  0  0  0  0  0  0  0  0
   20.2691   17.8944   38.9915 O   0  0  0  0  0  0  0  0  0  0  0  0
   17.6468   22.5611   40.5291 C   0  0  0  0  0  0  0  0  0  0  0  0
   19.2537   18.8208   37.0726 O   0  0  0  0  0  0  0  0  0  0  0  0
   16.8130   23.8218   40.3246 C   0  0  0  0  0  0  0  0  0  0  0  0
   21.6173   19.3073   37.5324 O   0  0  0  0  0  0  0  0  0  0  0  0
   15.3981   23.5175   40.5584 N   0  0  0  0  0  0  0  0  0  0  0  0
   15.2838   22.0871   40.8537 C   0  0  0  0  0  0  0  0  0  0  0  0
   15.8013   21.3433   39.6344 C   0  0  0  0  0  0  0  0  0  0  0  0
   18.0143   20.2562   39.5219 C   0  0  0  0  0  0  0  0  0  0  0  0
   19.5118   20.3137   39.1216 C   0  0  0  0  0  0  0  0  0  0  0  0
   20.1488   19.0651   38.1736 S   0  0  0  0  0  0  0  0  0  0  0  0
  1  3  1  0  0  0  0
  1  9  1  0  0  0  0
  1 10  1  0  0  0  0
  2 12  1  0  0  0  0
  3  5  1  0  0  0  0
  4 12  2  0  0  0  0
  5  7  1  0  0  0  0
  6 12  2  0  0  0  0
  7  8  1  0  0  0  0
  8  9  1  0  0  0  0
 10 11  1  0  0  0  0
 11 12  1  0  0  0  0
M  END
>  <CHROM.1>
-68.38957978,-140.30185591,-72.68907314,18.34901476,20.64126664,39.16555302
2.35686123,0.23483793,0.31823748

>  <Name>
ligand

>  <RI>
0

>  <Rbt.Current_Directory>
/home/itssahil/PROJECTS/Mol_Feturizer/New_Systems/rnas/4E8N

>  <Rbt.Executable>
rbdock ($Id: //depot/dev/client3/rdock/2013.1/src/exe/rbdock.cxx#4 $)

>  <Rbt.Library>
libRbt.so (2013.1, Build901 2013/11/27)

>  <Rbt.Parameter_File>
/export/apps/rDock/src/rDock_2013.1_src/data/scripts/dock_solv.prm

>  <Rbt.Receptor>
prm/blind_docking_100.prm

>  <SCORE>
-10.0848

>  <SCORE.INTER>
-8.26756

>  <SCORE.INTER.CONST>
1

>  <SCORE.INTER.POLAR>
0

>  <SCORE.INTER.ROT>
3

>  <SCORE.INTER.SOLV>
9.07744

>  <SCORE.INTER.VDW>
-14.1375

>  <SCORE.INTER.norm>
-0.688964

>  <SCORE.INTRA>
-1.81911

>  <SCORE.INTRA.DIHEDRAL>
-0.390153

>  <SCORE.INTRA.DIHEDRAL.0>
5.0186

>  <SCORE.INTRA.POLAR>
0

>  <SCORE.INTRA.POLAR.0>
0

>  <SCORE.INTRA.REPUL>
0

>  <SCORE.INTRA.REPUL.0>
0

>  <SCORE.INTRA.SOLV>
-0.0341606

>  <SCORE.INTRA.SOLV.lig_0>
-16.1608

>  <SCORE.INTRA.VDW>
-1.60696

>  <SCORE.INTRA.VDW.0>
1.14169

>  <SCORE.INTRA.norm>
-0.151593

>  <SCORE.RESTR>
0.00185926

>  <SCORE.RESTR.CAVITY>
0.00185926

>  <SCORE.RESTR.norm>
0.000154938

>  <SCORE.SYSTEM>
0

>  <SCORE.SYSTEM.CONST>
0

>  <SCORE.SYSTEM.DIHEDRAL>
0

>  <SCORE.SYSTEM.SOLV>
0

>  <SCORE.SYSTEM.norm>
0

>  <SCORE.heavy>
12

>  <SCORE.norm>
-0.840401

>  <RMSD>
55.262

$$$$
ligand
 OpenBabel11021811493D
libRbt.so/2013.1/901 2013/11/27
 12 12  0  0  0  0  0  0  0  0999 V2000
    8.2172   22.0823   35.2221 N   0  0  0  0  0  0  0  0  0  0  0  0
    8.3845   16.9441   34.9519 O   0  0  0  0  0  0  0  0  0  0  0  0
    7.9625   22.4339   36.6407 C   0  0  0  0  0  0  0  0  0  0  0  0
    6.2905   17.9102   35.4555 O   0  0  0  0  0  0  0  0  0  0  0  0
    8.7441   23.7017   36.9694 C   0  0  0  0  0  0  0  0  0  0  0  0
    7.0423   17.8267   33.1182 O   0  0  0  0  0  0  0  0  0  0  0  0
    8.2319   24.8159   36.1662 N   0  0  0  0  0  0  0  0  0  0  0  0
    7.1802   24.2973   35.2880 C   0  0  0  0  0  0  0  0  0  0  0  0
    7.8259   23.2456   34.4020 C   0  0  0  0  0  0  0  0  0  0  0  0
    7.5486   20.8145   34.7253 C   0  0  0  0  0  0  0  0  0  0  0  0
    8.2604   19.4772   35.0582 C   0  0  0  0  0  0  0  0  0  0  0  0
    7.4878   18.0243   34.6638 S   0  0  0  0  0  0  0  0  0  0  0  0
  1  3  1  0  0  0  0
  1  9  1  0  0  0  0
  1 10  1  0  0  0  0
  2 12  1  0  0  0  0
  3  5  1  0  0  0  0
  4 12  2  0  0  0  0
  5  7  1  0  0  0  0
  6 12  2  0  0  0  0
  7  8  1  0  0  0  0
  8  9  1  0  0  0  0
 10 11  1  0  0  0  0
 11 12  1  0  0  0  0
M  END
>  <CHROM.1>
-81.62468437,174.09542915,174.76589501,7.72241081,20.58334594,35.14736152
1.32309550,-1.16657380,-0.01231008

>  <Name>
ligand

>  <RI>
0

>  <Rbt.Current_Directory>
/home/itssahil/PROJECTS/Mol_Feturizer/New_Systems/rnas/4E8N

>  <Rbt.Executable>
rbdock ($Id: //depot/dev/client3/rdock/2013.1/src/exe/rbdock.cxx#4 $)

>  <Rbt.Library>
libRbt.so (2013.1, Build901 2013/11/27)

>  <Rbt.Parameter_File>
/export/apps/rDock/src/rDock_2013.1_src/data/scripts/dock_solv.prm

>  <Rbt.Receptor>
prm/blind_docking_100.prm

>  <SCORE>
-14.2213

>  <SCORE.INTER>
-10.4209

>  <SCORE.INTER.CONST>
1

>  <SCORE.INTER.POLAR>
0

>  <SCORE.INTER.ROT>
3

>  <SCORE.INTER.SOLV>
14.623

>  <SCORE.INTER.VDW>
-17.4216

>  <SCORE.INTER.norm>
-0.86841

>  <SCORE.INTRA>
-3.80036

>  <SCORE.INTRA.DIHEDRAL>
-4.05234

>  <SCORE.INTRA.DIHEDRAL.0>
5.0186

>  <SCORE.INTRA.POLAR>
0

>  <SCORE.INTRA.POLAR.0>
0

>  <SCORE.INTRA.REPUL>
0

>  <SCORE.INTRA.REPUL.0>
0

>  <SCORE.INTRA.SOLV>
0.0703007

>  <SCORE.INTRA.SOLV.lig_0>
-16.1608

>  <SCORE.INTRA.VDW>
-1.80934

>  <SCORE.INTRA.VDW.0>
1.14169

>  <SCORE.INTRA.norm>
-0.316696

>  <SCORE.RESTR>
0

>  <SCORE.RESTR.CAVITY>
0

>  <SCORE.RESTR.norm>
0

>  <SCORE.SYSTEM>
0

>  <SCORE.SYSTEM.CONST>
0

>  <SCORE.SYSTEM.DIHEDRAL>
0

>  <SCORE.SYSTEM.SOLV>
0

>  <SCORE.SYSTEM.norm>
0

>  <SCORE.heavy>
12

>  <SCORE.norm>
-1.18511

>  <RMSD>
56.301

$$$$
ligand
 OpenBabel11021811493D
libRbt.so/2013.1/901 2013/11/27
 12 12  0  0  0  0  0  0  0  0999 V2000
    7.6665   21.3200   33.6384 N   0  0  0  0  0  0  0  0  0  0  0  0
    8.5720   25.3519   35.9163 O   0  0  0  0  0  0  0  0  0  0  0  0
    7.1975   20.2609   32.7114 C   0  0  0  0  0  0  0  0  0  0  0  0
    6.7510   23.9936   36.5574 O   0  0  0  0  0  0  0  0  0  0  0  0
    8.1949   19.1079   32.7549 C   0  0  0  0  0  0  0  0  0  0  0  0
    8.9885   22.9951   36.3798 O   0  0  0  0  0  0  0  0  0  0  0  0
    8.2008   18.5146   34.0955 N   0  0  0  0  0  0  0  0  0  0  0  0
    7.2790   19.2826   34.9362 C   0  0  0  0  0  0  0  0  0  0  0  0
    7.8026   20.7081   34.9748 C   0  0  0  0  0  0  0  0  0  0  0  0
    6.8133   22.5729   33.6959 C   0  0  0  0  0  0  0  0  0  0  0  0
    7.5261   23.8796   34.1325 C   0  0  0  0  0  0  0  0  0  0  0  0
    7.9475   24.0714   35.7601 S   0  0  0  0  0  0  0  0  0  0  0  0
  1  3  1  0  0  0  0
  1  9  1  0  0  0  0
  1 10  1  0  0  0  0
  2 12  1  0  0  0  0
  3  5  1  0  0  0  0
  4 12  2  0  0  0  0
  5  7  1  0  0  0  0
  6 12  2  0  0  0  0
  7  8  1  0  0  0  0
  8  9  1  0  0  0  0
 10 11  1  0  0  0  0
 11 12  1  0  0  0  0
M  END
>  <CHROM.1>
-154.66797831,-73.29719878,-179.29307645,7.77498772,22.11815066,34.78660520
1.68615271,1.24177877,-2.82010528

>  <Name>
ligand

>  <RI>
0

>  <Rbt.Current_Directory>
/home/itssahil/PROJECTS/Mol_Feturizer/New_Systems/rnas/4E8N

>  <Rbt.Executable>
rbdock ($Id: //depot/dev/client3/rdock/2013.1/src/exe/rbdock.cxx#4 $)

>  <Rbt.Library>
libRbt.so (2013.1, Build901 2013/11/27)

>  <Rbt.Parameter_File>
/export/apps/rDock/src/rDock_2013.1_src/data/scripts/dock_solv.prm

>  <Rbt.Receptor>
prm/blind_docking_60.prm

>  <SCORE>
-16.2128

>  <SCORE.INTER>
-12.7443

>  <SCORE.INTER.CONST>
1

>  <SCORE.INTER.POLAR>
0

>  <SCORE.INTER.ROT>
3

>  <SCORE.INTER.SOLV>
10.4793

>  <SCORE.INTER.VDW>
-17.5893

>  <SCORE.INTER.norm>
-1.06202

>  <SCORE.INTRA>
-3.46852

>  <SCORE.INTRA.DIHEDRAL>
-3.54932

>  <SCORE.INTRA.DIHEDRAL.0>
5.0186

>  <SCORE.INTRA.POLAR>
0

>  <SCORE.INTRA.POLAR.0>
0

>  <SCORE.INTRA.REPUL>
0

>  <SCORE.INTRA.REPUL.0>
0

>  <SCORE.INTRA.SOLV>
0.840069

>  <SCORE.INTRA.SOLV.lig_0>
-16.1608

>  <SCORE.INTRA.VDW>
-2.1139

>  <SCORE.INTRA.VDW.0>
1.14169

>  <SCORE.INTRA.norm>
-0.289044

>  <SCORE.RESTR>
0

>  <SCORE.RESTR.CAVITY>
0

>  <SCORE.RESTR.norm>
0

>  <SCORE.SYSTEM>
0

>  <SCORE.SYSTEM.CONST>
0

>  <SCORE.SYSTEM.DIHEDRAL>
0

>  <SCORE.SYSTEM.SOLV>
0

>  <SCORE.SYSTEM.norm>
0

>  <SCORE.heavy>
12

>  <SCORE.norm>
-1.35107

>  <RMSD>
56.468

$$$$
ligand
 OpenBabel11021811493D
libRbt.so/2013.1/901 2013/11/27
 12 12  0  0  0  0  0  0  0  0999 V2000
   15.4311   22.0492   41.3183 N   0  0  0  0  0  0  0  0  0  0  0  0
   17.4493   22.9390   45.4352 O   0  0  0  0  0  0  0  0  0  0  0  0
   16.5504   21.6163   40.4462 C   0  0  0  0  0  0  0  0  0  0  0  0
   15.2411   23.7684   45.5214 O   0  0  0  0  0  0  0  0  0  0  0  0
   15.9642   20.9269   39.2185 C   0  0  0  0  0  0  0  0  0  0  0  0
   15.7926   21.6976   46.7224 O   0  0  0  0  0  0  0  0  0  0  0  0
   15.1805   21.8918   38.4414 N   0  0  0  0  0  0  0  0  0  0  0  0
   15.1956   23.1703   39.1565 C   0  0  0  0  0  0  0  0  0  0  0  0
   14.5564   22.9236   40.5124 C   0  0  0  0  0  0  0  0  0  0  0  0
   15.8287   22.7231   42.6178 C   0  0  0  0  0  0  0  0  0  0  0  0
   15.7349   21.8617   43.9044 C   0  0  0  0  0  0  0  0  0  0  0  0
   16.0597   22.5905   45.3966 S   0  0  0  0  0  0  0  0  0  0  0  0
  1  3  1  0  0  0  0
  1  9  1  0  0  0  0
  1 10  1  0  0  0  0
  2 12  1  0  0  0  0
  3  5  1  0  0  0  0
  4 12  2  0  0  0  0
  5  7  1  0  0  0  0
  6 12  2  0  0  0  0
  7  8  1  0  0  0  0
  8  9  1  0  0  0  0
 10 11  1  0  0  0  0
 11 12  1  0  0  0  0
M  END
>  <CHROM.1>
-102.63432559,-175.71559742,-67.19978058,15.79067037,22.38351969,42.78122085
-1.73473277,-0.91071644,1.35437290

>  <Name>
ligand

>  <RI>
0

>  <Rbt.Current_Directory>
/home/itssahil/PROJECTS/Mol_Feturizer/New_Systems/rnas/4E8N

>  <Rbt.Executable>
rbdock ($Id: //depot/dev/client3/rdock/2013.1/src/exe/rbdock.cxx#4 $)

>  <Rbt.Library>
libRbt.so (2013.1, Build901 2013/11/27)

>  <Rbt.Parameter_File>
/export/apps/rDock/src/rDock_2013.1_src/data/scripts/dock_solv.prm

>  <Rbt.Receptor>
prm/blind_docking_60.prm

>  <SCORE>
-13.8835

>  <SCORE.INTER>
-10.596

>  <SCORE.INTER.CONST>
1

>  <SCORE.INTER.POLAR>
0

>  <SCORE.INTER.ROT>
3

>  <SCORE.INTER.SOLV>
8.31282

>  <SCORE.INTER.VDW>
-15.435

>  <SCORE.INTER.norm>
-0.883002

>  <SCORE.INTRA>
-3.28752

>  <SCORE.INTRA.DIHEDRAL>
-2.82785

>  <SCORE.INTRA.DIHEDRAL.0>
5.0186

>  <SCORE.INTRA.POLAR>
0

>  <SCORE.INTRA.POLAR.0>
0

>  <SCORE.INTRA.REPUL>
0

>  <SCORE.INTRA.REPUL.0>
0

>  <SCORE.INTRA.SOLV>
-0.0996398

>  <SCORE.INTRA.SOLV.lig_0>
-16.1608

>  <SCORE.INTRA.VDW>
-1.82378

>  <SCORE.INTRA.VDW.0>
1.14169

>  <SCORE.INTRA.norm>
-0.27396

>  <SCORE.RESTR>
0

>  <SCORE.RESTR.CAVITY>
0

>  <SCORE.RESTR.norm>
0

>  <SCORE.SYSTEM>
0

>  <SCORE.SYSTEM.CONST>
0

>  <SCORE.SYSTEM.DIHEDRAL>
0

>  <SCORE.SYSTEM.SOLV>
0

>  <SCORE.SYSTEM.norm>
0

>  <SCORE.heavy>
12

>  <SCORE.norm>
-1.15696

>  <RMSD>
58.606

$$$$
ligand
 OpenBabel11021811493D
libRbt.so/2013.1/901 2013/11/27
 12 12  0  0  0  0  0  0  0  0999 V2000
   15.0330   22.6586   43.9336 N   0  0  0  0  0  0  0  0  0  0  0  0
   18.1132   21.8235   40.5584 O   0  0  0  0  0  0  0  0  0  0  0  0
   14.7808   23.8822   44.7336 C   0  0  0  0  0  0  0  0  0  0  0  0
   16.3516   20.9510   39.2518 O   0  0  0  0  0  0  0  0  0  0  0  0
   13.8203   23.5277   45.8641 C   0  0  0  0  0  0  0  0  0  0  0  0
   16.6267   23.3862   39.4221 O   0  0  0  0  0  0  0  0  0  0  0  0
   14.4587   22.5649   46.7666 N   0  0  0  0  0  0  0  0  0  0  0  0
   15.7815   22.2431   46.2255 C   0  0  0  0  0  0  0  0  0  0  0  0
   15.5585   21.6305   44.8533 C   0  0  0  0  0  0  0  0  0  0  0  0
   15.9416   22.8312   42.7312 C   0  0  0  0  0  0  0  0  0  0  0  0
   15.7963   21.7856   41.5947 C   0  0  0  0  0  0  0  0  0  0  0  0
   16.7336   21.9672   40.1976 S   0  0  0  0  0  0  0  0  0  0  0  0
  1  3  1  0  0  0  0
  1  9  1  0  0  0  0
  1 10  1  0  0  0  0
  2 12  1  0  0  0  0
  3  5  1  0  0  0  0
  4 12  2  0  0  0  0
  5  7  1  0  0  0  0
  6 12  2  0  0  0  0
  7  8  1  0  0  0  0
  8  9  1  0  0  0  0
 10 11  1  0  0  0  0
 11 12  1  0  0  0  0
M  END
>  <CHROM.1>
-156.86267567,177.26111679,64.51012097,15.88160034,22.38165949,42.64605783
2.16729486,-0.94487651,1.93254657

>  <Name>
ligand

>  <RI>
0

>  <Rbt.Current_Directory>
/home/itssahil/PROJECTS/Mol_Feturizer/New_Systems/rnas/4E8N

>  <Rbt.Executable>
rbdock ($Id: //depot/dev/client3/rdock/2013.1/src/exe/rbdock.cxx#4 $)

>  <Rbt.Library>
libRbt.so (2013.1, Build901 2013/11/27)

>  <Rbt.Parameter_File>
/export/apps/rDock/src/rDock_2013.1_src/data/scripts/dock_solv.prm

>  <Rbt.Receptor>
prm/blind_docking_60.prm

>  <SCORE>
-12.8005

>  <SCORE.INTER>
-8.95542

>  <SCORE.INTER.CONST>
1

>  <SCORE.INTER.POLAR>
0

>  <SCORE.INTER.ROT>
3

>  <SCORE.INTER.SOLV>
6.79453

>  <SCORE.INTER.VDW>
-13.8351

>  <SCORE.INTER.norm>
-0.746285

>  <SCORE.INTRA>
-3.84506

>  <SCORE.INTRA.DIHEDRAL>
-4.23768

>  <SCORE.INTRA.DIHEDRAL.0>
5.0186

>  <SCORE.INTRA.POLAR>
0

>  <SCORE.INTRA.POLAR.0>
0

>  <SCORE.INTRA.REPUL>
0

>  <SCORE.INTRA.REPUL.0>
0

>  <SCORE.INTRA.SOLV>
-0.0985619

>  <SCORE.INTRA.SOLV.lig_0>
-16.1608

>  <SCORE.INTRA.VDW>
-1.67694

>  <SCORE.INTRA.VDW.0>
1.14169

>  <SCORE.INTRA.norm>
-0.320421

>  <SCORE.RESTR>
0

>  <SCORE.RESTR.CAVITY>
0

>  <SCORE.RESTR.norm>
0

>  <SCORE.SYSTEM>
0

>  <SCORE.SYSTEM.CONST>
0

>  <SCORE.SYSTEM.DIHEDRAL>
0

>  <SCORE.SYSTEM.SOLV>
0

>  <SCORE.SYSTEM.norm>
0

>  <SCORE.heavy>
12

>  <SCORE.norm>
-1.06671

>  <RMSD>
59.289

$$$$
ligand
 OpenBabel11021811493D
libRbt.so/2013.1/901 2013/11/27
 12 12  0  0  0  0  0  0  0  0999 V2000
   13.3383   21.9047   47.4865 N   0  0  0  0  0  0  0  0  0  0  0  0
   16.6281   23.9767   44.1133 O   0  0  0  0  0  0  0  0  0  0  0  0
   13.8991   22.1918   48.8296 C   0  0  0  0  0  0  0  0  0  0  0  0
   17.3330   22.0246   45.2377 O   0  0  0  0  0  0  0  0  0  0  0  0
   12.7418   22.4588   49.7866 C   0  0  0  0  0  0  0  0  0  0  0  0
   15.8653   21.8170   43.2788 O   0  0  0  0  0  0  0  0  0  0  0  0
   11.9301   21.2459   49.9252 N   0  0  0  0  0  0  0  0  0  0  0  0
   12.4938   20.2189   49.0455 C   0  0  0  0  0  0  0  0  0  0  0  0
   12.4151   20.7617   47.6288 C   0  0  0  0  0  0  0  0  0  0  0  0
   14.3527   21.6535   46.3869 C   0  0  0  0  0  0  0  0  0  0  0  0
   14.9939   22.9058   45.7338 C   0  0  0  0  0  0  0  0  0  0  0  0
   16.2278   22.6882   44.5964 S   0  0  0  0  0  0  0  0  0  0  0  0
  1  3  1  0  0  0  0
  1  9  1  0  0  0  0
  1 10  1  0  0  0  0
  2 12  1  0  0  0  0
  3  5  1  0  0  0  0
  4 12  2  0  0  0  0
  5  7  1  0  0  0  0
  6 12  2  0  0  0  0
  7  8  1  0  0  0  0
  8  9  1  0  0  0  0
 10 11  1  0  0  0  0
 11 12  1  0  0  0  0
M  END
>  <CHROM.1>
-80.96604805,174.80723803,178.39240100,14.59744500,22.07219639,46.54590953
2.62640316,0.79479844,0.94591018

>  <Name>
ligand

>  <RI>
0

>  <Rbt.Current_Directory>
/home/itssahil/PROJECTS/Mol_Feturizer/New_Systems/rnas/4E8N

>  <Rbt.Executable>
rbdock ($Id: //depot/dev/client3/rdock/2013.1/src/exe/rbdock.cxx#4 $)

>  <Rbt.Library>
libRbt.so (2013.1, Build901 2013/11/27)

>  <Rbt.Parameter_File>
/export/apps/rDock/src/rDock_2013.1_src/data/scripts/dock_solv.prm

>  <Rbt.Receptor>
prm/blind_docking_60.prm

>  <SCORE>
-17.878

>  <SCORE.INTER>
-14.029

>  <SCORE.INTER.CONST>
1

>  <SCORE.INTER.POLAR>
0

>  <SCORE.INTER.ROT>
3

>  <SCORE.INTER.SOLV>
9.62962

>  <SCORE.INTER.VDW>
-18.1625

>  <SCORE.INTER.norm>
-1.16908

>  <SCORE.INTRA>
-3.84898

>  <SCORE.INTRA.DIHEDRAL>
-4.17639

>  <SCORE.INTRA.DIHEDRAL.0>
5.0186

>  <SCORE.INTRA.POLAR>
0

>  <SCORE.INTRA.POLAR.0>
0

>  <SCORE.INTRA.REPUL>
0

>  <SCORE.INTRA.REPUL.0>
0

>  <SCORE.INTRA.SOLV>
0.0704765

>  <SCORE.INTRA.SOLV.lig_0>
-16.1608

>  <SCORE.INTRA.VDW>
-1.79602

>  <SCORE.INTRA.VDW.0>
1.14169

>  <SCORE.INTRA.norm>
-0.320748

>  <SCORE.RESTR>
0

>  <SCORE.RESTR.CAVITY>
0

>  <SCORE.RESTR.norm>
0

>  <SCORE.SYSTEM>
0

>  <SCORE.SYSTEM.CONST>
0

>  <SCORE.SYSTEM.DIHEDRAL>
0

>  <SCORE.SYSTEM.SOLV>
0

>  <SCORE.SYSTEM.norm>
0

>  <SCORE.heavy>
12

>  <SCORE.norm>
-1.48983

>  <RMSD>
61.776

$$$$
ligand
 OpenBabel11021811493D
libRbt.so/2013.1/901 2013/11/27
 12 12  0  0  0  0  0  0  0  0999 V2000
   14.9180   21.3899   46.7007 N   0  0  0  0  0  0  0  0  0  0  0  0
   12.0184   22.5016   50.0882 O   0  0  0  0  0  0  0  0  0  0  0  0
   16.0434   21.9951   47.4545 C   0  0  0  0  0  0  0  0  0  0  0  0
   10.6583   21.6498   48.3572 O   0  0  0  0  0  0  0  0  0  0  0  0
   17.3499   21.5620   46.7975 C   0  0  0  0  0  0  0  0  0  0  0  0
   11.0545   20.2786   50.3565 O   0  0  0  0  0  0  0  0  0  0  0  0
   17.4194   22.1061   45.4380 N   0  0  0  0  0  0  0  0  0  0  0  0
   16.1743   22.8319   45.1749 C   0  0  0  0  0  0  0  0  0  0  0  0
   15.0438   21.8242   45.2955 C   0  0  0  0  0  0  0  0  0  0  0  0
   13.5301   21.6801   47.2397 C   0  0  0  0  0  0  0  0  0  0  0  0
   13.0767   20.8548   48.4723 C   0  0  0  0  0  0  0  0  0  0  0  0
   11.6909   21.3420   49.3123 S   0  0  0  0  0  0  0  0  0  0  0  0
  1  3  1  0  0  0  0
  1  9  1  0  0  0  0
  1 10  1  0  0  0  0
  2 12  1  0  0  0  0
  3  5  1  0  0  0  0
  4 12  2  0  0  0  0
  5  7  1  0  0  0  0
  6 12  2  0  0  0  0
  7  8  1  0  0  0  0
  8  9  1  0  0  0  0
 10 11  1  0  0  0  0
 11 12  1  0  0  0  0
M  END
>  <CHROM.1>
-78.52739839,167.50965027,-74.79780971,13.76940494,21.63150964,47.78512701
0.62547730,0.01398816,-1.34620395

>  <Name>
ligand

>  <RI>
0

>  <Rbt.Current_Directory>
/home/itssahil/PROJECTS/Mol_Feturizer/New_Systems/rnas/4E8N

>  <Rbt.Executable>
rbdock ($Id: //depot/dev/client3/rdock/2013.1/src/exe/rbdock.cxx#4 $)

>  <Rbt.Library>
libRbt.so (2013.1, Build901 2013/11/27)

>  <Rbt.Parameter_File>
/export/apps/rDock/src/rDock_2013.1_src/data/scripts/dock_solv.prm

>  <Rbt.Receptor>
prm/blind_docking_80.prm

>  <SCORE>
-15.6501

>  <SCORE.INTER>
-12.2161

>  <SCORE.INTER.CONST>
1

>  <SCORE.INTER.POLAR>
0

>  <SCORE.INTER.ROT>
3

>  <SCORE.INTER.SOLV>
10.6465

>  <SCORE.INTER.VDW>
-17.2929

>  <SCORE.INTER.norm>
-1.01801

>  <SCORE.INTRA>
-3.43396

>  <SCORE.INTRA.DIHEDRAL>
-3.35252

>  <SCORE.INTRA.DIHEDRAL.0>
5.0186

>  <SCORE.INTRA.POLAR>
0

>  <SCORE.INTRA.POLAR.0>
0

>  <SCORE.INTRA.REPUL>
0

>  <SCORE.INTRA.REPUL.0>
0

>  <SCORE.INTRA.SOLV>
-0.0765282

>  <SCORE.INTRA.SOLV.lig_0>
-16.1608

>  <SCORE.INTRA.VDW>
-1.71944

>  <SCORE.INTRA.VDW.0>
1.14169

>  <SCORE.INTRA.norm>
-0.286163

>  <SCORE.RESTR>
0

>  <SCORE.RESTR.CAVITY>
0

>  <SCORE.RESTR.norm>
0

>  <SCORE.SYSTEM>
0

>  <SCORE.SYSTEM.CONST>
0

>  <SCORE.SYSTEM.DIHEDRAL>
0

>  <SCORE.SYSTEM.SOLV>
0

>  <SCORE.SYSTEM.norm>
0

>  <SCORE.heavy>
12

>  <SCORE.norm>
-1.30417

>  <RMSD>
61.968

$$$$
ligand
 OpenBabel11021811493D
libRbt.so/2013.1/901 2013/11/27
 12 12  0  0  0  0  0  0  0  0999 V2000
   13.9582   21.6647   48.4014 N   0  0  0  0  0  0  0  0  0  0  0  0
   15.8641   21.6570   43.6188 O   0  0  0  0  0  0  0  0  0  0  0  0
   12.7325   20.9713   47.9346 C   0  0  0  0  0  0  0  0  0  0  0  0
   15.9927   23.6905   44.8106 O   0  0  0  0  0  0  0  0  0  0  0  0
   12.1077   20.2476   49.1229 C   0  0  0  0  0  0  0  0  0  0  0  0
   17.6349   21.9230   45.2730 O   0  0  0  0  0  0  0  0  0  0  0  0
   11.6755   21.2287   50.1228 N   0  0  0  0  0  0  0  0  0  0  0  0
   12.0507   22.5613   49.6437 C   0  0  0  0  0  0  0  0  0  0  0  0
   13.5631   22.5676   49.5004 C   0  0  0  0  0  0  0  0  0  0  0  0
   14.7413   22.4101   47.3373 C   0  0  0  0  0  0  0  0  0  0  0  0
   14.9082   21.6971   45.9700 C   0  0  0  0  0  0  0  0  0  0  0  0
   16.0936   22.2569   44.9000 S   0  0  0  0  0  0  0  0  0  0  0  0
  1  3  1  0  0  0  0
  1  9  1  0  0  0  0
  1 10  1  0  0  0  0
  2 12  1  0  0  0  0
  3  5  1  0  0  0  0
  4 12  2  0  0  0  0
  5  7  1  0  0  0  0
  6 12  2  0  0  0  0
  7  8  1  0  0  0  0
  8  9  1  0  0  0  0
 10 11  1  0  0  0  0
 11 12  1  0  0  0  0
M  END
>  <CHROM.1>
-41.96340013,-163.68649224,-167.30384710,14.51596812,21.95523168,46.91994916
-2.66860192,-0.77248396,-2.34213345

>  <Name>
ligand

>  <RI>
0

>  <Rbt.Current_Directory>
/home/itssahil/PROJECTS/Mol_Feturizer/New_Systems/rnas/4E8N

>  <Rbt.Executable>
rbdock ($Id: //depot/dev/client3/rdock/2013.1/src/exe/rbdock.cxx#4 $)

>  <Rbt.Library>
libRbt.so (2013.1, Build901 2013/11/27)

>  <Rbt.Parameter_File>
/export/apps/rDock/src/rDock_2013.1_src/data/scripts/dock_solv.prm

>  <Rbt.Receptor>
prm/blind_docking_100.prm

>  <SCORE>
-15.3951

>  <SCORE.INTER>
-12.9687

>  <SCORE.INTER.CONST>
1

>  <SCORE.INTER.POLAR>
0

>  <SCORE.INTER.ROT>
3

>  <SCORE.INTER.SOLV>
9.88503

>  <SCORE.INTER.VDW>
-17.5408

>  <SCORE.INTER.norm>
-1.08072

>  <SCORE.INTRA>
-2.51689

>  <SCORE.INTRA.DIHEDRAL>
-3.24503

>  <SCORE.INTRA.DIHEDRAL.0>
5.0186

>  <SCORE.INTRA.POLAR>
0

>  <SCORE.INTRA.POLAR.0>
0

>  <SCORE.INTRA.REPUL>
0

>  <SCORE.INTRA.REPUL.0>
0

>  <SCORE.INTRA.SOLV>
0.0775288

>  <SCORE.INTRA.SOLV.lig_0>
-16.1608

>  <SCORE.INTRA.VDW>
-0.933133

>  <SCORE.INTRA.VDW.0>
1.14169

>  <SCORE.INTRA.norm>
-0.20974

>  <SCORE.RESTR>
0.0904802

>  <SCORE.RESTR.CAVITY>
0.0904802

>  <SCORE.RESTR.norm>
0.00754001

>  <SCORE.SYSTEM>
0

>  <SCORE.SYSTEM.CONST>
0

>  <SCORE.SYSTEM.DIHEDRAL>
0

>  <SCORE.SYSTEM.SOLV>
0

>  <SCORE.SYSTEM.norm>
0

>  <SCORE.heavy>
12

>  <SCORE.norm>
-1.28292

>  <RMSD>
61.998

$$$$
ligand
 OpenBabel11021811493D
libRbt.so/2013.1/901 2013/11/27
 12 12  0  0  0  0  0  0  0  0999 V2000
   14.5022   21.7738   47.2030 N   0  0  0  0  0  0  0  0  0  0  0  0
   12.6401   19.4184   48.9607 O   0  0  0  0  0  0  0  0  0  0  0  0
   15.7605   21.9440   46.4358 C   0  0  0  0  0  0  0  0  0  0  0  0
   11.0859   20.7462   50.1411 O   0  0  0  0  0  0  0  0  0  0  0  0
   15.4296   21.8756   44.9485 C   0  0  0  0  0  0  0  0  0  0  0  0
   11.3103   21.0355   47.7119 O   0  0  0  0  0  0  0  0  0  0  0  0
   14.5654   23.0029   44.5858 N   0  0  0  0  0  0  0  0  0  0  0  0
   14.2817   23.7678   45.8026 C   0  0  0  0  0  0  0  0  0  0  0  0
   13.5679   22.8263   46.7577 C   0  0  0  0  0  0  0  0  0  0  0  0
   14.6442   21.7731   48.7133 C   0  0  0  0  0  0  0  0  0  0  0  0
   13.3287   21.7931   49.5349 C   0  0  0  0  0  0  0  0  0  0  0  0
   12.0838   20.7315   49.1032 S   0  0  0  0  0  0  0  0  0  0  0  0
  1  3  1  0  0  0  0
  1  9  1  0  0  0  0
  1 10  1  0  0  0  0
  2 12  1  0  0  0  0
  3  5  1  0  0  0  0
  4 12  2  0  0  0  0
  5  7  1  0  0  0  0
  6 12  2  0  0  0  0
  7  8  1  0  0  0  0
  8  9  1  0  0  0  0
 10 11  1  0  0  0  0
 11 12  1  0  0  0  0
M  END
>  <CHROM.1>
171.84616525,46.66758923,49.10632181,13.39843776,21.59001982,47.68758420
-0.96018731,-0.01307188,2.07655024

>  <Name>
ligand

>  <RI>
0

>  <Rbt.Current_Directory>
/home/itssahil/PROJECTS/Mol_Feturizer/New_Systems/rnas/4E8N

>  <Rbt.Executable>
rbdock ($Id: //depot/dev/client3/rdock/2013.1/src/exe/rbdock.cxx#4 $)

>  <Rbt.Library>
libRbt.so (2013.1, Build901 2013/11/27)

>  <Rbt.Parameter_File>
/export/apps/rDock/src/rDock_2013.1_src/data/scripts/dock_solv.prm

>  <Rbt.Receptor>
prm/blind_docking_80.prm

>  <SCORE>
-16.7328

>  <SCORE.INTER>
-13.7362

>  <SCORE.INTER.CONST>
1

>  <SCORE.INTER.POLAR>
0

>  <SCORE.INTER.ROT>
3

>  <SCORE.INTER.SOLV>
8.46174

>  <SCORE.INTER.VDW>
-17.578

>  <SCORE.INTER.norm>
-1.14468

>  <SCORE.INTRA>
-3.00229

>  <SCORE.INTRA.DIHEDRAL>
-3.94981

>  <SCORE.INTRA.DIHEDRAL.0>
5.0186

>  <SCORE.INTRA.POLAR>
0

>  <SCORE.INTRA.POLAR.0>
0

>  <SCORE.INTRA.REPUL>
0

>  <SCORE.INTRA.REPUL.0>
0

>  <SCORE.INTRA.SOLV>
0.543526

>  <SCORE.INTRA.SOLV.lig_0>
-16.1608

>  <SCORE.INTRA.VDW>
-1.29914

>  <SCORE.INTRA.VDW.0>
1.14169

>  <SCORE.INTRA.norm>
-0.25019

>  <SCORE.RESTR>
0.00569235

>  <SCORE.RESTR.CAVITY>
0.00569235

>  <SCORE.RESTR.norm>
0.000474362

>  <SCORE.SYSTEM>
0

>  <SCORE.SYSTEM.CONST>
0

>  <SCORE.SYSTEM.DIHEDRAL>
0

>  <SCORE.SYSTEM.SOLV>
0

>  <SCORE.SYSTEM.norm>
0

>  <SCORE.heavy>
12

>  <SCORE.norm>
-1.3944

>  <RMSD>
62.096

$$$$
